#------------------------------------------------------------------------------
#$Date: 2019-11-24 08:44:03 +0200 (Sun, 24 Nov 2019) $
#$Revision: 237348 $
#$URL: file:///home/coder/svn-repositories/cod/cif/1/55/45/1554564.cif $
#------------------------------------------------------------------------------
#
# This file is available in the Crystallography Open Database (COD),
# http://www.crystallography.net/
#
# All data on this site have been placed in the public domain by the
# contributors.
#
data_1554564
loop_
_publ_author_name
'Sun, Yongjie'
'Jiang, Jun'
'Guo, Xiaochong'
'Wen, Jialin'
'Zhang, Xumu'
_publ_section_title
;
 Asymmetric hydrogenation of \a,\b-unsaturated sulfones by a
 rhodium/thiourea--bisphosphine complex
;
_journal_issue                   9
_journal_name_full               'Organic Chemistry Frontiers'
_journal_page_first              1438
_journal_paper_doi               10.1039/C8QO01291A
_journal_volume                  6
_journal_year                    2019
_chemical_absolute_configuration ad
_chemical_formula_moiety         'C16 H18 O2 S'
_chemical_formula_sum            'C16 H18 O2 S'
_chemical_formula_weight         274.36
_space_group_crystal_system      monoclinic
_space_group_IT_number           4
_space_group_name_Hall           'P 2yb'
_space_group_name_H-M_alt        'P 1 21 1'
_atom_sites_solution_hydrogens   geom
_atom_sites_solution_primary     dual
_audit_creation_date             2018-11-12
_audit_creation_method
;
Olex2 1.2
(compiled 2018.05.29 svn.r3508 for OlexSys, GUI svn.r5506)
;
_audit_update_record
;
2018-11-12 deposited with the CCDC.	2019-03-06 downloaded from the CCDC.
;
_cell_angle_alpha                90
_cell_angle_beta                 104.192(15)
_cell_angle_gamma                90
_cell_formula_units_Z            2
_cell_length_a                   5.712(4)
_cell_length_b                   15.280(13)
_cell_length_c                   8.280(5)
_cell_measurement_reflns_used    9820
_cell_measurement_temperature    100
_cell_measurement_theta_max      27.483
_cell_measurement_theta_min      2.534
_cell_volume                     700.6(9)
_computing_cell_refinement       'SAINT V8.38A (?, 2016)'
_computing_data_reduction        'SAINT V8.38A (?, 2016)'
_computing_molecular_graphics    'Olex2 (Dolomanov et al., 2009)'
_computing_publication_material  'Olex2 (Dolomanov et al., 2009)'
_computing_structure_refinement  'XL (Sheldrick, 2008)'
_computing_structure_solution    'ShelXT (Sheldrick, 2015)'
_diffrn_ambient_temperature      100
_diffrn_detector                 'Bruker PHOTO 100 area detector'
_diffrn_detector_area_resol_mean 7.9
_diffrn_detector_type            'CCD area detector'
_diffrn_measured_fraction_theta_full 1.000
_diffrn_measured_fraction_theta_max 0.995
_diffrn_measurement_device       'three-circle diffractometer'
_diffrn_measurement_device_type  'Bruker PHOTO 100 area detector'
_diffrn_measurement_method       '\w and \f scans'
_diffrn_radiation_monochromator  'mirror optics'
_diffrn_radiation_probe          x-ray
_diffrn_radiation_type           MoK\a
_diffrn_radiation_wavelength     0.71073
_diffrn_reflns_av_R_equivalents  0.0392
_diffrn_reflns_av_unetI/netI     0.0289
_diffrn_reflns_Laue_measured_fraction_full 1.000
_diffrn_reflns_Laue_measured_fraction_max 0.995
_diffrn_reflns_limit_h_max       7
_diffrn_reflns_limit_h_min       -7
_diffrn_reflns_limit_k_max       19
_diffrn_reflns_limit_k_min       -19
_diffrn_reflns_limit_l_max       10
_diffrn_reflns_limit_l_min       -10
_diffrn_reflns_number            14818
_diffrn_reflns_point_group_measured_fraction_full 0.999
_diffrn_reflns_point_group_measured_fraction_max 0.993
_diffrn_reflns_theta_full        25.242
_diffrn_reflns_theta_max         27.544
_diffrn_reflns_theta_min         2.537
_diffrn_source                   'microfocus sealed X-ray tube'
_diffrn_source_type              'Incoatec I\ms'
_exptl_absorpt_coefficient_mu    0.226
_exptl_absorpt_correction_T_max  0.7456
_exptl_absorpt_correction_T_min  0.7034
_exptl_absorpt_correction_type   multi-scan
_exptl_absorpt_process_details
'SADABS-2016/2 (Bruker,2016/2) was used for absorption correction. wR2(int) was 0.0964 before and 0.0493 after correction. The Ratio of minimum to maximum transmission is 0.9434. The \l/2 correction factor is Not present.'
_exptl_crystal_colour            colourless
_exptl_crystal_colour_primary    colourless
_exptl_crystal_density_diffrn    1.301
_exptl_crystal_description       block
_exptl_crystal_F_000             292
_exptl_crystal_size_max          0.45
_exptl_crystal_size_mid          0.42
_exptl_crystal_size_min          0.32
_refine_diff_density_max         0.271
_refine_diff_density_min         -0.182
_refine_diff_density_rms         0.040
_refine_ls_abs_structure_details
;
 Flack x determined using 1476 quotients [(I+)-(I-)]/[(I+)+(I-)]
 (Parsons, Flack and Wagner, Acta Cryst. B69 (2013) 249-259).
;
_refine_ls_abs_structure_Flack   -0.01(2)
_refine_ls_extinction_coef       0.039(5)
_refine_ls_extinction_expression Fc^*^=kFc[1+0.001xFc^2^\l^3^/sin(2\q)]^-1/4^
_refine_ls_extinction_method     'SHELXL-2016/6 (Sheldrick 2016)'
_refine_ls_goodness_of_fit_ref   1.043
_refine_ls_hydrogen_treatment    constr
_refine_ls_matrix_type           full
_refine_ls_number_parameters     175
_refine_ls_number_reflns         3221
_refine_ls_number_restraints     1
_refine_ls_restrained_S_all      1.043
_refine_ls_R_factor_all          0.0256
_refine_ls_R_factor_gt           0.0246
_refine_ls_shift/su_max          0.002
_refine_ls_shift/su_mean         0.000
_refine_ls_structure_factor_coef Fsqd
_refine_ls_weighting_details
'w=1/[\s^2^(Fo^2^)+(0.0314P)^2^+0.1530P] where P=(Fo^2^+2Fc^2^)/3'
_refine_ls_weighting_scheme      calc
_refine_ls_wR_factor_gt          0.0619
_refine_ls_wR_factor_ref         0.0623
_reflns_Friedel_coverage         0.923
_reflns_Friedel_fraction_full    0.998
_reflns_Friedel_fraction_max     0.990
_reflns_number_gt                3155
_reflns_number_total             3221
_reflns_threshold_expression     'I > 2\s(I)'
_iucr_refine_instructions_details
;
TITL cxy0541_0m_a.res in P2(1)
    cxy0541_0m.res
    created by SHELXL-2016/6 at 14:47:43 on 12-Nov-2018
CELL 0.71073 5.7118 15.2798 8.2799 90 104.192 90
ZERR 2 0.0044 0.0133 0.0054 0 0.015 0
LATT -1
SYMM -X,0.5+Y,-Z
SFAC C H O S
UNIT 32 36 4 2

L.S. 4
PLAN  -4 0 0
TEMP 20
HTAB
BOND $H
CONF
fmap 2
acta
REM <olex2.extras>
REM <HklSrc "%.\\cxy0541_0m.hkl">
REM </olex2.extras>

WGHT    0.031400    0.153000
EXTI    0.039038
FVAR       1.25167
S1    4    0.576556    0.543630    0.564513    11.00000    0.01060    0.01960 =
         0.01034   -0.00020    0.00221   -0.00146
O1    3    0.566357    0.605170    0.694791    11.00000    0.02332    0.02617 =
         0.01480   -0.00624    0.00440   -0.00709
O2    3    0.808596    0.508236    0.557254    11.00000    0.01064    0.03357 =
         0.01769    0.00644    0.00244    0.00280
C1    1    0.101384    0.698843   -0.106213    11.00000    0.01853    0.01984 =
         0.01791    0.00502    0.00048   -0.00001
AFIX 137
H1A   2   -0.053508    0.671157   -0.142501    11.00000   -1.50000
H1B   2    0.197127    0.686049   -0.183751    11.00000   -1.50000
H1C   2    0.080136    0.760997   -0.100599    11.00000   -1.50000
AFIX   0
C2    1    0.227054    0.664961    0.062933    11.00000    0.01633    0.01014 =
         0.01707    0.00114    0.00232   -0.00315
C3    1    0.441160    0.618085    0.085949    11.00000    0.01703    0.01505 =
         0.01460    0.00014    0.00632   -0.00026
AFIX  43
H3    2    0.512218    0.610766   -0.002904    11.00000   -1.20000
AFIX   0
C4    1    0.550292    0.582059    0.239797    11.00000    0.01104    0.01588 =
         0.01636    0.00056    0.00479    0.00200
AFIX  43
H4    2    0.692947    0.550403    0.253875    11.00000   -1.20000
AFIX   0
C5    1    0.445322    0.593592    0.371921    11.00000    0.01174    0.01403 =
         0.01168    0.00086    0.00194   -0.00083
C6    1    0.384853    0.455062    0.587639    11.00000    0.01270    0.01869 =
         0.00966    0.00095    0.00373   -0.00127
AFIX  23
H6A   2    0.426086    0.437681    0.703861    11.00000   -1.20000
H6B   2    0.220051    0.476544    0.562004    11.00000   -1.20000
AFIX   0
C7    1    0.391100    0.373264    0.482149    11.00000    0.01488    0.01607 =
         0.01289    0.00158    0.00355    0.00386
AFIX  13
H7    2    0.558711    0.352933    0.504526    11.00000   -1.20000
AFIX   0
C8    1    0.301771    0.387909    0.296466    11.00000    0.01280    0.01229 =
         0.01116   -0.00077    0.00277   -0.00117
C9    1    0.433740    0.356042    0.188746    11.00000    0.01489    0.01582 =
         0.01852   -0.00012    0.00611    0.00189
AFIX  43
H9    2    0.579541    0.327498    0.231653    11.00000   -1.20000
AFIX   0
C10   1    0.350436    0.366350    0.018367    11.00000    0.02175    0.01913 =
         0.01714   -0.00313    0.00987   -0.00056
AFIX  43
H10   2    0.439725    0.344095   -0.052341    11.00000   -1.20000
AFIX   0
C11   1    0.134816    0.409605   -0.047926    11.00000    0.02304    0.01908 =
         0.01011   -0.00082    0.00396   -0.00358
AFIX  43
H11   2    0.080457    0.417098   -0.162490    11.00000   -1.20000
AFIX   0
C12   1    0.083245    0.429822    0.228723    11.00000    0.01403    0.01521 =
         0.01510   -0.00191    0.00549    0.00089
AFIX  43
H12   2   -0.008967    0.450244    0.299106    11.00000   -1.20000
AFIX   0
C13   1    0.000795    0.441631    0.058254    11.00000    0.01486    0.01761 =
         0.01679    0.00144    0.00086    0.00024
AFIX  43
H13   2   -0.143784    0.470900    0.015121    11.00000   -1.20000
AFIX   0
C14   1    0.128580    0.678237    0.199668    11.00000    0.01378    0.01441 =
         0.02417   -0.00008    0.00646    0.00263
AFIX  43
H14   2   -0.011356    0.711377    0.186819    11.00000   -1.20000
AFIX   0
C15   1    0.235701    0.642933    0.353679    11.00000    0.01396    0.01608 =
         0.01842   -0.00272    0.00731    0.00045
AFIX  43
H15   2    0.168613    0.652024    0.443927    11.00000   -1.20000
AFIX   0
C16   1    0.240756    0.301473    0.538590    11.00000    0.03030    0.01571 =
         0.01802    0.00351    0.00735   -0.00114
AFIX 137
H16A  2    0.078730    0.322079    0.527149    11.00000   -1.50000
H16B  2    0.311272    0.287115    0.653067    11.00000   -1.50000
H16C  2    0.238234    0.250324    0.470855    11.00000   -1.50000
AFIX   0
HKLF 4




REM  cxy0541_0m_a.res in P2(1)
REM R1 =  0.0246 for    3155 Fo > 4sig(Fo)  and  0.0256 for all    3221 data
REM    175 parameters refined using      1 restraints

END  
     
WGHT      0.0313      0.1540 

REM Instructions for potential hydrogen bonds
EQIV $1 x-1, y, z
HTAB C6 O2_$1

REM Highest difference peak  0.271,  deepest hole -0.182,  1-sigma level  0.040
Q1    1   0.3425  0.3801  0.3856  11.00000  0.05    0.27
Q2    1   0.5024  0.5630  0.4620  11.00000  0.05    0.26
Q3    1   0.1491  0.6597  0.1262  11.00000  0.05    0.25
Q4    1   0.1593  0.6418  0.2651  11.00000  0.05    0.22

  REM The information below was added by Olex2.
  REM
  REM R1 = 0.0246 for 3155 Fo > 4sig(Fo) and 0.0256 for all 14869 data
  REM n/a parameters refined using n/a restraints
  REM Highest difference peak 0.27, deepest hole -0.18
  REM Mean Shift 0, Max Shift 0.002.

  REM +++ Tabular Listing of Refinement Information +++
  REM R1_all = 0.0256
  REM R1_gt = 0.0246
  REM wR_ref = 0.0623
  REM GOOF = 1.043
  REM Shift_max = 0.002
  REM Shift_mean = 0
  REM Reflections_all = 14869
  REM Reflections_gt = 3155
  REM Parameters = n/a
  REM Hole = -0.18
  REM Peak = 0.27
  REM Flack = -0.01(2)

  
;
_cod_data_source_file            c8qo01291a2.cif
_cod_data_source_block           cxy0541_0m
_cod_database_code               1554564
_shelx_shelxl_version_number     2016/6
_shelx_space_group_comment
;
The symmetry employed for this shelxl refinement is uniquely defined
by the following loop, which should always be used as a source of
symmetry information in preference to the above space-group names.
They are only intended as comments.
;
_olex2_refinement_description
;
1. Fixed Uiso
 At 1.2 times of:
  All C(H) groups, All C(H,H) groups
 At 1.5 times of:
  All C(H,H,H) groups
2.a Ternary CH refined with riding coordinates:
 C7(H7)
2.b Secondary CH2 refined with riding coordinates:
 C6(H6A,H6B)
2.c Aromatic/amide H refined with riding coordinates:
 C3(H3), C4(H4), C9(H9), C10(H10), C11(H11), C12(H12), C13(H13), C14(H14),
 C15(H15)
2.d Idealised Me refined as rotating group:
 C1(H1A,H1B,H1C), C16(H16A,H16B,H16C)
;
_olex2_submission_special_instructions 'No special instructions were received'
loop_
_space_group_symop_operation_xyz
'x, y, z'
'-x, y+1/2, -z'
loop_
_atom_site_label
_atom_site_type_symbol
_atom_site_fract_x
_atom_site_fract_y
_atom_site_fract_z
_atom_site_U_iso_or_equiv
_atom_site_adp_type
_atom_site_occupancy
_atom_site_site_symmetry_order
_atom_site_calc_flag
_atom_site_refinement_flags_posn
S1 S 0.57656(7) 0.54363(3) 0.56451(5) 0.01358(12) Uani 1 1 d .
O1 O 0.5664(3) 0.60517(11) 0.69479(17) 0.0215(3) Uani 1 1 d .
O2 O 0.8086(2) 0.50824(10) 0.55725(17) 0.0208(3) Uani 1 1 d .
C1 C 0.1014(4) 0.69884(14) -0.1062(2) 0.0195(4) Uani 1 1 d .
H1A H -0.053508 0.671157 -0.142501 0.029 Uiso 1 1 calc GR
H1B H 0.197127 0.686049 -0.183751 0.029 Uiso 1 1 calc GR
H1C H 0.080136 0.760997 -0.100599 0.029 Uiso 1 1 calc GR
C2 C 0.2271(3) 0.66496(12) 0.0629(2) 0.0148(4) Uani 1 1 d .
C3 C 0.4412(4) 0.61809(12) 0.0859(2) 0.0151(4) Uani 1 1 d .
H3 H 0.512218 0.610766 -0.002904 0.018 Uiso 1 1 calc R
C4 C 0.5503(3) 0.58206(13) 0.2398(2) 0.0142(4) Uani 1 1 d .
H4 H 0.692947 0.550403 0.253875 0.017 Uiso 1 1 calc R
C5 C 0.4453(3) 0.59359(12) 0.3719(2) 0.0126(3) Uani 1 1 d .
C6 C 0.3849(3) 0.45506(13) 0.5876(2) 0.0135(4) Uani 1 1 d .
H6A H 0.426086 0.437681 0.703861 0.016 Uiso 1 1 calc R
H6B H 0.220051 0.476544 0.562004 0.016 Uiso 1 1 calc R
C7 C 0.3911(3) 0.37326(12) 0.4821(2) 0.0146(4) Uani 1 1 d .
H7 H 0.558711 0.352933 0.504526 0.018 Uiso 1 1 calc R
C8 C 0.3018(3) 0.38791(12) 0.2965(2) 0.0121(3) Uani 1 1 d .
C9 C 0.4337(4) 0.35604(13) 0.1887(2) 0.0161(4) Uani 1 1 d .
H9 H 0.579541 0.327498 0.231653 0.019 Uiso 1 1 calc R
C10 C 0.3504(4) 0.36635(13) 0.0184(2) 0.0185(4) Uani 1 1 d .
H10 H 0.439725 0.344095 -0.052341 0.022 Uiso 1 1 calc R
C11 C 0.1348(4) 0.40961(13) -0.0479(2) 0.0174(4) Uani 1 1 d .
H11 H 0.080457 0.417098 -0.162490 0.021 Uiso 1 1 calc R
C12 C 0.0832(3) 0.42982(12) 0.2287(2) 0.0144(4) Uani 1 1 d .
H12 H -0.008967 0.450244 0.299106 0.017 Uiso 1 1 calc R
C13 C 0.0008(4) 0.44163(13) 0.0583(2) 0.0169(4) Uani 1 1 d .
H13 H -0.143784 0.470900 0.015121 0.020 Uiso 1 1 calc R
C14 C 0.1286(4) 0.67824(13) 0.1997(3) 0.0171(4) Uani 1 1 d .
H14 H -0.011356 0.711377 0.186819 0.021 Uiso 1 1 calc R
C15 C 0.2357(3) 0.64293(13) 0.3537(2) 0.0156(4) Uani 1 1 d .
H15 H 0.168613 0.652024 0.443927 0.019 Uiso 1 1 calc R
C16 C 0.2408(4) 0.30147(13) 0.5386(3) 0.0211(4) Uani 1 1 d .
H16A H 0.078730 0.322079 0.527149 0.032 Uiso 1 1 calc GR
H16B H 0.311272 0.287115 0.653067 0.032 Uiso 1 1 calc GR
H16C H 0.238234 0.250324 0.470855 0.032 Uiso 1 1 calc GR
loop_
_atom_site_aniso_label
_atom_site_aniso_U_11
_atom_site_aniso_U_22
_atom_site_aniso_U_33
_atom_site_aniso_U_23
_atom_site_aniso_U_13
_atom_site_aniso_U_12
S1 0.01060(19) 0.0196(2) 0.01034(19) -0.00020(17) 0.00221(14) -0.00146(19)
O1 0.0233(7) 0.0262(8) 0.0148(6) -0.0062(6) 0.0044(6) -0.0071(6)
O2 0.0106(6) 0.0336(8) 0.0177(7) 0.0064(6) 0.0024(5) 0.0028(6)
C1 0.0185(10) 0.0198(10) 0.0179(10) 0.0050(8) 0.0005(8) 0.0000(8)
C2 0.0163(9) 0.0101(8) 0.0171(9) 0.0011(7) 0.0023(7) -0.0032(7)
C3 0.0170(9) 0.0151(9) 0.0146(9) 0.0001(7) 0.0063(7) -0.0003(7)
C4 0.0110(8) 0.0159(8) 0.0164(8) 0.0006(7) 0.0048(7) 0.0020(7)
C5 0.0117(8) 0.0140(9) 0.0117(8) 0.0009(7) 0.0019(6) -0.0008(7)
C6 0.0127(8) 0.0187(9) 0.0097(8) 0.0009(7) 0.0037(7) -0.0013(7)
C7 0.0149(9) 0.0161(9) 0.0129(8) 0.0016(7) 0.0035(7) 0.0039(7)
C8 0.0128(8) 0.0123(8) 0.0112(8) -0.0008(6) 0.0028(7) -0.0012(7)
C9 0.0149(9) 0.0158(9) 0.0185(9) -0.0001(7) 0.0061(7) 0.0019(7)
C10 0.0218(10) 0.0191(10) 0.0171(9) -0.0031(7) 0.0099(8) -0.0006(8)
C11 0.0230(10) 0.0191(9) 0.0101(9) -0.0008(7) 0.0040(8) -0.0036(8)
C12 0.0140(8) 0.0152(9) 0.0151(9) -0.0019(7) 0.0055(7) 0.0009(7)
C13 0.0149(8) 0.0176(9) 0.0168(9) 0.0014(7) 0.0009(7) 0.0002(7)
C14 0.0138(9) 0.0144(9) 0.0242(10) -0.0001(8) 0.0065(8) 0.0026(7)
C15 0.0140(9) 0.0161(9) 0.0184(9) -0.0027(7) 0.0073(7) 0.0005(7)
C16 0.0303(11) 0.0157(9) 0.0180(9) 0.0035(7) 0.0073(8) -0.0011(8)
loop_
_atom_type_symbol
_atom_type_description
_atom_type_scat_dispersion_real
_atom_type_scat_dispersion_imag
_atom_type_scat_source
C C 0.0033 0.0016 'International Tables Vol C Tables 4.2.6.8 and 6.1.1.4'
H H 0.0000 0.0000 'International Tables Vol C Tables 4.2.6.8 and 6.1.1.4'
O O 0.0106 0.0060 'International Tables Vol C Tables 4.2.6.8 and 6.1.1.4'
S S 0.1246 0.1234 'International Tables Vol C Tables 4.2.6.8 and 6.1.1.4'
loop_
_geom_angle_atom_site_label_1
_geom_angle_atom_site_label_2
_geom_angle_atom_site_label_3
_geom_angle
O1 S1 O2 118.69(9)
O1 S1 C5 107.95(11)
O1 S1 C6 106.04(10)
O2 S1 C5 108.39(9)
O2 S1 C6 108.32(11)
C5 S1 C6 106.88(9)
H1A C1 H1B 109.5
H1A C1 H1C 109.5
H1B C1 H1C 109.5
C2 C1 H1A 109.5
C2 C1 H1B 109.5
C2 C1 H1C 109.5
C3 C2 C1 120.62(18)
C3 C2 C14 118.65(18)
C14 C2 C1 120.72(18)
C2 C3 H3 119.6
C4 C3 C2 120.84(18)
C4 C3 H3 119.6
C3 C4 H4 120.3
C5 C4 C3 119.46(18)
C5 C4 H4 120.3
C4 C5 S1 119.38(15)
C4 C5 C15 120.80(17)
C15 C5 S1 119.81(14)
S1 C6 H6A 108.0
S1 C6 H6B 108.0
H6A C6 H6B 107.2
C7 C6 S1 117.29(13)
C7 C6 H6A 108.0
C7 C6 H6B 108.0
C6 C7 H7 108.0
C6 C7 C16 108.47(16)
C8 C7 C6 114.20(16)
C8 C7 H7 108.0
C8 C7 C16 109.91(16)
C16 C7 H7 108.0
C9 C8 C7 119.97(17)
C9 C8 C12 118.45(18)
C12 C8 C7 121.53(16)
C8 C9 H9 119.7
C10 C9 C8 120.65(19)
C10 C9 H9 119.7
C9 C10 H10 119.7
C9 C10 C11 120.54(18)
C11 C10 H10 119.7
C10 C11 H11 120.3
C10 C11 C13 119.42(18)
C13 C11 H11 120.3
C8 C12 H12 119.4
C13 C12 C8 121.15(17)
C13 C12 H12 119.4
C11 C13 H13 120.1
C12 C13 C11 119.77(19)
C12 C13 H13 120.1
C2 C14 H14 119.5
C15 C14 C2 121.07(18)
C15 C14 H14 119.5
C5 C15 H15 120.5
C14 C15 C5 119.10(17)
C14 C15 H15 120.5
C7 C16 H16A 109.5
C7 C16 H16B 109.5
C7 C16 H16C 109.5
H16A C16 H16B 109.5
H16A C16 H16C 109.5
H16B C16 H16C 109.5
loop_
_geom_bond_atom_site_label_1
_geom_bond_atom_site_label_2
_geom_bond_distance
S1 O1 1.4429(17)
S1 O2 1.4463(17)
S1 C5 1.761(2)
S1 C6 1.780(2)
C1 H1A 0.9600
C1 H1B 0.9600
C1 H1C 0.9600
C1 C2 1.501(3)
C2 C3 1.389(3)
C2 C14 1.397(3)
C3 H3 0.9300
C3 C4 1.387(3)
C4 H4 0.9300
C4 C5 1.382(3)
C5 C15 1.391(3)
C6 H6A 0.9700
C6 H6B 0.9700
C6 C7 1.530(3)
C7 H7 0.9800
C7 C8 1.513(3)
C7 C16 1.535(3)
C8 C9 1.389(3)
C8 C12 1.393(3)
C9 H9 0.9300
C9 C10 1.383(3)
C10 H10 0.9300
C10 C11 1.387(3)
C11 H11 0.9300
C11 C13 1.389(3)
C12 H12 0.9300
C12 C13 1.386(3)
C13 H13 0.9300
C14 H14 0.9300
C14 C15 1.382(3)
C15 H15 0.9300
C16 H16A 0.9600
C16 H16B 0.9600
C16 H16C 0.9600
loop_
_geom_torsion_atom_site_label_1
_geom_torsion_atom_site_label_2
_geom_torsion_atom_site_label_3
_geom_torsion_atom_site_label_4
_geom_torsion
S1 C5 C15 C14 -176.94(15)
S1 C6 C7 C8 -64.7(2)
S1 C6 C7 C16 172.36(14)
O1 S1 C5 C4 139.33(15)
O1 S1 C5 C15 -41.68(17)
O1 S1 C6 C7 -170.82(13)
O2 S1 C5 C4 9.57(19)
O2 S1 C5 C15 -171.44(15)
O2 S1 C6 C7 -42.40(16)
C1 C2 C3 C4 -176.04(18)
C1 C2 C14 C15 176.21(18)
C2 C3 C4 C5 -0.5(3)
C2 C14 C15 C5 0.1(3)
C3 C2 C14 C15 -2.4(3)
C3 C4 C5 S1 177.12(14)
C3 C4 C5 C15 -1.9(3)
C4 C5 C15 C14 2.0(3)
C5 S1 C6 C7 74.20(16)
C6 S1 C5 C4 -106.97(17)
C6 S1 C5 C15 72.02(17)
C6 C7 C8 C9 133.12(18)
C6 C7 C8 C12 -49.6(2)
C7 C8 C9 C10 177.83(18)
C7 C8 C12 C13 -178.88(18)
C8 C9 C10 C11 0.7(3)
C8 C12 C13 C11 1.4(3)
C9 C8 C12 C13 -1.5(3)
C9 C10 C11 C13 -0.9(3)
C10 C11 C13 C12 -0.2(3)
C12 C8 C9 C10 0.5(3)
C14 C2 C3 C4 2.6(3)
C16 C7 C8 C9 -104.7(2)
C16 C7 C8 C12 72.6(2)
loop_
_refln_index_h
_refln_index_k
_refln_index_l
_refln_F_squared_meas
_refln_F_squared_sigma
1 0 0 3450.39 143.35
-1 0 0 3529.85 143.41
-2 0 0 827.74 32.82
2 0 0 765.77 32.78
-2 0 0 782.79 32.36
2 0 0 768.11 32.29
-2 0 0 806.05 32.73
2 0 0 784.09 37.24
-2 0 0 829.49 37.65
3 0 0 505.61 21.32
3 0 0 497.07 20.66
-3 0 0 518.21 20.82
-3 0 0 529.73 21.55
-3 0 0 476.04 21.27
-3 0 0 473.45 28.34
-4 0 0 141.5 7.46
4 0 0 124.02 15.49
4 0 0 128.94 6.14
4 0 0 137.8 7.02
-4 0 0 142.73 6.41
-4 0 0 143.89 7.22
-4 0 0 139.73 17.24
-5 0 0 569.18 23.24
-5 0 0 547.89 24.32
5 0 0 557.51 24.2
-5 0 0 533.42 24.63
5 0 0 593.57 38.23
5 0 0 556.34 23.28
-5 0 0 563.26 38.06
-5 0 0 534.05 24.25
-6 0 0 670.58 48.04
6 0 0 640.72 27.76
6 0 0 623.72 45.04
-6 0 0 610.24 27.84
7 0 0 291.15 14.98
-1 -1 0 1532.39 64.77
1 -1 0 1728.02 67.56
-1 -1 0 1651.84 67.21
1 -1 0 1492 64.79
-1 1 0 1765.4 70.15
1 1 0 1614.77 67.25
1 1 0 1780.22 69.93
1 1 0 1681.84 67.34
-1 1 0 1630.36 67.36
-1 1 0 1508.01 67.26
-2 -1 0 2046.75 83.06
2 -1 0 2010.08 83.14
2 -1 0 1797.66 77.64
-2 -1 0 1868.88 77.95
2 -1 0 1861.2 78
-2 -1 0 1938.61 78
2 1 0 1821.9 78.71
2 1 0 1843.71 79.1
-2 1 0 2072.84 84.24
-2 1 0 1952.03 78.86
-2 1 0 1903.97 78.5
2 1 0 2043.6 83.81
-3 -1 0 295.75 12.72
-3 -1 0 287.67 11.87
3 -1 0 269 12
-3 -1 0 279.14 19.48
3 -1 0 277.48 12.54
-3 -1 0 286.05 12.61
3 -1 0 298.96 19.37
3 1 0 290.8 13.15
-3 1 0 297.79 13.24
-3 1 0 293.96 20.42
-3 1 0 315.9 13.32
-3 1 0 298.06 12.85
-3 1 0 314.77 13.51
3 1 0 298.34 19.78
3 1 0 293.85 12.43
-4 -1 0 727.15 30
4 -1 0 692.58 29.79
-4 -1 0 701.75 28.83
4 -1 0 692.57 29
-4 -1 0 696.38 29.75
-4 -1 0 703 40.43
-4 1 0 700.32 29.93
-4 1 0 711.49 29.09
-4 1 0 715.21 43.12
4 1 0 675.49 28.54
4 1 0 680.34 29.5
4 1 0 666.2 38.62
-4 1 0 693.16 29.64
-4 1 0 740.33 29.74
5 -1 0 93.65 5.7
-5 -1 0 92.3 6.52
5 -1 0 74.69 16.09
-5 -1 0 109.41 18.39
-5 -1 0 98.24 6.24
5 -1 0 96.45 4.8
-5 1 0 87.69 6.76
-5 1 0 81.52 5.51
-5 1 0 104.14 6.42
5 1 0 67.15 18.07
-5 1 0 92.03 5.08
-5 1 0 98.6 17.79
5 1 0 90.04 4.29
5 1 0 98.01 5.59
-6 -1 0 -3.9 2.05
6 -1 0 18.84 15.82
6 -1 0 2.74 2.13
-6 -1 0 -12.16 17.12
6 -1 0 3.38 1.51
-6 1 0 3.46 2.07
6 1 0 5.44 1.8
-6 1 0 3.25 20.12
6 1 0 -23.89 15.34
7 -1 0 51.86 6.37
-7 -1 0 56.18 7.02
7 1 0 61.14 6.36
-7 1 0 49.51 6.8
0 -2 0 3089.02 126.32
0 2 0 3051.66 124.77
1 -2 0 2201.4 90.67
-1 -2 0 1957.26 87.66
-1 -2 0 2349.8 90.36
1 2 0 2252.16 87.13
-1 2 0 1967.48 84.38
-1 2 0 2174.76 87.49
-1 2 0 1949.56 84.26
-2 -2 0 1156.68 50.8
2 -2 0 1074.47 46.13
-2 -2 0 1153.2 46.11
2 -2 0 1089.06 45.88
-2 -2 0 1151.61 46.05
2 -2 0 1132.95 51.07
-2 2 0 1081.09 50.68
-2 2 0 1092.75 45.3
-2 2 0 1157.49 45.63
-2 2 0 1002.96 45.67
2 2 0 1090.66 45.5
2 2 0 1187.19 45.38
2 2 0 1154.11 50.52
-3 -2 0 1487.3 59.93
3 -2 0 1394.99 59.94
-3 -2 0 1399.45 66.57
3 -2 0 1611.72 67.99
3 -2 0 1421.13 59.48
-3 2 0 1424.26 59.6
3 2 0 1453.95 59.74
-3 2 0 1433.7 67.53
3 2 0 1471.74 67
-3 2 0 1479.79 59.89
3 2 0 1447.53 59.52
-3 2 0 1456.87 59.37
-4 -2 0 164.43 8.06
-4 -2 0 157.89 19.79
4 -2 0 154.72 7.95
-4 -2 0 164.96 8.25
4 -2 0 156.64 7.33
4 -2 0 162.38 24.39
4 2 0 157.57 6.37
-4 2 0 147.59 20.19
-4 2 0 141.64 7.65
-4 2 0 163.39 8.31
-4 2 0 148.74 7.59
-4 2 0 156.56 7.33
4 2 0 128.66 16.91
4 2 0 151.12 7.47
-5 -2 0 389.07 18.21
5 -2 0 405.41 17.27
5 -2 0 401.74 18.17
5 -2 0 432.94 32.57
-5 -2 0 409.21 18.53
-5 -2 0 387.18 31.47
5 2 0 397.01 18.16
-5 2 0 419.32 17.92
-5 2 0 372.75 18.22
-5 2 0 385.69 18.48
-5 2 0 408.37 33.58
-5 2 0 478.59 20.36
-6 -2 0 235.01 32.36
6 -2 0 232.66 10.45
6 -2 0 187.2 25.14
6 -2 0 232.24 12.45
-6 2 0 253.26 11.74
6 2 0 248.44 32.17
-6 2 0 250.02 12.36
-6 2 0 230.6 31.76
6 2 0 244.42 12.1
7 -2 0 159.06 10.28
-7 -2 0 184.99 11.04
-7 2 0 177.45 11.11
7 2 0 191.43 10.96
0 -3 0 0.27 0.31
0 -3 0 0.28 0.28
0 -3 0 2.77 2.11
0 3 0 3.51 1.72
0 3 0 -0.05 0.17
0 3 0 0.34 0.29
0 3 0 0.51 0.31
-1 -3 0 9161.74 372.43
-1 3 0 9819.31 392.93
-1 3 0 9479.43 392.71
2 -3 0 480.7 19.79
-2 -3 0 481.74 19.56
-2 -3 0 448.98 19.65
2 -3 0 471.25 24.63
-2 -3 0 451.87 24.3
2 -3 0 469.91 19.63
2 -3 0 475.16 19.73
2 3 0 513.8 25.55
-2 3 0 498.05 20.24
2 3 0 464.33 20.31
2 3 0 473.45 20.07
-2 3 0 451.06 20.13
-2 3 0 506.89 20.48
-2 3 0 484.82 25.83
-3 -3 0 2254.62 88.65
-3 -3 0 2220.61 95.66
3 -3 0 2031.17 88.66
-3 -3 0 2246.66 88.58
3 -3 0 2145.24 96.13
3 -3 0 2134.03 88.31
-3 3 0 2228.94 88.37
-3 3 0 2258.03 88.83
3 3 0 2260.83 96.4
-3 3 0 2296.99 97.43
3 3 0 2002.92 88.24
-3 3 0 2098.48 88.39
3 3 0 2059.09 88.57
-4 -3 0 664.83 27.72
4 -3 0 519.18 38.96
4 -3 0 655.41 27.19
4 -3 0 656.22 27.82
-4 -3 0 699.22 37.85
-4 -3 0 670.12 27.78
-4 3 0 598.65 27.17
-4 3 0 677.77 27.16
-4 3 0 665.04 41.94
4 3 0 647.74 38.46
4 3 0 617.07 27.07
-4 3 0 651.8 27.83
-5 -3 0 86.82 6.06
5 -3 0 84.2 5.35
-5 -3 0 86.04 5.77
-5 -3 0 67.94 15.26
5 -3 0 102.89 17.99
5 -3 0 88.72 4.75
5 3 0 87.48 19.84
-5 3 0 88.84 6.21
-5 3 0 86.54 5.39
5 3 0 83.35 5.14
-5 3 0 83.51 5.26
-5 3 0 70.98 17.37
-6 -3 0 38.43 22.24
6 -3 0 6.04 16.69
6 -3 0 32.03 4.52
6 -3 0 31.74 3.01
-6 3 0 32.04 3.6
-6 3 0 42.76 4.5
6 3 0 31.09 3.71
-6 3 0 49.16 22.3
6 3 0 71.27 25.65
-7 -3 0 21.29 4.32
7 -3 0 28.15 3.58
7 -3 0 26.75 4.39
-7 3 0 26.8 4.63
7 3 0 24.7 3.89
0 -4 0 4264.87 175.6
0 4 0 4205.15 173.1
-1 -4 0 9459.66 385.12
-1 4 0 9794.18 403.46
1 4 0 9999 402.92
2 -4 0 557.59 22.66
-2 -4 0 585.81 22.66
2 -4 0 505.78 22.51
-2 -4 0 519.27 21.91
-2 -4 0 533.25 27.58
2 -4 0 542.94 22.7
-2 -4 0 537.86 22.35
2 4 0 552.66 22.98
-2 4 0 567.69 23.49
2 4 0 517.59 22.55
2 4 0 572.3 23.41
-2 4 0 579.73 23.34
-2 4 0 554.28 29.28
-2 4 0 553.54 23.15
-3 -4 0 93.07 4.62
3 -4 0 84.07 11.05
-3 -4 0 76.85 10.57
3 -4 0 75.35 4.44
-3 -4 0 78.44 4.34
3 -4 0 81.99 4.29
-3 4 0 77.4 4.13
3 4 0 74.2 4.3
-3 4 0 74.16 12.08
-3 4 0 84.09 4.74
-3 4 0 75.54 4.34
3 4 0 74.05 3.96
3 4 0 73.32 10.67
4 -4 0 25.88 2.16
4 -4 0 30.61 8.72
-4 -4 0 28.32 3.03
-4 -4 0 31.43 9.88
4 -4 0 21.07 2.43
-4 -4 0 24.11 2.79
4 4 0 19.62 10.51
-4 4 0 24.32 3.27
4 4 0 27.87 2.72
-4 4 0 26.51 10.44
4 4 0 28.45 2.37
-4 4 0 25.93 2.82
-4 4 0 26.71 2.5
-5 -4 0 224.79 11.67
-5 -4 0 238.64 24.49
5 -4 0 232.87 11.59
5 -4 0 238.67 28.32
-5 -4 0 233.68 11.83
5 -4 0 260.49 11.08
-5 4 0 220.19 29.38
-5 4 0 254.72 11.73
-5 4 0 252.5 11.77
5 4 0 224.73 31.33
-5 4 0 234.23 12.26
5 4 0 243.54 11.46
6 -4 0 191.9 29.34
6 -4 0 155.8 8.04
6 -4 0 161.11 9.15
-6 4 0 169.06 8.78
6 4 0 159.52 8.56
-6 4 0 138.16 28.23
-6 4 0 156.38 9.14
7 -4 0 160.86 10.96
7 -4 0 173.93 8.94
-7 4 0 173.36 10.73
7 4 0 181.81 10.26
0 -5 0 2.97 0.44
0 -5 0 2.55 0.57
0 -5 0 1.92 2.95
0 -5 0 1.13 0.48
0 5 0 1.56 0.38
0 5 0 5.88 2.66
0 5 0 1 0.52
1 -5 0 1601.28 67.22
-1 -5 0 1611.12 61.88
-1 -5 0 1597.15 66.26
1 -5 0 1445.5 61.76
1 -5 0 1536.66 61.78
1 -5 0 1422.82 61.88
-1 -5 0 1431.91 61.59
1 5 0 1533.75 62.15
1 5 0 1664.08 66.71
-1 5 0 1440.36 61.99
-1 5 0 1653.7 67.4
-1 5 0 1525.04 62.23
1 5 0 1320.49 61.83
-1 5 0 1567.39 62.13
-2 -5 0 95.14 9.86
-2 -5 0 80.05 4.08
2 -5 0 99.08 4.63
2 -5 0 93.29 4.59
2 -5 0 86.87 4.56
-2 -5 0 87.37 3.91
-2 5 0 78.75 4.57
-2 5 0 67.25 9.8
2 5 0 75.11 8.59
2 5 0 76.12 4.12
2 5 0 76.42 3.38
-2 5 0 74.48 3.81
2 5 0 77.7 3.62
3 -5 0 253.17 11.3
3 -5 0 244.94 11.01
-3 -5 0 246.77 10.91
-3 -5 0 243.02 18.7
3 -5 0 233.95 11.19
-3 -5 0 256.66 11.22
-3 5 0 236.98 10.45
-3 5 0 245.59 10.77
-3 5 0 205.75 19.69
3 5 0 245.99 17.56
3 5 0 233.19 10.78
-3 5 0 236.2 11.01
3 5 0 218.4 10.17
4 -5 0 445.16 19.63
-4 -5 0 467.14 29.74
-4 -5 0 448.07 19.96
4 -5 0 449.73 20.08
4 -5 0 474.41 29.98
-4 -5 0 466.91 19.83
-4 5 0 435.23 19.33
-4 5 0 444.32 20.11
4 5 0 448.12 19.84
-4 5 0 465.66 19.63
4 5 0 457.78 31.96
-4 5 0 424.1 32.74
4 5 0 441.59 19.13
5 -5 0 247.85 32.37
5 -5 0 226.77 11.33
-5 -5 0 221.92 11.31
5 -5 0 232.23 10.7
-5 5 0 229.59 11.73
-5 5 0 247.15 11.48
5 5 0 273.2 30.79
-5 5 0 241.94 30.22
5 5 0 235.53 11.15
6 -5 0 3.31 2.65
6 -5 0 -7.41 17.79
6 -5 0 2.81 1.64
6 5 0 -0.18 1.7
-6 5 0 -10.95 21.95
-6 5 0 6 3.21
-6 5 0 2.56 1.95
0 -6 0 260.82 10.75
0 -6 0 213.84 10.37
0 -6 0 265.57 15.82
0 -6 0 267.5 10.82
0 6 0 282.29 11.31
0 6 0 245.84 15.62
0 6 0 261.84 11.6
0 6 0 285.7 11.72
-1 -6 0 610.88 25.51
1 -6 0 600.15 31.11
-1 -6 0 620.2 30.44
1 -6 0 599.05 25.6
1 -6 0 596.53 25.7
1 -6 0 674.57 25.51
-1 -6 0 595.39 25.3
1 6 0 597.32 24.61
-1 6 0 635.06 25.43
1 6 0 598.6 25.04
-1 6 0 575.22 25.17
-1 6 0 635.62 25.18
1 6 0 560.33 29.76
-1 6 0 623.21 30.75
1 6 0 627.18 25.31
-2 -6 0 1366.91 58.33
-2 -6 0 1580.07 58.98
2 -6 0 1394.14 58.93
-2 -6 0 1420.48 58.31
2 -6 0 1357.52 58.88
2 -6 0 1438.77 58.9
-2 -6 0 1517.49 65.23
-2 6 0 1423.54 60.22
-2 6 0 1536.76 60.62
-2 6 0 1497.63 67.5
2 6 0 1491.99 59.84
2 6 0 1377.54 59.83
-2 6 0 1449.38 60.57
-2 6 0 1519.51 68.3
2 6 0 1518.59 66.84
2 6 0 1475.75 60.53
-3 -6 0 69.38 4.22
-3 -6 0 81.17 11.69
-3 -6 0 74.29 3.8
3 -6 0 72 4.05
3 -6 0 68.32 4.28
3 -6 0 63.23 4.01
-3 6 0 70.45 3.94
-3 6 0 74.6 4.43
-3 6 0 76 10.9
3 6 0 66.71 4.22
3 6 0 73.97 11.85
-3 6 0 75.9 13.29
3 6 0 78.2 3.71
-3 6 0 62.28 4.46
4 -6 0 488.35 21.01
-4 -6 0 482.35 20.82
-4 -6 0 449.93 20.45
-4 -6 0 504.68 31.17
4 -6 0 469.67 20.58
4 6 0 496.03 21.39
-4 6 0 474.35 36.74
4 6 0 486.6 34.48
-4 6 0 466.67 21.58
-4 6 0 457.54 20.72
4 6 0 496.37 20.54
-4 6 0 491.27 21.2
5 -6 0 50.72 4.3
5 -6 0 53.24 3.87
-5 -6 0 46.2 4.62
-5 6 0 48.71 4.78
-5 6 0 34.73 17.92
-5 6 0 45.46 3.73
5 6 0 43.77 3.98
5 6 0 41.88 3.29
5 6 0 58.11 16.12
6 -6 0 35.28 5.08
6 -6 0 40.51 3.79
-6 6 0 40.12 4.85
-6 6 0 12.77 24.17
-6 6 0 34.96 4.17
6 6 0 42.16 3.89
0 -7 0 9.87 4.9
0 7 0 1.8 0.68
0 7 0 2.16 0.79
0 7 0 2.05 0.5
0 7 0 2.06 3.69
1 -7 0 94.06 4.49
1 -7 0 86.6 4.26
-1 -7 0 79.38 9.82
1 -7 0 86.32 10.49
1 -7 0 81.79 4.51
-1 -7 0 94.76 4.3
-1 -7 0 87.61 4.51
-1 7 0 83.12 4.24
-1 7 0 84.04 9.53
1 7 0 82.61 9.28
1 7 0 84.87 4.15
1 7 0 80.24 4.28
-1 7 0 89.97 4.26
-1 7 0 92.47 4.62
1 7 0 87.81 3.56
1 7 0 73.92 3.56
2 -7 0 1864.5 74.57
-2 -7 0 1906.08 81.26
2 -7 0 1760.86 74.49
-2 -7 0 1765.57 74.01
-2 -7 0 1705.77 73.76
2 -7 0 1867.93 74.68
-2 -7 0 1906.91 74.59
2 7 0 2033.47 84.53
-2 7 0 1901.79 77.29
2 7 0 1904.39 76.54
-2 7 0 1803.99 76.85
-2 7 0 1949.59 84.92
-2 7 0 1864.85 77.22
2 7 0 1765.39 76.33
2 7 0 1842.78 77.18
-2 7 0 1942.82 85.79
3 -7 0 191.79 8.89
-3 -7 0 187.23 8.29
3 -7 0 182.62 8.96
3 -7 0 174.82 8.83
-3 -7 0 184.04 17.2
-3 -7 0 196.32 8.97
3 7 0 183.96 7.48
-3 7 0 167.03 16.52
-3 7 0 176.62 9.05
3 7 0 176.03 8.75
3 7 0 172.24 16.28
-3 7 0 181.84 8.92
-3 7 0 186.44 8.4
3 7 0 179.49 8.45
-3 7 0 178.64 18.77
-4 -7 0 427.75 18.47
4 -7 0 405.26 18.96
-4 -7 0 455.76 19.08
4 -7 0 429.25 18.78
-4 -7 0 410.21 29.53
-4 7 0 431.65 18.67
-4 7 0 386.37 17.95
-4 7 0 400.81 18.94
4 7 0 407.62 18.62
-4 7 0 415.31 33.73
4 7 0 436.82 17.71
-4 7 0 415.85 29.68
4 7 0 399.22 31.46
5 -7 0 266.62 12.68
-5 -7 0 283.72 12.87
5 -7 0 260.6 13.01
5 7 0 238.82 27.44
-5 7 0 253.33 27.45
-5 7 0 272.34 34.54
-5 7 0 254.24 12.58
-5 7 0 236.93 11.56
5 7 0 254.5 11.3
5 7 0 228.56 12.17
6 -7 0 15.68 2.61
6 -7 0 13.37 3.64
-6 -7 0 10.45 3.65
-6 7 0 15.08 2.76
-6 7 0 -1.05 37.52
6 7 0 16.08 2.49
0 -8 0 180.31 7.99
0 -8 0 163.69 7.45
0 -8 0 174.44 7.9
0 -8 0 176.11 14.63
0 8 0 192.26 8.22
0 8 0 177.47 13.66
0 8 0 180.1 7.6
0 8 0 154.59 7.9
1 -8 0 1113.26 53.98
-1 -8 0 1165.77 46.49
1 -8 0 964.62 46.43
1 -8 0 1170.03 46.26
-1 -8 0 1157.75 53.13
1 -8 0 1211.36 46.44
-1 -8 0 1117.33 46.27
1 8 0 1183.11 45.91
-1 8 0 1174.22 47.01
-1 8 0 1209.62 46.69
1 8 0 1036.25 45.92
-1 8 0 1097.36 46.65
1 8 0 1172.13 46.63
-1 8 0 1168.56 54.06
1 8 0 1129.33 53.22
1 8 0 1056.13 46.74
2 -8 0 1077.16 41.34
-2 -8 0 1072.76 41.36
-2 -8 0 838.63 41
-2 -8 0 1052.82 49.03
2 -8 0 924.51 41.32
2 -8 0 1020.22 41.25
2 8 0 1000.48 43.63
2 8 0 963.25 43.01
-2 8 0 1148.18 43.8
-2 8 0 1069.81 43.85
-2 8 0 1013.81 51.39
2 8 0 1077.07 50.95
2 8 0 998.53 42.63
-2 8 0 1060.58 43.38
-2 8 0 1161.41 53.53
-3 -8 0 16.47 9.19
-3 -8 0 27.14 2.87
3 -8 0 24.52 2.38
3 -8 0 27.68 3.01
-3 -8 0 24.82 1.89
3 -8 0 25.1 2.49
-3 -8 0 21.62 1.62
3 8 0 24.6 2.42
-3 8 0 25.66 2.19
3 8 0 23.04 1.75
3 8 0 24.92 1.6
-3 8 0 11.54 9.6
-3 8 0 29.82 8.94
-3 8 0 23.02 2.97
-3 8 0 22 2.93
3 8 0 25.8 9.36
4 -8 0 9.22 1.86
-4 -8 0 7.82 10.09
4 -8 0 7.83 2.63
4 -8 0 7.23 1.57
-4 -8 0 7.46 1.57
-4 -8 0 8.78 2.52
-4 8 0 0.91 13.72
-4 8 0 8.7 1.58
-4 8 0 10.29 10.7
4 8 0 9 1.99
-4 8 0 14.87 2.84
4 8 0 25.89 16.67
-4 8 0 10.01 2.7
4 8 0 8.8 1.51
-5 -8 0 9.6 2.28
5 -8 0 10.2 2.5
5 -8 0 11.47 2.23
-5 -8 0 2.73 14.24
-5 8 0 8.81 1.99
5 8 0 9.14 2.5
5 8 0 -3.02 14.04
5 8 0 7.79 1.56
-5 8 0 19.91 16.55
-5 8 0 33.96 20.62
6 -8 0 96.35 6.34
6 -8 0 101.01 7.42
6 8 0 119.83 6.32
-6 8 0 94.19 6.65
0 -9 0 1.56 5.88
0 -9 0 1.29 0.6
0 -9 0 0.67 0.62
0 -9 0 0.39 0.89
0 9 0 3.73 5.14
0 9 0 1.13 1.03
0 9 0 -0.62 0.72
1 -9 0 52 3.45
-1 -9 0 58.19 3.34
1 -9 0 54.71 10.36
-1 -9 0 60.38 3.59
1 -9 0 60.1 3.46
1 -9 0 55.5 3.15
-1 -9 0 70.6 10.68
1 9 0 47.26 3.4
1 9 0 53.57 3.23
-1 9 0 46.3 3.03
-1 9 0 53.83 3.22
-1 9 0 50.51 3.53
1 9 0 57.37 11.75
-1 9 0 55.41 9.25
1 9 0 56.65 2.34
1 9 0 53.02 2.34
-2 -9 0 1124.14 52.79
2 -9 0 1081.06 44.23
2 -9 0 982.77 44.31
2 -9 0 1073.36 44.15
-2 -9 0 1077.74 44.27
-2 -9 0 1070.97 43.78
2 9 0 1060.68 42.98
-2 9 0 1066.34 44.46
2 9 0 1130.25 43.73
-2 9 0 1062.24 54.07
-2 9 0 1071.12 44.25
2 9 0 1033.98 52.32
-2 9 0 1104.59 53.58
2 9 0 1057.22 44.28
-2 9 0 1033.38 43.93
2 9 0 1016.64 42.97
-3 -9 0 553.21 22.92
-3 -9 0 539.77 33.05
3 -9 0 562.35 24
-3 -9 0 591.46 24
3 -9 0 538.87 23.93
-3 -9 0 555.12 22.8
3 -9 0 531.67 23.83
-3 9 0 477.94 35.34
-3 9 0 519.94 22.63
3 9 0 535.09 34.59
-3 9 0 573.27 23.48
3 9 0 539.59 22.01
-3 9 0 513.44 23.3
-3 9 0 530.12 33.8
3 9 0 525.93 23.2
3 9 0 539.48 21.91
4 -9 0 86.69 5.45
-4 -9 0 96.98 16.06
4 -9 0 90.44 5.62
4 -9 0 89.81 6.41
-4 -9 0 94.45 4.82
4 9 0 87.67 4.46
-4 9 0 65.12 14.28
-4 9 0 96.68 6.57
-4 9 0 91.33 18.48
-4 9 0 83.99 5.01
4 9 0 53.19 17.97
4 9 0 90.36 5.71
5 -9 0 56.46 4.54
-5 -9 0 59.99 17.88
-5 -9 0 60.05 4.6
5 9 0 67.86 18.44
5 9 0 58.14 3.69
-5 9 0 56.51 4.24
5 9 0 52.96 5.11
-5 9 0 92.73 22.56
-5 9 0 71.93 24.16
6 -9 0 124.61 8.5
6 -9 0 109.02 9.34
6 9 0 115.34 8.65
-6 9 0 102.81 6.83
6 9 0 103.1 5.99
0 -10 0 26.35 2.26
0 -10 0 25.69 1.88
0 -10 0 29.47 2.44
0 -10 0 18.5 8.46
0 10 0 28.45 7.54
0 10 0 32.18 2.82
0 10 0 24.87 2.18
0 10 0 32.06 1.99
-1 -10 0 227.53 9.92
1 -10 0 232.39 19.36
1 -10 0 222.57 9.75
-1 -10 0 221.51 10.09
-1 -10 0 211.87 18.99
1 -10 0 211.33 10.13
1 -10 0 205.69 9.95
1 10 0 185.88 9
-1 10 0 209.26 9.95
1 10 0 228.05 9.03
-1 10 0 214.72 18.58
-1 10 0 246.02 10.59
1 10 0 230.57 10.11
1 10 0 227.64 10.18
1 10 0 209.33 16.9
-2 -10 0 196.54 8.91
-2 -10 0 207.49 9.45
2 -10 0 193.57 9.15
-2 -10 0 193.09 20.19
2 -10 0 188.33 9.4
2 -10 0 197.29 9.34
2 10 0 168.34 16.84
-2 10 0 193.3 18.16
-2 10 0 198.86 9.34
-2 10 0 202.78 9.65
2 10 0 187.29 9.21
-2 10 0 187.12 8.9
2 10 0 181.13 8.75
-2 10 0 218.24 20.71
3 -10 0 209.94 10.37
-3 -10 0 227.61 21.36
-3 -10 0 211.11 9.62
3 -10 0 217.68 10.27
-3 -10 0 213.63 10.36
3 -10 0 208.74 10.4
-3 10 0 199.85 10.66
-3 10 0 240.4 24.2
-3 10 0 227.97 9.88
3 10 0 219.68 9.23
-3 10 0 218.3 21.1
-3 10 0 173.02 10.2
3 10 0 202.86 8.73
3 10 0 202.84 22.79
3 10 0 209.11 10.34
4 -10 0 13.21 2.38
4 -10 0 14.99 2.37
4 -10 0 13.7 3.12
-4 -10 0 14.1 1.63
-4 -10 0 19.73 12.46
-4 10 0 12.86 16.22
4 10 0 18.56 1.64
4 10 0 26.81 15.45
4 10 0 17.82 2.93
-4 10 0 -3.91 12.22
-4 10 0 17.79 2.29
5 -10 0 253.32 12.76
5 -10 0 268.36 12.67
-5 -10 0 242.74 11.59
-5 10 0 269.35 12.18
5 10 0 229.83 13.7
5 10 0 260.05 11.36
6 -10 0 75.97 7.22
6 -10 0 91.54 7
6 10 0 94.28 8.32
6 10 0 79.16 5.3
-6 10 0 86.07 6.53
0 -11 0 1.91 0.86
0 -11 0 15.69 8.98
0 -11 0 4.81 1.32
0 11 0 2.41 0.95
0 11 0 4.06 6.72
0 11 0 2.66 1.36
0 11 0 2.96 0.93
-1 -11 0 268.44 11.58
1 -11 0 243.89 11.09
-1 -11 0 239.06 11.29
1 -11 0 247.02 11.44
1 -11 0 249.08 11.62
1 -11 0 267.75 22.82
-1 11 0 255.78 10.93
-1 11 0 219.09 20.17
-1 11 0 246.11 11.01
1 11 0 251.39 11.12
1 11 0 224.68 9.83
-1 11 0 244.63 11.5
1 11 0 226.26 11.01
2 -11 0 150.82 8.02
-2 -11 0 158.98 7.5
2 -11 0 165.9 7.72
-2 -11 0 149.2 18.86
2 -11 0 153.21 7.98
-2 -11 0 160.44 8.1
-2 11 0 141.88 7.19
-2 11 0 130.79 17.7
2 11 0 147.61 7.53
-2 11 0 135.03 7.93
2 11 0 160.09 19.87
-2 11 0 136.95 19.92
2 11 0 146.64 7.22
-2 11 0 159.32 7.74
3 -11 0 321.72 15.8
3 -11 0 341.16 16.19
-3 -11 0 346.63 27.38
-3 -11 0 354.04 15.12
3 -11 0 398.7 16.4
-3 11 0 436.23 20.05
-3 11 0 325.19 33.63
3 11 0 342.46 31.07
3 11 0 343.34 16.83
-3 11 0 382.08 17.14
3 11 0 365.73 15.86
-3 11 0 359.68 16.34
-3 11 0 368.56 29.94
4 -11 0 34.24 3.38
4 -11 0 33.55 3.62
-4 11 0 27.9 15.53
-4 11 0 38.28 18.92
4 11 0 36.95 16.22
4 11 0 30.48 3.21
4 11 0 36.21 3.9
-4 11 0 28.99 2.83
5 -11 0 27.31 4.1
5 11 0 26.43 2.57
5 11 0 21.07 4.17
-5 11 0 27.63 3.48
0 -12 0 679.36 28.46
0 -12 0 645.11 41.84
0 -12 0 667.04 28.3
0 12 0 654.4 29.23
0 12 0 674.32 42.58
0 12 0 713.09 28.56
0 12 0 709.6 29.56
-1 -12 0 603.72 25.21
1 -12 0 585.21 25.36
-1 -12 0 538.67 24.93
1 -12 0 587.58 37.17
1 -12 0 595.47 25.11
-1 -12 0 570.04 36.45
1 -12 0 619.36 24.74
-1 12 0 604.09 25.55
1 12 0 559.55 25.02
-1 12 0 574.38 35.15
1 12 0 547.97 25.06
-1 12 0 600.95 25.07
1 12 0 575.41 36.25
-1 12 0 621.04 24.84
-2 -12 0 502.84 33.77
2 -12 0 488.92 22.42
2 -12 0 497.29 22.18
-2 -12 0 515.08 22.09
2 -12 0 575.47 22.93
2 12 0 453.05 20.96
-2 12 0 456.91 21.12
-2 12 0 526.11 21.52
-2 12 0 510.92 33.13
-2 12 0 495.59 35.14
2 12 0 454.14 33.25
2 12 0 523.38 21.66
3 -12 0 224.78 10.98
-3 -12 0 224.96 10.34
-3 -12 0 233.74 25.24
3 -12 0 250.69 12.52
3 -12 0 218.18 11.24
3 12 0 224.72 28.62
-3 12 0 225.76 11.67
-3 12 0 198.6 24.3
3 12 0 202.37 11.74
-3 12 0 222.53 10.65
3 12 0 257.18 11.52
-4 -12 0 95.56 20.16
4 -12 0 132.99 7.4
4 -12 0 126.09 7.68
-4 12 0 117.39 6.62
-4 12 0 104.18 19.52
4 12 0 127.32 7.72
4 12 0 95.83 18.25
-4 12 0 128.57 24.77
5 -12 0 122.12 7.9
5 -12 0 117.15 8.5
5 12 0 112.88 5.22
5 12 0 99.7 8.19
-5 12 0 95.62 33.14
-5 12 0 105.87 6.54
0 -13 0 2.5 10.71
0 -13 0 1.95 1.23
0 -13 0 3.56 1.82
0 13 0 1.76 10.86
0 13 0 3.42 1.14
0 13 0 3.18 1.99
0 13 0 2.63 1.3
-1 -13 0 55.88 13.69
1 -13 0 56.67 4.44
1 -13 0 51.49 14.95
-1 -13 0 52.26 3.63
1 -13 0 52.01 3.9
1 -13 0 58.66 3.39
-1 13 0 54.07 5.12
-1 13 0 59.76 12.27
1 13 0 56.23 4.01
-1 13 0 59.06 3.87
1 13 0 67.12 4.56
1 13 0 39.18 12.6
-1 13 0 54.51 4.02
2 -13 0 173.63 8.62
-2 -13 0 210.38 23.57
2 -13 0 180.78 9.28
2 -13 0 173.38 9.2
-2 -13 0 179.34 8.64
2 13 0 164.52 25.24
-2 13 0 168.11 25.47
2 13 0 174.75 9.21
2 13 0 178.57 8.97
-2 13 0 171.56 32.04
-2 13 0 194.64 9.45
-2 13 0 179.67 8.95
3 -13 0 208.54 10.42
-3 -13 0 212.22 9.82
3 -13 0 214.75 10.83
3 13 0 201.15 10.98
-3 13 0 226.17 10.62
-3 13 0 221.63 11.64
3 13 0 184.81 24.64
-3 13 0 216.48 32.58
3 13 0 227.72 10.32
-4 -13 0 77.97 4.07
4 -13 0 84.12 6.02
4 -13 0 92.7 6.15
-4 13 0 49.94 19.21
-4 13 0 82.83 26.2
4 13 0 81.26 5.99
-4 13 0 86.12 5.4
4 13 0 77.88 4.13
5 -13 0 115.97 8.04
5 -13 0 88.29 7.41
-5 13 0 98.77 33.28
-5 13 0 89.11 6.21
5 13 0 94.59 7.99
0 -14 0 223.28 25.47
0 -14 0 192.88 9.79
0 14 0 181.22 9.2
0 14 0 159.25 23.09
0 14 0 165.87 8.42
0 14 0 148.47 7.48
-1 -14 0 196.28 24.53
-1 -14 0 228.36 10.61
1 -14 0 203.85 9.92
1 -14 0 221.97 10.87
1 -14 0 246.23 27.51
1 14 0 207.8 10.38
1 14 0 197.05 25.6
-1 14 0 209.8 10.22
1 14 0 207.2 10.61
-1 14 0 217.84 10.03
-2 -14 0 81.77 18.5
-2 -14 0 93.6 5.4
2 -14 0 92.86 5.94
2 -14 0 97.82 5.43
2 14 0 111.1 21.83
2 14 0 99.97 6.16
-2 14 0 99.23 19.74
-2 14 0 101.04 5.71
-2 14 0 92.09 6.39
2 14 0 90.04 5.96
-2 14 0 89.06 18.98
-3 -14 0 70.24 21.12
3 -14 0 44.88 6.44
-3 -14 0 48 3.68
3 -14 0 56.48 4.2
-3 14 0 52.5 20.48
3 14 0 50.1 16.44
-3 14 0 54.9 4.22
-3 14 0 65 20.53
3 14 0 55.26 4.53
3 14 0 51.17 5.28
4 -14 0 114.1 7.85
4 14 0 117.86 8.04
-4 14 0 121.13 28.95
-4 14 0 94.15 6.75
5 -14 0 49.35 6.27
5 -14 0 62.73 6.76
5 14 0 49.74 7
-5 14 0 49.35 5.5
0 -15 0 1.41 13.51
0 -15 0 -0.6 1.45
0 15 0 4.55 12.61
0 15 0 0.25 1.24
0 15 0 2.05 1.38
-1 -15 0 74.53 4.98
1 -15 0 57.29 18.79
-1 -15 0 95.35 19.25
1 -15 0 71.4 4.41
1 -15 0 80.55 5.21
1 15 0 59.3 5.61
1 15 0 67.3 22.54
-1 15 0 61.5 4.83
-1 15 0 70.68 4.7
-1 15 0 64.66 19.1
1 15 0 71.96 4.73
-2 -15 0 401.2 17.72
2 -15 0 374.78 17.5
2 -15 0 408.98 18.51
2 15 0 350.29 33.41
-2 15 0 382.88 39.16
-2 15 0 335.47 16.96
2 15 0 374.19 17.02
-2 15 0 356.22 42.38
-2 15 0 381.23 16.92
2 15 0 393.93 17.48
3 -15 0 185.52 10.16
3 -15 0 174.78 9.38
-3 -15 0 175.71 8.89
-3 -15 0 252.77 38.9
-3 15 0 168.59 30.07
-3 15 0 167.12 9.97
3 15 0 162.58 8.9
-3 15 0 151.37 29.9
3 15 0 189.18 10.04
4 -15 0 7.73 3.42
4 -15 0 6.49 2.63
-4 15 0 5.84 2.48
4 15 0 16.12 4.26
0 -16 0 214.81 10.98
0 -16 0 250.51 31.45
0 16 0 215.45 9.72
0 16 0 194.43 28.39
0 16 0 221.6 11.02
1 -16 0 217.28 11.67
1 -16 0 266.47 35.52
1 -16 0 228.43 10.61
-1 -16 0 237.25 11.42
1 16 0 206.07 11.72
-1 16 0 198.1 30.46
-1 16 0 230.83 11.05
-1 16 0 219.46 10.51
1 16 0 192.05 28.4
-2 -16 0 59.03 20.75
2 -16 0 71.77 4.61
2 -16 0 61.92 5.17
-2 -16 0 65.19 4.79
-2 16 0 74.09 6.25
2 16 0 72.09 5.47
2 16 0 66.99 6.27
-2 16 0 90.17 23.29
-2 16 0 91.89 29.86
2 16 0 50.35 16.66
3 -16 0 57.97 6.1
3 -16 0 56.34 4.63
-3 -16 0 50.25 4.23
3 16 0 58.55 6.25
-3 16 0 51.79 5.1
4 -16 0 20.96 4.09
4 -16 0 20.66 3.81
-4 16 0 29.56 4.03
4 16 0 31.1 5
0 -17 0 -1 2.1
0 17 0 3.95 1.86
0 17 0 0.37 1.43
0 17 0 -23.91 15.97
1 -17 0 -15.59 21.52
-1 -17 0 2.89 1.78
-1 -17 0 27.09 21.2
1 -17 0 1.58 1.42
1 -17 0 2.32 1.97
-1 17 0 4.39 2
1 17 0 -14.69 17.27
-1 17 0 26.68 21.2
1 17 0 6.71 2.7
-1 17 0 1.49 2.27
2 -17 0 100.68 7.55
-2 -17 0 92.01 6.12
2 -17 0 86.03 5.71
-2 17 0 49.2 27.06
-2 17 0 92.8 6.47
-2 17 0 73.01 6.82
2 17 0 95.91 7.28
3 -17 0 114.72 7.95
3 -17 0 99.42 6.72
-3 -17 0 107.1 6.67
3 17 0 121.09 8.25
-3 17 0 104.59 7.24
0 -18 0 106.86 26.74
0 18 0 112.68 7.53
0 18 0 49.61 19.72
1 -18 0 78.04 6.82
1 -18 0 75.12 4.86
-1 -18 0 81.21 6.07
1 -18 0 102.49 37.8
-1 18 0 76.79 22.56
-1 18 0 79.08 6.54
1 18 0 79.16 6.29
-2 -18 0 70.67 5.63
2 -18 0 74.87 6.61
2 -18 0 67.38 5.21
2 18 0 60.93 6.16
-2 18 0 62.29 5.63
3 -18 0 37.71 5.77
-3 -18 0 27.13 3.5
3 -18 0 33.17 4.39
-3 18 0 28.55 4.33
3 18 0 29.66 5.46
0 -19 0 2.97 3.21
0 19 0 -4.76 2.62
-1 -19 0 36.54 4.83
1 -19 0 46.51 6.27
1 19 0 35.04 4.84
-1 19 0 38.33 5.1
2 -19 0 86.67 8.82
2 -19 0 78.74 5.75
-2 -19 0 65.15 6.37
-2 19 0 73.79 6.62
2 19 0 75.15 8.28
-7 0 1 26.05 3.57
7 0 -1 25.58 4.26
6 0 -1 111.6 5.28
-6 0 1 103.83 6.57
6 0 -1 127.45 23.26
6 0 -1 105.15 6.65
5 0 -1 76.37 3.83
-5 0 1 70.07 6.03
5 0 -1 75.47 4.99
5 0 -1 46.73 14.68
-5 0 1 61.54 17.36
-5 0 1 76.04 5.05
-5 0 1 80.08 4.78
4 0 -1 227.52 10.17
-4 0 1 233.62 11.21
4 0 -1 219.88 19.84
4 0 -1 234.05 10.99
-4 0 1 232.94 10.38
-4 0 1 240.83 10.79
-4 0 1 272.49 22.45
-3 0 1 534.34 30.38
3 0 -1 519.53 29.58
3 0 -1 552.3 22.37
-3 0 1 547.75 22.47
-3 0 1 514.74 22.58
-3 0 1 575.87 23.08
3 0 -1 523.55 22.89
2 0 -1 0.63 0.39
-2 0 1 1.14 0.49
-2 0 1 0.77 0.68
2 0 -1 0.29 3.15
2 0 -1 0.97 0.58
-2 0 1 0.67 0.45
-2 0 1 -1.63 3.67
1 0 -1 9686.91 388.27
-1 0 1 9428.25 388.19
0 0 -1 1025.07 40.45
0 0 -1 953.79 40.15
-1 0 -1 322.32 13.85
1 0 1 332.1 13.99
1 0 1 331.35 13.9
-1 0 -1 348.66 14.01
-1 0 -1 359.65 16.11
1 0 1 328.69 15.79
2 0 1 597.68 25.28
2 0 1 596.27 24.98
-2 0 -1 665.84 25.56
2 0 1 570.86 29.2
-2 0 -1 637.3 25.41
-2 0 -1 601.46 29.65
-2 0 -1 590.74 24.91
-3 0 -1 86.27 12.19
-3 0 -1 85.35 4.83
-3 0 -1 90.07 4.03
-3 0 -1 86.77 4.84
3 0 1 86.05 4.05
3 0 1 67.76 10.12
3 0 1 80.81 4.45
-4 0 -1 268.28 22.62
-4 0 -1 277.99 12.97
4 0 1 281.77 12.58
4 0 1 265.76 24.03
-4 0 -1 253.63 12.69
-4 0 -1 290.37 11.88
4 0 1 290.21 11.88
-4 0 -1 258.58 12.76
5 0 1 1161.23 60.64
5 0 1 1110.73 46.84
-5 0 -1 1115.06 47.39
-5 0 -1 1124.92 45.79
-5 0 -1 1081.17 47.14
-6 0 -1 491.45 22.86
6 0 1 443.4 19.67
6 0 1 464.95 21.12
7 -1 -1 27.8 4.4
7 -1 -1 31.1 3.15
-7 -1 1 30.61 4.02
-7 1 1 24.36 4.66
7 1 -1 36.63 4.81
6 -1 -1 41.03 19.08
-6 -1 1 36.95 4.06
6 -1 -1 42.17 4.03
6 -1 -1 40.51 2.83
6 1 -1 61.62 19.3
6 1 -1 46.88 3.14
-6 1 1 51.02 4.3
6 1 -1 45.26 4.2
6 1 -1 47.52 3.55
5 -1 -1 351.67 16.19
-5 -1 1 367.99 16.01
5 -1 -1 354.29 15.16
-5 -1 1 351.02 30.16
-5 -1 1 345.56 16.56
5 -1 -1 327.1 31.22
-5 1 1 319.86 14.79
5 1 -1 335.6 15.07
-5 1 1 297.02 30.07
-5 1 1 305.21 15.61
-5 1 1 339.27 14.99
5 1 -1 316.44 30.57
-5 1 1 345.74 15.84
-4 -1 1 1149.1 58.14
-4 -1 1 1195.46 47.58
4 -1 -1 1111.34 47.83
-4 -1 1 1184.77 47.97
4 -1 -1 1150.32 47.07
4 -1 -1 1085.74 57.33
-4 1 1 1157.86 48.34
4 1 -1 1151.82 48.09
-4 1 1 1171.42 59.25
-4 1 1 1151.79 47.62
4 1 -1 1217.78 58.58
4 1 -1 1138.83 47.12
-4 1 1 1154.69 47.85
-4 1 1 1123.66 47.83
3 -1 -1 495.88 27.59
-3 -1 1 477.11 20.4
-3 -1 1 474.81 20.09
-3 -1 1 468.25 27.69
3 -1 -1 470.41 20.42
-3 1 1 468.31 20.14
-3 1 1 500.81 20.15
3 1 -1 463.9 20.38
-3 1 1 472.44 28.06
-3 1 1 479.77 20.56
3 1 -1 460.02 27.15
3 1 -1 483.13 19.79
-3 1 1 486.12 20.17
2 -1 -1 153.4 6.54
-2 -1 1 157.88 11.43
2 -1 -1 120.67 10.52
2 -1 -1 146.78 6.75
-2 -1 1 151.2 6.72
-2 -1 1 143.69 6.45
2 1 -1 145.19 6.2
-2 1 1 132.71 11.19
-2 1 1 147.73 6.64
2 1 -1 133.3 10.6
-2 1 1 144.59 6.4
-2 1 1 138.99 6.25
2 1 -1 141.36 6.32
1 -1 -1 860.46 36.57
-1 -1 1 880.65 36.32
-1 -1 1 875.21 36.5
-1 -1 1 921.23 39.33
1 -1 -1 878.43 36.6
1 -1 -1 972.58 39.62
-1 1 1 866.73 36.48
1 1 -1 877.09 36.43
-1 1 1 888.72 36.49
1 1 -1 885.72 39.28
-1 1 1 951.53 39.5
1 1 -1 927.96 36.26
1 1 -1 864.86 36.36
0 -1 1 652.38 25.63
0 -1 -1 662.25 25.61
0 -1 -1 658.46 25.62
0 -1 -1 548.78 25.69
0 1 -1 634.47 27.5
0 1 -1 674.88 27.64
0 1 -1 675.43 27.6
0 1 -1 728.97 28.79
-1 -1 -1 2096.02 92.13
-1 -1 -1 2403.13 94.15
1 -1 1 2376.03 94.61
-1 -1 -1 2246.26 92.36
-1 1 -1 2171.74 90.2
1 1 1 2136.55 87.96
1 1 1 2321.05 89.85
-1 1 -1 2050.33 87.91
2 -1 1 228.1 9.5
-2 -1 -1 229.77 9.91
2 -1 1 213.81 9.71
-2 -1 -1 215.58 13.79
2 -1 1 218.54 13.53
-2 -1 -1 219.57 9.2
-2 -1 -1 224.64 9.73
-2 1 -1 227.84 9.78
-2 1 -1 219.23 10.17
2 1 1 236.02 14.08
-2 1 -1 229.85 14.49
2 1 1 229.47 9.97
2 1 1 234.85 9.64
-2 1 -1 238.67 10.19
3 -1 1 549.87 25.12
3 -1 1 572.48 25.11
3 -1 1 651.33 32.11
-3 -1 -1 589.2 24.39
-3 -1 -1 639.08 32.5
-3 -1 -1 600.11 25.25
-3 -1 -1 599.91 25.33
-3 1 -1 556.17 24.18
-3 1 -1 544.54 24.16
-3 1 -1 556.44 31.37
-3 1 -1 626.47 24.36
3 1 1 559.2 23.31
-3 1 -1 564.04 23.55
3 1 1 564.34 23.91
3 1 1 571.86 30.59
4 -1 1 148.5 7.62
-4 -1 -1 165.34 8.17
4 -1 1 155.28 7.06
-4 -1 -1 163.1 17.76
4 -1 1 144.24 18.97
-4 -1 -1 156.39 6.78
-4 -1 -1 145.93 7.93
-4 1 -1 158.78 7.15
4 1 1 151.26 6.7
-4 1 -1 153.93 8.18
4 1 1 136.1 18.6
-4 1 -1 131.97 18.19
-4 1 -1 158.78 8.05
-4 1 -1 148.76 7.83
4 1 1 154.33 7.58
5 -1 1 78.95 4.98
5 -1 1 83.65 4.28
5 -1 1 54 15.71
-5 -1 -1 66.5 5.15
-5 -1 -1 74.12 6.13
5 1 1 77.21 3.72
-5 1 -1 82.52 5.48
-5 1 -1 57.54 16.02
-5 1 -1 77.29 4.49
5 1 1 71.1 4.83
-5 1 -1 77.87 6.89
5 1 1 71.53 17.19
6 -1 1 18.18 2.62
6 1 1 16.49 2.7
-6 1 -1 21.26 3.75
-6 1 -1 21.21 3.12
-7 -2 1 159.96 9.78
7 -2 -1 167.97 10.33
7 -2 -1 166.24 8.14
7 2 -1 190.49 10.51
-7 2 1 155.11 11.03
6 -2 -1 121.17 6.15
6 -2 -1 123.09 7.55
6 -2 -1 107.07 21.71
-6 2 1 115.6 6.9
6 2 -1 100.71 20.5
-6 2 1 119.53 6.98
6 2 -1 123.78 7.13
-5 -2 1 61.96 4.67
5 -2 -1 61.22 3.49
5 -2 -1 40.98 17.51
-5 -2 1 54.05 5.05
-5 -2 1 27.85 13.85
5 -2 -1 63.96 4.47
-5 2 1 45.61 15.79
5 2 -1 55.92 17.26
-5 2 1 55.78 3.94
-5 2 1 65.71 4.33
-5 2 1 47.44 5.08
-5 2 1 62.44 4.74
5 2 -1 61.57 3.14
5 2 -1 58.51 4.28
5 2 -1 58.15 2.87
4 -2 -1 384.27 17.47
4 -2 -1 412.15 27.55
-4 -2 1 421.61 17.92
4 -2 -1 396.7 18.17
-4 -2 1 424.84 27.92
-4 -2 1 437.77 18.3
-4 2 1 416.9 29.63
4 2 -1 399.14 17.88
4 2 -1 410.34 17.01
-4 2 1 411.85 17.79
4 2 -1 425.72 28.53
-4 2 1 414.02 18.36
4 2 -1 405.8 16.87
-4 2 1 395.18 17.66
-3 -2 1 557.08 22.17
3 -2 -1 512.72 22.44
3 -2 -1 518.26 22
-3 -2 1 502.19 22.74
3 -2 -1 547.62 29.95
-3 2 1 514.76 21.62
-3 2 1 550.42 22.07
3 2 -1 520.12 21.1
-3 2 1 495.39 29.91
-3 2 1 474.1 21.43
3 2 -1 482.45 21.58
3 2 -1 517.44 29.17
3 2 -1 532.38 21.79
3 2 -1 515.28 21.06
-2 -2 1 377.2 15.4
-2 -2 1 381.12 15.57
2 -2 -1 370.28 15.51
2 -2 -1 356.22 15.67
-2 -2 1 364.73 20.35
2 -2 -1 348.95 20.27
2 2 -1 378.75 15.89
-2 2 1 399.33 21.76
2 2 -1 381.3 15.88
-2 2 1 382.09 15.99
2 2 -1 382.59 21.08
2 2 -1 364.96 16.27
2 2 -1 386.67 16.13
-2 2 1 387.69 16.26
-2 2 1 400.26 16.44
1 -2 -1 1797.03 74.3
-1 -2 1 1787.33 74.27
1 -2 -1 1733.87 71.3
-1 -2 1 1705.47 71.14
1 -2 -1 1764.77 71.33
-1 2 1 1713.1 71.77
-1 2 1 1930.63 75.21
1 2 -1 1676.35 71.6
-1 2 1 1761.31 71.73
0 -2 -1 2383.24 97.53
0 2 -1 2479.97 100.25
0 2 1 2382.51 99.39
1 -2 1 629.64 25.81
-1 -2 -1 554.75 25.41
-1 -2 -1 679.39 25.53
-1 -2 -1 643.19 27.51
-1 -2 -1 590.97 25.44
1 -2 1 617.14 25.69
-1 -2 -1 657.26 25.8
1 -2 1 632.62 25.75
-1 2 -1 622.26 28.18
-1 2 -1 622.03 25.21
-1 2 -1 568.15 28.16
-1 2 -1 624.95 25.31
1 2 1 617.06 25.37
1 2 1 625.17 27.25
-1 2 -1 637.44 25.3
1 2 1 591.09 25.04
-2 -2 -1 174.4 7.78
2 -2 1 171.88 7.89
2 -2 1 162.94 11.74
-2 -2 -1 181.75 8.03
-2 -2 -1 180.35 7.19
2 -2 1 169.58 7.68
-2 -2 -1 179.81 11.99
-2 2 -1 166.44 7.96
2 2 1 176.63 11.91
2 2 1 166.94 7.94
-2 2 -1 184.19 8.06
-2 2 -1 180.16 7.72
2 2 1 179.17 8.12
-2 2 -1 180.85 12.85
-3 -2 -1 35.41 2.81
-3 -2 -1 27.14 2.61
-3 -2 -1 22.24 6.76
3 -2 1 23.17 6.21
3 -2 1 31.81 2
3 -2 1 30.73 2.33
-3 -2 -1 29.45 1.44
-3 2 -1 33.35 2.24
3 2 1 29.61 2.29
3 2 1 31.69 1.54
-3 2 -1 33 2.44
-3 2 -1 28.08 2.9
3 2 1 31.54 6.13
-3 2 -1 30.01 8.21
-4 -2 -1 591.63 35.14
-4 -2 -1 654.64 26.28
4 -2 1 602.85 26.06
-4 -2 -1 588.89 26.14
4 -2 1 607.95 36.71
4 -2 1 594.2 25.44
-4 2 -1 600.77 27.11
-4 2 -1 680.29 27.41
-4 2 -1 623.4 37.22
-4 2 -1 627.12 27.44
4 2 1 629.89 26.84
5 -2 1 408.55 17.28
-5 -2 -1 382.26 18.43
5 -2 1 392.84 18.08
5 -2 1 436.13 33.98
-5 2 -1 362.13 17.83
5 2 1 391.09 17.57
5 2 1 366.12 31.89
-5 2 -1 399 17.23
-5 2 -1 443.02 21.22
-6 -2 -1 102.36 10.05
6 -2 1 125 6.27
-6 2 -1 103.36 8.09
-6 2 -1 123.45 6.77
6 2 1 121.96 6.93
-7 -3 1 27.59 4.68
7 -3 -1 33.73 3.51
7 -3 -1 31.71 4.8
7 3 -1 32.76 4.23
-7 3 1 23.47 3.85
6 -3 -1 1.36 3.07
6 -3 -1 3.1 1.37
6 -3 -1 -6.78 17.29
-6 3 1 4.23 2.53
-6 3 1 15.67 27.02
6 3 -1 8.35 2.21
6 3 -1 38.66 17.85
-5 -3 1 311.72 14.54
5 -3 -1 307.32 14.77
5 -3 -1 338.52 31.77
-5 -3 1 317.2 14.95
-5 -3 1 328.62 28.26
5 -3 -1 320.71 13.98
-5 3 1 290.58 13.84
5 3 -1 303.38 14.16
5 3 -1 336.3 31.34
-5 3 1 309.33 14.12
-5 3 1 345.25 31.36
-5 3 1 306.09 14.31
-4 -3 1 599.32 35.49
4 -3 -1 580.23 25.62
4 -3 -1 598.95 35.1
4 -3 -1 601.56 25.06
-4 -3 1 595.31 25.29
-4 -3 1 600.15 25.55
-4 3 1 652.9 38
4 3 -1 610.73 36.14
-4 3 1 622.27 25.54
-4 3 1 591.75 26.03
4 3 -1 587.01 25.59
-4 3 1 595.61 25.53
4 3 -1 600.6 24.5
4 3 -1 573.87 24.41
-4 3 1 578.74 25.31
4 3 -1 608.13 25.59
-3 -3 1 975.74 48.09
3 -3 -1 966.23 40.9
3 -3 -1 1034.18 40.59
-3 -3 1 960.1 40.58
3 -3 -1 1018.27 48.46
-3 -3 1 949.8 41.11
-3 3 1 1003.18 42.18
-3 3 1 1045.59 41.94
3 3 -1 979.98 41.16
-3 3 1 1000.93 41.63
3 3 -1 1035.5 50.01
-3 3 1 1013.97 50.72
3 3 -1 1068.91 41.92
3 3 -1 996.01 41.88
3 3 -1 975.42 41.16
-2 -3 1 1270.17 61.93
2 -3 -1 1234.25 53.63
2 -3 -1 1285.68 53.82
2 -3 -1 1361.45 59.49
2 -3 -1 1320 53.99
-2 -3 1 1390.11 53.71
-2 -3 1 1354.23 53.74
2 3 -1 1229.85 52.98
-2 3 1 1244.35 52.72
2 3 -1 1369.38 58.84
2 3 -1 1236.16 52.92
-2 3 1 1336.87 53.14
-2 3 1 1291.25 53.19
-2 3 1 1348.53 59.19
2 3 -1 1332.03 52.61
-1 -3 1 128.81 5.58
1 -3 -1 127.46 5.78
-1 -3 1 121.86 5.66
1 -3 -1 133.36 5.53
-1 -3 1 134.32 8.86
1 -3 -1 122.94 5.84
-1 -3 1 139.32 5.67
1 3 -1 129.9 5.72
-1 3 1 132.33 5.97
-1 3 1 137.29 5.6
-1 3 1 134.27 9.09
1 3 -1 120.71 5.68
1 3 -1 129.27 5.68
1 3 -1 132.49 8.73
-1 3 1 136.22 5.88
0 -3 1 2131.2 83.12
0 -3 -1 1835.14 80.1
0 -3 -1 2159.05 82.33
0 -3 1 1797.32 80.12
0 3 1 2084.54 84.36
0 3 -1 2190.6 87.24
0 3 1 2083.51 86.27
0 3 -1 1972.1 84.29
1 -3 1 970.94 40.2
1 -3 1 920.04 40.12
-1 -3 -1 1100.57 39.84
-1 -3 -1 1006.22 40.18
1 -3 1 940.43 40.18
-1 -3 -1 955.17 39.85
-1 -3 -1 977.11 42.37
1 3 1 946.82 39.89
-1 3 -1 950.67 40.2
1 3 1 950.95 40.37
-1 3 -1 992.7 40.26
1 3 1 996.59 39.99
1 3 1 1061.94 42.74
-1 3 -1 957.12 40.48
-1 3 -1 1026.57 43.82
2 -3 1 1300.34 54.47
-2 -3 -1 1477.99 54.11
2 -3 1 1265.92 54.26
2 -3 1 1228.51 54.08
-2 -3 -1 1354.76 58.38
2 3 1 1392.29 54.69
-2 3 -1 1354.47 55.03
-2 3 -1 1284.6 54.8
2 3 1 1337.17 59.46
-2 3 -1 1346.59 60.64
3 -3 1 60.64 9.02
-3 -3 -1 63.88 9.9
3 -3 1 49.03 3.25
-3 -3 -1 57.66 3.66
3 -3 1 50.66 3.04
-3 3 -1 51.95 3.17
-3 3 -1 53.45 3.74
-3 3 -1 54.48 3.35
3 3 1 49.94 8.43
3 3 1 52.75 3.54
-3 3 -1 61.9 11.41
3 3 1 47.83 3.04
4 -3 1 266.63 12.07
-4 -3 -1 267.63 12.73
4 -3 1 277.25 12.69
-4 -3 -1 284.33 12.72
4 -3 1 281.27 25.09
-4 -3 -1 257.83 21.62
4 3 1 304.68 24.43
-4 3 -1 273.32 12.41
-4 3 -1 264.7 12.75
-4 3 -1 273.43 13.17
-4 3 -1 299.37 24
4 3 1 277.28 12.43
5 -3 1 25.96 14.79
5 -3 1 28.51 3.13
5 -3 1 34.26 2.82
-5 -3 -1 29.66 3.9
5 3 1 52.23 15.35
5 3 1 36.37 3.14
-5 3 -1 39.36 3.66
-5 3 -1 8.1 13.71
-5 3 -1 31.44 3.67
6 -3 1 84.36 6.19
6 -3 1 77.47 4.95
6 3 1 72.43 5.34
-6 3 -1 85.1 5.77
7 -4 -1 140.91 7.75
7 -4 -1 147.29 9.28
-7 4 1 137.14 8.01
7 4 -1 136.12 8.73
6 -4 -1 125.83 25.03
6 -4 -1 149.74 9.2
6 -4 -1 159.15 7.79
-6 -4 1 149.23 25.66
6 4 -1 161.17 8.7
6 4 -1 129.83 23.2
-6 4 1 171.84 8.56
-6 4 1 159.65 9.29
5 -4 -1 309.15 13.48
5 -4 -1 293.05 30.69
-5 -4 1 305.89 28.35
-5 -4 1 282.78 14.1
-5 -4 1 316.85 14.06
5 -4 -1 292.53 14.17
5 4 -1 289.14 13.62
-5 4 1 289.3 13.82
5 4 -1 327.72 30.77
-5 4 1 286.56 13.89
-5 4 1 295.14 13.44
-5 4 1 353.25 32.3
4 -4 -1 208.76 10.32
4 -4 -1 229.48 19.5
-4 -4 1 234.11 10.15
-4 -4 1 163.96 27.03
-4 -4 1 217.56 10.25
4 -4 -1 206.45 9.82
4 4 -1 217.54 10.05
4 4 -1 195.32 26.72
-4 4 1 220.87 10.29
-4 4 1 218.67 9.85
-4 4 1 180.25 22.61
4 4 -1 214.77 10.19
-4 4 1 214.07 10.71
-3 -4 1 755.36 38.29
-3 -4 1 740.49 30.49
3 -4 -1 717.07 30.51
-3 -4 1 737.38 30.52
3 -4 -1 746.11 38.57
3 -4 -1 706.08 30.8
-3 4 1 711.36 29.99
3 4 -1 724.53 29.47
-3 4 1 736.3 39.64
-3 4 1 744.42 30.47
3 4 -1 730.48 38.46
3 4 -1 708.26 29.53
3 4 -1 724.02 30.33
-3 4 1 725.43 30.65
3 4 -1 716.54 30.19
2 -4 -1 1553.83 65.49
2 -4 -1 1614.42 65.83
2 -4 -1 1652.73 71.72
-2 -4 1 1693.03 71.53
-2 -4 1 1610.42 65.55
2 -4 -1 1589.19 65.73
-2 -4 1 1639.88 65.48
-2 -4 1 1539.25 65.3
-2 4 1 1428.35 65.76
-2 4 1 1725.75 72.9
-2 4 1 1609.5 66.07
2 4 -1 1774.01 72.29
2 4 -1 1616.17 65.77
2 4 -1 1592.53 65.85
2 4 -1 1573.93 65.45
-2 4 1 1635.4 66.11
-1 -4 1 753.25 30.31
1 -4 -1 736.76 30.17
-1 -4 1 720.54 30.3
-1 -4 1 766.68 34.57
1 -4 -1 722.38 30.36
-1 4 1 780.58 30.73
1 4 -1 779.32 34.91
1 4 -1 743.35 30.48
1 4 -1 668.26 30.5
-1 4 1 776.88 34.99
-1 4 1 755.26 30.89
-1 4 1 727.86 30.48
1 4 -1 742.95 30.63
-1 4 1 760.04 34.75
0 -4 1 5790.5 235.66
0 -4 -1 5696 234.73
0 4 1 5617.9 237.87
0 4 -1 6032.2 238.98
-1 -4 -1 1286.55 53.62
1 -4 1 1315.12 55.38
-1 -4 -1 1278.84 50.71
1 -4 1 1307.49 50.75
1 -4 1 1254.73 50.75
-1 -4 -1 1132.11 50.37
1 -4 1 1085.28 50.67
-1 -4 -1 1284.96 50.22
-1 4 -1 1215.39 50.04
-1 4 -1 1228.94 50.09
-1 4 -1 1287.32 50.14
1 4 1 1191.84 50.15
-1 4 -1 1259.31 54.48
1 4 1 1276.34 53.14
1 4 1 1136.32 49.84
-2 -4 -1 187.31 7.93
2 -4 1 183.5 8.73
-2 -4 -1 196.66 12.86
-2 -4 -1 184.71 7.89
-2 -4 -1 224.1 8.48
-2 -4 -1 180.55 8.75
2 -4 1 178.06 8.58
2 -4 1 213.49 8.96
-2 4 -1 180.1 8.34
2 4 1 188.94 7.95
-2 4 -1 183.75 13.46
-2 4 -1 191.15 8.33
-2 4 -1 198.82 14.42
-2 4 -1 184.91 8.55
2 4 1 176.95 8.52
2 4 1 171.39 12.6
-3 -4 -1 275.63 12.62
-3 -4 -1 279.65 12.32
-3 -4 -1 297.06 20.91
3 -4 1 273.59 12.54
3 -4 1 279.97 12.31
-3 4 -1 288.59 12.87
-3 4 -1 308.49 21.96
3 4 1 285.16 20.16
3 4 1 298.53 12.63
-3 4 -1 282.36 12.98
3 4 1 286.19 13.26
-3 4 -1 299.2 13.35
-4 -4 -1 132.53 16.62
-4 -4 -1 137.33 7.12
4 -4 1 119.48 6.51
4 -4 1 164.89 20.14
4 -4 1 133.15 7.02
-4 -4 -1 139.69 7.27
-4 4 -1 122.57 6.91
-4 4 -1 176.77 20.82
4 4 1 126.27 18.96
-4 4 -1 131.12 7.71
-4 4 -1 142.31 6.94
4 4 1 128.92 6.55
-5 -4 -1 93.25 6.59
5 -4 1 101.5 6.01
5 -4 1 95.14 5.38
5 -4 1 90.99 18.67
-5 4 -1 105.76 6.18
5 4 1 105.97 16.62
5 4 1 103.62 5.86
-5 4 -1 104.3 6.27
6 -4 1 121.8 6.74
6 -4 1 119.43 7.88
-6 4 -1 117.37 7.55
-6 4 -1 104.78 8.8
6 4 1 127.24 7.07
7 -5 -1 3.38 4.06
7 -5 -1 4.93 2.39
-7 5 1 2.1 2.57
7 5 -1 6.78 2.92
6 -5 -1 20.06 2.51
6 -5 -1 20.32 3.19
-6 -5 1 30.82 18.49
6 -5 -1 26.99 17.93
6 5 -1 -6.58 18.22
6 5 -1 17.54 2.51
-6 5 1 22.56 3.01
-6 5 1 18.07 3.88
-5 -5 1 68.23 15.75
5 -5 -1 78.95 16.91
5 -5 -1 70.1 4.91
-5 -5 1 64.34 5.16
-5 -5 1 62.92 4.97
5 -5 -1 65.98 4.13
5 5 -1 69.65 20.98
5 5 -1 72.33 4.48
-5 5 1 65.11 5.42
-5 5 1 74.02 4.41
-5 5 1 86.83 19.39
5 5 -1 65.68 4.88
4 -5 -1 169.77 8.66
-4 -5 1 170.99 8.41
4 -5 -1 180.2 18.24
-4 -5 1 175.26 8.45
4 -5 -1 174.08 8.26
-4 -5 1 157.64 21.09
4 5 -1 163.38 7.94
-4 5 1 163.25 21.38
-4 5 1 155.79 8.79
4 5 -1 161.4 8.22
4 5 -1 147.15 18.01
-4 5 1 169.82 7.8
-4 5 1 171.55 8.44
-3 -5 1 146.17 15.36
3 -5 -1 141.54 7.17
-3 -5 1 145.56 6.87
-3 -5 1 148.91 6.95
3 -5 -1 148.57 7.01
3 -5 -1 146.51 6.99
3 -5 -1 135.53 13.8
-3 5 1 153.39 6.87
-3 5 1 149.69 7.4
3 5 -1 135.9 7.06
-3 5 1 152.89 7.58
3 5 -1 146.57 6.95
3 5 -1 153.48 6.27
3 5 -1 143.86 14.47
-3 5 1 124.39 15.64
-2 -5 1 850.34 36.55
-2 -5 1 934.08 43.08
2 -5 -1 867.13 36.99
2 -5 -1 908.05 37.04
2 -5 -1 886.58 36.74
-2 -5 1 915.8 36.84
-2 -5 1 904.4 36.59
2 5 -1 901.5 35.92
2 5 -1 862.87 36.14
-2 5 1 891.49 36.09
-2 5 1 963.73 43.77
2 5 -1 834.8 36.32
2 5 -1 890.64 42.63
-2 5 1 838.36 36.93
-1 -5 1 1792.06 76.6
-1 -5 1 1924.38 76.63
1 -5 -1 1915.61 76.63
-1 -5 1 1965.46 81.52
1 -5 -1 1836.27 76.47
1 -5 -1 1889.93 76.82
-1 5 1 1654.2 74.51
-1 5 1 1910.25 79.89
1 5 -1 1763.2 74.42
1 5 -1 1836.24 74.7
1 5 -1 1991.94 79.89
-1 5 1 1820.61 74.7
-1 5 1 1868.76 79.48
-1 5 1 1874.6 74.97
1 5 -1 1844.09 74.58
0 -5 1 865.13 37.98
0 -5 1 824.49 38.14
0 -5 -1 942.33 38
0 -5 -1 1046.2 42.27
0 -5 1 1002.62 42.88
0 -5 1 922.46 37.96
0 5 1 993.97 38.31
0 5 1 871.43 37.76
0 5 -1 958.05 42.64
0 5 1 938.51 41.61
0 5 -1 873.44 38.09
0 5 -1 931.19 38.01
0 5 -1 960.32 38.21
-1 -5 -1 243.75 13.97
-1 -5 -1 236.22 10.2
1 -5 1 228.14 15.69
1 -5 1 230.08 10.54
1 -5 1 250.94 10.51
1 -5 1 251.63 10.54
-1 -5 -1 246.63 10.5
-1 5 -1 229.79 10.01
-1 5 -1 214.8 9.86
1 5 1 235.29 10.05
-1 5 -1 239.7 9.97
1 5 1 229 13.2
-1 5 -1 221.27 14.67
1 5 1 226.92 9.77
-2 -5 -1 409.22 17.26
2 -5 1 448.89 18.27
-2 -5 -1 415.49 22.49
2 -5 1 412.42 18.06
-2 -5 -1 464.59 18.19
2 -5 1 390.05 17.98
-2 -5 -1 421.82 17.58
2 5 1 464.57 18.28
-2 5 -1 436.12 18.8
-2 5 -1 460.8 25.66
2 5 1 437.29 18.99
-2 5 -1 423.52 18.73
2 5 1 453.07 23.67
-2 5 -1 423.57 25.37
-2 5 -1 442.06 18.95
-3 -5 -1 403.35 25.02
3 -5 1 436.91 19.05
-3 -5 -1 441.16 18.9
3 -5 1 408.52 18.62
-3 -5 -1 482.11 18.58
3 -5 1 424.35 18.87
-3 5 -1 439.06 18.75
-3 5 -1 372.71 26.62
3 5 1 392.27 18.57
3 5 1 463.23 17.93
-3 5 -1 387.01 26.09
3 5 1 441.05 25.77
-3 5 -1 419.39 18.33
-3 5 -1 445.56 18.37
4 -5 1 331.77 15.42
-4 -5 -1 341.96 15.93
4 -5 1 348.59 15.89
-4 -5 -1 354.77 15.62
-4 -5 -1 400.98 25.29
-4 5 -1 333.25 28.55
4 5 1 307.67 14.59
-4 5 -1 287.06 14.71
-4 5 -1 327.75 14.26
4 5 1 319.63 13.76
-4 5 -1 294.68 14.13
4 5 1 360.99 25.79
-5 -5 -1 12.35 2.82
5 -5 1 20.66 2.92
5 -5 1 11.38 1.94
5 5 1 7.89 12.59
-5 5 -1 -16.72 15.4
-5 5 -1 13.98 2.37
-5 5 -1 10.75 2.62
5 5 1 16.03 2.04
6 -5 1 82.46 6.57
6 -5 1 77.77 5.31
-6 5 -1 80.8 5.72
6 5 1 69.77 5.2
-6 5 -1 71.7 6.68
6 -6 -1 64.32 4.69
-6 -6 1 60.26 27.68
6 -6 -1 75.86 20.87
6 -6 -1 59.3 5.47
6 6 -1 70.19 4.95
-6 6 1 52.25 6.83
-6 6 1 70.7 4.87
-5 -6 1 296.61 29.57
5 -6 -1 333.94 32.71
5 -6 -1 289.85 13.94
-5 -6 1 324.45 14.39
5 -6 -1 304.66 14.62
-5 -6 1 307.57 14.33
-5 6 1 304.29 35.03
5 6 -1 322.12 13.98
5 6 -1 296.36 14.43
-5 6 1 307.61 13.82
5 6 -1 313.73 37.58
-5 6 1 293.31 14.66
-4 -6 1 94.03 5.39
4 -6 -1 100.25 5.4
-4 -6 1 116.74 16.8
-4 -6 1 96.97 5.56
4 -6 -1 95.12 5.7
4 -6 -1 104.94 14.16
4 6 -1 90.48 5.53
-4 6 1 96.01 6.28
-4 6 1 98.37 6.05
4 6 -1 97.45 5.2
-4 6 1 120.39 18.16
4 6 -1 126.25 19.09
-4 6 1 97.09 5.07
-3 -6 1 1.12 7.02
3 -6 -1 10.79 1.58
3 -6 -1 9.33 1.54
3 -6 -1 9.43 1.62
-3 -6 1 9.55 1.29
-3 6 1 12.08 8.53
3 6 -1 13.48 7.11
-3 6 1 9.18 1.87
3 6 -1 11.31 1.4
3 6 -1 10.07 0.92
-3 6 1 10.3 2.01
3 6 -1 8.4 1.39
-3 6 1 11.14 1.31
2 -6 -1 1607.63 68.11
-2 -6 1 1719.1 67.97
-2 -6 1 1784.25 75.14
2 -6 -1 1639.09 68.07
-2 -6 1 1487.79 67.64
-2 -6 1 1763.18 67.6
2 -6 -1 1663.9 67.84
2 6 -1 1858.41 69.34
2 6 -1 1648.31 76.16
2 6 -1 1568.71 69.09
-2 6 1 1679.66 69.88
-2 6 1 1845.84 77.7
2 6 -1 1661.65 69.59
-2 6 1 1786.66 77.04
-2 6 1 1626.14 69.29
-2 6 1 1681.3 69.83
1 -6 -1 914.88 35
1 -6 -1 853.23 35.29
-1 -6 1 832 40.54
-1 -6 1 794.99 35.05
1 -6 -1 855.47 40.82
1 -6 -1 862.25 35.02
-1 6 1 842.53 34.57
-1 6 1 895.92 34.7
1 6 -1 831.48 34.36
1 6 -1 787.24 34.67
1 6 -1 855.94 40.14
1 6 -1 838.47 34.56
-1 6 1 809.69 39.68
-1 6 1 888.35 35.04
1 6 -1 828.74 34.38
0 -6 -1 88.99 4.23
0 -6 1 82.93 8.95
0 -6 1 85.21 4.3
0 -6 1 88.32 4.16
0 -6 -1 96.23 8.94
0 -6 -1 83.33 3.79
0 -6 1 90.44 4.25
0 -6 -1 89 4.27
0 6 -1 83.77 4.08
0 6 -1 88.02 4.17
0 6 1 84.98 3.69
0 6 1 85.17 4.27
0 6 -1 78.71 8.45
0 6 1 78.62 4.01
0 6 -1 77.27 3.88
0 6 1 102.25 8.19
1 -6 1 888.23 36.73
1 -6 1 823.9 36.84
-1 -6 -1 887.85 36.49
1 -6 1 935.34 43.1
-1 -6 -1 938.85 41.39
1 6 1 835.92 37.85
-1 6 -1 906.97 38
-1 6 -1 994.67 38.08
1 6 1 937.35 38.17
-1 6 -1 909.86 38.52
-1 6 -1 940.49 43.81
1 6 1 950.32 42.5
-2 -6 -1 76.17 3.59
-2 -6 -1 76.64 9.46
-2 -6 -1 78.57 3.49
2 -6 1 78.94 4.18
2 -6 1 75.99 4.18
2 -6 1 77.87 4.31
-2 -6 -1 74.91 4.25
-2 6 -1 64.46 9.94
2 6 1 69.92 4.09
-2 6 -1 57.71 9.18
-2 6 -1 67.97 3.8
-2 6 -1 78.26 4.19
2 6 1 73.23 3.32
2 6 1 66.63 8.47
2 6 1 77.11 3.46
-2 6 -1 74.82 4.25
3 -6 1 96.32 5.45
-3 -6 -1 102.71 13
3 -6 1 94.77 5.11
-3 -6 -1 90.84 4.68
3 -6 1 89.96 4.94
-3 -6 -1 89.41 5.17
3 6 1 100.41 4.74
-3 6 -1 102.32 5.53
-3 6 -1 98.15 5.25
-3 6 -1 118.84 16.12
3 6 1 98.93 13.61
3 6 1 93.92 5.56
-3 6 -1 107.59 6
-3 6 -1 92.96 12.83
-4 -6 -1 35.04 3.8
-4 -6 -1 32.58 10.85
4 -6 1 41.48 3.09
4 -6 1 38.97 3.31
-4 -6 -1 40.01 3.43
-4 6 -1 32.78 2.89
-4 6 -1 18.32 12.93
4 6 1 33.7 2.46
-4 6 -1 38.83 3.63
4 6 1 35.08 3.51
-4 6 -1 27.29 10.28
4 6 1 24.65 14.18
5 -6 1 92.59 5.55
-5 -6 -1 85.21 6.16
5 -6 1 98.61 5.96
-5 -6 -1 87.96 16.38
5 6 1 90.66 5.09
-5 6 -1 80.47 17.17
5 6 1 117.75 19.25
-5 6 -1 90.21 5.59
-5 6 -1 87.1 6.34
6 -6 1 77.7 5.63
6 -6 1 83.34 6.57
-6 6 -1 100.87 8.32
-6 6 -1 80.28 6.32
6 6 1 84.96 5.58
-6 -7 1 110.29 7.9
6 -7 -1 106.27 7.76
6 -7 -1 109.25 6.52
6 7 -1 113.99 6.69
-6 7 1 113.8 6.56
5 -7 -1 109.72 6.27
-5 -7 1 94.43 18.45
5 -7 -1 108.97 6.63
-5 -7 1 118.41 6.68
5 7 -1 120.73 6.22
5 7 -1 119.54 7.01
-5 7 1 110.39 6.1
-5 7 1 106.6 7.67
-5 7 1 114.7 23.35
5 7 -1 107.63 21.03
-4 -7 1 177.6 8.67
-4 -7 1 173.36 20.25
-4 -7 1 181.86 8.43
4 -7 -1 168.38 8.55
4 -7 -1 172.68 8.85
-4 7 1 165.05 24.06
-4 7 1 173 9.47
4 7 -1 172.26 8.78
4 7 -1 179.64 23.48
-4 7 1 174.02 19.42
-4 7 1 168.06 8.08
-4 7 1 178.51 9.06
4 7 -1 162.92 8.07
-3 -7 1 183.37 8.17
3 -7 -1 187.2 8.99
-3 -7 1 183.32 8.39
3 -7 -1 181.84 8.9
-3 -7 1 196.99 8.86
3 -7 -1 192.69 8.87
-3 -7 1 193.26 17.86
3 7 -1 183.57 9.08
-3 7 1 192.51 9.46
3 7 -1 189.91 16.92
3 7 -1 194.96 8.21
-3 7 1 193.03 17.92
-3 7 1 187.58 8.66
3 7 -1 192.5 8.65
-3 7 1 202.23 9.59
2 -7 -1 244.58 11.02
-2 -7 1 213.12 11.4
2 -7 -1 258.3 10.78
-2 -7 1 245.59 17.64
2 -7 -1 238.11 10.87
-2 -7 1 261.8 10.92
-2 7 1 242.74 10.84
-2 7 1 264.06 11.56
-2 7 1 237.5 18.49
2 7 -1 231.64 17.64
2 7 -1 263.32 11.19
2 7 -1 245.75 10.7
-2 7 1 254.21 17.8
2 7 -1 241.04 10.64
-2 7 1 252.22 11.32
-1 -7 1 1210.74 48.14
1 -7 -1 1138.34 48.27
-1 -7 1 1097.55 48.06
-1 -7 1 1186.44 54.5
1 -7 -1 1185.04 47.97
1 -7 -1 1229.97 55.01
1 7 -1 1099.22 46.58
-1 7 1 1175.41 52.9
1 7 -1 1193.59 53.16
1 7 -1 1156.03 46.18
1 7 -1 1095.13 46.14
-1 7 1 1064.95 46.82
1 7 -1 1151.61 46.46
-1 7 1 1153.91 46.48
-1 7 1 1136.02 46.48
0 -7 -1 98.85 9.85
0 -7 -1 91.61 4.54
0 -7 -1 85.1 3.96
0 -7 1 88.95 9.79
0 -7 1 93.54 4.51
0 -7 1 102.28 4.71
0 -7 1 94.63 4.37
0 -7 -1 78.33 4.64
0 7 1 101.37 4.34
0 7 1 97.52 4.79
0 7 1 101.34 5
0 7 -1 97.66 4.83
0 7 -1 98.93 10.03
0 7 1 88.77 8.77
0 7 -1 97.24 4.57
1 -7 1 958.7 35.26
-1 -7 -1 920.02 35.22
-1 -7 -1 852.62 40.38
1 -7 1 742.88 35.17
1 -7 1 828.28 35.07
1 -7 1 901.61 42.43
-1 -7 -1 754.1 34.97
-1 7 -1 842.42 36.02
1 7 1 903.12 36.02
-1 7 -1 847.01 42.43
-1 7 -1 868.6 36.23
1 7 1 874.97 36.21
1 7 1 882.81 41.4
-1 7 -1 887.57 36.06
-2 -7 -1 484.25 20.35
2 -7 1 458.74 20.29
-2 -7 -1 460.25 19.59
2 -7 1 467.21 20.39
2 -7 1 474.71 20.43
-2 -7 -1 443.5 25.79
-2 -7 -1 524.93 19.44
2 7 1 437.38 24.9
-2 7 -1 435.95 26.44
-2 7 -1 432.64 19.17
-2 7 -1 438.89 18.93
-2 7 -1 452.48 27.18
2 7 1 466.42 18.16
2 7 1 425.55 18.5
2 7 1 444 19.26
-2 7 -1 460.9 19.21
3 -7 1 358.77 16.08
-3 -7 -1 364.36 15.42
3 -7 1 344.01 16.27
-3 -7 -1 373.74 16.17
-3 -7 -1 370.17 23.59
3 -7 1 370.78 16.19
-3 7 -1 355.9 29.83
-3 7 -1 350.56 24.71
-3 7 -1 385.02 16.3
-3 7 -1 367.46 16.47
3 7 1 367.42 25.82
3 7 1 349.64 16.35
-3 7 -1 360.24 15.94
4 -7 1 292.5 13.38
-4 -7 -1 271.57 13.27
4 -7 1 269.68 13.02
-4 -7 -1 284.12 12.79
-4 -7 -1 326.38 24.55
-4 7 -1 265.2 28.21
-4 7 -1 257.96 13.23
4 7 1 275.47 13.58
-4 7 -1 294.21 25.17
4 7 1 271.68 29.11
4 7 1 310.15 12.45
-4 7 -1 285.98 13.04
-5 -7 -1 13.85 12.86
5 -7 1 13.54 2.14
5 -7 1 13.3 2.65
-5 -7 -1 12.57 2.68
5 7 1 11.32 2.61
-5 7 -1 11.11 2.16
5 7 1 5.47 13.04
-5 7 -1 34.73 17.72
-5 7 -1 12.68 3.42
5 7 1 11.7 1.66
6 -7 1 12.92 2.84
6 -7 1 17.83 3.93
6 7 1 14.04 2.38
-6 7 -1 16.27 3.31
6 -8 -1 158.21 8.85
-6 -8 1 179.31 10.39
6 -8 -1 159 9.72
6 8 -1 160.32 8.27
-6 8 1 154.77 8.24
6 8 -1 155.3 9.32
-6 8 1 188.69 35.95
5 -8 -1 66.89 5.02
-5 -8 1 70.04 5.04
5 -8 -1 69.46 4.74
-5 8 1 75.04 21.62
-5 8 1 47.12 17.46
-5 8 1 71.42 4.31
5 8 -1 82.16 19.79
5 8 -1 68.35 4.3
5 8 -1 64 5.08
-4 -8 1 111.56 5.54
4 -8 -1 93.77 6.07
4 -8 -1 110.77 5.92
-4 -8 1 104.85 5.96
4 -8 -1 93.44 5.78
-4 -8 1 63.87 14.16
-4 8 1 109.54 7.12
4 8 -1 94.18 19.08
-4 8 1 127.93 18.3
-4 8 1 95.01 6.53
4 8 -1 104.2 6.04
-4 8 1 103.1 18.45
-4 8 1 95.19 5.22
4 8 -1 96.89 5.19
-3 -8 1 23.11 1.89
-3 -8 1 19.31 9.8
-3 -8 1 20.49 2.42
3 -8 -1 21.35 2.26
-3 -8 1 22.79 2.01
3 -8 -1 18.71 2.21
3 -8 -1 25.14 2.7
-3 8 1 20.93 10.22
3 8 -1 32.64 10.67
3 8 -1 24.03 2.43
-3 8 1 21.15 1.97
3 8 -1 24.13 1.9
-3 8 1 25.44 8.7
-3 8 1 26.01 3.26
-3 8 1 24.28 3.12
3 8 -1 24.21 1.68
2 -8 -1 52.9 3.39
-2 -8 1 58.09 10.43
-2 -8 1 51.21 3.34
2 -8 -1 57.6 3.36
-2 -8 1 55.57 3.08
2 8 -1 49.04 3.12
-2 8 1 47.38 8.99
-2 8 1 53.65 10.78
2 8 -1 36.74 8.08
2 8 -1 48.11 2.8
-2 8 1 52.3 3.55
-2 8 1 48.09 2.86
-2 8 1 53.08 3.71
2 8 -1 50.72 2.74
1 -8 -1 740.07 32.27
-1 -8 1 817.5 39.98
1 -8 -1 791.78 32.45
-1 -8 1 743.87 32.53
1 -8 -1 818.38 40.13
1 -8 -1 778.47 32.75
-1 -8 1 817.53 32.64
1 8 -1 732.08 38.21
-1 8 1 753.53 31.51
1 8 -1 820.95 31.68
1 8 -1 705.67 31.64
1 8 -1 774.86 31.17
-1 8 1 790 32.06
-1 8 1 779.51 38.58
-1 8 1 753.8 31.55
1 8 -1 739.95 31.14
0 -8 -1 192.72 14.65
0 -8 1 220.45 9.44
0 -8 1 206.58 9.54
0 -8 -1 208.04 9.38
0 -8 -1 216.27 8.8
0 -8 1 230.27 16.86
0 -8 -1 199.83 9.42
0 8 1 192.06 8.98
0 8 1 208.02 9.28
0 8 -1 210.49 15.14
0 8 1 197.91 14.69
0 8 -1 203.23 8.73
0 8 -1 203.08 9.12
0 8 -1 202.23 9.03
0 8 1 191.15 8.46
1 -8 1 1623.79 74.46
-1 -8 -1 1769.97 66.39
-1 -8 -1 1697.6 66.61
1 -8 1 1702.77 66.61
-1 -8 -1 1647.92 72.82
1 -8 1 1550.92 66.44
1 -8 1 1394.28 66.6
1 8 1 1464.95 65.82
-1 8 -1 1576.79 65.92
1 8 1 1693.86 72.42
-1 8 -1 1674.58 73.87
1 8 1 1628.25 66.1
-1 8 -1 1653.7 66.18
2 -8 1 605.13 24.29
-2 -8 -1 594.57 24.12
2 -8 1 599.79 24.23
2 -8 1 532.05 23.98
-2 -8 -1 500.76 23.31
-2 8 -1 490.02 31.95
-2 8 -1 588.08 24.1
-2 8 -1 586.73 23.78
-2 8 -1 522.1 31.4
2 8 1 544.85 24.03
2 8 1 570.95 23.39
-2 8 -1 586.08 24.05
-3 -8 -1 29.58 2
3 -8 1 26.47 2.56
3 -8 1 28.58 2.77
-3 -8 -1 32.02 3.27
-3 -8 -1 46.44 10.18
3 -8 1 27.24 3.21
3 8 1 41.79 10.92
3 8 1 28.5 1.94
3 8 1 26.63 2.86
-3 8 -1 7.41 9.45
-3 8 -1 27.28 2.5
-3 8 -1 28.87 3.27
-3 8 -1 40.15 10.01
-3 8 -1 34.95 3.82
4 -8 1 11.24 2.14
-4 -8 -1 2.26 10.66
4 -8 1 10.84 2.05
-4 8 -1 7.42 2.43
-4 8 -1 7.24 13.92
-4 8 -1 7.67 1.67
-4 8 -1 13.91 10.99
4 8 1 11.95 2.35
4 8 1 10.42 1.47
4 8 1 10.75 13.49
-5 -8 -1 54.78 4.8
5 -8 1 46.8 6.92
5 -8 1 63.63 4.6
-5 8 -1 50.63 4.04
5 8 1 50.15 4.84
5 8 1 44.76 3.37
6 -8 1 56.35 5.82
6 -8 1 49.86 5.01
-6 8 -1 54.02 5.65
6 8 1 46.84 4.12
6 -9 -1 11.38 3.3
6 -9 -1 17.19 4.1
-6 9 1 -17.71 29.79
5 -9 -1 141.66 8.01
-5 -9 1 144.47 7.67
5 -9 -1 150.69 8.47
-5 9 1 149.06 27.92
-5 9 1 160.96 7.86
5 9 -1 154.59 7.57
5 9 -1 147.89 8.65
-5 9 1 145.66 21.95
5 9 -1 125.08 22.24
4 -9 -1 254.26 12.2
-4 -9 1 227.94 11.98
-4 -9 1 257.66 11.31
4 -9 -1 247.7 11.96
4 -9 -1 267.74 12.23
-4 -9 1 276.9 26.12
-4 9 1 277.71 25.45
-4 9 1 257.77 11.52
-4 9 1 247.18 12.91
-4 9 1 307.83 44.6
4 9 -1 219.86 11.16
-4 9 1 247.54 12.78
4 9 -1 264.39 10.47
4 9 -1 254.81 12.27
4 9 -1 281.99 27.92
-3 -9 1 273.47 14.41
3 -9 -1 342.35 14.39
-3 -9 1 347.39 14.43
3 -9 -1 326.75 14.51
-3 -9 1 295.61 25.48
3 -9 -1 311.68 14.3
3 9 -1 326.11 13.38
-3 9 1 319.59 14.83
-3 9 1 327.52 14.7
-3 9 1 281.38 23.74
3 9 -1 303.94 13.46
-3 9 1 290.91 25.52
3 9 -1 317.25 24.41
3 9 -1 331.85 14.42
-3 9 1 298.8 13.74
-2 -9 1 121.28 6.06
-2 -9 1 132.16 14.94
-2 -9 1 124.78 6.31
2 -9 -1 123.24 6.17
2 -9 -1 124.9 6.14
2 -9 -1 127.64 6.48
-2 9 1 125.06 6.2
2 9 -1 131.99 5.78
-2 9 1 140.06 16.22
-2 9 1 132.67 6.67
2 9 -1 116.08 6.02
2 9 -1 132.18 13.71
2 9 -1 127.67 5.83
-2 9 1 129.81 14.52
-2 9 1 138.8 7.09
2 9 -1 126.93 6.46
1 -9 -1 265.39 20.74
1 -9 -1 301.84 12.32
1 -9 -1 255.36 12.45
-1 -9 1 296.04 20.44
1 -9 -1 275.98 12
-1 -9 1 275.32 12.39
-1 -9 1 289.49 12.43
1 9 -1 304.85 11.74
-1 9 1 282.12 12.14
1 9 -1 274.9 12.23
1 9 -1 278.6 11.72
1 9 -1 262.93 12.28
-1 9 1 279.71 12.74
-1 9 1 260.92 12.13
-1 9 1 259.94 19.22
1 9 -1 292.42 19.94
0 -9 -1 168.06 8.16
0 -9 -1 175.55 8.17
0 -9 -1 195.81 15.37
0 -9 -1 167.4 7.5
0 -9 1 192.34 8.3
0 -9 1 173.29 8.32
0 -9 1 194.41 16.51
0 -9 1 177.41 7.92
0 9 1 174.52 7.5
0 9 -1 170.14 15.35
0 9 1 176.04 8.11
0 9 -1 172.96 8.23
0 9 1 183.58 8.46
0 9 -1 187.62 7.82
0 9 1 156.86 14.36
0 9 -1 164.98 8.09
1 -9 1 676.48 37.39
1 -9 1 699.82 28.51
1 -9 1 639.95 28.76
1 -9 1 697.33 28.63
-1 -9 -1 652.8 28.33
-1 -9 -1 732.08 28.7
-1 -9 -1 665.51 35.61
-1 9 -1 712.99 28.63
-1 9 -1 699.16 28.31
1 9 1 654.71 28.44
1 9 1 635.31 34.93
-1 9 -1 675 28.34
-1 9 -1 662.71 36.12
-2 -9 -1 399.66 18.33
-2 -9 -1 436.66 17.72
2 -9 1 413.52 18.29
-2 -9 -1 427.64 25.94
2 -9 1 444.8 18.54
2 -9 1 408.76 18.48
2 9 1 404.01 18.45
-2 9 -1 399.88 28.33
2 9 1 433.85 17.9
-2 9 -1 430.94 18.45
2 9 1 393.79 26.05
-2 9 -1 403.33 18.11
-2 9 -1 448.3 18.63
-2 9 -1 433.02 27.16
3 -9 1 499.3 21.67
-3 -9 -1 478.89 20.32
-3 -9 -1 472.68 20.27
-3 -9 -1 499.54 21.63
-3 -9 -1 502.62 30.44
3 -9 1 506.08 21.63
3 -9 1 505.8 21.91
3 9 1 519.21 20.21
-3 9 -1 492.78 21.73
3 9 1 463.23 21.69
-3 9 -1 522.89 21.97
3 9 1 473.66 31.37
-3 9 -1 490.08 21.22
-3 9 -1 451.69 31.03
-3 9 -1 488.42 35.37
4 -9 1 162.34 8.57
-4 -9 -1 158.82 7.54
4 -9 1 163.72 8.53
4 9 1 164.59 7.55
-4 9 -1 193.03 27.11
-4 9 -1 121.39 19.79
4 9 1 206.35 23.32
-4 9 -1 170.56 9.52
-4 9 -1 164.27 8.47
4 9 1 173.99 9.36
-5 -9 -1 75.09 5.19
5 -9 1 69.15 5.24
5 -9 1 64.76 5.54
-5 9 -1 70.63 24.58
5 9 1 71.9 4.21
-5 9 -1 69.81 5.22
5 9 1 65.57 5.5
6 -9 1 6.38 3.37
6 -9 1 8.68 3.3
6 9 1 8.24 2.09
-6 9 -1 12.28 3.03
6 -10 -1 151.7 9.22
6 -10 -1 159.57 9.75
6 10 -1 148.5 7.67
-6 10 1 163.33 35.85
6 10 -1 142.02 9.7
-5 -10 1 43.87 3.96
5 -10 -1 41.92 3.99
-5 -10 1 24.73 19.1
-5 10 1 45.72 3.63
5 10 -1 23.62 17.88
5 10 -1 45.95 5.04
5 10 -1 46.9 3.4
-5 10 1 39.69 23.91
4 -10 -1 201.2 9.99
4 -10 -1 195.95 9.95
-4 -10 1 196.33 24.23
4 -10 -1 193.62 10.23
4 10 -1 194.38 8.68
4 10 -1 175.12 26.61
-4 10 1 162.2 24.76
4 10 -1 189.46 9.81
-4 10 1 186.84 8.98
4 10 -1 184.84 8.09
-4 10 1 202.64 24.33
-3 -10 1 158.29 8.03
-3 -10 1 172.1 19.86
-3 -10 1 152.93 7.27
3 -10 -1 154.95 8.02
3 -10 -1 157.1 7.86
3 -10 -1 154.98 8.05
-3 10 1 161.2 23.15
-3 10 1 159.38 8.81
-3 10 1 147.92 18.32
3 10 -1 144.71 7.81
-3 10 1 149.73 8.26
3 10 -1 160.5 7.09
3 10 -1 154.69 22.25
-3 10 1 147.99 7.37
2 -10 -1 81.7 4.57
-2 -10 1 69.48 4.38
-2 -10 1 52.87 11.81
2 -10 -1 78.11 4.39
-2 -10 1 73.9 4.22
2 -10 -1 69.12 4.09
-2 10 1 88 14.51
2 10 -1 81.87 13.43
-2 10 1 77.96 5.28
-2 10 1 85.55 13.54
2 10 -1 79.39 3.84
2 10 -1 80.69 4.48
-2 10 1 83.17 4.95
2 10 -1 75.45 3.92
2 10 -1 79.43 4.65
-2 10 1 93.89 4.52
-1 -10 1 227.54 10.09
1 -10 -1 202.93 10.08
1 -10 -1 240.72 9.99
1 -10 -1 214.78 9.55
-1 -10 1 207.75 9.98
1 -10 -1 215.64 19.08
-1 -10 1 211.64 19.28
1 10 -1 243.51 10.01
1 10 -1 218.74 9.31
-1 10 1 197.68 10.27
-1 10 1 228.73 9.77
1 10 -1 225.4 10.06
1 10 -1 206 9.23
-1 10 1 209.8 17.77
-1 10 1 201.55 9.77
1 10 -1 206.77 17.41
0 -10 1 71.66 11.17
0 -10 1 58.33 3.51
0 -10 -1 48.75 3.33
0 -10 1 55.9 3.07
0 -10 -1 52.99 2.69
0 -10 -1 55.54 3.56
0 -10 1 65.73 3.65
0 -10 -1 45.54 9.28
0 10 -1 56.26 3.6
0 10 -1 50.21 3.27
0 10 1 48.26 8.43
0 10 1 60.56 3.89
0 10 1 53.34 3.27
0 10 -1 53.88 3
0 10 1 43.61 2.59
0 10 -1 43.12 8.91
1 -10 1 56.44 3.73
-1 -10 -1 55.94 10.14
1 -10 1 71.53 12.09
1 -10 1 56.99 3.41
-1 -10 -1 64.26 3.46
1 -10 1 57.44 3.72
-1 -10 -1 59.29 3.8
-1 10 -1 59.38 4.05
1 10 1 60.63 9.85
-1 10 -1 58.96 10.43
-1 10 -1 61.8 3.64
1 10 1 59.06 3.76
1 10 1 61.29 3.96
-1 10 -1 65.94 3.82
-2 -10 -1 406.17 17.02
2 -10 1 386.71 17.82
-2 -10 -1 409.37 17.72
2 -10 1 400.57 17.75
-2 -10 -1 402.26 26.11
2 -10 1 400.21 17.56
2 10 1 402.63 17.73
2 10 1 360.76 27.43
-2 10 -1 443.74 18.37
2 10 1 400.91 18.34
-2 10 -1 449.61 18.1
-2 10 -1 381.89 27.94
-2 10 -1 414.97 18.47
3 -10 1 7.73 1.67
-3 -10 -1 7.31 1.12
3 -10 1 5.84 2.47
-3 -10 -1 0.1 8.9
3 -10 1 7.18 1.66
-3 10 -1 5.87 2.43
-3 10 -1 7.26 12.57
-3 10 -1 27.36 11.11
-3 10 -1 4.68 2.46
3 10 1 -9.22 11.78
3 10 1 5.21 1.13
-3 10 -1 5.33 1.33
3 10 1 4.79 1.73
4 -10 1 284.96 14.02
4 -10 1 311.24 14.25
-4 -10 -1 297.14 12.7
-4 10 -1 276.58 33.65
-4 10 -1 352.19 30.77
4 10 1 271.59 28.01
-4 10 -1 327.14 14.82
4 10 1 340.3 15.71
5 -10 1 148.69 9.09
5 -10 1 163.47 9.08
-5 10 -1 122.31 8.32
5 10 1 140.08 6.62
-5 10 -1 107.2 27.32
5 10 1 148.4 9.05
6 -10 1 112.92 9.78
6 10 1 118.01 6.57
6 -11 -1 106.72 7.96
6 -11 -1 99.19 8.09
-6 11 1 101.94 6.72
6 11 -1 98.2 8.66
6 11 -1 102.62 5.93
5 -11 -1 138.05 8.39
-5 -11 1 145.21 7.43
5 11 -1 136.95 6.7
-5 11 1 156.04 29.83
-5 11 1 133.51 7.27
5 11 -1 133.96 8.35
4 -11 -1 176.52 9.22
-4 -11 1 152.13 22.23
4 -11 -1 183.68 9.35
4 11 -1 189.81 8.13
-4 11 1 232.04 35.39
4 11 -1 176.24 9.47
4 11 -1 165.58 7.9
4 11 -1 196.3 26.61
-4 11 1 177.76 8.75
3 -11 -1 161.91 7.7
-3 -11 1 132.75 19.35
-3 -11 1 143.56 7.75
-3 -11 1 141.22 7.1
3 -11 -1 144.8 7.79
3 -11 -1 143.19 7.76
-3 11 1 147.95 7.16
3 11 -1 130.62 20.76
-3 11 1 181.89 22.1
3 11 -1 137.15 7.54
-3 11 1 129.98 7.95
3 11 -1 143.11 6.47
-3 11 1 145.39 8.68
-3 11 1 146.37 23.22
2 -11 -1 312.81 14.43
2 -11 -1 306.46 14.71
-2 -11 1 342.15 26.16
-2 -11 1 313.42 14.36
-2 -11 1 326.32 14.67
2 -11 -1 358.12 14.44
-2 11 1 314.74 14.43
2 11 -1 274.84 12.65
-2 11 1 267.1 23.39
-2 11 1 315.73 26.71
2 11 -1 302.32 13.74
-2 11 1 337.42 13.86
2 11 -1 293.66 23.78
2 11 -1 307.85 12.59
-2 11 1 297.32 13.4
2 11 -1 289.78 13.28
-1 -11 1 198.57 19.45
1 -11 -1 185.89 8.8
1 -11 -1 193.65 8.4
-1 -11 1 191.7 9
1 -11 -1 180.17 8.99
1 -11 -1 168.2 18.9
-1 -11 1 181.9 8.89
1 11 -1 169.61 7.57
1 11 -1 149.64 16.73
-1 11 1 161.07 8.03
1 11 -1 186.08 8.46
-1 11 1 160.08 17.79
1 11 -1 167.31 8.35
-1 11 1 188.58 9.08
1 11 -1 184.46 7.65
-1 11 1 172.31 8.24
0 -11 1 94.49 4.71
0 -11 -1 88.77 5.04
0 -11 1 81.79 13.62
0 -11 1 96.88 5.26
0 -11 1 92.69 5.22
0 -11 -1 99.23 5.26
0 -11 -1 69.26 14.94
0 -11 -1 95.83 4.27
0 11 1 104.87 4.32
0 11 1 92.69 5.43
0 11 -1 88.43 5.27
0 11 -1 87.24 4.59
0 11 -1 91.03 5.04
0 11 1 90.1 4.94
0 11 -1 69.39 11.98
0 11 1 75.71 13.99
-1 -11 -1 370.95 15.99
-1 -11 -1 363.12 25.62
1 -11 1 362.97 15.7
1 -11 1 362.1 27.4
1 -11 1 336.56 16.08
-1 -11 -1 351.62 15.65
1 -11 1 375.73 16.03
1 11 1 357.45 15.77
-1 11 -1 388.74 15.77
1 11 1 355.69 24.96
-1 11 -1 354.87 15.98
1 11 1 341.43 15.72
-1 11 -1 321.22 24.47
-1 11 -1 343.61 15.46
-2 -11 -1 754.55 32.16
2 -11 1 789.32 33.09
2 -11 1 788.91 32.93
2 -11 1 770.29 32.67
-2 -11 -1 762.5 42.32
2 11 1 756.64 41.94
-2 11 -1 740.86 31.72
2 11 1 772.04 31.57
2 11 1 781.5 32.22
-2 11 -1 753.03 31.96
-2 11 -1 721.16 42.77
-2 11 -1 724.99 32.15
-3 -11 -1 283.07 24.67
3 -11 1 330.04 14.78
3 -11 1 325.04 14.95
3 11 1 336.24 15.02
3 11 1 318.24 13.57
3 11 1 305.83 29.09
-3 11 -1 299.24 14.17
-3 11 -1 277.91 26.7
-3 11 -1 314.76 15.13
-3 11 -1 317.42 30.4
4 -11 1 42.28 3.92
4 -11 1 44.52 4.12
-4 -11 -1 27.89 14.5
4 11 1 27.61 14.53
-4 11 -1 26.04 15
4 11 1 31.86 4.12
-4 11 -1 29.46 3.28
-4 11 -1 39.82 20.43
4 11 1 31.11 1.98
5 -11 1 164.41 10.06
5 -11 1 159.84 9.22
5 11 1 157.06 7.37
5 11 1 152.73 10.15
-5 11 -1 134.02 46.13
-5 11 -1 159.14 8.65
5 -12 -1 33.95 4.94
5 -12 -1 32 4.7
-5 12 1 36.65 3.89
-5 12 1 61.23 28.67
5 12 -1 35.52 2.85
5 12 -1 34.25 4.68
4 -12 -1 16.06 2.81
4 -12 -1 21.7 3.14
-4 12 1 44.59 18.9
-4 12 1 2.23 19.6
-4 12 1 16.13 2.31
4 12 -1 17.72 2.77
4 12 -1 18.27 2.29
4 12 -1 17.51 2.36
4 12 -1 8.83 15.25
3 -12 -1 387.04 17.69
3 -12 -1 401.87 18.01
3 -12 -1 413.01 18.2
-3 -12 1 378.16 17.25
-3 -12 1 427.79 31.48
-3 12 1 397.17 30.7
3 12 -1 393.89 15.82
-3 12 1 384.31 16.89
3 12 -1 382.8 16.58
-3 12 1 368.78 17.59
3 12 -1 387.86 15.85
-3 12 1 352.84 33.45
3 12 -1 366.66 17.35
3 12 -1 376.19 31.15
2 -12 -1 165.19 8.71
-2 -12 1 179.4 8.47
2 -12 -1 179.17 8.68
2 -12 -1 175.42 8.27
-2 -12 1 168.91 8.72
-2 -12 1 148.88 21.77
-2 12 1 166.05 8.52
2 12 -1 167.82 7.63
-2 12 1 182.13 8.92
2 12 -1 191.44 7.56
-2 12 1 162.77 18.81
2 12 -1 170.87 8.78
2 12 -1 181.04 8.58
-2 12 1 182.16 22.53
2 12 -1 189.68 22.3
1 -12 -1 172.92 8.01
-1 -12 1 153.04 7.89
-1 -12 1 155.97 20.25
-1 -12 1 178.99 8.19
1 -12 -1 152.33 7.98
1 -12 -1 136.3 21.78
1 -12 -1 144.51 7.26
-1 12 1 159.9 8.44
1 12 -1 170.76 6.96
1 12 -1 140.79 6.84
-1 12 1 148.18 17.12
1 12 -1 146.02 7.71
1 12 -1 168.2 7.91
-1 12 1 150.86 7.64
1 12 -1 140.51 17.71
0 -12 -1 464.47 19.55
0 -12 1 474.16 20.08
0 -12 -1 469.81 20.56
0 -12 -1 463.35 20.51
0 -12 1 481.01 20.6
0 -12 1 493.45 20.85
0 -12 -1 502.73 32.22
0 -12 1 439.93 31.91
0 12 1 492.33 21.23
0 12 1 457.65 20.77
0 12 -1 488.1 20.32
0 12 -1 463.42 30.11
0 12 1 473.69 30.95
0 12 -1 513.19 21.11
0 12 -1 472.76 20.86
0 12 1 471.37 19.86
1 -12 1 163.63 8.39
-1 -12 -1 163.08 7.88
1 -12 1 167.34 8.36
1 -12 1 157.01 7.83
-1 -12 -1 165.58 18.73
-1 -12 -1 161.18 8.28
1 -12 1 177.16 22.03
-1 12 -1 158.74 8.35
1 12 1 161.98 8.12
-1 12 -1 153.45 7.81
-1 12 -1 168.97 7.87
-1 12 -1 124.81 17.23
1 12 1 153.97 7.93
1 12 1 154.05 19.9
-2 -12 -1 166.4 19.6
-2 -12 -1 156.48 7.09
2 -12 1 144.27 7.39
2 -12 1 137.9 7.95
2 -12 1 137.29 7.74
2 12 1 160.81 7.83
2 12 1 149.46 8.17
2 12 1 161.2 23.47
-2 12 -1 122.05 18.53
-2 12 -1 154.29 7.78
-2 12 -1 154.39 8.19
3 -12 1 105 6.02
-3 -12 -1 88.41 4.75
3 -12 1 96.38 6
-3 12 -1 116.88 18.68
-3 12 -1 107.94 21.05
-3 12 -1 124.78 10.58
3 12 1 78.07 15.05
3 12 1 99.64 6.41
-3 12 -1 103.49 5.88
3 12 1 96.08 5.38
4 -12 1 291.28 14.09
4 -12 1 282.11 14.24
-4 12 -1 276.36 13.18
4 12 1 276.69 14.07
5 -12 1 236.19 12.94
-5 12 -1 221.34 11.82
5 12 1 231.87 13.12
5 -13 -1 175.9 10.7
5 -13 -1 187.62 10.52
-5 13 1 160.63 9.6
5 13 -1 184.49 10.99
5 13 -1 175.27 8.01
-4 -13 1 146.65 6.92
4 -13 -1 144.05 8.36
4 -13 -1 151.46 8.1
-4 -13 1 97.9 22.89
-4 13 1 124.66 26.17
4 13 -1 149.07 7.16
-4 13 1 137.27 24.68
4 13 -1 101.65 20.19
4 13 -1 152.18 6.5
-4 13 1 148.48 7.69
4 13 -1 144 6.4
3 -13 -1 199.99 9.9
-3 -13 1 211.58 28.59
3 -13 -1 182.56 9.28
-3 -13 1 177.36 8.96
-3 13 1 216.27 30.21
-3 13 1 230.2 30.92
3 13 -1 220.45 33.11
3 13 -1 188.47 9.65
-3 13 1 188.31 9.14
-3 13 1 169.31 10.06
3 13 -1 175.81 8.93
-2 -13 1 7.7 12.91
2 -13 -1 9.34 2.36
2 -13 -1 8.24 1.54
2 -13 -1 8.81 1.84
-2 -13 1 7.26 1.65
2 13 -1 5.61 1.6
2 13 -1 33.09 15.54
2 13 -1 7.28 0.98
2 13 -1 9.18 1.96
-2 13 1 6.36 2.08
-2 13 1 19.25 13.11
-2 13 1 11.06 13.49
2 13 -1 6.96 1
-2 13 1 8.68 1.74
-1 -13 1 166.88 23.7
1 -13 -1 137.15 6.98
1 -13 -1 125.18 18.6
-1 -13 1 137.51 6.91
1 -13 -1 108.92 6.64
1 -13 -1 118.93 6.1
1 13 -1 131.41 6.35
-1 13 1 120.4 7.9
-1 13 1 136.21 6.7
1 13 -1 136.85 7.24
1 13 -1 149.91 21.38
1 13 -1 137.53 6.05
-1 13 1 144.6 20
1 13 -1 125.71 6.96
-1 13 1 129.47 6.89
0 -13 -1 380.69 28.24
0 -13 -1 312.12 14.79
0 -13 -1 342.32 14.96
0 -13 1 305.08 14.98
0 -13 1 333.81 28.13
0 -13 -1 333.4 13.73
0 13 1 361.59 14.06
0 13 -1 330.38 15.42
0 13 -1 322.09 26.68
0 13 1 310.47 26.72
0 13 1 317.66 15.07
0 13 1 338.21 15.64
0 13 -1 336.55 15.17
-1 -13 -1 42.59 3.65
1 -13 1 39.62 3.5
-1 -13 -1 41.61 11.87
1 -13 1 17.48 14.6
1 -13 1 33.95 2.89
-1 -13 -1 29.17 2.75
1 -13 1 38.96 3.85
-1 13 -1 34.08 3.14
1 13 1 33.59 3.02
1 13 1 30.75 3.79
-1 13 -1 28.91 4.14
-1 13 -1 31.81 3.36
1 13 1 29.55 10.68
-1 13 -1 26.94 11.57
2 -13 1 530.48 23.01
-2 -13 -1 543.89 22.09
-2 -13 -1 461.22 34.01
2 -13 1 497.16 22.37
-2 13 -1 574 37.21
2 13 1 579.36 23.73
-2 13 -1 560.05 24.02
2 13 1 477.85 36.91
-2 13 -1 543.74 23.75
2 13 1 518.85 24.02
-3 -13 -1 578.63 25.16
3 -13 1 620.89 26.24
3 -13 1 606.63 26.59
-3 -13 -1 576.14 40.43
3 13 1 607.76 25.8
-3 13 -1 611.05 26.02
3 13 1 596.82 26.73
3 13 1 551.78 38.48
-3 13 -1 608.64 43.34
4 -13 1 52.3 5.22
4 -13 1 34.71 4.82
-4 13 -1 35.9 3.7
4 13 1 42 5.42
5 -13 1 33.48 5.22
5 -13 1 33.56 4.84
-5 13 -1 33.47 4.71
5 13 1 30.29 5.04
5 -14 -1 6.58 3.85
5 -14 -1 6.5 3.55
-5 14 1 6.3 2.95
5 14 -1 12.77 4.64
4 -14 -1 144.11 8.54
4 -14 -1 123.76 7.77
-4 -14 1 129.8 6.85
4 14 -1 118.27 8.12
-4 14 1 128.59 24.98
-4 14 1 120.9 6.93
-4 14 1 70.18 28.47
3 -14 -1 13.48 2.06
-3 -14 1 8.72 1.87
-3 -14 1 25.91 23.63
3 -14 -1 7.43 2.29
-3 14 1 7.62 2.07
-3 14 1 44.87 18.5
3 14 -1 12.05 2.36
3 14 -1 9.02 2.58
3 14 -1 39.81 16.53
-3 14 1 8.09 3.18
-3 14 1 -3.96 18.44
2 -14 -1 435.28 20.74
-2 -14 1 471.2 20.5
2 -14 -1 494.19 20.16
-2 -14 1 435.87 36.41
-2 14 1 381.21 37.01
2 14 -1 453.74 19.88
2 14 -1 463.52 20.24
-2 14 1 427.83 19.75
-2 14 1 465.11 20.01
2 14 -1 415.64 36.21
-2 14 1 512.31 37.93
-1 -14 1 231.58 11.94
1 -14 -1 224.56 28.19
1 -14 -1 250.98 12.16
-1 -14 1 234.85 26.82
1 -14 -1 265.31 11.27
1 -14 -1 276.49 12.92
-1 14 1 218.56 11.01
-1 14 1 216.26 27.75
1 14 -1 242.03 11.28
1 14 -1 185.74 26.96
1 14 -1 237.32 10.07
-1 14 1 244.4 10.84
1 14 -1 230.15 11.4
0 -14 1 156.02 22.39
0 -14 -1 195.9 21.98
0 -14 -1 133.87 7.27
0 -14 1 128.17 7.42
0 14 -1 129.93 6.74
0 14 1 112.45 17.13
0 14 1 120.6 6.74
0 14 1 126.96 7.77
0 14 1 113.85 5.47
0 14 -1 123.86 6.33
0 14 -1 156.71 22.63
0 14 -1 118.04 7.36
1 -14 1 100.77 5.54
1 -14 1 101.66 6.23
-1 -14 -1 102.04 18.05
-1 -14 -1 100.97 5.7
1 14 1 92.6 5.77
1 14 1 113.72 20.89
-1 14 -1 98.85 5.84
-1 14 -1 94.91 5.68
1 14 1 102.58 6.54
2 -14 1 37.94 3.7
-2 -14 -1 42.1 3.22
2 -14 1 44.13 3.57
2 14 1 54.27 13.91
2 14 1 38.51 4.25
-2 14 -1 35.31 16.03
-2 14 -1 43.22 3.68
2 14 1 36.54 3.63
-2 14 -1 41.24 4.95
3 -14 1 196.05 11.47
-3 -14 -1 207.49 9.44
3 -14 1 202.32 10.36
-3 14 -1 168.31 25.73
3 14 1 194.6 10.97
3 14 1 224.19 10.29
-3 14 -1 211.09 10.66
-3 14 -1 293.88 37.45
4 -14 1 109.83 7.71
4 -14 1 117.43 8.53
-4 14 -1 82.54 29.15
-4 14 -1 116.57 7.18
4 14 1 118.15 8.62
-4 -15 1 110.59 6.01
4 -15 -1 103.66 9.8
4 -15 -1 109.1 7.69
-4 15 1 105.42 6.55
4 15 -1 101.33 7.63
3 -15 -1 334.59 15.64
-3 -15 1 256.98 36.43
-3 -15 1 327.53 14.65
3 -15 -1 308.13 14.73
-3 15 1 330.27 47.01
3 15 -1 329.37 16.1
3 15 -1 362.11 17.04
-3 15 1 375.45 45.77
3 15 -1 397.22 36.4
-3 15 1 365.81 16.34
-2 -15 1 150.88 8.19
2 -15 -1 153.43 8.56
2 -15 -1 152.74 7.67
-2 -15 1 167.71 25.48
-2 15 1 164.25 8.57
2 15 -1 158.41 8.88
-2 15 1 165.37 25.66
-2 15 1 144.07 28.43
-2 15 1 182.33 9.1
2 15 -1 162.22 9.05
2 15 -1 147.96 27.03
1 -15 -1 30.37 2.56
1 -15 -1 0.44 15.71
-1 -15 1 35.28 15.71
-1 -15 1 32.77 3.31
1 -15 -1 28.31 3.4
1 15 -1 24.98 17.53
1 15 -1 32.41 2.42
-1 15 1 37.08 3.44
-1 15 1 27.81 3.07
1 15 -1 31.12 2.8
1 15 -1 28.64 3.06
-1 15 1 21.27 18.08
1 15 -1 24.34 3.44
0 -15 1 90.79 5.76
0 -15 -1 86.41 5.53
0 -15 1 79.81 19.36
0 -15 -1 78.46 18.72
0 15 1 87.49 4.13
0 15 -1 76.69 19.79
0 15 -1 87.9 5.25
0 15 1 83.13 20.21
0 15 1 84.2 5.55
0 15 -1 97.48 5.57
1 -15 1 482.65 20.8
1 -15 1 445.44 39.56
-1 -15 -1 448.75 20.07
1 -15 1 434.58 19.74
-1 15 -1 394.21 36.07
1 15 1 426.44 18.84
1 15 1 420.54 19.09
-1 15 -1 423.81 18.43
1 15 1 355.98 33.34
-1 15 -1 409.95 18.64
-2 -15 -1 242.7 30.45
2 -15 1 299.11 13.16
-2 -15 -1 259.91 12.65
-2 15 -1 276.26 14.02
2 15 1 273.34 28.94
2 15 1 294.72 13.84
2 15 1 274.84 16.3
-2 15 -1 312.34 35.5
-2 15 -1 295.78 13.76
-3 -15 -1 219.92 10.63
3 -15 1 216.56 11.4
3 -15 1 251.96 12.56
-3 15 -1 229.97 11.98
3 15 1 245.8 11.74
-3 15 -1 278.88 40.75
3 15 1 241.67 12.95
4 -15 1 282.91 14.55
4 15 1 296.53 16.08
-4 15 -1 326.94 15.27
-4 15 -1 267.18 38.63
4 -16 -1 97.74 7.96
4 -16 -1 122.51 7.61
-4 16 1 87.68 6.76
4 16 -1 95.85 7.94
3 -16 -1 380.89 17.11
-3 -16 1 377.29 17.08
3 -16 -1 359.03 18.11
3 16 -1 372.85 17.24
-3 16 1 378.62 44.68
-3 16 1 334.27 17.67
3 16 -1 408.15 18.4
-2 -16 1 422.9 19.87
2 -16 -1 504.41 20.67
2 -16 -1 401.59 19.19
-2 16 1 446.65 43.9
2 16 -1 417.73 19.45
2 16 -1 414.01 19.25
-2 16 1 415.09 19.1
2 16 -1 447.29 39.48
-2 16 1 422.87 48.61
-2 16 1 419.95 19.07
-1 -16 1 85.08 5.75
1 -16 -1 83.95 5.92
-1 -16 1 125.64 23.57
1 -16 -1 88.55 4.7
1 16 -1 85.13 7.98
1 16 -1 84.76 4.23
-1 16 1 79.44 5.4
1 16 -1 87.98 4.15
-1 16 1 73.63 5.19
1 16 -1 59.17 26.13
-1 16 1 75.68 20.65
0 -16 1 20.01 3.13
0 -16 1 31.66 18.31
0 -16 -1 20.61 2.92
0 16 -1 15.62 15.72
0 16 1 11.1 14.39
0 16 1 11.34 2.43
0 16 -1 15.7 2.36
0 16 -1 8.81 2.41
0 16 1 12.25 1.24
1 -16 1 24.14 2.86
1 -16 1 27.67 3.76
1 -16 1 54.67 20.95
-1 -16 -1 30.1 3.42
-1 -16 -1 32.56 17.76
-1 16 -1 -0.02 20.29
1 16 1 12.27 14.25
2 -16 1 43.08 5.17
-2 -16 -1 43.83 3.75
2 -16 1 43.77 4.07
-2 16 -1 40.01 3.9
2 16 1 39 4.67
2 16 1 49.03 5.42
-2 16 -1 56 22.04
-2 16 -1 35.82 4.53
-3 -16 -1 344.51 15.5
3 -16 1 357.66 16.46
3 -16 1 329.8 17.19
3 16 1 346.73 17.98
-3 16 -1 386.53 17.61
4 -16 1 96.22 7.7
4 -16 1 95.66 9.22
-4 16 -1 92.91 7.14
4 16 1 104.39 9.81
3 -17 -1 124.71 8.7
3 -17 -1 115.88 7.08
-3 -17 1 121.67 7.31
3 17 -1 110.29 7.97
-3 17 1 111.49 7.39
-3 17 1 75.42 30.3
-2 -17 1 164.55 29.16
2 -17 -1 136.76 8.79
2 -17 -1 129.66 7.07
-2 -17 1 125.77 7.69
-2 17 1 124.04 7.48
-2 17 1 123.33 7.92
2 17 -1 126.48 8.21
-2 17 1 149.71 25.78
2 17 -1 112.74 22.71
1 -17 -1 38.09 4.18
-1 -17 1 39.71 4.2
1 -17 -1 36.49 2.92
1 17 -1 41.99 2.65
1 17 -1 41.22 2.51
-1 17 1 37.91 4.05
1 17 -1 40.14 4.77
-1 17 1 42.29 4.05
1 17 -1 29.39 18.77
-1 17 1 54.23 18.18
0 -17 -1 27.44 19.61
0 -17 -1 13.81 2.63
0 -17 1 13.96 19.96
0 -17 1 10.9 2.75
0 17 -1 8.55 2.26
0 17 -1 8.42 2.74
0 17 1 27.44 15.69
0 17 -1 17.43 23.35
0 17 1 6.32 1.98
-1 -17 -1 296.37 13.99
1 -17 1 287.57 13.38
1 -17 1 278.38 14.69
1 -17 1 361.8 40.74
1 17 1 289.3 14.4
-1 17 -1 303.53 13.97
-1 17 -1 284.22 14.19
-1 17 -1 277.17 39.17
2 -17 1 182.18 10.97
2 -17 1 196.11 9.73
-2 -17 -1 175.01 9.43
2 17 1 172.75 10.38
-2 17 -1 182.3 10.03
2 17 1 158.75 9.9
-3 -17 -1 65.99 4.85
3 -17 1 49.1 7.59
3 -17 1 67.49 6.68
3 17 1 72.56 6.6
-3 17 -1 67.73 6.38
-3 -18 1 77.45 6.26
3 -18 -1 83.8 8.1
3 -18 -1 91.46 5.97
-3 18 1 83.69 7.01
3 18 -1 84.81 8.52
2 -18 -1 222.28 12.31
2 -18 -1 216.81 10.53
-2 -18 1 206.19 11.26
2 18 -1 202.3 11.56
-2 18 1 218.2 11.51
-2 18 1 181.53 43.46
1 -18 -1 311.84 15.37
1 -18 -1 283.61 13.28
-1 -18 1 295.1 18.21
-1 -18 1 404.36 45.08
1 -18 -1 355.98 56.13
-1 18 1 286.67 14.14
1 18 -1 305.14 14.55
1 18 -1 207.44 29.05
0 -18 1 91.48 7.04
0 -18 -1 101.98 6.75
0 18 -1 95.81 6.82
0 18 1 96.35 6.98
0 18 -1 67.25 22.15
1 -18 1 7.99 27.28
1 -18 1 75.53 7.02
-1 -18 -1 76.85 5.73
-1 18 -1 72.28 5.97
1 18 1 79.75 6.52
-1 18 -1 45.56 30.08
2 -18 1 9.3 2.57
-2 -18 -1 10.4 2.62
2 -18 1 14.97 4.03
2 18 1 15.44 3.92
-2 18 -1 11.82 3.13
2 -19 -1 22.55 5.15
2 -19 -1 11.99 2.37
2 19 -1 14.67 4.54
-2 19 1 19.25 3.89
1 -19 -1 23.6 4.31
-1 -19 1 24.79 4.42
1 19 -1 14 3.28
-1 19 1 24.48 4.15
0 -19 1 98.95 32.09
0 -19 -1 50.41 6.09
0 -19 1 56.77 6.51
0 19 1 55.48 6.22
0 19 -1 58.77 3.99
0 19 -1 45.31 5.76
0 19 -1 35.29 31.92
1 -19 1 38.89 5.68
-1 -19 -1 41.64 4.84
1 19 1 40.38 5.62
-1 19 -1 41.72 5
-7 0 2 4.81 2.34
7 0 -2 5.88 3.35
7 0 -2 1.55 1.45
-6 0 2 33.24 4.33
6 0 -2 21.82 25.61
-6 0 2 30.45 3.44
6 0 -2 26.19 3.44
6 0 -2 32.81 2.5
-6 0 2 9.91 19.83
-5 0 2 223.31 10.89
5 0 -2 236.7 10.47
-5 0 2 217.81 11.68
5 0 -2 239.97 11.51
5 0 -2 270.94 26.64
-5 0 2 204.62 27.86
-5 0 2 244.88 10.99
4 0 -2 130.89 7.09
-4 0 2 142.03 6.67
-4 0 2 125.27 17.62
4 0 -2 138.34 6.52
-4 0 2 137.98 7.31
4 0 -2 145.37 16.76
-3 0 2 229.03 18.11
3 0 -2 215.86 17.02
-3 0 2 236.87 10.45
-3 0 2 236.01 9.78
3 0 -2 209.77 10.26
3 0 -2 220.19 9.95
-2 0 2 300.38 12.6
2 0 -2 295.7 12.64
2 0 -2 299.86 17.76
-2 0 2 290.76 18.14
-2 0 2 286.22 11.99
2 0 -2 272.47 12.45
1 0 -2 791.54 34.04
-1 0 2 870.19 34.06
0 0 2 1538.5 67.13
0 0 -2 1572.87 67.13
0 0 2 1754.09 67.7
0 0 -2 1648.04 67.06
0 0 -2 1761.73 67.81
0 0 -2 1637.64 66.93
1 0 2 330.03 14.66
1 0 2 341.64 14.76
-1 0 -2 334.61 16.2
-1 0 -2 354.29 14.66
-1 0 -2 380.35 14.69
2 0 2 207.38 12.92
-2 0 -2 229.36 9.44
2 0 2 207.16 9.7
2 0 2 223.8 9.59
-2 0 -2 232.86 10.11
-2 0 -2 215.78 13.54
-2 0 -2 215.33 9.75
-3 0 -2 159.27 16.33
-3 0 -2 200.99 9.01
3 0 2 189.36 8.76
-3 0 -2 192.72 8.22
-3 0 -2 185.81 9.14
3 0 2 167.73 16.2
4 0 2 367.34 16.16
-4 0 -2 352.95 25.92
4 0 2 381.84 15.51
-4 0 -2 367.29 15.37
-4 0 -2 351.59 16.58
4 0 2 376.52 25.92
-4 0 -2 342.29 16.49
-4 0 -2 354.12 16.49
-5 0 -2 883.55 38.81
5 0 2 944.21 38.46
-5 0 -2 968.6 67.25
5 0 2 886.57 37.27
-5 0 -2 914.92 37.25
5 0 2 838.67 49.06
-6 0 -2 71.67 6.62
6 0 2 63.29 4.37
6 0 2 67.58 5.32
-7 -1 2 85.05 6.09
7 -1 -2 88.22 7.28
7 -1 -2 78.93 4.78
-7 1 2 70.86 5.65
7 1 -2 84.54 7.23
6 -1 -2 171.26 9.22
6 -1 -2 168.97 7.91
-6 -1 2 150.42 8.61
6 -1 -2 172.07 30.76
-6 -1 2 202.82 28.38
-6 -1 2 166.45 8.99
6 1 -2 164.37 7.4
-6 1 2 171.12 8.87
6 1 -2 166.51 8.01
-6 1 2 144.86 8.28
6 1 -2 145.62 29.74
6 1 -2 156.5 8.95
-6 1 2 169.83 27.19
5 -1 -2 744.58 31.72
5 -1 -2 782.58 32.83
-5 -1 2 739.32 32.8
-5 -1 2 748.2 46.97
-5 -1 2 773.22 32.09
5 -1 -2 778.15 46.79
5 1 -2 733.38 31.21
-5 1 2 722.13 30.57
-5 1 2 707.5 31.43
-5 1 2 731.08 48.04
5 1 -2 754.83 46.77
5 1 -2 733.38 30
-5 1 2 696.31 30.53
4 -1 -2 88.02 5.09
4 -1 -2 112.44 15.58
-4 -1 2 79.37 14.59
-4 -1 2 87.3 4.76
4 -1 -2 84.66 4.64
-4 -1 2 83.65 5.3
4 1 -2 87.28 4.31
4 1 -2 67.15 12.56
4 1 -2 92.78 5.1
-4 1 2 84.63 5.32
-4 1 2 83.61 4.56
-4 1 2 77.56 4.54
-4 1 2 80.66 13.82
3 -1 -2 63.56 9.44
3 -1 -2 57.76 3.31
-3 -1 2 63.24 3.72
-3 -1 2 69.05 10.89
3 -1 -2 61.16 3.69
-3 -1 2 56.01 3.1
-3 1 2 60.19 3.8
-3 1 2 61.18 3.48
-3 1 2 54.91 10.11
-3 1 2 59.69 3.09
3 1 -2 44.46 8.01
-3 1 2 53.3 3.01
3 1 -2 57.67 3.55
-2 -1 2 1246.51 51.87
-2 -1 2 1303.78 57.96
2 -1 -2 1282.56 57.94
2 -1 -2 1258.96 52.49
-2 -1 2 1307.79 52.38
2 1 -2 1266.09 51.95
2 1 -2 1219.97 51.62
-2 1 2 1275.32 57.85
-2 1 2 1337.4 52.14
-2 1 2 1203.18 51.51
-2 1 2 1294.29 52.15
2 1 -2 1272.4 51.98
2 1 -2 1266.65 52.14
-2 1 2 1239.2 51.52
2 1 -2 1354.24 58.03
-1 -1 2 668.63 28.07
-1 -1 2 698.19 28.45
-1 -1 2 707.6 28.57
1 -1 -2 723.18 28.67
1 -1 -2 665.28 28.49
1 1 -2 628.92 27.75
1 1 -2 688.62 31.31
1 1 -2 685.35 28.16
-1 1 2 746.39 28.19
1 1 -2 674.93 28.24
0 -1 2 2687.04 104.24
0 -1 2 2427.66 102.85
0 -1 -2 2554.94 102.99
0 -1 2 2561.13 102.64
0 -1 -2 2457.56 102.8
0 1 2 2790.79 104.51
0 1 -2 2416.08 104.18
0 1 -2 2638.74 105.65
0 1 -2 2449.19 104.27
-1 -1 -2 1413.63 53.99
-1 -1 -2 1258.1 52.65
1 -1 2 1275.44 52.81
-1 -1 -2 1306.27 52.66
1 -1 2 1223.2 52.85
-1 -1 -2 1286.63 52.85
-1 1 -2 1281.33 53.07
1 1 2 1373.23 54.19
-1 1 -2 1336.29 55.3
-1 1 -2 1344.76 55.19
1 1 2 1312.42 53.03
1 1 2 1116.57 52.93
-1 1 -2 1276.94 53.05
-1 1 -2 1375.25 53.24
2 -1 2 7.31 3.32
-2 -1 -2 14.49 1.95
2 -1 2 11.9 1.57
-2 -1 -2 16.72 4.14
-2 -1 -2 11.52 1.1
-2 -1 -2 15.83 1.56
2 1 2 11.57 1.21
-2 1 -2 10.79 4.06
-2 1 -2 13.92 1.57
2 1 2 11.58 1.24
-2 1 -2 10.6 1.5
2 1 2 8.4 3.23
-3 -1 -2 24.78 2.59
3 -1 2 11.1 6.62
3 -1 2 20.21 1.77
3 -1 2 24.35 2.07
-3 -1 -2 24.15 1.54
-3 -1 -2 21.72 6.28
-3 -1 -2 23.97 2.44
-3 1 -2 8 6.61
-3 1 -2 23.19 2.61
3 1 2 24.64 1.79
-3 1 -2 19.05 2.16
3 1 2 23.28 2.01
3 1 2 11.88 5.29
-3 1 -2 22.64 1.85
-3 1 -2 23.6 2.48
4 -1 2 8.14 1.76
-4 -1 -2 18.19 9.11
-4 -1 -2 11.36 2.56
-4 -1 -2 12.85 1.39
4 -1 2 -2.42 8.57
4 -1 2 10.29 1.48
-4 -1 -2 11.77 2.4
-4 1 -2 9.43 2.55
-4 1 -2 4.63 1.66
-4 1 -2 8.34 8.78
4 1 2 10.37 1.41
-4 1 -2 12.71 2.4
4 1 2 16.29 7.57
-4 1 -2 9.03 1.44
4 1 2 13.99 1.89
-5 -1 -2 280.01 12.03
5 -1 2 297.83 13.63
5 -1 2 274.46 25.95
-5 -1 -2 296.18 14.01
5 -1 2 285.35 12.71
-5 -1 -2 224.84 29.22
-5 1 -2 275.72 13.72
5 1 2 268.8 25.62
5 1 2 285.91 12.01
5 1 2 287.98 13.32
6 -1 2 47.03 5.11
6 -1 2 50.26 3.92
-6 -1 -2 40.29 5.19
-6 1 -2 43.17 5.41
7 -2 -2 53.48 6.58
-7 -2 2 46.31 5.28
7 -2 -2 48.71 3.76
7 2 -2 40.6 5.87
-7 2 2 46.38 4.42
-6 -2 2 85.92 21.19
6 -2 -2 69.68 5.65
-6 -2 2 69.22 5.64
6 -2 -2 75.29 4.37
6 -2 -2 95.97 26.56
6 2 -2 82.84 4.44
6 2 -2 72.02 5.44
-6 2 2 97.85 23.22
6 2 -2 102.72 25.18
-6 2 2 75.88 5.92
-6 2 2 72.48 4.92
5 -2 -2 374.23 30.45
-5 -2 2 396.68 16.08
5 -2 -2 339.19 15.61
5 -2 -2 354.43 16.6
-5 -2 2 343.32 16.65
-5 -2 2 342.6 31.45
-5 2 2 367.61 35
-5 2 2 363.59 15.59
5 2 -2 351.22 31.85
5 2 -2 342.88 14.96
-5 2 2 341.97 15.65
-5 2 2 340.41 15.36
5 2 -2 352.38 14.72
5 2 -2 339.62 15.95
-5 2 2 339.13 16.52
-4 -2 2 666.84 27.67
-4 -2 2 643.57 38.34
4 -2 -2 649.56 27.74
4 -2 -2 632.58 38.02
4 -2 -2 671.51 28.4
-4 -2 2 682.78 28.27
-4 2 2 684.39 28.71
4 2 -2 650.07 27.92
-4 2 2 669.77 27.84
-4 2 2 691.3 39.95
4 2 -2 649.79 28.39
4 2 -2 609.39 37.9
-4 2 2 690.67 28.26
4 2 -2 680.33 27.71
-4 2 2 654.49 27.94
3 -2 -2 504.33 22.01
-3 -2 2 519.27 22.16
-3 -2 2 548.38 30.06
-3 -2 2 531.11 21.71
3 -2 -2 510.79 22.34
3 2 -2 521.12 30.01
3 2 -2 520.1 22.16
3 2 -2 541.73 22.23
-3 2 2 518.02 22.06
3 2 -2 537.46 22.19
3 2 -2 520.95 22.61
-3 2 2 552.55 22.81
-3 2 2 566.48 22.61
-3 2 2 504.18 30.67
-3 2 2 510.42 22.04
2 -2 -2 566.27 23.64
-2 -2 2 572.73 23.43
2 -2 -2 572.97 23.59
-2 -2 2 556.17 28.84
-2 -2 2 554.58 23.05
2 -2 -2 539.79 28.81
2 2 -2 538.66 28.57
-2 2 2 549.02 22.71
-2 2 2 539.27 23.36
-2 2 2 550.69 29.37
2 2 -2 572.19 22.94
-2 2 2 587.81 23.45
2 2 -2 550.36 23.3
2 2 -2 559.18 23.16
1 -2 -2 620.36 25.59
1 -2 -2 648.83 26.29
-1 -2 2 641.07 26.19
-1 -2 2 605.77 25.74
1 -2 -2 643.49 29.26
-1 -2 2 639.1 26.02
1 -2 -2 628.62 26.12
-1 2 2 611.98 25.95
1 2 -2 624.72 26.06
-1 2 2 666.18 26.23
1 2 -2 601.11 25.67
1 2 -2 622.69 25.95
1 2 -2 658.32 29.57
0 -2 -2 942.37 37.92
0 -2 2 926.35 37.98
0 -2 -2 935.94 38.18
0 -2 2 936.82 38.24
0 -2 -2 913.59 37.9
0 2 -2 903.88 38.23
0 2 2 978.63 39.11
0 2 -2 925.25 38.49
0 2 2 927.01 38.27
0 2 -2 937.13 38.42
0 2 2 939.43 39.14
0 2 -2 963.01 40.64
1 -2 2 525.53 22.65
1 -2 2 573.07 22.78
-1 -2 -2 551.61 22.69
-1 -2 -2 542.18 23.58
-1 -2 -2 535.22 22.46
-1 -2 -2 535.85 22.4
-1 2 -2 531.37 22.06
1 2 2 519.84 21.84
-1 2 -2 528.08 24.78
-1 2 -2 558.02 25.03
1 2 2 543.73 23.24
-1 2 -2 528.81 22.02
-1 2 -2 529.73 22
1 2 2 495.15 22.06
-2 -2 -2 421.49 17.89
-2 -2 -2 445 21.65
-2 -2 -2 437.63 17.59
2 -2 2 432.64 18.16
-2 -2 -2 440.2 18.29
2 -2 2 375.84 17.9
-2 2 -2 449.85 23.66
-2 2 -2 424.19 18.56
-2 2 -2 448.2 18.22
2 2 2 439.24 21.95
-2 2 -2 445.36 18.5
-2 2 -2 410.72 22.62
2 2 2 414.13 18.19
-3 -2 -2 205.36 8.33
3 -2 2 193.14 8.97
3 -2 2 196.41 9.24
-3 -2 -2 210.32 9.3
-3 -2 -2 193.76 9.43
3 -2 2 158.6 14.35
-3 -2 -2 204.85 16.06
-3 2 -2 211.91 17.21
-3 2 -2 214.99 9.91
-3 2 -2 194.56 9.79
3 2 2 202.82 9.45
3 2 2 213.79 15.57
-3 2 -2 217.36 9.32
4 -2 2 670.81 28.81
-4 -2 -2 673.93 37.66
-4 -2 -2 725.7 29.49
-4 -2 -2 677.46 29.62
-4 -2 -2 685.27 27.99
4 -2 2 682.33 29.34
4 -2 2 683.32 38.77
4 2 2 684.84 29.19
4 2 2 695.03 38.77
-4 2 -2 752.53 30.02
-4 2 -2 664.63 39.56
-4 2 -2 672.32 29.66
-4 2 -2 680.1 29.78
-4 2 -2 670.67 28.83
5 -2 2 476.02 19.83
-5 -2 -2 426.16 20.86
5 -2 2 433.76 32.08
5 -2 2 478.6 20.71
-5 -2 -2 468.51 34.07
5 2 2 467.17 20.87
5 2 2 469.18 33.29
-5 2 -2 487.49 21.47
-5 2 -2 465.61 20.37
-6 -2 -2 37.82 5.25
6 -2 2 59.73 5.6
6 -2 2 49.45 3.97
-6 2 -2 52.89 5.83
6 2 2 46.33 4.72
7 -3 -2 3.18 3.26
-7 -3 2 3.94 3.08
7 -3 -2 7.3 1.95
7 3 -2 5.9 2.94
-7 3 2 7.25 2.26
-6 -3 2 -29.14 18.15
-6 -3 2 9.3 2.83
6 -3 -2 -1.73 24.55
-6 3 2 12.7 3.03
-6 3 2 13.78 2.23
-6 3 2 19.83 3.13
6 3 -2 11.77 1.34
6 3 -2 15.63 2.9
6 3 -2 17.1 1.74
-6 3 2 -23.56 19.09
6 3 -2 24.02 21.65
-5 -3 2 349.4 15.88
-5 -3 2 348.93 15.22
5 -3 -2 328.77 14.97
-5 -3 2 355.69 30.48
5 -3 -2 316.79 15.71
5 -3 -2 352.57 28.2
-5 3 2 311.42 14.37
5 3 -2 311.02 13.52
5 3 -2 371.87 33.91
5 3 -2 311.32 14.76
5 3 -2 324.23 13.61
-5 3 2 316.82 14.66
-5 3 2 307.76 14.1
-5 3 2 352.7 33.41
4 -3 -2 475.04 31.44
4 -3 -2 468.45 21.69
-4 -3 2 485.45 32.24
4 -3 -2 516.37 22.37
-4 -3 2 515.27 22.11
-4 -3 2 574.92 21.77
4 3 -2 489.97 31.66
-4 3 2 521.1 22.04
4 3 -2 509.17 20.83
-4 3 2 474.54 21.08
-4 3 2 503.55 33.08
4 3 -2 459.69 21.21
-4 3 2 497.09 20.99
4 3 -2 475.31 21.53
-4 3 2 519.58 21.6
4 3 -2 515.96 20.83
3 -3 -2 74.28 4.24
-3 -3 2 81.85 4.44
-3 -3 2 78.77 3.92
-3 -3 2 76.56 11.8
3 -3 -2 79.27 10.81
3 -3 -2 70.4 4.3
-3 3 2 75.4 4.46
-3 3 2 77.83 12.44
3 3 -2 72.72 11.2
3 3 -2 74.78 3.75
3 3 -2 76.83 4.22
3 3 -2 68.64 3.77
3 3 -2 70.81 3.74
-3 3 2 66.26 4.19
-2 -3 2 147.71 6.28
-2 -3 2 141 6.48
2 -3 -2 143.7 6.16
-2 -3 2 132.17 11.95
2 -3 -2 126.96 6.65
-2 -3 2 146.68 6.53
2 -3 -2 143.67 11.58
2 -3 -2 149.31 6.76
-2 3 2 144.1 6.81
2 3 -2 145.71 6.34
-2 3 2 144.62 6.75
2 3 -2 144.47 6.47
-2 3 2 135.53 6.04
2 3 -2 134.55 12.09
2 3 -2 142.37 6.59
-1 -3 2 1486.35 60.4
-1 -3 2 1370.68 55.98
1 -3 -2 1361.18 56.26
1 -3 -2 1463.86 59.91
-1 -3 2 1291.52 56.3
1 -3 -2 1320.78 56.51
-1 3 2 1527.11 59.03
1 3 -2 1375.18 58.78
-1 3 2 1486.7 59.29
1 3 -2 1428.82 59.07
1 3 -2 1515.44 63.22
1 3 -2 1367.72 58.93
0 -3 -2 1078.73 45.75
0 -3 -2 1233.66 45.53
0 -3 2 1085.9 45.72
0 -3 -2 1064.66 45.42
0 -3 2 1127.63 45.57
0 3 -2 1123 46.57
0 3 -2 1131.2 46.83
0 3 2 1148.94 46.83
0 3 2 1158.65 48.18
0 3 2 1140.77 46.6
0 3 -2 1127.35 50.12
0 3 -2 1178.84 46.75
-1 -3 -2 715.39 31.15
-1 -3 -2 739.8 29.81
-1 -3 -2 675.22 29.56
-1 -3 -2 691.54 29.43
1 -3 2 731.8 29.89
1 -3 2 691.21 29.81
-1 -3 -2 765.57 29.61
1 -3 2 749.24 29.91
1 3 2 690.08 28.26
-1 3 -2 638.41 28.47
1 3 2 699.67 28.65
1 3 2 705.56 30.16
-1 3 -2 689.8 28.52
-1 3 -2 698.55 28.55
-1 3 -2 705.87 32.26
-2 -3 -2 90.6 4.91
2 -3 2 93.48 4.73
-2 -3 -2 96.39 4.54
2 -3 2 89.67 4.73
-2 -3 -2 91.26 4.25
-2 -3 -2 90.45 4.2
-2 -3 -2 103.63 8.36
-2 3 -2 80.59 9.52
2 3 2 92.07 4.32
-2 3 -2 94.44 4.78
-2 3 -2 82.61 4.58
2 3 2 88.23 4.79
2 3 2 91 8.19
-2 3 -2 91.91 4.48
-2 3 -2 84.98 9.36
-3 -3 -2 177.53 8.29
-3 -3 -2 194.82 8.77
-3 -3 -2 153.08 14.8
-3 -3 -2 163.79 7.34
-3 -3 -2 179.02 7.28
3 -3 2 167.96 8.38
3 -3 2 173.11 8.2
-3 3 -2 205.68 17.96
-3 3 -2 181.61 8.73
-3 3 -2 176.49 8.22
3 3 2 170.27 14.65
-3 3 -2 163.83 8.51
3 3 2 182.27 8.21
4 -3 2 84.95 4.64
-4 -3 -2 71.49 5.47
4 -3 2 91.02 5.19
-4 -3 -2 75.47 5.2
-4 -3 -2 88.32 13.45
-4 3 -2 83.89 4.73
-4 3 -2 79.64 5.93
-4 3 -2 81.96 5.24
-4 3 -2 68.73 13.12
4 3 2 80.51 16.19
4 3 2 84.23 4.71
5 -3 2 71.83 4.98
-5 -3 -2 50.28 14.29
5 -3 2 73.34 4.56
5 -3 2 78.56 14.47
-5 -3 -2 75.34 6.22
5 3 2 71.85 4.61
-5 3 -2 61.91 4.87
-5 3 -2 75.39 4.89
-5 3 -2 70.01 19.97
5 3 2 50.27 13.77
6 -3 2 290.42 13.44
6 -3 2 291.62 14.86
6 3 2 296.32 14.53
-6 3 -2 314.33 15.47
7 -4 -2 39.32 3.95
7 -4 -2 34.91 4.74
-7 4 2 38.11 4.09
7 4 -2 49 5.71
6 -4 -2 130.31 10.45
6 -4 -2 138.97 7.2
6 -4 -2 118.95 29.54
-6 4 2 135.49 8.43
-6 4 2 208.37 30.19
-6 4 2 138.93 7.23
-6 4 2 128.55 8.24
6 4 -2 133.32 7.88
6 4 -2 155.23 25.9
5 -4 -2 95.44 6.17
-5 -4 2 86.39 17.6
5 -4 -2 98.75 16.51
-5 -4 2 100.74 5.82
-5 -4 2 101.55 6.39
5 -4 -2 98.35 5.41
-5 4 2 98.75 6.18
-5 4 2 87.56 5.68
-5 4 2 89.54 5.06
5 4 -2 97.12 4.5
5 4 -2 99.31 4.41
5 4 -2 91.54 5.83
5 4 -2 97.68 19.71
-5 4 2 105.16 20.7
-4 -4 2 398.62 28.35
4 -4 -2 395.93 27.55
4 -4 -2 377.8 17.73
4 -4 -2 390.55 17.32
-4 -4 2 408.74 17.19
-4 -4 2 409.64 17.55
4 4 -2 405.06 17.04
-4 4 2 409.84 17.39
-4 4 2 374.2 16.51
4 4 -2 377.48 16.27
-4 4 2 372.79 17.54
4 4 -2 369.9 26.97
-4 4 2 369.96 28.88
4 4 -2 402.54 16.38
4 4 -2 382.46 17.13
3 -4 -2 864.08 37.59
3 -4 -2 871.01 37.81
-3 -4 2 991.78 37.57
-3 -4 2 881.77 45.51
3 -4 -2 905.1 45.48
-3 4 2 901.73 37.21
3 4 -2 871.54 37.76
3 4 -2 907.13 46.18
-3 4 2 939.91 38.15
3 4 -2 899.01 37.6
3 4 -2 918.14 37.31
-3 4 2 935.86 38.07
-3 4 2 888.29 47.01
-2 -4 2 464.56 18.67
-2 -4 2 448.48 24.63
2 -4 -2 432.21 18.96
-2 -4 2 420.81 18.66
2 -4 -2 449.14 24.57
-2 -4 2 441 18.53
2 -4 -2 456.19 19.03
2 -4 -2 445.31 18.39
-2 4 2 411.19 19.92
2 4 -2 448.04 19.06
-2 4 2 467.52 26.44
2 4 -2 460.49 19.25
-2 4 2 468.43 19.49
2 4 -2 478.42 19.16
-2 4 2 453.84 18.79
2 4 -2 472.52 25.5
1 -4 -2 54.59 2.98
1 -4 -2 49.56 2.43
-1 -4 2 52.08 2.63
-1 -4 2 38.14 6.5
1 -4 -2 53.45 2.84
1 4 -2 47.57 2.6
-1 4 2 49.36 3.04
-1 4 2 55.08 2.73
1 4 -2 50.17 7.16
1 4 -2 50.39 2.77
-1 4 2 49.07 2.37
-1 4 2 41.4 5.48
1 4 -2 47.31 2.57
0 -4 2 778.95 35.73
0 -4 -2 781.39 34.12
0 -4 -2 740.67 31.84
0 -4 -2 725.51 31.36
0 -4 2 812.17 31.62
0 -4 -2 777.79 31.51
0 -4 2 771.27 31.88
0 4 -2 758.85 32.63
0 4 -2 799.31 32.72
0 4 2 781.62 34.92
0 4 -2 860.85 32.87
0 4 2 763.21 32.59
0 4 2 804.53 32.87
0 4 -2 796.07 36.53
-1 -4 -2 168.9 9.7
1 -4 2 169.27 7.57
-1 -4 -2 189.12 7.56
1 -4 2 156.99 7.5
1 -4 2 152.71 7.53
-1 -4 -2 159.88 7.01
-1 -4 -2 158.13 7.27
-1 4 -2 166.96 7.33
-1 4 -2 160.74 7.24
1 4 2 149.58 7.31
-1 4 -2 159.3 11.77
-1 4 -2 168.74 7.34
1 4 2 151.77 9.21
-2 -4 -2 618.4 26.03
-2 -4 -2 630.11 26.73
2 -4 2 639.56 26.75
-2 -4 -2 668.11 26.28
2 -4 2 634.42 26.69
-2 -4 -2 599.68 26.02
2 -4 2 655.05 26.92
-2 4 -2 744.52 34.38
-2 4 -2 678.84 27.83
2 4 2 641.89 27.95
-2 4 -2 642.76 33.28
2 4 2 652.14 31.7
-2 4 -2 628.27 27.57
-2 4 -2 660.25 27.77
-3 -4 -2 320.03 13.3
-3 -4 -2 285.74 19.22
3 -4 2 297.71 13.33
-3 -4 -2 300.13 13.64
3 -4 2 289.78 13.5
-3 4 -2 307.7 13.4
-3 4 -2 305.88 13.87
-3 4 -2 293.86 21.33
3 4 2 301.03 13.94
3 4 2 305.29 13.23
-3 4 -2 303.68 13.7
-3 4 -2 294.86 23.64
3 4 2 312.44 20.59
-4 -4 -2 492.22 20.97
-4 -4 -2 484.75 21.36
4 -4 2 484.93 21.14
4 -4 2 488.12 20.78
-4 -4 -2 421.17 28.73
4 4 2 522.09 34.23
-4 4 -2 512.91 21.53
-4 4 -2 493.32 21.96
-4 4 -2 502.23 33.35
4 4 2 496.61 21.41
-4 4 -2 511.16 34.34
-4 4 -2 472.65 22.24
5 -4 2 47.06 3.68
5 -4 2 49.93 4.25
-5 -4 -2 41.13 5.36
-5 -4 -2 61.76 14.75
5 4 2 35.63 13.04
-5 4 -2 50.27 4.42
-5 4 -2 58.77 18.98
-5 4 -2 42.64 3.98
5 4 2 45.97 3.72
-5 4 -2 64.22 19.13
6 -4 2 79.92 5.6
6 -4 2 83.48 6.76
-6 4 -2 73.89 6.72
6 4 2 90.81 5.71
7 -5 -2 63.68 5
7 -5 -2 53.16 7.01
7 5 -2 56.39 6.01
-7 5 2 52.88 4.62
6 -5 -2 163.31 8.37
6 -5 -2 177.02 32.72
6 -5 -2 162.1 9.31
-6 5 2 174.86 29.07
6 5 -2 168.55 8.91
6 5 -2 169.96 27.02
-6 5 2 164.11 8.25
-6 5 2 157.14 9.88
-6 5 2 155.46 9.34
5 -5 -2 311.07 14.52
5 -5 -2 279.63 27.04
-5 -5 2 296.79 14.2
5 -5 -2 297.64 13.76
-5 -5 2 304.56 13.87
-5 -5 2 336.78 30.65
-5 5 2 298.85 13.96
-5 5 2 280.9 14.39
-5 5 2 297.44 13.44
5 5 -2 303.63 14.12
5 5 -2 281.13 33.64
-5 5 2 308.44 35.76
5 5 -2 308.32 12.57
5 5 -2 306.58 12.56
5 5 -2 327.6 14.27
4 -5 -2 717.09 30.95
4 -5 -2 677.84 41.42
4 -5 -2 704.13 31.34
-4 -5 2 755.42 41.85
-4 -5 2 751.9 30.77
-4 -5 2 779.81 31.02
-4 5 2 738.56 31.11
4 5 -2 703.05 30.72
-4 5 2 720.31 31.28
4 5 -2 733.23 30.74
4 5 -2 674.58 41.58
-4 5 2 708.81 43.59
4 5 -2 735.97 29.84
4 5 -2 723.23 29.95
-4 5 2 765.98 30.21
-3 -5 2 279.2 20.12
3 -5 -2 248.7 19.08
-3 -5 2 263.47 11.51
3 -5 -2 262.04 11.32
3 -5 -2 249.17 11.84
-3 -5 2 261.85 11.36
3 -5 -2 248.28 11.65
3 5 -2 238.03 11.34
-3 5 2 252.79 20.97
-3 5 2 262.73 11.85
3 5 -2 243.61 11.25
3 5 -2 250.84 10.9
3 5 -2 285.07 19.97
-3 5 2 245.21 10.82
-3 5 2 265.77 11.88
-2 -5 2 1051.09 42.52
2 -5 -2 997.7 42.33
2 -5 -2 998.48 42.95
2 -5 -2 1045.26 49.14
2 -5 -2 1012.87 42.88
-2 -5 2 1055.37 49.35
-2 -5 2 1105.26 42.57
-2 5 2 1040.29 41.37
2 5 -2 988.09 40.81
2 5 -2 977.63 40.71
2 5 -2 987.89 40.76
-2 5 2 970.59 40.46
2 5 -2 988.94 47.54
-1 -5 2 263.2 11.16
-1 -5 2 262.84 10.89
-1 -5 2 266.63 16.05
1 -5 -2 249.99 11.23
1 -5 -2 233.07 10.92
1 -5 -2 252.95 10.69
1 5 -2 258.72 11.1
-1 5 2 254.11 14.93
1 5 -2 216.32 11.46
1 5 -2 272.15 15.88
-1 5 2 253.79 10.79
1 5 -2 280.42 11.01
-1 5 2 269.49 11.46
-1 5 2 243.67 10.97
0 -5 2 429.36 16.96
0 -5 -2 449.57 16.9
0 -5 -2 408.62 20.26
0 -5 2 391.2 17
0 -5 -2 353.62 16.99
0 -5 2 386.51 17.17
0 -5 -2 391.45 16.63
0 -5 2 417.45 21.85
0 5 2 362.85 15.79
0 5 -2 379.3 15.81
0 5 2 386.01 16.11
0 5 2 370.1 18.75
0 5 -2 378.42 20.58
0 5 2 366.86 15.49
0 5 -2 373.01 15.86
0 5 -2 390.35 16.02
1 -5 2 360.22 20.76
1 -5 2 347.34 15.15
1 -5 2 356.17 15.18
-1 -5 -2 378.46 14.94
-1 -5 -2 363.11 18.02
1 -5 2 325.49 15.19
-1 -5 -2 338.75 14.48
1 5 2 341.99 17.67
1 5 2 346.14 15.02
-1 5 -2 350.91 19.65
-1 5 -2 344.49 15.31
1 5 2 349.16 14.77
-1 5 -2 352.67 14.86
2 -5 2 284.74 12.62
-2 -5 -2 280.28 11.89
-2 -5 -2 287.05 16.59
2 -5 2 284.5 12.81
-2 -5 -2 311.35 12.75
2 -5 2 272.19 12.6
-2 -5 -2 263.42 11.92
-2 -5 -2 287.78 12.06
-2 5 -2 263.79 18.89
2 5 2 286.27 12.31
-2 5 -2 290.4 12.82
-2 5 -2 273.4 18.18
2 5 2 285.11 13.06
-2 5 -2 301.07 12.82
-2 5 -2 304.63 12.98
2 5 2 305.93 17.13
-3 -5 -2 631.47 26.92
-3 -5 -2 680.08 33.02
3 -5 2 632.53 26.74
3 -5 2 592.68 26.8
-3 -5 -2 620.06 26.41
-3 5 -2 626.19 26.25
-3 5 -2 573.03 26.32
3 5 2 626.46 25.88
3 5 2 644.74 34.32
-3 5 -2 642.54 35.05
-3 5 -2 616.71 26.64
3 5 2 643.15 26.86
-3 5 -2 591.48 35.26
-4 -5 -2 583.45 26.23
4 -5 2 582.96 26.17
4 -5 2 593.65 25.85
-4 -5 -2 648.55 25.94
-4 5 -2 625.92 25.85
-4 5 -2 613.99 26.12
4 5 2 597.43 38.75
-4 5 -2 585.95 38.3
-4 5 -2 615.81 39.52
4 5 2 570.64 25.43
-5 -5 -2 53.04 5.68
5 -5 2 64.42 4.97
5 -5 2 65.19 4.62
-5 -5 -2 76.76 17.69
5 5 2 61.09 4.2
-5 5 -2 60.72 5.25
-5 5 -2 63.08 4.58
-5 5 -2 67.19 18.99
5 5 2 39.93 15.73
6 -5 2 49.63 4.7
6 -5 2 44.09 6.08
-6 5 -2 63.29 6.48
6 5 2 50.92 4.68
7 -6 -2 58.42 5.07
7 -6 -2 57.45 7.99
7 6 -2 67.29 5.91
-7 6 2 61.12 5.07
-6 -6 2 166.15 29.48
6 -6 -2 194.59 10.92
6 -6 -2 243.67 37.02
6 -6 -2 203.5 10.04
-6 6 2 187.68 31.88
-6 6 2 196.05 9.28
6 6 -2 189.66 28.09
6 6 -2 181.6 9.8
-6 6 2 187.87 10.47
-5 -6 2 59.01 4.79
-5 -6 2 71.4 5.13
5 -6 -2 65.94 4.88
5 -6 -2 30.91 13.76
5 -6 -2 65.35 4.33
-5 -6 2 72.6 16.36
-5 6 2 61.21 3.73
-5 6 2 44.61 22.2
-5 6 2 56.75 5.53
5 6 -2 61.08 4.4
5 6 -2 64.17 4.48
5 6 -2 38.47 19.54
-4 -6 2 74.92 4.53
4 -6 -2 75.01 13.78
4 -6 -2 67.23 4.44
-4 -6 2 80.04 4.7
4 -6 -2 76.55 4.94
-4 6 2 74.93 3.88
-4 6 2 65.92 5.17
4 6 -2 70.95 4.47
4 6 -2 74.19 3.83
4 6 -2 67.18 4.33
-4 6 2 54.65 14.91
4 6 -2 73.89 3.53
-4 6 2 71.27 5.53
-3 -6 2 447.54 20.21
-3 -6 2 431.84 28.27
3 -6 -2 471.58 19.9
-3 -6 2 480.93 19.97
3 -6 -2 490.31 28.53
3 -6 -2 481.39 20.36
3 -6 -2 475.02 20.45
-3 6 2 477.99 30.34
3 6 -2 448.17 28.98
3 6 -2 464.22 20.16
-3 6 2 508.14 20.75
-3 6 2 433.58 19.66
3 6 -2 494.65 19.72
-3 6 2 493.81 20.78
3 6 -2 446.18 20.12
2 -6 -2 765.47 32.23
-2 -6 2 784.6 39.38
2 -6 -2 776.7 32.12
-2 -6 2 736.91 31.88
-2 -6 2 763.06 31.8
2 -6 -2 788.48 31.63
-2 6 2 792.73 32.16
2 6 -2 736.45 31.83
2 6 -2 788.56 31.75
2 6 -2 790.57 31.82
-2 6 2 787.04 32.43
-2 6 2 755.76 39.45
2 6 -2 749.4 38.74
-2 6 2 767.25 31.55
-2 6 2 729.99 38.21
-1 -6 2 1436.44 60.33
1 -6 -2 1501.17 59.93
1 -6 -2 1404.16 60.4
1 -6 -2 1477.13 60.47
-1 -6 2 1502.71 66.3
-1 -6 2 1519.57 60.11
-1 6 2 1497.21 61.88
-1 6 2 1501.74 61.3
-1 6 2 1537.43 61.19
1 6 -2 1487.61 61.28
1 6 -2 1648.45 61.49
1 6 -2 1389.19 61.29
1 6 -2 1323.93 61.44
-1 6 2 1551.42 66.7
1 6 -2 1611.76 67.83
0 -6 -2 804.81 36.83
0 -6 -2 680.37 32.15
0 -6 2 722.1 32.81
0 -6 -2 850.89 32.81
0 -6 2 851.49 39.14
0 -6 2 784.35 32.64
0 -6 -2 848.65 32.55
0 6 2 797.24 35.94
0 6 2 770.38 32.21
0 6 2 724.66 31.88
0 6 2 782.44 31.51
0 6 -2 780.84 31.95
0 6 -2 771.8 31.92
0 6 -2 794.79 37.75
1 -6 2 282.45 12.62
-1 -6 -2 272.96 11.79
1 -6 2 280.44 18.46
1 -6 2 292.67 12.76
-1 -6 -2 280.8 16.16
-1 -6 -2 289.87 11.81
-1 -6 -2 285.05 12.53
1 -6 2 309.45 12.71
-1 6 -2 285.76 17.93
-1 6 -2 263.04 11.89
1 6 2 262.83 12.05
-1 6 -2 292.1 12.05
-1 6 -2 279.6 12.09
1 6 2 265.04 15.27
1 6 2 267.55 11.87
-2 -6 -2 7.11 0.98
-2 -6 -2 17.15 5.28
2 -6 2 6.89 1.25
-2 -6 -2 5.09 1.3
2 -6 2 3.62 1.41
-2 -6 -2 5.93 0.88
2 6 2 5.93 0.82
-2 6 -2 9.77 7.01
2 6 2 4.12 1.26
-2 6 -2 4.32 1.36
2 6 2 10.43 4.73
-2 6 -2 5.64 1.08
-2 6 -2 5.14 5.38
-2 6 -2 7.58 1.48
-3 -6 -2 321.98 14.29
-3 -6 -2 348.49 21.23
3 -6 2 305.04 14.18
-3 -6 -2 310.81 13.59
3 -6 2 312.79 14.51
3 -6 2 293.95 14.04
3 6 2 315.44 13.53
-3 6 -2 301.92 14.12
-3 6 -2 317.94 14.6
-3 6 -2 335.45 14.23
-3 6 -2 290.39 24.14
-3 6 -2 333.55 22.74
3 6 2 311.68 14.59
3 6 2 313.84 22.36
4 -6 2 504.51 21.44
-4 -6 -2 493.06 20.82
4 -6 2 441.47 20.92
4 6 2 494.36 20.1
-4 6 -2 454.22 30.96
4 6 2 477.05 21.27
4 6 2 459.77 32.15
-4 6 -2 463.11 20.71
-4 6 -2 451.34 20.54
-5 -6 -2 118.07 7.71
5 -6 2 128.25 7.15
-5 6 -2 136.12 7.62
5 6 2 125.05 6.78
-5 6 -2 110.83 24.05
-5 6 -2 126.03 8.52
6 -6 2 117.53 8.63
6 -6 2 121.18 7.41
6 6 2 121.87 7.38
-6 6 -2 130.38 8.27
6 -7 -2 221.77 12.11
6 -7 -2 174.07 35.17
6 -7 -2 223.29 11.09
-6 -7 2 241.93 35.67
6 7 -2 196.47 10.73
-6 7 2 208.71 11.27
-6 7 2 206.9 9.84
6 7 -2 208.17 10.41
-6 7 2 192.54 34.49
6 7 -2 164.19 26.81
-5 -7 2 328.52 15.07
-5 -7 2 330.68 15.15
-5 -7 2 336.57 31
5 -7 -2 336.56 15.09
5 -7 -2 315.47 15.44
5 -7 -2 311.47 32.88
5 7 -2 324.74 14.82
-5 7 2 311.63 14.24
5 7 -2 338.15 15.25
-5 7 2 318.46 37.94
5 7 -2 312.43 37.24
-5 7 2 323.77 15.81
-4 -7 2 414.46 18.13
4 -7 -2 424.57 18.55
4 -7 -2 366.15 28.59
-4 -7 2 434.56 32.84
4 -7 -2 422.5 18.78
-4 -7 2 427.48 18.28
-4 7 2 398.54 18.06
4 7 -2 393.95 16.29
-4 7 2 356.38 32.68
-4 7 2 384.98 17.97
4 7 -2 425.82 30.46
-4 7 2 397.47 16.76
4 7 -2 358.51 17.08
4 7 -2 408.23 17.46
-3 -7 2 488.66 21.62
3 -7 -2 484.97 21.96
-3 -7 2 505.18 21.44
3 -7 -2 501.88 21.6
-3 -7 2 513.07 31.17
3 -7 -2 565.4 22.22
-3 7 2 523.49 22.57
3 7 -2 533.65 21.61
-3 7 2 529.25 21.71
3 7 -2 482.74 31.01
3 7 -2 495.74 22.12
-3 7 2 508.74 31.23
-3 7 2 545.56 34.26
3 7 -2 512.16 22.02
-3 7 2 525.82 22.79
2 -7 -2 359.12 15.71
-2 -7 2 359.85 23.25
-2 -7 2 342.15 15.52
2 -7 -2 366.46 15.3
2 -7 -2 354.83 15.87
-2 -7 2 380.79 15.55
-2 7 2 326.14 22.72
2 7 -2 335.3 14.82
2 7 -2 369.74 14.89
2 7 -2 358.63 15.06
-2 7 2 328.51 15.23
-2 7 2 347.2 15.61
-2 7 2 356.08 14.75
2 7 -2 341.16 22.63
-2 7 2 356.29 22.24
1 -7 -2 135.12 6.54
1 -7 -2 143.62 6.17
-1 -7 2 115.12 12.29
-1 -7 2 135.66 6.32
1 -7 -2 137.57 6.62
-1 -7 2 126.1 6.52
-1 7 2 135.64 6.16
1 7 -2 130.34 6.03
1 7 -2 141.86 12.29
-1 7 2 117.56 11.08
1 7 -2 129.32 6.11
-1 7 2 128 6.05
-1 7 2 141.33 13
1 7 -2 133.76 6.27
-1 7 2 139.38 6.81
0 -7 -2 23.75 1.53
0 -7 2 26.97 1.93
0 -7 -2 22.08 5.46
0 -7 2 27.67 7.49
0 -7 2 24.71 2.04
0 -7 2 24.7 1.99
0 -7 -2 26.14 2.11
0 7 2 23.61 1.86
0 7 -2 26.88 6.19
0 7 -2 22.7 1.75
0 7 2 22.22 1.31
0 7 2 15.71 2.31
0 7 -2 21.44 1.99
0 7 2 20.32 4.45
0 7 -2 23.53 1.84
-1 -7 -2 425.25 22.46
1 -7 2 407.94 17.54
-1 -7 -2 408.27 17.23
-1 -7 -2 384.17 17.37
1 -7 2 384.3 17.66
1 -7 2 413.36 25.46
1 -7 2 435.96 17.62
-1 7 -2 407.54 17.31
-1 7 -2 419.54 17.51
1 7 2 415.24 17.35
1 7 2 356.2 17.36
-1 7 -2 418.93 17.38
1 7 2 421.58 21.88
-1 7 -2 397.83 24.18
-2 -7 -2 338.59 20.59
2 -7 2 309.55 14.63
2 -7 2 345.46 14.71
-2 -7 -2 316.99 14.54
-2 -7 -2 337.21 13.87
2 -7 2 330.4 14.78
2 7 2 338.74 14.89
-2 7 -2 359.51 14.75
-2 7 -2 350.26 23.15
2 7 2 307.2 19.59
-2 7 -2 330.49 23.21
-2 7 -2 303.15 14.42
-2 7 -2 327.36 14.69
-3 -7 -2 552.38 22.32
-3 -7 -2 472.81 21.35
3 -7 2 501.57 22.24
3 -7 2 498.34 22.51
-3 -7 -2 484.34 28.58
3 -7 2 544.11 22.31
3 7 2 465.8 30.08
3 7 2 503.08 20.79
-3 7 -2 495.85 21.63
3 7 2 470.23 21.93
-3 7 -2 496.09 21.93
-3 7 -2 514.79 32.39
-3 7 -2 538.53 21.67
-3 7 -2 486.45 32.11
-4 -7 -2 185.09 8.75
4 -7 2 166.26 8.92
4 -7 2 180.39 9.29
4 7 2 155.75 8.88
4 7 2 179.14 20.56
4 7 2 165.54 7.71
-4 7 -2 166.47 22.54
-4 7 -2 159.46 8.73
-4 7 -2 196.06 23.94
-4 7 -2 165.79 8.43
5 -7 2 54.97 4.67
5 -7 2 49.31 4.73
-5 -7 -2 54.51 5.21
-5 7 -2 58.07 7.89
5 7 2 52.09 3.84
-5 7 -2 60.11 4.68
-5 7 -2 38.26 20.46
6 -7 2 45.41 5.09
6 -7 2 49.35 5.55
-6 7 -2 54.72 6.36
6 7 2 45.79 4.46
6 -8 -2 161.8 8.7
6 -8 -2 156.03 9.73
6 8 -2 151.22 9.05
6 8 -2 154.02 8.36
-6 8 2 154.58 7.82
-6 8 2 112.29 31.04
-5 -8 2 144.16 7.64
5 -8 -2 134.16 7.79
5 -8 -2 139 7.6
-5 -8 2 128.63 21.34
5 8 -2 126.71 6.95
5 8 -2 150.2 29.62
-5 8 2 163.57 27.95
5 8 -2 122.17 7.41
-5 8 2 142.01 24.98
-5 8 2 133.63 6.64
4 -8 -2 305.18 13.9
4 -8 -2 286.08 13.96
-4 -8 2 296.6 13.67
4 -8 -2 310.94 13.7
-4 -8 2 306.46 26.71
-4 -8 2 293.34 13.28
4 8 -2 286.08 12.98
-4 8 2 285.01 30.64
4 8 -2 304.81 13.51
-4 8 2 301.75 26.47
-4 8 2 285.57 13.99
-4 8 2 273.83 14
4 8 -2 269.23 12.14
-4 8 2 298.35 12.68
4 8 -2 291.2 28.8
3 -8 -2 488.01 21.64
3 -8 -2 544.88 21.34
-3 -8 2 524.27 21.43
-3 -8 2 482.28 31.63
3 -8 -2 460.28 21.6
-3 -8 2 484.58 21.09
-3 8 2 476.09 20.14
3 8 -2 504.41 20.74
-3 8 2 477.2 21
-3 8 2 472.05 30.47
-3 8 2 466.04 32.48
-3 8 2 473.69 21.24
3 8 -2 481.01 20.38
3 8 -2 465.64 19.99
3 8 -2 467.16 30.57
2 -8 -2 460.74 18.93
-2 -8 2 405.7 18.8
-2 -8 2 448.05 18.83
2 -8 -2 448.52 18.6
-2 -8 2 468.86 27.39
2 -8 -2 417.25 19.09
-2 8 2 398.74 18.18
-2 8 2 440.13 26.63
-2 8 2 433.19 19.15
2 8 -2 433.48 18.23
2 8 -2 398.25 26.02
2 8 -2 441.62 18.56
-2 8 2 443.28 18.72
-2 8 2 473.8 28
-1 -8 2 760.86 40.5
1 -8 -2 831.86 33.08
-1 -8 2 816.52 33.23
-1 -8 2 761.16 33.43
1 -8 -2 842.75 33.05
1 -8 -2 776.45 33.5
1 8 -2 772.28 31.6
1 8 -2 781.8 31.88
-1 8 2 717.95 31.62
-1 8 2 768.3 38.53
1 8 -2 721.17 38.62
-1 8 2 798.47 32.38
1 8 -2 705.22 31.75
-1 8 2 838.58 31.71
1 8 -2 770.32 31.55
0 -8 2 458.28 20.52
0 -8 2 488.4 27.98
0 -8 2 479.89 20.9
0 -8 -2 490.43 19.96
0 -8 -2 459.17 20.64
0 -8 2 515.82 20.65
0 -8 -2 505.86 26.71
0 -8 -2 497.47 20.54
0 8 -2 482.12 20.24
0 8 -2 498.6 20.02
0 8 2 470.17 25.38
0 8 2 477.17 19.45
0 8 2 453.37 20.05
0 8 -2 456.22 20.09
0 8 2 477.77 20.47
0 8 -2 477.68 27
1 -8 2 298.74 13.19
-1 -8 -2 287.13 18.48
-1 -8 -2 286.07 12.81
1 -8 2 293.27 21.33
1 -8 2 263.07 13.01
1 -8 2 299.01 13.39
-1 -8 -2 342.52 13.22
1 8 2 265.21 12.35
-1 8 -2 293.37 12.61
-1 8 -2 277 19.31
-1 8 -2 275.84 12.35
1 8 2 279.74 17.7
-1 8 -2 290.91 12.38
1 8 2 271.81 12.48
2 -8 2 36.95 2.93
-2 -8 -2 41.13 1.86
2 -8 2 33.86 2.81
-2 -8 -2 48.05 8.39
2 -8 2 38.12 3.32
-2 -8 -2 43.44 3.22
-2 8 -2 42.27 3.35
-2 8 -2 41.38 3.44
2 8 2 40.03 3.19
-2 8 -2 45.64 9.88
-2 8 -2 36.89 2.7
2 8 2 51.97 9.52
-2 8 -2 34.5 7.88
-3 -8 -2 401.34 25.17
3 -8 2 394.37 17.64
3 -8 2 381.83 17.91
-3 -8 -2 407.92 16.56
3 -8 2 390.09 17.61
-3 -8 -2 385.51 16.12
-3 -8 -2 386.15 16.04
-3 8 -2 387.85 27.42
3 8 2 413.9 16.89
-3 8 -2 404.73 17.94
-3 8 -2 405.97 17.72
-3 8 -2 411.28 30.09
3 8 2 382.78 27.67
-3 8 -2 401.2 18.19
3 8 2 390.74 18.21
4 -8 2 65.69 4.54
4 -8 2 57.93 4.52
-4 -8 -2 64.09 4.38
4 8 2 57.63 3.43
-4 8 -2 50.47 13.74
4 8 2 63.59 12.83
-4 8 -2 59.13 4.22
4 8 2 47.96 4.45
-4 8 -2 50.89 17.82
-4 8 -2 43.97 4.92
5 -8 2 180.91 9.78
-5 -8 -2 180.62 9.47
5 -8 2 182.89 10.16
5 8 2 174.71 8.55
-5 8 -2 181.17 9.55
6 -8 2 153.78 9.6
6 -8 2 154.95 10.46
-6 8 -2 172.64 10.13
6 8 2 168.92 8.93
6 -9 -2 149.18 9.55
6 9 -2 148.71 8.09
6 9 -2 146.19 9.06
-6 9 2 145.57 7.69
5 -9 -2 146.41 8.03
-5 -9 2 133.2 7.29
5 -9 -2 119.37 7.35
5 9 -2 139.27 26.59
-5 9 2 119.48 25.85
-5 9 2 137.7 6.98
5 9 -2 131.46 7.19
5 9 -2 145.67 8.15
-5 9 2 157.01 27.01
4 -9 -2 286.83 13.24
-4 -9 2 286.88 27.4
4 -9 -2 270.51 13.16
-4 -9 2 285.75 12.45
4 -9 -2 278.87 13.02
-4 -9 2 267.61 12.89
4 9 -2 248.94 28.68
-4 9 2 264.1 12.26
4 9 -2 279.65 12.52
-4 9 2 269.56 13.69
-4 9 2 273.31 13.77
-4 9 2 316.77 31.13
4 9 -2 286.34 11.85
4 9 -2 282.07 13.09
3 -9 -2 1134.76 48.35
3 -9 -2 1172.07 48.05
3 -9 -2 1174.24 48.59
-3 -9 2 1150.91 58.73
-3 -9 2 1200.23 48.22
-3 -9 2 1134.38 47.93
3 9 -2 1152.88 47.76
-3 9 2 1205.93 61.64
3 9 -2 1134.96 59.54
-3 9 2 1106.58 47.65
-3 9 2 1190.29 48.9
3 9 -2 1075.91 48.11
3 9 -2 1219.36 47.63
-3 9 2 1208.22 59.52
-3 9 2 1151.04 48.48
-2 -9 2 90.44 13.25
2 -9 -2 84.31 5.11
2 -9 -2 93.1 4.86
-2 -9 2 94.97 5.06
2 -9 -2 94.58 4.8
-2 -9 2 90.72 4.97
-2 9 2 93.65 14.5
2 9 -2 88.74 4.58
2 9 -2 89.58 4.76
-2 9 2 92.45 4.63
2 9 -2 86.94 13.74
-2 9 2 99.26 12.87
2 9 -2 87.53 4.89
2 9 -2 89.51 4.5
-2 9 2 97.48 5.21
-2 9 2 88.6 5.63
1 -9 -2 6.58 1.01
-1 -9 2 7.19 1.39
-1 -9 2 6.5 7.62
-1 -9 2 9.32 1.51
1 -9 -2 7.23 1.28
1 -9 -2 11.82 1.63
1 9 -2 1.46 6.48
-1 9 2 10.22 1.34
1 9 -2 9.32 1.16
1 9 -2 9.38 1.4
-1 9 2 8.52 1.22
-1 9 2 8.37 1.85
1 9 -2 7.23 1.25
1 9 -2 10.49 1.27
-1 9 2 14.93 6.23
0 -9 -2 394.21 15.76
0 -9 2 360.88 24.96
0 -9 2 386.73 16.51
0 -9 -2 389.31 16.49
0 -9 -2 367.34 16.57
0 -9 -2 396.8 23.39
0 -9 2 371.64 16.53
0 -9 2 387.99 16.9
0 9 -2 377.28 17.63
0 9 -2 382.86 17.49
0 9 2 424.27 16.76
0 9 -2 435.23 17.73
0 9 2 376.23 23.26
0 9 2 453.39 17.64
0 9 -2 389.01 24.84
0 9 2 399.41 17.84
1 -9 2 204.69 18.68
-1 -9 -2 210.31 9.09
1 -9 2 188.86 9.27
1 -9 2 173.37 8.91
-1 -9 -2 186.14 8.77
-1 -9 -2 199.41 16.67
1 -9 2 198.78 9.18
1 9 2 183.07 14.34
-1 9 -2 177.37 8.68
1 9 2 183.45 8.6
-1 9 -2 177.38 16.5
-1 9 -2 177.57 8.44
1 9 2 168.26 8.51
-1 9 -2 192.48 8.56
-2 -9 -2 783.32 38.79
2 -9 2 758.54 31.64
-2 -9 -2 739.89 31.38
-2 -9 -2 728.83 30.63
2 -9 2 749.5 31.45
2 -9 2 702.95 31.58
-2 9 -2 750.77 30.56
-2 9 -2 727.2 40.06
2 9 2 760.09 38.24
-2 9 -2 727.36 30.42
2 9 2 663.01 29.81
-2 9 -2 689.6 30.15
2 9 2 710.79 30.6
-3 -9 -2 598.07 24.36
3 -9 2 576.28 26.09
-3 -9 -2 593.58 24.47
3 -9 2 583.07 25.93
3 -9 2 549.19 25.73
-3 -9 -2 624.46 34.64
-3 -9 -2 644.89 24.48
-3 9 -2 575.95 35.89
3 9 2 609 37.66
-3 9 -2 631.54 39.17
-3 9 -2 580.54 25.94
-3 9 -2 590.42 25.81
-3 9 -2 579.39 25.41
3 9 2 595.22 26.08
4 -9 2 33.37 3.58
-4 -9 -2 27.78 2.88
4 -9 2 32.09 3.39
-4 -9 -2 41 12.12
-4 9 -2 21.27 16.68
-4 9 -2 10.43 12.29
4 9 2 27.47 3.48
4 9 2 19.26 11.78
-4 9 -2 28.02 3.13
4 9 2 27.73 2.36
5 -9 2 12.27 2.37
5 -9 2 9.89 3.19
5 9 2 11.73 3.76
-5 9 -2 9.54 2.65
5 9 2 10.67 1.79
6 -10 -2 14.59 3.88
6 -10 -2 20.4 3.71
6 10 -2 20.6 2.64
6 10 -2 25.37 4.18
-6 10 2 28.62 3.28
5 -10 -2 2.85 1.94
-5 -10 2 -3.73 2.01
5 -10 -2 5.81 2.7
-5 10 2 -8.59 22.63
5 10 -2 31.5 19.59
-5 10 2 19.68 22.88
-5 10 2 2.29 1.38
5 10 -2 1.43 1.47
5 10 -2 4.31 2.14
-4 -10 2 77.3 5.71
4 -10 -2 72.03 4.89
4 -10 -2 76.23 5.26
-4 -10 2 49.52 15.57
4 -10 -2 62.28 4.93
-4 10 2 75.46 18.98
4 10 -2 47.52 17.75
-4 10 2 68.53 19.21
-4 10 2 63.98 3.99
4 10 -2 72.18 3.77
4 10 -2 65.89 4.07
4 10 -2 68.03 4.91
3 -10 -2 293.14 12.96
-3 -10 2 282.05 12.85
3 -10 -2 274.41 13.09
3 -10 -2 287.28 12.75
-3 -10 2 249.79 24.95
-3 -10 2 273.79 12.58
-3 10 2 254.09 11.52
3 10 -2 264.68 11.45
3 10 -2 259.34 12.05
3 10 -2 273.42 22.81
-3 10 2 229.99 21.89
-3 10 2 249.54 12.94
3 10 -2 266.33 11.53
-3 10 2 260.47 12.43
-3 10 2 233.48 26.33
-2 -10 2 323.35 14.11
2 -10 -2 289.69 14.23
-2 -10 2 306.4 23.79
2 -10 -2 341.01 13.89
2 -10 -2 307.62 13.85
-2 -10 2 314.5 14.06
2 10 -2 316.1 23.82
-2 10 2 338.99 25.55
2 10 -2 327.38 13.75
-2 10 2 294.12 13.62
-2 10 2 309.11 14.67
2 10 -2 321.86 13.46
-2 10 2 288.57 13.92
2 10 -2 320.13 13.46
2 10 -2 310.95 13.99
-1 -10 2 307.48 14.5
-1 -10 2 352.86 24.18
-1 -10 2 370.1 14.47
1 -10 -2 343.43 14.18
1 -10 -2 313.91 14.5
1 -10 -2 276.71 13.74
1 10 -2 311.43 14.16
1 10 -2 322.67 13.74
-1 10 2 329.17 14.85
1 10 -2 258.54 22.25
-1 10 2 365.21 13.94
1 10 -2 322.9 13.72
1 10 -2 316.35 14.14
-1 10 2 302.66 13.96
0 -10 -2 232.05 10.45
0 -10 -2 236.07 10.33
0 -10 2 218.67 10.38
0 -10 -2 224.5 19.35
0 -10 2 222.15 10.64
0 -10 2 212.84 10.19
0 -10 2 254.12 20.71
0 -10 -2 224.76 9.43
0 10 2 246.02 9.59
0 10 -2 224.57 10.59
0 10 -2 226.46 10.49
0 10 2 226.9 17.06
0 10 -2 229.91 10.27
0 10 2 228.95 10.89
0 10 2 210.26 10.38
0 10 -2 240.83 18.96
1 -10 2 622.64 26.05
1 -10 2 624.57 37.03
-1 -10 -2 599.17 25.62
-1 -10 -2 620.85 33.7
1 -10 2 622.46 26.33
-1 -10 -2 582.29 25.84
1 -10 2 603.13 25.91
-1 10 -2 606.46 25.32
1 10 2 576.44 25.19
-1 10 -2 614.29 34.62
-1 10 -2 576.05 25.02
-1 10 -2 549.26 24.88
1 10 2 629.61 25.25
1 10 2 571.34 33.34
2 -10 2 107.12 6.32
-2 -10 -2 108.1 5.26
-2 -10 -2 101.33 14.54
2 -10 2 105.7 6.19
2 -10 2 98.47 5.75
-2 -10 -2 118.93 6.17
-2 10 -2 121.03 6.59
2 10 2 114.21 5.86
-2 10 -2 113.87 16.29
2 10 2 101.97 6.16
2 10 2 96.79 13.68
-2 10 -2 110.28 5.87
-2 10 -2 107.33 6.31
3 -10 2 67.5 4.83
3 -10 2 69.96 4.78
-3 -10 -2 66.11 3.4
-3 10 -2 69.4 5.51
3 10 2 66.6 5.05
-3 10 -2 56.63 13.59
-3 10 -2 79.77 15.63
-3 10 -2 89.37 6.22
3 10 2 82.67 14.45
-3 10 -2 67.77 4.46
4 -10 2 56.98 4.59
-4 -10 -2 73.86 22.31
-4 -10 -2 47.3 3.23
4 -10 2 58.04 4.86
-4 10 -2 41.88 19.6
4 10 2 43.56 4.62
-4 10 -2 49.8 4.01
5 -10 2 136.86 8.94
5 10 2 157.14 10.05
-5 10 -2 135.28 8.56
5 10 2 147.35 7.11
6 -11 -2 282.46 14.81
6 -11 -2 280.09 14.46
6 11 -2 287.02 14.95
-6 11 2 254.08 12.9
6 11 -2 282.9 12.88
-5 -11 2 494.45 21.29
-5 -11 2 501.26 43.67
5 -11 -2 489.34 22.58
5 11 -2 480.32 42.22
-5 11 2 448.41 46.71
-5 11 2 412.47 52.6
5 11 -2 473.88 21.51
5 11 -2 440.4 19.93
-5 11 2 474.73 20.17
4 -11 -2 544.94 23.5
4 -11 -2 506.41 23.29
-4 -11 2 504.65 22.4
4 -11 -2 550.81 23.67
-4 -11 2 563.96 39.21
4 11 -2 504.73 21.26
-4 11 2 470.7 40.77
4 11 -2 496.58 22.61
-4 11 2 510.36 21.59
-4 11 2 512.61 44.68
4 11 -2 515.76 21.42
4 11 -2 441.57 44.56
-3 -11 2 189.71 9.42
3 -11 -2 185.17 9.15
3 -11 -2 182.95 9.45
3 -11 -2 180.29 9.11
-3 -11 2 177.56 25.33
-3 -11 2 194.07 8.97
-3 11 2 186.83 8.95
3 11 -2 188.76 9.46
3 11 -2 157.67 23.62
-3 11 2 199.2 24.05
3 11 -2 194.03 8.89
-3 11 2 195.05 10
3 11 -2 191.83 8.81
-3 11 2 209.52 24.97
-2 -11 2 233.92 11.29
-2 -11 2 241.76 23.9
2 -11 -2 247.29 11.6
2 -11 -2 240.89 11.04
2 -11 -2 244.83 11.12
-2 -11 2 249.75 11.41
2 11 -2 245.5 10.66
-2 11 2 271.44 11.49
-2 11 2 223.93 12
2 11 -2 240.62 11.34
-2 11 2 241.03 11.01
2 11 -2 246.44 11.09
2 11 -2 247.14 10.66
-2 11 2 227.53 22.72
2 11 -2 220.94 20.51
-2 11 2 221.12 22.31
-1 -11 2 233.25 21.85
1 -11 -2 234.16 10.8
-1 -11 2 224.79 10.82
-1 -11 2 235.56 10.65
1 -11 -2 241.03 10.49
1 -11 -2 204.47 9.9
1 -11 -2 232.39 21.15
1 11 -2 220.46 10.42
-1 11 2 225.39 11.11
-1 11 2 228.7 10
-1 11 2 215.24 10.2
-1 11 2 210.54 20.17
1 11 -2 223.34 9.86
1 11 -2 237.62 9.91
1 11 -2 226.91 20.73
1 11 -2 210.18 10.35
0 -11 2 347.29 16.49
0 -11 -2 373.82 15.45
0 -11 -2 367.31 16.52
0 -11 -2 412.81 16.56
0 -11 -2 382.8 25.35
0 -11 2 369.16 27.02
0 -11 2 376.96 16.88
0 11 -2 331.44 15.79
0 11 2 394.73 26.11
0 11 2 333.98 15.76
0 11 -2 373.16 15.57
0 11 2 380.78 16.4
0 11 2 371.42 14.8
0 11 -2 369.33 16.07
0 11 -2 311.8 24.99
1 -11 2 570.39 24.82
-1 -11 -2 538.01 24.36
1 -11 2 580.08 25.15
1 -11 2 608.03 24.74
1 -11 2 575.15 36.34
-1 -11 -2 584.01 24.73
-1 -11 -2 579.25 33.54
-1 11 -2 595.68 35.31
-1 11 -2 568.52 24.36
1 11 2 552.06 24.46
-1 11 -2 599.24 24.31
-1 11 -2 554.19 24.61
1 11 2 557.65 24.51
1 11 2 554.11 33.75
-2 -11 -2 654.36 27.69
2 -11 2 679.57 27.75
-2 -11 -2 585.57 26.82
2 -11 2 644.99 28.02
2 -11 2 626.14 27.86
-2 -11 -2 686.27 37.43
2 11 2 678.82 27.98
-2 11 -2 661.93 28.36
2 11 2 666.6 28.57
-2 11 -2 636.04 39.08
2 11 2 691.7 39.77
-2 11 -2 621.78 28.05
3 -11 2 36.16 3.53
3 -11 2 38.77 3.93
3 11 2 45.18 12.7
3 11 2 42 4.05
-3 11 -2 34.18 15.52
-3 11 -2 49.73 3.65
-3 11 -2 48.83 13.18
4 -11 2 42.31 6.61
4 -11 2 56.95 5.01
4 11 2 50.29 5.05
-4 11 -2 53.03 34.12
5 -11 2 75.93 7.41
5 -11 2 87.33 7.21
-5 11 -2 85.58 6.18
5 11 2 82.17 7.51
5 11 2 79.64 5.01
5 -12 -2 14.48 3.24
5 -12 -2 18.77 3.49
-5 -12 2 3.41 22.98
5 12 -2 24.88 41.81
5 12 -2 11.56 3.13
-5 12 2 12.27 2.22
-5 12 2 -15.97 31.36
5 12 -2 9.7 1.9
-4 -12 2 75.34 19.92
4 -12 -2 96.82 6.13
4 -12 -2 101.1 7.01
4 -12 -2 107.92 6.66
-4 -12 2 100.11 5.64
-4 12 2 97.13 22.85
4 12 -2 104.27 5.35
-4 12 2 103.37 22.79
4 12 -2 97.85 23.91
4 12 -2 90.04 6.11
4 12 -2 96.54 5.47
-4 12 2 99.41 5.54
3 -12 -2 83.1 5.51
3 -12 -2 76.48 5.38
3 -12 -2 85.8 5.11
-3 -12 2 74.56 16.86
-3 -12 2 84.1 5
3 12 -2 114.7 19.47
3 12 -2 96.11 5.21
-3 12 2 91.12 5.15
3 12 -2 81.66 5.54
-3 12 2 69.47 18.43
3 12 -2 98.27 4.83
3 12 -2 90.8 4.78
-3 12 2 80.71 6.29
-3 12 2 80.39 16.09
2 -12 -2 304.44 14.3
2 -12 -2 294.68 13.54
2 -12 -2 320.73 13.86
-2 -12 2 297.64 13.99
-2 -12 2 312.76 14.1
-2 12 2 313.51 28
-2 12 2 285.01 15.64
2 12 -2 299.21 13.07
2 12 -2 244.43 32.23
-2 12 2 313.29 13.67
-2 12 2 289.35 13.83
-2 12 2 324.38 28.46
2 12 -2 315.28 13.74
2 12 -2 309.05 13.15
2 12 -2 319.56 14.05
-1 -12 2 476 19.78
1 -12 -2 454.07 30.98
-1 -12 2 443.39 19.96
1 -12 -2 466.63 19.58
-1 -12 2 423.46 32.27
1 -12 -2 417.71 18.92
1 -12 -2 463.76 19.95
1 12 -2 489.85 31.69
-1 12 2 437.53 30.48
1 12 -2 459.49 19.9
-1 12 2 440.12 19.67
-1 12 2 437.32 20.51
1 12 -2 483.73 19.29
1 12 -2 440.39 19.89
-1 12 2 456.28 19.33
0 -12 -2 456.68 19.08
0 -12 -2 424.32 29.36
0 -12 2 427.49 19.43
0 -12 -2 439.1 17.83
0 -12 2 434.89 31.27
0 -12 -2 443.87 19.11
0 -12 2 414.67 19.05
0 12 2 392.29 19.1
0 12 2 444.06 30.14
0 12 -2 453.85 19.47
0 12 -2 437.03 18.82
0 12 2 480.07 19.89
0 12 2 437.16 18
0 12 -2 434.06 30.33
0 12 -2 438.62 19.28
1 -12 2 214.06 9.54
-1 -12 -2 187.75 9.17
-1 -12 -2 194.8 9.62
-1 -12 -2 201.55 19.85
1 -12 2 159.56 23.38
1 -12 2 192.15 9.85
-1 12 -2 205.85 9.6
-1 12 -2 204.7 20.73
-1 12 -2 197.47 9.6
1 12 2 190.7 9.83
1 12 2 188.42 9.64
1 12 2 172.41 21.21
-1 12 -2 213.1 10.17
-2 -12 -2 200.11 8.95
2 -12 2 194.41 9.66
2 -12 2 185.71 9.9
2 12 2 194.52 22.4
-2 12 -2 181.92 22.11
-2 12 -2 178.4 9.9
2 12 2 200.89 9.95
2 12 2 206.47 9.57
-2 12 -2 192.65 9.51
-3 -12 -2 125.89 5.99
3 -12 2 133.56 7.38
3 -12 2 126.27 7.6
-3 -12 -2 131.68 17.88
-3 12 -2 159.58 24.27
-3 12 -2 128.06 6.94
3 12 2 104.04 15.44
-3 12 -2 102.39 21.44
3 12 2 128.69 7.54
4 -12 2 92.68 6.39
4 -12 2 89.32 6.59
4 12 2 90.67 7.14
-4 12 -2 97.09 6.13
-4 12 -2 68.78 23.48
5 -12 2 116.5 8.64
5 -12 2 92.84 7.5
-5 12 -2 111.85 7.8
5 12 2 110.51 9.27
5 -13 -2 108.82 8.07
5 -13 -2 116.44 7.89
-5 13 2 84.67 5.68
5 13 -2 98.95 5.25
5 13 -2 104.08 8.18
4 -13 -2 43.85 4.37
4 -13 -2 47.64 4.25
-4 -13 2 44.33 3.53
-4 13 2 43.19 3.58
4 13 -2 45.07 4.41
4 13 -2 45.89 18.27
4 13 -2 42.44 3.33
-4 13 2 45.31 25.54
-3 -13 2 -2.03 1.34
3 -13 -2 2.37 1.42
3 -13 -2 2.51 2.4
-3 -13 2 25.87 15.82
3 -13 -2 1.07 1.63
-3 13 2 19.67 14.1
3 13 -2 1.34 1.6
3 13 -2 1.13 1.26
3 13 -2 3.26 1.04
-3 13 2 -3.43 2.5
-3 13 2 1.49 1.34
-3 13 2 -3.17 15.57
3 13 -2 14.59 14.96
3 13 -2 -0.07 1.7
2 -13 -2 87.97 5.06
-2 -13 2 97.36 5.63
2 -13 -2 90.57 5.7
2 -13 -2 98.61 5.85
-2 -13 2 134.28 21.15
-2 13 2 108.5 18.93
-2 13 2 129.15 20.47
2 13 -2 101.27 5.99
-2 13 2 87.02 5.6
2 13 -2 116.33 5.24
-2 13 2 114.29 6.26
2 13 -2 101.68 5.12
2 13 -2 102.26 17.01
2 13 -2 106.42 6.06
1 -13 -2 285.74 12.03
1 -13 -2 280.3 25.4
1 -13 -2 273.14 12.69
-1 -13 2 260.06 13.05
-1 -13 2 279.22 27.24
1 -13 -2 267.61 12.95
-1 -13 2 294.87 13.7
-1 13 2 256.01 11.91
1 13 -2 250.27 11.56
-1 13 2 254.55 11.5
1 13 -2 265.24 12.24
-1 13 2 267.19 26.27
-1 13 2 268.25 13.13
1 13 -2 240.02 25.36
1 13 -2 253.69 12.11
1 13 -2 261.35 11.4
0 -13 -2 316.83 13.76
0 -13 -2 297.84 13.71
0 -13 2 279.75 13.94
0 -13 2 285.31 27.63
0 -13 -2 297.01 25.85
0 13 2 293.78 13.79
0 13 2 280.03 26.26
0 13 -2 297.36 25.87
0 13 2 316.2 14.58
0 13 -2 308.59 14.19
0 13 -2 312.5 13.42
0 13 -2 286.6 13.83
1 -13 2 451.98 19.96
1 -13 2 467.25 20.68
-1 -13 -2 426.87 30.93
-1 -13 -2 448.36 19.79
1 -13 2 491.44 35.49
1 13 2 436.94 19.59
1 13 2 424.82 32.79
-1 13 -2 433.33 32.3
1 13 2 450.96 19.56
-1 13 -2 405.74 19.2
-1 13 -2 453.95 19.22
2 -13 2 686.06 30.54
-2 -13 -2 723.04 29.9
2 -13 2 722.77 31.16
-2 13 -2 718.19 31.61
2 13 2 715.87 42.08
2 13 2 679.17 31.65
2 13 2 753.96 31.29
-2 13 -2 767.12 31.47
-2 13 -2 769.05 46.43
3 -13 2 15.2 2.64
3 -13 2 14.28 3.26
-3 -13 -2 17.77 2.32
-3 13 -2 8.95 15.65
-3 13 -2 19.49 2.73
-3 13 -2 14.6 18.68
4 -13 2 10.33 3.14
4 -13 2 12.53 3.61
-4 13 -2 15.5 3.13
4 13 2 19.66 4.22
5 -14 -2 33.97 5.08
5 -14 -2 41.3 5.5
5 14 -2 29.92 5.17
4 -14 -2 28.03 3.75
4 -14 -2 33.94 4.83
-4 -14 2 26.94 3.41
-4 -14 2 6.1 21.12
4 14 -2 32.92 4.23
4 14 -2 27.4 3.32
-4 14 2 30.13 3.19
-4 14 2 7.39 24.45
4 14 -2 19.91 2.27
4 14 -2 52.28 21.02
-3 -14 2 355.04 36.92
-3 -14 2 291.09 13.68
3 -14 -2 293.64 16.89
3 -14 -2 283.1 13.53
-3 14 2 283.16 13.55
3 14 -2 305.97 12.67
3 14 -2 278.15 40.52
3 14 -2 294.72 13.66
3 14 -2 320.49 13.24
-3 14 2 281.98 36.92
-3 14 2 285.39 14.46
3 14 -2 287.9 14.26
-3 14 2 277.28 39.28
-2 -14 2 485.92 40.16
2 -14 -2 516.86 21.68
2 -14 -2 488.51 22.09
2 -14 -2 488.68 21.15
-2 -14 2 479.93 21.87
-2 14 2 467.81 38.07
2 14 -2 484.09 19.87
-2 14 2 481.79 42.22
2 14 -2 441.3 20.71
-2 14 2 495.74 20.77
2 14 -2 482.11 21.08
-2 14 2 478.04 20.75
2 14 -2 463.32 39.46
2 14 -2 449.53 19.72
1 -14 -2 197.5 25.55
1 -14 -2 164.17 9.1
1 -14 -2 190.87 8.32
1 -14 -2 177.88 9.34
-1 -14 2 190.49 9.58
-1 -14 2 208.24 29.92
1 14 -2 200.84 8.69
1 14 -2 191.27 8.57
-1 14 2 181.34 9.2
1 14 -2 175.9 9.63
1 14 -2 224.99 25.35
1 14 -2 177.85 9.38
-1 14 2 154.75 22.71
0 -14 -2 16.35 2.42
0 -14 -2 11.06 11.8
0 -14 2 18.05 2.71
0 -14 2 11.98 13.49
0 14 2 25.71 14.15
0 14 -2 14.41 2.32
0 14 2 13.06 2.27
0 14 -2 13.86 2.13
0 14 -2 31.37 13.93
0 14 2 14.99 3.18
-1 -14 -2 54.58 3.81
1 -14 2 49.54 3.75
1 -14 2 64.57 17.25
1 -14 2 44.87 4.15
-1 14 -2 45.48 4.41
1 14 2 45.57 4.13
1 14 2 48.82 4.92
-1 14 -2 74.64 15.51
1 14 2 46.27 12.99
-1 14 -2 51.62 3.79
2 -14 2 124.44 7.89
2 -14 2 138.02 7.56
-2 -14 -2 155.48 22.84
-2 -14 -2 134.08 6.82
-2 14 -2 107.21 18.61
-2 14 -2 134.8 8.34
-2 14 -2 129.65 7.4
2 14 2 140.69 8.1
2 14 2 106.27 17.74
2 14 2 145.58 7.91
3 -14 2 50.01 4.59
3 -14 2 57.75 5.67
-3 -14 -2 47.64 3.36
-3 14 -2 48.45 4.35
3 14 2 43.95 5.07
4 -14 2 18.26 3.87
4 -14 2 23.71 4.48
-4 14 -2 24.63 4.05
4 14 2 27.35 4.61
4 -15 -2 73.49 6.3
4 -15 -2 68.97 5.84
-4 -15 2 65.98 4.96
4 15 -2 83.04 7.12
-4 15 2 72.03 5.33
-4 15 2 53.09 23.71
3 -15 -2 89.38 6.44
-3 -15 2 85.01 5.87
3 -15 -2 95.94 5.67
-3 15 2 86.03 7.19
3 15 -2 90.81 5.05
3 15 -2 88.03 6.22
-3 15 2 89.92 5.6
-3 15 2 88.92 22.01
3 15 -2 87.23 4.3
3 15 -2 93.37 6.25
3 15 -2 87.18 22.86
2 -15 -2 111.61 6.97
2 -15 -2 110.98 5.83
-2 -15 2 101.73 6.54
-2 -15 2 96.86 22.72
2 15 -2 101.9 5.41
-2 15 2 111.12 6.88
2 15 -2 125.36 5.56
-2 15 2 147.9 24.08
-2 15 2 121.65 6.61
2 15 -2 118.16 7.04
2 15 -2 87.65 22.1
-2 15 2 83.71 22.59
2 15 -2 108.36 7.16
-1 -15 2 127.97 7.19
1 -15 -2 112.54 6.74
-1 -15 2 137.94 21.74
1 -15 -2 115.2 5.77
-1 15 2 113.58 6.78
1 15 -2 130.6 6.09
1 15 -2 78.09 21.96
1 15 -2 123.31 6.93
-1 15 2 143.97 19.91
1 15 -2 122.06 6.33
0 -15 2 200.42 10.44
0 -15 -2 192.76 9.88
0 -15 2 212.25 30.7
0 15 -2 218.57 27.51
0 15 -2 199.19 9.44
0 15 2 157.27 23.24
0 15 2 190.47 9.78
0 15 -2 197.55 9.89
-1 -15 -2 277.51 13.31
1 -15 2 299.38 13.48
1 -15 2 289.65 33.25
1 -15 2 289.74 14.31
-1 -15 -2 272.28 29.77
1 15 2 295.83 13.99
-1 15 -2 292.55 13.74
1 15 2 278.02 14.33
-1 15 -2 312.73 31.05
1 15 2 236.45 27.17
-1 15 -2 307.62 13.98
-2 -15 -2 246.11 11.15
2 -15 2 233.39 11.68
2 -15 2 228.56 12.3
2 15 2 223.61 11.66
2 15 2 217.23 11.45
-2 15 -2 222.07 11.21
-2 15 -2 229.67 30.86
-3 -15 -2 265.96 11.99
3 -15 2 260.95 14.03
-3 15 -2 276.57 13.75
-3 15 -2 190.77 33.63
3 15 2 292.06 14.73
4 -15 2 100.03 8.34
4 -15 2 97.39 8.06
-4 15 -2 105.53 7.36
4 15 2 109.89 9.52
4 -16 -2 71.84 5.69
4 -16 -2 72.11 6.23
-4 -16 2 60.92 5.11
4 16 -2 78.83 7.12
-4 16 2 69.57 5.53
-3 -16 2 189.8 10.36
-3 -16 2 237.73 33.7
3 -16 -2 212.69 11.34
3 -16 -2 198.07 10.11
-3 16 2 189.17 9.81
-3 16 2 172.91 28.44
3 16 -2 190.37 10.74
3 16 -2 179.81 28.53
3 16 -2 196.46 10.39
2 -16 -2 47.22 4.46
-2 -16 2 100.6 22.36
-2 -16 2 56.75 4.82
2 -16 -2 51.18 3.7
2 16 -2 54.28 24.86
2 16 -2 53.98 3.31
2 16 -2 44.83 4.77
-2 16 2 64.88 5.15
-2 16 2 21.96 17.88
-2 16 2 60.42 4.43
-1 -16 2 31.54 4.01
-1 -16 2 66.98 19.86
1 -16 -2 33.86 2.75
1 -16 -2 32.24 3.91
-1 16 2 23.91 15.91
1 16 -2 32.84 19.91
1 16 -2 32.96 4.08
-1 16 2 29 3.35
1 16 -2 32.47 2.75
1 16 -2 38.36 3.46
0 -16 2 79.39 22.23
0 -16 -2 80.32 19.46
0 -16 -2 92.27 5.96
0 -16 2 103.27 6.57
0 16 -2 105.85 5.93
0 16 2 96.85 6.16
0 16 -2 97.3 24.57
0 16 -2 78.84 7.77
0 16 2 78.94 15.44
1 -16 2 450.9 42.84
1 -16 2 364.17 17.41
-1 -16 -2 347.9 16.2
1 -16 2 334.78 16.07
1 16 2 337.36 17.2
-1 16 -2 343.98 38.8
-1 16 -2 369.69 16.2
-1 16 -2 319.18 15.91
2 -16 2 216.35 11.22
2 -16 2 222.26 12.45
-2 -16 -2 217.54 10.55
2 16 2 235.79 12.33
2 16 2 219.5 12.09
-2 16 -2 236.37 12.01
3 -16 2 127.52 8.05
3 -16 2 131.59 9.04
-3 -16 -2 131.49 6.91
-3 16 -2 122.82 8.2
3 16 2 122.94 8.72
-3 16 -2 101.18 31.37
3 -17 -2 155.22 8.22
-3 -17 2 141.58 8.73
3 -17 -2 151.05 9.42
-3 17 2 164.25 9.04
3 17 -2 153.04 9.83
2 -17 -2 94.69 5.44
-2 -17 2 80.78 6.45
2 -17 -2 110.42 7.56
-2 17 2 147.42 35.21
-2 17 2 95.16 6.71
2 17 -2 101.68 7.24
2 17 -2 84.13 5.34
2 17 -2 84.07 23.66
-1 -17 2 126.74 26.69
-1 -17 2 145.16 8.58
1 -17 -2 135.25 6.66
1 -17 -2 141.69 8.21
1 17 -2 88.72 30.31
1 17 -2 135.89 6.64
1 17 -2 135.31 7.08
1 17 -2 141.33 8.43
0 -17 2 297.8 38.58
0 -17 2 231.43 12.55
0 -17 -2 242.44 12.08
0 17 -2 233.18 12.01
0 17 -2 222.96 11.22
0 17 2 239.55 11.8
1 -17 2 59.48 38.69
-1 17 -2 4.34 2.77
1 17 2 6.61 2.66
-1 17 -2 7.95 3.22
2 -17 2 13.94 4.23
-2 -17 -2 17.79 2.58
2 -17 2 15.7 2.82
2 17 2 10.78 3.69
-2 17 -2 18.38 3.61
3 -17 2 168.82 11.03
3 -17 2 200.72 12.78
-3 -17 -2 208.4 10.74
3 17 2 174.63 12.31
-3 17 -2 191.08 11.04
3 -18 -2 132.68 9.57
3 -18 -2 126.13 7.44
-3 -18 2 118.13 8.09
-3 18 2 116.59 8.17
3 18 -2 132.73 9.72
-2 -18 2 356.35 16.97
2 -18 -2 356.14 17.31
2 -18 -2 313.58 15.27
-2 -18 2 415.55 49.14
2 18 -2 352.29 17.06
2 18 -2 310.24 44.85
-2 18 2 349.4 16.67
-1 -18 2 225.94 12.18
1 -18 -2 227.57 10.23
1 -18 -2 233.14 12.25
1 18 -2 206.97 11.86
1 18 -2 197.55 30.4
1 18 -2 228.44 10.13
-1 18 2 235.55 11.91
0 -18 2 24.47 4.33
0 -18 -2 28.94 3.82
0 18 2 28.05 4.44
0 18 -2 25.93 4.18
1 -18 2 15.95 4.35
-1 -18 -2 22.73 3.33
-1 18 -2 22.74 3.83
1 18 2 19.28 4.1
-2 -18 -2 31.7 4.35
2 -18 2 44.59 6.38
2 -18 2 39.85 5.02
2 18 2 40.93 5.35
-2 18 -2 49.42 5.87
1 -19 -2 80.72 7.14
-1 -19 2 77.04 7.81
-1 19 2 83.48 6.88
1 19 -2 88.76 7.82
0 -19 -2 123.82 8.44
0 -19 2 108.56 8.84
0 19 -2 121.59 8.46
0 19 2 114 8.4
1 -19 2 72.95 8.21
-1 -19 -2 70.43 5.8
-1 19 -2 64.45 6.94
1 19 2 58.2 7.18
7 0 -3 46.25 3.4
7 0 -3 73.68 27.33
-7 0 3 52.6 29.04
7 0 -3 35.54 4.7
-7 0 3 31 4.19
-6 0 3 134.39 25.03
6 0 -3 67.73 25.33
6 0 -3 122.31 6.21
-6 0 3 108.39 6.45
-6 0 3 129.11 6.87
6 0 -3 123.26 7.37
5 0 -3 200.21 10.28
5 0 -3 205.31 9.45
5 0 -3 185.68 24.38
-5 0 3 193.51 10.44
-5 0 3 210.07 9.36
-5 0 3 231.83 26.66
-5 0 3 191.97 9.32
-4 0 3 673.13 40.71
-4 0 3 714.95 28.87
4 0 -3 675.28 29.86
-4 0 3 725.93 29.9
4 0 -3 717.25 40.59
4 0 -3 673.08 29.35
3 0 -3 253.4 19.31
-3 0 3 266.44 11.07
-3 0 3 236.35 19.97
3 0 -3 266.41 12.09
3 0 -3 251.6 11.82
-3 0 3 290.41 12.11
2 0 -3 1708.21 71.85
-2 0 3 1808.15 77.86
2 0 -3 1734.32 71.86
2 0 -3 1784.86 77.76
1 0 -3 5.02 0.81
-1 0 3 3.6 0.8
-1 0 3 3.21 2.87
1 0 -3 4.75 0.43
1 0 -3 3.63 0.99
1 0 -3 7.4 2.86
0 0 -3 16.22 1.64
0 0 -3 14.89 1.29
0 0 -3 16.12 1.43
0 0 -3 13.59 2.39
0 0 3 12.68 2.04
0 0 3 15.6 1.47
1 0 3 321.69 14.72
-1 0 -3 337.94 15.7
-1 0 -3 369.11 14.82
-1 0 -3 347.8 14.72
1 0 3 333.51 14.79
-1 0 -3 353.18 14.85
-1 0 -3 344.22 15.95
2 0 3 515.7 21.92
-2 0 -3 535.74 21.81
-2 0 -3 468.12 22.16
-2 0 -3 585.4 22.43
-2 0 -3 535.56 22.02
-2 0 -3 508.59 25.54
2 0 3 484.47 21.98
3 0 3 14.81 1.91
3 0 3 16 6.88
-3 0 -3 13.88 6.03
-3 0 -3 12.52 1.61
-3 0 -3 11.88 1.94
-3 0 -3 11.11 1.85
-3 0 -3 14.91 2.38
3 0 3 15.43 1.73
-4 0 -3 1685.59 68.81
4 0 3 1742.22 67.99
4 0 3 1660.73 68.59
4 0 3 1648.81 77.23
-4 0 -3 1650.26 67.68
-4 0 -3 1555.56 68.92
-5 0 -3 439.76 20.67
-5 0 -3 437.44 19.06
5 0 3 458.04 19.11
5 0 3 441.33 20.11
6 0 3 40.71 5.3
-6 0 -3 39.19 5.66
7 -1 -3 114.99 29.05
7 -1 -3 117.51 8.68
-7 -1 3 51.52 29.95
7 -1 -3 119.1 6.24
-7 -1 3 112.37 7.02
7 1 -3 113.58 5.79
7 1 -3 134.3 31.49
7 1 -3 123.49 8.93
-7 1 3 107.53 6.75
-7 1 3 140.16 32.4
6 -1 -3 211.43 30.03
-6 -1 3 296.48 33.78
-6 -1 3 260.17 12.26
6 -1 -3 257.02 11.91
6 -1 -3 270.24 13.29
-6 -1 3 260.2 12.26
-6 1 3 235.4 34.38
6 1 -3 254.4 11.42
6 1 -3 252.35 11.94
6 1 -3 285.43 38.47
6 1 -3 255.17 12.81
-6 1 3 257.72 12.03
-6 1 3 249.77 11.78
5 -1 -3 170.9 22.52
5 -1 -3 176.59 9.29
-5 -1 3 165.69 9.25
-5 -1 3 172.42 24.02
-5 -1 3 167.94 8.17
5 -1 -3 176.42 8.41
5 1 -3 169.23 9.12
-5 1 3 163.46 9.48
5 1 -3 181.11 8.33
5 1 -3 179.51 24.87
-5 1 3 199.98 26
-5 1 3 170.17 8.22
-5 1 3 177.35 8.36
5 1 -3 182.28 8.73
-4 -1 3 822.64 45.91
-4 -1 3 849.53 34.91
4 -1 -3 743.63 44.6
4 -1 -3 784.82 34.96
-4 -1 3 861.96 33.98
4 -1 -3 849.74 34.57
4 1 -3 857.92 34.64
4 1 -3 838.29 34.61
-4 1 3 844.74 34.1
4 1 -3 810.64 35.09
-4 1 3 820.8 35.11
-4 1 3 815.32 46.32
-4 1 3 819.11 34.11
4 1 -3 791.74 45.45
3 -1 -3 483.51 21.62
-3 -1 3 515.65 21.49
3 -1 -3 509.5 29.32
-3 -1 3 497.57 29.48
-3 -1 3 510.93 20.67
3 -1 -3 490.68 21.46
3 1 -3 520.87 30.09
3 1 -3 533.05 21.71
-3 1 3 493.19 20.92
3 1 -3 515.52 21.69
3 1 -3 496.29 21.09
-3 1 3 501.78 30.23
-3 1 3 503.02 20.91
3 1 -3 491.05 21.89
-3 1 3 529.43 21.93
2 -1 -3 111.49 5.75
2 -1 -3 117.14 10.19
-2 -1 3 128.59 11.3
2 -1 -3 118.58 5.79
-2 -1 3 112.66 4.9
-2 1 3 116.64 11.7
2 1 -3 106.53 5.62
2 1 -3 115.12 11.1
2 1 -3 123.28 5.77
2 1 -3 114.09 4.93
-1 -1 3 275.39 11.75
1 -1 -3 288.6 12.22
-1 -1 3 295.75 12.44
1 -1 -3 282.89 11.62
1 -1 -3 286.32 15.61
1 -1 -3 275.81 11.61
-1 1 3 285.19 15.31
1 1 -3 265.2 11.32
1 1 -3 267.13 15.54
-1 1 3 281.53 11.82
1 1 -3 263.3 11.8
1 1 -3 287.08 12.1
0 -1 3 2576.77 101
0 -1 -3 2489.01 99.56
0 -1 -3 2526.56 99.38
0 -1 3 2408.25 99.4
0 -1 -3 2453.83 98.99
0 -1 3 2206.96 98.99
0 1 -3 2365.55 97.44
0 1 -3 2569.84 99.27
0 1 -3 2374.89 97.58
0 1 -3 2288.69 97.18
-1 -1 -3 607.53 25.44
-1 -1 -3 602.33 25.52
-1 -1 -3 591.33 25.43
1 -1 3 586.88 25.57
-1 -1 -3 669.09 25.63
-1 -1 -3 620.03 25.38
1 -1 3 592.17 25.53
-1 1 -3 579.52 24.69
1 1 3 589.4 24.63
-1 1 -3 584.16 24.66
-1 1 -3 587.75 26.65
-1 1 -3 595.33 26.5
-1 1 -3 592.28 24.69
1 1 3 594.84 24.61
-2 -1 -3 270.93 11.82
2 -1 3 250.28 11.88
2 -1 3 259.18 11.84
-2 -1 -3 264.84 15.09
-2 -1 -3 296.91 12.28
-2 -1 -3 262.71 11.59
-2 1 -3 290.31 12.18
2 1 3 270.08 12.07
-2 1 -3 270.02 16.3
2 1 3 251.69 14.47
-2 1 -3 277.07 11.92
2 1 3 272.31 11.91
-2 1 -3 288.02 15.73
-2 1 -3 260.22 12.28
-3 -1 -3 72.33 4.47
3 -1 3 72.8 4.33
3 -1 3 73.36 4.41
-3 -1 -3 80.53 3.87
-3 -1 -3 81.65 10.76
-3 -1 -3 71.35 4.85
3 1 3 74.22 9.87
3 1 3 72.08 3.75
-3 1 -3 61.84 4.38
3 1 3 63.88 4.03
-3 1 -3 69.92 4.53
-3 1 -3 71.6 4.89
-3 1 -3 75.56 11.47
-4 -1 -3 161.89 8.05
-4 -1 -3 133.2 6.29
4 -1 3 133.08 19.2
-4 -1 -3 121.9 7.54
4 -1 3 132.1 7.26
4 -1 3 135.58 6.86
4 1 3 131.95 7.05
-4 1 -3 131.49 6.53
4 1 3 137.82 18.42
-4 1 -3 124.95 7.4
4 1 3 139.74 6.34
-4 1 -3 128.74 7.87
5 -1 3 149.18 7.33
-5 -1 -3 147.79 8.99
5 -1 3 146.07 8.24
-5 -1 -3 142.33 6.76
-5 1 -3 135.01 7.22
-5 1 -3 141.27 8.6
5 1 3 151.76 8.05
6 -1 3 108.11 8.25
-6 -1 -3 118.36 8.94
6 -1 3 100.8 5.99
-6 1 -3 119.22 8.99
6 1 3 118.82 8.04
7 -2 -3 25.47 5
-7 -2 3 35.03 4.38
7 -2 -3 37.41 26.99
-7 -2 3 20.36 27.95
7 -2 -3 39.51 3.66
7 2 -3 33.76 4.94
-7 2 3 30.8 3.5
-7 2 3 5.02 29.07
7 2 -3 32.51 27.18
7 2 -3 45 3.65
6 -2 -3 412.83 17.55
6 -2 -3 427.77 43.48
6 -2 -3 388.4 18.81
-6 -2 3 313.14 37.83
-6 -2 3 402.57 17.68
6 2 -3 411.7 19.09
-6 2 3 402.59 41.86
6 2 -3 424.23 18.03
6 2 -3 407.16 17.5
-6 2 3 404.8 17.89
-6 2 3 395.34 18.1
6 2 -3 401.66 43.75
-5 -2 3 888.1 36.19
-5 -2 3 854.07 63.13
5 -2 -3 858.28 37.3
5 -2 -3 877.22 36.51
-5 -2 3 859.62 37.14
5 -2 -3 860.6 50.46
-5 2 3 879.17 36.35
5 2 -3 942.54 36.6
5 2 -3 881.22 37.36
5 2 -3 833.69 63.2
-5 2 3 856.68 52.46
5 2 -3 865.47 36.34
-5 2 3 821.37 36.18
4 -2 -3 496.35 22.67
-4 -2 3 521.29 33.48
4 -2 -3 515.66 22.28
-4 -2 3 530.74 22.07
4 -2 -3 503.09 32.83
-4 -2 3 532.23 22.55
-4 2 3 501.6 34.23
4 2 -3 505.69 22.49
-4 2 3 515.17 21.54
4 2 -3 503.23 32.52
-4 2 3 526.64 21.48
-4 2 3 522.04 22.65
4 2 -3 515.57 21.96
3 -2 -3 236.22 11.63
-3 -2 3 273.4 19.7
3 -2 -3 257.6 19.08
-3 -2 3 253.51 10.78
3 -2 -3 249.23 11.54
-3 -2 3 265.62 11.53
3 2 -3 236.46 18.61
3 2 -3 242.86 10.7
3 2 -3 234.85 11.04
-3 2 3 241.9 10.33
3 2 -3 261.03 11.18
3 2 -3 251.33 11.4
-3 2 3 261.97 11.49
-3 2 3 244.31 10.41
-3 2 3 249.85 19.8
-2 -2 3 30.7 7.29
2 -2 -3 24.14 5.21
2 -2 -3 26.15 2.24
-2 -2 3 25.49 1.44
-2 2 3 26.96 2.45
2 2 -3 30.85 2.3
2 2 -3 31.04 2.31
-2 2 3 20.52 6.44
2 2 -3 30.99 1.65
2 2 -3 28.94 7.48
1 -2 -3 724.92 31.83
-1 -2 3 750.1 31.82
1 -2 -3 810.6 35.17
1 -2 -3 779.76 31.62
-1 -2 3 775.32 31.2
1 -2 -3 753.58 31
-1 2 3 788.63 36.16
-1 2 3 808.05 32.56
1 2 -3 758.75 32.58
1 2 -3 828.2 32.87
1 2 -3 735.6 32.15
1 2 -3 825.33 36.84
0 -2 3 276.49 14.94
0 -2 -3 301.83 12.76
0 -2 3 278.96 12.78
0 -2 -3 301.15 12.39
0 -2 3 301.1 12.51
0 2 -3 284.76 15.38
0 2 -3 303.22 12.82
0 2 3 291.66 13.02
0 2 3 300.44 13.19
0 2 -3 300.66 12.81
0 2 -3 294.59 12.91
-1 -2 -3 2654.57 108.75
1 -2 3 2477.59 109.05
-1 -2 -3 2739.05 109
-1 -2 -3 2838.64 108.95
1 -2 3 2697.61 109.09
-1 2 -3 2576.01 110.87
-1 2 -3 2837.69 110.94
-1 2 -3 2765.56 110.88
1 2 3 2568.84 110.68
-1 2 -3 2899.85 113.83
-2 -2 -3 394.25 16.73
2 -2 3 399.01 17.23
2 -2 3 402.19 17.17
-2 -2 -3 417.46 17
-2 -2 -3 369.41 17.23
-2 -2 -3 392.15 19.66
2 2 3 401.31 20.04
-2 2 -3 411.32 21.82
2 2 3 384.24 17.59
-2 2 -3 434.92 17.87
-2 2 -3 399.97 22.47
-2 2 -3 414.85 18.01
-2 2 -3 435.17 18.01
3 -2 3 395.54 17.86
3 -2 3 394.21 18.09
-3 -2 -3 441.77 23.49
-3 -2 -3 433.67 18.04
-3 -2 -3 419.06 17.27
-3 -2 -3 398.06 18.33
-3 2 -3 425.1 25.74
-3 2 -3 431.35 17.55
3 2 3 399.25 17.72
-3 2 -3 418.19 18.09
3 2 3 396.52 23.66
-3 2 -3 375.91 23.71
-3 2 -3 404.12 18.19
4 -2 3 824.23 35.26
-4 -2 -3 827.02 35.18
4 -2 3 828.82 34.73
-4 -2 -3 826.13 33.86
-4 2 -3 845.53 35.7
-4 2 -3 785.9 43.89
4 2 3 826.93 35.1
4 2 3 831.47 43.82
-4 2 -3 824.32 35.63
-4 2 -3 856.18 34.64
5 -2 3 231.68 10.74
-5 -2 -3 216.56 12.77
5 -2 3 224.67 11.51
-5 2 -3 230.05 10.92
5 2 3 235.85 11.4
-5 2 -3 227.8 12.14
6 -2 3 92.79 7.43
-6 -2 -3 90.98 8.2
6 -2 3 84.01 5.63
-6 2 -3 81.58 7.33
6 2 3 88.52 6.49
-7 -3 3 14.82 2.89
7 -3 -3 15.78 2.41
7 -3 -3 17.71 4.21
-7 3 3 21.1 2.9
-7 3 3 12.75 31.93
7 3 -3 19.33 4.28
-6 -3 3 204.78 9.93
6 -3 -3 189.11 29.47
6 -3 -3 185.82 9.56
-6 -3 3 211.21 29.83
-6 3 3 182.49 8.7
6 3 -3 177.93 8.25
-6 3 3 125.49 27.54
6 3 -3 175.32 9.76
6 3 -3 193.04 9.16
-6 3 3 177.51 9.25
6 3 -3 193.1 33.87
-5 -3 3 1007.26 41.28
5 -3 -3 969.23 42.38
5 -3 -3 977.9 41.62
-5 -3 3 986.42 57.19
-5 -3 3 999.15 42.13
5 -3 -3 1033.18 55.91
5 3 -3 941.25 55.84
-5 3 3 1006.85 40.57
5 3 -3 1010.92 40.48
5 3 -3 933.49 41.39
-5 3 3 948.99 57.5
-5 3 3 988.81 40.35
-4 -3 3 310.23 12.99
-4 -3 3 303.22 24.88
4 -3 -3 293.1 13.86
4 -3 -3 277.92 23.61
-4 -3 3 309 13.7
4 -3 -3 283.46 13.44
-4 3 3 284.97 12.24
-4 3 3 280.8 25.32
-4 3 3 291 13.56
-4 3 3 300.31 13.42
4 3 -3 283.27 12.73
4 3 -3 288.18 12.76
4 3 -3 254.14 23.72
-4 3 3 292.12 12.46
4 3 -3 291.24 13.35
4 3 -3 280.15 12.7
3 -3 -3 394.33 24.96
-3 -3 3 418.77 16.68
3 -3 -3 362.75 17.41
-3 -3 3 415.7 17.27
-3 -3 3 395.28 25.86
3 -3 -3 392.63 17.39
3 3 -3 394.12 25.32
-3 3 3 413.33 17.55
-3 3 3 403.71 17.48
3 3 -3 397.73 17.39
-3 3 3 396.97 16.36
-3 3 3 369.91 25.91
3 3 -3 405.97 17.13
3 3 -3 380.87 16.73
2 -3 -3 49.49 2.22
-2 -3 3 46.85 2.92
2 -3 -3 53.4 3.29
-2 -3 3 53.82 8.97
-2 -3 3 51.24 2.48
2 -3 -3 44.18 7.07
2 -3 -3 42.09 3.11
2 3 -3 59.39 9.24
2 3 -3 50.89 2.63
-2 3 3 51.03 8.93
2 3 -3 45.93 3.03
-2 3 3 49.62 3.19
-2 3 3 55.07 3.54
2 3 -3 47.6 3.12
-2 3 3 53.64 2.25
-1 -3 3 655.67 27.67
1 -3 -3 668.81 26.87
1 -3 -3 655.62 30.86
1 -3 -3 650.42 27.72
-1 -3 3 677.39 27.08
1 -3 -3 650.81 27.41
1 3 -3 640.9 27.51
-1 3 3 600.97 27.03
1 3 -3 725.85 27.84
-1 3 3 719.34 27.52
1 3 -3 659.14 31.9
1 3 -3 635.39 27.17
0 -3 3 1371.07 50.78
0 -3 3 1282.21 51.14
0 -3 -3 1197.94 50.95
0 -3 -3 1210.17 50.55
0 -3 3 1273.48 54.3
0 -3 -3 1111.94 50.53
0 3 -3 1266.56 54.31
0 3 -3 1181 50.61
0 3 3 1252.32 51.77
0 3 -3 1284.66 51.08
0 3 -3 1240.1 50.92
0 3 3 1246.04 50.71
0 3 3 1222.3 51.94
-1 -3 -3 1222.95 47.86
1 -3 3 1161.04 51.27
-1 -3 -3 1152.73 47.45
1 -3 3 1139.29 47.67
1 -3 3 1125.08 47.72
-1 -3 -3 1097.09 47.21
1 -3 3 1194.06 47.7
-1 3 -3 1151.93 47.91
-1 3 -3 1139.3 47.86
1 3 3 1145.22 47.98
-1 3 -3 1178.69 51.69
1 3 3 1209.8 48.39
-2 -3 -3 20.59 2.38
-2 -3 -3 25.38 2.02
2 -3 3 26.82 2.24
-2 -3 -3 22.62 1.89
-2 -3 -3 26.35 4.49
2 -3 3 23.73 2.13
2 3 3 29.14 4.65
-2 3 -3 32.73 6.58
-2 3 -3 33.58 2.51
-2 3 -3 26.14 6.2
-2 3 -3 31.05 2.46
-2 3 -3 34.81 2.64
2 3 3 28.69 2.23
3 -3 3 492.8 22.08
-3 -3 -3 542.62 27.37
-3 -3 -3 508.76 21.08
-3 -3 -3 535.56 21.85
-3 -3 -3 478.81 22.18
3 -3 3 502.34 21.89
-3 3 -3 516.64 21.13
3 3 3 487.43 21.16
-3 3 -3 495.93 21.66
3 3 3 504.82 27.2
-3 3 -3 519.47 30.06
-3 3 -3 487.94 21.59
-3 3 -3 452.12 27.94
-4 -3 -3 294.24 12.3
-4 -3 -3 294.67 12.19
4 -3 3 295.04 13.84
-4 -3 -3 280.72 13.69
4 -3 3 297.66 13.39
4 3 3 290.83 13.35
-4 3 -3 289.83 13.9
-4 3 -3 298.76 13.2
-4 3 -3 295.92 23.92
4 3 3 290.33 23.36
5 -3 3 256.93 12.12
5 -3 3 257.76 12.93
5 3 3 256.34 12.26
-5 3 -3 252.02 12.03
-6 -3 -3 35.43 5.46
6 -3 3 35.92 5.25
6 -3 3 35.92 4.16
-6 3 -3 31.24 4.6
6 3 3 23.96 3.82
7 -4 -3 52.07 6.31
7 -4 -3 42.28 4.22
-7 4 3 36.73 3.95
7 4 -3 34.58 4.87
-6 -4 3 54.4 5.08
6 -4 -3 66.95 5.35
-6 -4 3 60.4 22.37
6 -4 -3 56.94 23.05
6 -4 -3 66.4 4.51
6 4 -3 64.43 5.26
6 4 -3 81.85 31.18
-6 4 3 61.66 5.08
-6 4 3 52.71 3.85
6 4 -3 62.58 3.37
6 4 -3 64.01 3.92
-6 4 3 62.11 24.22
-5 -4 3 39.06 3.46
-5 -4 3 47.69 17.07
-5 -4 3 34.9 4.39
5 -4 -3 20.29 13.32
5 -4 -3 41.25 3.34
5 -4 -3 42.72 4.06
5 4 -3 45.41 3.84
-5 4 3 25.43 15.92
-5 4 3 31.79 3.33
5 4 -3 37.89 2.8
5 4 -3 37.06 3.1
-5 4 3 37.09 4.43
-5 4 3 35.26 2.59
5 4 -3 32.66 3.11
5 4 -3 51.07 15.51
-4 -4 3 510.4 35.5
4 -4 -3 565.36 24.14
-4 -4 3 589.82 23.57
4 -4 -3 519.43 24.38
4 -4 -3 577.87 35.31
-4 -4 3 574.72 24.1
-4 4 3 586 25.23
-4 4 3 570.5 23.84
-4 4 3 563.53 24.07
4 4 -3 556.28 24.36
4 4 -3 526.21 24.78
4 4 -3 585.27 36.83
-4 4 3 592.55 25.12
-4 4 3 596.85 38.42
4 4 -3 559.8 24.29
4 4 -3 631.39 24.4
3 -4 -3 1539.24 65.95
-3 -4 3 1641.03 74.43
3 -4 -3 1628.17 74.4
3 -4 -3 1537.47 65.86
-3 -4 3 1670.61 65.63
-3 -4 3 1586.98 65.14
-3 4 3 1646.63 76.69
-3 4 3 1698.36 67.09
3 4 -3 1623.17 66.9
-3 4 3 1686.27 67.19
-3 4 3 1542.7 65.9
3 4 -3 1570.37 66.36
3 4 -3 1666.58 66.61
3 4 -3 1573.17 75.76
-2 -4 3 451.49 19.55
2 -4 -3 480.96 25.26
2 -4 -3 464.79 18.77
2 -4 -3 468.22 19.69
-2 -4 3 435.19 25.77
2 -4 -3 443.9 19.75
-2 -4 3 458.98 19.03
-2 4 3 458.56 19.48
2 4 -3 479.66 20.23
-2 4 3 470.72 20.28
2 4 -3 491.89 19.83
-2 4 3 470.28 27.4
2 4 -3 476.29 26.58
-2 4 3 496.74 20.67
2 4 -3 464.57 20.22
-1 -4 3 955.06 37.7
1 -4 -3 864.6 37.46
-1 -4 3 924.61 38.28
1 -4 -3 929.67 38.35
1 -4 -3 912.45 37.96
-1 -4 3 945.28 42.98
-1 4 3 906.94 42.78
-1 4 3 989.09 38.5
1 4 -3 830.76 38.23
-1 4 3 912.96 38.12
1 4 -3 1001.71 38.83
1 4 -3 973.28 43.73
1 4 -3 940.04 38.56
0 -4 -3 1034.51 43.7
0 -4 -3 1185.12 43.36
0 -4 3 1056.73 43.86
0 -4 -3 962.05 43.2
0 -4 3 1056.07 43.45
0 4 -3 1020.52 42.24
0 4 -3 1001.05 46.32
0 4 -3 1055.87 41.94
0 4 3 1040.24 43.86
0 4 3 1049.99 44.08
0 4 3 972.23 42.02
-1 -4 -3 212.13 9.23
1 -4 3 221.64 9.52
-1 -4 -3 204.67 8.91
-1 -4 -3 205.97 9.18
1 -4 3 198.02 9.37
-1 -4 -3 216.61 10.72
1 -4 3 191.72 9.46
1 -4 3 211.71 13.96
-1 -4 -3 189.43 9.21
-1 4 -3 210.91 13.93
-1 4 -3 208.21 9.5
-1 4 -3 207.46 9.62
-1 4 -3 215.43 9.68
1 4 3 210.14 9.7
1 4 3 221.75 10.94
-2 -4 -3 264.05 12
-2 -4 -3 262.13 14.59
2 -4 3 260.84 12
2 -4 3 255.69 11.99
-2 -4 -3 270.81 11.47
-2 -4 -3 272.77 11.5
2 -4 3 253.29 12.15
-2 -4 -3 271.77 11.5
-2 4 -3 275.54 18.73
-2 4 -3 260.3 11.92
-2 4 -3 296.19 12.22
2 4 3 273.17 15.31
-2 4 -3 252.07 19.96
2 4 3 271.06 11.73
2 4 3 251.49 12.23
-2 4 -3 264.17 12.11
-3 -4 -3 1362.82 60
3 -4 3 1305.65 55.39
-3 -4 -3 1369.76 55.48
3 -4 3 1355.93 55.26
-3 -4 -3 1317.47 54.3
-3 -4 -3 1300.5 54.19
-3 -4 -3 1321.62 54.9
-3 4 -3 1391.13 57.27
3 4 3 1373.44 56.72
-3 4 -3 1422.74 66.12
-3 4 -3 1322.06 57.2
-3 4 -3 1259.11 64.13
3 4 3 1428.48 63.33
-3 4 -3 1450.81 56.85
-4 -4 -3 9.83 2.45
4 -4 3 10.66 1.99
4 -4 3 12.89 2.03
-4 4 -3 9.29 9.65
-4 4 -3 12.79 2.14
-4 4 -3 -9.94 10.8
-4 4 -3 12.15 2.09
4 4 3 11.54 8.59
4 4 3 10.42 1.64
-5 -4 -3 150.9 9.16
5 -4 3 148.64 8.04
5 4 3 158.76 8.23
-5 4 -3 150.24 8.47
6 -4 3 138.76 9.19
-6 -4 -3 116.26 8.89
6 -4 3 125.23 7.57
-6 4 -3 122.24 9.06
6 4 3 133.82 8.64
7 -5 -3 319.52 15.34
7 -5 -3 341.05 17.07
-7 5 3 317.96 14.31
7 5 -3 304.76 15.78
6 -5 -3 223.77 33.27
-6 -5 3 199.26 28.05
6 -5 -3 241.84 12.52
6 -5 -3 244.81 11.59
-6 -5 3 234.78 11.66
6 5 -3 251.82 36.85
-6 5 3 267.18 35.53
6 5 -3 256.42 10.85
-6 5 3 237.27 11.35
-6 5 3 258.17 12.28
6 5 -3 250.12 12.71
-6 5 3 249.64 14.09
-5 -5 3 368.51 16.72
5 -5 -3 374.16 17.17
-5 -5 3 343.54 32.59
5 -5 -3 299.51 28.96
5 -5 -3 374.24 16.49
-5 -5 3 369.84 16.14
-5 5 3 384.09 36.03
-5 5 3 347.93 16.69
5 5 -3 337.66 16.17
5 5 -3 349.87 15.86
-5 5 3 350.66 15.6
5 5 -3 344.03 33.84
5 5 -3 373.18 15.23
-5 5 3 339.97 15.13
5 5 -3 356.27 15.2
-4 -5 3 337.16 14.22
-4 -5 3 310.06 25.76
4 -5 -3 297.12 25
-4 -5 3 340.38 14.64
4 -5 -3 308.13 14.95
4 -5 -3 324.6 14.75
-4 5 3 292.27 27.45
-4 5 3 322.43 14.65
4 5 -3 293.66 13.5
4 5 -3 318.85 13.65
-4 5 3 308.68 14.63
-4 5 3 307.19 13.18
4 5 -3 326.87 26.53
4 5 -3 310.99 14.2
4 5 -3 306.83 13.8
3 -5 -3 11.6 1.72
3 -5 -3 8.79 1.21
3 -5 -3 11.34 1.82
3 -5 -3 4.81 6.29
-3 -5 3 1.72 7.54
-3 -5 3 11.16 1.71
-3 -5 3 8.86 1.31
3 5 -3 21.43 8
3 5 -3 7.45 1.38
-3 5 3 6.85 1.61
3 5 -3 7.92 1.29
-3 5 3 8.18 1.82
3 5 -3 12.32 1.63
-3 5 3 9.34 1.03
-3 5 3 16.15 9.4
-2 -5 3 126.99 12.62
2 -5 -3 103.87 4.76
2 -5 -3 109.76 10.1
2 -5 -3 110.93 5.73
-2 -5 3 106.86 5.06
-2 -5 3 107.09 5.53
2 -5 -3 103.17 5.54
2 5 -3 109.42 12.11
2 5 -3 107.6 5.59
-2 5 3 113.98 5
-2 5 3 117.95 13.4
-2 5 3 113.4 5.83
2 5 -3 113.03 5.31
2 5 -3 110.42 5.73
-2 5 3 121.37 6.19
-1 -5 3 787.23 31.11
1 -5 -3 794.87 31.77
1 -5 -3 728.18 31.27
-1 -5 3 746.03 36.86
-1 -5 3 722.76 31.6
1 -5 -3 747.68 30.88
-1 5 3 734.33 35.26
-1 5 3 725.63 30.7
1 5 -3 780.23 37.24
1 5 -3 744.19 31.72
-1 5 3 810.23 31.01
-1 5 3 757.16 31.54
-1 5 3 722.24 35.7
1 5 -3 725 31.04
1 5 -3 743.02 30.88
0 -5 3 1889.76 79.63
0 -5 -3 2040.8 79.11
0 -5 -3 1904.23 79.51
0 -5 -3 1947.2 78.98
0 5 -3 2059.78 80.45
0 5 3 1960.77 82.93
0 5 -3 1890.41 87.65
0 5 -3 1918.27 80.31
0 5 -3 1924.39 80.03
0 5 3 1999.46 82.76
0 5 3 1972.23 80.44
0 5 3 2008.76 80.12
1 -5 3 468.44 20.6
-1 -5 -3 467.99 19.83
-1 -5 -3 482.05 22.52
1 -5 3 487.94 20.5
-1 -5 -3 485.43 20.31
-1 -5 -3 490.42 20.27
1 -5 3 466.46 20.48
1 5 3 476.44 22.96
-1 5 -3 479.49 20.93
-1 5 -3 534.41 21.16
-1 5 -3 513.66 21.16
1 5 3 469.18 21.1
-1 5 -3 498.72 26.5
-2 -5 -3 307.96 13.11
2 -5 3 278.85 13.08
-2 -5 -3 292.04 16.18
-2 -5 -3 283.59 12.49
-2 -5 -3 288.53 12.43
2 -5 3 276.94 13.11
-2 -5 -3 294.97 12.77
2 -5 3 294.3 13.3
-2 5 -3 261.54 12.36
-2 5 -3 278.12 18.64
-2 5 -3 287.52 12.55
-2 5 -3 268.58 19.47
2 5 3 284.03 11.96
-2 5 -3 269.17 12.35
2 5 3 291.57 16.16
2 5 3 268.32 12.65
-3 -5 -3 334.13 13.94
-3 -5 -3 322.97 15.19
-3 -5 -3 374.59 14.78
3 -5 3 333.51 15.23
-3 -5 -3 328.18 13.97
-3 -5 -3 313.56 20.03
3 -5 3 319.25 15.05
-3 5 -3 290.24 23.15
3 5 3 331.24 14.52
-3 5 -3 324.68 24.41
-3 5 -3 353.21 15.19
-3 5 -3 361.56 14.95
3 5 3 286.54 21.44
3 5 3 319.98 15.37
-3 5 -3 354.65 15.44
4 -5 3 112.16 6.54
-4 -5 -3 106.18 6.28
4 -5 3 99.1 6.04
-4 5 -3 99.69 6.21
4 5 3 84.55 12.52
-4 5 -3 115.18 18.35
4 5 3 103.32 5.6
-4 5 -3 111.37 6.19
5 -5 3 272.67 13.15
5 -5 3 291.62 13.82
-5 -5 -3 258.9 13.81
5 5 3 287.76 13.37
-5 5 -3 283.78 14.07
-5 5 -3 287.61 13.84
6 -5 3 125.07 8.58
6 -5 3 121.88 7.75
6 5 3 120.94 7.52
-6 5 -3 115.22 8.13
7 -6 -3 312.72 15.04
-7 6 3 300.49 14.07
7 6 -3 316.81 15.77
6 -6 -3 433.78 44.93
6 -6 -3 424.41 18.92
6 -6 -3 405.15 19.77
6 6 -3 399.65 16.85
-6 6 3 428.93 17.8
-6 6 3 465.32 47.37
6 6 -3 402.76 18.93
6 6 -3 374.21 42.54
6 6 -3 400.63 16.83
-6 6 3 405.8 18.5
-5 -6 3 98.23 5.92
5 -6 -3 94.84 16.61
5 -6 -3 109.33 6.1
-5 -6 3 102.8 6.55
-5 -6 3 77.47 18.18
5 -6 -3 102.01 6.62
5 6 -3 108.97 5.3
-5 6 3 104 6.06
-5 6 3 101.32 22.63
5 6 -3 103.86 6.08
-5 6 3 105.35 5.27
-5 6 3 103.95 7.25
5 6 -3 103.81 6.29
5 6 -3 83.84 22.63
5 6 -3 100.47 5.21
4 -6 -3 204.64 10.6
4 -6 -3 189.53 21.39
-4 -6 3 230.64 23.93
-4 -6 3 217.46 9.86
-4 -6 3 219.53 10.16
4 -6 -3 212 10.36
-4 6 3 235.19 11.36
4 6 -3 214.87 10.59
-4 6 3 223.86 9.73
-4 6 3 217.26 25.54
-4 6 3 218.78 11.28
4 6 -3 226.46 10.01
4 6 -3 208.09 10.29
4 6 -3 234.68 23.2
-3 -6 3 604.54 24.2
3 -6 -3 507.42 24.62
-3 -6 3 616.46 24.39
3 -6 -3 586.89 23.97
3 -6 -3 604.53 33.4
-3 -6 3 572.05 33.63
-3 -6 3 560.44 24.33
3 -6 -3 557.35 24.78
-3 6 3 559.09 24.54
-3 6 3 596.88 35.54
-3 6 3 573.27 23.55
3 6 -3 570.04 33.91
3 6 -3 555.45 24.27
3 6 -3 568.31 24.04
-3 6 3 577.21 24.87
-2 -6 3 1835.53 78.75
-2 -6 3 1749.15 70.21
2 -6 -3 1661.73 70.85
2 -6 -3 1651.58 69.89
2 -6 -3 1754.89 70.69
-2 -6 3 1698.18 70.66
-2 6 3 1885.71 73.11
2 6 -3 1719.28 72.38
2 6 -3 1803.63 72.49
2 6 -3 1656.92 72.19
2 6 -3 1789.19 80.57
-2 6 3 1777.63 72.54
1 -6 -3 1117.65 47.51
-1 -6 3 1140.39 47.94
1 -6 -3 1195.92 48.03
1 -6 -3 1127.06 47.21
-1 -6 3 1167.16 47.47
-1 -6 3 1205.43 54.61
1 6 -3 1102.64 46.64
-1 6 3 1076.33 46.36
1 6 -3 1188.65 46.94
-1 6 3 1223.41 47.3
-1 6 3 1106.45 51.49
-1 6 3 1191.64 46.57
1 6 -3 1178.19 53.44
1 6 -3 1038.32 46.51
-1 6 3 1116.94 52
0 -6 3 1314.08 54.9
0 -6 3 1402.5 55.42
0 -6 3 1378.18 61.4
0 -6 -3 1217.64 55.07
0 -6 -3 1426.57 58.98
0 -6 -3 1344.03 54.74
0 -6 -3 1308.45 54.57
0 6 3 1314.43 58.79
0 6 -3 1377.05 55.64
0 6 -3 1322.29 61.19
0 6 3 1325.16 55.5
0 6 3 1440.51 56.52
0 6 -3 1413.97 55.82
0 6 -3 1289.65 55.44
-1 -6 -3 93.06 4.83
-1 -6 -3 97.84 4.41
1 -6 3 95.7 5.11
-1 -6 -3 97.04 4.95
1 -6 3 110.61 5.33
-1 -6 -3 91.49 8.23
-1 -6 -3 95.73 4.4
1 -6 3 85.56 5.17
-1 6 -3 93.26 5.07
-1 6 -3 91.45 4.78
-1 6 -3 105.78 5.15
1 6 3 87.18 4.92
1 6 3 92.83 7.7
2 -6 3 319.75 15.18
-2 -6 -3 326.14 14.58
-2 -6 -3 348.1 14.43
-2 -6 -3 340.48 15.17
-2 -6 -3 339.69 18.97
2 -6 3 390.54 15.65
2 -6 3 322.48 15.25
2 6 3 318.55 15.37
2 6 3 348.58 20.11
-2 6 -3 358.62 24.19
-2 6 -3 327.55 15.09
-2 6 -3 342.7 23.18
-2 6 -3 351.34 15.32
-2 6 -3 363.5 15.26
-3 -6 -3 274.82 11.88
3 -6 3 270.27 12.55
3 -6 3 260.11 12.41
-3 -6 -3 245.85 12.43
-3 -6 -3 261.3 11.13
-3 -6 -3 265.11 11.17
-3 -6 -3 279.73 17.92
-3 6 -3 296.88 13.15
3 6 3 303.94 20.79
-3 6 -3 291.3 22.86
3 6 3 281.61 12.44
-3 6 -3 262.83 12.86
3 6 3 305.8 13.67
-3 6 -3 297.43 23.62
-3 6 -3 246.78 13.13
4 -6 3 243.61 11.81
-4 -6 -3 242.93 11.53
4 -6 3 242.68 11.98
-4 6 -3 201.63 23.85
-4 6 -3 238.86 11.88
4 6 3 258.66 11.41
4 6 3 265.94 21.89
-4 6 -3 252.93 12.1
-5 -6 -3 230.79 12.43
5 -6 3 244.14 12.08
5 -6 3 249.19 12.79
5 6 3 269.56 12.07
-5 6 -3 244.45 12.8
-5 6 -3 244.59 12.85
6 -6 3 95.8 9.11
6 -6 3 87.14 6.85
6 6 3 95.75 6.48
-6 6 -3 95.58 8.25
6 -7 -3 477.59 21.64
6 -7 -3 483.81 22.66
6 -7 -3 498.24 49.11
6 7 -3 505.83 49.91
-6 7 3 491.39 50.08
6 7 -3 461.61 21.79
-6 7 3 463.57 21.5
6 7 -3 469.82 21.83
-6 7 3 521.85 20.85
-5 -7 3 96.66 19.54
5 -7 -3 62.52 15.54
-5 -7 3 71.58 5.43
5 -7 -3 71.08 5.46
-5 -7 3 77.98 5.19
5 -7 -3 74.88 5.1
-5 7 3 86.86 22.35
5 7 -3 64 3.76
5 7 -3 71.44 3.85
5 7 -3 67.48 4.73
5 7 -3 79.64 23.82
-5 7 3 65.74 3.82
5 7 -3 70.17 4.92
-4 -7 3 346.66 29.18
4 -7 -3 356.45 17.36
-4 -7 3 405.49 16.89
4 -7 -3 373.03 28.14
-4 -7 3 398.44 16.76
4 -7 -3 383.48 17.27
4 7 -3 407.1 31.95
4 7 -3 409.15 17
-4 7 3 360.64 16.23
-4 7 3 385.88 17.95
-4 7 3 376.82 17.68
4 7 -3 390.86 17.14
-4 7 3 359.47 32.26
4 7 -3 375.74 16.94
-3 -7 3 262.62 22.42
3 -7 -3 271.78 11.64
3 -7 -3 259.62 12.35
-3 -7 3 273.74 11.86
-3 -7 3 266.54 11.87
3 -7 -3 259.23 12.41
-3 -7 3 265.95 12.05
3 7 -3 276.95 11.97
-3 7 3 284.44 12.54
3 7 -3 268.72 12.07
3 7 -3 277.23 11.87
3 7 -3 243.41 21.23
-3 7 3 248.91 12.69
-3 7 3 248.87 11.38
-3 7 3 264.9 23.38
2 -7 -3 158.68 7.25
-2 -7 3 165.66 7.57
2 -7 -3 162.48 8.13
-2 -7 3 155.41 15.51
-2 -7 3 167.16 7.96
2 -7 -3 165.7 7.87
-2 7 3 144.73 7.89
2 7 -3 154.78 7.16
2 7 -3 151.16 7.23
-2 7 3 155.76 15.82
2 7 -3 144.38 14.21
-2 7 3 159.33 6.84
-2 7 3 162.74 7.52
2 7 -3 149.35 7.34
-2 7 3 139.11 13.2
-1 -7 3 338.64 14.17
1 -7 -3 369.2 14.26
1 -7 -3 312.38 13.9
1 -7 -3 328.69 14.64
-1 -7 3 303.71 14.52
-1 -7 3 305.53 21.39
-1 7 3 337.31 20.49
-1 7 3 336.07 19.61
1 7 -3 330.82 14.72
-1 7 3 340.38 14.37
1 7 -3 337.07 14.62
-1 7 3 384.46 14.4
1 7 -3 303.51 20.61
1 7 -3 298.18 14.37
-1 7 3 351.65 15.2
1 7 -3 327.89 14.5
0 -7 -3 1474.84 57.86
0 -7 -3 1435 58.24
0 -7 -3 1392.47 57.56
0 -7 3 1362.32 58.41
0 -7 3 1420.08 65.31
0 -7 -3 1453.69 62.8
0 -7 3 1361.3 57.95
0 7 -3 1517.35 59.28
0 7 -3 1467.71 66.38
0 7 3 1361.33 59.12
0 7 -3 1385.01 59.11
0 7 3 1452.27 63.46
0 7 3 1478.69 59.59
0 7 -3 1449 59.41
-1 -7 -3 488.85 21.74
-1 -7 -3 538.86 21.91
-1 -7 -3 487.88 30.93
1 -7 3 523.78 22.09
-1 -7 -3 554.72 21.18
1 -7 3 503.46 29.61
1 -7 3 510.01 22.11
-1 -7 -3 518.09 21.13
1 -7 3 483.86 22.22
1 7 3 500.03 22.21
-1 7 -3 507.37 21.99
-1 7 -3 548.77 22.2
-1 7 -3 528.23 22.26
-1 7 -3 503.31 28.54
2 -7 3 746.04 32.54
2 -7 3 781.94 32.65
-2 -7 -3 763.56 36.63
-2 -7 -3 726 32.2
2 -7 3 765.12 32.47
-2 -7 -3 776.14 31.43
-2 -7 -3 793.53 31.67
2 7 3 759.93 31.96
-2 7 -3 661.24 39.37
-2 7 -3 747.84 42.89
-2 7 -3 749.27 31.62
-2 7 -3 731.65 31.5
2 7 3 786.24 37.32
-2 7 -3 787.72 31.78
-3 -7 -3 300.58 12.86
3 -7 3 291.71 13.69
-3 -7 -3 296.38 12.25
3 -7 3 298.24 13.8
-3 -7 -3 277.05 12.32
3 7 3 311.85 24.17
3 7 3 300.66 13.21
-3 7 -3 304.13 14
-3 7 -3 320.34 14.91
-3 7 -3 289.85 13.87
3 7 3 307.22 14.49
-3 7 -3 305.84 24.82
-3 7 -3 299.31 24.47
-4 -7 -3 10.19 2.3
4 -7 3 11.84 2.2
4 -7 3 15.26 2.45
-4 7 -3 6.97 2.54
4 7 3 3.46 9.8
-4 7 -3 9.77 2.14
-4 7 -3 3.87 15.43
4 7 3 10.38 1.66
-5 -7 -3 30.48 4.11
5 -7 3 28.96 4.27
5 -7 3 27.21 4.25
-5 7 -3 24.3 3.45
5 7 3 24.6 3.29
-6 -8 3 92.41 25.4
6 -8 -3 111.14 7.06
6 -8 -3 108.19 8.3
6 8 -3 108.55 6.95
-6 8 3 88.42 47.73
-6 8 3 96.35 7.47
-6 8 3 105.86 5.72
6 8 -3 112.26 28.51
6 8 -3 106.23 6.87
-5 -8 3 249.21 30.69
-5 -8 3 247.11 12.39
5 -8 -3 268.26 13.03
5 -8 -3 266.47 12.71
-5 -8 3 261.54 12.45
5 8 -3 269.88 11.53
5 8 -3 276.67 11.74
5 8 -3 271.89 12.81
5 8 -3 256.72 33.4
5 8 -3 266.12 12.82
-5 8 3 253.54 11.81
-5 8 3 241.94 36.86
-4 -8 3 101.08 5.58
4 -8 -3 92.56 5.87
-4 -8 3 108.85 5.76
4 -8 -3 93.19 5.44
4 -8 -3 99.11 5.92
-4 8 3 86.99 6.54
-4 8 3 92.99 4.58
4 8 -3 92.14 5.33
4 8 -3 96.54 26.81
-4 8 3 81.86 6.47
-4 8 3 114.84 20.17
4 8 -3 91.56 5.28
4 8 -3 84.73 5.52
-3 -8 3 72.56 4.22
3 -8 -3 74.02 4.02
-3 -8 3 77.73 14.31
3 -8 -3 62 4.27
-3 -8 3 64.52 4.17
3 -8 -3 72.6 4.66
-3 8 3 58.86 13.41
-3 8 3 66.19 5.03
3 8 -3 55 11.38
-3 8 3 78.91 12.53
-3 8 3 62.26 3.51
3 8 -3 69.75 4
-3 8 3 62.94 4.58
3 8 -3 61.21 3.9
3 8 -3 67.94 3.95
2 -8 -3 674.65 30.2
2 -8 -3 714.37 29.7
-2 -8 3 748.14 29.72
-2 -8 3 691.04 30.02
-2 -8 3 764.11 39.56
2 -8 -3 683.38 29.85
2 8 -3 703.65 29.71
-2 8 3 690.78 41.13
2 8 -3 672.09 29.75
-2 8 3 682.27 29.4
2 8 -3 735.38 39.22
2 8 -3 725.6 29.8
-2 8 3 786.14 30.04
-2 8 3 723.73 30.61
-2 8 3 666.4 38.24
-1 -8 3 503.81 20.82
1 -8 -3 490.55 20.07
1 -8 -3 497.19 20.79
-1 -8 3 494.4 20.27
1 -8 -3 401.12 20
1 8 -3 503.7 20.17
1 8 -3 456.58 19.87
-1 8 3 460.22 19.7
-1 8 3 480.54 19.67
-1 8 3 473.82 20.55
-1 8 3 487.93 26.86
1 8 -3 442.21 27.39
1 8 -3 453.82 19.81
1 8 -3 467.38 19.91
-1 8 3 430.01 25.98
0 -8 3 275.33 11.96
0 -8 -3 260.4 11.37
0 -8 -3 269.5 11.77
0 -8 -3 250.67 12
0 -8 3 265.75 12.38
0 -8 3 301.24 20.6
0 8 -3 265.84 12.6
0 8 3 279.78 12.65
0 8 -3 276.41 19.31
0 8 -3 297.35 12.75
0 8 -3 294.97 12.97
0 8 3 305.74 13.19
1 -8 3 142.1 6.77
-1 -8 -3 127.54 6.31
-1 -8 -3 124.43 11.84
1 -8 3 123.17 15.69
-1 -8 -3 115.96 5.46
-1 -8 -3 137.65 5.59
1 -8 3 118.35 6.49
-1 -8 -3 132.32 6.46
1 -8 3 124.43 6.81
-1 8 -3 129.5 14.85
1 8 3 115.01 6.42
1 8 3 130.28 6.62
1 8 3 128.12 11.89
-1 8 -3 131.29 6.6
-1 8 -3 123.45 6.27
-1 8 -3 129.67 6.42
-2 -8 -3 399.5 16.3
-2 -8 -3 381.47 16.7
2 -8 3 396.65 17.63
2 -8 3 396.11 17.76
-2 -8 -3 387.71 22.92
2 -8 3 403.89 17.8
-2 -8 -3 375.21 16.35
-2 -8 -3 408.77 17.49
-2 8 -3 382.08 17.06
-2 8 -3 347.38 24.65
-2 8 -3 396.75 17.09
-2 8 -3 389.55 16.9
2 8 3 373.55 23.29
2 8 3 395.67 17.36
-2 8 -3 371.09 26.09
3 -8 3 28.87 3.11
3 -8 3 28.24 3.28
-3 -8 -3 29.86 2.63
-3 -8 -3 28.91 1.89
-3 -8 -3 33.01 2.2
3 8 3 34.04 10.43
-3 8 -3 4.23 10.86
-3 8 -3 24.6 3.49
-3 8 -3 28.08 2.77
-3 8 -3 35.79 5.34
-3 8 -3 16.08 9.4
3 8 3 35.08 3.45
4 -8 3 270.74 13.38
4 -8 3 264.3 13.14
-4 -8 -3 274.1 12.42
4 8 3 267.53 23.4
4 8 3 264.41 11.79
-4 8 -3 235.98 31.4
4 8 3 253.49 13.36
-4 8 -3 269.02 28.76
-4 8 -3 275.78 12.82
5 -8 3 78.13 6.03
5 -8 3 82.7 6.85
5 8 3 70.11 4.76
-5 8 -3 83.68 6.62
-6 -9 3 128.64 27.56
6 -9 -3 171.59 10.52
6 -9 -3 175.81 9.54
6 9 -3 168.96 9.86
6 9 -3 174.13 30.18
-6 9 3 171.75 8.37
6 9 -3 168.6 9.29
-5 -9 3 190.76 10.05
-5 -9 3 200.15 30.17
5 -9 -3 212.74 10.53
5 -9 -3 202.34 10.69
-5 9 3 205.58 28.65
-5 9 3 158.86 28.25
-5 9 3 193.31 9.37
5 9 -3 208.69 9.06
5 9 -3 202.45 9.24
5 9 -3 216.72 10.58
5 9 -3 194.82 32.03
5 9 -3 207.83 10.27
-4 -9 3 789.72 32.97
4 -9 -3 771.17 33.72
-4 -9 3 796.62 33.23
4 -9 -3 775.71 33.05
4 -9 -3 805.71 33.84
-4 -9 3 759.34 48.66
-4 9 3 788.31 32.55
4 9 -3 760.21 50.46
4 9 -3 769.3 33.3
-4 9 3 765.37 33.91
4 9 -3 795.14 32.54
4 9 -3 788.57 33.16
-4 9 3 807.04 49.84
-3 -9 3 48.41 12.9
3 -9 -3 44.08 3.6
-3 -9 3 40.33 3.42
-3 -9 3 41 3.2
3 -9 -3 47.09 3.21
3 -9 -3 49.39 3.61
-3 9 3 43.4 12.54
-3 9 3 29.93 10.47
3 9 -3 47.31 3.14
-3 9 3 44.16 2.73
3 9 -3 42.47 3.08
-3 9 3 48.25 4.85
-3 9 3 39.09 4.02
3 9 -3 43.54 3.18
3 9 -3 42.74 11.71
2 -9 -3 142.55 6.45
-2 -9 3 137.97 6.72
2 -9 -3 119.87 6.64
2 -9 -3 139.22 7.17
-2 -9 3 134.87 6.99
-2 -9 3 140.89 18.12
2 9 -3 138.18 6.8
2 9 -3 128.6 6.58
-2 9 3 116.73 14.72
-2 9 3 143.27 17.56
2 9 -3 147.32 6.9
-2 9 3 132.12 6.41
2 9 -3 137.51 16.47
-2 9 3 131.07 6.9
2 9 -3 146.31 6.86
-2 9 3 141.36 7.88
1 -9 -3 987.4 40.9
-1 -9 3 1035.51 41.7
-1 -9 3 982.32 41.1
-1 -9 3 987.67 50.51
1 -9 -3 966.03 40.87
1 -9 -3 993.73 41.58
-1 9 3 937.17 48.18
1 9 -3 971.88 41.5
-1 9 3 944.2 41.27
1 9 -3 983.75 41.36
1 9 -3 1000.6 50.3
-1 9 3 1074.43 42.32
1 9 -3 1032.75 41.45
-1 9 3 1017.11 41.18
1 9 -3 1034.9 41.69
0 -9 3 319.42 14.31
0 -9 -3 320.02 13.68
0 -9 -3 323.59 20.91
0 -9 -3 303.74 13.09
0 -9 3 322.13 13.87
0 -9 -3 286.43 13.84
0 -9 3 308.44 23.02
0 9 -3 271 21.18
0 9 3 301.86 13.33
0 9 -3 316.19 13.35
0 9 3 295.52 19.76
0 9 -3 288.3 13.52
0 9 -3 297.27 13.31
0 9 3 315.71 13.87
1 -9 3 733.88 30.73
-1 -9 -3 712.85 30.32
1 -9 3 710.92 31.03
1 -9 3 684 30.63
-1 -9 -3 783.06 30.57
1 -9 3 723.92 40.49
-1 -9 -3 725.68 36.43
-1 -9 -3 716.06 29.29
1 9 3 694.4 30.28
1 9 3 732.38 36.37
-1 9 -3 744.38 30.19
1 9 3 671.79 30.16
-1 9 -3 756.77 30.18
-1 9 -3 672.85 30.26
-1 9 -3 736.21 38.85
2 -9 3 914.67 39.07
-2 -9 -3 924.02 44.95
2 -9 3 935.97 38.98
2 -9 3 824.81 38.95
-2 -9 -3 934.83 37.31
-2 -9 -3 944.16 38.04
-2 -9 -3 926.37 38.7
-2 -9 -3 956.22 37.36
2 9 3 929.23 40.49
2 9 3 964.82 46.92
-2 9 -3 950.69 51.1
-2 9 -3 989.15 40.34
-2 9 -3 973.27 40.12
-2 9 -3 935.62 40.28
-3 -9 -3 111.02 5.15
-3 -9 -3 109 5.19
3 -9 3 102.59 6.48
3 -9 3 103.45 6.24
-3 -9 -3 102.78 4.92
-3 9 -3 67.41 14.91
3 9 3 99.01 13.76
3 9 3 99.5 6.51
-3 9 -3 118.03 7.15
-3 9 -3 114.86 18.42
-3 9 -3 102.69 5.95
4 -9 3 40.72 4.13
4 -9 3 43.37 6.29
-4 9 -3 51.67 18.64
4 9 3 42.68 3.27
-4 9 -3 39.45 4.31
5 -9 3 28.61 4.46
5 -9 3 21.47 5.36
-5 9 -3 23.9 3.43
5 9 3 26.93 3.15
6 -10 -3 12.1 3.29
6 -10 -3 6.94 3.42
-6 10 3 12.08 2.03
6 10 -3 10.16 2.75
6 10 -3 4.88 2.49
5 -10 -3 43.32 4.55
5 -10 -3 33.92 5.65
-5 -10 3 45.54 4.59
-5 -10 3 -5.06 17.35
-5 10 3 37.19 3.16
5 10 -3 32.67 3.83
5 10 -3 46.63 4.34
5 10 -3 36.16 3
-5 10 3 25.38 26.73
5 10 -3 45.31 2.95
5 10 -3 40.18 25.19
-4 -10 3 75.54 4.44
4 -10 -3 76.12 5.28
-4 -10 3 67.18 5.15
-4 -10 3 82.07 17.32
4 -10 -3 75.68 5.09
4 -10 -3 79.93 5.39
-4 10 3 56.63 20.66
-4 10 3 76.94 18.54
-4 10 3 62.91 3.93
4 10 -3 67.34 4.53
4 10 -3 50.41 19.72
4 10 -3 79.21 4.9
4 10 -3 69.47 4.2
3 -10 -3 62.64 4.27
-3 -10 3 57.3 4.24
-3 -10 3 68.15 4.31
-3 -10 3 82.6 15.66
3 -10 -3 66.14 4.17
3 -10 -3 69.31 4.7
3 10 -3 74.72 4.36
-3 10 3 76.21 4.05
3 10 -3 69.49 4.49
-3 10 3 62.58 5.07
3 10 -3 71.93 4.23
3 10 -3 45.62 12.29
-3 10 3 77.32 16.16
-3 10 3 111.06 17.77
2 -10 -3 351.67 14.7
-2 -10 3 343.01 15.33
2 -10 -3 301.47 14.79
-2 -10 3 339.99 14.94
-2 -10 3 341.93 26.11
2 -10 -3 350.28 15.54
-2 10 3 326.02 15.21
2 10 -3 353.16 15.23
-2 10 3 338.84 16.22
2 10 -3 330.5 15.2
2 10 -3 338.12 25.6
2 10 -3 354.91 15.08
2 10 -3 336.14 14.94
-2 10 3 350.82 14.93
-2 10 3 348.68 26.41
-2 10 3 383.61 27.8
1 -10 -3 1016.35 43.3
1 -10 -3 1024.23 42.69
-1 -10 3 1091.81 53.72
-1 -10 3 1017.29 43.42
1 -10 -3 1048.63 42.57
-1 -10 3 1019.33 42.91
-1 10 3 1076.14 43.1
-1 10 3 1043.42 52.33
1 10 -3 1024.65 43.29
1 10 -3 1024.34 43.54
1 10 -3 1038.91 43.63
1 10 -3 1062.84 43.35
-1 10 3 1033.64 43.34
1 10 -3 1070.31 53.45
-1 10 3 1060.58 44.26
0 -10 -3 43.37 3.11
0 -10 3 41.32 9.95
0 -10 3 39.56 3.16
0 -10 -3 37.11 2.92
0 -10 -3 47.54 9.04
0 -10 3 39.25 3.19
0 -10 -3 33.31 2.07
0 10 -3 39.98 2.86
0 10 -3 43.44 3.1
0 10 3 34.78 3.53
0 10 3 39.68 9.36
0 10 -3 38.06 3.26
0 10 -3 27.82 8.73
0 10 3 39.19 2.92
-1 -10 -3 30.65 8.02
1 -10 3 32.07 3.34
1 -10 3 33.82 3.24
1 -10 3 25.4 2.66
-1 -10 -3 27.77 3.1
1 -10 3 24.28 10.43
-1 -10 -3 35.83 2.63
-1 10 -3 17.42 8.71
-1 10 -3 31.77 3.45
1 10 3 30.34 9.02
-1 10 -3 37.37 3.2
1 10 3 25.63 3.32
-1 10 -3 31.99 2.64
1 10 3 32.66 2.81
-2 -10 -3 211.5 10.84
-2 -10 -3 224.37 10.17
2 -10 3 226.42 11
2 -10 3 245.11 11.48
-2 10 -3 206.61 10.57
2 10 3 219.19 10.58
-2 10 -3 224.96 21.02
2 10 3 203 21.43
-2 10 -3 204.42 10.4
-2 10 -3 212.18 10.13
3 -10 3 56.18 4.79
-3 -10 -3 55.09 3.58
-3 -10 -3 62.57 2.77
3 -10 3 56.67 4.64
-3 10 -3 23.03 14.45
-3 10 -3 55.95 15.59
-3 10 -3 60.63 4.07
3 10 3 52.3 11.75
3 10 3 53.14 4.72
-4 -10 -3 74.12 4.52
4 -10 3 84.36 5.83
4 -10 3 90.12 6.31
-4 10 -3 87.48 5.55
-4 10 -3 58.85 24.02
4 10 3 83.17 6.39
5 -10 3 15.4 4.04
5 10 3 25.94 3.16
-5 10 -3 38.12 5.26
6 -11 -3 145.52 9.41
6 -11 -3 140.6 9.56
6 11 -3 128.79 7.71
-6 11 3 124.86 7.09
6 11 -3 130.91 9.37
5 -11 -3 125.28 7.56
5 -11 -3 111.46 7.5
5 11 -3 124.33 6.31
5 11 -3 114.86 7.36
-5 11 3 111.61 6.22
5 11 -3 115.95 6.73
-5 11 3 111.38 31.25
5 11 -3 135.12 26.79
-4 -11 3 79.21 19.34
4 -11 -3 90.3 5.75
4 -11 -3 90.33 5.9
-4 -11 3 90.91 5.22
4 -11 -3 92.27 5.86
4 11 -3 82.66 5
4 11 -3 81.01 5.38
-4 11 3 118.01 21.55
4 11 -3 78.64 4.73
-4 11 3 78.66 20.38
4 11 -3 77.11 20.94
-4 11 3 79.67 4.57
-3 -11 3 47.84 3.7
3 -11 -3 42.8 3.68
-3 -11 3 48.12 4.01
3 -11 -3 50.7 4.07
3 -11 -3 48.97 3.72
-3 11 3 50.91 3.26
-3 11 3 49.39 4.76
3 11 -3 49.36 3.49
-3 11 3 36.39 16.56
3 11 -3 56.37 3.73
3 11 -3 46.57 3.76
3 11 -3 46.32 3.7
-3 11 3 50.29 14.38
2 -11 -3 75.5 5
-2 -11 3 67.02 14.81
-2 -11 3 78.88 4.91
2 -11 -3 78.93 4.56
2 -11 -3 81.75 4.55
-2 -11 3 82.48 5.02
2 11 -3 79.3 4.67
-2 11 3 85.5 5.02
-2 11 3 55.45 13.83
2 11 -3 89.62 14.93
-2 11 3 53.48 15
2 11 -3 74.11 4.33
-2 11 3 81.42 6.36
2 11 -3 86.9 4.94
2 11 -3 78.68 4.77
-2 11 3 80.26 4.43
-1 -11 3 351.75 28.54
1 -11 -3 364.21 15.96
-1 -11 3 375.44 16.27
1 -11 -3 348.39 16.47
-1 -11 3 351.1 16.61
1 -11 -3 396.13 15.72
-1 11 3 362.14 15.92
1 11 -3 365.74 16.16
1 11 -3 363.33 15.78
1 11 -3 366.34 16.25
-1 11 3 338.95 26.69
1 11 -3 369.84 15.84
1 11 -3 367.93 26.97
-1 11 3 352.09 16.81
-1 11 3 371.18 15.57
0 -11 3 4.57 1.61
0 -11 3 13.98 10.46
0 -11 3 6.99 1.98
0 -11 -3 20.21 8.8
0 -11 -3 8.99 1.81
0 -11 -3 6.18 1.36
0 -11 -3 7.12 0.85
0 11 3 3.55 1.99
0 11 -3 7.5 1.63
0 11 3 5.5 8.78
0 11 -3 6.76 1.93
0 11 -3 2.31 7.76
0 11 -3 10.19 1.71
0 11 3 5.68 1.53
1 -11 3 929.71 51.15
-1 -11 -3 930.81 38.71
-1 -11 -3 956.76 47.13
-1 -11 -3 874.19 38.43
1 -11 3 965.62 40.02
1 -11 3 874.67 39.25
1 -11 3 933.87 38.89
-1 11 -3 1009.52 40.04
1 11 3 977.71 40.27
1 11 3 866.88 48.67
-1 11 -3 908.79 50.3
1 11 3 970.13 40.2
-1 11 -3 954.09 40
2 -11 3 172.21 8.98
-2 -11 -3 171.85 8.02
2 -11 3 172.36 9.22
-2 11 -3 154.83 21.44
-2 11 -3 186.43 9.31
2 11 3 170.79 9.16
-2 11 -3 167.56 8.59
2 11 3 168.74 18.5
3 -11 3 15.65 2.66
3 -11 3 14.18 2.74
-3 -11 -3 13.63 1.55
-3 -11 -3 18.64 2.64
-3 11 -3 10.75 2.08
3 11 3 -2.73 10.47
-3 11 -3 1.56 12.45
3 11 3 18.92 2.84
4 -11 3 49.14 5.5
4 -11 3 56.97 6.64
4 11 3 52.4 5.95
-4 11 -3 56.2 5.03
5 -11 3 87.2 8.73
5 -11 3 92.09 8.43
5 11 3 92.93 9.15
-5 11 -3 83.59 6.53
5 -12 -3 19.24 3.84
5 -12 -3 12.8 3.95
-5 -12 3 34.64 23.04
5 -12 -3 17.45 3.63
-5 12 3 15.74 2.32
5 12 -3 16.69 3.66
-5 12 3 -3.87 21.47
5 12 -3 13.85 2.19
5 12 -3 6.27 24.85
-4 -12 3 15.15 2.28
-4 -12 3 25.87 17.8
4 -12 -3 17.86 3.12
4 -12 -3 17.23 2.92
4 -12 -3 17.19 3.1
-4 12 3 25.32 20.52
4 12 -3 -0.46 22.09
4 12 -3 16.75 2.8
4 12 -3 20.32 2.47
4 12 -3 19.73 2.42
-4 12 3 -7.69 21.55
-4 12 3 18.59 2.46
-3 -12 3 456.32 20.16
3 -12 -3 454.66 19.86
-3 -12 3 468.83 37.05
3 -12 -3 451.56 20.07
3 -12 -3 447.46 20.52
3 12 -3 467.88 19.38
-3 12 3 416.11 37.95
3 12 -3 427.52 36.39
-3 12 3 438.17 19.34
3 12 -3 454.09 19.52
3 12 -3 455.16 20
-3 12 3 438.27 38.17
3 12 -3 402.69 19.24
-3 12 3 494.34 20.39
2 -12 -3 187.53 9.03
-2 -12 3 182.12 9.48
2 -12 -3 171.22 8.81
-2 -12 3 214.23 9.56
-2 -12 3 183.1 24.21
2 -12 -3 189.28 9.64
2 12 -3 186.57 8.71
2 12 -3 195.81 9.34
2 12 -3 162.45 21.83
-2 12 3 200.14 9.25
2 12 -3 184.76 9.19
-2 12 3 177.57 22.49
-2 12 3 158.82 23.71
-2 12 3 185.15 8.86
2 12 -3 186.11 8.85
1 -12 -3 68.88 3.8
-1 -12 3 64.51 4.7
1 -12 -3 72.82 4.66
-1 -12 3 61.41 14.98
1 -12 -3 77.34 4.48
-1 -12 3 74.81 4.8
-1 12 3 69.75 4.27
1 12 -3 77.95 4.3
1 12 -3 75.75 4.58
1 12 -3 70.56 4.41
-1 12 3 80.18 6.1
1 12 -3 73.56 5.05
1 12 -3 71.41 14.3
-1 12 3 72.23 13.58
-1 12 3 76.24 4.14
0 -12 -3 30.99 1.84
0 -12 3 47.77 13.46
0 -12 -3 48.41 11.65
0 -12 -3 43.28 3.3
0 -12 3 42.1 3.88
0 -12 3 35.18 3.44
0 -12 -3 38.62 3.47
0 12 -3 35.76 3.06
0 12 3 37.5 3.07
0 12 -3 39.94 4.02
0 12 3 38.03 12.6
0 12 -3 42.07 11.5
0 12 3 38.31 4.33
0 12 -3 39.54 3.31
-1 -12 -3 120.15 6.77
1 -12 3 121.16 7.02
1 -12 3 116.76 6.51
-1 -12 -3 116.75 6.14
-1 -12 -3 100.27 14.81
1 -12 3 83.8 17.65
-1 12 -3 137.91 19.23
-1 12 -3 116.1 6.43
-1 12 -3 117.98 6.68
1 12 3 109.11 6.58
1 12 3 130.29 7.11
1 12 3 98.48 14.98
-2 -12 -3 94.6 4.87
2 -12 3 81.75 5.99
2 -12 3 84.86 5.57
-2 12 -3 105.98 8.95
-2 12 -3 83.06 15.72
2 12 3 80.35 5.61
2 12 3 72.44 12.97
-2 12 -3 85.28 5.28
3 -12 3 307.1 14.53
-3 -12 -3 272.47 12.34
3 -12 3 283.4 13.99
4 -12 3 50.78 6.17
4 -12 3 47.32 6.24
-4 12 -3 42.55 4.82
4 12 3 54.59 6.36
5 -13 -3 61.96 6.7
-5 -13 3 112.64 30
5 -13 -3 72.82 6.39
5 13 -3 71.8 6.76
5 13 -3 68.37 4.87
-5 13 3 53 26.17
5 13 -3 122.84 44.09
-5 13 3 73.13 4.89
4 -13 -3 13.35 3.34
-4 -13 3 44.45 20.73
4 -13 -3 16.14 3.22
4 -13 -3 12.35 2.47
4 13 -3 15.16 2.6
4 13 -3 15.55 2.43
4 13 -3 12.95 2.83
-4 13 3 35.07 19.42
4 13 -3 23.92 27.31
4 13 -3 20.3 2.86
-4 13 3 16.14 2.23
3 -13 -3 134.53 7.04
3 -13 -3 126.4 7.59
-3 -13 3 128.92 7.2
-3 -13 3 95.15 21.39
3 -13 -3 121.53 7.2
3 13 -3 148.38 23.54
3 13 -3 155.93 7.77
-3 13 3 137.38 23.81
3 13 -3 152.25 7.23
-3 13 3 161.88 25.55
-3 13 3 144.07 8.47
-3 13 3 126.66 7.16
3 13 -3 149.03 7.3
3 13 -3 132.49 7.82
2 -13 -3 164.82 8.4
2 -13 -3 171.84 8.97
-2 -13 3 156.38 8.75
2 -13 -3 170.01 8.07
-2 13 3 194.08 29.12
-2 13 3 173.19 8.45
2 13 -3 179.48 8.05
2 13 -3 173.31 8.7
-2 13 3 163.77 8.17
-2 13 3 103.1 19.47
2 13 -3 165.36 7.88
2 13 -3 151.44 8.36
-1 -13 3 138.07 19.98
1 -13 -3 129.07 6.6
1 -13 -3 118.18 5.64
-1 -13 3 111.15 6.92
1 -13 -3 109.34 6.55
1 13 -3 105.8 5.5
1 13 -3 98.35 6.39
-1 13 3 114.71 19.99
-1 13 3 108.38 19.42
-1 13 3 108.23 5.87
1 13 -3 101.68 5.67
-1 13 3 108.27 7.62
1 13 -3 105.21 5.96
-1 13 3 100.65 5.29
1 13 -3 116.45 17.7
0 -13 -3 183.44 9.49
0 -13 -3 192.59 9.45
0 -13 3 202.19 10.2
0 -13 3 159.68 25.03
0 13 3 204.96 10.61
0 13 -3 194.32 9.62
0 13 -3 184.69 21.72
0 13 -3 183.97 9.29
0 13 3 194.87 9.56
0 13 3 191.99 21.74
-1 -13 -3 86.83 5.04
1 -13 3 93.17 5.51
1 -13 3 77.88 5.78
1 -13 3 84.18 18.71
-1 13 -3 101.66 6.29
1 13 3 92.72 6.54
1 13 3 91.14 14.72
1 13 3 109.72 6.19
-1 13 -3 101.3 5.88
-1 13 -3 76.97 16.01
2 -13 3 27.47 3.62
-2 -13 -3 31.86 12.05
2 -13 3 27.26 4.01
2 -13 3 6.65 17.06
-2 -13 -3 30.11 2.7
-2 13 -3 36.13 3.34
-2 13 -3 46.11 15.24
2 13 3 35.11 4.26
2 13 3 27.45 11.02
2 13 3 26.33 3.4
3 -13 3 7.02 2.61
3 -13 3 2.44 2.57
-3 -13 -3 7.9 1.62
-3 13 -3 9.88 2.49
-3 13 -3 15.35 19.76
3 13 3 3.6 2.77
4 -13 3 52.93 6.85
4 -13 3 49.82 6.04
-4 13 -3 62.79 5.89
4 13 3 54.95 7.05
5 -14 -3 74.85 6.95
5 14 -3 74.31 4.99
-5 14 3 74.23 5.07
5 14 -3 75.57 7.4
-4 -14 3 23.34 2.92
4 -14 -3 23.69 4.16
4 -14 -3 15.43 2.48
-4 14 3 21.09 2.62
4 14 -3 22.73 3.4
4 14 -3 22.56 2.59
4 14 -3 41.43 22.55
4 14 -3 20.87 3.67
-4 14 3 1.03 19.78
-3 -14 3 96.8 6.05
3 -14 -3 92.39 6.38
-3 -14 3 45.2 20.93
3 -14 -3 92.96 5.58
3 -14 -3 82.69 6.58
3 14 -3 84.66 5.98
-3 14 3 92.76 5.38
-3 14 3 88.5 6.94
3 14 -3 88.8 5.05
3 14 -3 94.65 5.26
3 14 -3 91.41 20.16
-3 14 3 64.42 18.17
3 14 -3 83.87 5.97
2 -14 -3 283.48 13.47
2 -14 -3 296.45 12.99
2 -14 -3 286.14 13.96
-2 -14 3 289.33 13.96
-2 -14 3 281.06 33.6
2 14 -3 302.75 33.53
2 14 -3 295.91 13.74
-2 14 3 293.2 13.37
2 14 -3 294.95 12.94
2 14 -3 267.7 13.62
2 14 -3 304.19 12.98
-2 14 3 303.75 13.45
-2 14 3 234.51 32.24
-2 14 3 263.52 28.58
1 -14 -3 25.04 3.34
-1 -14 3 13.49 15.29
1 -14 -3 36.05 3.91
1 -14 -3 36.41 2.45
-1 -14 3 44.38 4.06
1 14 -3 37.78 3.37
1 14 -3 35.98 2.94
-1 14 3 35.49 14.88
1 14 -3 34.71 3.49
-1 14 3 35.56 2.84
-1 14 3 40.58 13.24
-1 14 3 37.17 3.22
1 14 -3 58.19 16.37
0 -14 -3 26.13 3.12
0 -14 3 32.99 3.91
0 -14 3 48.19 16.19
0 14 -3 33 3.2
0 14 3 40.53 12.45
0 14 3 36.74 3.34
0 14 -3 29.07 3.66
0 14 -3 23.9 14.21
0 14 3 33.66 5.01
-1 -14 -3 21.77 12.2
-1 -14 -3 47.83 3.63
1 -14 3 38.96 4.07
1 -14 3 66.75 18.13
1 -14 3 46.87 3.98
-1 14 -3 42.15 3.84
1 14 3 13.08 11.05
1 14 3 52.45 5.33
-1 14 -3 46.4 4.67
1 14 3 43.19 3.97
-1 14 -3 31.72 15.79
-2 -14 -3 112.79 5.82
2 -14 3 102.78 6.8
2 -14 3 105.78 7.2
-2 14 -3 101.37 6.3
2 14 3 106.25 7
-3 -14 -3 154.58 7.5
3 -14 3 164.54 10.36
3 -14 3 157.88 9.25
-3 14 -3 142.31 8.61
-3 14 -3 169.35 44.84
3 14 3 153.45 9.64
4 -14 3 36.16 5.52
4 -14 3 47.49 6.68
-4 14 -3 39.59 5.38
4 14 3 43.47 6.63
-4 -15 3 56.18 5.18
-4 -15 3 80.84 27.03
4 -15 -3 52.86 5.23
4 -15 -3 63.17 6.31
4 15 -3 65.98 4.2
-4 15 3 50.08 4.43
4 15 -3 67.33 23.61
4 15 -3 61.37 6.33
3 -15 -3 127.96 6.81
-3 -15 3 108.39 25.37
3 -15 -3 109.2 7.83
-3 -15 3 113.26 7.21
3 15 -3 114.79 6.07
3 15 -3 117.46 7.32
3 15 -3 120.47 6.26
3 15 -3 63.66 30.14
-3 15 3 107.15 7.82
3 15 -3 110.73 6.98
-3 15 3 128.41 6.72
-2 -15 3 21.19 21.76
2 -15 -3 20.97 2.6
2 -15 -3 22.54 5.16
-2 -15 3 22.17 3.08
-2 15 3 21.33 3
2 15 -3 29.74 3.14
-2 15 3 27.98 3.18
-2 15 3 11.31 15.74
2 15 -3 26.31 3.64
2 15 -3 28.23 2.67
2 15 -3 26.85 22.21
-1 -15 3 25.97 3.8
-1 -15 3 27.39 22.58
1 -15 -3 22.19 2.02
1 -15 -3 19.9 2.93
1 15 -3 21.23 2.95
-1 15 3 23.02 2.97
1 15 -3 18.83 15.48
-1 15 3 19.36 2.41
1 15 -3 19.64 2.45
-1 15 3 42.36 14.07
1 15 -3 19.53 2.49
-1 15 3 18.24 15.6
0 -15 -3 31.09 15.51
0 -15 3 31.31 18
0 -15 -3 51.14 4.07
0 -15 3 41.08 4.2
0 15 -3 42.94 3.88
0 15 3 42.72 3.71
0 15 -3 49.09 4.34
0 15 3 28.87 12.34
0 15 -3 19.97 15.03
-1 -15 -3 149.23 7.73
1 -15 3 122.14 11.09
1 -15 3 179.86 26.81
1 -15 3 151.22 8.1
-1 15 -3 111.17 20.31
-1 15 -3 127.09 7.92
1 15 3 140.93 7.9
1 15 3 130.08 8.6
-1 15 -3 133.29 8.15
-2 -15 -3 70.83 4.8
2 -15 3 79.75 5.74
2 -15 3 87.34 7.02
-2 15 -3 72.09 5.47
2 15 3 84.06 6.63
2 15 3 58.59 5.85
3 -15 3 12.62 4.09
-3 -15 -3 10.47 1.87
3 -15 3 12.34 3.22
-3 15 -3 12.96 3.19
3 15 3 12.51 3.99
4 -16 -3 32.35 5.1
4 -16 -3 32.91 4.47
-4 -16 3 31.4 3.95
4 16 -3 45.38 6.06
3 -16 -3 76.62 6.47
-3 -16 3 56 5.57
3 -16 -3 76.31 5.07
3 16 -3 69.16 4.54
3 16 -3 68.49 24.42
-3 16 3 78.66 5.09
3 16 -3 70.06 6.58
-2 -16 3 117.01 7.19
2 -16 -3 97.43 5.72
2 -16 -3 108.88 7.44
-2 -16 3 165.42 27.64
2 16 -3 119.19 7.44
-2 16 3 133.1 7.45
2 16 -3 117.09 6.22
2 16 -3 118.17 6.34
2 16 -3 116.09 28.5
-2 16 3 115.2 6.87
-1 -16 3 48.61 4.98
1 -16 -3 37.3 4.42
1 -16 -3 43.89 2.74
-1 -16 3 102.08 22.14
1 16 -3 22.19 22.75
1 16 -3 43.49 4.33
1 16 -3 47.85 3.43
-1 16 3 40.8 3.2
-1 16 3 49.42 4
1 16 -3 46.06 4.09
0 -16 3 112.02 29.18
0 -16 -3 143.66 7.57
0 -16 3 106.04 10.4
0 16 -3 131.85 21.18
0 16 3 123.9 7.66
0 16 -3 125.84 7.45
0 16 -3 129.76 7.55
-1 -16 -3 11.32 2.23
1 -16 3 11.99 3.22
-1 16 -3 11.96 2.76
1 16 3 8.58 2.36
-2 -16 -3 170.65 8.5
2 -16 3 170.42 9.5
2 -16 3 147.65 10.18
-2 16 -3 191.53 10.24
2 16 3 177.46 11
3 -16 3 92.82 8.75
3 -16 3 101.42 8.23
3 16 3 116.03 8.9
-3 16 -3 103.3 7.71
3 -17 -3 13.49 2.5
-3 -17 3 11.73 3.06
3 -17 -3 14.51 3.14
3 17 -3 13.38 3.56
-3 17 3 16.69 2.65
2 -17 -3 91.52 5.13
-2 -17 3 94.91 6.86
2 -17 -3 72.7 6.71
-2 -17 3 47.75 27.95
2 17 -3 90.97 6.53
2 17 -3 79.47 4.88
1 -17 -3 15.06 3.31
-1 -17 3 17.56 3.13
-1 -17 3 41.72 25.27
1 17 -3 16.81 2.24
1 17 -3 15.77 3.4
0 -17 -3 56.87 4.99
0 -17 3 51.29 5.67
0 17 -3 43.2 5.27
0 17 -3 45.99 5.11
0 17 3 41.65 4.58
1 -17 3 7.78 3.4
-1 -17 -3 8.81 2.23
1 17 3 2.75 3.1
-1 17 -3 4.97 3.08
-2 -17 -3 54.83 4.67
2 -17 3 63.42 7.01
-2 17 -3 55.61 5.81
2 17 3 55.9 6.7
-2 -18 3 231.36 12.45
2 -18 -3 240.22 12.69
2 -18 -3 212.41 10.5
-2 18 3 214.37 11.14
2 18 -3 193.33 11.13
1 -18 -3 33.81 5.13
-1 -18 3 42.13 6.24
1 18 -3 42.85 3.58
-1 18 3 40.84 5.17
1 18 -3 38.1 5.08
0 -18 -3 19.34 3.41
0 -18 3 23.71 4.7
0 18 3 17.03 3.99
0 18 -3 19.95 3.92
-1 -18 -3 45.52 4.97
1 -18 3 56.95 6.66
-1 18 -3 59.26 5.97
1 18 3 49.62 6.55
-1 19 3 9.22 3.68
0 19 3 14.64 3.98
7 0 -4 4.61 4.1
-7 0 4 1.72 1.97
7 0 -4 -0.34 1.89
-6 0 4 126.94 6.32
6 0 -4 117.99 6.45
6 0 -4 97.41 28.92
6 0 -4 112.67 7.45
6 0 -4 116.44 7.58
-6 0 4 107.31 6.07
-6 0 4 130.51 25.64
5 0 -4 3.22 1.91
-5 0 4 19.41 14.84
5 0 -4 -11.62 11.9
5 0 -4 2.8 1.95
5 0 -4 3.19 1.4
-5 0 4 1.32 1.41
-5 0 4 0.33 1.14
-4 0 4 126.98 5.65
4 0 -4 134.08 17.47
4 0 -4 126.36 6.76
4 0 -4 128.06 7.13
-4 0 4 120.61 18.91
-4 0 4 124.76 5.81
-4 0 4 130.47 7.13
-3 0 4 697.61 39.02
3 0 -4 702.19 30.05
-3 0 4 726.81 29.98
3 0 -4 774.03 30.17
-3 0 4 686.12 28.71
3 0 -4 701.16 30.17
3 0 -4 655.31 37.82
2 0 -4 478.63 19.32
-2 0 4 445.99 18.95
2 0 -4 406.31 18.96
2 0 -4 435.71 25.12
1 0 -4 44.99 3.26
1 0 -4 43.04 2.16
1 0 -4 45.79 2.85
-1 0 4 44.38 5.76
1 0 -4 42.57 6.24
0 0 4 327.16 15.21
0 0 -4 336.24 14.26
0 0 -4 334.43 14.48
0 0 -4 309.24 13.88
0 0 -4 325.48 15.6
0 0 4 327.15 14.44
-1 0 -4 3.25 1
-1 0 -4 5.88 2.07
1 0 4 3.22 0.92
-1 0 -4 3.32 1.24
-1 0 -4 5.77 1.98
1 0 4 5.52 1.26
-1 0 -4 3.06 1.09
-1 0 -4 3.98 1.22
-2 0 -4 98.45 5.23
-2 0 -4 98.83 7.93
2 0 4 88.5 5.15
-2 0 -4 95.3 9.16
-2 0 -4 93.2 5.34
2 0 4 94.43 5.24
-2 0 -4 96.03 5.61
-2 0 -4 101.43 5.26
-3 0 -4 870.06 40.99
-3 0 -4 854.13 34.95
3 0 4 816.84 35.2
-3 0 -4 836.78 40.23
-3 0 -4 838.92 35.9
3 0 4 835.58 35.56
-3 0 -4 843.26 35.49
-3 0 -4 830.83 35.91
-4 0 -4 326.03 22.81
-4 0 -4 304.26 13.48
-4 0 -4 293.84 14.79
4 0 4 299.78 14.42
4 0 4 317.08 13.83
5 0 4 12.99 1.95
-5 0 -4 11.46 2.36
-5 0 -4 9 3.17
5 0 4 13.11 2.79
7 -1 -4 91.14 8.28
-7 -1 4 92.62 6.05
7 -1 -4 102.1 5.98
7 1 -4 73.34 7.75
-7 1 4 84.23 5.41
7 1 -4 88.65 5.24
-6 -1 4 200.43 9.31
-6 -1 4 188.92 27.96
6 -1 -4 162.74 29.1
-6 -1 4 190.32 9.29
6 -1 -4 195.74 9.68
6 1 -4 204.73 33.24
-6 1 4 210.89 9.69
-6 1 4 208.05 9.51
6 1 -4 191.96 10.98
6 1 -4 200.61 10.55
-6 1 4 254.99 35.99
6 1 -4 202.78 9.87
5 -1 -4 1188.61 64.72
-5 -1 4 1242.47 49.88
-5 -1 4 1215.4 66.24
5 -1 -4 1210.11 51.44
5 -1 -4 1210.18 50.71
5 1 -4 1274.17 52.52
5 1 -4 1216.71 53.2
5 1 -4 1360.18 52.73
-5 1 4 1272.5 51.64
-5 1 4 1219.44 51.66
5 1 -4 1277.2 68.15
-5 1 4 1199.12 68.16
-4 -1 4 48.79 3.96
-4 -1 4 49.74 2.7
4 -1 -4 51.59 4.07
4 -1 -4 50.59 3.68
-4 -1 4 51.94 12.76
4 -1 -4 44.49 11.3
4 1 -4 47.76 3.88
4 1 -4 47.2 11.83
4 1 -4 45.22 3.44
4 1 -4 45.8 3.81
-4 1 4 47.6 4.15
-4 1 4 37.45 11.87
-4 1 4 47.67 2.45
-4 1 4 46.8 2.49
-3 -1 4 104.44 4.46
3 -1 -4 101.76 5.65
3 -1 -4 100.04 5.66
-3 -1 4 103.44 5.54
3 -1 -4 87.75 13.49
-3 -1 4 113.58 14.47
-3 1 4 108.59 5.77
3 1 -4 106.98 5.83
3 1 -4 102.9 5.71
3 1 -4 117.79 13.24
3 1 -4 100.52 5.58
-3 1 4 109.53 15.35
3 1 -4 101.1 4.65
2 -1 -4 294.8 13.33
-2 -1 4 313.48 13.27
2 -1 -4 309.34 20.06
2 -1 -4 289.46 13.46
-2 -1 4 297.21 12.34
2 1 -4 292.89 13.3
2 1 -4 263.95 20.74
-2 1 4 305.23 13.26
2 1 -4 299.07 12.36
2 1 -4 324.82 13.63
-1 -1 4 228.36 9.88
1 -1 -4 229.74 9.75
1 -1 -4 233.11 14
1 -1 -4 234.84 10.74
-1 -1 4 245.03 14.09
1 -1 -4 226.56 10.36
1 -1 -4 233.84 9.73
1 1 -4 226.48 10.14
1 1 -4 222.59 14.57
1 1 -4 205.05 9.67
-1 1 4 209.65 12.63
1 1 -4 217.72 9.1
0 -1 -4 1351.66 55.86
0 -1 4 1285.17 55.86
0 -1 -4 1397.1 55.38
0 -1 -4 1318.02 55.36
0 -1 4 1404.12 57.59
0 -1 -4 1374.88 56
0 1 -4 1344.75 54.39
0 1 -4 1312.69 54.02
0 1 -4 1222.4 54.46
0 1 -4 1361.35 56.45
0 1 4 1373.08 54.55
-1 -1 -4 1012.32 46.38
1 -1 4 1178.71 46.29
-1 -1 -4 1127.9 45.99
1 -1 4 1143.2 46.35
-1 1 -4 1181.93 50.94
-1 1 -4 1181.53 49.09
-1 1 -4 1144.79 49.08
-1 1 -4 1232.09 49.25
-1 1 -4 1213.37 50.74
-2 -1 -4 32.39 2.52
-2 -1 -4 28.27 2.56
-2 -1 -4 29.25 2.9
-2 -1 -4 33.54 4.97
-2 -1 -4 29.19 4.53
2 -1 4 29.37 2.54
2 -1 4 25.1 2.5
-2 1 -4 29.69 6.74
-2 1 -4 30.92 2.73
2 1 4 30.16 2.7
2 1 4 30.58 2.54
-2 1 -4 25.84 5.02
-2 1 -4 33.1 2.68
-2 1 -4 33.34 2.74
3 -1 4 175.29 8.41
-3 -1 -4 167.8 9.05
-3 -1 -4 167.7 13.82
3 -1 4 177.18 8.72
-3 -1 -4 155.62 8.76
-3 -1 -4 173.34 8.03
-3 -1 -4 177.9 8.64
-3 1 -4 169.94 8.18
-3 1 -4 170.96 8.9
3 1 4 175.33 8.34
3 1 4 173.43 8.59
-3 1 -4 175.17 14.76
-3 1 -4 174.6 8.82
-3 1 -4 174.36 15.61
4 -1 4 261.83 12.24
-4 -1 -4 269.04 13.13
-4 -1 -4 278.16 11.72
4 -1 4 259.93 12.71
-4 -1 -4 247.3 12.87
-4 1 -4 289.86 22.87
-4 1 -4 280.73 13.59
4 1 4 272.64 13.09
-4 1 -4 268.44 12.37
-5 -1 -4 121.61 7.13
5 -1 4 107.68 6.17
-5 -1 -4 92.03 7.47
5 1 4 106.16 6.9
-5 1 -4 112.57 7.96
-5 1 -4 110.21 6.25
-7 -2 4 19.21 2.7
7 -2 -4 18.15 2.85
7 -2 -4 8.87 4.26
-7 2 4 19.78 2.62
7 2 -4 19.59 2.91
7 2 -4 16.72 3.8
-6 -2 4 46.89 3.94
-6 -2 4 70.07 22.48
6 -2 -4 51.67 21.23
6 -2 -4 44.93 7.11
6 -2 -4 35.65 3.59
6 2 -4 43.06 4.56
6 2 -4 34.67 22.12
-6 2 4 44.1 3.18
6 2 -4 48.73 4.84
-6 2 4 48.13 3.89
6 2 -4 44.42 3.65
-6 2 4 39.43 21.95
-5 -2 4 370.39 15.47
-5 -2 4 344.23 31.92
-5 -2 4 352.14 16.74
5 -2 -4 351.02 16.21
5 -2 -4 359.8 16.93
5 -2 -4 369.07 31.02
5 2 -4 360.14 15.55
-5 2 4 334 14.38
5 2 -4 328.19 15.21
5 2 -4 327.42 15.95
-5 2 4 347.84 14.5
5 2 -4 336.53 30.76
-5 2 4 316.36 32.83
-4 -2 4 402.81 29.7
4 -2 -4 408.64 28.89
-4 -2 4 399.41 16.6
4 -2 -4 394.01 18.02
4 -2 -4 378.67 17.62
-4 -2 4 399.92 17.69
-4 2 4 373.54 15.51
-4 2 4 375.66 15.56
-4 2 4 349.96 28.92
4 2 -4 381.94 28.82
4 2 -4 372.71 16.64
4 2 -4 359.38 16.98
4 2 -4 382.85 16.75
-4 2 4 394.73 17.18
-3 -2 4 17.16 1.22
-3 -2 4 17.22 2.18
-3 -2 4 16.33 8.08
3 -2 -4 16.43 2.13
3 -2 -4 21.67 9.39
3 -2 -4 15.72 2.21
3 2 -4 14.41 1.29
3 2 -4 12.41 2
3 2 -4 14.31 6.88
-3 2 4 11.09 9.16
3 2 -4 11.78 1.81
-3 2 4 13.86 1.94
2 -2 -4 23.29 6.38
-2 -2 4 24.45 1.42
2 -2 -4 23.78 2.24
-2 -2 4 25.79 2.18
2 -2 -4 24.51 2.09
-2 -2 4 25.79 8.07
2 2 -4 24.36 2.56
2 2 -4 24.5 2.03
-2 2 4 25.58 2.3
2 2 -4 24.72 1.43
2 2 -4 19.96 5.98
1 -2 -4 75.19 4.04
1 -2 -4 72.9 4.27
1 -2 -4 73.32 3.35
1 -2 -4 81.84 7.64
-1 -2 4 70.49 4.31
-1 -2 4 72.1 8.13
-1 -2 4 74.27 3.58
-1 2 4 65.61 4.05
1 2 -4 76.05 3.4
1 2 -4 69.43 3.88
1 2 -4 70.99 4.31
-1 2 4 79.04 7.39
1 2 -4 66.13 8.67
0 -2 -4 1312.77 52.75
0 -2 -4 1246.6 52.87
0 -2 4 1288.97 53.25
0 -2 -4 1286.16 53.13
0 -2 4 1336.19 55.76
0 -2 -4 1282.6 52.6
0 -2 4 1257.71 52.73
0 2 4 1452.42 55.48
0 2 -4 1369.41 55.92
0 2 -4 1356.48 58.53
0 2 -4 1277.41 55.33
0 2 -4 1341 55.73
0 2 4 1336.73 55.45
1 -2 4 726.45 29.72
-1 -2 -4 755.08 29.48
-1 -2 -4 724.4 29.26
-1 -2 -4 600.17 30.68
1 -2 4 691.88 29.55
-1 2 -4 748.92 31.2
-1 2 -4 708.27 33.73
-1 2 -4 744.83 31.27
-1 2 -4 779.59 31.41
-2 -2 -4 1.97 2.76
-2 -2 -4 2.03 1.46
2 -2 4 1.19 1.03
2 -2 4 1.27 1.05
-2 -2 -4 3.95 1.22
-2 -2 -4 3.56 2.7
-2 2 -4 1.69 1.14
-2 2 -4 1.6 1.05
-2 2 -4 2.81 4.18
-2 2 -4 3.46 1.39
2 2 4 2.57 0.95
-2 2 -4 -6.95 4.39
-3 -2 -4 36.91 6.7
-3 -2 -4 30.8 3.16
3 -2 4 28.8 2.83
3 -2 4 34.92 3.18
-3 -2 -4 24.64 3.31
-3 -2 -4 26.49 2.62
-3 2 -4 34.5 7.99
-3 2 -4 22.87 3.32
-3 2 -4 22.56 2.85
3 2 4 23.24 5.81
3 2 4 24.27 2.56
-3 2 -4 30.65 3.57
-3 2 -4 30.21 8.39
-3 2 -4 26.62 2.69
-4 -2 -4 358.1 16.79
4 -2 4 380.75 16.37
4 -2 4 380.12 16.88
-4 -2 -4 286.36 23.59
-4 -2 -4 372.18 15.41
-4 -2 -4 356.26 17.05
4 2 4 356.73 16.23
-4 2 -4 361.88 26.14
-4 2 -4 345.81 16.66
4 2 4 346.57 23.25
-4 2 -4 362.04 15.71
-5 -2 -4 59.01 6.1
5 -2 4 72.16 4.83
5 -2 4 66.86 5.48
-5 2 -4 55.25 4.72
-5 2 -4 54.18 5.59
5 2 4 58.68 4.94
-7 -3 4 280.78 13.73
7 -3 -4 287.13 15.4
7 -3 -4 287.05 13.58
-7 3 4 284.25 13
7 3 -4 291.69 12.85
7 3 -4 284.63 15.33
6 -3 -4 459.87 43.82
6 -3 -4 431.51 19.9
6 -3 -4 445.15 21.14
-6 -3 4 453.1 43.29
-6 -3 4 456.71 19.48
-6 3 4 420.07 45.48
-6 3 4 458.77 19.52
6 3 -4 423.39 46.76
6 3 -4 464.2 21.1
6 3 -4 458.53 20.04
-6 3 4 439.52 19.22
6 3 -4 456.54 19.67
5 -3 -4 159.55 8.91
-5 -3 4 170.04 25.66
-5 -3 4 158.82 7.55
5 -3 -4 152.47 8.29
-5 -3 4 161.13 8.91
5 -3 -4 164.19 24.34
5 3 -4 157.39 8.07
5 3 -4 147.29 22.28
-5 3 4 149.26 7.14
5 3 -4 163.48 8.84
5 3 -4 176.16 8.52
-5 3 4 160.6 7.43
-5 3 4 165.27 23.94
-4 -3 4 496.67 33.52
4 -3 -4 479.92 21.34
4 -3 -4 464.25 21.54
4 -3 -4 497.57 32.61
-4 -3 4 486.83 21.22
-4 -3 4 494.44 20.3
-4 3 4 479.43 19.57
4 3 -4 435.05 31.75
4 3 -4 478.07 20.6
-4 3 4 455.47 19.44
4 3 -4 506.98 20.74
-4 3 4 457.98 21.01
4 3 -4 481.22 21.07
4 3 -4 477.19 20.04
-4 3 4 469.57 34.34
-3 -3 4 136.98 16.4
-3 -3 4 139.03 6.22
3 -3 -4 140.33 7.31
3 -3 -4 132.17 16.3
-3 -3 4 147.02 7.13
3 -3 -4 138.25 7.31
3 3 -4 134.62 7.11
3 3 -4 142.87 7.18
-3 3 4 161.01 17.2
3 3 -4 132.47 15.46
-3 3 4 136.77 7.12
2 -3 -4 342.66 21.52
2 -3 -4 370.35 16.02
-2 -3 4 369.17 22.34
-2 -3 4 344.21 15.76
-2 -3 4 394.03 15.69
-2 -3 4 350.99 14.91
2 -3 -4 337.14 15.68
-2 3 4 356.51 15.47
2 3 -4 339.21 15.47
2 3 -4 377.51 15.81
2 3 -4 352.8 14.82
2 3 -4 345.47 21.99
1 -3 -4 150.37 7.1
1 -3 -4 143.44 6.44
1 -3 -4 151.65 7.45
-1 -3 4 136.49 7.34
-1 -3 4 164.17 6.78
1 -3 -4 162.76 10.63
1 3 -4 131.33 6.44
1 3 -4 143.84 11.95
1 3 -4 150.4 7.14
1 3 -4 141.17 6.72
-1 3 4 146.59 10.43
0 -3 4 1262.79 54.32
0 -3 4 1244.34 50.43
0 -3 4 1177.29 50.85
0 -3 -4 1184.1 50.72
0 -3 -4 1248 50.32
0 -3 -4 1255.91 50.77
0 -3 -4 1221.6 50.21
0 3 4 1254.35 51.66
0 3 4 1215.99 51.76
0 3 -4 1230.96 51.53
0 3 -4 1210.8 54.99
0 3 -4 1228.12 51.67
0 3 -4 1357.86 51.23
-1 -3 -4 535.17 21.41
1 -3 4 502.34 25.13
1 -3 4 548.43 21.82
1 -3 4 482.48 21.51
-1 -3 -4 429.8 22.63
-1 3 -4 535.09 22.28
-1 3 -4 547.7 22.44
-1 3 -4 489.7 22.38
-1 3 -4 525.98 25.99
2 -3 4 809.85 36.18
-2 -3 -4 854.89 35.77
-2 -3 -4 876.6 36.81
-2 -3 -4 898.77 36.27
2 -3 4 872.97 36.31
-2 -3 -4 848.76 35.72
-2 3 -4 837.64 39.47
-2 3 -4 873.19 34.42
-2 3 -4 859.13 40.04
-2 3 -4 826.4 34.55
2 3 4 708.23 35.03
2 3 4 820.84 34.26
-2 3 -4 821.55 34.47
3 -3 4 647.74 27.23
-3 -3 -4 644.49 26.14
-3 -3 -4 639.12 26.68
3 -3 4 586.71 26.83
-3 -3 -4 632.18 30.46
-3 -3 -4 603.26 27.2
-3 3 -4 627.7 26.15
3 3 4 599.32 26.22
3 3 4 632.04 30.44
-3 3 -4 583.51 33.03
-3 3 -4 638.89 26.7
-3 3 -4 600.06 26.64
4 -3 4 225.03 10.97
-4 -3 -4 215.67 10.58
4 -3 4 232.63 11.5
-4 -3 -4 226.81 19.12
-4 -3 -4 230.4 9.86
-4 -3 -4 229.15 11.44
-4 3 -4 236.95 22.28
4 3 4 217.09 10.92
-4 3 -4 234.94 10.8
-4 3 -4 216.98 11.36
4 3 4 240.8 19.06
5 -3 4 330.34 15.9
-5 -3 -4 314.99 16.28
5 -3 4 312.77 14.91
-5 3 -4 293.42 14.19
5 3 4 294.72 14.49
-5 3 -4 329.09 15.64
7 -4 -4 26.82 4.93
7 -4 -4 30.86 4.04
-7 4 4 27.13 3.24
7 4 -4 23.76 4.89
6 -4 -4 62.15 5.47
6 -4 -4 71.28 4.95
-6 -4 4 53.38 4.81
6 -4 -4 74.57 23.14
-6 -4 4 44.11 20.83
6 4 -4 63.59 4.14
-6 4 4 64.22 4.61
6 4 -4 52.68 5.1
-6 4 4 55.74 24.96
-6 4 4 65.84 3.72
6 4 -4 62.48 4.87
6 4 -4 103.47 27.03
-5 -4 4 173.7 23.45
-5 -4 4 149.61 6.89
5 -4 -4 129.55 7.37
5 -4 -4 121.38 20.18
-5 -4 4 129.16 7.98
5 -4 -4 131.83 7.95
5 4 -4 124.44 6.54
-5 4 4 145.51 23.26
5 4 -4 128.71 6.67
5 4 -4 129.81 23.11
-5 4 4 122.26 5.8
-5 4 4 127.1 6.17
5 4 -4 132.45 7
5 4 -4 119.15 7.24
4 -4 -4 965.22 41.55
4 -4 -4 971.56 41.31
-4 -4 4 949.2 52.75
-4 -4 4 1006.7 40.29
-4 -4 4 996.21 41.1
4 -4 -4 967.77 52.19
4 4 -4 913.52 51.35
-4 4 4 919.7 37.79
-4 4 4 953.72 39.47
-4 4 4 938.27 37.95
4 4 -4 916.78 39.31
4 4 -4 879.78 38.41
4 4 -4 944.9 38.91
-4 4 4 889.29 52.28
4 4 -4 976.84 38.95
-3 -4 4 121.99 6.11
3 -4 -4 110.33 6.21
3 -4 -4 103.57 14.62
-3 -4 4 117.75 5.35
-3 -4 4 99.45 15.05
3 -4 -4 113.81 6.31
3 4 -4 111.64 5.86
-3 4 4 105.8 16.3
3 4 -4 105.51 4.98
3 4 -4 98.26 5.62
-3 4 4 104.04 4.43
3 4 -4 105.1 14.76
-3 4 4 102.1 5.87
-2 -4 4 684.02 35.46
2 -4 -4 665.11 34.32
2 -4 -4 664.59 28.6
-2 -4 4 697.82 27.58
2 -4 -4 650.06 28.3
2 -4 -4 665.66 27.17
-2 -4 4 660.27 28.39
-2 4 4 559.78 33.39
-2 4 4 675.12 27.9
2 4 -4 686.03 27.35
-2 4 4 656.94 26.95
2 4 -4 694.36 28.17
2 4 -4 678.45 35.76
2 4 -4 669.71 27.95
1 -4 -4 453.61 20.72
1 -4 -4 501.77 20.42
-1 -4 4 499.94 20.08
-1 -4 4 465.6 20.77
1 -4 -4 476.63 19.77
-1 4 4 465.88 19.16
1 4 -4 453.35 19.93
1 4 -4 450.94 19.65
-1 4 4 461.17 23.79
1 4 -4 463.65 19.23
1 4 -4 475 25.52
0 -4 -4 173.25 8
0 -4 -4 180.63 8.56
0 -4 4 179.76 8.7
0 -4 4 172.49 8.23
0 -4 -4 188.23 8.04
0 -4 4 176.49 12.97
0 4 -4 193.3 8.76
0 4 -4 182.15 13.9
0 4 4 174.68 9.4
0 4 -4 186.12 8.56
0 4 4 177.29 8.19
0 4 -4 190.74 8.18
0 4 4 156.41 9.66
1 -4 4 632.43 26.39
1 -4 4 606.55 26.41
-1 -4 -4 648.55 26.19
1 -4 4 650.19 26.64
-1 -4 -4 637.22 25.89
-1 -4 -4 565.23 26.13
1 -4 4 612.66 30.71
-1 -4 -4 603.92 26.66
-1 4 -4 651.16 27.02
1 4 4 624.75 26.97
-1 4 -4 614.31 31.45
-1 4 -4 657.09 27.08
-1 4 -4 633.79 26.81
-2 -4 -4 904.06 38.25
-2 -4 -4 935.64 39.65
-2 -4 -4 932.01 38.2
2 -4 4 911.16 38.86
-2 -4 -4 951.3 38.78
-2 -4 -4 939.94 38.33
2 -4 4 883.5 38.81
-2 4 -4 923.06 43.65
-2 4 -4 911.66 37.43
-2 4 -4 864.03 42.87
2 4 4 876.91 37.17
2 4 4 899.21 38.87
-2 4 -4 878.58 37.51
-2 4 -4 907.07 37.55
-3 -4 -4 59.4 4.09
-3 -4 -4 56.31 8.04
-3 -4 -4 49.28 4.86
3 -4 4 58.42 4.11
3 -4 4 64.16 4.31
-3 -4 -4 59.3 3.5
-3 -4 -4 60.16 3.42
-3 4 -4 72.4 4.52
-3 4 -4 63.87 4.95
-3 4 -4 76.83 12.38
-3 4 -4 66.75 4.58
3 4 4 64.27 10.12
3 4 4 71.8 4.26
-4 -4 -4 156.64 6.77
-4 -4 -4 137.22 16.77
-4 -4 -4 157.11 8.53
4 -4 4 151.4 8.21
-4 -4 -4 148.09 6.99
4 -4 4 157.13 8.59
-4 4 -4 163.17 8.28
4 4 4 162.82 8.2
-4 4 -4 126.22 20.38
4 4 4 147.18 16.3
-4 4 -4 153.72 8.48
5 -4 4 213.41 11.5
5 -4 4 195.89 10.49
-5 4 -4 185.19 10.17
-5 4 -4 193.58 10.96
5 4 4 198.5 10.15
7 -5 -4 218.26 13.16
7 -5 -4 215.31 11.3
7 5 -4 217.88 12.86
-7 5 4 212.09 10.05
-6 -5 4 172.65 27.91
6 -5 -4 191.39 9.99
6 -5 -4 197.26 11.15
-6 -5 4 188.38 9.67
6 -5 -4 216 29.46
6 5 -4 199.37 9.17
6 5 -4 227.72 35.4
6 5 -4 200.52 9.52
-6 5 4 299.87 42.98
-6 5 4 190.82 8.82
-6 5 4 183.44 9.45
6 5 -4 181.82 10.35
5 -5 -4 1.75 1.79
-5 -5 4 3.95 1.68
5 -5 -4 18.73 13.4
5 -5 -4 5.1 1.66
-5 -5 4 -2.38 2.32
-5 5 4 2.66 0.93
-5 5 4 -2.95 14.98
-5 5 4 -0.64 1.44
5 5 -4 2.27 1.28
5 5 -4 1.96 1.73
5 5 -4 0.58 1.7
5 5 -4 -0.6 1.25
-5 5 4 -0.98 2.96
4 -5 -4 405.97 28.22
4 -5 -4 377.83 17.19
-4 -5 4 381.24 29.56
-4 -5 4 378.43 16.19
4 -5 -4 365.28 17.3
-4 -5 4 371.88 16.85
4 5 -4 327.34 29.16
-4 5 4 370.74 17.05
-4 5 4 347.46 15.34
4 5 -4 373.67 16.8
4 5 -4 369.78 16.04
-4 5 4 348.52 30.96
4 5 -4 385.1 16.42
-4 5 4 375.81 15.57
-4 5 4 385.52 17.3
-3 -5 4 258.56 11.43
3 -5 -4 254.88 21.18
-3 -5 4 245.01 21.28
3 -5 -4 243.35 11.79
3 -5 -4 241.89 11.72
3 5 -4 242.24 20.67
-3 5 4 242.75 11.7
3 5 -4 234.5 11.17
3 5 -4 230.39 10.55
-3 5 4 234.03 9.99
3 5 -4 246.64 11.15
-3 5 4 251.43 22.24
-3 5 4 245.57 11.32
-2 -5 4 293.22 13.14
2 -5 -4 309.12 19.6
2 -5 -4 275.23 13.21
-2 -5 4 256.44 20.36
-2 -5 4 284.05 12.32
2 -5 -4 287.86 11.95
2 -5 -4 306.34 13.09
2 5 -4 288.45 12.05
-2 5 4 281.89 12.49
2 5 -4 284.53 20.09
2 5 -4 287.77 12.71
-2 5 4 285.13 13.08
2 5 -4 283.81 12.52
-2 5 4 223.09 18.32
1 -5 -4 373.97 16.32
-1 -5 4 376.81 16.81
1 -5 -4 383.3 15.81
1 -5 -4 380.91 16.83
-1 5 4 390.88 21.13
1 5 -4 363.9 16.55
-1 5 4 364.14 19.91
1 5 -4 391.22 16.46
-1 5 4 389.33 15.89
1 5 -4 359.68 15.93
1 5 -4 378.87 16.33
1 5 -4 378.25 22.02
0 -5 4 499.87 20.81
0 -5 4 459.33 21.21
0 -5 -4 503.29 20.52
0 -5 -4 458.76 20.99
0 -5 -4 503.7 20.53
0 -5 4 510.99 26.58
0 5 -4 494.74 26.65
0 5 -4 491.81 20.78
0 5 4 478.49 22.74
0 5 4 473.82 23.12
0 5 -4 516.36 21.22
0 5 -4 525.41 21.4
0 5 4 472.64 20.87
-1 -5 -4 120.27 6.11
-1 -5 -4 117.83 6.04
1 -5 4 114.49 11.34
-1 -5 -4 121.1 6.22
1 -5 4 113.15 6.37
1 -5 4 125.8 6.41
-1 -5 -4 123.51 5.69
1 -5 4 108.55 6.14
-1 5 -4 123.88 6.25
-1 5 -4 119.67 6.12
-1 5 -4 113.72 12.22
1 5 4 107.87 7.1
1 5 4 105.88 5.9
-1 5 -4 121.74 5.84
2 -5 4 145.32 8.01
-2 -5 -4 144.05 7.65
-2 -5 -4 146.41 7.25
-2 -5 -4 150.86 9.67
-2 -5 -4 148.35 7.23
-2 -5 -4 166.96 7.23
2 -5 4 145.71 7.78
2 -5 4 153.47 7.84
-2 5 -4 135.78 14.24
-2 5 -4 149.76 7.67
2 5 4 149.02 7.7
2 5 4 149.25 10.9
-2 5 -4 146.37 7.48
-2 5 -4 155.88 15.36
-2 5 -4 152.73 7.61
3 -5 4 190.56 10
3 -5 4 208.43 10.33
-3 -5 -4 206.5 9.64
-3 -5 -4 217.41 9.17
-3 -5 -4 198.74 14.14
-3 -5 -4 203.56 9.11
-3 -5 -4 189.49 10.19
3 5 4 215.5 17.6
-3 5 -4 205.99 9.76
-3 5 -4 197.64 19.22
3 5 4 195.29 9.38
-3 5 -4 190.38 9.81
-4 -5 -4 301.75 21.85
4 -5 4 293.39 14.12
-4 -5 -4 307.38 14.08
-4 -5 -4 278.62 12.41
-4 -5 -4 307.91 12.36
4 -5 4 298.64 14.46
-4 5 -4 282.79 29.32
-4 5 -4 301.54 13.56
-4 5 -4 276.15 13.77
4 5 4 271.77 21.23
4 5 4 294.03 13.28
-4 5 -4 275.32 25.71
5 -5 4 403.6 19.58
5 -5 4 412.03 18.9
-5 5 -4 405.79 19.3
5 5 4 397.54 18.27
6 -6 -4 91.29 7.49
6 -6 -4 92.37 6.16
-6 -6 4 123.69 24.66
-6 -6 4 92.04 6.29
6 6 -4 92.49 5.51
6 6 -4 77.68 6.22
-6 6 4 84.48 4.6
-6 6 4 80.21 40.29
6 6 -4 22.53 32.43
-6 6 4 85.08 5.63
6 6 -4 91.67 5.07
-5 -6 4 152.6 26.93
-5 -6 4 112.07 7.57
5 -6 -4 127.04 7.83
-5 -6 4 140.68 6.91
5 -6 -4 132.35 21.46
5 -6 -4 127.75 7.33
-5 6 4 138.54 23.86
-5 6 4 131.4 6.3
5 6 -4 130.31 7.65
5 6 -4 135.79 7.13
5 6 -4 140.17 7.01
5 6 -4 147.08 7.18
-5 6 4 125.9 7.15
5 6 -4 150.02 22.66
4 -6 -4 937.51 37.99
-4 -6 4 904.43 37.3
4 -6 -4 843.53 48.52
-4 -6 4 851.11 50
4 -6 -4 869.19 37.68
-4 -6 4 879.28 36.72
4 6 -4 883.08 37.4
-4 6 4 890.88 37.66
4 6 -4 863.37 50.61
4 6 -4 871.77 36.75
4 6 -4 914.91 36.91
-4 6 4 861.36 52.22
-4 6 4 872.75 37.89
-4 6 4 868.05 36.02
-3 -6 4 590.34 26.19
-3 -6 4 622.29 26.1
3 -6 -4 614.88 26.66
3 -6 -4 614.19 25.3
-3 -6 4 642.96 25.69
3 -6 -4 579.27 35.46
-3 -6 4 622.79 36.43
3 -6 -4 613.69 26.53
3 6 -4 619.36 24.99
3 6 -4 605.09 25.52
-3 6 4 579.57 26.02
-3 6 4 577.29 25.55
-3 6 4 578.2 24.4
-3 6 4 589.74 36.69
3 6 -4 570.17 34.42
3 6 -4 622.8 25.45
-2 -6 4 375.58 15.42
2 -6 -4 370.83 15.98
-2 -6 4 365.54 24.41
2 -6 -4 371 15
-2 -6 4 339.33 16.03
2 -6 -4 342.07 16.2
2 6 -4 329.95 14.97
2 6 -4 331.84 15.33
2 6 -4 346.93 23.3
-2 6 4 354.9 15.38
-2 6 4 368.02 16.14
2 6 -4 358.23 15.62
-2 6 4 362.06 14.67
-1 -6 4 1908.94 79.85
1 -6 -4 2032.63 79.61
-1 -6 4 1999.18 87.39
-1 -6 4 1869.41 80.56
1 -6 -4 1860.34 80.53
1 -6 -4 2093.23 80.14
-1 6 4 2136.9 80.36
-1 6 4 1986.63 84.77
-1 6 4 1840.23 79.21
1 6 -4 1838.41 79.34
1 6 -4 1957.61 86.81
-1 6 4 1910.63 84.95
1 6 -4 2035.05 80.01
1 6 -4 1833.43 79.61
1 6 -4 2002.13 79.8
0 -6 -4 210.17 9.49
0 -6 4 221.84 9.83
0 -6 -4 200.81 9.95
0 -6 -4 224.76 9.43
0 -6 4 206.2 10.18
0 6 4 213.61 9.66
0 6 -4 215.13 9.52
0 6 -4 222.66 9.94
0 6 4 201.18 12.48
0 6 4 206.69 12.48
0 6 -4 209.93 16.52
0 6 -4 206.15 9.97
-1 -6 -4 45.74 3.16
-1 -6 -4 45.18 3.08
-1 -6 -4 43.23 2.65
1 -6 4 39.51 3.07
-1 -6 -4 39.51 2.4
1 -6 4 36.96 8.19
1 -6 4 39.64 3.32
1 -6 4 41.03 3.52
-1 -6 -4 46.42 6.35
-1 6 -4 41.61 3.28
-1 6 -4 38.62 8.96
1 6 4 41.46 5.51
-1 6 -4 49.44 3.57
1 6 4 44.62 3.22
-1 6 -4 42.12 2.86
2 -6 4 506.33 21.41
-2 -6 -4 457.51 20.55
2 -6 4 485.36 21.48
2 -6 4 492.24 21.4
-2 -6 -4 511.77 21.16
-2 -6 -4 427.2 21.32
-2 -6 -4 501.1 23.73
2 6 4 418.32 20.11
-2 6 -4 423.61 27.55
-2 6 -4 470.37 19.94
-2 6 -4 439.39 27.94
2 6 4 494.5 23.49
-2 6 -4 478.65 20.13
-2 6 -4 455.05 19.93
3 -6 4 1040.82 42.62
-3 -6 -4 988.69 41.27
-3 -6 -4 996.76 41.3
3 -6 4 1011.53 42.68
-3 -6 -4 966.49 41.63
-3 -6 -4 1021.65 46.36
3 6 4 1013.53 46.68
-3 6 -4 988.36 50.09
3 6 4 997.93 40.05
-3 6 -4 826.38 50.02
-3 6 -4 886.45 40.3
-3 6 -4 1039.01 40.78
4 -6 4 888.13 38.39
-4 -6 -4 853.39 37.48
4 -6 4 887.49 38.09
-4 -6 -4 937.3 48.56
-4 6 -4 860.83 37.57
4 6 4 887.7 36.84
-4 6 -4 843.39 37.15
-4 6 -4 853.7 58.02
4 6 4 941.23 49.16
5 -6 4 356.61 17.71
5 -6 4 357.49 17.05
5 6 4 348.62 16.27
-5 6 -4 358.26 17.18
-6 -7 4 52.87 23.81
6 -7 -4 123.3 7.48
6 -7 -4 119.59 8.79
6 7 -4 105.57 7.33
-6 7 4 113.9 5.83
6 7 -4 119.45 6.32
6 7 -4 75.54 31.05
6 7 -4 126.57 7.25
-5 -7 4 47.67 4.24
5 -7 -4 61.62 4.68
5 -7 -4 51.92 4.95
-5 -7 4 59.52 18.57
5 -7 -4 49.26 16.09
-5 -7 4 61.24 5.24
5 7 -4 29.31 19.57
-5 7 4 56.25 3.3
5 7 -4 59.15 4.05
5 7 -4 62.22 4.83
5 7 -4 60.55 4.45
5 7 -4 66.72 4.27
-5 7 4 72.96 21.11
-4 -7 4 153.23 7.81
4 -7 -4 150.97 8.19
4 -7 -4 155.77 19.52
4 -7 -4 146.98 8.03
-4 -7 4 140.29 7.25
-4 -7 4 146.73 21.43
-4 7 4 131.62 8.17
-4 7 4 143.43 6.47
4 7 -4 143.24 7.23
4 7 -4 141.06 7.66
-4 7 4 95.34 20.17
-4 7 4 150.08 8.94
4 7 -4 158.02 7.49
4 7 -4 153.47 21.81
3 -7 -4 593.39 25.72
3 -7 -4 590.99 24.57
-3 -7 4 620.6 24.96
-3 -7 4 573.37 25.44
-3 -7 4 589.46 36.18
3 -7 -4 584.97 25.87
3 7 -4 584.29 24.82
3 7 -4 573.56 36.05
3 7 -4 583.43 25.24
-3 7 4 567.03 25.35
3 7 -4 600.03 25.17
-3 7 4 585.63 25.99
-3 7 4 611.38 24.31
2 -7 -4 319.7 13.02
-2 -7 4 322.69 13.42
2 -7 -4 288.9 13.78
-2 -7 4 300.86 22.27
-2 -7 4 307.14 14.09
2 -7 -4 303.25 14.21
-2 7 4 326.9 14.73
-2 7 4 313.83 13.9
-2 7 4 305.45 13.23
-2 7 4 288.91 21.09
2 7 -4 347.43 14.24
2 7 -4 304.41 13.59
2 7 -4 301.59 13.86
2 7 -4 297.1 22.13
1 -7 -4 1481.44 61.23
1 -7 -4 1515.18 61.85
-1 -7 4 1460.72 61.85
-1 -7 4 1536.71 61.15
1 -7 -4 1518.09 60.85
-1 -7 4 1430.18 69.04
-1 7 4 1580.29 64.42
1 7 -4 1491.24 63.77
-1 7 4 1632.42 63.48
-1 7 4 1588.6 69.9
1 7 -4 1585.53 63.91
1 7 -4 1475.62 71.65
1 7 -4 1491.97 63.55
1 7 -4 1591.54 64.09
-1 7 4 1532.86 69.02
0 -7 4 254.54 11.11
0 -7 4 234.06 11.46
0 -7 -4 228.58 11.16
0 -7 -4 243.98 10.76
0 -7 -4 247.67 10.59
0 7 4 244.09 14.38
0 7 4 230.46 14.06
0 7 -4 229.87 10.84
0 7 -4 238.03 17.02
0 7 4 208.82 10.34
0 7 -4 233.15 10.66
0 7 -4 236.06 10.37
1 -7 4 301.31 14.85
-1 -7 -4 334.55 14.06
1 -7 4 330.94 15.21
1 -7 4 356.05 15.12
-1 -7 -4 310.87 14.6
-1 -7 -4 351.72 14.68
-1 -7 -4 333.72 17.94
-1 -7 -4 330.08 14.03
1 7 4 345.13 18.33
-1 7 -4 337.44 15.09
-1 7 -4 307.82 22.52
-1 7 -4 335.16 14.83
1 7 4 338.94 15.14
-1 7 -4 345.53 15.23
-2 -7 -4 664.37 31.34
-2 -7 -4 748.37 31.61
2 -7 4 763.64 32.11
-2 -7 -4 852.12 30.89
-2 -7 -4 751.96 31.16
2 -7 4 721.08 32.02
2 -7 4 721.17 31.87
-2 -7 -4 724.06 34.74
-2 7 -4 730.48 39.97
-2 7 -4 717.38 40.17
2 7 4 755.49 35.86
2 7 4 745.38 31.87
-2 7 -4 745.99 31.53
-2 7 -4 746.52 31.42
-2 7 -4 737.46 31.63
3 -7 4 96.52 5.84
-3 -7 -4 74.93 11.49
3 -7 4 82.8 5.61
-3 -7 -4 89.99 5.06
-3 -7 -4 83.89 4.57
-3 -7 -4 84.7 4.36
3 7 4 84.64 5.68
-3 7 -4 98.68 17.45
-3 7 -4 78.55 5.62
3 7 4 86.84 11.18
-3 7 -4 85.55 5.34
-4 -7 -4 36.62 4.32
4 -7 4 35.6 5.68
4 -7 4 33.42 3.9
4 7 4 34.37 3.2
5 -7 4 163.47 10.28
5 -7 4 150.4 9.02
5 7 4 168.61 8.95
-5 7 -4 176.38 10.38
6 -8 -4 99.06 7.33
6 -8 -4 92.6 7.82
6 8 -4 98.05 6.82
6 8 -4 91.59 5.5
6 8 -4 98.72 6.63
-6 8 4 98.24 5.13
6 8 -4 100.75 29.38
5 -8 -4 63.77 4.77
-5 -8 4 47.33 5.42
-5 -8 4 61.3 20.1
5 -8 -4 74.28 18.06
5 -8 -4 66.52 5.28
-5 -8 4 71.77 4.88
5 8 -4 61.28 4.35
-5 8 4 108.66 25.9
5 8 -4 96.36 24.24
5 8 -4 71.26 4.46
5 8 -4 68.05 4.79
-5 8 4 62.75 3.68
5 8 -4 72.04 5.14
4 -8 -4 220.69 10.98
-4 -8 4 213.45 10.11
-4 -8 4 221.19 26.37
-4 -8 4 220.71 10.42
4 -8 -4 201.1 10.71
-4 8 4 201.13 29.36
4 8 -4 233.15 10.89
4 8 -4 225.7 10.47
4 8 -4 234.68 10.49
-4 8 4 206.83 9.68
-4 8 4 208.68 11.37
4 8 -4 211.05 24.68
-3 -8 4 1472.11 60.86
-3 -8 4 1484.73 60.28
-3 -8 4 1414.17 71.86
3 -8 -4 1502.07 61.03
3 -8 -4 1484.18 59.94
3 -8 -4 1436.6 61.2
-3 8 4 1537.5 62.61
-3 8 4 1572.5 61.95
3 8 -4 1522.02 61.58
3 8 -4 1425.1 61.62
-3 8 4 1488.27 72.69
3 8 -4 1497.41 61.4
-3 8 4 1414.32 60.78
3 8 -4 1476.86 73.65
2 -8 -4 243.58 11.1
-2 -8 4 242.47 10.73
2 -8 -4 251.94 10.35
-2 -8 4 204.19 20.07
-2 -8 4 228.71 11.29
2 -8 -4 235 11.49
-2 8 4 246.43 12.02
2 8 -4 231.34 10.93
2 8 -4 229.66 20.4
2 8 -4 232.8 11.18
-2 8 4 230.55 20.74
-2 8 4 245.37 10.44
2 8 -4 237.59 10.77
-2 8 4 249 11.06
-1 -8 4 17.3 8.01
-1 -8 4 25.1 2.23
1 -8 -4 19.61 2.04
1 -8 -4 22.87 2.49
1 -8 -4 18.37 2.17
-1 -8 4 25.72 2.49
1 8 -4 22.42 6.88
1 8 -4 18.27 1.79
1 8 -4 20.1 2.55
1 8 -4 23.89 2.62
-1 8 4 19.76 6.26
-1 8 4 21.16 2.93
1 8 -4 19.61 2.04
-1 8 4 14.91 6.28
-1 8 4 19.42 1.93
0 -8 4 17.06 8.57
0 -8 4 11.66 1.86
0 -8 -4 13.31 1.97
0 -8 4 9.13 1.82
0 -8 -4 15.22 1.47
0 -8 -4 10.99 1.64
0 8 -4 12.56 1.83
0 8 -4 11.26 1.57
0 8 4 12.63 6.07
0 8 -4 9.57 1.91
0 8 4 13.56 2.35
0 8 4 14.13 4.74
0 8 -4 3.96 6.33
0 8 4 9.92 1.61
-1 -8 -4 177.14 8.98
1 -8 4 184.48 9.51
-1 -8 -4 203.67 8.39
-1 -8 -4 194.1 9.09
1 -8 4 211.64 9.9
-1 -8 -4 183.28 13.63
1 -8 4 193.35 9.46
-1 -8 -4 178 8.52
-1 8 -4 188.55 8.88
1 8 4 183.91 9.12
-1 8 -4 181.4 9.22
-1 8 -4 193.87 9.22
1 8 4 188.75 14.32
2 -8 4 89.73 5.84
2 -8 4 98.99 6.08
-2 -8 -4 99.26 5.17
-2 -8 -4 105.07 11.1
-2 -8 -4 96.33 5.63
2 -8 4 99.33 6.39
-2 -8 -4 91.7 5.76
-2 -8 -4 93.54 4.71
-2 -8 -4 97.35 4.6
2 8 4 98.7 6.02
-2 8 -4 95.17 5.46
-2 8 -4 120.53 16.45
-2 8 -4 117.93 16.18
-2 8 -4 99.06 5.94
-2 8 -4 94.21 6.05
2 8 4 93.29 12.44
-3 -8 -4 593.62 30.76
-3 -8 -4 574.2 23.9
-3 -8 -4 501.29 25.1
3 -8 4 566.94 25.38
-3 -8 -4 588.15 23.76
3 -8 4 598.64 25.47
3 8 4 569.09 31.95
-3 8 -4 584.73 25.15
3 8 4 577.41 25.77
-3 8 -4 563.37 36.24
4 -8 4 358.33 16.51
4 -8 4 351.16 16.64
-4 -8 -4 314.79 15.34
-4 8 -4 337.5 15.96
5 -8 4 13.97 3.52
-5 8 -4 8.79 3.42
5 8 4 12.46 2.48
6 -9 -4 44.73 5.44
6 -9 -4 44.83 6.32
6 9 -4 46.93 3.72
6 9 -4 44.16 4.78
6 9 -4 21.75 28.63
-6 9 4 39.8 3.27
-6 9 4 54.78 26.75
6 9 -4 41.7 4.94
-5 -9 4 132.59 8
5 -9 -4 128.7 8.37
5 -9 -4 143.24 8.24
-5 -9 4 140.11 8.28
-5 -9 4 134.24 24.63
5 9 -4 145.14 7.04
-5 9 4 152.19 28.3
5 9 -4 132.91 7.74
-5 9 4 89.48 26.53
5 9 -4 131.96 7.6
5 9 -4 102.41 25.7
-5 9 4 135.29 6.54
4 -9 -4 41.19 4.12
-4 -9 4 31.11 15.65
4 -9 -4 47.03 4.05
4 -9 -4 46.29 3.7
-4 -9 4 44.2 4.01
4 9 -4 57.4 15.81
4 9 -4 49.76 3.86
-4 9 4 61.8 18.92
4 9 -4 48.16 3.85
-4 9 4 42.42 2.78
4 9 -4 45.44 3.69
-4 9 4 30.53 17.46
-3 -9 4 301 14.07
-3 -9 4 308.3 13.62
-3 -9 4 316.97 26.58
3 -9 -4 285.24 14.31
3 -9 -4 320.28 14.21
3 -9 -4 300.73 13.25
-3 9 4 323.38 32.12
3 9 -4 305.91 14
3 9 -4 319.54 26.04
-3 9 4 331.04 14.54
-3 9 4 320.89 27.31
3 9 -4 295.07 14.01
3 9 -4 299.15 13.86
-3 9 4 308.22 13.36
-2 -9 4 66.51 4.63
-2 -9 4 73.52 4.37
2 -9 -4 72.59 3.97
-2 -9 4 63.03 13.55
2 -9 -4 74.64 4.45
2 -9 -4 75.62 4.95
-2 9 4 70.91 3.94
2 9 -4 78.62 4.71
2 9 -4 71.06 4.23
-2 9 4 79.47 4.6
-2 9 4 65.35 13.43
2 9 -4 74.03 12.26
2 9 -4 68.89 4.3
-2 9 4 76.66 5.74
2 9 -4 77.29 4.8
-1 -9 4 316.11 14.83
-1 -9 4 319.7 24.19
-1 -9 4 336.96 15.55
1 -9 -4 356.52 14.85
1 -9 -4 317.84 15.32
1 -9 -4 370.54 14.69
1 9 -4 338.51 14.31
-1 9 4 298.59 13.99
1 9 -4 307.5 23.23
-1 9 4 314.21 21.68
1 9 -4 348.87 14.74
1 9 -4 311.92 14.27
1 9 -4 340.15 14.48
-1 9 4 324.05 15.19
-1 9 4 294.21 20.79
0 -9 -4 822.59 33.28
0 -9 4 817.7 44.13
0 -9 -4 780.93 33.69
0 -9 4 830.87 33.63
0 -9 -4 739.88 33.65
0 -9 4 792.06 34.15
0 9 -4 764.66 41.87
0 9 4 796.82 38.36
0 9 -4 738.99 32.42
0 9 4 800.31 33.11
0 9 -4 740.77 32.76
0 9 4 780.2 32.56
0 9 -4 799.05 32.65
0 9 4 766.39 38.51
1 -9 4 299.79 14.18
-1 -9 -4 289.26 13.63
-1 -9 -4 294.2 19.08
1 -9 4 295.84 14.36
1 -9 4 286.54 14
-1 -9 -4 309.84 13.77
-1 -9 -4 309.11 12.77
1 -9 4 301.52 24.67
-1 -9 -4 338.48 12.92
1 9 4 300.66 13.68
-1 9 -4 272.95 13.24
-1 9 -4 307.94 13.66
-1 9 -4 316.35 22.77
1 9 4 301.81 18.89
-1 9 -4 287.52 13.72
-2 -9 -4 419.26 18.95
2 -9 4 420.38 19.27
-2 -9 -4 448.64 18.37
-2 -9 -4 415.76 24.28
-2 -9 -4 450.27 18.65
-2 -9 -4 413.64 17.7
-2 -9 -4 395.84 17.71
2 -9 4 437.38 19.57
2 9 4 410.97 19.03
2 9 4 440.94 26.14
-2 9 -4 420.05 19.01
-2 9 -4 427.6 19.02
-2 9 -4 405.15 18.53
-3 -9 -4 85.49 12.22
-3 -9 -4 77.35 4.65
-3 -9 -4 91.7 4.62
-3 -9 -4 78.77 4.1
3 -9 4 85.96 5.79
3 -9 4 72.32 5.87
-3 9 -4 83.67 5.26
-3 9 -4 76.74 17.76
3 9 4 81.4 5.71
3 9 4 63.25 11.96
4 -9 4 7.87 2.84
4 -9 4 9.11 2.83
-4 -9 -4 9.37 2.47
-4 9 -4 6.62 2.4
5 -9 4 526.04 24.62
5 -9 4 526.39 25.05
-5 9 -4 503.17 23.27
6 -10 -4 155.31 9.82
6 -10 -4 153.11 10.2
6 10 -4 152.06 8.78
-6 10 4 144.74 7.44
-5 -10 4 499.47 44.91
5 -10 -4 468.93 22.64
5 10 -4 518.03 22.2
-5 10 4 479.16 21
-5 10 4 507.93 43.64
5 10 -4 509.11 21.21
5 10 -4 476.06 22.12
5 10 -4 442.33 55.28
-4 -10 4 96.15 23.44
-4 -10 4 72.49 4.9
-4 -10 4 83.71 5.48
4 -10 -4 68.54 5.26
4 -10 -4 77.61 5.51
4 -10 -4 79.47 4.98
4 10 -4 74 16.83
-4 10 4 81.65 21.07
4 10 -4 81.58 5.2
-4 10 4 60.2 21.59
-4 10 4 78.87 4.25
4 10 -4 76.09 5
4 10 -4 75.86 4.97
3 -10 -4 289.83 14.45
-3 -10 4 324.13 29.08
-3 -10 4 320.64 14.6
3 -10 -4 320.55 13.78
-3 -10 4 314.25 14.16
3 -10 -4 319.13 14.95
-3 10 4 327.77 31.01
3 10 -4 315 14.66
3 10 -4 322.78 14.64
-3 10 4 367.1 33.26
3 10 -4 332.97 14.72
3 10 -4 306.95 27.92
-3 10 4 311.38 14.04
-3 10 4 339.36 15.18
-2 -10 4 1149.56 43.87
2 -10 -4 1005.88 44.45
2 -10 -4 1119.56 43.43
-2 -10 4 1050.12 55.75
-2 -10 4 1030.2 44.42
2 -10 -4 959.41 43.79
2 10 -4 1030.41 56.62
-2 10 4 1050.27 55
-2 10 4 1064.05 46.61
2 10 -4 1086.36 45.58
2 10 -4 1115.32 45.65
-2 10 4 1156.99 45.62
2 10 -4 1154.78 45.87
2 10 -4 1099.06 45.65
-2 10 4 1085.41 45.22
1 -10 -4 12.57 2.18
1 -10 -4 16.34 2.14
-1 -10 4 13.83 2.31
-1 -10 4 16.56 2.28
1 -10 -4 11.6 1.74
-1 -10 4 15.18 10.29
-1 10 4 13.51 1.81
-1 10 4 4.06 7.56
-1 10 4 20.81 7.3
1 10 -4 12.66 2.19
-1 10 4 13.5 2.35
1 10 -4 18.95 2.61
1 10 -4 4.66 8.63
1 10 -4 14.78 1.96
1 10 -4 10.89 1.67
-1 10 4 10.06 2.58
0 -10 -4 67.38 4.23
0 -10 4 53.72 4.37
0 -10 4 67.46 4.51
0 -10 -4 51.98 3.87
0 -10 4 103.01 15.57
0 -10 -4 67.01 4.08
0 10 4 62.92 5.11
0 10 -4 67.98 4.19
0 10 -4 98.41 13.83
0 10 -4 67.41 4.5
0 10 4 77.09 11.88
0 10 -4 70.3 4.9
0 10 4 64.91 4.18
1 -10 4 341.17 16.35
-1 -10 -4 341.06 15.85
1 -10 4 344.16 16.7
-1 -10 -4 354.18 14.77
-1 -10 -4 382.5 16.08
-1 -10 -4 390.01 14.9
1 -10 4 348.58 29.88
1 -10 4 349.51 16.33
1 10 4 375.45 24.47
-1 10 -4 354.66 15.73
-1 10 -4 363.51 15.98
-1 10 -4 333.74 28.57
1 10 4 329.69 15.93
-2 -10 -4 232.99 10.16
2 -10 4 212.21 11.03
-2 -10 -4 214.81 9.26
-2 -10 -4 212.51 9.25
2 -10 4 230.54 11.47
2 10 4 216.08 10.88
-2 10 -4 175.04 20.87
2 10 4 220.49 18.16
-2 10 -4 222.2 10.44
-3 -10 -4 256.95 12.38
-3 -10 -4 298.99 12.11
3 -10 4 281.98 13.98
-3 -10 -4 260.99 11.79
-3 -10 -4 305.63 12.01
3 -10 4 266.24 13.89
-3 10 -4 285.69 31.49
-3 10 -4 272.89 13.3
3 10 4 277.26 14.04
3 10 4 316.68 35.99
4 -10 4 185.45 11.09
4 -10 4 193.55 10.85
-4 10 -4 187.74 10.67
4 10 4 201.78 11.99
6 -11 -4 52.62 6.41
6 -11 -4 52.31 6.72
-6 11 4 51.33 4.12
6 11 -4 52.09 5.41
6 11 -4 60.66 6.45
-5 -11 4 56.38 22.39
5 -11 -4 32.87 4.37
5 -11 -4 36.48 4.7
5 11 -4 32.37 3.93
-5 11 4 28.15 2.76
5 11 -4 6.68 32.2
-5 11 4 55.27 21.19
5 11 -4 27.27 3.9
-4 -11 4 79.7 5.06
4 -11 -4 70.91 5.66
4 -11 -4 74.91 5.57
4 -11 -4 75.33 5.15
-4 -11 4 80.41 20.44
-4 11 4 64.75 4.03
-4 11 4 82.51 23.17
4 11 -4 75.94 4.92
4 11 -4 69.87 4.88
4 11 -4 74.56 24.7
-4 11 4 63.76 18.2
4 11 -4 74.59 4.92
3 -11 -4 81.36 5.04
-3 -11 4 68.92 4.94
-3 -11 4 54.92 17.62
3 -11 -4 69.17 5.24
3 -11 -4 73.05 4.52
-3 -11 4 66.37 4.75
3 11 -4 60.47 4.4
3 11 -4 80.58 5.2
3 11 -4 44.72 14.3
3 11 -4 71.66 4.6
-3 11 4 73.13 4.09
-3 11 4 81.85 5.59
-3 11 4 50.84 17.42
-3 11 4 73.31 18.95
3 11 -4 71.79 4.96
2 -11 -4 589.39 25.28
2 -11 -4 603.05 24.17
-2 -11 4 533.57 25.07
-2 -11 4 583.43 37.63
2 -11 -4 527.31 24.39
-2 -11 4 594.17 24.6
-2 11 4 563.42 23.84
2 11 -4 551.15 24.06
2 11 -4 570.97 24.18
-2 11 4 583.41 24.13
2 11 -4 625.46 37.27
2 11 -4 535.5 24.18
2 11 -4 562.73 24.36
-2 11 4 512.32 36.74
1 -11 -4 143.15 7.04
-1 -11 4 144.93 7.47
-1 -11 4 131.07 19.12
1 -11 -4 145.81 6.91
1 -11 -4 133.66 7.49
-1 -11 4 137.84 7.75
1 11 -4 142.52 7.23
-1 11 4 158.98 21.73
1 11 -4 142.73 7.36
-1 11 4 145.39 7.19
1 11 -4 118.44 18.07
1 11 -4 144.09 7.71
-1 11 4 179.72 18.63
1 11 -4 140.21 7.39
-1 11 4 151.23 8.64
-1 11 4 138.42 7.84
0 -11 -4 549.44 23.6
0 -11 4 547.65 23.98
0 -11 -4 522.12 23.88
0 -11 4 526.11 35.44
0 -11 -4 585.34 22.87
0 -11 4 557.87 24.55
0 11 -4 536.53 23.91
0 11 4 559.87 24.63
0 11 4 550.07 23.98
0 11 -4 573.33 24
0 11 4 562.52 33.82
0 11 -4 595.55 34.94
0 11 -4 526.57 24.18
1 -11 4 84.83 16.47
-1 -11 -4 82.53 5.31
-1 -11 -4 88.57 4.95
1 -11 4 76.94 5.61
1 -11 4 81.31 5.4
1 11 4 96.36 14.48
1 11 4 78.36 5.17
-1 11 -4 69.93 5.33
-1 11 -4 82.5 4.85
-1 11 -4 74.09 13.97
-2 -11 -4 152.1 7.47
2 -11 4 152.32 8.57
2 -11 4 155.1 8.9
-2 11 -4 187.21 26.99
2 11 4 149.86 8.46
2 11 4 122.71 16.8
-2 11 -4 155.45 8.03
-3 -11 -4 80.25 4.32
3 -11 4 78.31 6.93
-3 11 -4 56.91 20.06
-3 11 -4 81.31 5.33
3 11 4 82.05 8.62
4 -11 4 178.53 11.16
4 -11 4 189.6 11.04
4 11 4 185.53 11.18
-4 11 -4 163.91 9.72
5 -12 -4 58.24 6.1
5 -12 -4 67.77 6.13
-5 12 4 70.98 4.49
5 12 -4 71.71 5.44
5 12 -4 64.44 28.43
-5 12 4 19.41 22.24
-4 -12 4 154.73 8.37
4 -12 -4 162.82 8.52
-4 -12 4 162.45 26.59
4 -12 -4 157.83 9.04
4 -12 -4 153 8.64
-4 12 4 153.48 22.59
4 12 -4 152.02 7.85
4 12 -4 152.46 29.63
4 12 -4 142.81 8.04
4 12 -4 143.65 7.85
-4 12 4 143.15 7.18
-3 -12 4 91.54 5.95
3 -12 -4 90.97 5.51
3 -12 -4 87.2 5.6
3 -12 -4 96.61 6.12
-3 -12 4 67.16 21.2
-3 12 4 92.09 5.21
3 12 -4 96.23 5.6
-3 12 4 121.27 21.59
3 12 -4 107.47 6.17
3 12 -4 95.77 6.05
-3 12 4 102.27 17.95
3 12 -4 97.98 5.78
3 12 -4 75.27 28.57
-3 12 4 91.7 6.58
2 -12 -4 149.25 7.72
2 -12 -4 147.2 8.41
-2 -12 4 126.1 20.78
2 -12 -4 180.37 8.02
-2 -12 4 158.72 8.62
2 12 -4 148.84 21.58
2 12 -4 176.28 8.54
-2 12 4 150.36 7.89
2 12 -4 184.8 8.87
2 12 -4 169.04 8.43
-2 12 4 155.74 8.27
2 12 -4 165.65 8.16
-2 12 4 155.7 22.97
-1 -12 4 46.15 14.95
1 -12 -4 29.91 3.13
-1 -12 4 31.18 3.47
1 -12 -4 27.58 2.66
-1 -12 4 32.94 3.82
1 -12 -4 31.28 3.24
1 12 -4 28.97 3.36
1 12 -4 29.18 11.76
1 12 -4 34.26 3.09
1 12 -4 30.53 2.72
-1 12 4 42.65 11.62
-1 12 4 39.71 12.43
-1 12 4 29.07 4.18
1 12 -4 33.41 3.95
-1 12 4 23.97 2.6
0 -12 -4 17.78 1.66
0 -12 -4 19.99 2.63
0 -12 4 18.43 2.77
0 -12 -4 18.95 2.57
0 -12 4 16.73 14.18
0 -12 -4 21.51 1.62
0 12 -4 16.93 2.41
0 12 4 20.44 3.54
0 12 4 22.18 9.69
0 12 -4 12.79 10.59
0 12 -4 27.39 3.38
0 12 4 26.25 2.74
1 -12 4 130.47 7.32
1 -12 4 127.47 20.49
1 -12 4 130.54 7.84
-1 -12 -4 126.77 6.8
1 12 4 123.61 7.57
1 12 4 124.87 15.87
-1 12 -4 124.16 18.29
-1 12 -4 125.33 6.82
-1 12 -4 120.72 7.24
1 12 4 118.15 6.93
-2 -12 -4 259.65 11.93
2 -12 4 286.96 13.22
2 -12 4 242.54 13.32
2 12 4 262.11 13.2
-2 12 -4 280.12 28.19
2 12 4 287.55 25.6
-2 12 -4 260.51 12.75
-3 -12 -4 203.35 11.41
3 -12 4 192.18 11.35
3 -12 4 206.96 10.99
-3 -12 -4 200.54 9.15
-3 12 -4 204.64 10.56
3 12 4 200.6 11.56
4 -12 4 71.16 7.23
4 -12 4 70.95 7.57
-4 12 -4 64.22 5.98
4 12 4 79.78 7.72
5 -13 -4 17.32 4.23
5 -13 -4 22.72 4.1
-5 13 4 16.75 2.45
5 13 -4 22.15 3.3
5 13 -4 19.61 3.88
-4 -13 4 -47.42 20.76
-4 -13 4 -0.47 2.04
4 -13 -4 -1.07 1.85
4 -13 -4 1.02 2.44
4 -13 -4 0.91 2.88
4 13 -4 1.49 1.75
4 13 -4 -3.26 2.32
4 13 -4 -0.96 2.63
-4 13 4 -10.88 17.59
4 13 -4 23.83 27.06
-4 13 4 -1.26 1.44
4 13 -4 -0.99 2.1
3 -13 -4 105.47 6.37
3 -13 -4 107.32 6.44
-3 -13 4 101.23 23.05
-3 -13 4 108.03 6.75
-3 13 4 95.18 7.18
3 13 -4 117.68 24.46
3 13 -4 104.81 6.13
3 13 -4 111.78 6.45
-3 13 4 76.03 17.21
-3 13 4 112.36 6.03
3 13 -4 124.55 6.98
3 13 -4 128.72 6.84
-2 -13 4 329.9 33.42
2 -13 -4 308.19 14.7
-2 -13 4 300.74 14.79
2 -13 -4 314.81 13.91
2 -13 -4 295.1 13.73
2 13 -4 254.81 29.61
2 13 -4 312.43 14.26
2 13 -4 293.36 14.31
-2 13 4 317.31 13.88
2 13 -4 316.94 13.93
2 13 -4 309.42 13.76
-2 13 4 291.04 13.69
-2 13 4 295.4 27.88
-2 13 4 297 33.66
-1 -13 4 413.7 19.11
1 -13 -4 415.08 18.11
1 -13 -4 401.86 17.51
1 -13 -4 404.62 18.69
-1 -13 4 433.77 35.53
-1 13 4 427.5 18.54
-1 13 4 424.09 30.05
1 13 -4 417.91 18.46
1 13 -4 364.35 31.85
-1 13 4 427.23 33.49
1 13 -4 408.66 18.35
1 13 -4 437.72 18.82
0 -13 4 284.85 13.73
0 -13 -4 274.58 11.22
0 -13 4 302.64 30.35
0 -13 -4 262.51 11.16
0 -13 -4 259.32 12.62
0 -13 -4 262.89 12.76
0 13 -4 245.86 12.36
0 13 4 271.18 12.51
0 13 4 261.96 13.43
0 13 4 261.27 22.49
0 13 -4 257.51 26.38
0 13 -4 272.56 12.57
1 -13 4 463.8 39.12
-1 -13 -4 479.3 20.59
1 -13 4 469.82 21.09
1 -13 4 451.94 21.63
1 13 4 485.25 21.91
-1 13 -4 508.67 35.8
1 13 4 467.17 21.61
-1 13 -4 492.68 21.44
1 13 4 460.04 30.06
2 -13 4 27.76 3.68
-2 -13 -4 30.64 2.85
2 -13 4 23.76 3.89
-2 13 -4 29.01 3.26
2 13 4 34.17 4.73
3 -13 4 1.06 2.67
-3 -13 -4 3.13 1.24
3 -13 4 4.67 3.55
3 13 4 3.98 3.63
-3 13 -4 1.97 2.53
4 -13 4 165.87 11.52
4 -13 4 174.08 11.41
4 13 4 158.18 11.7
-4 13 -4 171.58 10.55
5 -14 -4 17.65 4.91
5 -14 -4 20.64 4.01
-5 14 4 25.83 3.61
5 14 -4 21.33 3.2
5 14 -4 28.86 4.42
-4 -14 4 67.8 5.77
-4 -14 4 145 27.99
4 -14 -4 73.91 6.72
4 -14 -4 79.65 5.9
4 14 -4 78.73 5.5
-4 14 4 79.67 5.07
4 14 -4 82.17 6.21
4 14 -4 90.54 52.21
3 -14 -4 53.6 4.29
3 -14 -4 54.63 5.31
3 -14 -4 53.54 5.2
-3 -14 4 55.65 4.96
-3 -14 4 63.28 24.11
3 14 -4 60.79 4.92
-3 14 4 55.97 5.8
-3 14 4 52.64 16.64
-3 14 4 55.02 4.05
3 14 -4 57.71 4.16
3 14 -4 51.44 20.73
3 14 -4 60.7 4.91
2 -14 -4 57.45 5.17
2 -14 -4 65.82 5.03
-2 -14 4 69.23 5.2
2 -14 -4 59 4.09
-2 -14 4 84.47 23.38
2 14 -4 68.82 4.38
2 14 -4 68.11 4.82
-2 14 4 55.46 15.14
-2 14 4 66.41 4.95
2 14 -4 68.84 4.99
-2 14 4 60.29 4.37
-1 -14 4 145.36 8.34
-1 -14 4 116.6 22.5
1 -14 -4 130.67 6.44
1 -14 -4 138.55 7.83
1 14 -4 119.36 7.12
1 14 -4 130.59 21.26
1 14 -4 127.88 7.04
-1 14 4 103.44 16.01
-1 14 4 140.03 7.16
1 14 -4 134.29 6.9
-1 14 4 114.99 19.47
0 -14 -4 106.72 6.45
0 -14 4 108.28 7.33
0 -14 4 141.99 22.7
0 14 -4 86.58 17.02
0 14 -4 96.57 6.44
0 14 4 105.03 6.35
0 14 -4 102.45 6.18
0 14 4 122.61 18.93
1 -14 4 128.77 10.46
1 -14 4 245.62 44.77
-1 -14 -4 154.89 7.84
1 14 4 161.63 8.79
1 14 4 157.03 9.78
2 -14 4 50.93 6.14
-2 -14 -4 58.42 4.09
2 -14 4 57.1 5.42
2 14 4 63.02 5.78
-2 14 -4 58.26 4.99
-3 -14 -4 13.25 1.84
3 -14 4 10.95 4.17
3 -14 4 17.98 4.22
-3 14 -4 18.94 3.4
3 14 4 16.62 4.55
4 -15 -4 16.38 3.48
4 -15 -4 18.44 3.77
-4 -15 4 18.79 3.22
4 15 -4 24.18 4.31
-4 15 4 18.78 2.73
4 15 -4 22.1 2.98
-3 -15 4 60.81 24.43
-3 -15 4 50.26 5.08
3 -15 -4 51.66 4.42
3 -15 -4 47.47 5.96
-3 15 4 57.25 4.26
3 15 -4 50.96 4.73
3 15 -4 60.72 6.95
3 15 -4 53.07 4.16
-3 15 4 51.22 5.79
2 -15 -4 65.25 5.29
-2 -15 4 75.25 5.84
-2 -15 4 75.3 24.96
2 -15 -4 69.05 4.32
2 15 -4 50.26 21.52
-2 15 4 79.41 4.98
-2 15 4 65.19 5.16
2 15 -4 71.37 5.13
2 15 -4 63.63 6.98
2 15 -4 72.55 4.6
-1 -15 4 292.98 34.07
1 -15 -4 229.44 11.87
1 -15 -4 220.79 10.21
-1 -15 4 247.09 12.61
-1 15 4 235.35 11.36
1 15 -4 229.5 11.22
-1 15 4 231.99 10.38
1 15 -4 215.5 31.53
1 15 -4 229.35 10.99
0 -15 4 42.64 7.08
0 -15 4 9.11 27.33
0 -15 -4 43 3.9
0 15 -4 36.85 4.07
0 15 -4 39.31 3.72
0 15 4 37.36 3.95
-1 -15 -4 193.87 9.48
1 -15 4 171.74 10.77
-1 15 -4 162.13 9.03
2 -15 4 149.7 8.76
-2 -15 -4 144.32 7.55
2 -15 4 137.54 9.82
2 15 4 154.07 10.07
-2 15 -4 157.19 9.05
3 -15 4 3.85 4.35
3 -15 4 10.89 3.95
-3 15 -4 18.02 4.34
3 15 4 17.05 4.48
4 16 -4 5.34 3.57
3 -16 -4 170.01 10.49
3 -16 -4 172.87 9.12
-3 -16 4 185.99 10.17
3 16 -4 171.73 8.87
3 16 -4 194.08 10.42
-3 16 4 163.43 8.99
2 -16 -4 68.95 5.92
-2 -16 4 58 5.78
2 -16 -4 49.12 3.86
-2 16 4 52.41 4.47
2 16 -4 55.97 5.1
2 16 -4 57.16 4.26
2 16 -4 67.01 7.15
1 -16 -4 9.61 2.42
1 -16 -4 9.08 1.22
-1 -16 4 8.08 2.87
-1 16 4 4.75 1.94
1 16 -4 8.57 1.89
1 16 -4 4.53 2.44
1 16 -4 10.52 2.61
0 -16 4 98.39 7.8
0 -16 -4 96.1 6.39
0 16 -4 88.01 6.66
-1 -16 -4 75.69 5.54
1 -16 4 90.71 7.46
-1 16 -4 80.96 6.34
1 16 4 66.93 6.42
-2 -16 -4 167.53 8.34
2 -16 4 147.15 10.21
2 -16 4 151.87 9.79
-2 16 -4 167.6 9.78
2 16 4 179.49 10.99
3 -17 -4 61.57 5.16
3 -17 -4 80.52 8.03
3 17 -4 67.83 4.94
3 17 -4 69.41 6.62
2 -17 -4 30.51 4.74
-2 -17 4 24.32 4.06
2 -17 -4 28.64 3.05
-2 17 4 22.44 4.99
2 17 -4 29.59 3.68
2 17 -4 36.04 4.94
-1 -17 4 145.57 9.92
1 -17 -4 142.2 8.95
1 17 -4 140.33 8.68
1 17 -4 150.06 7.47
-1 17 4 113.79 7.94
0 -17 4 84.46 7.71
0 -17 -4 71.91 5.73
0 17 4 76.18 6.55
0 17 -4 77.23 6.62
-1 -17 -4 13.24 2.65
1 -17 4 17.84 4.44
1 17 4 16.58 3.59
-1 17 -4 6.88 2.75
2 -18 -4 145.34 9.99
-2 -18 4 150.63 10.82
-2 18 4 154.6 9.34
2 18 -4 149.75 10.15
2 18 -4 167.87 8.4
1 -18 -4 62.85 6.62
-1 -18 4 55.03 7.43
1 18 -4 56.68 6
1 18 -4 54.75 4.71
-1 18 4 57.5 6.32
0 -18 -4 2.94 3.05
0 -18 4 3.13 3.29
0 18 4 0.62 2.95
0 18 -4 -1.13 3.57
7 0 -5 2.21 2.25
7 0 -5 3.3 4.18
-7 0 5 0.23 1.63
6 0 -5 25.97 4.01
-6 0 5 23.67 2.67
6 0 -5 25.84 23.48
-6 0 5 1.81 29.6
6 0 -5 29.8 4.13
6 0 -5 28.75 3.62
-5 0 5 34.7 2.13
-5 0 5 35.5 2.27
5 0 -5 18.84 15
5 0 -5 38.38 4.62
5 0 -5 33.43 4.21
5 0 -5 32.97 3.55
-5 0 5 26.11 15.3
4 0 -5 355.26 15.91
4 0 -5 368.29 27.88
-4 0 5 332.99 15.51
4 0 -5 326.35 15.47
-4 0 5 335.56 27.6
4 0 -5 324.04 15.63
3 0 -5 49.4 3.8
-3 0 5 55.38 3.82
3 0 -5 52.14 9.77
-3 0 5 68.02 11.71
3 0 -5 49.11 4.18
3 0 -5 52.89 3.86
2 0 -5 1.09 0.26
-2 0 5 -3.89 5.31
2 0 -5 -2.64 5.46
2 0 -5 1.82 1.44
-2 0 5 1.37 1.05
2 0 -5 0.7 0.96
2 0 -5 1.16 0.3
1 0 -5 20.92 5.1
1 0 -5 32.58 3.21
1 0 -5 26.18 2.22
-1 0 5 36.37 5.47
1 0 -5 30.6 1.87
0 0 -5 27.71 2.24
0 0 -5 32.79 5.1
0 0 -5 34.03 2.76
0 0 5 30.28 4.11
0 0 -5 34.24 2.87
0 0 -5 31.2 3.01
-1 0 -5 165.41 8.22
1 0 5 163.83 8.45
-1 0 -5 193.07 8.55
-1 0 -5 165.84 8.46
-1 0 -5 168.68 8.31
-2 0 -5 135.18 8.56
-2 0 -5 132.07 7
-2 0 -5 128.69 7.33
2 0 5 132.09 6.89
-2 0 -5 128 6.81
-2 0 -5 117.13 6.73
2 0 5 116.96 6.68
-2 0 -5 146.39 9.28
-3 0 -5 223.79 10.27
-3 0 -5 201.2 10.64
-3 0 -5 221.37 15.63
-3 0 -5 214.86 10.94
3 0 5 211.47 10.74
3 0 5 234.64 10.62
-3 0 -5 216.74 16
4 0 5 1.36 1.55
-4 0 -5 4.35 1.82
-4 0 -5 5.96 10.42
-4 0 -5 1.4 3.5
4 0 5 3.12 2.02
5 0 5 11.17 3.28
-5 0 -5 1.74 3.55
7 -1 -5 50.34 7.04
7 -1 -5 53.66 4.86
-7 -1 5 49.45 3.92
-7 1 5 41.32 3.38
7 1 -5 40.88 4.43
7 1 -5 55.02 6.39
6 -1 -5 59.17 4.7
6 -1 -5 42.06 6.35
-6 -1 5 61.68 3.72
-6 -1 5 60.09 26.39
6 -1 -5 63.83 5.8
-6 -1 5 59.36 3.94
6 1 -5 56.98 6.1
-6 1 5 53.27 3.39
6 1 -5 122.45 22
-6 1 5 66.51 3.79
6 1 -5 56.52 6.12
6 1 -5 58.86 4.62
-5 -1 5 97.72 19.8
-5 -1 5 80.93 4.32
5 -1 -5 99.9 18.45
-5 -1 5 83.71 4.08
5 -1 -5 83.66 6.3
5 -1 -5 90.17 5.59
5 -1 -5 73.2 5.75
5 1 -5 77.44 5.94
5 1 -5 80.51 5.32
5 1 -5 67.11 16.11
5 1 -5 80.61 5.71
-5 1 5 83.97 20.08
-5 1 5 81.79 3.7
-5 1 5 77.51 3.68
4 -1 -5 15.37 2.48
-4 -1 5 13.93 1.09
-4 -1 5 15.15 2.57
4 -1 -5 17.75 9.85
4 -1 -5 15.13 2.22
-4 -1 5 -1.54 9.87
4 1 -5 20 11.26
4 1 -5 11.14 2.05
4 1 -5 14.84 2.38
4 1 -5 14.4 2.58
-4 1 5 14.54 10.77
-4 1 5 14.65 2.5
3 -1 -5 105.45 6
3 -1 -5 125.92 13.99
3 -1 -5 102.92 6.07
-3 -1 5 106.63 6.03
-3 -1 5 123.98 15.29
3 -1 -5 113.58 6.4
-3 -1 5 103.79 4.51
-3 1 5 88.2 14.44
3 1 -5 119.81 6.25
3 1 -5 103.79 15.21
3 1 -5 102.14 5.83
-3 1 5 98.77 5.91
3 1 -5 100.73 5.84
-2 -1 5 50.57 3.47
2 -1 -5 46.09 3.53
2 -1 -5 49.47 3.38
-2 -1 5 54.71 9.38
2 -1 -5 49.71 9.8
2 -1 -5 48.33 3.76
-2 1 5 56.3 3.66
2 1 -5 54.45 2.51
2 1 -5 49.94 3.4
-2 1 5 44.08 8.19
2 1 -5 53.8 3.99
2 1 -5 63.16 9.95
1 -1 -5 317.67 12.56
-1 -1 5 294.43 16.86
1 -1 -5 298.66 12.47
1 -1 -5 295.76 13.63
1 -1 -5 281.68 13.1
1 -1 -5 282.85 17.02
1 1 -5 275.85 13
1 1 -5 300.76 12.39
-1 1 5 287.64 16.01
1 1 -5 303.61 13.52
1 1 -5 294.08 17.96
0 -1 -5 340.12 15.14
0 -1 -5 330.19 15.33
0 -1 5 330.13 17.04
0 -1 -5 346.09 14.72
0 -1 -5 316.84 14.83
0 -1 5 325.5 15.29
0 -1 -5 359.37 14.77
0 -1 -5 372.18 15.15
0 1 -5 311.41 13.83
0 1 -5 333.86 14.61
0 1 -5 312.71 16.72
0 1 -5 321.91 14.29
0 1 5 320.58 14.17
-1 -1 -5 177.12 8.83
-1 -1 -5 187.92 8.71
1 -1 5 170.16 8.88
-1 -1 -5 173.31 8.63
-1 -1 -5 194.67 8.84
-1 1 -5 194.79 8.81
-1 1 -5 159.07 10.21
-1 1 -5 188.89 8.89
-1 1 -5 182.23 10.24
-1 1 -5 172.57 8.55
2 -1 5 53.25 4.01
-2 -1 -5 63.08 4.19
2 -1 5 59.69 4.18
-2 -1 -5 63.89 4.25
-2 -1 -5 63.5 4.73
-2 -1 -5 55.5 4.05
-2 1 -5 62.14 4.37
-2 1 -5 55.91 4.75
-2 1 -5 62.86 4.25
-2 1 -5 61.65 4.28
-2 1 -5 69.99 7.87
2 1 5 59.25 4.09
-2 1 -5 60.64 8.66
-3 -1 -5 340.13 19.85
-3 -1 -5 391.32 15.88
3 -1 5 362.06 16.52
3 -1 5 322.24 16.06
-3 -1 -5 341.53 20.43
-3 -1 -5 376.11 16.36
-3 -1 -5 356.5 16.65
-3 1 -5 393.93 16.7
-3 1 -5 359.03 17.25
3 1 5 386.62 17.15
-3 1 -5 377.2 22.18
-3 1 -5 359.95 23.26
-3 1 -5 373.15 17.2
4 -1 5 93.12 6.23
-4 -1 -5 86.28 5.27
-4 -1 -5 124.39 15.87
-4 -1 -5 87.77 7.33
4 -1 5 90.07 5.64
-4 1 -5 94.66 5.7
4 1 5 95.73 6.33
5 -1 5 169.59 9.03
-5 -1 -5 180.99 10.93
5 1 5 196.04 10.53
-5 1 -5 177.47 11.13
7 -2 -5 8.44 2.62
7 -2 -5 15.94 4.29
-7 -2 5 15.24 2.22
7 2 -5 8.43 2.45
7 2 -5 9.7 3.98
6 -2 -5 42.97 4.34
-6 -2 5 74.02 23.91
6 -2 -5 53.47 5.41
-6 -2 5 43.12 3.38
-6 -2 5 44.67 3.5
6 2 -5 70.57 27.68
-6 2 5 39.12 2.88
6 2 -5 37.34 5.41
-6 2 5 37.89 24.1
6 2 -5 42.18 4.14
-6 2 5 37.69 2.43
6 2 -5 37.13 6.81
-5 -2 5 176.86 7.8
5 -2 -5 194.72 26.53
-5 -2 5 176.96 26.38
5 -2 -5 172.46 9.17
5 -2 -5 168.03 9.54
-5 2 5 155.51 23.45
5 2 -5 158.06 23.01
-5 2 5 168.71 7.06
5 2 -5 172.85 9.19
5 2 -5 167.2 9.22
-5 2 5 163.03 7.02
5 2 -5 162.71 8.6
-4 -2 5 357.55 14.48
4 -2 -5 338.09 16.23
4 -2 -5 353.14 26.73
-4 -2 5 347.42 15.97
-4 -2 5 353.61 28.04
4 -2 -5 340.56 16.05
4 2 -5 341.82 16.07
4 2 -5 357.72 16.02
4 2 -5 344.25 28.34
4 2 -5 348.16 15.83
-4 2 5 318.01 28.4
3 -2 -5 25.1 7.68
3 -2 -5 26 2.67
3 -2 -5 30.45 2.94
-3 -2 5 30.53 1.67
-3 -2 5 35.06 10.56
-3 -2 5 32.72 3.08
3 2 -5 30.35 10.68
3 2 -5 31.61 2.86
3 2 -5 32.38 1.79
3 2 -5 26.55 3.28
-3 2 5 30.73 3.23
-3 2 5 25.14 10.97
2 -2 -5 17.15 2.57
2 -2 -5 18.03 2.1
2 -2 -5 16.5 2.1
-2 -2 5 21.75 6.13
-2 -2 5 18.42 1.37
2 -2 -5 12.08 6.75
-2 2 5 20.5 2.22
2 2 -5 19.84 2.12
2 2 -5 17.79 1.3
2 2 -5 20.69 2.87
-2 2 5 21.28 6.96
2 2 -5 28.74 8.67
1 -2 -5 155.35 6.62
1 -2 -5 136.15 7.55
1 -2 -5 150.96 6.66
1 -2 -5 159.57 7.91
-1 -2 5 146.26 11.38
-1 -2 5 149.48 7.7
1 -2 -5 146.39 7.24
1 -2 -5 157.31 11
-1 -2 5 151.1 6.89
-1 2 5 143.56 10.41
1 2 -5 158.59 6.84
1 2 -5 163.69 13.14
1 2 -5 152.35 7.47
1 2 -5 156.87 7.97
0 -2 5 287.35 13.53
0 -2 5 306.84 16.22
0 -2 -5 310.47 13.63
0 -2 -5 289.01 12.98
0 -2 -5 294.02 13.15
0 -2 -5 297.55 12.93
0 -2 -5 280.4 12.86
0 2 -5 282.88 16.54
0 2 -5 299.84 13.43
0 2 -5 314.93 13.7
0 2 -5 289.98 12.92
-1 -2 -5 235.25 11.46
-1 -2 -5 254.16 11.72
-1 -2 -5 255.06 11.42
1 -2 5 258.18 11.91
-1 2 -5 253.89 11.73
-1 2 -5 253.77 14.41
-1 2 -5 245.09 11.31
-1 2 -5 254.95 11.58
-1 2 -5 235.54 14.48
-2 -2 -5 102.84 5.53
2 -2 5 102.58 5.84
-2 -2 -5 80.09 5.33
2 -2 5 102.88 5.76
-2 -2 -5 95.58 5.89
-2 2 -5 99.94 5.54
-2 2 -5 91.92 10.59
-2 2 -5 85 9.56
-2 2 -5 94.57 5.49
-2 2 -5 84.4 5.33
-3 -2 -5 63.2 8.68
-3 -2 -5 71.69 4.94
3 -2 5 63.19 4.73
-3 -2 -5 73.9 4.4
3 -2 5 69.06 4.63
-3 -2 -5 57.26 4.74
-3 -2 -5 72.69 8.82
-3 2 -5 48.4 10.24
-3 2 -5 64.03 4.63
3 2 5 64.86 4.51
-3 2 -5 100.8 12.69
-3 2 -5 65.5 4.52
-4 -2 -5 119.99 6.17
4 -2 5 117.79 6.94
-4 -2 -5 130.04 15.36
4 -2 5 113.53 7.25
4 2 5 125.49 7.11
-4 2 -5 137.49 19.03
-4 2 -5 110.74 6.72
5 -2 5 7.76 2.42
-5 -2 -5 13.75 2.75
5 -2 5 7.83 3.92
-5 -2 -5 11.51 3.78
-5 2 -5 11.48 3.48
5 2 5 4.41 2.77
7 -3 -5 23.47 5.71
7 -3 -5 16.13 2.83
-7 -3 5 19.94 2.91
7 3 -5 14.72 4.57
7 3 -5 20.05 2.8
6 -3 -5 160.82 9.89
6 -3 -5 144.69 8.46
-6 -3 5 157.4 7.59
-6 -3 5 138.19 28.59
6 3 -5 153.62 8.23
6 3 -5 157.57 9.22
-6 3 5 158.23 7.12
-6 3 5 151.7 6.86
6 3 -5 154.09 30.93
5 -3 -5 203.45 10.01
-5 -3 5 177.75 25.79
5 -3 -5 175.81 10.27
5 -3 -5 174.1 25.84
-5 -3 5 195.9 9.52
-5 3 5 177.18 25.1
5 3 -5 181.73 10.26
-5 3 5 193.09 8.14
5 3 -5 195.17 9.79
5 3 -5 199.94 26.78
-5 3 5 189.54 8.11
5 3 -5 215.93 10.37
-4 -3 5 45.41 12.94
4 -3 -5 44.67 4
4 -3 -5 34.13 10.97
-4 -3 5 50.15 2.69
4 -3 -5 45.81 4.09
-4 -3 5 50.74 4.41
4 3 -5 48.19 2.79
4 3 -5 44.83 4.39
4 3 -5 56.48 12.11
4 3 -5 48.73 3.8
-4 3 5 59.04 14.86
-4 3 5 49.75 4.69
4 3 -5 51.68 4.17
-3 -3 5 182.75 8.64
3 -3 -5 180.23 8.83
3 -3 -5 141.56 15.48
-3 -3 5 168.75 19.93
3 -3 -5 168.25 8.83
-3 -3 5 169.78 7.43
3 3 -5 166.65 8.66
3 3 -5 169.66 8.47
-3 3 5 161.86 8.33
3 3 -5 167.92 7.32
3 3 -5 161.78 18.21
2 -3 -5 60.89 3.81
2 -3 -5 56.63 3.99
2 -3 -5 64.7 9.51
-2 -3 5 60.2 3.09
2 3 -5 56.68 3.3
2 3 -5 68.08 4.53
-2 3 5 66.16 9.98
-2 3 5 61.83 3.87
2 3 -5 61.13 3.89
2 3 -5 84.04 12.71
-1 -3 5 262.68 11.43
1 -3 -5 263.4 11.77
-1 -3 5 262.62 12.28
1 -3 -5 287.76 12.41
1 -3 -5 257.52 11.06
1 -3 -5 256.46 15.2
1 -3 -5 241.4 12.13
-1 -3 5 261.25 16.25
1 3 -5 249.47 11.93
1 3 -5 255.71 10.9
-1 3 5 257.63 15.02
1 3 -5 261.17 17.54
1 3 -5 250.73 11.53
0 -3 5 726.82 35.23
0 -3 -5 729.01 31.3
0 -3 5 726.45 31.86
0 -3 -5 789.19 31.84
0 -3 -5 734.58 31.19
0 -3 -5 779.81 31.81
0 -3 5 740.95 31.3
0 3 -5 732.33 35.22
0 3 -5 780.01 31.61
0 3 -5 756.18 31.37
0 3 -5 699.52 30.78
-1 -3 -5 165.81 7.81
1 -3 5 163.07 8.28
1 -3 5 156.77 11.77
-1 -3 -5 159.99 8.13
-1 -3 -5 154.72 7.83
-1 3 -5 166.29 7.86
-1 3 -5 160.44 12.04
-1 3 -5 154.81 8.18
-1 3 -5 166 8.19
-2 -3 -5 17.96 2.48
2 -3 5 15.27 2.37
-2 -3 -5 18.69 2.34
-2 -3 -5 16.34 2.52
2 -3 5 16.28 2.31
-2 3 -5 19.06 2.56
-2 3 -5 17.89 2.3
-2 3 -5 8.32 5.59
-2 3 -5 19.7 6.6
-2 3 -5 19.59 2.71
-3 -3 -5 117.25 6.12
3 -3 5 118.05 6.92
-3 -3 -5 112.6 6.55
3 -3 5 107.32 6.61
-3 -3 -5 107.94 9.15
-3 -3 -5 124.01 9.16
-3 3 -5 119.51 6.78
-3 3 -5 133.06 15.36
3 3 5 111.5 6.52
-3 3 -5 119.65 6.72
4 -3 5 249.54 13.04
-4 -3 -5 235.11 18.8
-4 -3 -5 260.62 11.56
4 -3 5 247.67 12.32
-4 -3 -5 253.13 11.31
-4 3 -5 256.93 11.94
-4 3 -5 237.64 24.1
-4 3 -5 224.07 12.98
4 3 5 258.26 12.16
5 -3 5 169.32 10.83
-5 -3 -5 168.78 11.1
5 -3 5 175.33 9.55
-5 3 -5 186.41 10.98
5 3 5 169.83 10.94
7 -4 -5 78.81 8.67
7 -4 -5 87.13 9.03
7 4 -5 73 5.12
7 4 -5 61.22 7.72
6 -4 -5 70.86 6.73
6 -4 -5 77.84 5.8
-6 -4 5 97 23.24
-6 -4 5 91.28 5.11
-6 4 5 76.94 4.23
-6 4 5 75.36 3.85
6 4 -5 68.84 30.12
6 4 -5 91.29 6.44
6 4 -5 80.71 5.25
-5 -4 5 229.3 28.94
-5 -4 5 217.67 9.59
5 -4 -5 207.71 11.27
5 -4 -5 198.8 10.73
5 -4 -5 225.13 25.95
-5 4 5 193.61 7.91
5 4 -5 252.11 31.36
5 4 -5 173.22 9.88
-5 4 5 185.03 7.86
5 4 -5 184.83 8.75
5 4 -5 188.11 9.97
-5 4 5 186.21 26.94
5 4 -5 188.69 9.45
4 -4 -5 315.08 25.27
-4 -4 5 334.59 15.36
-4 -4 5 334.62 28.7
-4 -4 5 349.21 14.14
4 -4 -5 321.21 15.63
4 -4 -5 325.09 15.55
4 4 -5 305.81 14.9
4 4 -5 320.88 27.66
-4 4 5 283.95 28.69
4 4 -5 333.37 14.88
4 4 -5 320.95 13.74
-4 4 5 317.79 14.91
3 -4 -5 156.32 8.51
-3 -4 5 168.17 18.49
3 -4 -5 117.85 20.34
-3 -4 5 171.98 7.29
3 -4 -5 161.18 8.47
-3 -4 5 173.5 8.35
3 4 -5 176.25 7.52
-3 4 5 164.41 8.51
3 4 -5 181.27 8.81
3 4 -5 153.92 8.34
3 4 -5 156.74 17.95
2 -4 -5 33.63 2.83
-2 -4 5 36.87 2.27
2 -4 -5 31.99 2.97
2 -4 -5 35 1.55
2 -4 -5 24.01 7.07
-2 -4 5 33.32 2.9
2 4 -5 35.98 7.73
-2 4 5 34.12 7.27
2 4 -5 40.78 2.86
2 4 -5 38.61 2.19
-2 4 5 33.77 3.02
2 4 -5 35.26 3.47
1 -4 -5 59.65 2.94
1 -4 -5 53.03 3.38
-1 -4 5 55.21 3.96
-1 -4 5 55.92 9.09
1 -4 -5 58.72 4.03
1 4 -5 56.99 3.7
1 4 -5 63.57 4.19
1 4 -5 61.22 10.07
1 4 -5 57.99 3.19
-1 4 5 60.06 7.84
1 4 -5 62.47 4.03
0 -4 5 204.59 8.97
0 -4 -5 186.13 8.59
0 -4 -5 180.61 9.1
0 -4 -5 190.39 9.31
0 -4 5 160.63 13.27
0 -4 -5 183.22 8.52
0 -4 5 193.48 9.4
0 -4 -5 187.93 8.83
0 4 -5 198.05 14.36
0 4 -5 192.28 8.65
0 4 5 191.86 8.66
0 4 -5 193.84 9.28
0 4 -5 180.18 9.31
1 -4 5 561.13 24.58
1 -4 5 546.01 28.81
-1 -4 -5 567.87 24.27
-1 -4 -5 583.77 24.06
-1 -4 -5 553.05 23.79
-1 -4 -5 555.48 24.18
-1 4 -5 528.28 23.16
-1 4 -5 522.37 27.75
-1 4 -5 538.03 22.9
-1 4 -5 551.65 23.34
-2 -4 -5 198.76 9.34
2 -4 5 193.61 9.82
-2 -4 -5 185.59 9.09
-2 -4 -5 198.39 9.28
2 -4 5 199.76 9.89
-2 -4 -5 183.46 9.66
-2 4 -5 194.8 16.24
-2 4 -5 212.49 9.85
-2 4 -5 200.57 9.84
-2 4 -5 203.93 10.06
-2 4 -5 174.47 16.1
-3 -4 -5 118.36 6.69
-3 -4 -5 106.55 6.07
-3 -4 -5 132.74 9.24
-3 -4 -5 123.37 6.32
-3 -4 -5 116.09 8.76
3 -4 5 124.53 7.08
3 -4 5 113.08 7.09
3 4 5 134.37 6.85
-3 4 -5 124.77 7.07
-3 4 -5 131.7 16
-3 4 -5 111.59 7.03
4 -4 5 271.64 12.86
-4 -4 -5 268.44 11.61
-4 -4 -5 251.79 12.9
4 -4 5 223.91 15.71
4 4 5 265.1 12.64
-4 4 -5 256.47 12.61
-4 4 -5 260.65 13.03
-5 -4 -5 31.14 5.02
5 -4 5 25.27 3.47
5 -4 5 24.8 4.36
-5 4 -5 25.87 4.71
5 4 5 34.61 4.61
-6 -5 5 136.74 7.12
6 -5 -5 128.03 9.37
-6 -5 5 141.24 28.65
6 -5 -5 128.32 7.76
-6 5 5 127.08 5.89
6 5 -5 132.41 7.19
6 5 -5 133.12 8.76
5 -5 -5 95.25 18.2
5 -5 -5 124.91 7.31
-5 -5 5 118.42 6.56
5 -5 -5 120.83 7.53
-5 -5 5 125.77 22.85
5 5 -5 111.54 7.07
-5 5 5 135.61 23.75
5 5 -5 107.58 7.03
5 5 -5 132.24 22.18
5 5 -5 115.85 6.09
-5 5 5 117.5 5.12
5 5 -5 114.57 6.55
-5 5 5 111.17 4.99
-4 -5 5 60.26 3.44
4 -5 -5 48.18 11.37
-4 -5 5 36.81 14.56
-4 -5 5 48.75 4.56
4 -5 -5 61.05 4.36
4 -5 -5 46.36 4.26
-4 5 5 60.66 15.58
4 5 -5 64.1 14.64
4 5 -5 57.93 4.7
4 5 -5 49.22 3.33
4 5 -5 53.04 4.28
-4 5 5 51.76 4.67
-3 -5 5 279.48 22.6
3 -5 -5 251.01 12.54
3 -5 -5 263.61 12.46
3 5 -5 262.57 11.46
3 5 -5 246.55 22.67
3 5 -5 256.25 12.33
-3 5 5 263.07 12.3
3 5 -5 275.31 12.54
2 -5 -5 310.77 12.06
-2 -5 5 281.53 21.6
2 -5 -5 297.2 13.72
-2 -5 5 295.83 13.6
2 -5 -5 273.08 13.23
2 -5 -5 276.94 19.3
2 5 -5 300 13.54
-2 5 5 306.87 13.4
2 5 -5 288.97 21.06
2 5 -5 312.7 13.84
-2 5 5 275.39 19.98
2 5 -5 292.8 12.83
-2 5 5 298.16 12.45
-1 -5 5 223.28 9.95
-1 -5 5 220.16 10.78
-1 -5 5 206.77 16.07
1 -5 -5 231.22 9.54
1 -5 -5 226.16 10.17
1 -5 -5 206.17 10.56
-1 5 5 212.35 14.22
-1 5 5 227.79 14.45
1 5 -5 209.15 9.53
1 5 -5 216.78 10.46
1 5 -5 228.83 10.38
1 5 -5 222.48 17.08
1 5 -5 205.09 10.02
-1 5 5 211.44 9.48
0 -5 5 727.9 35.03
0 -5 -5 604.64 29.02
0 -5 5 698.92 28.9
0 -5 -5 655.62 29.15
0 -5 -5 697.17 28.7
0 -5 5 665.97 29.44
0 -5 -5 738.14 28.55
0 -5 -5 681.94 28.58
0 5 5 673.82 29.21
0 5 -5 701.72 28.64
0 5 -5 677.47 28.05
0 5 5 667.7 28.19
0 5 5 630.58 29.38
0 5 -5 677.09 34.32
0 5 -5 662.18 28.74
-1 -5 -5 17.01 2.25
1 -5 5 12.71 2.05
1 -5 5 18.34 6.51
-1 -5 -5 16.09 2.22
1 -5 5 14.97 2.42
1 -5 5 13.96 2.25
-1 -5 -5 14.23 2.16
-1 -5 -5 11.18 2.19
-1 -5 -5 14.81 1.63
-1 5 -5 15.58 6.47
-1 5 -5 12.41 1.7
-1 5 -5 16.89 2.36
-1 5 -5 12.85 2.3
-2 -5 -5 120.38 6.08
2 -5 5 107.81 6.57
2 -5 5 122.75 6.98
-2 -5 -5 118.14 6.4
-2 -5 -5 122.48 6.91
-2 -5 -5 112.15 6.12
-2 5 -5 127.27 6.57
-2 5 -5 95.12 14.36
-2 5 -5 119.07 6.79
-3 -5 -5 92.21 5.07
-3 -5 -5 84.09 5.16
-3 -5 -5 87.41 5.5
-3 -5 -5 98.92 8.44
3 -5 5 84.04 5.76
3 -5 5 90.03 5.89
-3 5 -5 83.54 5.76
-3 5 -5 74.76 12.65
-3 5 -5 86.97 5.55
-4 -5 -5 6.33 3.01
-4 -5 -5 6.97 1.32
4 -5 5 5.13 2.17
4 -5 5 7.42 2.56
-4 -5 -5 4.89 1.43
-4 5 -5 9.84 2.72
4 5 5 0.5 1.87
5 -5 5 191.3 10.63
-5 5 -5 186.94 10.55
5 5 5 169.32 9.6
6 -6 -5 -0.08 3.5
6 -6 -5 1.9 2.39
-6 -6 5 7.96 2.44
6 6 -5 5.12 1.97
5 -6 -5 290.57 14.39
-5 -6 5 329.48 34.37
-5 -6 5 292.92 13.22
5 -6 -5 303.98 14.75
5 -6 -5 269.88 30.11
5 6 -5 289.9 14.56
-5 6 5 302.77 12.61
5 6 -5 286.31 13.48
-5 6 5 274.13 36.59
5 6 -5 307.46 13.97
5 6 -5 291.52 34.95
-5 6 5 296.33 12.48
5 6 -5 311.65 14.09
-4 -6 5 358.91 14.93
4 -6 -5 346.09 16.29
-4 -6 5 343.24 15.79
4 -6 -5 304.62 27.45
-4 -6 5 360.49 29.86
4 -6 -5 338.58 16.21
-4 6 5 328.27 13.97
4 6 -5 327.28 14.88
-4 6 5 376.14 17.02
4 6 -5 338.4 15.88
4 6 -5 351.83 15.68
-4 6 5 338.64 14.05
4 6 -5 343.58 29.79
-4 6 5 306.21 31.04
-3 -6 5 2.49 9.27
3 -6 -5 11.2 1.98
-3 -6 5 12.16 1.58
-3 -6 5 10.94 1.95
3 -6 -5 9.81 1.92
3 6 -5 13.15 9.31
-3 6 5 7.77 1
3 6 -5 7.93 2.2
3 6 -5 9.97 1.92
-3 6 5 10.01 2.06
3 6 -5 7.84 1.17
2 -6 -5 62.23 4.01
-2 -6 5 64.77 3.54
2 -6 -5 54.39 4.25
-2 -6 5 61.6 11.63
-2 -6 5 57.02 4.13
2 -6 -5 59.23 2.89
2 6 -5 66.19 12.47
-2 6 5 48.09 8.79
2 6 -5 58.57 3.88
-2 6 5 59.31 3.08
2 6 -5 61.65 3.33
2 6 -5 55.32 4.41
-2 6 5 58.93 3.9
-1 -6 5 71.88 4.69
1 -6 -5 70.48 3.67
-1 -6 5 76.02 4.17
1 -6 -5 71.83 4.68
1 -6 -5 71.04 4.16
1 6 -5 69.64 11.51
-1 6 5 64.65 9.37
-1 6 5 75.19 3.92
1 6 -5 74.42 4.8
1 6 -5 73.06 4.87
1 6 -5 74.11 4.38
1 6 -5 79.02 4.01
-1 6 5 69.45 10.08
0 -6 5 146.2 7.96
0 -6 -5 143.7 7.12
0 -6 5 149.45 15.4
0 -6 5 151.3 7.57
0 -6 -5 155.42 7.37
0 -6 -5 152.95 7.17
0 -6 -5 154.83 7.81
0 6 5 149.1 7.29
0 6 5 154.93 9.82
0 6 5 132.13 9.79
0 6 -5 151.1 7.15
0 6 -5 152.05 7.71
0 6 -5 134.45 15.96
0 6 -5 159.9 7.94
1 -6 5 891.77 46.53
-1 -6 -5 949.16 39.5
1 -6 5 975.67 40.47
1 -6 5 937.08 40.26
-1 -6 -5 981.06 39.49
-1 -6 -5 974.08 39.86
-1 -6 -5 919.16 40.04
-1 -6 -5 1044.87 40.27
1 -6 5 904.8 40.55
-1 6 -5 990.85 39.84
-1 6 -5 980.44 40.24
-1 6 -5 953.99 46.9
-1 6 -5 953.26 40.11
1 6 5 887.02 39.98
-2 -6 -5 584.6 24.99
2 -6 5 577.87 25.75
-2 -6 -5 604.28 24.97
2 -6 5 531.4 25.46
-2 -6 -5 618.82 24.65
-2 -6 -5 572.01 25.25
-2 6 -5 582.23 33.81
-2 6 -5 596.17 25.83
-2 6 -5 599.66 25.68
3 -6 5 238.48 11.73
-3 -6 -5 224.59 13.54
-3 -6 -5 227.71 10.81
-3 -6 -5 215.8 10.46
3 -6 5 236.63 11.73
-3 -6 -5 223.44 10.57
3 6 5 238.28 14.14
-3 6 -5 182.41 22.31
-3 6 -5 225.76 11.47
-3 6 -5 264.07 12.6
4 -6 5 281.59 14.4
-4 -6 -5 296.89 12.58
4 -6 5 297.43 14.99
-4 -6 -5 284.56 14.03
-4 6 -5 291.89 14.26
4 6 5 283.54 13.49
5 -6 5 5.75 3.4
5 -6 5 -4.94 4.13
5 6 5 3.52 2.51
-5 6 -5 9.36 4.18
6 -7 -5 27.36 3.82
6 -7 -5 34.88 4.98
6 7 -5 30.13 3.85
-6 7 5 32.81 2.58
6 7 -5 28.84 3.71
5 -7 -5 -0.23 1.85
5 -7 -5 7.63 2.44
5 -7 -5 -0.51 17.15
-5 -7 5 -1.8 1.81
5 7 -5 1.16 2.3
-5 7 5 1.05 1.29
5 7 -5 -1.09 1.43
5 7 -5 0.48 1.9
-5 7 5 -13.45 19.44
5 7 -5 -3 1.55
4 -7 -5 37.23 11.77
-4 -7 5 37.17 14.24
-4 -7 5 56.33 3.6
-4 -7 5 46.49 4.63
4 -7 -5 58.24 4.7
4 -7 -5 47.81 4.39
4 7 -5 72.69 16.27
4 7 -5 51.33 4.22
4 7 -5 47.16 3.35
4 7 -5 43.33 4.41
-4 7 5 48.72 2.55
-4 7 5 53.51 17.43
3 -7 -5 223.29 9.43
-3 -7 5 226.06 9.99
-3 -7 5 240.98 24.18
3 -7 -5 213.41 11.04
3 -7 -5 214.05 10.87
-3 -7 5 219.13 10.79
-3 7 5 214.33 11.63
3 7 -5 231.73 22.18
-3 7 5 200.5 9.29
3 7 -5 238.56 10.91
3 7 -5 215.83 9.94
-3 7 5 232.13 10.81
3 7 -5 211.61 10.58
-2 -7 5 1054.64 54.24
-2 -7 5 1080.3 44.82
-2 -7 5 1130.29 43.82
2 -7 -5 978.37 44.73
2 -7 -5 1053.57 43.26
2 -7 -5 1062.83 44.39
-2 7 5 1041.7 52.72
2 7 -5 1086.42 55.01
-2 7 5 1017.21 44.46
-2 7 5 1105.96 44.7
2 7 -5 1107.55 45.16
2 7 -5 1087.95 44.37
-2 7 5 1075.38 53.05
2 7 -5 1070.58 44.86
-1 -7 5 508.38 22.86
1 -7 -5 512.51 22.76
-1 -7 5 491.54 36.4
-1 -7 5 514.12 22.02
1 -7 -5 540.36 22.16
1 7 -5 516.28 22.79
1 7 -5 546.9 22.75
-1 7 5 504.7 27.67
1 7 -5 531.95 22.31
1 7 -5 519.05 23
1 7 -5 517.94 30.26
-1 7 5 531.14 22.23
-1 7 5 534.41 28.16
0 -7 5 152.55 8.02
0 -7 5 122.86 14.74
0 -7 -5 141 6.86
0 -7 -5 134.34 7.4
0 -7 5 150.33 7.45
0 -7 -5 134.63 6.84
0 -7 -5 150.4 7.09
0 7 5 123.02 6.79
0 7 -5 138.25 7.37
0 7 5 140.31 10.85
0 7 5 131.66 10.64
0 7 -5 142.27 6.78
0 7 -5 153.78 7.7
0 7 -5 124.61 15.62
1 -7 5 118.47 6.94
1 -7 5 129.35 14.33
-1 -7 -5 114.45 6.34
-1 -7 -5 115.26 5.89
-1 -7 -5 116.62 5.76
1 -7 5 114.54 6.72
-1 -7 -5 118.35 6.37
1 -7 5 114.73 6.83
-1 -7 -5 120.47 6.64
-1 7 -5 115.07 6.75
-1 7 -5 107.41 15.31
-1 7 -5 122.24 6.22
1 7 5 115.06 10.67
1 7 5 113.93 9.27
-1 7 -5 124.99 6.84
1 7 5 117.32 6.42
-2 -7 -5 7.21 1.53
-2 -7 -5 8.01 1.6
2 -7 5 6.07 1.91
-2 -7 -5 4.19 2.11
-2 -7 -5 10.79 2.52
2 -7 5 6.83 2.05
-2 7 -5 9.08 1.78
-2 7 -5 11.14 2.54
2 7 5 15.15 5.68
-2 7 -5 -4.37 9.06
2 7 5 8.84 2.15
-3 -7 -5 36.38 3.69
-3 -7 -5 33.78 3.11
3 -7 5 40.98 4.51
-3 -7 -5 34.29 3.69
3 -7 5 36.94 4.09
-3 -7 -5 44.58 6.58
-3 7 -5 1.51 12.45
-3 7 -5 39.68 13.76
3 7 5 36.49 6.93
-3 7 -5 33.54 3.39
4 -7 5 170.99 9.47
4 -7 5 169.76 10.14
-4 -7 -5 156.77 7.24
-4 -7 -5 164.51 9.19
-4 7 -5 172.34 10
6 -8 -5 135.16 9.74
6 -8 -5 131.81 8.63
-6 8 5 139.32 6.46
6 8 -5 138.96 7.64
6 8 -5 135.83 7.97
6 8 -5 120.44 12.18
-5 -8 5 266.32 35.54
5 -8 -5 273.37 13.65
-5 -8 5 269.04 12.5
5 -8 -5 258.9 16.47
-5 8 5 262.95 11.65
5 8 -5 272.56 12.67
-5 8 5 259.01 11.27
5 8 -5 260.31 12.46
5 8 -5 304.16 39.21
5 8 -5 257.75 13.12
4 -8 -5 491.21 22.49
-4 -8 5 471.07 38.09
4 -8 -5 490.51 22.36
-4 -8 5 511.23 21.28
4 8 -5 473.65 21.25
4 8 -5 490.77 37.33
-4 8 5 510.99 39.79
4 8 -5 475.07 21.64
4 8 -5 522.18 22.12
3 -8 -5 193.43 9.58
3 -8 -5 176.42 9.7
-3 -8 5 185.43 8.68
3 -8 -5 185.42 8.16
-3 -8 5 178.45 9.38
-3 -8 5 200.24 22.64
3 8 -5 189.99 9.38
-3 8 5 182.04 9.38
3 8 -5 169.92 20.35
3 8 -5 177.74 9.07
-3 8 5 174.08 8.03
3 8 -5 180.88 8.52
-3 8 5 179.25 22.05
2 -8 -5 121.76 6.27
2 -8 -5 116.21 5.31
-2 -8 5 122.63 5.9
-2 -8 5 100.51 6.42
2 -8 -5 98.4 6.53
-2 -8 5 116.45 17.27
-2 8 5 119.94 6.15
-2 8 5 122.28 15.17
2 8 -5 111.88 6.61
2 8 -5 110.51 5.72
2 8 -5 126.34 16.67
-2 8 5 108.55 7.16
-2 8 5 112.78 5.4
2 8 -5 106.3 6.01
-2 8 5 120.58 14.45
2 8 -5 112.64 6.5
1 -8 -5 335.54 14.89
-1 -8 5 337.71 24.65
-1 -8 5 327.91 15.76
-1 -8 5 349.48 14.97
1 -8 -5 335.19 15.58
1 -8 -5 333.84 14.49
-1 8 5 322.78 20.79
1 8 -5 316.67 14.67
-1 8 5 311.43 13.83
1 8 -5 307.95 13.93
1 8 -5 319.44 14.28
1 8 -5 274.97 22.65
-1 8 5 316.63 20.69
1 8 -5 339.51 14.53
0 -8 -5 172.48 8.32
0 -8 -5 186.37 8.46
0 -8 5 177.39 8.85
0 -8 -5 175.29 8.98
0 -8 -5 171.97 8.31
0 -8 5 186.06 9.49
0 8 5 194.96 8.91
0 8 -5 179.07 9.08
0 8 -5 190.07 9.51
0 8 -5 157.35 19.29
0 8 5 181.76 13.52
0 8 5 177.5 13.81
0 8 -5 179.12 8.66
1 -8 5 71.46 5.33
1 -8 5 79.2 13.22
1 -8 5 73.08 5.11
-1 -8 -5 65.9 4.76
1 -8 5 75.7 5.05
-1 -8 -5 77.19 4.64
-1 -8 -5 70.42 3.95
1 8 5 76.48 9.79
-1 8 -5 82.71 5.7
1 8 5 92.44 8.76
-1 8 -5 87.83 14.23
-1 8 -5 79.8 5.53
-1 8 -5 77.03 4.71
1 8 5 86.51 5.25
2 -8 5 443.14 20.31
-2 -8 -5 470.18 18.98
2 -8 5 437.73 20.42
-2 -8 -5 440.98 19.37
-2 -8 -5 410.86 22.06
-2 -8 -5 446.38 19.65
-2 -8 -5 453.13 18.89
2 8 5 457.4 21.02
-2 8 -5 491.82 20.6
2 8 5 448.78 24.39
-2 8 -5 446.49 31.56
-3 -8 -5 371.08 16.69
-3 -8 -5 376.19 21.37
-3 -8 -5 378.01 16.71
3 -8 5 363.42 18.88
-3 -8 -5 384.07 16.49
3 -8 5 403.49 18.23
-3 8 -5 370.43 17.28
3 8 5 372.4 21.29
4 -8 5 121.08 8.62
4 -8 5 112.87 9.2
-4 8 -5 118.45 7.63
6 -9 -5 125.36 8.71
6 -9 -5 129.35 9.56
-6 9 5 136.96 6.57
6 9 -5 124.36 7.85
6 9 -5 126.37 7.37
-5 -9 5 71.75 22.62
5 -9 -5 28.73 4.38
-5 -9 5 36.62 4.39
5 -9 -5 33.16 4.02
5 9 -5 1.03 26.41
5 9 -5 28.68 4.2
5 9 -5 34.68 4.32
5 9 -5 26.61 3.51
-5 9 5 27.86 2.52
-5 9 5 46 19.47
-4 -9 5 91.85 5.54
4 -9 -5 98.16 6.36
-4 -9 5 123.55 21.69
4 -9 -5 95.27 5.01
4 -9 -5 84.74 6.2
-4 9 5 73.44 16.93
4 9 -5 75 17.89
4 9 -5 76.31 5.83
-4 9 5 88.85 4.3
-4 9 5 94.62 20.58
4 9 -5 90.79 5.74
4 9 -5 86.82 5.24
-3 -9 5 147.63 7.32
-3 -9 5 138.46 8.02
3 -9 -5 137.67 8.07
3 -9 -5 144.02 6.76
3 -9 -5 156.96 8.03
-3 -9 5 153.49 20.58
-3 9 5 108.38 19.68
3 9 -5 141.1 7.47
-3 9 5 136.75 6.37
-3 9 5 131.08 7.76
3 9 -5 149.92 7.06
3 9 -5 142.5 7.77
3 9 -5 103.67 17.01
2 -9 -5 248.3 10.5
-2 -9 5 249.31 11.06
2 -9 -5 241.01 11.88
-2 -9 5 225.91 23.27
-2 -9 5 240.84 11.89
2 -9 -5 216.43 11.16
-2 9 5 233.05 12.47
-2 9 5 230.16 10.77
2 9 -5 244.84 11.14
-2 9 5 237.81 23.59
2 9 -5 245.93 11.45
2 9 -5 236.05 11.61
-2 9 5 240.99 11.3
2 9 -5 247.26 22.81
2 9 -5 275.64 12.06
-2 9 5 235.51 20.72
1 -9 -5 506.39 20.18
-1 -9 5 477.79 20.58
1 -9 -5 486.01 21.24
1 -9 -5 465.86 20.41
-1 -9 5 431.89 21.25
-1 -9 5 470.9 33.33
-1 9 5 427.85 28.17
1 9 -5 455.39 19.74
1 9 -5 465.25 20.02
-1 9 5 447.95 19.59
-1 9 5 477.09 27.3
1 9 -5 469.33 20.2
1 9 -5 457 20.33
1 9 -5 436.85 31.19
0 -9 -5 368.25 18.29
0 -9 5 400.28 18.27
0 -9 -5 465.11 17.75
0 -9 -5 414.8 17.83
0 -9 5 428.08 32.72
0 -9 5 393.48 18.88
0 9 -5 373.05 26.26
0 9 5 403.82 24.3
0 9 -5 392.66 17.63
0 9 5 399.01 22.77
0 9 5 375.06 17.3
0 9 -5 405.7 17.28
1 -9 5 612.8 26.39
-1 -9 -5 626.38 25
-1 -9 -5 592.68 25
-1 -9 -5 590.4 25.72
-1 -9 -5 569.51 25.8
1 -9 5 618.24 26.42
1 -9 5 585.63 26.66
1 9 5 585.2 29.47
-1 9 -5 619.16 25.85
1 9 5 593.2 30.94
-1 9 -5 598.55 37.1
-1 9 -5 590.85 26.07
1 9 5 609.28 26.19
-2 -9 -5 234.3 10.94
-2 -9 -5 259.77 12.12
-2 -9 -5 263.33 11.65
-2 -9 -5 237.15 16.35
-2 -9 -5 250.28 11.09
2 -9 5 247.36 12.49
2 -9 5 261.02 12.85
2 9 5 252.18 12.56
-2 9 -5 249.32 12.07
-2 9 -5 261.49 27.68
2 9 5 262 17.44
3 -9 5 5.82 2.43
-3 -9 -5 8.69 2.07
-3 -9 -5 8.23 1.38
-3 -9 -5 8.16 2.26
-3 -9 -5 7.32 1.6
3 -9 5 8.36 2.71
-3 9 -5 8.21 2.19
4 -9 5 346.53 17.88
4 -9 5 367.58 17.87
-4 9 -5 359.93 17.37
6 -10 -5 332.09 17
6 -10 -5 338.58 17.3
6 10 -5 347.49 17.19
6 10 -5 372.99 17.12
5 -10 -5 180.15 10.55
-5 -10 5 167.1 34.11
5 -10 -5 179.87 10.34
5 10 -5 180.11 9.47
5 10 -5 185.06 9.97
-5 10 5 183.5 25.77
-5 10 5 177.99 8.13
5 10 -5 171.19 9.3
4 -10 -5 321.63 14.4
-4 -10 5 311.16 14.8
-4 -10 5 287.96 33.79
4 -10 -5 351.22 15.84
4 -10 -5 330.93 15.96
4 10 -5 342.37 15.33
-4 10 5 313.36 13.92
4 10 -5 329.6 15.04
4 10 -5 262.28 35.11
-4 10 5 276.65 40.64
-4 10 5 309.55 32.32
4 10 -5 339.44 14.92
3 -10 -5 449.23 23.35
-3 -10 5 590.36 23.22
-3 -10 5 552 23.98
3 -10 -5 543.94 22.6
3 -10 -5 538.14 24.17
-3 -10 5 550.8 39.02
-3 10 5 515.56 35.51
-3 10 5 523.34 22.98
3 10 -5 530.75 22.97
3 10 -5 504.29 22.82
-3 10 5 519.06 21.89
3 10 -5 527.18 22.56
3 10 -5 520.52 36.95
2 -10 -5 107.64 5.48
-2 -10 5 114.38 6.1
-2 -10 5 116.8 18.34
-2 -10 5 103.39 6.75
2 -10 -5 102.06 6.56
2 -10 -5 119.69 6.25
-2 10 5 111.71 5.47
2 10 -5 107.97 6.62
2 10 -5 105.19 5.81
-2 10 5 102.55 6
2 10 -5 95.56 15.58
2 10 -5 106.07 6.5
-2 10 5 95.1 15.51
-2 10 5 99.65 16.13
2 10 -5 111.97 6.09
1 -10 -5 41.47 3.05
-1 -10 5 39.89 3.78
-1 -10 5 44.13 4.04
1 -10 -5 38.55 3.09
1 -10 -5 40.09 3.56
-1 -10 5 42.1 13.01
-1 10 5 24.64 8.33
-1 10 5 41.36 5.16
1 10 -5 34.99 2.94
1 10 -5 37.61 3.98
-1 10 5 41.14 3.02
1 10 -5 37.06 3.23
1 10 -5 38.48 3.94
-1 10 5 34.99 10.79
1 10 -5 21.86 9.84
0 -10 -5 413.64 18.03
0 -10 5 394.59 29.24
0 -10 -5 386.61 16.97
0 -10 -5 363.01 17.27
0 -10 5 396.61 17.97
0 -10 5 405.64 18.58
0 -10 -5 415.33 17.06
0 10 -5 424.71 30.27
0 10 5 408.85 17.65
0 10 -5 383.53 17.8
0 10 -5 379.81 17.42
0 10 5 419.87 25.05
0 10 5 372.58 23.95
1 -10 5 361.68 17.45
-1 -10 -5 370.82 16.61
-1 -10 -5 373.81 15.74
-1 -10 -5 373.05 15.52
-1 -10 -5 355.75 16.49
1 10 5 372.47 17.04
1 10 5 380.29 22.22
-1 10 -5 362.37 16.6
-2 -10 -5 177.86 7.71
-2 -10 -5 148.39 8.87
2 -10 5 177.28 9.74
-2 -10 -5 169.96 8.39
-2 -10 -5 174.53 8.35
-2 -10 -5 166.96 15.44
2 -10 5 170.05 9.34
2 10 5 190.4 10.24
2 10 5 195.57 16.36
-2 10 -5 188.97 25.63
-2 10 -5 190.84 24.01
-2 10 -5 187.68 9.5
3 -10 5 115.4 10.18
-3 -10 -5 148.47 7.05
-3 -10 -5 146.53 7.8
-3 -10 -5 155.97 7.29
-3 -10 -5 150.33 6.8
3 10 5 147.31 9.13
-3 10 -5 148.78 8.42
4 -10 5 47.77 7.24
4 -10 5 48.7 5.87
-4 10 -5 41.11 5.11
5 -11 -5 65.92 6.44
5 -11 -5 52.73 5.95
5 11 -5 41.59 5.15
5 11 -5 51.27 4.77
-5 11 5 52.3 3.45
4 -11 -5 65.66 5.47
4 -11 -5 67.88 5.29
-4 -11 5 59.61 21.28
-4 -11 5 65.2 5.13
4 -11 -5 68.08 4.68
4 11 -5 62.87 4.67
4 11 -5 88.42 19.7
4 11 -5 59.58 4.99
4 11 -5 68.83 5.35
-4 11 5 64 3.76
-4 11 5 36.73 16.47
-3 -11 5 109.68 7.14
-3 -11 5 126.95 22.23
3 -11 -5 120.5 6.16
-3 -11 5 118.08 6.83
3 -11 -5 123.62 7.33
3 -11 -5 113.44 6.88
-3 11 5 109.73 7.09
3 11 -5 118.89 7.08
3 11 -5 106.84 6.41
3 11 -5 108.9 6.27
-3 11 5 105.34 16.1
3 11 -5 111.93 19.9
-3 11 5 125.17 31.06
3 11 -5 114.22 7.2
-3 11 5 112.84 5.64
-2 -11 5 94.38 6.85
2 -11 -5 119 5.87
-2 -11 5 111.25 19.23
2 -11 -5 127.54 7.23
2 -11 -5 110.78 6.24
-2 11 5 118.54 6.33
2 11 -5 107.53 6.88
2 11 -5 118.54 18.97
2 11 -5 108.72 5.95
2 11 -5 118.18 6.76
2 11 -5 114.82 6.27
-2 11 5 80.49 13.81
-2 11 5 86.32 15.46
-2 11 5 103 5.64
1 -11 -5 251.28 10.64
-1 -11 5 219.71 26.51
1 -11 -5 226.66 11.42
-1 -11 5 235.35 11.88
1 -11 -5 217.73 10.55
-1 -11 5 217.57 11
-1 11 5 259.53 13.44
-1 11 5 227.72 10.75
-1 11 5 228.05 20
1 11 -5 195.17 23.17
1 11 -5 227.8 10.94
1 11 -5 231.3 11.03
-1 11 5 225.87 19.77
1 11 -5 227.51 11.24
0 -11 5 28.63 15.53
0 -11 -5 29.37 3.56
0 -11 -5 28.4 2.37
0 -11 -5 33.72 2.69
0 -11 -5 38.29 3.42
0 -11 5 39.94 4.22
0 11 5 44.47 9.21
0 11 5 35.56 3.33
0 11 -5 32.19 2.99
0 11 -5 32.92 4.12
0 11 -5 39.13 12.98
0 11 5 37.67 8.78
-1 -11 -5 328.43 14.37
-1 -11 -5 315.39 13.13
1 -11 5 291.99 15.09
1 -11 5 295.71 29.63
-1 -11 -5 300.7 12.95
-1 11 -5 252.44 26.19
-1 11 -5 338.16 14.18
1 11 5 303.91 20.79
1 11 5 279.69 14.24
2 -11 5 36.29 5.13
-2 -11 -5 27.42 2.11
-2 -11 -5 33.85 4.59
-2 -11 -5 32.32 3.02
-2 -11 -5 29.51 2.1
2 -11 5 32.37 4.38
2 11 5 30.73 3.87
-3 -11 -5 51.09 3.36
3 -11 5 48.84 6.08
-3 -11 -5 44.31 2.76
3 -11 5 52.83 6.11
-3 11 -5 48.89 5.24
3 11 5 47.67 5.68
4 -11 5 46.07 6.47
4 -11 5 50.69 7.03
-4 11 -5 60.07 6.44
5 -12 -5 177.88 10.79
5 -12 -5 168.9 10.7
-5 12 5 157.37 7.97
5 12 -5 182.49 9.73
5 12 -5 164.53 9.99
-4 -12 5 118.65 28.16
4 -12 -5 152.67 8.45
-4 -12 5 154.74 8.4
4 -12 -5 127.61 8.64
4 -12 -5 147.52 7.79
4 12 -5 149.09 8.21
4 12 -5 146.45 8.98
-4 12 5 159.84 7.32
4 12 -5 145.46 8.31
4 12 -5 143.36 8.44
-3 -12 5 760.62 32.99
3 -12 -5 772.35 32.5
3 -12 -5 711.02 35.86
3 -12 -5 749.54 31.63
-3 -12 5 785.54 52.15
-3 12 5 761.1 30.94
3 12 -5 732.38 31.7
-3 12 5 739.54 31.77
3 12 -5 752.67 31.62
-3 12 5 664.56 44.01
3 12 -5 760.71 31.7
3 12 -5 702.54 48.71
2 -12 -5 305.38 15.51
2 -12 -5 332.69 14.82
-2 -12 5 336.61 15.88
2 -12 -5 328.78 14.44
2 12 -5 309.89 31.3
-2 12 5 311.83 14.48
-2 12 5 346.12 14.82
2 12 -5 334.19 14.97
2 12 -5 327.5 15.22
2 12 -5 322.48 14.91
-2 12 5 294.46 26.78
-2 12 5 355.55 31.95
1 -12 -5 84.03 4.89
-1 -12 5 130.21 20.85
-1 -12 5 99.4 6.43
1 -12 -5 89.6 5.47
1 -12 -5 92.92 5.94
-1 12 5 96.34 5.44
1 12 -5 96.07 6.2
1 12 -5 94.69 5.59
-1 12 5 69.5 12.93
-1 12 5 94.47 14.34
1 12 -5 89.33 5.54
1 12 -5 75.53 15.71
0 -12 5 28.76 15.82
0 -12 -5 36.94 2.75
0 -12 -5 35.91 2.64
0 -12 5 33.2 4.17
0 -12 -5 36.87 3.61
0 -12 -5 46.16 4.22
0 12 5 31.2 8.91
0 12 5 40.04 3.53
0 12 -5 60.5 15.16
0 12 -5 33.69 3.44
0 12 5 26.66 9.15
1 -12 5 91.97 22.56
-1 -12 -5 101.6 5.9
1 -12 5 92.74 6.82
-1 12 -5 93.97 5.83
1 12 5 73.25 14.36
1 12 5 95.86 6.24
2 -12 5 283.46 14.85
-2 -12 -5 293.42 13.21
-2 12 -5 301.8 14.26
2 12 5 290.4 15.64
-3 -12 -5 278.83 12.42
3 -12 5 280.76 15.25
3 12 5 278.47 15.17
-3 12 -5 289.29 14.34
5 -13 -5 11.19 4.2
5 -13 -5 6.07 3.66
5 13 -5 13.12 3.66
5 13 -5 9.11 3.3
-5 13 5 13.59 2.17
-4 -13 5 3.46 2.56
4 -13 -5 3.9 2.34
4 -13 -5 1.09 2.71
4 13 -5 1.96 2.2
4 13 -5 1.44 2.09
4 13 -5 1.85 3.51
-4 13 5 2.99 1.46
-3 -13 5 152.34 8.95
3 -13 -5 139.36 7.9
-3 -13 5 235.11 34.43
3 -13 -5 162.89 8.4
3 -13 -5 149.07 9.2
-3 13 5 132.46 8.5
3 13 -5 148.17 8.5
3 13 -5 136.62 7.72
3 13 -5 137.69 7.82
-3 13 5 153.91 7.25
-2 -13 5 148.04 24.11
2 -13 -5 138.99 8.45
2 -13 -5 143.87 7.33
2 -13 -5 144.21 7.41
-2 -13 5 134.12 8.41
2 13 -5 138.25 8.19
2 13 -5 141.43 7.73
2 13 -5 149.1 7.83
-2 13 5 146.4 7.69
-2 13 5 143.84 7.41
-2 13 5 151.51 31.05
1 -13 -5 225.22 10.29
1 -13 -5 221.58 10.84
-1 -13 5 218.79 11.85
1 -13 -5 241.99 11.67
-1 -13 5 214.44 28.53
1 13 -5 224.12 10.78
-1 13 5 204.67 10.47
-1 13 5 225.17 23.47
-1 13 5 215.32 26.01
1 13 -5 207.78 26.98
1 13 -5 203.69 10.9
1 13 -5 235.48 10.72
0 -13 -5 213.07 11.37
0 -13 5 226.22 12.38
0 -13 -5 245.94 10.07
0 -13 5 262.02 29.12
0 -13 -5 234.79 10.04
0 13 5 236.65 11.5
0 13 5 226.23 21.96
0 13 -5 228.08 11.33
1 -13 5 66.64 5.91
-1 -13 -5 66.67 4.74
-1 13 -5 63.78 5.38
1 13 5 61.01 5.01
2 -13 5 -0.05 3.54
2 -13 5 7.13 2.71
-2 -13 -5 7.7 1.94
2 13 5 8.44 3.04
-2 13 -5 7.54 2.88
3 -13 5 239.99 13.37
-3 -13 -5 226.04 10.66
3 -13 5 224.39 13.68
3 13 5 254.16 14.03
-3 13 -5 243.06 12.8
-4 -14 5 217.33 11.88
4 -14 -5 220.01 12.58
4 -14 -5 229.56 12.01
-4 14 5 220.25 10.33
4 14 -5 219.91 11.4
4 14 -5 209.12 11.13
3 -14 -5 135.69 8.73
3 -14 -5 125.01 7.12
3 -14 -5 104.75 7.1
-3 -14 5 116.75 7.85
3 14 -5 125.56 7.98
3 14 -5 130.89 7.32
-3 14 5 148.84 9.28
-3 14 5 112.24 6.63
2 -14 -5 234.3 12.19
2 -14 -5 238.33 11.04
-2 -14 5 237.5 12.52
2 -14 -5 228.71 11.27
2 14 -5 257.55 12.13
-2 14 5 239.91 11.53
2 14 -5 247.98 11.77
-2 14 5 240.08 11.54
2 14 -5 234.04 11.99
-1 -14 5 58.18 5.6
1 -14 -5 49.67 3.54
1 -14 -5 46.86 4.51
-1 14 5 57.38 4.45
1 14 -5 79.35 8.6
1 14 -5 52.56 4.59
1 14 -5 50.72 4.37
0 -14 -5 14.64 2.45
0 -14 5 11.1 2.97
0 14 -5 12.67 2.7
0 14 5 14.84 2.61
-1 -14 -5 -2.96 1.65
1 -14 5 3.71 3
-1 14 -5 0.18 2.21
1 14 5 0.92 2.57
-2 -14 -5 95.56 5.81
2 -14 5 92.72 8.26
2 -14 5 96.46 7.64
2 14 5 114.77 8.78
-2 14 -5 103.69 7.27
3 14 5 44.76 6.47
4 -15 -5 141.61 10.51
-4 -15 5 154.67 9.31
4 -15 -5 158.64 10.88
-4 15 5 166.7 8.41
4 15 -5 159.94 9.11
4 15 -5 148.72 9.65
3 -15 -5 59.91 6.78
-3 -15 5 72.83 6.56
3 -15 -5 69.24 5.2
3 15 -5 70.64 5.32
-3 15 5 63.81 4.83
3 15 -5 73.19 6.04
2 -15 -5 432.77 18.36
2 -15 -5 401.64 19.81
-2 15 5 442.06 19.74
2 15 -5 437.66 18.91
2 15 -5 382.26 18.88
2 15 -5 422.94 19.22
-2 15 5 410.77 18.73
1 -15 -5 27.71 2.89
1 -15 -5 29.1 3.84
-1 -15 5 38.52 5.14
-1 15 5 26.47 3.78
1 15 -5 28.03 3.51
1 15 -5 38.79 4.34
0 -15 5 95.62 8.3
0 -15 -5 113.15 6.92
0 15 5 103.56 6.67
0 15 -5 90.17 6.44
1 -15 5 82.62 7.74
-1 -15 -5 90.61 5.95
-1 15 -5 90.05 6.58
1 15 5 92.54 7.21
2 -15 5 150.8 9.88
2 -15 5 119.67 9.7
-2 -15 -5 149.69 7.81
-2 15 -5 146.98 8.85
2 15 5 144.75 10.23
3 -16 -5 156.93 8.46
3 -16 -5 152.33 9.82
-3 -16 5 154.12 9.69
-3 16 5 152.57 8.57
3 16 -5 175.7 9.84
3 16 -5 158.8 8.89
2 -16 -5 81.85 6.98
2 -16 -5 69.28 4.66
-2 -16 5 74.77 7.38
-2 16 5 68.75 5.3
2 16 -5 74.47 6.46
2 16 -5 75.51 5.35
1 -16 -5 181.69 10.34
-1 -16 5 192.25 11.34
1 -16 -5 160.66 7.85
1 16 -5 174.36 10.18
-1 16 5 179.62 9.7
1 16 -5 177.59 9.37
0 -16 -5 64.18 5.82
0 -16 5 65.05 7.32
0 16 5 51.45 5.04
0 16 -5 48.28 5.6
1 -16 5 23.79 4.26
-1 -16 -5 17.43 2.92
-1 16 -5 19.83 3.54
1 16 5 19.41 4.25
2 -17 -5 193.34 11.5
2 -17 -5 195.85 10.16
-2 -17 5 204.7 12.56
2 17 -5 211.7 11.3
-2 17 5 189.42 12.9
2 17 -5 196.89 10.29
-1 -17 5 99.62 8.85
1 -17 -5 95.37 7.62
-1 17 5 106.89 7.08
1 17 -5 107.78 6.62
1 17 -5 93.26 7.44
0 -17 -5 118.01 8.2
0 -17 5 131.56 9.64
0 17 -5 111.8 7.85
0 17 5 115.51 8.63
7 0 -6 165.75 11.88
6 0 -6 152.28 9.8
6 0 -6 155.16 8.82
-5 0 6 46.07 17.9
5 0 -6 50.49 4.62
5 0 -6 53.59 6.03
5 0 -6 49.88 15.5
5 0 -6 56.28 4.73
4 0 -6 312.65 15.04
-4 0 6 280.64 29.83
4 0 -6 313.49 28.04
4 0 -6 325.38 15.32
4 0 -6 311.8 14.93
3 0 -6 12.61 11.31
-3 0 6 17.95 2.61
3 0 -6 14.59 2.42
3 0 -6 15.07 2.32
3 0 -6 14.89 2.77
-3 0 6 4.99 7.13
2 0 -6 15.18 1.15
2 0 -6 13.71 8.12
2 0 -6 17.72 2.89
-2 0 6 16.86 7.09
2 0 -6 12.86 1.88
2 0 -6 14.26 1.04
1 0 -6 2.92 1.04
-1 0 6 6 4.37
1 0 -6 2.84 1.04
1 0 -6 2.34 5.17
1 0 -6 3.95 1.98
1 0 -6 1.5 0.63
0 0 6 461.74 21.28
0 0 -6 460.53 20.59
0 0 -6 511.99 20.17
0 0 -6 455.82 20.21
0 0 -6 516.55 22.03
0 0 -6 444.71 20.4
0 0 -6 446.84 20.88
-1 0 -6 61.88 4.58
-1 0 -6 59.19 4.53
-1 0 -6 70.2 4.92
-1 0 -6 62.56 4.1
-2 0 -6 606.94 25.89
-2 0 -6 579.25 26.11
-2 0 -6 598.56 26.02
2 0 6 618.72 26.06
-2 0 -6 571.61 25.77
-3 0 -6 210.7 13.43
3 0 6 211.07 10.87
-3 0 -6 210.46 10.96
-3 0 -6 204.85 10.38
-3 0 -6 212.24 12.61
-4 0 -6 65.61 5.07
-4 0 -6 54.73 10.28
-4 0 -6 58.47 6.56
6 -1 -6 120.38 8.6
-6 -1 6 122.57 5.43
-6 -1 6 107.18 5.22
6 -1 -6 111.97 7.33
6 1 -6 113.62 7.37
6 1 -6 128.38 8.82
-5 -1 6 60.35 19.08
5 -1 -6 80.74 5.73
5 -1 -6 76.01 5.99
5 -1 -6 87.73 17.67
5 1 -6 77.5 5.32
5 1 -6 70.44 5.56
5 1 -6 60.73 17.28
-5 1 6 62.32 19.25
5 1 -6 59.11 6.37
4 -1 -6 277.91 13.72
-4 -1 6 286.37 26.68
4 -1 -6 279.34 13.43
4 -1 -6 257.19 13.36
-4 1 6 235.34 27.96
4 1 -6 253.56 12.69
4 1 -6 252.45 12.5
4 1 -6 254.62 24.46
4 1 -6 247.42 12.3
3 -1 -6 226.87 21.82
3 -1 -6 220.87 11.14
3 -1 -6 223.02 11.3
3 -1 -6 245.84 11.8
-3 -1 6 222.41 10.98
3 1 -6 226.51 11.11
-3 1 6 239.5 11.08
3 1 -6 214.2 21.04
-3 1 6 217.03 18.92
3 1 -6 218.47 11.43
2 -1 -6 628.81 27.75
-2 -1 6 658.33 33.49
2 -1 -6 636.15 27.3
2 -1 -6 651.26 27.76
2 -1 -6 597.16 33.7
2 1 -6 608.48 34.35
-2 1 6 656.94 32.83
2 1 -6 607.61 25.42
2 1 -6 643.96 27.29
2 1 -6 598.46 26.7
-1 -1 6 448.05 23.03
1 -1 -6 437.4 19.14
1 -1 -6 424.53 19.69
1 -1 -6 434.51 18.4
1 -1 -6 437.08 23.24
1 -1 -6 444.75 18.31
1 1 -6 429.4 18.87
1 1 -6 416.61 24.12
1 1 -6 420.53 17.98
1 1 -6 445.12 19.44
-1 1 6 436.14 22.04
0 -1 6 1354.03 59.22
0 -1 -6 1469.53 58.91
0 -1 -6 1340.65 58.66
0 -1 -6 1426.36 58.47
0 -1 -6 1390.38 59.21
0 -1 -6 1495.36 58.48
0 -1 6 1474.72 60.9
0 1 -6 1475.23 60.1
0 1 -6 1458.84 60.36
0 1 -6 1411.05 62.38
0 1 -6 1449.99 59.48
-1 -1 -6 50.57 3.86
1 -1 6 50.79 3.98
-1 -1 -6 52.57 3.91
-1 -1 -6 53.37 4.32
-1 -1 -6 43.77 3.49
-1 1 -6 58.14 4.32
-1 1 -6 48.39 3.58
-1 1 -6 47.27 5.98
-1 1 -6 55.13 4.49
-1 1 -6 55.05 4.32
2 -1 6 18.92 2.8
-2 -1 -6 18.48 2.55
-2 -1 -6 17.75 2.64
-2 -1 -6 21.15 3.45
-2 -1 -6 15.37 2.46
-2 1 -6 15.5 4.29
-2 1 -6 17.03 2.39
-2 1 -6 19.6 2.87
-2 1 -6 15.28 4.83
-2 1 -6 14.36 2.59
-2 1 -6 20.82 3.46
3 -1 6 54.06 4.34
-3 -1 -6 42.04 4.14
3 -1 6 45.65 4.42
-3 -1 -6 41.01 4.18
-3 1 -6 44.68 8.6
-3 1 -6 34.81 3.75
-3 1 -6 37.59 4.11
-3 1 -6 37.91 7.37
3 1 6 39.28 3.87
-4 -1 -6 109.29 8.59
-4 -1 -6 93.94 7.97
4 -1 6 101.26 7.14
-4 -1 -6 99.55 13.56
4 -1 6 108.29 6.69
4 1 6 103.51 7.31
-4 1 -6 108.96 17.21
-4 1 -6 103.19 7.76
-4 1 -6 104.85 6.73
6 -2 -6 88.94 6.17
-6 -2 6 80.05 4.24
6 -2 -6 77.54 7.74
6 2 -6 77.3 6
6 2 -6 82.47 7.24
5 -2 -6 440.34 20.83
-5 -2 6 443.29 38.07
5 -2 -6 455.68 20.56
-5 -2 6 453.17 18.32
-5 -2 6 441.74 18.46
5 -2 -6 422.2 36.67
-5 2 6 443.55 39.99
5 2 -6 438.47 20.47
5 2 -6 460.97 20.99
5 2 -6 447.26 20.86
5 2 -6 465.52 38.43
4 -2 -6 467.38 35.69
4 -2 -6 528.19 22.61
4 -2 -6 482.63 22.27
4 -2 -6 476.54 22.16
-4 -2 6 506.09 35.68
-4 -2 6 487.35 20.07
4 2 -6 471.29 35.33
-4 2 6 491.64 36.35
4 2 -6 514.93 22.92
4 2 -6 506.51 22.71
4 2 -6 526.29 22.96
3 -2 -6 139.56 7.71
3 -2 -6 128.33 17.05
3 -2 -6 130.08 7.71
3 -2 -6 152.83 8.41
-3 -2 6 142.29 6.06
-3 -2 6 140.25 7.55
3 2 -6 140.55 7.69
3 2 -6 143.2 16.69
3 2 -6 139.61 6.06
-3 2 6 142.33 7.6
-3 2 6 116.93 16.9
3 2 -6 150.02 8.3
2 -2 -6 78.23 12.01
-2 -2 6 105.66 12.52
2 -2 -6 96.16 5.88
2 -2 -6 92.7 6.12
2 -2 -6 97.03 5.53
-2 2 6 94.87 11.72
2 2 -6 111.6 6.6
2 2 -6 92.49 5.62
2 2 -6 126.89 16.26
-2 2 6 100.09 5.7
2 2 -6 101.06 4.64
1 -2 -6 601.19 25.19
1 -2 -6 560.22 26.44
1 -2 -6 624.71 25.28
-1 -2 6 616.76 30.43
1 -2 -6 633.7 29.54
1 -2 -6 614.15 26.01
1 2 -6 633.25 33.38
1 2 -6 676.34 28.1
1 2 -6 639.01 26.66
1 2 -6 613.12 27.45
-1 2 6 646.72 30.41
1 2 -6 652.55 27.72
0 -2 6 851.74 38.05
0 -2 -6 805.83 34.47
0 -2 -6 820.94 34.72
0 -2 -6 881.73 34.97
0 -2 6 737.74 35.19
0 -2 -6 841.36 35.33
0 -2 -6 848.12 34.5
0 2 -6 882.24 36.24
0 2 -6 753.06 38.87
0 2 -6 882.04 35.33
0 2 -6 868.1 35.95
-1 -2 -6 999.9 39.91
-1 -2 -6 857.48 39.95
1 -2 6 943.97 40.39
-1 -2 -6 978.78 39.84
-1 -2 -6 963.79 39.9
-1 2 -6 998.99 40.76
-1 2 -6 970.81 40.91
-1 2 -6 994.86 43.31
-1 2 -6 930.7 42.82
-1 2 -6 935.83 40.39
2 -2 6 273.41 13.12
2 -2 6 260.27 13.01
-2 -2 -6 287.53 12.87
-2 -2 -6 266.95 13.15
-2 -2 -6 270.4 12.66
-2 -2 -6 261.31 12.87
-2 2 -6 258.77 13.5
-2 2 -6 283.65 14.09
-2 2 -6 291.83 17.88
-2 2 -6 279.8 13.31
-2 2 -6 288.21 13.2
3 -2 6 138.26 8.05
-3 -2 -6 130.32 7.41
3 -2 6 141.88 7.89
-3 -2 -6 133.07 7.94
-3 2 -6 129.23 7.44
-3 2 -6 123.23 16
-3 2 -6 117.13 14.07
-3 2 -6 134.14 7.62
-4 -2 -6 57.86 7.56
-4 -2 -6 63 6.86
4 -2 6 58.06 5.2
4 -2 6 50.33 6.03
-4 2 -6 63.5 5.39
4 2 6 60.13 5.4
-4 2 -6 52.94 6.01
6 -3 -6 117.06 8.84
6 -3 -6 124.81 7.66
-6 -3 6 111.64 6.11
6 3 -6 120.98 8.53
6 3 -6 120.3 7.5
6 3 -6 115.64 8.74
-5 -3 6 3.95 1.07
5 -3 -6 3.9 2.56
5 -3 -6 0.99 1.97
5 -3 -6 11.96 14.85
-5 -3 6 19.26 17.58
5 3 -6 1.35 3.07
-5 3 6 13.77 19.62
5 3 -6 11.65 16.36
5 3 -6 -0.36 1.84
5 3 -6 2.95 2.06
4 -3 -6 101.6 17.86
4 -3 -6 92.75 6.18
4 -3 -6 82.39 5.81
-4 -3 6 86.23 4.11
-4 -3 6 128.1 20.01
-4 3 6 72.43 15.55
4 3 -6 90.34 5.83
4 3 -6 91.86 4.34
4 3 -6 111.45 17.35
4 3 -6 82.23 5.83
4 3 -6 86.66 6.46
3 -3 -6 277.13 13.43
-3 -3 6 274.14 11.94
3 -3 -6 277.33 23.24
-3 -3 6 270.01 24.18
3 -3 -6 307.1 13.87
-3 3 6 295.18 13.67
-3 3 6 260.61 23.32
3 3 -6 289.78 12.27
3 3 -6 309.78 14.21
3 3 -6 281.92 22.86
3 3 -6 286.72 13.69
-2 -3 6 11.07 7.98
2 -3 -6 10.68 2.08
2 -3 -6 16.19 2.68
2 -3 -6 10.97 5.74
2 -3 -6 13.01 2.04
-2 -3 6 13.45 1.71
-2 3 6 14.48 2.18
2 3 -6 8.87 2.43
-2 3 6 -2.98 6.1
2 3 -6 6.69 9.46
2 3 -6 6.31 1.57
-1 -3 6 930.71 39.75
1 -3 -6 972.04 38.42
1 -3 -6 961.4 39.77
-1 -3 6 945.16 44.5
-1 -3 6 864.44 38.62
1 -3 -6 980.66 42.45
1 -3 -6 953.37 39.75
1 -3 -6 887.42 39.03
1 -3 -6 914.9 38.27
1 3 -6 989.77 40.46
1 3 -6 893.49 40.14
1 3 -6 895.2 46.02
1 3 -6 1084.81 40.94
-1 3 6 965.26 43.21
1 3 -6 917.21 39.38
0 -3 6 416.78 19.65
0 -3 6 437.51 23.22
0 -3 -6 407.88 18.73
0 -3 -6 471.69 18.8
0 -3 -6 431.42 19.1
0 -3 -6 439.29 19.53
0 -3 -6 418.4 18.89
0 -3 -6 463.5 19.76
0 3 -6 455.77 25.27
0 3 -6 481.51 21.1
0 3 -6 462.38 20.81
0 3 -6 487.23 20.2
-1 -3 -6 184.29 9.05
-1 -3 -6 177.87 9.1
-1 -3 -6 178.44 9.45
1 -3 6 194.22 9.72
-1 3 -6 183.87 8.96
-1 3 -6 171.12 13.55
-1 3 -6 195.31 9.71
-1 3 -6 185.14 9.5
2 -3 6 22.11 3.04
2 -3 6 24.29 3.25
-2 -3 -6 29.92 3.03
-2 -3 -6 33.21 3.62
-2 -3 -6 20.45 3.24
-2 -3 -6 23.8 3.35
-2 3 -6 33.64 8.56
-2 3 -6 23.41 2.96
-2 3 -6 20.25 6.8
-2 3 -6 33.84 3.84
3 -3 6 47.17 4.28
-3 -3 -6 51.02 4.35
-3 -3 -6 46.15 4.28
-3 -3 -6 43.16 4.81
3 -3 6 54.28 4.57
-3 3 -6 41.71 11.06
-3 3 -6 59.13 11.55
-3 3 -6 48.56 4.83
-3 3 -6 46.65 4.42
4 -3 6 165.17 8.88
4 -3 6 144.17 9.27
-4 -3 -6 146.63 7.85
-4 -3 -6 136.42 9.96
4 3 6 149.79 8.6
-4 3 -6 150.22 9.69
6 -4 -6 41.15 5.58
6 -4 -6 37.18 4.97
6 4 -6 54.1 6.68
6 4 -6 49.19 4.83
6 4 -6 32.58 5.17
-5 -4 6 288.72 33.5
5 -4 -6 272.76 14.28
5 -4 -6 314.74 34.43
5 -4 -6 308.56 14.29
-5 -4 6 259.1 12.91
5 4 -6 287.3 13.7
5 4 -6 280.11 14.04
5 4 -6 235.58 31.56
-5 4 6 275.47 35.63
5 4 -6 284.44 14.13
4 -4 -6 302.89 14.71
-4 -4 6 312.7 28.92
4 -4 -6 293.32 14.6
-4 -4 6 311.76 12.84
4 -4 -6 280.6 26.7
4 4 -6 264.34 13.91
4 4 -6 282.32 13.83
-4 4 6 299.27 28.98
4 4 -6 297.47 12.31
4 4 -6 301.68 28.05
3 -4 -6 74.39 13.19
3 -4 -6 94.18 5.91
-3 -4 6 88.55 13.96
-3 -4 6 91.78 4.38
3 -4 -6 79.95 5.55
-3 4 6 93.88 5.68
3 4 -6 85.67 5.6
3 4 -6 82.01 15.56
-3 4 6 93.36 14.94
3 4 -6 91.27 4.38
3 4 -6 94.75 6.32
2 -4 -6 9.78 0.68
-2 -4 6 8.13 2
2 -4 -6 2.63 6.73
-2 -4 6 7.88 1.38
2 -4 -6 6.19 1.98
2 -4 -6 9.11 0.72
2 -4 -6 7.78 1.59
-2 -4 6 20.11 7.59
2 4 -6 12.98 9.17
2 4 -6 7.81 2.18
-2 4 6 7.07 6.56
2 4 -6 9.17 1.9
-2 4 6 7.78 1.73
2 4 -6 8.27 1.13
-1 -4 6 82.87 4.83
1 -4 -6 82.63 5.75
1 -4 -6 80.6 5.43
1 -4 -6 85.92 4.92
-1 -4 6 92.96 5.74
1 -4 -6 85.41 4.24
-1 -4 6 101.51 11.59
1 4 -6 82.25 5.05
-1 4 6 84.29 9.42
1 4 -6 84.84 4.33
1 4 -6 87.22 5.47
1 4 -6 85.21 5.65
-1 4 6 95.61 9.1
1 4 -6 82.2 12.55
0 -4 6 381.51 22.21
0 -4 -6 405.41 16.66
0 -4 6 378.64 16.98
0 -4 -6 379.45 17.59
0 -4 6 403.86 17.84
0 -4 -6 381.07 16.79
0 -4 -6 352.79 17.29
0 4 -6 360.44 22.37
0 4 -6 384.56 17.29
0 4 -6 379.33 17.5
0 4 -6 394.67 16.56
1 -4 6 538.41 24.15
-1 -4 -6 550.66 23.25
-1 -4 -6 544.37 23.34
-1 -4 -6 538.57 23.74
-1 -4 -6 572.06 23.53
-1 -4 -6 522.89 23.78
1 -4 6 522.21 28.32
-1 4 -6 564.97 24.27
-1 4 -6 535.14 28.85
-1 4 -6 545.27 23.64
-2 -4 -6 23.29 3.35
-2 -4 -6 28.14 3.07
-2 -4 -6 30.9 4.26
2 -4 6 32.28 3.55
-2 -4 -6 35.16 3.77
2 -4 6 25.46 3.49
-2 4 -6 28.96 8.24
-2 4 -6 30.34 3.2
-2 4 -6 26.93 8.13
-2 4 -6 30.45 4.1
3 -4 6 267.74 13.96
-3 -4 -6 301.85 13.68
3 -4 6 288.22 14.32
-3 -4 -6 259.46 13.09
-3 -4 -6 304.99 13.3
-3 4 -6 291.96 13.98
-3 4 -6 274.29 22.79
-4 -4 -6 31.54 3.57
4 -4 6 33.32 5
4 -4 6 31.47 4.66
-4 -4 -6 38.99 5.41
-4 4 -6 30.85 4.31
6 -5 -6 25.64 3.9
6 -5 -6 32.77 4.95
6 5 -6 38.36 5.19
6 5 -6 34.93 4.39
5 -5 -6 18.16 3.05
-5 -5 6 18.96 17.47
-5 -5 6 18.36 2.06
5 -5 -6 14.34 3.62
5 5 -6 19.92 3.2
5 5 -6 18.75 2.36
5 5 -6 20.42 3.09
5 5 -6 19.87 3.73
5 5 -6 11.39 18.45
4 -5 -6 66.27 5.1
-4 -5 6 64.56 4.54
4 -5 -6 44.55 12.59
4 -5 -6 56.69 4.74
-4 -5 6 62.02 17.16
4 5 -6 66.56 5.79
4 5 -6 78.5 16.44
-4 5 6 85.23 16.97
4 5 -6 62.65 4.79
4 5 -6 60.58 3.78
-3 -5 6 889.84 48.63
3 -5 -6 870.26 37.38
3 -5 -6 833.73 36.99
3 -5 -6 880.38 47.34
3 5 -6 837.3 35.75
3 5 -6 881.98 37.04
-3 5 6 882.35 36.81
3 5 -6 813.47 49.5
-3 5 6 837.68 48.3
3 5 -6 924.92 37.29
-2 -5 6 1286.03 52.35
2 -5 -6 1254.53 51.62
2 -5 -6 1276.2 53.17
2 -5 -6 1232.05 59.55
-2 -5 6 1296.07 53.65
2 -5 -6 1297.87 53.73
-2 5 6 1348.47 62.31
2 5 -6 1378.87 55.3
2 5 -6 1287.38 53.95
-2 5 6 1288.88 54.62
2 5 -6 1298.66 65.01
2 5 -6 1308.47 54.91
-1 -5 6 1332.06 63.91
1 -5 -6 1405.78 57.96
-1 -5 6 1449.09 57.05
1 -5 -6 1338.09 57.19
-1 -5 6 1323 57.96
1 -5 -6 1442.45 56.46
1 5 -6 1448.98 57.65
1 5 -6 1437.82 58.79
1 5 -6 1385.71 58.46
-1 5 6 1381.09 61.76
1 5 -6 1390.34 65.93
1 5 -6 1402.08 58.37
-1 5 6 1389.56 62.16
0 -5 6 147.51 14.41
0 -5 -6 162.95 8.73
0 -5 -6 160.94 8.12
0 -5 -6 175.59 8.07
0 -5 6 163.44 9.06
0 -5 -6 181.15 8.46
0 -5 -6 170.91 9.1
0 -5 6 179.85 8.66
0 5 -6 166.38 16.06
0 5 -6 160.56 8.85
0 5 -6 173.57 9.12
0 5 -6 168.32 7.97
-1 -5 -6 153.89 8.55
-1 -5 -6 152.11 7.81
-1 -5 -6 154.87 7.6
1 -5 6 147.42 8.47
-1 -5 -6 159.49 7.99
-1 -5 -6 155.17 8.14
1 -5 6 180.83 14.85
-1 5 -6 151.73 15.58
-1 5 -6 178.91 8.21
-1 5 -6 150.98 8.71
2 -5 6 259.95 13.04
-2 -5 -6 253.9 12.23
-2 -5 -6 277.52 12.77
-2 -5 -6 256.58 12.45
-2 -5 -6 287.7 15.72
2 -5 6 263.9 13.29
-2 5 -6 258.39 12.44
-2 5 -6 231.34 20.33
-2 5 -6 284.44 14.2
-3 -5 -6 268.98 13.53
3 -5 6 287.49 14.15
-3 -5 -6 283.37 13.06
-3 -5 -6 284.9 13.13
-3 5 -6 297.08 24.13
-3 5 -6 241.05 13.44
4 -5 6 427.19 20.7
4 -5 6 432.68 20.03
-4 -5 -6 416.91 18.47
-4 5 -6 419.57 19.88
6 -6 -6 129.38 8.95
6 -6 -6 134.61 10
6 6 -6 139.58 8.25
6 6 -6 140.3 9.66
-5 -6 6 128.36 23.51
5 -6 -6 118.56 7.85
-5 -6 6 119.87 6.14
5 6 -6 110.76 7.14
5 6 -6 110.72 6.93
5 6 -6 116.67 7.77
5 6 -6 108.12 5.95
-4 -6 6 33.54 2.68
-4 -6 6 14.42 14.12
4 -6 -6 32.13 3.89
4 -6 -6 27.06 3.7
4 -6 -6 16.51 11.51
4 6 -6 22.1 14.07
4 6 -6 33.02 4.75
4 6 -6 30.04 2.55
-4 6 6 39.46 16.56
4 6 -6 34.76 3.76
-3 -6 6 104.28 17.11
-3 -6 6 134.6 6.38
3 -6 -6 128.73 7.61
3 -6 -6 131.8 7.41
3 -6 -6 125.16 19.81
3 6 -6 161.87 8.32
3 6 -6 136.57 6.52
3 6 -6 128.43 7.49
-3 6 6 104.17 17.77
-3 6 6 137.22 7.59
3 6 -6 128.11 17.79
2 -6 -6 92.75 6.34
-2 -6 6 111.87 5.53
2 -6 -6 94.59 5.88
-2 -6 6 104.23 6.35
2 -6 -6 114.09 4.71
-2 6 6 106.02 6.01
-2 6 6 113.32 13.89
2 6 -6 103.2 6.78
2 6 -6 119.21 6.25
2 6 -6 106.73 5.32
-2 6 6 86.16 13.72
2 6 -6 83.51 15.48
-1 -6 6 159.8 7.69
-1 -6 6 158.12 8.54
1 -6 -6 154.36 8.39
-1 -6 6 161.36 17.87
1 -6 -6 144.45 7.61
1 -6 -6 147.29 7.34
1 6 -6 155.9 7.46
1 6 -6 156.47 8.38
1 6 -6 153.06 8.59
1 6 -6 175.16 19.68
-1 6 6 153.16 12.63
1 6 -6 164.53 8.19
-1 6 6 166.2 13.55
0 -6 6 47.4 4.16
0 -6 -6 46.21 3.2
0 -6 6 29.14 8.29
0 -6 -6 46.35 3.7
0 -6 -6 43.47 3.3
0 -6 -6 52.56 3.98
0 -6 6 41.95 4.02
0 -6 -6 44.46 4.58
0 6 -6 50.49 3.35
0 6 -6 63.16 10.59
0 6 -6 52.65 4.7
-1 -6 -6 271.55 13.24
-1 -6 -6 272.9 12.97
-1 -6 -6 274.29 12.34
1 -6 6 269.57 13.54
1 -6 6 272.29 13.42
-1 -6 -6 295.59 12.56
-1 -6 -6 270.65 12.73
1 -6 6 255.33 20.25
-1 6 -6 284.75 12.86
-1 6 -6 246.5 20.92
-1 6 -6 292.75 13.74
2 -6 6 101.5 7.22
-2 -6 -6 128.24 7.38
-2 -6 -6 133.83 6.85
-2 -6 -6 123.39 6.59
2 -6 6 116.8 7.22
-2 6 -6 108.12 14.87
-2 6 -6 121.52 6.78
3 -6 6 56.98 5.13
-3 -6 -6 60.6 4.36
-3 -6 -6 59.31 5.12
-3 -6 -6 69.46 4.93
3 -6 6 61.79 5.52
-3 6 -6 67.96 5.24
4 -6 6 59 6.96
-4 -6 -6 55.83 4.12
4 -6 6 52.58 6.6
-4 6 -6 56.81 6.33
6 -7 -6 16.61 4.15
6 -7 -6 11.81 4.09
6 7 -6 17.63 3.84
6 7 -6 21.06 3.17
6 7 -6 13.6 2.84
-5 -7 6 72.35 4.66
5 -7 -6 71.86 5.98
5 7 -6 68.55 5.7
5 7 -6 63.55 6.25
5 7 -6 75.31 4.57
5 7 -6 66.01 5.36
-4 -7 6 76.49 4.38
-4 -7 6 82.69 18.72
4 -7 -6 64.13 5.3
4 -7 -6 51.02 12.82
4 -7 -6 74.86 5.67
4 7 -6 98.43 20.36
4 7 -6 73.03 4.42
4 7 -6 74.69 5.54
4 7 -6 81.34 6.21
-4 7 6 80.43 19.08
-3 -7 6 558.82 36.35
-3 -7 6 562.87 22.28
-3 -7 6 507.64 23.39
3 -7 -6 500.22 23.26
3 -7 -6 503.3 23.58
-3 7 6 516.29 22.19
3 7 -6 509.44 36.06
-3 7 6 464.59 35.06
3 7 -6 513.5 21.31
3 7 -6 486.67 22.44
3 7 -6 496.14 22.18
-2 -7 6 692.9 31.15
-2 -7 6 718.92 41.7
2 -7 -6 690.02 31.18
2 -7 -6 697.85 29.29
-2 -7 6 755.73 30.07
2 -7 -6 731.4 30.68
-2 7 6 713.18 38.58
-2 7 6 735.54 30.29
2 7 -6 695.98 29.77
2 7 -6 697.85 30.64
2 7 -6 713.15 30.54
2 7 -6 697.49 40.76
2 7 -6 711.16 30.91
-2 7 6 727.91 39.76
-1 -7 6 135.35 8.13
1 -7 -6 146 7.35
-1 -7 6 142.76 7.4
-1 -7 6 124.52 16.61
1 -7 -6 157.15 6.91
1 -7 -6 138.06 7.88
1 7 -6 129.37 7.01
1 7 -6 131.11 6.4
-1 7 6 134.22 6.47
-1 7 6 123.3 14.72
-1 7 6 122.82 13.11
1 7 -6 118.3 17.18
1 7 -6 133.4 7.51
1 7 -6 122.59 7.7
0 -7 -6 24.74 2.99
0 -7 -6 24.48 2.38
0 -7 -6 20.71 2.52
0 -7 -6 23.24 3.28
0 -7 6 22.1 2.96
0 -7 -6 22.41 3.05
0 -7 6 27.58 8.29
0 -7 6 17.23 3
0 7 6 18.62 2.49
0 7 -6 25.46 2.47
0 7 6 31.36 4.46
0 7 6 25.42 4.63
0 7 -6 26.63 3.63
0 7 -6 26.81 9.23
1 -7 6 168.05 9.61
-1 -7 -6 173.59 9.02
-1 -7 -6 164.89 9.47
-1 -7 -6 184.53 8.38
-1 -7 -6 179.97 8.95
-1 -7 -6 174.69 8.52
1 -7 6 181.94 9.7
1 -7 6 172.7 17.81
-1 7 -6 159.31 18.73
-1 7 -6 173.16 8.47
-2 -7 -6 259.4 11.83
-2 -7 -6 254.17 12.58
2 -7 6 270.21 13
2 -7 6 258.86 13.24
-2 -7 -6 254.12 12.19
-2 -7 -6 251.89 11.7
-2 7 -6 243.75 23.97
-2 7 -6 258.56 12.22
-3 -7 -6 162.36 8.67
3 -7 6 168.3 9.76
-3 -7 -6 162.58 8.2
-3 -7 -6 151.17 8.41
3 -7 6 163.43 9.94
-3 7 -6 171.93 9.31
4 -7 6 277.03 14.69
4 -7 6 284.18 15.19
-4 7 -6 281.6 14.44
6 -8 -6 213.22 12.21
6 -8 -6 203.32 12.52
6 8 -6 205.42 10.75
6 8 -6 192.63 10.28
6 8 -6 207.76 12.2
-5 -8 6 81.23 5.52
5 -8 -6 100.53 7.12
5 -8 -6 91.23 6.71
5 8 -6 92.93 5.67
5 8 -6 99.2 6.81
5 8 -6 86.46 7.01
4 -8 -6 177.8 9.93
-4 -8 6 164.94 24.25
-4 -8 6 168.4 8.36
4 -8 -6 173.91 9.66
4 8 -6 165.56 9.32
4 8 -6 143.44 22.99
-4 8 6 194.51 26.47
4 8 -6 177.18 9.76
4 8 -6 175.17 8.39
3 -8 -6 170.74 9.86
-3 -8 6 178.8 9.66
3 -8 -6 187.29 7.8
-3 -8 6 189.97 22.83
-3 -8 6 182.63 8.69
3 -8 -6 179.46 9.46
3 8 -6 191.35 8.71
-3 8 6 178.87 7.96
3 8 -6 190.06 9.55
3 8 -6 180.39 22.67
3 8 -6 183.76 10.03
-3 8 6 209.06 21.92
-3 8 6 166.88 9.53
-3 8 6 172.81 24.47
-2 -8 6 45.41 13.42
-2 -8 6 27.75 3.65
2 -8 -6 28.63 2.08
2 -8 -6 28.03 2.99
-2 -8 6 28.89 3
2 -8 -6 23.04 3.44
2 8 -6 31.76 4.27
-2 8 6 25.29 2.11
2 8 -6 23.64 2.91
-2 8 6 28.79 9.98
2 8 -6 28.86 2.35
-2 8 6 25.19 10.1
-2 8 6 22.25 2.77
2 8 -6 27.58 3.98
2 8 -6 46.05 14.05
1 -8 -6 375.24 15.74
1 -8 -6 344.9 16.21
-1 -8 6 352.54 17.2
1 -8 -6 395.76 17.23
-1 -8 6 357.84 16.34
1 8 -6 412.54 18.54
1 8 -6 353.25 28.36
1 8 -6 370.96 17.08
-1 8 6 404.28 16.61
1 8 -6 362 17.35
1 8 -6 372.04 16.57
-1 8 6 355.29 23.54
-1 8 6 383.31 24.12
0 -8 6 530.04 32.77
0 -8 -6 493.05 22.51
0 -8 6 524.35 22.47
0 -8 -6 495.79 21.74
0 -8 -6 508.36 21.72
0 -8 6 477.17 22.94
0 -8 -6 520.84 21.71
0 8 -6 539.2 23.47
0 8 6 504.91 22.18
0 8 -6 514.62 22.03
0 8 6 507.41 26
0 8 -6 465.5 33.55
-1 -8 -6 119.37 7.35
-1 -8 -6 114.19 6.08
-1 -8 -6 117.07 6.7
1 -8 6 88.63 14.32
-1 -8 -6 115.9 6.71
1 -8 6 114.55 7.45
-1 -8 -6 114.27 5.87
1 8 6 104.92 6.26
-1 8 -6 76.87 14.52
-1 8 -6 103.96 5.86
-2 -8 -6 349.19 15.55
-2 -8 -6 336.23 15.03
2 -8 6 352.28 16.54
-2 -8 -6 324.92 15.88
-2 -8 -6 339.61 14.94
2 -8 6 338.07 16.63
-2 8 -6 327.94 29.3
-2 8 -6 352.78 15.92
-3 -8 -6 147.33 8.1
3 -8 6 179.94 10.47
-3 -8 -6 168.14 8.94
-3 8 -6 184.71 10.08
4 -8 6 6.01 4.3
4 -8 6 4.55 3.98
-4 8 -6 7.05 3.55
6 -9 -6 135.74 9.65
6 -9 -6 141.07 10.56
6 9 -6 117.3 7.48
6 9 -6 116.86 7.68
6 9 -6 128.36 9.45
-5 -9 6 101.07 6.84
5 -9 -6 135.89 8.84
5 -9 -6 119.54 8.54
5 9 -6 126.39 8.27
5 9 -6 126.23 7.15
5 9 -6 125.61 8.31
-4 -9 6 207.63 28.45
4 -9 -6 173.97 9.57
-4 -9 6 159.1 8.41
4 9 -6 153.14 24.86
4 9 -6 166.73 9.2
-4 9 6 156.02 21.19
4 9 -6 182.05 9.96
-4 9 6 162.73 7.21
4 9 -6 162.17 8.34
-3 -9 6 95.87 19.63
-3 -9 6 100.22 6.68
-3 -9 6 94.55 5.84
3 -9 -6 110.07 6.74
3 -9 -6 103.83 4.93
3 -9 -6 105.58 6.43
3 9 -6 114.05 5.86
-3 9 6 124.84 20.41
3 9 -6 101.13 6.41
-3 9 6 110.11 5.26
-3 9 6 129.27 19.48
-3 9 6 101.26 6.9
3 9 -6 103.49 16.98
-2 -9 6 137.89 8.13
-2 -9 6 145 7.24
2 -9 -6 137.04 7.35
2 -9 -6 134.3 6.65
-2 -9 6 150.81 20.53
2 -9 -6 120.17 7.79
-2 9 6 108.15 17.35
-2 9 6 157.86 7.86
2 9 -6 147.59 7.37
-2 9 6 165.93 18.9
-2 9 6 145.35 7.1
2 9 -6 139.35 7.76
2 9 -6 156.94 19.98
2 9 -6 150.28 8.49
1 -9 -6 17.34 2.1
1 -9 -6 14.79 2.47
-1 -9 6 14.75 2.63
1 -9 -6 19.71 2.57
-1 -9 6 23.68 15.16
-1 -9 6 14.81 2.66
-1 9 6 -0.02 8.16
-1 9 6 10.18 7.27
1 9 -6 14.81 2.23
1 9 -6 12.17 2.77
-1 9 6 13.17 1.87
1 9 -6 15.38 2.04
1 9 -6 0.29 9.31
0 -9 6 164.84 9.25
0 -9 -6 155.31 8.54
0 -9 6 151.16 8.51
0 -9 -6 152.98 7.65
0 -9 6 161 20.92
0 -9 -6 161.15 7.88
0 -9 -6 155.56 7.86
0 9 6 158.49 13.57
0 9 -6 166.43 8.28
0 9 6 170.1 8.46
0 9 -6 158.1 20.58
1 -9 6 -14.73 10.13
-1 -9 -6 1.61 1.57
-1 -9 -6 2.27 1.09
-1 -9 -6 0.54 1.44
-1 -9 -6 2.64 2.64
-1 -9 -6 0 2.2
1 -9 6 0.77 1.92
1 9 6 -1 1.71
1 9 6 -2.33 4.62
1 9 6 4.31 4.47
-1 9 -6 1.74 1.49
-1 9 -6 -7.62 10.56
-2 -9 -6 40.2 5.48
-2 -9 -6 42.53 3.01
2 -9 6 47.48 5.09
-2 -9 -6 31.4 3.5
-2 -9 -6 37 3.43
-2 9 -6 37.8 4.16
-3 -9 -6 187.64 9.11
3 -9 6 197.61 11.21
3 -9 6 169.72 10.84
-3 -9 -6 187.79 8.83
-3 9 -6 203.18 10.9
5 -10 -6 125.85 9.35
5 -10 -6 141.01 9.31
5 10 -6 162.48 9.32
5 10 -6 134.09 8.01
4 -10 -6 319.98 15.29
-4 -10 6 301.74 14.28
4 -10 -6 313.42 15.7
-4 10 6 298.79 13.85
4 10 -6 311.47 14.25
4 10 -6 318.95 15.09
3 -10 -6 205.04 10.75
3 -10 -6 221.74 9.58
-3 -10 6 211.11 10.21
-3 -10 6 197.49 10.96
3 -10 -6 208.49 11.39
-3 -10 6 212.86 30.11
3 10 -6 223.09 26.93
-3 10 6 232.88 29
-3 10 6 188.89 10.47
-3 10 6 151.69 23.22
3 10 -6 203.78 10.39
-3 10 6 208.89 9.22
3 10 -6 218.71 9.93
-2 -10 6 67.23 16.44
-2 -10 6 47.32 4.07
2 -10 -6 48.26 4.39
2 -10 -6 41.91 3.02
2 -10 -6 36.3 3.67
-2 -10 6 32.85 4.26
2 10 -6 35.48 3.24
2 10 -6 20.51 13.93
-2 10 6 37.55 12.75
-2 10 6 36.4 2.9
-2 10 6 41.48 4.07
2 10 -6 44.86 3.74
-2 10 6 47.49 11.89
2 10 -6 53.52 5.53
-1 -10 6 128.94 7.56
1 -10 -6 133.43 6.92
-1 -10 6 116.16 7.96
1 -10 -6 122.47 7.53
-1 -10 6 149.9 22.82
1 -10 -6 145.83 6.77
-1 10 6 140.36 14.73
-1 10 6 111.82 14.5
1 10 -6 133.92 7.27
-1 10 6 126.63 6.75
1 10 -6 130.5 6.76
1 10 -6 122.81 19.24
0 -10 -6 194.44 9.19
0 -10 -6 181.07 9.4
0 -10 -6 206.29 9.18
0 -10 -6 200.56 10.18
0 -10 6 182.43 10.54
0 10 6 174.47 9.35
0 10 -6 195.3 9.28
0 10 -6 176.46 21.81
0 10 6 195.83 15.21
1 -10 6 36.47 15.7
-1 -10 -6 60.13 3.8
1 -10 6 57.21 5.76
-1 -10 -6 59.32 6.08
-1 -10 -6 60.46 4.01
-1 -10 -6 59.23 4.51
-1 10 -6 53.69 4.16
1 10 6 59.29 8.79
1 10 6 48.81 4.46
1 10 6 69.93 10.58
2 -10 6 114.08 7.74
-2 -10 -6 119.39 6.36
-2 -10 -6 130.74 8.36
2 -10 6 124.74 8.25
-2 -10 -6 121.5 6.85
-2 -10 -6 119.88 6.07
2 10 6 103.24 7.51
-2 10 -6 124.81 6.84
-3 -10 -6 21.81 3.02
3 -10 6 26.93 5.11
3 -10 6 17.38 4.49
-3 -10 -6 23.67 2.57
-3 10 -6 16.66 3.54
5 -11 -6 5.62 3.54
5 -11 -6 6.47 3.78
5 11 -6 6.41 3.12
5 11 -6 14.56 2.7
4 -11 -6 33.1 4.69
4 -11 -6 33.63 4.79
-4 -11 6 39.38 4.59
4 11 -6 41.98 3.98
-4 11 6 43.92 3.21
4 11 -6 42.22 4.6
3 -11 -6 152.44 8.45
3 -11 -6 149.37 7.26
-3 -11 6 142.46 28.24
3 -11 -6 129.25 9.76
-3 -11 6 158.75 9.03
3 11 -6 161.71 8.19
3 11 -6 158.98 8.61
-3 11 6 153.95 7.44
-2 -11 6 124.45 21.35
-2 -11 6 168.84 9.68
2 -11 -6 165.58 8.7
2 -11 -6 175.61 8.04
2 -11 -6 170.22 9.39
-2 11 6 162.46 8.44
2 11 -6 155.78 8.18
2 11 -6 172.53 22.09
-2 11 6 166.09 22.29
-2 11 6 141.36 19.31
2 11 -6 163.41 8.52
-2 11 6 157.71 7.78
1 -11 -6 111.2 6.15
1 -11 -6 116.95 6.19
-1 -11 6 112.47 7.33
1 -11 -6 104.85 6.98
-1 -11 6 117.34 22.97
-1 11 6 133.21 19.33
1 11 -6 119.09 6.6
1 11 -6 117.33 19.43
1 11 -6 121.22 6.87
-1 11 6 119.16 6.46
-1 11 6 115.87 16.21
0 -11 -6 103.95 6.42
0 -11 -6 104.26 6.34
0 -11 -6 100.41 5.4
0 -11 6 101.94 7.22
0 -11 6 83.19 20.52
0 -11 -6 95.9 5.62
0 11 6 96.04 5.86
0 11 -6 90.54 19.2
0 11 6 73.8 10.62
0 11 -6 96.83 5.71
-1 -11 -6 25.34 2.62
1 -11 6 23.31 4.29
-1 -11 -6 21.34 3.23
-1 -11 -6 32.3 3.42
-1 11 -6 23.7 3.36
1 11 6 25.12 9.29
1 11 6 29.87 3.81
-2 -11 -6 84.01 7.53
-2 -11 -6 97.83 5.94
-2 -11 -6 101.77 4.92
2 -11 6 93.17 7.59
2 -11 6 94.41 7.95
2 11 6 96.43 7.78
-2 11 -6 108.56 6.72
2 11 6 103.09 12.99
-3 -11 -6 101.13 6.02
3 -11 6 120.73 8.94
3 -11 6 124.41 9.77
-3 11 -6 122.95 8.03
5 -12 -6 115.85 8.74
5 -12 -6 110.81 9.3
5 12 -6 117.42 7.85
4 -12 -6 115.06 7.84
-4 -12 6 108.51 7.45
4 -12 -6 110.16 8.01
4 12 -6 115.2 7.27
4 12 -6 111.38 6.74
-4 12 6 104.66 5.57
3 -12 -6 196.66 9.47
-3 -12 6 195.79 11.01
3 -12 -6 203.99 11.43
3 -12 -6 204.43 10.5
3 12 -6 203.21 10.62
3 12 -6 199.78 10.24
-3 12 6 214.46 9.64
2 -12 -6 17.94 2.54
2 -12 -6 19.53 4.07
2 -12 -6 12.85 2.21
-2 -12 6 14.18 2.96
2 12 -6 15.81 2.57
-2 12 6 11.98 1.92
2 12 -6 18.26 2.57
-2 12 6 14.6 2.66
-1 -12 6 35.87 5.02
1 -12 -6 43.58 3.53
1 -12 -6 43.56 4.04
1 -12 -6 42.12 4.01
-1 12 6 36.7 12.99
1 12 -6 43.87 3.79
1 12 -6 40.1 4.05
-1 12 6 45.26 3.82
0 -12 -6 11.69 2.02
0 -12 -6 8.69 2.51
0 -12 -6 18.42 2.46
0 -12 6 16.32 3.91
0 12 -6 13.42 2.34
0 12 6 11.3 2.45
-1 -12 -6 179.79 9.29
-1 -12 -6 165.33 7.72
1 -12 6 175.06 10.86
1 12 6 135.39 20.22
1 12 6 163.12 9.21
-1 12 -6 179.11 9.05
-2 -12 -6 343.82 15.49
2 -12 6 327.23 17.59
2 12 6 347.19 17.23
-2 12 -6 333.05 16.32
2 12 6 349.54 22.69
3 -12 6 142.25 10.55
3 -12 6 141.24 10.98
3 12 6 138.02 10.15
-3 12 -6 162.48 10.17
-4 -13 6 46.36 5.42
4 -13 -6 34.12 5.13
4 13 -6 40.92 5.32
4 13 -6 52.05 4.88
-4 13 6 39.83 3.49
3 -13 -6 59.95 6.62
3 -13 -6 66.24 5.23
-3 -13 6 59.7 6.26
-3 13 6 49.25 3.69
3 13 -6 52.31 4.41
3 13 -6 40.03 4.62
-2 -13 6 34.4 5.43
2 -13 -6 37.2 4.72
2 -13 -6 36.67 3.93
2 -13 -6 32.7 3.73
2 13 -6 35.82 3.99
-2 13 6 28.93 4.08
2 13 -6 32.95 3.5
-2 13 6 33.82 3.4
1 -13 -6 10.38 2.66
-1 -13 6 6.8 2.86
1 -13 -6 12.43 2.82
1 -13 -6 9.56 1.89
1 13 -6 14.43 2.46
-1 13 6 13.4 2.34
1 13 -6 11.29 2.53
0 -13 -6 182.93 8.57
0 -13 6 180.14 11.15
0 -13 -6 193.28 9.09
0 -13 -6 194.1 10.07
0 13 6 170.43 9.62
0 13 -6 190.94 9.96
1 -13 6 11.72 4.34
-1 -13 -6 11.73 2.52
-1 13 -6 8.67 2.76
1 13 6 10.86 3.23
2 -13 6 33.33 5.49
-2 -13 -6 23.8 3.59
-2 13 -6 26.46 3.95
2 13 6 16.97 4.4
4 -14 -6 170.26 11.27
4 -14 -6 141.32 9.09
4 14 -6 149.41 9.11
4 14 -6 145.72 8.9
-4 14 6 146.71 7.47
3 -14 -6 61.98 5.22
3 -14 -6 63.49 6.76
-3 -14 6 58.14 6.2
3 14 -6 65.37 5.35
3 14 -6 67.69 5.18
-3 14 6 59.52 4.53
2 -14 -6 113.15 6.59
2 -14 -6 119.21 9.08
-2 -14 6 104.71 8.13
2 -14 -6 108.57 7.88
2 14 -6 107.48 7.4
-2 14 6 131.93 9.68
2 14 -6 107.35 6.86
-2 14 6 113.2 6.56
1 -14 -6 24.83 3.44
1 -14 -6 19.94 2.31
-1 -14 6 17.47 3.96
1 14 -6 19.05 2.69
1 14 -6 23.32 3.02
-1 14 6 23.01 2.97
0 -14 6 86.36 8.22
0 -14 -6 79.73 6.16
0 14 6 68.88 5.44
0 14 -6 85.19 6.16
1 -14 6 394.42 20.05
-1 -14 -6 386.98 18.02
1 14 6 378.68 18.67
-1 14 -6 396.31 18.41
-2 -14 -6 108.16 6.65
2 -14 6 110.97 10.77
2 14 6 112.65 9.12
-2 14 -6 105.34 8.34
3 -15 -6 64.1 5.54
-3 -15 6 69.79 7.58
3 -15 -6 53.21 6.81
-3 15 6 60.4 4.9
3 15 -6 71.17 6.56
3 15 -6 68.61 5.49
2 -15 -6 57.8 6.33
2 -15 -6 55.6 4.59
-2 -15 6 54.92 7.54
2 15 -6 51.1 5.53
2 15 -6 64.55 5.06
-2 15 6 59.43 4.75
1 -15 -6 107.7 7.62
1 -15 -6 88.96 5.13
-1 -15 6 99.42 8.84
1 15 -6 102.35 7.22
1 15 -6 95.17 6.67
-1 15 6 95.65 6.39
0 -15 6 46.43 6.64
0 -15 -6 38.69 4.53
0 15 -6 39.08 5.23
1 -15 6 242.79 14.14
-1 -15 -6 202.62 11.31
-1 15 -6 225.62 12.13
1 15 6 234.46 13.3
-2 -16 6 23.41 5.21
2 -16 -6 28.83 3.61
2 -16 -6 19.82 4.03
2 16 -6 29.24 4.58
-2 16 6 35.02 4.33
2 16 -6 36.62 4.78
-1 -16 6 29.29 5.6
1 -16 -6 30.41 4.54
1 16 -6 32.8 4.4
-1 16 6 29.55 4.37
1 16 -6 27.53 5.3
0 -16 -6 8.62 3.54
0 -16 6 9.65 5.73
0 16 6 12.61 3.54
0 16 -6 4.79 2.8
6 0 -7 3.65 2.8
6 0 -7 4.29 3.81
5 0 -7 88.3 6.42
5 0 -7 85.63 6.61
4 0 -7 351.96 29.57
4 0 -7 326.13 16.68
-4 0 7 341.11 33.96
4 0 -7 380.71 17.03
3 0 -7 364.43 17.67
3 0 -7 432.67 19.49
3 0 -7 353.86 28.9
3 0 -7 364.03 17.37
-3 0 7 346.72 26.48
2 0 -7 271.32 10.85
2 0 -7 252.9 10.7
2 0 -7 233.15 12.13
2 0 -7 286 21.48
-2 0 7 250.97 18.15
1 0 -7 30.85 2.4
1 0 -7 30.29 7.64
1 0 -7 33.86 3.19
-1 0 7 34.39 5.92
1 0 -7 36.29 4.21
1 0 -7 44.52 4.67
0 0 -7 23.76 3.24
0 0 -7 20.06 2.21
0 0 -7 20.78 3.06
0 0 -7 22.41 2.68
0 0 -7 24.06 3.65
0 0 -7 18.03 2.67
-1 0 -7 811.97 33.81
-1 0 -7 782.71 34.1
-1 0 -7 788.38 33.97
-2 0 -7 149.12 8.66
-2 0 -7 148.29 8.31
-3 0 -7 43.63 4.41
-3 0 -7 55.8 6.21
-4 0 -7 -6.89 3.16
4 0 7 -1.54 3.76
6 -1 -7 11.59 4.41
6 1 -7 8.16 4.03
6 1 -7 11.42 3.1
5 -1 -7 222.74 11.6
5 -1 -7 204.35 11.67
5 1 -7 217.96 11.66
5 1 -7 218.82 11.98
-4 -1 7 722.52 44.33
4 -1 -7 640.27 30.12
4 -1 -7 704.33 30.36
4 1 -7 684.74 29.5
4 1 -7 662.61 29.37
4 1 -7 625.72 42.18
3 -1 -7 1045.26 56.49
-3 -1 7 1180.94 57.11
3 -1 -7 1088.86 46.62
3 -1 -7 1091.67 46.95
-3 1 7 1119.21 56.88
3 1 -7 1172.82 61.36
3 1 -7 1119.91 48.49
3 1 -7 1177.18 49.14
2 -1 -7 350.04 14.65
-2 -1 7 339.25 22.21
2 -1 -7 355.28 14.69
2 -1 -7 387.05 17.04
2 -1 -7 368.2 16.42
2 -1 -7 323.23 23.89
2 1 -7 370.85 15.42
2 1 -7 381.25 15.6
2 1 -7 363.3 16.86
-2 1 7 373.38 23.02
2 1 -7 385.14 18.05
2 1 -7 330.88 25.46
1 -1 -7 1497.02 63.46
1 -1 -7 1506.08 62.47
-1 -1 7 1589.68 67.79
1 -1 -7 1484.69 64.08
1 -1 -7 1539.03 62.66
1 -1 -7 1576.51 67.23
1 1 -7 1539.74 64.9
1 1 -7 1608.47 63.9
1 1 -7 1546.04 69.99
1 1 -7 1563.5 65.1
1 1 -7 1553.24 64.16
-1 1 7 1578.07 67.65
0 -1 -7 114.59 5.88
0 -1 -7 110.12 7.18
0 -1 -7 106.64 6.13
0 -1 -7 115.25 6.29
0 -1 -7 108.22 6.64
0 1 -7 117.26 7.02
0 1 -7 121.02 7.7
0 1 -7 118.26 6.04
0 1 -7 118.56 6.57
0 1 -7 117.33 6.6
-1 -1 -7 117.66 7.72
-1 -1 -7 122.18 7.27
-1 -1 -7 117.4 7.19
-1 -1 -7 125.44 6.77
-1 1 -7 110.52 7.14
-1 1 -7 118.7 7.51
-1 1 -7 118.44 6.39
-2 -1 -7 5.82 2.19
-2 -1 -7 5.72 2.73
2 -1 7 8.5 2.36
-2 1 -7 7 2.02
-2 1 -7 5.37 3.1
-3 -1 -7 47.73 4.85
-3 -1 -7 45.89 5.24
-3 1 -7 53.84 4.98
4 -1 7 337.18 17.57
-4 -1 -7 346.64 17.39
-4 1 -7 347.4 17.36
6 -2 -7 85.36 7.19
6 -2 -7 102.83 8.64
6 2 -7 95.56 8
6 2 -7 84.4 6.74
5 -2 -7 376.54 18.55
5 -2 -7 387.22 18.33
5 2 -7 376.72 17.79
5 2 -7 362.29 18.43
4 -2 -7 337.48 15.86
-4 -2 7 340.33 29.24
4 -2 -7 312.28 15.8
4 -2 -7 291.91 29.62
4 2 -7 309.6 15.24
4 2 -7 315.97 15.24
4 2 -7 305.32 30.29
3 -2 -7 63.3 5.28
3 -2 -7 65.82 14.08
3 -2 -7 76.91 5.34
-3 -2 7 81.59 14.16
-3 2 7 67.12 11.86
3 2 -7 75.83 5.34
3 2 -7 74.09 3.34
3 2 -7 85.72 6.63
3 2 -7 69.74 15.58
2 -2 -7 996.69 51.12
2 -2 -7 1116.17 45.29
-2 -2 7 1132.89 51.91
2 -2 -7 1041.18 44.6
2 -2 -7 1014.93 42.78
2 -2 -7 1051.18 42.8
2 2 -7 1050.32 45.14
2 2 -7 1070.75 53.91
-2 2 7 1068.71 51
2 2 -7 1045.62 45.63
2 2 -7 1115.36 43.78
1 -2 -7 122.48 6.81
1 -2 -7 122.63 7.3
1 -2 -7 127.11 5.97
-1 -2 7 125 12.3
1 -2 -7 123.76 11.08
1 -2 -7 125.51 6.07
1 -2 -7 131.61 8
1 2 -7 122.83 6.69
-1 2 7 119.2 9.73
1 2 -7 119.15 5.71
1 2 -7 105.47 14.38
0 -2 7 421.83 21.92
0 -2 -7 407.44 18.29
0 -2 -7 424.82 18.68
0 -2 -7 378.82 19.32
0 -2 -7 454.07 18.48
0 -2 7 447.58 19.56
0 -2 -7 411.24 18.92
0 2 -7 414.08 18.64
0 2 -7 407.18 22.72
0 2 -7 401.73 18.32
0 2 -7 413.51 17.7
0 2 -7 401.11 18.88
-1 -2 -7 316.83 14.69
1 -2 7 314.86 15.25
-1 -2 -7 317.93 14.62
-1 -2 -7 313.03 15.12
-1 -2 -7 314.17 14.78
-1 2 -7 361.28 15.27
-1 2 -7 330.74 17.65
-1 2 -7 304.06 17.28
-2 -2 -7 63.12 5.72
2 -2 7 63.39 5.21
-2 -2 -7 66.36 5.09
-2 2 -7 61.64 7.85
-2 2 -7 67.43 4.79
-2 2 -7 69.46 9.02
3 -2 7 7.19 2.6
-3 -2 -7 7.72 2.74
-3 -2 -7 12.35 3.17
-3 2 -7 9.13 2.44
-3 2 -7 8.18 6.57
4 -2 7 26.61 3.8
4 -2 7 28.19 4.97
-4 -2 -7 21.11 4.37
-4 2 -7 43.76 5.43
6 -3 -7 14.35 3.4
6 -3 -7 16.86 4.43
6 3 -7 11.29 2.88
6 3 -7 10.6 4.11
5 -3 -7 6.07 2.99
5 -3 -7 8.15 2.81
5 3 -7 5.55 2.71
5 3 -7 8.28 2.94
4 -3 -7 231.39 12.22
-4 -3 7 233.92 9.85
4 -3 -7 232.52 12.28
4 -3 -7 232.99 29.66
-4 -3 7 295.36 29.55
4 3 -7 240.97 12.22
4 3 -7 242.88 12.33
4 3 -7 213.33 30.55
3 -3 -7 85.84 14.43
-3 -3 7 93.6 13.87
3 -3 -7 93.54 6.44
-3 -3 7 97.26 4.59
3 -3 -7 95.76 6.08
3 3 -7 93.36 4.42
3 3 -7 104.68 8.38
-3 3 7 99.26 13.94
3 3 -7 89.3 17.15
3 3 -7 90.68 5.92
2 -3 -7 968.77 40.58
2 -3 -7 1025.51 49.04
2 -3 -7 1059.39 42.58
2 -3 -7 986.4 42.97
2 -3 -7 970.72 40.57
-2 -3 7 1021.7 50.15
2 3 -7 1019.22 43.65
2 3 -7 1015.84 42.3
2 3 -7 1041.35 53.3
-2 3 7 1100.14 50.02
2 3 -7 1001.82 44.06
-1 -3 7 887.65 43.52
-1 -3 7 785.55 38.27
1 -3 -7 925.83 38.73
1 -3 -7 992 36.97
1 -3 -7 889.43 36.95
1 -3 -7 866.09 37.79
1 -3 -7 912.16 38.57
1 3 -7 897.39 37.14
1 3 -7 845.28 45.15
-1 3 7 943.53 40.47
1 3 -7 901.23 38.18
0 -3 -7 555.32 25.26
0 -3 -7 570.45 24.33
0 -3 -7 553.32 24.34
0 -3 7 564.82 29.26
0 -3 -7 576.6 25.54
0 -3 7 573.74 25.55
0 -3 -7 582.84 24.71
0 -3 -7 579.69 24.92
0 3 -7 592.83 25.02
0 3 -7 584.69 30.8
-1 -3 -7 32.15 3.11
-1 -3 -7 32.56 3.28
-1 -3 -7 30.24 3.95
1 -3 7 34.23 3.77
-1 -3 -7 37.93 4.27
-1 -3 -7 33.28 4.3
-1 3 -7 28.67 2.93
-1 3 -7 36.91 7.11
-1 3 -7 27.12 7.7
-2 -3 -7 101 7.23
2 -3 7 112.33 7.17
-2 -3 -7 118.61 6.88
-2 3 -7 129.75 7.07
-2 3 -7 102.88 14.4
-2 3 -7 125.9 12.85
3 -3 7 74.53 6.5
-3 -3 -7 72.97 5.54
-3 -3 -7 88.3 6.54
-3 -3 -7 75.9 6.23
3 -3 7 71.49 6.04
-3 3 -7 83.95 6.21
-3 3 -7 77.56 10.65
4 -3 7 140.81 8.97
-4 -3 -7 142.32 9.85
4 -3 7 142.28 9.72
-4 -3 -7 124.69 7.85
-4 3 -7 142.14 9.31
6 -4 -7 300.86 16.02
6 -4 -7 291.09 15.42
6 4 -7 300.93 15.15
6 4 -7 307.22 16.56
-5 -4 7 251.59 10.03
5 -4 -7 198.57 13.68
5 -4 -7 239.55 12.88
5 4 -7 255.95 13.72
5 4 -7 264.13 13.36
4 -4 -7 68.52 5.47
4 -4 -7 72.01 16.99
4 -4 -7 73.85 5.77
-4 -4 7 68.67 3.66
-4 -4 7 77.93 19.32
4 4 -7 67.07 3.81
4 4 -7 91.7 18.03
4 4 -7 75.11 5.37
-4 4 7 33.69 12.95
3 -4 -7 164.33 20.62
-3 -4 7 179.8 7.84
3 -4 -7 161.67 9.39
3 -4 -7 169.01 9.26
3 4 -7 164.14 9.11
-3 4 7 190.3 19.99
3 4 -7 178.99 7.71
3 4 -7 168.04 25.38
2 -4 -7 183.26 7.63
-2 -4 7 180.55 17.02
-2 -4 7 182.25 8.65
2 -4 -7 183.03 9.44
2 -4 -7 183.45 9.92
2 -4 -7 182.65 17.03
2 -4 -7 183.89 7.62
-2 4 7 179.41 16.07
2 4 -7 184.69 8.33
2 4 -7 198.51 21.67
2 4 -7 182.86 9.51
1 -4 -7 103.88 6.46
1 -4 -7 92.74 5.79
-1 -4 7 104.05 6.64
1 -4 -7 106.06 5.19
1 -4 -7 90.27 5.63
-1 -4 7 107.62 13.03
1 -4 -7 103.74 7.04
1 4 -7 95.23 13.39
-1 4 7 103.15 12
1 4 -7 94.41 4.98
-1 4 7 102.43 9.72
1 4 -7 99.58 5.98
0 -4 -7 830.37 34.8
0 -4 -7 786.74 33.98
0 -4 7 833.63 34.96
0 -4 -7 803.4 33.49
0 -4 -7 733.63 34.4
0 -4 -7 812.3 33.67
0 -4 7 787.57 39.6
0 -4 -7 797.76 33.83
0 4 -7 789.64 33.35
0 4 -7 803.89 39.99
-1 -4 -7 51.38 4.37
-1 -4 -7 60.32 5.54
-1 -4 -7 52.86 3.77
-1 -4 -7 49.16 4.71
1 -4 7 50.2 4.63
-1 -4 -7 47.45 4.69
-1 -4 -7 43.12 3.89
-1 4 -7 35.76 8.75
-1 4 -7 37.19 7.99
-1 4 -7 42.07 3.22
-2 -4 -7 103.14 6.2
-2 -4 -7 96.56 6.42
-2 -4 -7 91.82 6.8
-2 -4 -7 86.14 6.28
2 -4 7 87.4 6.59
-2 4 -7 94.6 5.91
-2 4 -7 85.19 11.77
-2 4 -7 87.32 12.7
3 -4 7 178.66 10.49
3 -4 7 194.81 11.37
-3 -4 -7 180.84 10.11
-3 -4 -7 199.58 9.98
-3 -4 -7 195.81 11.07
-3 4 -7 218.96 24.74
-3 4 -7 193.25 10.87
4 -4 7 8.17 4.15
-4 -4 -7 19.08 4.23
-4 -4 -7 8.94 2.7
-4 4 -7 9.28 4.4
6 -5 -7 13.05 4.01
6 -5 -7 11.27 4.12
6 5 -7 8.28 4.27
6 5 -7 5.72 3
-5 -5 7 122.29 6.55
5 -5 -7 136.61 8.43
5 -5 -7 139.76 9.26
5 5 -7 135.57 8.57
5 5 -7 143.56 8.55
5 5 -7 131.29 6.52
4 -5 -7 341.27 16.22
-4 -5 7 299.53 31.71
-4 -5 7 341.76 14.33
4 -5 -7 327.65 16.32
4 5 -7 328.04 13.88
4 5 -7 378.81 33.24
-4 5 7 263.44 28.63
4 5 -7 322.72 15.67
-3 -5 7 644.61 28.81
3 -5 -7 680.36 30.49
3 -5 -7 727.19 30.28
3 -5 -7 708.77 40.39
3 5 -7 692.09 30.05
3 5 -7 719.56 28.61
3 5 -7 644.5 43.07
-3 5 7 669.58 40.13
2 -5 -7 578.28 24.41
2 -5 -7 550.83 26.51
-2 -5 7 610.06 35.1
-2 -5 7 628.03 26.8
2 -5 -7 597.33 24.35
2 -5 -7 632.89 26.22
-2 -5 7 586.85 25.24
-2 5 7 618 33.74
2 5 -7 635.15 25.91
2 5 -7 588.53 39.51
2 5 -7 620.05 27.07
1 -5 -7 14.12 1.9
1 -5 -7 15.95 1.87
-1 -5 7 20.59 2.61
1 -5 -7 14.78 2.61
-1 -5 7 14.66 2.8
1 -5 -7 14.7 2.24
-1 -5 7 15.34 7.68
1 -5 -7 11.27 3.03
-1 5 7 16.7 7.48
1 5 -7 13.05 2.22
1 5 -7 8.31 9.67
1 5 -7 15.59 1.8
0 -5 -7 68.57 4.44
0 -5 -7 67.79 5.09
0 -5 7 62.63 5.25
0 -5 -7 68.28 4.38
0 -5 7 46 9.52
0 -5 -7 62.37 6.05
0 -5 -7 69.5 5.05
0 5 -7 74.15 4.36
0 5 -7 59.23 11.52
-1 -5 -7 13.47 3.39
-1 -5 -7 16.6 2.83
-1 -5 -7 15.57 2.92
-1 -5 -7 19.4 2.87
-1 -5 -7 19.79 2.48
1 -5 7 10.76 2.8
-1 5 -7 18.52 2.41
-1 5 -7 22.5 9.13
2 -5 7 271.43 13.7
-2 -5 -7 277.24 12.98
-2 -5 -7 264.94 13.46
-2 -5 -7 248.47 12.73
-2 5 -7 249.29 24.66
-2 5 -7 292.51 13.48
3 -5 7 209.05 12.24
3 -5 7 215.71 12.08
-3 -5 -7 209.39 12.11
-3 -5 -7 219.56 10.9
-3 5 -7 222.65 11.8
6 -6 -7 140.35 10.15
6 -6 -7 121.49 9.55
6 6 -7 132.24 10.23
6 6 -7 135.25 8.54
5 -6 -7 141.22 9.13
5 -6 -7 114.9 8.47
5 6 -7 121.78 8.02
5 6 -7 128.8 6.48
5 6 -7 137.63 8.59
-4 -6 7 11.38 16.75
4 -6 -7 13.64 3.02
4 -6 -7 8.16 2.27
-4 -6 7 10.82 1.88
4 6 -7 9.52 1.45
4 6 -7 7.35 2.32
3 -6 -7 97.77 15.29
-3 -6 7 97.04 5.06
3 -6 -7 79.97 5.92
-3 -6 7 93.85 17.16
3 -6 -7 84.94 6.36
3 6 -7 89.62 5.89
3 6 -7 95.13 4.74
-3 6 7 82.48 14.62
3 6 -7 72.22 14.82
2 -6 -7 225.21 9.66
2 -6 -7 220.73 11.62
2 -6 -7 222.08 11.12
2 -6 -7 224.16 9.48
-2 -6 7 230.77 11.78
-2 -6 7 195 21.89
-2 -6 7 232.59 10.55
-2 6 7 230.3 18.68
2 6 -7 233.37 11.15
2 6 -7 214.45 9.99
2 6 -7 228.36 24.48
-2 6 7 200.19 19.02
1 -6 -7 144.04 7.39
1 -6 -7 131.36 7.98
1 -6 -7 134.36 6.54
-1 -6 7 132.41 7.98
-1 -6 7 129.16 7.29
-1 -6 7 144.34 17.05
1 6 -7 140.49 7.72
1 6 -7 140.53 6.81
1 6 -7 151.6 18.9
-1 6 7 124.42 12.65
0 -6 -7 365.77 17.59
0 -6 -7 363.07 16.39
0 -6 7 380.68 25.4
0 -6 -7 367.67 17.24
0 -6 -7 367.56 16.17
0 -6 -7 377.01 16.72
0 -6 7 349.14 17.5
0 -6 7 368.69 16.99
0 6 -7 385.02 16.88
0 6 -7 379.97 26.49
1 -6 7 349.3 24.33
-1 -6 -7 326.25 15.32
-1 -6 -7 339.61 15.73
-1 -6 -7 322.96 16.2
-1 -6 -7 343.25 15.03
-1 -6 -7 312.15 15.07
1 -6 7 335.77 16.29
-1 6 -7 335.04 24.86
-1 6 -7 335.8 15.25
-2 -6 -7 52.27 5.81
-2 -6 -7 60.1 4.7
-2 -6 -7 56.01 4.96
2 -6 7 54.32 5.4
-2 -6 -7 45.82 3.98
-2 6 -7 81.46 13.91
-2 6 -7 57.7 4.54
-3 -6 -7 43.25 4.64
3 -6 7 53.63 5.71
3 -6 7 52.44 6.14
-3 6 -7 50.5 5.64
6 -7 -7 1.27 3.51
6 -7 -7 -0.62 5.11
6 7 -7 0.01 2.87
6 7 -7 8.03 4.36
5 -7 -7 22.45 4.34
5 -7 -7 17.28 4.05
5 7 -7 15.61 3.31
5 7 -7 24.86 2.97
4 -7 -7 169.13 9.86
-4 -7 7 169.44 8.15
4 7 -7 144.78 8.57
4 7 -7 148.98 7.24
3 -7 -7 149.53 8.9
-3 -7 7 158.85 22.41
3 -7 -7 155.39 8.76
-3 -7 7 164.19 7.83
3 7 -7 186.81 29.08
3 7 -7 167.74 9.2
-3 7 7 176.52 22.14
3 7 -7 167.65 7.99
2 -7 -7 11.51 2.44
-2 -7 7 12.13 2.3
2 -7 -7 10.91 2.22
2 -7 -7 10.71 1.48
-2 -7 7 6.18 9.95
-2 -7 7 13.66 2.65
-2 7 7 18.79 9.37
2 7 -7 13.56 1.9
2 7 -7 5.66 13.9
2 7 -7 13.1 2.26
-2 7 7 11.93 8.01
-1 -7 7 44.31 10.97
-1 -7 7 65.22 5.39
1 -7 -7 53.79 4.65
1 -7 -7 58.48 3.65
-1 -7 7 59.85 4.88
1 -7 -7 56.46 4.22
1 7 -7 56.09 13.19
-1 7 7 50.14 8.1
1 7 -7 55.65 4.27
1 7 -7 59.22 3.69
0 -7 -7 205.49 9.4
0 -7 -7 206.27 10.4
0 -7 -7 194.72 9.41
0 -7 7 194.45 19.56
0 -7 7 183.48 10.28
0 -7 7 175.83 10.49
0 7 -7 213.59 10.37
0 7 -7 243.52 22.08
1 -7 7 279.81 23.7
-1 -7 -7 267.74 13.31
-1 -7 -7 280.69 12.58
1 -7 7 277.16 13.99
-1 -7 -7 258.4 12.7
-1 -7 -7 277.53 14.08
-1 7 -7 295.98 13.54
-1 7 -7 270.19 24.35
-2 -7 -7 2.43 3.48
-2 -7 -7 5.38 1.7
-2 -7 -7 5.65 2.32
-2 -7 -7 1.91 2.02
-2 7 -7 2.2 2.99
3 -7 7 146.23 10.22
3 -7 7 158.56 10.24
-3 -7 -7 160.07 8.65
-3 -7 -7 163.25 8.38
-3 7 -7 148.8 9.18
5 -8 -7 137.21 9.56
5 -8 -7 132.4 9.82
5 8 -7 126.26 6.81
5 8 -7 123.85 8.86
-4 -8 7 19.44 2.63
4 -8 -7 29.61 4.2
4 -8 -7 31.87 4.41
4 8 -7 27.4 2.68
4 8 -7 24.75 3.89
-3 -8 7 55.27 5.24
-3 -8 7 66.19 4.47
3 -8 -7 55.96 4.76
3 -8 -7 62.73 5.75
-3 -8 7 81.52 20.42
-3 8 7 55.92 15.44
3 8 -7 54.64 4.51
-3 8 7 47.52 15.35
3 8 -7 61.62 3.77
2 -8 -7 179.65 8.1
-2 -8 7 177.14 9.19
2 -8 -7 184.7 9.59
-2 -8 7 187.12 10.37
2 -8 -7 190.19 10.17
2 8 -7 174.34 9.28
-2 8 7 143.46 19.7
-2 8 7 183.49 17.3
2 8 -7 173.27 8.29
-1 -8 7 737.78 43.44
-1 -8 7 733.14 31.72
1 -8 -7 725.24 32.5
1 -8 -7 752.2 31.7
1 -8 -7 753.64 30.9
-1 -8 7 735.75 32.82
-1 8 7 744.1 37.12
1 8 -7 760.01 46.78
1 8 -7 768.62 32.34
-1 8 7 820.27 43.92
1 8 -7 750.56 33.04
0 -8 -7 55.89 4.75
0 -8 -7 56.37 4.25
0 -8 7 60.41 5.2
0 -8 -7 50.44 3.85
0 -8 -7 52.46 4.66
0 -8 7 47.1 11.85
0 8 -7 52.24 13.12
0 8 -7 46.48 3.6
-1 -8 -7 174.43 9.4
-1 -8 -7 170.7 10.3
1 -8 7 156.5 21.9
-1 -8 -7 178.18 8.78
-1 -8 -7 162.15 8.36
1 -8 7 171.86 10.73
-1 8 -7 179.43 9.05
-2 -8 -7 136.73 9.11
2 -8 7 133.08 8.88
-2 -8 -7 122.42 7.35
-2 -8 -7 135.68 7.71
-2 -8 -7 129.94 6.92
-2 8 -7 128.5 7.46
-3 -8 -7 51.32 4.19
-3 -8 -7 46.31 4.59
3 -8 7 51.66 6.17
3 -8 7 39.53 5.84
-3 8 -7 57.38 5.53
5 -9 -7 84.69 7.73
5 -9 -7 90.84 7.88
5 9 -7 85.66 7.83
5 9 -7 99.15 5.95
4 -9 -7 48.88 6.1
4 -9 -7 56.35 5.82
-4 -9 7 52.85 4.67
4 9 -7 51.07 5.17
4 9 -7 46.46 3.83
3 -9 -7 37.46 5.14
-3 -9 7 35.38 4.13
-3 -9 7 42.1 4.68
3 -9 -7 50.82 4.58
3 -9 -7 41.15 2.33
3 9 -7 34.59 4.03
3 9 -7 37.36 3.26
-2 -9 7 5.89 2.52
-2 -9 7 19.74 15.61
-2 -9 7 5.78 2.36
2 -9 -7 4.26 2.31
2 -9 -7 4.42 1.91
-2 9 7 -15.65 10.36
2 9 -7 3.21 1.39
-2 9 7 4.57 1.69
2 9 -7 1.49 1.78
-2 9 7 7.39 11.19
1 -9 -7 97.87 5.45
1 -9 -7 96.62 6.65
-1 -9 7 87.87 17.66
-1 -9 7 104.65 6.73
1 -9 -7 93.7 5.87
-1 -9 7 101.97 7.05
-1 9 7 88.28 5.38
1 9 -7 101.04 6.23
1 9 -7 110.02 18.14
-1 9 7 82.39 12.71
-1 9 7 88.36 12.77
1 9 -7 96.57 5.44
0 -9 -7 312.08 14.85
0 -9 -7 306.52 13.82
0 -9 -7 307.76 14.01
0 -9 -7 292.54 13.83
0 -9 7 307.44 26.7
0 -9 7 290.65 15.56
0 9 7 276.26 16.8
0 9 -7 305.42 13.46
0 9 7 281.92 14.79
-1 -9 -7 132.11 7.19
-1 -9 -7 140.16 6.9
-1 -9 -7 124.41 7.74
1 -9 7 127.5 8.42
-1 9 -7 126.35 7.25
2 -9 7 18.66 4.28
-2 -9 -7 24.45 4.67
-2 -9 -7 24.87 3.62
-2 -9 -7 23.85 2.96
-2 9 -7 18.35 3.05
3 -9 7 35.89 6.28
-3 -9 -7 31.52 3.7
3 -9 7 29.2 5.78
-3 -9 -7 28.07 3.99
-3 9 -7 18.79 3.57
5 -10 -7 105.49 9.04
5 -10 -7 105.72 8.44
5 10 -7 108.06 8.72
5 10 -7 117.67 6.98
4 -10 -7 344.31 17.42
4 10 -7 341.49 15.49
3 -10 -7 191.67 8.56
3 -10 -7 205.88 11.41
-3 -10 7 199.97 11.15
-3 -10 7 185.66 9.9
3 -10 -7 193.02 10.47
3 10 -7 185.54 9.21
3 10 -7 190.91 10.11
-2 -10 7 17.27 3.11
2 -10 -7 23.76 3.33
2 -10 -7 17.22 2.03
2 -10 -7 14.61 4.06
-2 -10 7 17.88 3.66
-2 10 7 11.11 13.15
2 10 -7 21.54 2.71
2 10 -7 16.25 2.73
-2 10 7 20.68 2.53
1 -10 -7 291.42 13.74
1 -10 -7 264.74 12.17
1 -10 -7 241.72 12.5
-1 -10 7 278.87 17.05
-1 10 7 262.17 12.12
1 10 -7 259.68 12.75
-1 10 7 226.6 22.71
1 10 -7 268.25 12.24
0 -10 -7 35.64 4.17
0 -10 -7 30.66 3.21
0 -10 7 29.41 4.21
0 -10 -7 28.79 4.05
0 -10 -7 29.04 4.02
0 10 7 28.97 3.67
0 10 -7 28.02 2.94
0 10 7 26.79 9.97
0 10 7 17.74 6.63
1 -10 7 297.3 16.04
-1 -10 -7 327.61 14.77
-1 -10 -7 277.94 13.56
-1 -10 -7 308.76 13.68
-1 10 -7 295.15 14.63
-2 -10 -7 281.06 12.74
-2 -10 -7 263.45 13.5
2 -10 7 305.32 15.84
-2 10 -7 305.02 14.91
4 -11 -7 68.29 6.06
4 -11 -7 71.69 7
4 11 -7 78.39 5.24
4 11 -7 70.21 6.85
3 -11 -7 101.19 6.82
3 -11 -7 103.83 8.19
-3 -11 7 89.64 9.5
-3 11 7 98.38 5.15
3 11 -7 81.67 5.49
3 11 -7 90.14 6.53
2 -11 -7 104.21 6.56
2 -11 -7 110.62 7.26
2 -11 -7 105.17 5.71
2 11 -7 111.98 7.08
2 11 -7 112.24 6.41
-2 11 7 109.54 6.02
-1 -11 7 94.46 7.06
1 -11 -7 90.18 6.81
1 -11 -7 90.31 5.73
1 -11 -7 96 5.71
1 11 -7 89.04 5.44
1 11 -7 85.55 6.09
-1 11 7 86.93 14.04
-1 11 7 87.02 5.5
0 -11 -7 138.84 7.42
0 -11 -7 137.49 8.29
0 -11 7 149.27 9.91
0 -11 -7 147.95 7.76
0 11 7 138.57 21.46
0 11 7 146.75 8.25
0 11 -7 147.69 8.07
-1 -11 -7 24.03 3.54
1 -11 7 23.82 5.04
-1 -11 -7 22.18 2.52
-1 11 -7 22.86 3.55
1 11 7 29.57 3.97
-2 -11 -7 114.88 6.8
2 -11 7 119.43 9.9
-2 -11 -7 110.44 7.1
-2 11 -7 121.77 8.05
4 -12 -7 19.02 3.86
4 -12 -7 20.19 3.97
4 12 -7 13.2 3.11
4 12 -7 11.93 2.62
3 -12 -7 84.5 7.95
3 -12 -7 106.6 6.88
-3 -12 7 98.64 7.62
-3 12 7 106.8 5.53
3 12 -7 99.71 6.2
3 12 -7 88.06 8.26
2 -12 -7 43.32 5.66
-2 -12 7 36.86 5.55
2 -12 -7 44.4 4.33
-2 12 7 40.71 3.57
2 12 -7 39.21 4.63
2 12 -7 36.95 3.67
1 -12 -7 56.4 4.9
1 -12 -7 57.15 4.36
-1 -12 7 56.32 6.31
1 -12 -7 60.14 5.4
-1 12 7 68.86 4.97
1 12 -7 63.4 5.04
0 -12 -7 293.84 14.22
0 -12 7 290.87 15.82
0 -12 -7 261.44 12.72
0 12 7 281.45 29.16
0 12 7 298.68 14.47
0 12 -7 302.38 14.23
-1 -12 -7 144.09 7.88
1 -12 7 174.18 11.61
-1 -12 -7 182.43 9.37
-1 12 -7 178.31 10.1
2 -12 7 103.76 10.2
-2 -12 -7 75.63 6.05
-2 12 -7 94.22 7.44
-3 -13 7 222.84 13.06
3 -13 -7 216.26 11.65
3 -13 -7 233.35 13.04
3 13 -7 233.8 13.72
-3 13 7 232.11 10.7
3 13 -7 219.54 12.54
-2 -13 7 131.69 9.87
2 -13 -7 144.69 9.39
2 -13 -7 119.97 7.59
-2 13 7 124.59 7.13
2 13 -7 129.1 10.4
-1 -13 7 12.76 4.05
1 -13 -7 9.88 3.33
1 -13 -7 9.55 2.09
1 13 -7 10.81 2.46
-1 13 7 9.41 2.56
1 13 -7 13.93 2.66
0 -13 -7 20.51 2.89
0 -13 -7 20.21 3.42
0 -13 7 25.11 5.36
0 13 7 25.41 3.57
0 13 -7 23.94 3.64
1 -13 7 59.8 8.1
-1 -13 -7 64.91 5.88
1 13 7 54.35 6.82
-1 13 -7 81.86 6.41
-3 -14 7 19.09 4.47
3 -14 -7 28.06 3.56
3 -14 -7 26.72 5.66
3 14 -7 21.83 3.59
-3 14 7 28.19 2.86
3 14 -7 23.72 3.91
2 -14 -7 113.35 8.4
2 -14 -7 119.78 7.02
-2 -14 7 97.41 9.14
-2 14 7 113.49 6.83
2 14 -7 117.66 7.85
2 14 -7 119.2 7.61
-1 -14 7 84.77 8.29
1 -14 -7 64.95 4.84
1 -14 -7 77.17 7.33
1 14 -7 77.86 6.61
-1 14 7 78.51 6
1 14 -7 75.64 6.6
0 -14 7 200.48 12.55
0 -14 -7 187.96 11.09
0 14 7 182.32 11.56
0 14 -7 201.63 10.99
-1 -15 7 107.86 10.41
1 -15 -7 90.21 8
1 15 -7 87.61 7.17
-1 15 7 85.45 6.56
1 15 -7 89.94 7.82
6 0 -8 13.74 4.32
6 0 -8 14.2 5.19
5 0 -8 195.5 11.76
5 0 -8 226.7 12.82
4 0 -8 39.14 4.7
3 0 -8 -2.5 1.73
3 0 -8 -0.32 12.32
-3 0 8 0.88 10.3
3 0 -8 1.37 2.06
2 0 -8 65.11 11.97
2 0 -8 60.94 3.36
2 0 -8 67.59 4.82
-2 0 8 65.06 10.17
2 0 -8 63.19 3.2
1 0 -8 30.17 3.12
1 0 -8 28.91 3.17
1 0 -8 29.93 2.17
-1 0 8 21.67 5.76
1 0 -8 18.17 8.25
0 0 -8 707.17 31.33
0 0 -8 739.92 31.02
0 0 -8 728.05 30.63
-1 0 -8 111.95 8.47
-1 0 -8 109.24 6.42
-2 0 -8 0.45 2.21
-3 0 -8 85.48 7.38
6 -1 -8 54.39 6.67
6 -1 -8 57.16 7.87
6 1 -8 55.97 7.17
6 1 -8 60.3 7.94
5 -1 -8 222.78 12.05
5 -1 -8 204.18 12.43
5 1 -8 163.44 12.11
5 1 -8 209.59 11.96
4 -1 -8 393.33 19.02
4 1 -8 397.6 19.15
-3 -1 8 124.1 16.91
3 -1 -8 155.46 21.58
3 -1 -8 139.18 8.08
3 -1 -8 130.65 8.19
-3 1 8 145.78 18
3 1 -8 131.1 7.74
3 1 -8 134.92 8.3
3 1 -8 128.02 18.22
2 -1 -8 121.69 7.07
2 -1 -8 119.8 7.68
2 -1 -8 118.24 17.65
2 -1 -8 120.93 5.24
2 -1 -8 119.21 5.32
-2 -1 8 103.28 14.24
-2 1 8 111.21 14.12
2 1 -8 126.44 6.03
2 1 -8 124.73 5.96
2 1 -8 130.28 7.33
2 1 -8 140.98 19.39
1 -1 -8 6.19 1.8
1 -1 -8 7.37 1.86
-1 -1 8 1.38 6.66
1 -1 -8 6.46 1.18
1 -1 -8 2.62 6.04
1 1 -8 6.34 1.23
1 1 -8 7.76 2.09
1 1 -8 -0.54 7.68
1 1 -8 8.13 1.94
-1 1 8 1.82 5.54
0 -1 -8 190.33 9.5
0 -1 -8 184.96 9.36
0 -1 -8 177.74 8.84
0 1 -8 186.16 11.02
0 1 -8 192.24 9.73
0 1 -8 188.66 9.76
0 1 -8 180.04 8.9
-1 -1 -8 222.5 11.97
-1 -1 -8 233.19 11.55
-1 -1 -8 237.1 11.36
-1 1 -8 234.05 11.34
-2 -1 -8 270.06 13.47
-2 1 -8 266.53 13.24
-3 -1 -8 288.34 15.12
-3 1 -8 300.68 15.36
6 -2 -8 65.19 7.41
6 -2 -8 53.83 7.3
6 2 -8 65.85 7.38
6 2 -8 53.77 7.03
5 -2 -8 173.69 11.15
5 -2 -8 210.14 12.13
5 2 -8 188.63 11.58
4 -2 -8 45.16 5.58
4 2 -8 42.29 4.78
4 2 -8 43.35 5.57
3 -2 -8 158.1 8.86
-3 -2 8 165.06 20.39
3 -2 -8 142.24 21.63
3 -2 -8 151.32 8.97
3 2 -8 169.37 9.51
3 2 -8 218.03 25.79
-3 2 8 169.13 19.62
2 -2 -8 91.22 6.37
2 -2 -8 88.78 4.04
2 -2 -8 94.07 4.08
2 -2 -8 90.28 5.83
2 -2 -8 104.65 15.36
-2 -2 8 80.2 11.87
2 2 -8 77.6 14.51
-2 2 8 78.46 11.8
2 2 -8 76.02 4.58
2 2 -8 90.68 4.16
2 2 -8 86.41 5.77
1 -2 -8 14.51 2
1 -2 -8 15.26 2.82
-1 -2 8 13.24 6.65
1 -2 -8 11.77 1.59
1 -2 -8 13.7 2.39
1 2 -8 15.2 2.44
-1 2 8 14.42 5.83
1 2 -8 15.44 1.92
1 2 -8 8.49 9.14
0 -2 8 266.6 17.39
0 -2 -8 267.37 13.01
0 -2 -8 275.37 12.47
0 -2 -8 275.29 12.74
0 2 -8 264.28 12.79
0 2 -8 254.47 17.37
0 2 -8 263.85 12.82
0 2 -8 267.25 12.06
-1 -2 -8 211.9 10.76
-1 -2 -8 206.37 11.28
-1 -2 -8 231.25 11.03
-1 2 -8 215.41 10.55
-2 -2 -8 13.66 3.23
-2 2 -8 15.58 3.24
-3 -2 -8 82.53 7.48
-3 2 -8 92.18 7.25
6 -3 -8 37.86 6.92
6 -3 -8 36.12 5.63
6 3 -8 30.39 6.05
5 -3 -8 51.06 6.08
5 -3 -8 58.29 7.08
5 3 -8 55.89 6.65
4 -3 -8 336.73 17.65
4 3 -8 327.85 16.48
4 3 -8 332.44 16.48
3 -3 -8 242.4 12.76
3 -3 -8 232.75 12.14
-3 -3 8 233.55 22.73
3 -3 -8 265.57 24.63
3 3 -8 270.99 29.28
3 3 -8 246.02 12.55
-3 3 8 250.09 23.86
3 3 -8 242.58 10.45
2 -3 -8 60.25 2.87
-2 -3 8 81.82 12.54
2 -3 -8 65.9 5.47
2 -3 -8 56.31 4.83
2 -3 -8 64.53 2.9
2 -3 -8 60.02 10.66
-2 3 8 59.54 9.72
2 3 -8 61.85 4.75
2 3 -8 75.86 15.21
2 3 -8 70.06 3.72
1 -3 -8 122.98 7.43
1 -3 -8 110.62 5.82
-1 -3 8 114.52 14.91
1 -3 -8 111.87 6.57
1 -3 -8 111.49 5.67
1 3 -8 98.32 14.13
-1 3 8 103.4 9.65
-1 3 8 117.18 9.7
1 3 -8 111.29 6.82
1 3 -8 119.64 5.71
0 -3 -8 10.45 3.75
0 -3 -8 6.06 1.66
0 -3 8 11.6 7.98
0 -3 -8 7.55 1.83
0 -3 8 5.06 2.2
0 -3 -8 11.46 2.46
0 3 -8 5.3 8.48
0 3 -8 6.54 1.61
0 3 -8 7.53 1.95
1 -3 8 295.3 14.78
-1 -3 -8 314.64 15.24
-1 -3 -8 298.11 13.93
-1 -3 -8 280.96 14.45
-1 -3 -8 276.27 13.81
-1 3 -8 277.51 17.6
-1 3 -8 309.23 18.09
-1 3 -8 301.75 13.86
2 -3 8 94.95 7.79
-2 -3 -8 111.73 7.36
-2 -3 -8 119.27 7.41
-3 -3 -8 53.69 6.39
3 -3 8 53.83 6.27
-3 -3 -8 57.3 6.04
-3 3 -8 72.11 6.47
5 -4 -8 26.1 5.05
5 -4 -8 28.48 4.84
5 4 -8 26.75 4.76
4 -4 -8 10.51 3.1
4 -4 -8 18.93 3.61
4 4 -8 11.47 2.77
4 4 -8 13.42 1.41
3 -4 -8 56.41 13.31
-3 -4 8 63.44 13.08
3 -4 -8 44.02 4.91
3 -4 -8 49.83 4.68
3 4 -8 41.82 4.56
-3 4 8 43.11 11.99
3 4 -8 53.97 2.81
-2 -4 8 29.24 10.2
2 -4 -8 37.25 9.19
2 -4 -8 36.48 1.96
2 -4 -8 32.91 4.26
2 -4 -8 39.42 1.96
2 -4 -8 32.49 3.78
-2 4 8 38.63 8.69
2 4 -8 39.44 3.71
2 4 -8 60.02 14.38
2 4 -8 36.93 2.56
1 -4 -8 444.37 20.62
1 -4 -8 474.51 21.51
1 -4 -8 464.14 19.69
-1 -4 8 455.89 28.35
1 -4 -8 466.83 19.62
-1 4 8 473 22.13
1 4 -8 462.54 30.74
-1 4 8 502.83 22.35
1 4 -8 478.15 20.47
1 4 -8 475.2 21.63
0 -4 -8 70.78 5.86
0 -4 -8 65.24 4.5
0 -4 -8 70.47 4.96
0 -4 8 68.14 5.5
0 -4 -8 74.14 4.99
0 4 -8 65.86 4.27
0 4 -8 70.91 5.23
-1 -4 -8 23.01 3.12
-1 -4 -8 14.13 2.62
-1 -4 -8 18.7 3.46
1 -4 8 19.23 3.66
-1 4 -8 16.07 2.46
-1 4 -8 10.45 8.71
2 -4 8 28.72 4.63
-2 -4 -8 29.03 3.96
-2 -4 -8 38.7 3.93
-2 -4 -8 31.52 4.67
-2 4 -8 29.43 3.69
-2 4 -8 36.03 9.22
-3 -4 -8 12.72 2.94
-3 -4 -8 6.39 4.24
3 -4 8 18.26 4.32
-3 4 -8 9.07 3.44
5 -5 -8 36.06 5.56
5 -5 -8 27.64 4.77
5 5 -8 33.59 5.21
5 5 -8 35.04 5.34
-4 -5 8 67.67 3.97
4 -5 -8 67.16 6.62
4 -5 -8 62.49 5.89
4 5 -8 70.41 4.42
4 5 -8 57.13 5.81
-3 -5 8 142.95 7.27
3 -5 -8 140.2 9.98
3 -5 -8 138.69 8.26
3 -5 -8 152 21.79
-3 5 8 95.97 15.56
3 5 -8 138.54 6.38
3 5 -8 135.37 7.98
2 -5 -8 29.28 1.81
-2 -5 8 34.03 3.58
2 -5 -8 26.59 3.58
2 -5 -8 28.02 1.75
2 -5 -8 33.13 3.82
-2 -5 8 13.94 10.07
2 5 -8 22.06 13.43
2 5 -8 29.26 2.41
2 5 -8 27.1 3.31
-2 5 8 21.93 8.15
-2 5 8 21.48 9.31
1 -5 -8 73.46 4.4
1 -5 -8 75.37 5.7
1 -5 -8 81.42 4.39
-1 -5 8 84.01 6.24
1 -5 -8 71.56 5.16
-1 -5 8 67.31 11.97
-1 5 8 78.36 8.45
1 5 -8 72.4 4.29
1 5 -8 75.63 5.31
1 5 -8 90.45 15.04
-1 5 8 72.12 7.42
0 -5 8 187.93 18.34
0 -5 -8 200.84 9.92
0 -5 -8 186.68 10.53
0 -5 8 183.03 10.89
0 -5 -8 199.86 9.6
0 -5 -8 203.43 9.69
0 5 -8 204.46 9.8
0 5 -8 217.31 21.48
0 5 -8 202.91 10.72
-1 -5 -8 118.74 6.82
-1 -5 -8 96.78 6.31
-1 -5 -8 108.85 7.19
-1 5 -8 97.85 13.45
-1 5 -8 109.62 6.23
-2 -5 -8 177.25 9.12
-2 -5 -8 159.7 9.53
2 -5 8 170.62 10.6
-2 5 -8 186.21 10.13
-3 -5 -8 152.61 10.02
-3 -5 -8 127.78 8.33
3 -5 8 125.91 10.5
-3 5 -8 139.98 8.97
5 -6 -8 16.46 4.67
5 -6 -8 27.88 5.24
5 6 -8 28.79 4.38
5 6 -8 17.31 3.44
-4 -6 8 23.4 3.27
4 -6 -8 19.84 3.39
4 -6 -8 24.59 4.27
4 6 -8 25.6 3.93
4 6 -8 18.7 2.57
3 -6 -8 299.02 15.23
3 -6 -8 325.25 16.22
-3 -6 8 321.68 14.17
3 6 -8 262.48 16.09
-3 6 8 316.68 28.39
3 6 -8 318.71 13.12
-2 -6 8 75.92 5.3
2 -6 -8 73.81 3.53
2 -6 -8 77.14 3.67
-2 -6 8 71.38 13.95
2 -6 -8 72.63 5.97
2 -6 -8 73.79 5.47
-2 -6 8 64.81 5.83
2 6 -8 76.94 4.24
2 6 -8 69.26 5.57
-2 6 8 67.48 12.71
-2 6 8 56.63 11.74
1 -6 -8 243.07 11.12
1 -6 -8 227.04 12.44
1 -6 -8 245.19 10.97
-1 -6 8 264.78 12.14
1 -6 -8 237.18 11.98
-1 -6 8 275.57 23.41
-1 -6 8 238.58 13
1 6 -8 213.96 25.02
-1 6 8 244.05 14.76
-1 6 8 239.1 13.45
1 6 -8 250.27 12.37
1 6 -8 246.13 11.2
0 -6 -8 137.68 7.98
0 -6 8 106.03 10.52
0 -6 8 127.21 16.74
0 -6 -8 128.73 7.06
0 -6 -8 114.5 6.89
0 -6 -8 126.75 8.01
0 -6 -8 133.21 7.19
0 6 -8 141.92 20
0 6 -8 126.56 6.81
1 -6 8 32.94 4.75
-1 -6 -8 21.87 3.34
-1 -6 -8 20.3 2.72
-1 6 -8 21.58 3.07
-2 -6 -8 10.33 2.72
2 -6 8 8.42 3.64
-2 -6 -8 5.35 2.67
-2 -6 -8 7.38 2.21
-2 6 -8 1.87 2.29
5 -7 -8 46.56 6.6
5 -7 -8 66.55 7.51
5 7 -8 71.41 7.7
4 -7 -8 132.03 8.7
4 -7 -8 124.7 9.45
4 7 -8 139.09 9.02
4 7 -8 135.09 6.78
-3 -7 8 138.75 7.39
3 -7 -8 130.4 8.05
3 -7 -8 139.76 8.96
3 7 -8 140.13 6.88
-2 -7 8 206.07 10.29
2 -7 -8 214.24 8.78
-2 -7 8 190.47 12.06
2 -7 -8 186.5 13.88
2 -7 -8 203.8 10.56
2 7 -8 200.65 11.01
2 7 -8 208.5 9.6
1 -7 -8 90.12 6.46
1 -7 -8 87.94 5.03
-1 -7 8 71.94 14.33
-1 -7 8 87.32 6.59
1 -7 -8 85.83 5.78
-1 7 8 71.29 8.94
1 7 -8 73.79 6.83
-1 7 8 69.88 9.11
1 7 -8 87.69 4.84
0 -7 8 14.08 3.3
0 -7 -8 15.36 3.22
0 -7 -8 13.23 2.32
0 -7 -8 19.82 2.92
0 -7 8 -8.61 18
0 -7 -8 13.68 2.81
0 7 -8 15.1 2.64
0 7 -8 10.72 1.87
-1 -7 -8 20.39 3.48
-1 -7 -8 22.52 3.47
1 -7 8 24.6 4.64
-1 -7 -8 23.53 2.91
-1 7 -8 24.07 3.41
2 -7 8 102.49 8.92
-2 -7 -8 92.7 6.04
-2 -7 -8 98.19 6.99
-2 7 -8 93.01 6.89
5 -8 -8 6.2 4.3
5 -8 -8 15.73 4.26
5 8 -8 12.47 4.24
4 -8 -8 49.69 6.56
4 -8 -8 55.15 6.41
4 8 -8 53.02 3.78
4 8 -8 53.49 6.17
3 -8 -8 69.38 6.76
-3 -8 8 63.3 5.17
3 -8 -8 64.83 5.55
3 8 -8 79.37 5.88
3 8 -8 69.37 4.37
-2 -8 8 79.22 5.99
2 -8 -8 73.06 4
2 -8 -8 80.72 5.74
-2 -8 8 81.97 6.7
2 -8 -8 74.97 6.32
2 8 -8 77.89 4.69
-2 8 8 71.85 17.71
1 -8 -8 51.4 5.14
1 -8 -8 59.12 6.49
1 -8 -8 52.49 3.97
-1 -8 8 49.79 5.56
1 -8 -8 58 4.71
-1 8 8 30.2 9.77
1 8 -8 48.56 5
1 8 -8 57.67 3.94
0 -8 8 321.85 16.35
0 -8 -8 302.07 14.32
0 -8 -8 307.19 15.31
0 -8 -8 299.89 14.81
0 8 -8 305 14.09
1 -8 8 57.91 7.52
-1 -8 -8 58.67 5.65
-1 -8 -8 60.86 5.55
-1 -8 -8 60.79 4.59
-1 8 -8 54.21 4.26
-2 -8 -8 33.49 4.71
-2 -8 -8 25.4 3.14
2 -8 8 25.7 5.32
-2 8 -8 28.9 4.16
4 -9 -8 116.15 8.73
4 -9 -8 121.64 9.25
4 9 -8 111.78 6.36
4 9 -8 115.12 8.8
3 -9 -8 86.33 7.6
3 -9 -8 92.73 6.6
-3 -9 8 77.89 6.08
-3 -9 8 81.1 7.26
3 9 -8 85.93 5.09
3 9 -8 79.11 6.45
-2 -9 8 146.21 9.37
2 -9 -8 131.49 8.74
-2 -9 8 120.88 7.97
2 -9 -8 120.51 7.67
2 9 -8 129.93 7.77
2 9 -8 127.9 6.89
1 -9 -8 66.92 4.82
1 -9 -8 71.92 5.33
1 -9 -8 82.86 6.68
-1 -9 8 68.89 6.67
1 -9 -8 66.65 7.39
-1 9 8 66.27 13.11
1 9 -8 79.09 6.01
1 9 -8 76.85 4.95
0 -9 -8 30.07 3.8
0 -9 -8 40.3 4.95
0 -9 -8 37.81 5.43
0 -9 8 36.04 5.62
0 -9 -8 33.36 4.59
0 9 -8 41.58 3.84
1 -9 8 28.63 5.04
-1 -9 -8 27.93 3.56
-1 -9 -8 29.28 3.76
-1 9 -8 23.13 3.41
-2 -9 -8 15.13 3.18
-2 -9 -8 16.34 2.63
2 -9 8 13.77 4.17
-2 9 -8 16.35 3.76
4 -10 -8 3.26 3.51
4 -10 -8 3.12 3.62
4 10 -8 6.95 2.09
4 10 -8 2.95 4.05
-3 -10 8 1.4 2.99
3 -10 -8 7.21 3.52
3 -10 -8 -0.2 2.71
3 10 -8 0.89 2.69
3 10 -8 -0.05 1.72
2 -10 -8 250.43 13.74
2 -10 -8 249.89 12.58
-2 -10 8 238.62 13.71
2 10 -8 240.19 11.56
2 10 -8 243.75 12.63
1 -10 -8 67.18 6.26
-1 -10 8 71.53 7.83
1 -10 -8 62.88 5.12
1 -10 -8 52.84 6.33
1 10 -8 66.7 4.64
1 10 -8 62.17 5.98
-1 10 8 59.06 14.89
0 -10 -8 153.59 8.59
0 -10 8 180.2 11.23
-1 -10 -8 366.77 17.38
-1 -10 -8 324.03 16.06
1 -10 8 383.35 19.04
-1 10 -8 356.9 16.96
4 -11 -8 11.45 5.16
4 -11 -8 7.25 4.21
4 11 -8 11.58 3.84
4 11 -8 11.64 2.72
3 -11 -8 59.46 7.16
-3 -11 8 58.78 7.78
3 -11 -8 62.7 6.17
3 11 -8 62.04 6.75
3 11 -8 62.53 4.84
2 -11 -8 62.82 5.49
-2 -11 8 57.91 7.57
2 -11 -8 68.71 6.93
2 11 -8 71.31 6.32
2 11 -8 58.84 4.75
-1 -11 8 42.9 6.04
1 -11 -8 44.57 6.15
1 -11 -8 50.05 4.64
1 11 -8 50.75 5.71
1 11 -8 44.37 4.5
0 -11 -8 25.37 3.14
0 -11 8 27.1 4.96
0 -11 -8 18.55 3.78
0 11 -8 26.25 3.61
0 11 -8 21.6 4.02
1 -11 8 206.2 13.3
-1 -11 -8 197.73 9.93
-1 11 -8 201.59 11.07
3 -12 -8 23.2 5.55
-3 -12 8 22.27 5.23
3 -12 -8 19.85 4.75
3 12 -8 24.3 4.71
3 12 -8 21.47 3.44
2 -12 -8 31.02 5.15
-2 -12 8 34.97 5.68
2 -12 -8 49.89 5.06
-2 12 8 35.82 3.84
2 12 -8 29.66 4.89
-1 -12 8 333.56 17.95
1 -12 -8 331.01 17.18
1 -12 -8 343.04 15.72
1 12 -8 362.32 16.22
1 12 -8 325.21 16.92
-1 12 8 339.96 15.95
0 -12 -8 68.43 6.88
0 -12 8 67.76 8.84
0 -12 -8 71.42 5.21
0 12 -8 75.34 6.35
0 12 -8 72.79 7.24
2 -13 -8 33.66 4.98
-2 -13 8 41.53 5.57
2 -13 -8 46.34 6.86
2 13 -8 52.81 5.55
2 13 -8 50.56 6.58
-2 13 8 50.98 4.85
-1 -13 8 13.33 5.7
1 -13 -8 14.95 4.3
1 -13 -8 11.83 2.68
1 13 -8 14.96 4.01
-1 13 8 13.5 3.12
1 13 -8 13.66 3.38
5 0 -9 74.17 7.93
5 0 -9 84.18 8.24
4 0 -9 54.11 6.48
4 0 -9 56.05 6.5
3 0 -9 190.28 10.76
3 0 -9 186.7 11.27
2 0 -9 44.64 3
1 0 -9 177.65 8.12
1 0 -9 185.89 14.63
-1 0 9 171.1 16.14
1 0 -9 181.08 8.79
1 0 -9 146.07 11.68
0 0 -9 127.05 8.22
0 0 -9 131.65 8.61
0 0 -9 138.91 7.09
-1 0 -9 -0.92 2.7
-1 0 -9 -2.05 1.79
-2 0 -9 1.14 2.97
5 -1 -9 278.97 15.6
5 -1 -9 267.77 14.94
5 1 -9 298.44 15.97
5 1 -9 281.78 15.74
4 -1 -9 675.11 30.05
4 -1 -9 629.99 30.06
4 1 -9 632.93 29.29
4 1 -9 630.12 29.1
3 -1 -9 152.3 9.1
3 -1 -9 156.06 10.06
3 1 -9 158.58 10.19
3 1 -9 164.06 9.87
2 -1 -9 26.54 12.03
2 -1 -9 39.13 4.91
2 -1 -9 35.05 2.4
-2 -1 9 51.77 11.79
2 -1 -9 35.6 2.24
2 1 -9 36.42 13.31
2 1 -9 39.43 2.39
-2 1 9 26.94 9.82
2 1 -9 36.65 3.11
2 1 -9 45.23 4.95
1 -1 -9 18.73 3.24
1 -1 -9 14.5 2.48
-1 -1 9 22.32 8.9
1 -1 -9 16.67 2.15
-1 1 9 11.03 5.86
1 1 -9 17.95 2.14
1 1 -9 14.2 2.75
1 1 -9 19.17 8.59
0 -1 -9 198.58 13.18
0 -1 -9 200.68 10.61
0 -1 -9 205.95 9.83
0 1 -9 210.6 10
0 1 -9 188.42 11.01
0 1 -9 220.62 11.1
-1 -1 -9 523.91 23.58
-1 -1 -9 515.77 23.08
-1 1 -9 505.21 22.84
-1 1 -9 529 23.75
-2 1 -9 301.47 15.15
5 -2 -9 59.29 7.77
5 -2 -9 58.77 7.18
5 2 -9 55.8 7.08
5 2 -9 59.31 7.49
4 -2 -9 14.2 4.54
4 -2 -9 7.19 3.89
4 2 -9 8.15 3.8
4 2 -9 17.91 4.18
3 -2 -9 384.84 18.26
3 -2 -9 374.04 18.97
3 2 -9 424.37 20.26
2 -2 -9 294.08 11.56
2 -2 -9 264.96 14.69
2 -2 -9 268.71 14.34
-2 -2 9 256.44 22.67
2 -2 -9 282.19 11.51
2 -2 -9 260.1 22.22
-2 2 9 282.12 22.44
2 2 -9 342.76 39.43
2 2 -9 285.78 12.26
2 2 -9 298.68 14.26
2 2 -9 256.97 13.2
1 -2 -9 117.49 11.89
1 -2 -9 156.12 8.8
-1 -2 9 128.57 18.59
1 -2 -9 174.52 7.81
1 -2 -9 147.55 7.22
1 2 -9 178.84 19.93
1 2 -9 151.09 8.86
1 2 -9 160 8.53
1 2 -9 154.14 7.48
0 -2 -9 182.98 9.96
0 -2 -9 189.91 9.85
0 -2 -9 175 9
0 2 -9 186.89 11.79
0 2 -9 186.07 10.34
0 2 -9 197.48 12.03
0 2 -9 192.31 9.34
0 2 -9 197.14 10.8
-1 -2 -9 102.96 6.46
-1 -2 -9 98.55 6.73
-1 2 -9 104.96 7.69
-1 2 -9 91.41 5.91
-2 -2 -9 9.44 3.62
-2 -2 -9 3.58 3.13
-2 2 -9 9.58 3.33
5 -3 -9 103.22 9.08
5 -3 -9 85.24 8.51
5 3 -9 90.46 8.45
5 3 -9 90.79 8.63
4 -3 -9 84.18 8.44
4 -3 -9 101.2 8.55
4 3 -9 97.81 7.85
4 3 -9 86.52 7.72
3 -3 -9 64.69 6.74
3 -3 -9 48.69 5.07
3 3 -9 55.44 2.9
3 3 -9 57.59 5.61
3 3 -9 57.34 3.14
2 -3 -9 1.15 2.4
2 -3 -9 -4.65 8.78
2 -3 -9 -1.06 0.67
2 -3 -9 5.34 2.49
2 -3 -9 1.21 0.76
-2 3 9 11.14 10.26
2 3 -9 -0.64 1.97
2 3 -9 2.22 1.01
2 3 -9 3.55 1.96
1 -3 -9 23.73 3.31
-1 -3 9 30.84 11.06
1 -3 -9 31.8 2.63
1 -3 -9 20.48 3.33
1 -3 -9 21.25 4.14
1 3 -9 26.91 3.57
1 3 -9 31.34 12.62
1 3 -9 28.38 4.12
1 3 -9 27.55 2.66
0 -3 -9 188.39 8.6
0 -3 -9 149.49 9.09
0 -3 -9 153.24 9
0 3 -9 155.61 17.52
0 3 -9 178.13 9.9
0 3 -9 172.87 8.65
0 3 -9 175.79 11.15
-1 -3 -9 156.49 11.51
-1 -3 -9 155.36 12.93
-1 -3 -9 177.72 9.22
-1 3 -9 176.23 9.34
-2 -3 -9 92.12 7.63
-2 -3 -9 94.9 7.33
-2 -3 -9 90.48 7.39
-2 3 -9 99.35 7.41
5 -4 -9 94.43 9.05
5 -4 -9 89.06 8.47
5 4 -9 97.98 9.08
5 4 -9 79.79 8.2
4 -4 -9 174.57 11.27
4 -4 -9 175.97 11.43
4 4 -9 163.61 10.47
3 -4 -9 63.21 7.04
3 -4 -9 65.75 5.91
3 4 -9 71.49 6.1
3 4 -9 68.13 3.56
2 -4 -9 134.04 8.38
2 -4 -9 147.22 6.16
2 -4 -9 143.94 9.58
2 -4 -9 147.31 6.15
2 4 -9 150.26 9.13
2 4 -9 159.28 7.36
-2 4 9 150.51 18.89
1 -4 -9 246.37 12.83
1 -4 -9 223.76 10.6
-1 -4 9 195.07 24.91
1 -4 -9 236.2 11.86
1 -4 -9 231.69 10.52
1 4 -9 253.86 13.02
1 4 -9 241.01 11.26
0 -4 -9 351.98 15.57
0 -4 9 293.26 25.06
0 -4 -9 294.85 18.6
0 -4 -9 383.46 15.91
0 -4 -9 343.31 16.16
0 4 -9 336.81 25.13
0 4 -9 325.53 16.37
0 4 -9 343.33 15.24
-1 -4 -9 13.62 5.56
-1 -4 -9 23.43 5.3
-1 -4 -9 18.76 3.07
1 -4 9 22.46 5.06
-1 4 -9 18.57 2.93
-1 4 -9 17.57 8.97
2 -4 9 40.7 6.02
-2 -4 -9 41.59 6.3
-2 -4 -9 33.8 5.14
-2 -4 -9 39.45 5.6
-2 4 -9 30.78 3.96
5 -5 -9 130.26 10.92
5 -5 -9 142.98 11
5 5 -9 157.96 11.9
5 5 -9 159.67 11.22
4 -5 -9 199.49 13.03
4 -5 -9 227.46 12.86
4 5 -9 214.53 12.74
3 -5 -9 166.98 10.76
3 -5 -9 161.15 9.76
3 5 -9 172.87 10.24
3 5 -9 167.65 7.83
2 -5 -9 16.67 1.39
2 -5 -9 16.44 1.44
2 -5 -9 16.45 3.38
2 -5 -9 14.63 3.82
2 5 -9 15.27 3.11
2 5 -9 17.86 2.29
-2 5 9 14.52 10.83
1 -5 -9 3.76 2.71
1 -5 -9 4.62 1.88
1 -5 -9 4.65 1.54
1 -5 -9 4.75 2.26
1 5 -9 5.89 1.63
1 5 -9 8.45 2.82
0 -5 -9 89.32 5.67
0 -5 9 89.22 8.12
0 -5 -9 85.17 5.91
0 -5 -9 83.86 6.23
0 -5 -9 83.79 6.89
0 5 -9 82.23 5.19
0 5 -9 74.16 6.97
-1 -5 -9 106.53 6.82
-1 -5 -9 104.4 8.21
1 -5 9 105.54 8.72
-1 -5 -9 98.8 6.86
-1 5 -9 98.34 6.79
4 -6 -9 10.35 4.35
4 -6 -9 4.65 3.22
4 6 -9 7.42 3.85
3 -6 -9 13.95 3.22
3 -6 -9 19.87 4.2
3 6 -9 17.34 3.97
3 6 -9 12.29 1.8
2 -6 -9 159.05 10.47
2 -6 -9 164.31 6.78
2 -6 -9 139.89 9.1
2 6 -9 176.66 8.29
-2 6 9 135.37 19.06
2 6 -9 179.52 10.41
1 -6 -9 109.16 6.01
-1 -6 9 118.38 8.81
1 -6 -9 118.43 8.26
1 -6 -9 104.2 6.95
1 6 -9 114.39 6.26
1 6 -9 117.5 7.96
0 -6 -9 145.03 9.35
0 -6 9 146.02 10.44
0 -6 -9 166.19 8.24
0 -6 -9 131.96 8.17
0 6 -9 143.48 7.82
0 6 -9 157.37 9.57
-1 -6 -9 8.99 2.81
-1 -6 -9 9.85 3.17
1 -6 9 14.53 4.95
-1 -6 -9 7.36 2.81
-1 6 -9 16.24 3.02
4 -7 -9 76.86 8
4 -7 -9 97.73 8.34
4 7 -9 90.95 8.26
3 -7 -9 19.99 4.03
3 -7 -9 26.82 5.04
3 7 -9 21.66 3.87
3 7 -9 24.74 2.74
-2 -7 9 27.46 4.02
2 -7 -9 17.62 4.46
2 -7 -9 20.89 3.62
-2 7 9 18.31 13.88
2 7 -9 23.58 4.07
2 7 -9 21.59 2.83
-1 -7 9 126.32 9.24
1 -7 -9 119.36 7.49
1 -7 -9 132.62 9.25
1 -7 -9 127.31 6.74
1 7 -9 130.55 8.93
1 7 -9 132.37 7.01
0 -7 -9 24.38 4.65
0 -7 -9 19.32 3.02
0 -7 9 19.97 4.93
0 -7 -9 20.73 3.02
0 7 -9 21.92 4.18
0 7 -9 27.05 3.24
-1 -7 -9 118.05 7.05
1 -7 9 115.35 9.8
-1 -7 -9 106.82 7.67
-1 -7 -9 108.17 8.21
-1 7 -9 108.38 7.26
4 -8 -9 21.53 4.88
4 -8 -9 18.39 5.4
4 8 -9 8.7 3.79
3 -8 -9 -2.97 3.36
3 -8 -9 -3.55 3.71
3 8 -9 3.12 1.83
3 8 -9 5.57 3.98
-2 -8 9 108.45 8.9
2 -8 -9 96.06 8.36
2 -8 -9 92.98 7.2
2 8 -9 104.55 5.96
2 8 -9 102.4 7.96
1 -8 -9 327.77 15.03
1 -8 -9 343.05 17.59
1 -8 -9 353.07 16.07
-1 -8 9 309.68 17.58
1 8 -9 331.68 15.18
0 -8 -9 85 7.59
0 -8 9 70.26 8.32
0 -8 -9 81.26 5.93
0 -8 -9 81.41 5.96
0 8 -9 95.51 7.4
-1 -8 -9 14.14 2.74
1 -8 9 13.31 5.35
-1 -8 -9 5.46 3.93
-1 8 -9 16.43 3.63
3 -9 -9 71.24 7.76
3 -9 -9 67.05 7
3 9 -9 57.58 6.86
3 9 -9 59.13 4.47
2 -9 -9 90.98 8.5
2 -9 -9 88.78 7.24
-2 -9 9 92.17 8.89
2 9 -9 94.68 5.8
2 9 -9 98.27 8.13
1 -9 -9 67.31 5.86
1 -9 -9 74.86 7.53
-1 -9 9 87.78 8.51
1 9 -9 70.2 6.66
1 9 -9 72.37 5.03
0 -9 9 31.21 5.72
0 -9 -9 25.62 5.26
0 -9 -9 25.4 3.43
0 9 -9 19.19 3.36
0 9 -9 29.65 4.11
3 -10 -9 98.4 10.07
3 -10 -9 87.21 7.94
3 10 -9 97.72 6.16
3 10 -9 102.6 8.17
-2 -10 9 87.99 8.04
2 -10 -9 87.67 8.18
2 -10 -9 92.33 7.37
2 10 -9 84.08 7.78
2 10 -9 96.81 5.92
1 -10 -9 38.59 4.92
1 -10 -9 39.48 5.82
-1 -10 9 39.55 6.2
1 10 -9 30.71 4.3
0 -10 -9 61.73 5.93
0 10 -9 79.74 8
4 0 -10 62.2 7.76
4 0 -10 63.86 7.51
3 0 -10 67.12 7.99
3 0 -10 73.44 7.62
2 0 -10 15.06 2.08
2 0 -10 12.38 4.65
2 0 -10 13.93 3.51
1 0 -10 6.06 3.37
1 0 -10 11.16 1.76
0 0 -10 27.15 4.39
0 0 -10 27.18 3.47
4 -1 -10 93.91 8.57
4 -1 -10 85.43 8.5
4 1 -10 88.96 8.72
4 1 -10 78.46 7.97
3 -1 -10 59.88 7.73
3 -1 -10 69.15 6.97
3 1 -10 69.46 7.06
3 1 -10 77.17 8.21
2 -1 -10 76.8 8.2
2 -1 -10 75.29 6.69
2 1 -10 74.8 6.82
2 1 -10 79.57 4.16
1 -1 -10 53.27 6.51
1 -1 -10 50.9 3.61
1 -1 -10 52.33 7.03
-1 -1 10 43.41 7.53
1 1 -10 54.47 3.77
1 1 -10 55.64 6.23
1 1 -10 54.61 9.16
0 -1 -10 355.99 17.32
0 -1 -10 343.36 15.85
0 1 -10 339.39 17.22
0 1 -10 341 15.48
4 -2 -10 55.5 6.88
4 -2 -10 58.33 8.58
4 2 -10 35.66 6.41
3 -2 -10 138.23 10.07
3 -2 -10 141.53 9.95
3 2 -10 137.9 10.45
3 2 -10 140.07 9.86
2 -2 -10 68.41 8.13
2 -2 -10 74.65 6.81
2 2 -10 70.96 3.83
2 2 -10 59.72 6.95
1 -2 -10 103.45 5.55
1 -2 -10 102.18 8.15
-1 -2 10 112.32 16.04
1 -2 -10 108.68 9.14
1 2 -10 108.78 6.02
1 2 -10 118.65 8.34
0 -2 -10 142.03 10.56
0 -2 -10 143.97 9.53
0 -2 -10 140.23 7.68
0 2 -10 137.22 7.79
0 2 -10 158.86 9.8
4 -3 -10 231.03 14.12
4 -3 -10 225.99 15.05
4 3 -10 219.02 13.91
4 3 -10 219.79 13.83
3 -3 -10 5.11 4.2
3 -3 -10 8.99 4.14
3 3 -10 10.58 3.83
2 -3 -10 70.67 8.26
2 -3 -10 91.44 7.39
2 3 -10 81.6 7.42
-2 3 10 78.32 11.37
2 3 -10 77 4.39
1 -3 -10 79.76 4.74
1 -3 -10 89.81 8.6
1 -3 -10 84.14 7.48
1 3 -10 83.75 5.17
1 3 -10 103.07 7.65
0 -3 -10 57.31 6.81
0 -3 -10 53.88 7.07
0 -3 -10 65.16 4.89
0 3 -10 71.67 6.74
0 3 -10 68.47 4.92
3 -4 -10 33.86 5.12
3 -4 -10 24.81 5.04
3 4 -10 22.97 4.35
2 -4 -10 156.44 10.41
2 -4 -10 157.26 11.19
2 4 -10 144.41 7.26
-2 4 10 165.6 15.64
2 4 -10 151.26 9.94
1 -4 -10 483.23 19.81
1 -4 -10 482.1 21.85
1 -4 -10 411.03 22.39
1 4 -10 460.1 20.26
1 4 -10 475.2 22.15
0 -4 -10 140.56 7.94
0 -4 -10 147.65 10.88
0 -4 -10 144.24 9.55
0 4 -10 125.93 9.32
0 4 -10 130.25 7.22
3 -5 -10 76.09 7.74
3 -5 -10 58.72 8.26
3 5 -10 49.63 7.03
2 -5 -10 61.2 7.02
2 -5 -10 49.82 7.6
2 5 -10 52.46 3.77
-2 5 10 54.4 10.64
2 5 -10 51.26 6.34
1 -5 -10 56.92 7.96
1 -5 -10 74.99 6.88
1 -5 -10 66.02 4.33
1 5 -10 61.3 4.38
1 5 -10 51.59 5.8
0 -5 -10 22.43 4.11
0 -5 -10 24.53 5.2
0 -5 -10 22.08 3.16
0 5 -10 31.52 3.68
0 5 -10 32.92 5.59
3 -6 -10 150.29 11.98
3 -6 -10 164.04 11.03
3 6 -10 161.37 11.06
2 -6 -10 314.76 16.77
2 -6 -10 331.21 17.37
2 6 -10 346.39 17.52
2 6 -10 342.65 15.32
1 -6 -10 231.88 12.59
1 -6 -10 212.06 13.61
1 -6 -10 227 10.87
1 6 -10 200.72 10.39
1 6 -10 234.28 13.01
2 -7 -10 38.8 6.57
2 -7 -10 50.84 7.24
2 7 -10 43.25 4.06
2 7 -10 58.7 8.04
1 -7 -10 26.47 4.68
1 7 -10 36.67 5.59
1 7 -10 27.25 3.73
