#------------------------------------------------------------------------------
#$Date: 2019-11-24 14:25:05 +0200 (Sun, 24 Nov 2019) $
#$Revision: 238147 $
#$URL: file:///home/coder/svn-repositories/cod/cif/1/55/48/1554839.cif $
#------------------------------------------------------------------------------
#
# This file is available in the Crystallography Open Database (COD),
# http://www.crystallography.net/
#
# All data on this site have been placed in the public domain by the
# contributors.
#
data_1554839
loop_
_publ_author_name
'Niu, Wenxue'
'Yeung, Ying-Yeung'
_publ_section_title
;
 Catalytic and highly enantioselective selenolactonization.
;
_journal_issue                   7
_journal_name_full               'Organic letters'
_journal_page_first              1660
_journal_page_last               1663
_journal_paper_doi               10.1021/acs.orglett.5b00377
_journal_volume                  17
_journal_year                    2015
_chemical_absolute_configuration ad
_chemical_formula_sum            'C17 H16 O2 Se'
_chemical_formula_weight         331.26
_space_group_crystal_system      monoclinic
_space_group_IT_number           4
_space_group_name_Hall           'P 2yb'
_space_group_name_H-M_alt        'P 1 21 1'
_atom_sites_solution_hydrogens   geom
_audit_creation_method           SHELXL-2014
_cell_angle_alpha                90
_cell_angle_beta                 95.4710(17)
_cell_angle_gamma                90
_cell_formula_units_Z            2
_cell_length_a                   6.9078(4)
_cell_length_b                   10.3981(6)
_cell_length_c                   10.0732(6)
_cell_measurement_reflns_used    9988
_cell_measurement_temperature    100(2)
_cell_measurement_theta_max      28.32
_cell_measurement_theta_min      2.82
_cell_volume                     720.24(7)
_computing_cell_refinement       'Bruker SAINT'
_computing_data_collection       'Bruker APEX2'
_computing_data_reduction        'Bruker SAINT'
_computing_molecular_graphics    'Bruker SHELXTL'
_computing_publication_material  'Bruker SHELXTL'
_computing_structure_refinement  'SHELXL-2014 (Sheldrick, 2014)'
_computing_structure_solution    'SHELXS-97 (Sheldrick 2008)'
_diffrn_ambient_temperature      100(2)
_diffrn_measured_fraction_theta_full 1.000
_diffrn_measured_fraction_theta_max 1.000
_diffrn_measurement_device_type  'Bruker D8 Venture'
_diffrn_measurement_method       '\f and \w scans'
_diffrn_radiation_type           MoK\a
_diffrn_radiation_wavelength     0.71073
_diffrn_reflns_av_R_equivalents  0.0200
_diffrn_reflns_av_unetI/netI     0.0227
_diffrn_reflns_Laue_measured_fraction_full 1.000
_diffrn_reflns_Laue_measured_fraction_max 1.000
_diffrn_reflns_limit_h_max       9
_diffrn_reflns_limit_h_min       -9
_diffrn_reflns_limit_k_max       13
_diffrn_reflns_limit_k_min       -13
_diffrn_reflns_limit_l_max       13
_diffrn_reflns_limit_l_min       -13
_diffrn_reflns_number            23787
_diffrn_reflns_point_group_measured_fraction_full 0.980
_diffrn_reflns_point_group_measured_fraction_max 0.982
_diffrn_reflns_theta_full        25.242
_diffrn_reflns_theta_max         28.274
_diffrn_reflns_theta_min         2.031
_diffrn_source                   'Sealed Microfocusing Source'
_exptl_absorpt_coefficient_mu    2.605
_exptl_absorpt_correction_T_max  0.7457
_exptl_absorpt_correction_T_min  0.6118
_exptl_absorpt_correction_type   multi-scan
_exptl_absorpt_process_details   'Sadabs, Sheldrick 2012)'
_exptl_crystal_colour            Colourless
_exptl_crystal_density_diffrn    1.527
_exptl_crystal_density_meas      ?
_exptl_crystal_density_method    'Not Measured'
_exptl_crystal_description       Rectangular_block
_exptl_crystal_F_000             336
_exptl_crystal_size_max          0.270
_exptl_crystal_size_mid          0.240
_exptl_crystal_size_min          0.140
_refine_diff_density_max         0.264
_refine_diff_density_min         -0.207
_refine_diff_density_rms         0.039
_refine_ls_abs_structure_details
; 
 Flack x determined using 1572 quotients [(I+)-(I-)]/[(I+)+(I-)] 
 (Parsons, Flack and Wagner, Acta Cryst. B69 (2013) 249-259). 
;
_refine_ls_abs_structure_Flack   0.016(2)
_refine_ls_extinction_method     none
_refine_ls_goodness_of_fit_ref   1.070
_refine_ls_hydrogen_treatment    constr
_refine_ls_matrix_type           full
_refine_ls_number_parameters     181
_refine_ls_number_reflns         3510
_refine_ls_number_restraints     1
_refine_ls_restrained_S_all      1.070
_refine_ls_R_factor_all          0.0141
_refine_ls_R_factor_gt           0.0139
_refine_ls_shift/su_max          0.000
_refine_ls_shift/su_mean         0.000
_refine_ls_structure_factor_coef Fsqd
_refine_ls_weighting_details
'w=1/[\s^2^(Fo^2^)+(0.0166P)^2^+0.0713P] where P=(Fo^2^+2Fc^2^)/3'
_refine_ls_weighting_scheme      calc
_refine_ls_wR_factor_gt          0.0372
_refine_ls_wR_factor_ref         0.0373
_reflns_Friedel_coverage         0.862
_reflns_Friedel_fraction_full    0.957
_reflns_Friedel_fraction_max     0.961
_reflns_number_gt                3459
_reflns_number_total             3510
_reflns_threshold_expression     'I > 2\s(I)'
_cod_data_source_file            ol5b00377_si_001.cif
_cod_data_source_block           E426
_cod_depositor_comments
;
The following automatic conversions were performed:

data item '_exptl_absorpt_correction_type' value 'Multi-scan' was
changed to 'multi-scan' in accordance with the
/home/saulius/struct/COD-crude-data/automatic-downloads/DataCite-retrospective/ACS/depositions/lib/dictionaries/cif_core.dic
dictionary named 'cif_core.dic' version 2.4.2 last updated on
2011-04-26.

data item '_exptl_crystal_density_meas' value 'Not Measured' was
changed to '?' -- the value is perceived as not measured.

Automatic conversion script
Id: cif_fix_values 6909 2019-04-08 15:41:33Z antanas 
;
_cod_original_sg_symbol_H-M      'P 21'
_cod_database_code               1554839
_shelx_space_group_comment
; 
The symmetry employed for this shelxl refinement is uniquely defined 
by the following loop, which should always be used as a source of 
symmetry information in preference to the above space-group names. 
They are only intended as comments. 
;
_shelx_estimated_absorpt_t_min   0.540
_shelx_estimated_absorpt_t_max   0.712
_shelxl_version_number           2014-3
_shelx_res_file
; 
TITL E426 in P2(1) 
CELL  0.71073   6.9078  10.3981  10.0732   90.000   95.471   90.000 
ZERR    2.00   0.00040   0.00060   0.00060   0.0000   0.0017   0.0000 
LATT -1 
SYMM -X, 1/2+Y, -Z 
SFAC C  H  O  Se 
UNIT 34  32  4  2 
L.S. 10 
ACTA 
BOND $H 
FMAP 2 
SHEL 9999 0.75 
PLAN 20 
SIZE 0.27 0.24 0.14 
CONF 
TEMP -173.150 
WGHT    0.016600    0.071300 
FVAR       0.26890 
SE1   4    0.179026    0.350851    0.233924    11.00000    0.02229    0.01895 = 
         0.01489    0.00260    0.00171    0.00066 
O1    3    0.417457    0.348617    0.521156    11.00000    0.01158    0.01576 = 
         0.02120    0.00284    0.00325    0.00019 
O2    3    0.666347    0.475840    0.485873    11.00000    0.01276    0.02832 = 
         0.02790    0.00835    0.00130   -0.00160 
C1    1    0.495489    0.465379    0.498526    11.00000    0.01592    0.01861 = 
         0.01575    0.00369   -0.00211   -0.00237 
C2    1    0.343177    0.568681    0.494548    11.00000    0.01630    0.01517 = 
         0.02612    0.00327   -0.00017   -0.00260 
AFIX  23 
H2A   2    0.325378    0.608973    0.405171    11.00000   -1.20000 
H2B   2    0.380341    0.636112    0.561557    11.00000   -1.20000 
AFIX   0 
C3    1    0.157173    0.500739    0.526425    11.00000    0.01354    0.01339 = 
         0.02144    0.00056    0.00080    0.00091 
AFIX  23 
H3A   2    0.048865    0.519939    0.457701    11.00000   -1.20000 
H3B   2    0.119443    0.528028    0.614524    11.00000   -1.20000 
AFIX   0 
C4    1    0.207981    0.355315    0.527004    11.00000    0.01023    0.01396 = 
         0.01660   -0.00020    0.00153    0.00025 
C5    1    0.160209    0.286615    0.653241    11.00000    0.01501    0.01227 = 
         0.01376   -0.00192    0.00108   -0.00160 
C6    1   -0.028719    0.294624    0.691508    11.00000    0.01413    0.02001 = 
         0.01794    0.00063   -0.00005    0.00075 
AFIX  43 
H6    2   -0.124402    0.344205    0.640434    11.00000   -1.20000 
AFIX   0 
C7    1   -0.075973    0.229483    0.804990    11.00000    0.01584    0.02757 = 
         0.01864   -0.00021    0.00350   -0.00168 
AFIX  43 
H7    2   -0.204538    0.234447    0.830727    11.00000   -1.20000 
AFIX   0 
C8    1    0.062788    0.157606    0.880544    11.00000    0.02491    0.02519 = 
         0.01453    0.00158    0.00312   -0.00199 
AFIX  43 
H8    2    0.029631    0.113782    0.957973    11.00000   -1.20000 
AFIX   0 
C9    1    0.250096    0.149821    0.842845    11.00000    0.02399    0.02144 = 
         0.01536    0.00266    0.00034    0.00518 
AFIX  43 
H9    2    0.345853    0.100941    0.894665    11.00000   -1.20000 
AFIX   0 
C10   1    0.297941    0.213671    0.728969    11.00000    0.01567    0.01873 = 
         0.01724   -0.00072    0.00311    0.00323 
AFIX  43 
H10   2    0.426162    0.207220    0.702873    11.00000   -1.20000 
AFIX   0 
C11   1    0.111303    0.283283    0.405954    11.00000    0.01720    0.01700 = 
         0.01636   -0.00031    0.00307   -0.00352 
AFIX  23 
H11A  2   -0.031562    0.287717    0.407885    11.00000   -1.20000 
H11B  2    0.149569    0.191599    0.412904    11.00000   -1.20000 
AFIX   0 
C12   1    0.370147    0.225359    0.196906    11.00000    0.01966    0.02203 = 
         0.01243    0.00128    0.00072    0.00031 
C13   1    0.553102    0.266782    0.167185    11.00000    0.02276    0.02559 = 
         0.01919    0.00022    0.00272   -0.00640 
AFIX  43 
H13   2    0.585082    0.355633    0.171706    11.00000   -1.20000 
AFIX   0 
C14   1    0.689124    0.177307    0.130770    11.00000    0.01975    0.04062 = 
         0.02104    0.00084    0.00464   -0.00174 
AFIX  43 
H14   2    0.813183    0.205718    0.109516    11.00000   -1.20000 
AFIX   0 
C15   1    0.644898    0.048341    0.125431    11.00000    0.02654    0.03472 = 
         0.01828    0.00059    0.00229    0.00931 
AFIX  43 
H15   2    0.738129   -0.011977    0.100427    11.00000   -1.20000 
AFIX   0 
C16   1    0.462704    0.006103    0.156816    11.00000    0.03109    0.02270 = 
         0.01794    0.00244   -0.00078    0.00164 
AFIX  43 
H16   2    0.432705   -0.083080    0.154574    11.00000   -1.20000 
AFIX   0 
C17   1    0.325585    0.094606    0.191276    11.00000    0.02142    0.02234 = 
         0.01513    0.00324   -0.00034   -0.00268 
AFIX  43 
H17   2    0.200954    0.065961    0.211088    11.00000   -1.20000 
AFIX   0 
HKLF 4 
  
REM  E426 in P2(1) 
REM R1 =  0.0139 for    3459 Fo > 4sig(Fo)  and  0.0141 for all    3510 data 
REM    181 parameters refined using      1 restraints 
  
END 
  
WGHT      0.0140      0.0785 
  
REM Highest difference peak  0.264,  deepest hole -0.207,  1-sigma level  0.039 
Q1    1   0.4612  0.3490  0.2999  11.00000  0.05    0.26 
Q2    1   0.1564  0.3375  0.4687  11.00000  0.05    0.22 
Q3    1   0.1827  0.3278  0.6001  11.00000  0.05    0.19 
Q4    1   0.2502  0.5356  0.5153  11.00000  0.05    0.18 
Q5    1   0.0610  0.2848  0.6727  11.00000  0.05    0.18 
Q6    1   0.6257  0.2121  0.1503  11.00000  0.05    0.18 
Q7    1  -0.0026  0.1957  0.8412  11.00000  0.05    0.17 
Q8    1   0.3522  0.1528  0.1826  11.00000  0.05    0.17 
Q9    1   0.3053  0.3521  0.5238  11.00000  0.05    0.16 
Q10   1  -0.0363  0.2767  0.7539  11.00000  0.05    0.16 
Q11   1   0.4777  0.2360  0.1902  11.00000  0.05    0.16 
Q12   1   0.2256  0.2586  0.6969  11.00000  0.05    0.16 
Q13   1   0.1772  0.4242  0.5345  11.00000  0.05    0.15 
Q14   1   0.2784  0.1943  0.7899  11.00000  0.05    0.15 
Q15   1   0.6604  0.0054  0.2759  11.00000  0.05    0.15 
Q16   1   0.6482  0.1221  0.1210  11.00000  0.05    0.15 
Q17   1   0.5359  0.0365  0.1266  11.00000  0.05    0.15 
Q18   1   0.7734 -0.1469 -0.0102  11.00000  0.05    0.15 
Q19   1  -0.0658  0.3466  0.9433  11.00000  0.05    0.15 
Q20   1   0.1331  0.3404  0.1601  11.00000  0.05    0.14 
;
_shelx_res_checksum              81511
_shelx_hkl_file
; 
  -1   0   0    0.10    0.05 
   1   0   0    0.24    0.05 
  -1   0   0    0.18    0.04 
  -1   0   0    0.24    0.04 
  -1   0   0    0.14    0.04 
   2   0   0  112.18    6.12 
   2   0   0  110.37    6.11 
  -2   0   0  117.06    6.14 
  -2   0   0  109.74    6.09 
   2   0   0  109.91    6.15 
  -2   0   0  109.16    6.13 
  -2   0   0  109.01    6.09 
  -2   0   0  117.33    6.12 
   2   0   0  107.51    6.10 
   3   0   0   60.51    3.37 
  -3   0   0   62.24    3.35 
  -3   0   0   63.34    3.36 
  -3   0   0   60.87    3.37 
   3   0   0   61.04    3.35 
   3   0   0   59.24    3.34 
   3   0   0   60.07    3.35 
  -3   0   0   63.40    3.35 
   3   0   0   60.04    3.37 
  -3   0   0   57.45    3.37 
   4   0   0   38.75    2.14 
  -4   0   0   38.34    2.17 
   4   0   0   39.19    2.15 
  -4   0   0   39.20    2.15 
   4   0   0   38.01    2.17 
   4   0   0   37.13    2.17 
   4   0   0   39.05    2.13 
  -4   0   0   37.36    2.15 
  -4   0   0   38.46    2.14 
   5   0   0   29.41    1.64 
  -5   0   0   29.19    1.66 
  -5   0   0   29.55    1.66 
   5   0   0   30.25    1.64 
   5   0   0   30.22    1.70 
   5   0   0   29.52    1.70 
   5   0   0   29.59    1.66 
  -5   0   0   30.33    1.70 
   5   0   0   29.71    1.66 
  -5   0   0   25.15    1.69 
  -5   0   0   27.64    1.69 
   6   0   0   95.83    5.20 
   6   0   0   94.79    5.23 
   6   0   0   96.36    5.28 
  -6   0   0   95.18    5.23 
   6   0   0   94.22    5.23 
  -6   0   0   91.61    5.27 
   6   0   0   92.96    5.19 
   6   0   0   95.53    5.20 
  -6   0   0   94.78    5.24 
  -6   0   0   94.39    5.22 
  -6   0   0   95.46    5.27 
  -7   0   0    1.35    0.21 
  -7   0   0    1.39    0.44 
  -7   0   0    1.37    0.26 
   7   0   0    1.49    0.25 
   7   0   0    1.29    0.24 
   7   0   0    1.52    0.21 
   7   0   0    1.53    0.26 
   7   0   0    1.46    0.24 
   7   0   0    1.54    0.38 
  -7   0   0    1.45    0.28 
  -7   0   0    1.59    0.28 
   7   0   0    1.68    0.25 
  -8   0   0   37.58    2.24 
   8   0   0   38.55    2.23 
   8   0   0   38.95    2.15 
  -8   0   0   37.98    2.27 
   8   0   0   37.97    2.15 
   8   0   0   37.38    2.22 
   8   0   0   38.63    2.16 
  -8   0   0   38.57    2.22 
  -8   0   0   37.76    2.26 
  -9   0   0    4.12    0.56 
  -9   0   0    4.17    0.66 
  -9   0   0    4.47    0.57 
   0  -1   0   -0.30    0.02 
   1  -1   0  573.47   30.86 
  -1  -1   0  538.84   30.87 
  -1  -1   0  586.69   30.87 
   1  -1   0  588.11   30.94 
   1  -1   0  575.32   30.87 
  -1   1   0  544.82   30.93 
  -1   1   0  578.10   30.86 
  -1   1   0  574.26   30.87 
   1   1   0  549.03   30.88 
  -1   1   0  541.08   30.84 
   1   1   0  573.75   30.87 
  -2  -1   0  212.16   11.78 
   2  -1   0  206.42   11.77 
   2  -1   0  202.49   11.80 
  -2  -1   0  211.65   11.85 
  -2  -1   0  211.85   11.77 
   2  -1   0  203.31   11.79 
   2  -1   0  221.16   11.89 
   2  -1   0  210.43   11.82 
  -2  -1   0  209.79   11.78 
  -2  -1   0  203.83   11.80 
  -2   1   0  218.55   11.79 
  -2   1   0  219.76   11.88 
  -2   1   0  224.71   11.82 
  -2   1   0  225.07   11.89 
  -2   1   0  228.11   11.84 
   2   1   0  210.31   11.81 
   2   1   0  220.86   11.78 
   2   1   0  216.20   11.76 
   2   1   0  227.11   11.88 
   2   1   0  219.00   11.79 
   3  -1   0   11.16    0.65 
  -3  -1   0   11.59    0.67 
   3  -1   0   11.55    0.68 
  -3  -1   0   11.79    0.66 
  -3  -1   0   11.73    0.63 
   3  -1   0   11.66    0.65 
  -3  -1   0   11.82    0.64 
   3  -1   0   11.78    0.64 
  -3  -1   0   11.75    0.64 
   3  -1   0   11.44    0.66 
  -3   1   0    9.51    0.66 
   3   1   0   10.57    0.64 
  -3   1   0   10.26    0.65 
   3   1   0   10.06    0.66 
   3   1   0   10.48    0.62 
   3   1   0   10.55    0.67 
   3   1   0   10.90    0.64 
  -3   1   0   10.12    0.67 
  -3   1   0    9.95    0.64 
  -3   1   0   10.57    0.65 
  -4  -1   0  216.25   12.36 
   4  -1   0  226.41   12.34 
  -4  -1   0  224.24   12.44 
  -4  -1   0  222.13   12.32 
   4  -1   0  226.72   12.36 
  -4  -1   0  224.34   12.38 
  -4  -1   0  229.49   12.33 
   4  -1   0  220.03   12.40 
   4  -1   0  222.69   12.34 
   4  -1   0  225.60   12.37 
   4   1   0  227.97   12.40 
  -4   1   0  220.98   12.36 
   4   1   0  225.66   12.36 
   4   1   0  229.60   12.36 
   4   1   0  226.78   12.33 
  -4   1   0  220.96   12.33 
  -4   1   0  235.72   12.35 
   4   1   0  218.55   12.33 
   4   1   0  239.83   12.37 
  -4   1   0  229.79   12.34 
  -4   1   0  233.21   12.42 
   5  -1   0   58.62    3.41 
   5  -1   0   57.61    3.40 
  -5  -1   0   61.36    3.36 
  -5  -1   0   58.54    3.39 
  -5  -1   0   60.66    3.37 
   5  -1   0   58.55    3.35 
  -5  -1   0   59.73    3.40 
   5  -1   0   58.89    3.38 
  -5  -1   0   59.19    3.37 
   5  -1   0   58.77    3.37 
   5   1   0   63.12    3.37 
   5   1   0   62.06    3.40 
   5   1   0   60.53    3.41 
   5   1   0   63.20    3.37 
  -5   1   0   62.48    3.37 
  -5   1   0   62.66    3.38 
   5   1   0   62.44    3.34 
  -5   1   0   62.90    3.41 
  -5   1   0   59.67    3.41 
  -5   1   0   60.98    3.38 
   5   1   0   63.60    3.36 
   6  -1   0   12.80    0.83 
   6  -1   0   13.54    0.83 
   6  -1   0   13.34    0.87 
  -6  -1   0   13.20    0.84 
   6  -1   0   12.86    0.88 
   6  -1   0   13.49    0.86 
  -6  -1   0   13.48    0.86 
  -6  -1   0   13.25    0.88 
  -6  -1   0   11.87    0.91 
   6  -1   0   13.67    0.80 
  -6  -1   0   13.46    0.85 
  -6   1   0   14.12    0.85 
  -6   1   0   14.11    0.87 
   6   1   0   14.89    0.81 
  -6   1   0   13.38    0.96 
  -6   1   0   14.43    0.88 
   6   1   0   14.55    0.83 
   6   1   0   14.74    0.85 
  -6   1   0   14.40    0.90 
   6   1   0   14.51    0.89 
   6   1   0   14.70    0.82 
   7  -1   0   14.91    0.98 
   7  -1   0   15.10    0.96 
  -7  -1   0   15.65    1.02 
  -7  -1   0   14.58    0.98 
  -7  -1   0   15.49    1.05 
   7  -1   0   15.64    0.93 
  -7  -1   0   15.60    1.00 
   7  -1   0   15.54    1.03 
  -7  -1   0   14.79    1.03 
  -7   1   0   16.61    1.03 
   7   1   0   16.81    1.05 
   7   1   0   15.20    1.05 
  -7   1   0   16.94    1.07 
  -7   1   0   16.82    1.04 
  -7   1   0   16.00    0.98 
   7   1   0   17.18    0.95 
   7   1   0   17.22    0.94 
  -7   1   0   17.18    1.07 
   7   1   0   16.90    1.00 
   7   1   0   16.97    0.97 
  -8  -1   0    9.46    0.72 
  -8  -1   0    8.53    0.73 
  -8  -1   0    9.25    0.70 
   8  -1   0    8.79    0.66 
  -8  -1   0    8.73    0.73 
   8  -1   0    9.25    0.63 
   8  -1   0    8.99    0.74 
   8  -1   0    9.13    0.75 
   8   1   0    8.83    0.59 
   8   1   0    8.59    0.63 
  -8   1   0    8.75    0.73 
  -8   1   0    9.35    0.75 
   8   1   0    8.66    0.73 
  -8   1   0    8.94    0.71 
   8   1   0    8.06    0.70 
   8   1   0    9.44    0.58 
  -8   1   0    8.93    0.76 
  -9  -1   0    8.76    0.77 
  -9  -1   0    8.22    0.79 
  -9   1   0    8.04    0.77 
  -9   1   0    7.98    0.81 
  -9   1   0    8.81    0.76 
   0  -2   0  269.51   14.16 
   0  -2   0  287.98   14.13 
   0  -2   0  287.47   14.11 
   0  -2   0  250.56   14.11 
   0  -2   0  272.93   14.13 
   0  -2   0  262.04   14.18 
   0   2   0  244.38   14.17 
   0   2   0  232.24   14.16 
   0   2   0  236.63   14.12 
   0   2   0  238.44   14.08 
  -1  -2   0  201.76   10.07 
   1  -2   0  192.69   10.12 
   1  -2   0  201.95   10.21 
  -1  -2   0  193.34   10.11 
  -1  -2   0  186.01   10.13 
   1  -2   0  195.72   10.13 
  -1  -2   0  200.90   10.17 
  -1  -2   0  191.38   10.09 
   1  -2   0  193.86   10.10 
   1  -2   0  187.13   10.09 
  -1   2   0  181.12   10.10 
   1   2   0  173.18   10.09 
  -1   2   0  165.12   10.07 
  -1   2   0  168.44   10.08 
   1   2   0  170.78   10.08 
  -1   2   0  176.92   10.12 
   1   2   0  168.74   10.07 
   1   2   0  167.67   10.11 
  -1   2   0  181.51   10.19 
   1   2   0  184.46   10.05 
   2  -2   0    7.62    0.47 
   2  -2   0    7.48    0.45 
   2  -2   0    8.07    0.46 
  -2  -2   0    7.77    0.43 
  -2  -2   0    8.09    0.46 
  -2  -2   0    7.90    0.43 
  -2  -2   0    7.67    0.44 
  -2  -2   0    7.77    0.43 
   2  -2   0    7.77    0.44 
  -2   2   0    7.06    0.45 
  -2   2   0    7.09    0.45 
  -2   2   0    6.97    0.44 
   2   2   0    6.94    0.43 
   2   2   0    7.15    0.42 
   2   2   0    7.30    0.45 
   2   2   0    7.03    0.44 
   2   2   0    7.36    0.45 
   3  -2   0  399.83   21.94 
  -3  -2   0  402.98   22.00 
   3  -2   0  388.35   21.92 
   3  -2   0  411.16   21.97 
  -3  -2   0  390.82   21.93 
  -3  -2   0  397.67   21.90 
  -3  -2   0  392.32   21.84 
  -3  -2   0  384.07   21.86 
   3  -2   0  406.22   21.96 
   3  -2   0  403.33   22.06 
   3   2   0  384.26   21.89 
   3   2   0  409.99   21.85 
  -3   2   0  391.00   21.93 
  -3   2   0  427.14   21.95 
  -3   2   0  391.85   21.85 
   3   2   0  399.43   21.92 
   3   2   0  409.73   21.90 
   3   2   0  405.34   21.80 
  -3   2   0  410.16   22.08 
  -3   2   0  389.19   21.85 
  -4  -2   0    3.28    0.24 
  -4  -2   0    3.31    0.25 
   4  -2   0    3.50    0.29 
   4  -2   0    3.38    0.28 
  -4  -2   0    3.29    0.25 
  -4  -2   0    3.70    0.28 
   4  -2   0    3.19    0.31 
   4  -2   0    3.30    0.26 
  -4  -2   0    3.53    0.30 
   4  -2   0    3.44    0.28 
  -4   2   0    3.22    0.32 
  -4   2   0    2.95    0.25 
   4   2   0    3.30    0.27 
   4   2   0    3.19    0.24 
   4   2   0    3.06    0.29 
   4   2   0    3.19    0.22 
   4   2   0    3.47    0.28 
  -4   2   0    3.36    0.30 
  -4   2   0    3.40    0.28 
  -4   2   0    3.41    0.28 
   5  -2   0  118.23    6.46 
  -5  -2   0  114.04    6.48 
  -5  -2   0  116.91    6.43 
   5  -2   0  118.69    6.44 
  -5  -2   0  119.46    6.43 
  -5  -2   0  117.64    6.44 
   5  -2   0  115.51    6.50 
   5  -2   0  116.79    6.46 
  -5  -2   0  118.69    6.47 
  -5   2   0  114.82    6.48 
  -5   2   0  112.71    6.44 
  -5   2   0  116.11    6.46 
   5   2   0  123.77    6.49 
   5   2   0  116.46    6.40 
   5   2   0  120.56    6.47 
  -5   2   0  117.18    6.50 
   5   2   0  118.36    6.43 
  -5   2   0  116.97    6.46 
   5   2   0  116.36    6.41 
   5   2   0  117.46    6.44 
   6  -2   0   26.50    1.65 
   6  -2   0   27.16    1.69 
   6  -2   0   26.55    1.68 
   6  -2   0   27.12    1.66 
  -6  -2   0   26.27    1.66 
  -6  -2   0   26.64    1.69 
  -6  -2   0   26.75    1.65 
   6  -2   0   26.92    1.61 
  -6  -2   0   26.39    1.65 
  -6   2   0   36.36    1.74 
  -6   2   0   32.31    1.83 
  -6   2   0   36.25    1.69 
   6   2   0   33.07    1.70 
  -7  -2   0    4.82    0.45 
   7  -2   0    4.85    0.42 
   7  -2   0    4.14    0.52 
   7  -2   0    4.36    0.43 
  -7  -2   0    4.41    0.49 
  -7  -2   0    4.84    0.47 
  -7  -2   0    4.79    0.44 
  -7  -2   0    4.73    0.41 
   7  -2   0    4.80    0.50 
   7   2   0    4.87    0.33 
  -7   2   0    4.44    0.49 
   7   2   0    4.75    0.46 
  -7   2   0    4.88    0.40 
   7   2   0    4.86    0.43 
   7   2   0    4.83    0.34 
  -7   2   0    5.11    0.52 
  -7   2   0    4.89    0.48 
  -7   2   0    4.96    0.51 
   7   2   0    5.14    0.43 
   8  -2   0   16.86    1.20 
   8  -2   0   21.06    1.21 
   8  -2   0   20.72    1.29 
  -8  -2   0   21.37    1.27 
  -8  -2   0   21.91    1.25 
  -8  -2   0   20.69    1.29 
  -8  -2   0   21.39    1.28 
  -8  -2   0   20.26    1.32 
  -8   2   0   17.75    1.25 
   8   2   0   18.60    1.21 
  -8   2   0   18.95    1.30 
  -8   2   0   18.48    1.29 
  -8   2   0   18.72    1.30 
  -9  -2   0    8.61    0.74 
   9  -2   0    8.36    0.70 
  -9   2   0    7.50    0.80 
  -9   2   0    7.45    0.78 
   0  -3   0   -0.27    0.05 
   0  -3   0   -0.26    0.03 
   0  -3   0   -0.20    0.03 
   0  -3   0   -0.29    0.03 
   0   3   0   -0.21    0.03 
   0   3   0   -0.28    0.03 
   0   3   0   -0.29    0.05 
   0   3   0   -0.22    0.05 
  -1  -3   0  185.80   10.04 
   1  -3   0  181.22    9.96 
  -1  -3   0  199.16   10.07 
   1  -3   0  184.48    9.97 
   1  -3   0  180.11    9.95 
   1  -3   0  198.53   10.11 
  -1  -3   0  186.46   10.01 
  -1  -3   0  197.30    9.98 
  -1  -3   0  186.17    9.98 
   1  -3   0  190.18   10.02 
  -1   3   0  173.83   10.04 
  -1   3   0  172.74    9.99 
   1   3   0  176.00    9.98 
  -1   3   0  172.19    9.96 
   1   3   0  176.45    9.94 
   1   3   0  166.95    9.99 
  -1   3   0  182.77   10.02 
   1   3   0  168.46   10.00 
  -2  -3   0   80.64    4.83 
  -2  -3   0   83.18    4.86 
   2  -3   0   81.33    4.84 
   2  -3   0   83.89    4.88 
   2  -3   0   83.51    4.86 
   2  -3   0   79.01    4.85 
  -2  -3   0   82.78    4.83 
  -2  -3   0   81.81    4.85 
   2  -3   0   81.40    4.85 
  -2  -3   0   79.87    4.85 
  -2  -3   0   80.94    4.84 
   2   3   0   94.43    4.89 
   2   3   0   97.73    4.86 
  -2   3   0   97.35    4.86 
   2   3   0   98.06    4.83 
   2   3   0   99.16    4.87 
  -2   3   0   91.81    4.86 
  -2   3   0   98.07    4.86 
  -2   3   0   93.18    4.85 
   2   3   0   96.20    4.83 
   2   3   0   94.23    4.87 
  -2   3   0   90.82    4.88 
   3  -3   0    3.71    0.31 
  -3  -3   0    3.82    0.23 
   3  -3   0    3.62    0.28 
   3  -3   0    3.65    0.29 
  -3  -3   0    3.51    0.25 
  -3  -3   0    3.04    0.24 
  -3  -3   0    3.61    0.28 
  -3  -3   0    3.03    0.26 
  -3   3   0    3.88    0.32 
  -3   3   0    3.54    0.26 
   3   3   0    3.57    0.26 
   3   3   0    4.13    0.29 
  -3   3   0    3.82    0.28 
  -3   3   0    4.06    0.29 
   3   3   0    3.24    0.24 
  -3   3   0    4.23    0.29 
   3   3   0    3.61    0.28 
   3   3   0    4.02    0.23 
  -4  -3   0  170.99    9.32 
  -4  -3   0  165.29    9.33 
  -4  -3   0  169.22    9.35 
   4  -3   0  167.89    9.38 
  -4  -3   0  167.40    9.31 
   4  -3   0  167.51    9.32 
  -4  -3   0  164.83    9.31 
   4  -3   0  175.81    9.34 
  -4   3   0  167.56    9.34 
   4   3   0  175.05    9.36 
  -4   3   0  170.56    9.34 
   4   3   0  172.35    9.34 
   4   3   0  172.21    9.30 
   4   3   0  172.35    9.34 
   4   3   0  167.78    9.31 
  -4   3   0  175.41    9.38 
   4   3   0  175.24    9.29 
  -4   3   0  172.40    9.34 
  -5  -3   0   54.02    2.76 
  -5  -3   0   55.29    2.74 
   5  -3   0   54.49    2.75 
   5  -3   0   55.24    2.80 
  -5  -3   0   53.71    2.71 
  -5  -3   0   55.06    2.70 
   5  -3   0   54.72    2.75 
  -5  -3   0   54.15    2.71 
   5  -3   0   54.98    2.72 
   5  -3   0   54.23    2.73 
   5   3   0   43.27    2.73 
   5   3   0   44.15    2.75 
  -5   3   0   43.95    2.73 
  -5   3   0   41.79    2.72 
   5   3   0   41.13    2.69 
  -5   3   0   42.02    2.73 
  -5   3   0   42.97    2.77 
   5   3   0   41.76    2.71 
   5   3   0   42.56    2.69 
   5   3   0   43.44    2.66 
  -6  -3   0    5.02    0.56 
  -6  -3   0    4.69    0.40 
  -6  -3   0    4.76    0.42 
   6  -3   0    5.23    0.43 
   6  -3   0    5.15    0.48 
   6  -3   0    4.91    0.48 
  -6  -3   0    5.07    0.40 
  -6  -3   0    4.59    0.47 
   6  -3   0    4.51    0.45 
   6  -3   0    5.04    0.42 
   6   3   0    5.99    0.48 
  -6   3   0    5.85    0.48 
   6   3   0    5.78    0.40 
   6   3   0    6.04    0.45 
   6   3   0    5.68    0.40 
  -6   3   0    5.68    0.52 
  -6   3   0    6.13    0.49 
   6   3   0    5.86    0.46 
  -6   3   0    6.08    0.42 
  -7  -3   0   37.30    2.19 
  -7  -3   0   37.55    2.18 
  -7  -3   0   39.05    2.17 
   7  -3   0   37.57    2.23 
  -7  -3   0   37.15    2.24 
   7  -3   0   36.28    2.19 
   7  -3   0   37.45    2.22 
  -7  -3   0   38.25    2.22 
   7  -3   0   37.70    2.27 
   7  -3   0   36.09    2.18 
  -7   3   0   38.87    2.19 
   7   3   0   39.79    2.20 
   7   3   0   38.19    2.17 
   7   3   0   39.74    2.17 
  -7   3   0   38.43    2.27 
  -7   3   0   38.42    2.22 
  -7   3   0   39.38    2.25 
   7   3   0   40.42    2.24 
  -7   3   0   39.40    2.24 
   7   3   0   37.26    2.25 
   8  -3   0    0.47    0.27 
   8  -3   0    0.37    0.33 
  -8  -3   0    0.24    0.25 
  -8  -3   0    0.73    0.25 
   8  -3   0    0.57    0.24 
  -8  -3   0    0.47    0.26 
  -8   3   0    1.08    0.36 
   8   3   0    1.14    0.27 
  -8   3   0    1.27    0.32 
  -8   3   0    1.10    0.28 
   0  -4   0  146.78    7.19 
   0  -4   0  145.19    7.15 
   0  -4   0  141.07    7.13 
   0  -4   0  141.27    7.16 
   0  -4   0  148.90    7.13 
   0   4   0  113.90    7.14 
   0   4   0  114.94    7.14 
   0   4   0  111.80    7.14 
   0   4   0  110.49    7.14 
   1  -4   0   50.17    2.69 
   1  -4   0   49.09    2.70 
  -1  -4   0   51.85    2.72 
  -1  -4   0   50.27    2.68 
   1  -4   0   48.87    2.69 
   1  -4   0   49.43    2.70 
   1  -4   0   48.58    2.69 
  -1  -4   0   51.36    2.68 
  -1  -4   0   49.76    2.68 
  -1  -4   0   49.68    2.70 
  -1  -4   0   50.63    2.66 
   1   4   0   44.01    2.71 
  -1   4   0   46.74    2.69 
  -1   4   0   47.34    2.69 
   1   4   0   47.45    2.69 
   1   4   0   47.55    2.69 
  -1   4   0   47.83    2.69 
   1   4   0   48.65    2.69 
  -1   4   0   48.13    2.72 
  -2  -4   0  103.67    5.75 
  -2  -4   0   97.74    5.74 
  -2  -4   0  102.55    5.76 
   2  -4   0   98.61    5.75 
   2  -4   0  105.08    5.78 
   2  -4   0   98.12    5.74 
  -2  -4   0  101.47    5.72 
   2  -4   0  100.86    5.74 
   2  -4   0  100.06    5.75 
  -2  -4   0   99.07    5.73 
   2   4   0  109.17    5.73 
   2   4   0  112.17    5.75 
  -2   4   0  107.57    5.75 
  -2   4   0  108.80    5.74 
  -2   4   0  110.74    5.79 
   2   4   0  112.67    5.77 
   2   4   0  108.31    5.75 
  -2   4   0  110.57    5.74 
  -2   4   0  106.91    5.76 
   3  -4   0   99.18    5.36 
  -3  -4   0  104.60    5.30 
  -3  -4   0   99.18    5.34 
  -3  -4   0  103.17    5.32 
  -3  -4   0  100.56    5.33 
   3  -4   0  102.83    5.33 
   3  -4   0  100.25    5.35 
   3  -4   0  104.72    5.39 
   3  -4   0  103.51    5.36 
  -3  -4   0  100.88    5.36 
  -3   4   0   89.70    5.35 
  -3   4   0   94.65    5.35 
   3   4   0   94.89    5.36 
   3   4   0   94.05    5.36 
   3   4   0   93.04    5.32 
  -3   4   0   92.21    5.35 
  -3   4   0   91.65    5.34 
  -3   4   0   91.07    5.38 
   3   4   0   92.71    5.34 
   3   4   0   93.48    5.30 
  -4  -4   0   17.08    0.95 
   4  -4   0   17.08    0.89 
  -4  -4   0   17.42    0.88 
   4  -4   0   16.17    0.94 
  -4  -4   0   16.80    0.93 
   4  -4   0   16.71    0.94 
  -4  -4   0   16.81    0.90 
  -4  -4   0   16.80    0.90 
   4  -4   0   16.28    0.92 
   4  -4   0   16.84    0.98 
  -4   4   0   14.29    0.97 
  -4   4   0   14.11    0.91 
  -4   4   0   14.27    0.93 
   4   4   0   14.03    0.89 
  -4   4   0   14.50    0.94 
   4   4   0   14.18    0.87 
  -4   4   0   13.99    0.93 
   4   4   0   14.25    0.93 
   4   4   0   13.22    0.94 
  -5  -4   0  109.48    5.97 
   5  -4   0  111.31    6.00 
   5  -4   0  110.68    5.99 
   5  -4   0  111.58    6.01 
   5  -4   0  110.12    6.06 
  -5  -4   0  112.46    5.95 
   5  -4   0  108.55    5.94 
  -5  -4   0  105.98    5.99 
  -5  -4   0  112.64    6.02 
   5  -4   0  108.05    6.01 
  -5  -4   0  111.41    5.97 
   5   4   0  109.54    6.01 
  -5   4   0  108.64    5.99 
   5   4   0  107.87    6.00 
   5   4   0  107.41    6.03 
   5   4   0  102.92    5.96 
   5   4   0  106.44    5.95 
  -5   4   0  110.12    6.01 
  -5   4   0  106.84    6.01 
  -5   4   0  108.14    6.01 
  -5   4   0  104.36    6.05 
   6  -4   0   25.20    1.31 
  -6  -4   0   23.76    1.31 
  -6  -4   0   24.46    1.28 
   6  -4   0   24.93    1.39 
  -6  -4   0   24.76    1.35 
  -6  -4   0   24.28    1.29 
   6  -4   0   24.51    1.30 
   6  -4   0   25.69    1.35 
  -6   4   0   18.73    1.31 
   6   4   0   18.87    1.30 
  -6   4   0   18.46    1.35 
  -6   4   0   18.18    1.31 
   6   4   0   18.99    1.30 
   6   4   0   18.41    1.24 
  -6   4   0   18.42    1.31 
   7  -4   0    0.70    0.21 
  -7  -4   0    0.51    0.19 
   7  -4   0    0.52    0.28 
  -7  -4   0    0.60    0.24 
  -7  -4   0    0.57    0.21 
   7  -4   0    0.42    0.25 
  -7  -4   0    0.55    0.20 
  -7   4   0    0.64    0.24 
  -7   4   0    0.63    0.26 
   7   4   0    0.53    0.26 
   7   4   0    0.72    0.25 
  -7   4   0    0.61    0.24 
   7   4   0    0.32    0.17 
   7   4   0    0.72    0.22 
   7   4   0    0.41    0.19 
   8  -4   0   18.07    1.28 
  -8  -4   0   17.69    1.25 
   8  -4   0   18.35    1.29 
   8  -4   0   19.03    1.20 
  -8  -4   0   18.52    1.21 
  -8  -4   0   18.35    1.31 
   8   4   0   19.19    1.16 
  -8   4   0   20.33    1.28 
  -8   4   0   19.00    1.24 
  -8   4   0   19.80    1.31 
  -8   4   0   19.75    1.53 
   0  -5   0    0.03    0.06 
   0  -5   0   -0.01    0.06 
   0  -5   0    0.11    0.07 
   0  -5   0    0.02    0.05 
   0  -5   0    0.07    0.08 
   0  -5   0    0.16    0.06 
   0   5   0    0.01    0.07 
   0   5   0    0.01    0.08 
   0   5   0    0.01    0.04 
   0   5   0    0.01    0.08 
   1  -5   0  284.44   15.46 
  -1  -5   0  285.43   15.50 
  -1  -5   0  278.13   15.49 
   1  -5   0  285.07   15.53 
   1  -5   0  281.04   15.45 
  -1  -5   0  278.26   15.46 
  -1  -5   0  293.62   15.47 
  -1  -5   0  279.00   15.44 
   1  -5   0  272.49   15.47 
   1  -5   0  288.16   15.48 
   1  -5   0  296.53   15.49 
  -1  -5   0  292.99   15.39 
  -1  -5   0  293.10   15.47 
  -1   5   0  271.42   15.47 
   1   5   0  266.52   15.50 
   1   5   0  270.70   15.49 
   1   5   0  286.46   15.45 
   1   5   0  275.52   15.51 
  -1   5   0  281.97   15.47 
  -1   5   0  285.54   15.59 
  -1   5   0  279.89   15.48 
  -2  -5   0   92.22    4.61 
  -2  -5   0   90.25    4.58 
   2  -5   0   91.44    4.58 
   2  -5   0   95.91    4.58 
  -2  -5   0   92.07    4.58 
   2  -5   0   93.35    4.59 
  -2  -5   0   91.91    4.56 
   2  -5   0   92.42    4.60 
   2  -5   0   93.79    4.63 
  -2  -5   0   94.93    4.56 
  -2   5   0   76.74    4.58 
  -2   5   0   71.25    4.57 
   2   5   0   71.27    4.59 
  -2   5   0   72.35    4.56 
   2   5   0   71.75    4.55 
  -2   5   0   72.49    4.61 
   2   5   0   73.42    4.57 
  -2   5   0   72.75    4.57 
   2   5   0   72.52    4.57 
  -3  -5   0    0.22    0.11 
   3  -5   0    0.22    0.18 
   3  -5   0    0.12    0.11 
   3  -5   0    0.24    0.10 
  -3  -5   0    0.22    0.07 
   3  -5   0    0.07    0.12 
   3  -5   0    0.07    0.08 
  -3  -5   0    0.20    0.09 
   3  -5   0    0.24    0.09 
  -3   5   0    0.16    0.09 
   3   5   0    0.09    0.07 
  -3   5   0    0.11    0.09 
  -3   5   0    0.14    0.14 
  -3   5   0    0.09    0.09 
  -3   5   0    0.08    0.11 
   3   5   0    0.11    0.10 
   3   5   0    0.10    0.11 
  -4  -5   0   82.86    4.40 
   4  -5   0   81.46    4.39 
   4  -5   0   80.78    4.40 
   4  -5   0   82.25    4.44 
  -4  -5   0   73.92    4.37 
   4  -5   0   81.61    4.35 
  -4  -5   0   79.44    4.37 
  -4  -5   0   81.74    4.35 
   4  -5   0   80.18    4.40 
   4  -5   0   80.35    4.38 
  -4   5   0   76.22    4.39 
  -4   5   0   77.44    4.38 
  -4   5   0   78.92    4.44 
  -4   5   0   78.04    4.38 
   4   5   0   77.91    4.37 
   4   5   0   78.76    4.40 
   4   5   0   78.15    4.35 
  -4   5   0   76.57    4.39 
   4   5   0   78.26    4.40 
   5   5   0    7.36    0.45 
   5   5   0    7.57    0.49 
  -5   5   0    7.18    0.62 
  -5   5   0    7.63    0.57 
   5   5   0    7.64    0.52 
   5   5   0    7.85    0.56 
  -5   5   0    7.90    0.56 
   5   5   0    7.48    0.56 
  -5   5   0    7.59    0.57 
   6  -5   0   23.77    1.58 
  -6  -5   0   25.68    1.54 
  -6  -5   0   24.58    1.51 
   6  -5   0   24.56    1.55 
   6  -5   0   25.99    1.51 
  -6  -5   0   24.19    1.49 
  -6  -5   0   24.47    1.48 
  -6   5   0   26.02    1.54 
   6   5   0   26.56    1.47 
  -6   5   0   26.48    1.55 
   6   5   0   26.35    1.44 
  -6   5   0   26.99    1.61 
  -6   5   0   26.08    1.54 
   6   5   0   25.02    1.56 
   6   5   0   27.72    1.54 
  -7  -5   0   27.17    1.71 
  -7  -5   0   27.16    1.77 
  -7  -5   0   27.44    1.73 
   7  -5   0   28.55    1.74 
   7  -5   0   28.79    1.79 
  -7  -5   0   28.91    1.74 
   7  -5   0   29.32    1.74 
   7   5   0   30.39    1.77 
  -7   5   0   29.59    1.77 
   7   5   0   31.53    1.77 
  -7   5   0   31.64    1.81 
   7   5   0   30.46    1.67 
  -7   5   0   30.93    1.85 
   7   5   0   29.83    1.70 
  -7   5   0   30.42    1.78 
   8  -5   0    1.57    0.44 
  -8  -5   0    1.18    0.31 
  -8  -5   0    1.32    0.30 
   8  -5   0    1.23    0.30 
   8   5   0    1.02    0.35 
  -8   5   0    0.48    0.28 
  -8   5   0    0.40    0.32 
   0  -6   0  218.69   11.65 
   0  -6   0  225.60   11.64 
   0  -6   0  219.38   11.61 
   0  -6   0  208.54   11.64 
   0  -6   0  215.36   11.64 
   0  -6   0  219.69   11.62 
   0   6   0  207.76   11.64 
   0   6   0  206.03   11.62 
   0   6   0  204.76   11.66 
   0   6   0  202.83   11.64 
  -1  -6   0   17.48    0.93 
  -1  -6   0   16.82    0.88 
   1  -6   0   16.45    0.89 
  -1  -6   0   16.76    0.85 
   1  -6   0   16.34    0.90 
  -1  -6   0   16.43    0.87 
   1  -6   0   16.86    0.89 
   1  -6   0   16.71    0.93 
  -1  -6   0   16.55    0.88 
   1  -6   0   16.14    0.91 
  -1  -6   0   16.62    0.88 
   1  -6   0   16.06    0.89 
  -1  -6   0   17.35    0.87 
   1   6   0   12.95    0.87 
   1   6   0   12.81    0.89 
   1   6   0   12.71    0.90 
  -1   6   0   12.58    0.87 
   1   6   0   12.37    0.91 
  -1   6   0   12.88    0.92 
  -1   6   0   12.61    0.88 
  -2  -6   0   64.88    3.61 
   2  -6   0   63.75    3.63 
   2  -6   0   62.54    3.63 
   2  -6   0   61.65    3.64 
  -2  -6   0   63.29    3.63 
   2  -6   0   63.84    3.63 
  -2  -6   0   62.61    3.61 
  -2  -6   0   63.08    3.61 
   2  -6   0   64.53    3.67 
   2  -6   0   63.00    3.63 
  -2   6   0   67.97    3.61 
  -2   6   0   67.20    3.64 
  -2   6   0   68.07    3.62 
   2   6   0   68.54    3.63 
  -2   6   0   66.32    3.68 
   2   6   0   69.31    3.63 
   2   6   0   68.96    3.67 
  -2   6   0   69.40    3.64 
   2   6   0   69.15    3.61 
   3  -6   0  111.37    5.82 
  -3  -6   0  102.79    5.78 
  -3  -6   0  109.58    5.80 
  -3  -6   0  111.40    5.78 
   3  -6   0  114.69    5.83 
   3  -6   0  113.99    5.82 
   3  -6   0  107.06    5.81 
   3  -6   0  113.25    5.80 
  -3  -6   0  108.06    5.80 
   3  -6   0  110.98    5.86 
   3   6   0  101.36    5.81 
  -3   6   0   99.02    5.79 
   3   6   0   94.72    5.83 
  -3   6   0   99.96    5.81 
  -3   6   0   99.80    5.81 
   3   6   0   97.14    5.77 
  -3   6   0  102.45    5.86 
  -3   6   0  102.22    5.79 
   4  -6   0    5.87    0.44 
   4  -6   0    6.11    0.54 
  -4  -6   0    6.28    0.49 
  -4  -6   0    5.98    0.43 
  -4  -6   0    5.69    0.44 
   4  -6   0    6.06    0.48 
   4  -6   0    6.13    0.51 
  -4  -6   0    6.06    0.46 
   4  -6   0    5.73    0.48 
   4  -6   0    6.08    0.49 
  -4   6   0    7.41    0.51 
  -4   6   0    7.49    0.59 
   4   6   0    7.98    0.44 
   4   6   0    7.95    0.54 
  -4   6   0    7.88    0.48 
  -4   6   0    7.51    0.49 
   4   6   0    7.71    0.51 
   4   6   0    7.97    0.48 
  -4   6   0    7.90    0.52 
  -5  -6   0   49.78    2.93 
   5  -6   0   52.16    2.91 
   5  -6   0   51.98    3.04 
   5  -6   0   51.16    2.98 
  -5  -6   0   51.35    2.95 
   5  -6   0   51.44    2.97 
  -5  -6   0   52.11    2.93 
   5  -6   0   51.18    2.96 
  -5  -6   0   52.31    2.98 
   5   6   0   54.06    2.99 
  -5   6   0   53.36    2.99 
  -5   6   0   54.34    3.05 
  -5   6   0   55.10    2.97 
   5   6   0   53.86    2.96 
   5   6   0   53.86    2.92 
   5   6   0   53.71    2.99 
  -5   6   0   53.24    2.98 
  -6  -6   0   16.19    0.96 
  -6  -6   0   16.16    0.94 
  -6  -6   0   16.03    1.01 
   6  -6   0   16.35    0.88 
   6  -6   0   15.97    0.97 
  -6  -6   0   16.16    0.95 
   6  -6   0   15.48    0.97 
   6  -6   0   16.29    1.04 
   6  -6   0   16.04    1.07 
  -6   6   0   13.47    1.01 
  -6   6   0   13.67    0.99 
  -6   6   0   14.12    0.99 
   6   6   0   13.83    0.91 
  -6   6   0   14.41    1.07 
   6   6   0   14.29    1.00 
  -7  -6   0    1.34    0.31 
   7  -6   0    1.17    0.27 
  -7  -6   0    1.40    0.26 
   7  -6   0    1.00    0.35 
  -7  -6   0    1.35    0.29 
  -7  -6   0    1.29    0.26 
  -7   6   0    1.06    0.27 
  -7   6   0    1.17    0.35 
  -7   6   0    1.23    0.33 
   7   6   0    1.47    0.24 
  -7   6   0    1.53    0.32 
   7   6   0    1.79    0.34 
   8  -6   0   18.37    1.24 
  -8  -6   0   18.23    1.29 
  -8  -6   0   17.73    1.21 
   8   6   0   19.60    1.30 
  -8   6   0   19.28    1.36 
  -8   6   0   19.76    1.28 
  -8   6   0   19.75    1.32 
   0  -7   0    0.22    0.08 
   0  -7   0    0.15    0.09 
   0  -7   0    0.19    0.09 
   0  -7   0    0.16    0.08 
   0  -7   0    0.18    0.09 
   0  -7   0    0.19    0.14 
   0   7   0    0.21    0.13 
   0   7   0    0.12    0.10 
   0   7   0    0.18    0.06 
   0   7   0    0.33    0.14 
   1  -7   0   71.63    4.14 
   1  -7   0   71.78    4.16 
   1  -7   0   73.01    4.14 
   1  -7   0   71.18    4.15 
  -1  -7   0   74.11    4.10 
  -1  -7   0   71.82    4.11 
   1  -7   0   72.36    4.18 
  -1  -7   0   72.63    4.13 
  -1  -7   0   71.35    4.12 
  -1  -7   0   70.88    4.17 
  -1  -7   0   70.47    4.13 
   1  -7   0   72.02    4.13 
  -1  -7   0   71.50    4.13 
  -1   7   0   79.98    4.20 
  -1   7   0   79.73    4.19 
   1   7   0   79.94    4.17 
   1   7   0   77.86    4.18 
  -1   7   0   81.32    4.14 
   1   7   0   79.93    4.12 
  -1   7   0   81.53    4.15 
  -1   7   0   80.19    4.10 
   1   7   0   76.86    4.17 
  -2  -7   0   49.23    2.49 
   2  -7   0   48.32    2.52 
  -2  -7   0   48.33    2.49 
   2  -7   0   50.03    2.52 
   2  -7   0   48.30    2.51 
  -2  -7   0   48.24    2.49 
   2  -7   0   51.04    2.52 
   2  -7   0   49.41    2.53 
  -2  -7   0   48.76    2.51 
  -2  -7   0   47.37    2.49 
   2  -7   0   50.91    2.57 
  -2  -7   0   47.56    2.55 
  -2   7   0   37.65    2.50 
  -2   7   0   38.93    2.50 
  -2   7   0   39.50    2.47 
   2   7   0   37.84    2.50 
   2   7   0   38.61    2.50 
   2   7   0   38.65    2.49 
   2   7   0   40.22    2.53 
  -2   7   0   37.38    2.54 
   3  -7   0    4.78    0.40 
   3  -7   0    4.61    0.39 
  -3  -7   0    4.93    0.36 
   3  -7   0    3.92    0.63 
   3  -7   0    5.22    0.44 
  -3  -7   0    4.73    0.39 
  -3  -7   0    5.03    0.39 
   3  -7   0    4.94    0.41 
   3  -7   0    4.84    0.39 
  -3  -7   0    5.01    0.37 
  -3   7   0    5.76    0.38 
  -3   7   0    5.84    0.43 
   3   7   0    5.64    0.45 
  -3   7   0    5.84    0.51 
  -3   7   0    6.15    0.42 
  -3   7   0    6.01    0.39 
   3   7   0    5.83    0.39 
   3   7   0    6.03    0.37 
   3   7   0    5.85    0.41 
  -4  -7   0  115.52    6.22 
   4  -7   0  117.72    6.27 
   4  -7   0  117.39    6.28 
   4  -7   0  120.32    6.33 
  -4  -7   0  115.78    6.25 
  -4  -7   0  116.79    6.25 
   4  -7   0  116.27    6.23 
   4  -7   0  104.69    6.35 
  -4  -7   0  119.93    6.22 
   4   7   0  111.10    6.27 
  -4   7   0  109.57    6.33 
  -4   7   0  111.24    6.24 
   4   7   0  109.17    6.21 
  -4   7   0  113.63    6.27 
   4   7   0  106.86    6.28 
  -4   7   0  110.74    6.24 
   4   7   0  111.56    6.24 
  -4   7   0  113.49    6.27 
  -5  -7   0    8.52    0.83 
   5  -7   0   10.78    0.73 
   5  -7   0   10.62    0.75 
  -5  -7   0   10.77    0.73 
   5  -7   0   10.50    0.71 
   5  -7   0   10.59    0.66 
  -5  -7   0   10.70    0.67 
   5  -7   0   10.51    0.80 
  -5  -7   0   10.80    0.67 
   6  -7   0    8.72    0.58 
  -6  -7   0    8.58    0.64 
   6  -7   0    8.92    0.67 
  -6  -7   0    8.90    0.65 
  -6  -7   0    8.81    0.64 
  -6  -7   0    8.38    0.69 
   6  -7   0    8.86    0.76 
   6  -7   0    9.32    0.79 
  -6   7   0    9.89    0.82 
   6   7   0    9.98    0.73 
   6   7   0    9.63    0.61 
   6   7   0    9.89    0.66 
  -6   7   0    9.42    0.71 
   6   7   0    9.36    0.73 
  -6   7   0    9.89    0.77 
  -6   7   0    9.70    0.70 
  -7  -7   0   20.61    1.40 
   7  -7   0   22.32    1.43 
  -7  -7   0   23.04    1.50 
   7  -7   0   21.41    1.53 
  -7  -7   0   21.97    1.46 
  -7  -7   0   21.15    1.40 
  -7   7   0   25.16    1.48 
   7   7   0   24.75    1.49 
  -7   7   0   25.69    1.56 
  -7   7   0   24.34    1.47 
  -7   7   0   25.27    1.58 
   0  -8   0  124.99    6.95 
   0  -8   0  131.52    6.98 
   0  -8   0  123.27    6.94 
   0  -8   0  126.40    6.92 
   0  -8   0  120.72    6.96 
   0  -8   0  124.94    6.93 
   0   8   0  127.88    6.97 
   0   8   0  130.99    6.90 
   0   8   0  125.64    6.98 
   0   8   0  128.88    6.98 
   1  -8   0    0.99    0.18 
   1  -8   0    0.86    0.19 
   1  -8   0    0.68    0.14 
  -1  -8   0    0.81    0.14 
   1  -8   0    0.85    0.15 
   1  -8   0    0.69    0.15 
  -1  -8   0    1.03    0.18 
  -1  -8   0    0.82    0.14 
  -1  -8   0    0.61    0.16 
   1  -8   0    0.59    0.14 
  -1  -8   0    0.91    0.14 
  -2  -8   0   41.19    2.22 
   2  -8   0   42.16    2.31 
   2  -8   0   40.34    2.26 
   2  -8   0   39.84    2.25 
   2  -8   0   39.80    2.26 
  -2  -8   0   42.07    2.23 
   2  -8   0   40.53    2.25 
   2  -8   0   40.91    2.25 
  -2  -8   0   40.97    2.22 
  -2  -8   0   40.21    2.29 
  -2  -8   0   40.45    2.23 
  -2  -8   0   40.40    2.22 
  -2   8   0   38.09    2.24 
  -2   8   0   39.15    2.21 
   2   8   0   38.90    2.25 
   2   8   0   38.01    2.29 
   2   8   0   37.74    2.23 
   2   8   0   38.43    2.26 
  -2   8   0   39.78    2.26 
  -2   8   0   38.42    2.23 
  -2   8   0   38.97    2.31 
   3  -8   0   47.60    2.97 
   3  -8   0   48.41    3.03 
   3  -8   0   47.16    2.98 
  -3  -8   0   47.50    2.95 
   3  -8   0   48.18    2.97 
  -3  -8   0   49.46    2.93 
  -3  -8   0   48.31    2.94 
  -3  -8   0   48.53    2.96 
   3  -8   0   47.13    2.97 
   3   8   0   60.10    2.98 
  -3   8   0   58.74    2.99 
  -3   8   0   60.08    2.97 
  -3   8   0   60.31    2.94 
  -3   8   0   57.86    3.06 
   3   8   0   52.80    3.03 
  -3   8   0   60.65    3.00 
   3   8   0   58.59    3.06 
  -4  -8   0    4.15    0.36 
   4  -8   0    4.65    0.40 
  -4  -8   0    4.23    0.34 
  -4  -8   0    4.19    0.40 
  -4  -8   0    4.29    0.37 
   4  -8   0    4.84    0.51 
   4  -8   0    4.32    0.38 
   4  -8   0    4.75    0.42 
   4  -8   0    4.60    0.46 
   4   8   0    4.24    0.37 
  -4   8   0    4.23    0.41 
  -4   8   0    4.33    0.42 
  -4   8   0    4.24    0.37 
   4   8   0    3.89    0.40 
   4   8   0    4.07    0.35 
   4   8   0    4.46    0.45 
  -4   8   0    4.32    0.54 
  -4   8   0    4.35    0.38 
   5  -8   0   21.93    1.46 
   5  -8   0   21.47    1.36 
  -5  -8   0   21.74    1.34 
  -5  -8   0   21.73    1.31 
   5  -8   0   21.69    1.32 
  -5  -8   0   21.68    1.32 
   5  -8   0   21.55    1.37 
  -5  -8   0   19.74    1.41 
   5  -8   0   21.18    1.35 
   5   8   0   24.11    1.31 
   5   8   0   23.76    1.42 
  -5   8   0   23.89    1.40 
  -5   8   0   23.86    1.36 
   5   8   0   23.99    1.40 
  -5   8   0   23.84    1.35 
  -5   8   0   23.35    1.39 
  -5   8   0   24.61    1.50 
   6  -8   0   27.77    1.63 
  -6  -8   0   26.96    1.57 
   6  -8   0   28.17    1.48 
  -6  -8   0   27.51    1.51 
   6  -8   0   28.15    1.56 
  -6  -8   0   27.06    1.52 
  -6  -8   0   27.15    1.52 
  -6   8   0   23.94    1.55 
  -6   8   0   23.84    1.56 
   6   8   0   24.60    1.59 
   6   8   0   23.52    1.47 
  -6   8   0   24.25    1.68 
   6   8   0   23.67    1.52 
  -6   8   0   23.37    1.61 
   6   8   0   24.15    1.59 
  -7  -8   0    2.29    0.39 
   7  -8   0    1.96    0.49 
  -7  -8   0    2.54    0.39 
   7  -8   0    1.97    0.35 
  -7  -8   0    2.30    0.40 
  -7   8   0    1.66    0.36 
  -7   8   0    2.24    0.41 
   7   8   0    2.13    0.43 
  -7   8   0    1.98    0.49 
  -7   8   0    2.11    0.47 
   0  -9   0   -0.07    0.13 
   0  -9   0    0.04    0.11 
   0  -9   0    0.01    0.10 
   0  -9   0    0.04    0.12 
   0  -9   0    0.01    0.12 
   0   9   0    0.00    0.18 
   0   9   0    0.02    0.07 
   0   9   0   -0.02    0.10 
   0   9   0   -0.01    0.14 
   1  -9   0   61.06    3.37 
  -1  -9   0   61.80    3.41 
   1  -9   0   59.07    3.37 
   1  -9   0   61.50    3.40 
  -1  -9   0   61.90    3.31 
   1  -9   0   61.34    3.35 
  -1  -9   0   61.53    3.35 
   1  -9   0   61.01    3.36 
  -1  -9   0   56.63    3.38 
  -1  -9   0   60.74    3.35 
  -1  -9   0   61.18    3.34 
   1  -9   0   60.10    3.36 
   1   9   0   60.35    3.40 
   1   9   0   60.21    3.38 
   1   9   0   58.75    3.40 
  -1   9   0   60.00    3.30 
  -1   9   0   59.00    3.42 
   1   9   0   58.98    3.32 
   2  -9   0   22.37    1.67 
   2  -9   0   27.66    1.57 
  -2  -9   0   27.36    1.54 
  -2  -9   0   27.30    1.55 
   2  -9   0   28.09    1.64 
   2  -9   0   26.86    1.57 
  -2  -9   0   27.56    1.54 
  -2  -9   0   27.76    1.55 
   2  -9   0   27.79    1.60 
   2  -9   0   26.50    1.61 
  -2  -9   0   27.05    1.55 
  -2  -9   0   27.99    1.53 
   3  -9   0    2.79    0.33 
  -3  -9   0    3.31    0.31 
  -3  -9   0    3.32    0.35 
  -3  -9   0    3.42    0.33 
  -3  -9   0    3.02    0.32 
   3  -9   0    3.23    0.36 
   3  -9   0    3.26    0.33 
   3  -9   0    3.31    0.37 
   3  -9   0    3.41    0.47 
  -3  -9   0    3.22    0.30 
   3  -9   0    3.18    0.43 
   3   9   0    3.63    0.38 
   3   9   0    3.49    0.33 
   3   9   0    3.40    0.34 
  -3   9   0    3.43    0.51 
  -3   9   0    3.28    0.29 
  -3   9   0    3.23    0.39 
  -3   9   0    3.05    0.34 
  -3   9   0    3.30    0.33 
   3   9   0    3.30    0.41 
  -4  -9   0   42.72    2.52 
   4  -9   0   44.30    2.55 
   4  -9   0   43.68    2.56 
  -4  -9   0   44.05    2.55 
  -4  -9   0   43.36    2.54 
   4  -9   0   44.03    2.57 
   4  -9   0   43.89    2.65 
   4  -9   0   43.57    2.59 
  -4  -9   0   42.93    2.51 
  -4   9   0   47.91    2.53 
  -4   9   0   47.41    2.68 
  -4   9   0   44.50    2.58 
   4   9   0   46.51    2.55 
   4   9   0   46.78    2.62 
   4   9   0   46.32    2.57 
  -4   9   0   46.98    2.58 
   5  -9   0    4.35    0.62 
   5  -9   0    3.84    0.50 
  -5  -9   0    4.07    0.40 
   5  -9   0    4.66    0.43 
   5  -9   0    4.00    0.53 
  -5  -9   0    4.05    0.40 
  -5  -9   0    4.47    0.46 
  -5  -9   0    4.39    0.40 
   5   9   0    2.69    0.47 
   5   9   0    2.64    0.38 
  -5   9   0    2.51    0.48 
  -5   9   0    2.54    0.41 
  -6  -9   0   11.04    0.81 
   6  -9   0   11.01    0.81 
  -6  -9   0   11.32    0.78 
   6  -9   0   11.34    0.96 
  -6  -9   0   11.06    0.86 
  -6  -9   0   10.85    0.78 
   6   9   0   11.94    0.90 
  -6   9   0   11.90    0.84 
   6   9   0   12.24    0.99 
  -6   9   0   11.04    0.87 
  -6   9   0   11.37    1.03 
  -6   9   0   10.42    0.99 
   0 -10   0   59.55    3.29 
   0 -10   0   55.71    3.37 
   0 -10   0   58.80    3.30 
   0 -10   0   60.22    3.27 
   0 -10   0   59.40    3.31 
   0 -10   0   60.23    3.30 
  -1 -10   0    1.60    0.17 
   1 -10   0    1.56    0.24 
  -1 -10   0    1.57    0.27 
   1 -10   0    1.98    0.28 
  -1 -10   0    1.55    0.21 
   1 -10   0    1.46    0.23 
   1 -10   0    1.52    0.22 
  -1 -10   0    1.84    0.27 
  -1 -10   0    1.70    0.26 
   1 -10   0    1.63    0.27 
   1 -10   0    1.81    0.32 
   1  10   0    1.35    0.29 
  -1  10   0    1.49    0.31 
   1  10   0    1.27    0.20 
   1  10   0    1.41    0.29 
  -2 -10   0   14.57    0.92 
  -2 -10   0   15.40    0.92 
   2 -10   0   14.23    0.93 
   2 -10   0   14.82    0.97 
   2 -10   0   14.93    0.98 
  -2 -10   0   14.74    0.92 
   2 -10   0   15.04    0.94 
   2 -10   0   15.22    0.95 
  -2 -10   0   13.75    0.92 
   2 -10   0   14.75    0.97 
   2  10   0   15.93    0.91 
   2  10   0   15.56    1.01 
   2  10   0   16.20    1.00 
  -2  10   0   15.62    1.07 
   3 -10   0   33.60    1.91 
  -3 -10   0   33.46    1.86 
  -3 -10   0   32.39    1.85 
  -3 -10   0   32.36    1.86 
   3 -10   0   32.94    1.98 
  -3 -10   0   32.49    1.85 
  -3 -10   0   30.58    1.84 
   3 -10   0   32.27    1.90 
   3 -10   0   30.77    1.88 
   3 -10   0   32.93    1.92 
   3 -10   0   32.42    1.89 
  -3  10   0   32.89    1.86 
   3  10   0   33.32    1.95 
   3  10   0   28.38    1.97 
  -3  10   0   31.97    1.81 
   3  10   0   34.14    1.91 
  -3  10   0   33.02    2.01 
  -3  10   0   32.56    1.85 
  -3  10   0   33.87    1.82 
  -3  10   0   32.62    1.90 
   4 -10   0    0.62    0.25 
  -4 -10   0    0.37    0.26 
   4 -10   0    0.75    0.21 
   4 -10   0    0.81    0.38 
  -4 -10   0    0.50    0.19 
   4 -10   0    0.55    0.25 
  -4 -10   0    0.43    0.21 
  -4 -10   0    0.36    0.20 
   4 -10   0    0.45    0.26 
  -4 -10   0    0.48    0.15 
   4  10   0    0.50    0.19 
  -4  10   0    0.51    0.18 
  -4  10   0    0.56    0.23 
  -4  10   0    0.34    0.35 
   4  10   0    0.32    0.22 
  -4  10   0    0.64    0.21 
   4  10   0    0.52    0.27 
   4  10   0    0.45    0.22 
  -5 -10   0   25.37    1.48 
   5 -10   0   26.64    1.51 
   5 -10   0   24.58    1.70 
  -5 -10   0   25.85    1.49 
  -5 -10   0   26.80    1.63 
  -5 -10   0   25.40    1.52 
   5 -10   0   25.76    1.59 
   5 -10   0   25.68    1.52 
   5  10   0   23.33    1.54 
  -5  10   0   23.47    1.69 
   5  10   0   23.40    1.58 
  -5  10   0   23.28    1.48 
  -6 -10   0    3.51    0.46 
   6 -10   0    3.39    0.49 
  -6 -10   0    3.22    0.58 
   6 -10   0    3.59    0.55 
   0 -11   0    0.21    0.14 
   0 -11   0    0.08    0.21 
   0 -11   0    0.17    0.17 
   0 -11   0    0.24    0.19 
   0 -11   0   -0.01    0.16 
   0 -11   0    0.04    0.15 
   0  11   0   -0.09    0.28 
   0  11   0   -0.24    0.15 
   1 -11   0   29.36    1.86 
   1 -11   0   29.75    1.76 
   1 -11   0   29.28    1.76 
  -1 -11   0   30.08    1.75 
   1 -11   0   29.72    1.73 
   1 -11   0   30.23    1.76 
  -1 -11   0   28.88    1.80 
  -1 -11   0   30.07    1.74 
  -1 -11   0   29.14    1.74 
  -1 -11   0   29.77    1.67 
   1 -11   0   29.01    1.77 
  -1 -11   0   29.94    1.74 
  -1  11   0   30.62    1.80 
   1  11   0   31.50    1.83 
   1  11   0   30.78    1.69 
   1  11   0   31.44    1.78 
  -1  11   0   32.21    1.87 
  -2 -11   0   22.50    1.34 
  -2 -11   0   21.54    1.33 
   2 -11   0   21.87    1.38 
   2 -11   0   22.00    1.40 
  -2 -11   0   22.37    1.34 
   2 -11   0   22.55    1.36 
   2 -11   0   21.68    1.35 
   2 -11   0   21.81    1.37 
   2  11   0   23.31    1.43 
   2  11   0   22.89    1.31 
   2  11   0   24.19    1.37 
   2  11   0   23.65    1.42 
  -2  11   0   23.24    1.49 
   3 -11   0    0.69    0.25 
  -3 -11   0    0.87    0.23 
  -3 -11   0    0.78    0.21 
  -3 -11   0    0.73    0.18 
  -3 -11   0    0.77    0.22 
  -3 -11   0    0.90    0.23 
   3 -11   0    0.86    0.28 
   3 -11   0    0.75    0.21 
   3 -11   0    1.00    0.33 
  -3  11   0    0.40    0.37 
   3  11   0    0.47    0.28 
   3  11   0    0.34    0.24 
   3  11   0    0.40    0.21 
   3  11   0    0.38    0.21 
   4 -11   0   23.97    1.65 
  -4 -11   0   22.94    1.42 
   4 -11   0   24.11    1.46 
   4 -11   0   24.25    1.47 
   4 -11   0   23.68    1.51 
  -4 -11   0   23.08    1.42 
  -4 -11   0   23.75    1.43 
  -4 -11   0   23.11    1.39 
  -4  11   0   24.53    1.65 
  -4  11   0   24.24    1.37 
   4  11   0   24.29    1.46 
   4  11   0   23.90    1.52 
   5 -11   0    1.37    0.28 
  -5 -11   0    1.14    0.22 
   5 -11   0    0.94    0.35 
  -5 -11   0    1.18    0.32 
  -5 -11   0    1.36    0.33 
  -5  11   0    2.59    0.58 
   0 -12   0   23.11    1.37 
   0 -12   0   23.28    1.43 
   0 -12   0   23.61    1.44 
   0 -12   0   22.59    1.42 
   0 -12   0   23.71    1.44 
   0  12   0   26.63    1.58 
   1 -12   0    3.21    0.48 
  -1 -12   0    2.80    0.42 
   1 -12   0    3.06    0.40 
  -1 -12   0    2.86    0.41 
  -1 -12   0    2.78    0.37 
   1 -12   0    3.19    0.41 
  -1 -12   0    2.86    0.40 
  -1 -12   0    2.74    0.25 
   1 -12   0    2.84    0.40 
   1  12   0    3.49    0.61 
  -1  12   0    4.02    0.66 
   2 -12   0    8.67    0.66 
  -2 -12   0    8.35    0.67 
   2 -12   0    8.79    0.69 
  -2 -12   0    8.55    0.66 
  -2 -12   0    8.73    0.65 
  -2 -12   0    9.07    0.63 
   2 -12   0    8.28    0.74 
   2 -12   0    9.20    0.71 
   2 -12   0    8.88    0.75 
   2  12   0    9.58    0.70 
   2  12   0    6.92    0.76 
  -2  12   0    8.70    0.89 
   3 -12   0   39.88    2.45 
  -3 -12   0   41.94    2.39 
   3 -12   0   41.46    2.45 
  -3 -12   0   41.06    2.37 
   3 -12   0   41.61    2.41 
   3 -12   0   42.12    2.44 
  -3 -12   0   39.49    2.39 
  -3  12   0   45.74    2.61 
   3  12   0   41.97    2.48 
  -4 -12   0    0.61    0.28 
  -4 -12   0    0.78    0.31 
  -4 -12   0    0.85    0.29 
   4 -12   0    1.05    0.37 
   4 -12   0    0.75    0.26 
  -4 -12   0    0.77    0.20 
   4  12   0    0.50    0.28 
  -4  12   0    0.39    0.50 
   0 -13   0    0.12    0.20 
   0 -13   0    0.00    0.23 
   0  13   0    0.08    0.48 
  -1 -13   0   24.66    1.54 
  -1 -13   0   25.67    1.56 
   1 -13   0   24.82    1.57 
   1 -13   0   24.58    1.56 
  -1  13   0   29.37    1.77 
  -2 -13   0   21.07    1.33 
   2 -13   0   20.48    1.38 
  -2 -13   0   21.32    1.31 
   2 -13   0   20.86    1.34 
   2 -13   0   22.53    1.45 
  -2  13   0   22.70    1.60 
  -3 -13   0    0.69    0.30 
  -3 -13   0    0.87    0.27 
   3 -13   0    1.08    0.36 
   3 -13   0    0.74    0.26 
  -3  13   0    1.27    0.61 
  -9   0   1    5.94    0.65 
  -9   0   1    5.15    0.67 
  -9   0   1    5.65    0.61 
  -8   0   1    0.17    0.23 
   8   0  -1    0.02    0.15 
  -8   0   1    0.13    0.25 
  -8   0   1   -0.12    0.23 
   8   0  -1    0.22    0.23 
  -8   0   1   -0.15    0.19 
   8   0  -1    0.14    0.26 
  -8   0   1    0.16    0.23 
   8   0  -1    0.04    0.14 
   7   0  -1   26.78    1.46 
  -7   0   1   25.93    1.53 
  -7   0   1   23.50    1.58 
  -7   0   1   25.46    1.58 
   7   0  -1   26.50    1.47 
   7   0  -1   26.33    1.57 
  -7   0   1   26.54    1.57 
   7   0  -1   26.80    1.45 
   7   0  -1   24.14    1.56 
   7   0  -1   26.18    1.52 
  -7   0   1   25.43    1.50 
   6   0  -1    8.51    0.56 
   6   0  -1    8.50    0.52 
   6   0  -1    8.55    0.51 
  -6   0   1    8.15    0.58 
  -6   0   1    8.70    0.58 
  -6   0   1    8.44    0.63 
   6   0  -1    7.83    0.59 
   6   0  -1    8.15    0.52 
  -6   0   1    8.54    0.61 
  -6   0   1    8.10    0.54 
   5   0  -1   39.28    2.13 
  -5   0   1   38.97    2.17 
   5   0  -1   39.85    2.20 
  -5   0   1   37.31    2.20 
  -5   0   1   39.17    2.16 
  -5   0   1   38.22    2.19 
   5   0  -1   38.08    2.16 
   5   0  -1   39.26    2.14 
   5   0  -1   38.35    2.13 
   5   0  -1   38.03    2.19 
   5   0  -1   37.38    2.16 
  -5   0   1   37.93    2.15 
  -4   0   1   35.36    2.01 
  -4   0   1   35.76    1.99 
  -4   0   1   35.20    1.97 
   4   0  -1   32.11    1.98 
   4   0  -1   35.79    1.96 
   4   0  -1   35.18    2.01 
   4   0  -1   35.89    1.97 
   4   0  -1   35.86    1.96 
   4   0  -1   36.87    1.99 
  -4   0   1   35.97    2.02 
   4   0  -1   35.98    2.01 
  -4   0   1   35.74    1.98 
  -3   0   1   15.30    0.87 
   3   0  -1   15.32    0.87 
  -3   0   1   14.96    0.86 
   3   0  -1   14.84    0.88 
   3   0  -1   15.41    0.85 
  -3   0   1   15.06    0.89 
   3   0  -1   14.92    0.89 
  -3   0   1   15.08    0.87 
   3   0  -1   15.35    0.85 
   3   0  -1   15.02    0.85 
  -3   0   1   15.49    0.89 
   2   0  -1  201.32   10.84 
   2   0  -1  196.12   10.79 
   2   0  -1  199.11   10.78 
  -2   0   1  199.59   10.91 
  -2   0   1  199.35   10.80 
  -2   0   1  187.98   10.80 
   2   0  -1  191.39   10.87 
   2   0  -1  199.88   10.80 
  -2   0   1  200.74   10.81 
   1   0  -1  106.08    5.91 
  -1   0   1  108.50    5.86 
   1   0  -1  105.21    5.85 
  -1   0   1  111.18    5.87 
  -1   0   1   98.57    5.86 
   1   0  -1  110.39    5.89 
   1   0  -1  110.19    5.86 
  -1   0   1  106.21    5.86 
  -1   0   1  106.77    5.90 
   0   0   1  101.66    5.63 
  -1   0  -1   76.25    4.27 
   1   0   1   75.42    4.25 
   1   0   1   75.93    4.25 
   1   0   1   75.59    4.26 
  -1   0  -1   79.98    4.26 
  -1   0  -1   78.14    4.25 
  -1   0  -1   78.60    4.25 
  -2   0  -1  188.77   10.33 
   2   0   1  189.92   10.35 
  -2   0  -1  197.74   10.32 
  -2   0  -1  188.37   10.25 
  -2   0  -1  185.75   10.29 
   2   0   1  176.85   10.26 
   2   0   1  198.34   10.32 
  -2   0  -1  178.14   10.31 
   2   0   1  180.81   10.25 
   2   0   1  188.85   10.25 
   3   0   1    1.18    0.13 
   3   0   1    1.01    0.17 
  -3   0  -1    0.96    0.13 
  -3   0  -1    0.94    0.15 
   3   0   1    0.91    0.13 
   3   0   1    1.07    0.15 
  -3   0  -1    0.94    0.12 
   3   0   1    1.12    0.14 
  -3   0  -1    0.94    0.13 
  -3   0  -1    1.02    0.16 
  -4   0  -1  143.22    7.74 
   4   0   1  136.92    7.76 
   4   0   1  138.30    7.77 
  -4   0  -1  145.13    7.73 
  -4   0  -1  138.50    7.75 
   4   0   1  145.63    7.74 
   4   0   1  140.09    7.72 
  -4   0  -1  141.41    7.76 
  -4   0  -1  143.90    7.73 
   4   0   1  139.78    7.74 
  -5   0  -1   25.99    1.50 
  -5   0  -1   26.29    1.52 
   5   0   1   26.00    1.54 
  -5   0  -1   25.94    1.49 
  -5   0  -1   25.76    1.48 
   5   0   1   25.92    1.49 
   5   0   1   26.17    1.52 
   5   0   1   25.31    1.49 
  -5   0  -1   26.05    1.52 
   5   0   1   25.54    1.47 
   6   0   1   45.65    2.57 
   6   0   1   46.24    2.57 
  -6   0  -1   45.81    2.56 
  -6   0  -1   45.07    2.56 
   6   0   1   46.49    2.55 
   6   0   1   45.23    2.54 
  -6   0  -1   42.48    2.65 
  -6   0  -1   46.23    2.58 
   6   0   1   46.36    2.62 
   7   0   1   34.08    1.90 
   7   0   1   34.57    1.95 
  -7   0  -1   31.60    1.99 
  -7   0  -1   33.31    1.98 
   7   0   1   33.08    1.94 
  -7   0  -1   33.17    1.96 
  -7   0  -1   33.81    1.93 
   7   0   1   32.93    1.98 
  -7   0  -1   33.06    1.98 
   7   0   1   34.16    1.90 
  -8   0  -1    1.95    0.35 
   8   0   1    2.01    0.30 
  -8   0  -1    2.21    0.39 
   8   0   1    2.55    0.37 
  -8   0  -1    1.69    0.31 
   8   0   1    2.48    0.36 
   8   0   1    1.83    0.34 
   8   0   1    2.08    0.35 
  -9   0  -1    1.21    0.35 
  -9  -1   1    6.47    0.70 
  -9  -1   1    7.48    0.70 
  -9  -1   1    7.13    0.73 
  -9   1   1    6.84    0.68 
  -9   1   1    7.35    0.74 
  -9   1   1    7.45    0.74 
  -8  -1   1   10.85    0.85 
  -8  -1   1   11.05    0.77 
   8  -1  -1   10.85    0.72 
   8  -1  -1   11.46    0.74 
   8  -1  -1   11.72    0.84 
   8  -1  -1   11.22    0.89 
  -8  -1   1   11.44    0.82 
  -8  -1   1   10.81    0.81 
  -8  -1   1   12.28    0.82 
   8   1  -1   10.76    0.79 
  -8   1   1   10.51    0.85 
  -8   1   1   11.30    0.83 
  -8   1   1   10.72    0.85 
  -8   1   1   10.96    0.84 
  -7  -1   1    1.19    0.25 
  -7  -1   1    1.40    0.26 
  -7  -1   1    1.16    0.20 
   7  -1  -1    1.28    0.18 
   7  -1  -1    1.45    0.27 
   7  -1  -1    1.31    0.20 
  -7  -1   1    1.37    0.24 
  -7  -1   1    1.64    0.25 
  -7   1   1    1.02    0.23 
   7   1  -1    1.31    0.24 
   7   1  -1    1.21    0.22 
  -7   1   1    1.30    0.28 
   7   1  -1    1.10    0.18 
  -7   1   1    1.09    0.24 
   7   1  -1    1.29    0.18 
   7   1  -1    1.33    0.24 
  -7   1   1    1.09    0.19 
  -7   1   1    1.16    0.24 
   6  -1  -1   26.34    1.43 
   6  -1  -1   25.73    1.43 
  -6  -1   1   25.95    1.40 
  -6  -1   1   25.98    1.41 
  -6  -1   1   26.16    1.42 
  -6  -1   1   25.53    1.44 
   6  -1  -1   26.48    1.39 
   6  -1  -1   27.13    1.39 
  -6  -1   1   25.90    1.47 
  -6   1   1   22.51    1.45 
   6   1  -1   22.36    1.40 
  -6   1   1   22.76    1.42 
   6   1  -1   22.67    1.35 
   6   1  -1   22.90    1.38 
  -6   1   1   22.13    1.39 
   6   1  -1   22.78    1.35 
   6   1  -1   22.20    1.43 
  -6   1   1   22.85    1.42 
  -6   1   1   22.32    1.45 
   5  -1  -1   71.96    4.14 
  -5  -1   1   74.08    4.14 
   5  -1  -1   74.67    4.18 
  -5  -1   1   73.03    4.12 
   5  -1  -1   72.66    4.12 
   5  -1  -1   71.99    4.14 
   5  -1  -1   73.93    4.09 
  -5  -1   1   73.68    4.13 
  -5  -1   1   73.75    4.16 
   5  -1  -1   74.86    4.12 
  -5  -1   1   71.98    4.17 
   5   1  -1   75.44    4.12 
   5   1  -1   76.57    4.09 
  -5   1   1   78.07    4.16 
   5   1  -1   77.90    4.13 
   5   1  -1   77.05    4.18 
  -5   1   1   75.32    4.18 
  -5   1   1   74.80    4.18 
   5   1  -1   76.10    4.10 
   5   1  -1   76.91    4.16 
  -5   1   1   73.61    4.13 
  -5   1   1   79.13    4.15 
   4  -1  -1   89.68    4.94 
  -4  -1   1   90.42    4.97 
  -4  -1   1   87.92    4.98 
  -4  -1   1   90.63    4.94 
   4  -1  -1   90.09    4.94 
   4  -1  -1   92.45    4.99 
   4  -1  -1   90.29    4.96 
  -4  -1   1   91.39    4.95 
   4  -1  -1   94.09    4.97 
  -4  -1   1   90.60    4.95 
   4   1  -1   89.84    4.95 
  -4   1   1   91.79    4.99 
  -4   1   1   91.99    4.96 
   4   1  -1   88.62    4.94 
  -4   1   1   88.33    4.95 
   4   1  -1   89.92    4.97 
   4   1  -1   91.35    4.98 
   4   1  -1   88.17    4.92 
   4   1  -1   89.68    4.92 
  -4   1   1   85.83    4.98 
  -4   1   1   90.63    4.97 
   3  -1  -1   71.54    3.85 
   3  -1  -1   71.55    3.82 
  -3  -1   1   72.46    3.82 
  -3  -1   1   72.61    3.85 
  -3  -1   1   70.31    3.83 
  -3  -1   1   71.93    3.81 
  -3  -1   1   72.38    3.83 
   3  -1  -1   71.60    3.84 
   3  -1  -1   69.49    3.82 
   3   1  -1   70.60    3.80 
  -3   1   1   66.67    3.82 
   3   1  -1   68.70    3.85 
   3   1  -1   69.22    3.82 
  -3   1   1   67.48    3.83 
   3   1  -1   68.64    3.82 
  -3   1   1   68.59    3.83 
  -3   1   1   67.13    3.85 
   3   1  -1   68.46    3.83 
   3   1  -1   67.90    3.82 
  -3   1   1   66.21    3.84 
   3   1  -1   68.86    3.80 
  -2  -1   1   65.03    3.31 
   2  -1  -1   62.32    3.33 
   2  -1  -1   62.50    3.30 
  -2  -1   1   64.12    3.29 
   2  -1  -1   62.96    3.31 
  -2  -1   1   65.69    3.31 
  -2  -1   1   59.74    3.32 
   2  -1  -1   64.41    3.32 
  -2  -1   1   64.28    3.30 
   2  -1  -1   65.62    3.31 
  -2  -1   1   60.64    3.32 
   2   1  -1   57.21    3.30 
   2   1  -1   57.73    3.30 
   2   1  -1   57.55    3.32 
  -2   1   1   54.97    3.32 
  -2   1   1   58.44    3.31 
  -2   1   1   58.08    3.31 
  -2   1   1   56.53    3.30 
  -2   1   1   57.53    3.32 
   2   1  -1   57.06    3.30 
   2   1  -1   55.33    3.30 
   1  -1  -1  159.48    8.92 
   1  -1  -1  157.89    8.99 
  -1  -1   1  153.52    8.94 
  -1  -1   1  154.38    8.90 
  -1  -1   1  155.01    8.92 
  -1  -1   1  152.57    8.87 
   1  -1  -1  146.95    8.90 
  -1  -1   1  140.95    8.88 
   1  -1  -1  160.31    8.93 
   1   1  -1  176.32    8.92 
   1   1  -1  170.90    8.88 
  -1   1   1  176.24    8.95 
  -1   1   1  168.71    8.92 
  -1   1   1  175.58    9.01 
   1   1  -1  176.07    8.86 
  -1   1   1  177.70    8.93 
   0  -1  -1  108.32    5.93 
   0  -1   1  113.98    5.93 
   0  -1   1  102.79    5.90 
   0  -1   1  103.94    5.98 
   0  -1  -1  114.48    5.97 
   0  -1   1  114.57    5.89 
   0  -1  -1  116.56    5.93 
   0  -1  -1  113.09    5.91 
   0   1   1  101.21    5.96 
   0   1   1  100.52    5.94 
   0   1  -1  101.68    5.89 
   0   1   1  100.87    5.95 
   0   1  -1  102.89    5.90 
  -1  -1  -1   72.18    4.45 
   1  -1   1   74.24    4.46 
  -1  -1  -1   74.98    4.47 
   1  -1   1   76.85    4.46 
   1  -1   1   76.88    4.46 
   1  -1   1   69.78    4.45 
  -1  -1  -1   74.73    4.47 
   1  -1   1   74.95    4.46 
  -1   1  -1   91.28    4.49 
  -1   1  -1   88.23    4.46 
   1   1   1   94.85    4.55 
   1   1   1   89.51    4.48 
   1   1   1   90.58    4.46 
   1   1   1   91.29    4.48 
  -2  -1  -1  118.33    6.78 
   2  -1   1  127.85    6.78 
   2  -1   1  123.04    6.82 
  -2  -1  -1  121.53    6.77 
  -2  -1  -1  123.39    6.80 
   2  -1   1  126.12    6.80 
   2  -1   1  116.42    6.77 
  -2  -1  -1  119.99    6.83 
  -2   1  -1  120.96    6.79 
  -2   1  -1  129.21    6.82 
   2   1   1  123.23    6.79 
  -2   1  -1  128.52    6.83 
  -2   1  -1  126.02    6.80 
  -2   1  -1  124.87    6.80 
   2   1   1  123.69    6.77 
   2   1   1  129.04    6.81 
   2   1   1  126.90    6.86 
   2   1   1  125.39    6.79 
  -3  -1  -1  246.27   13.39 
   3  -1   1  250.07   13.42 
   3  -1   1  239.49   13.25 
  -3  -1  -1  237.19   13.41 
   3  -1   1  242.09   13.32 
  -3  -1  -1  240.77   13.27 
   3  -1   1  247.54   13.35 
   3  -1   1  237.90   13.35 
  -3  -1  -1  236.25   13.28 
  -3  -1  -1  242.92   13.34 
  -3   1  -1  243.08   13.25 
   3   1   1  240.95   13.28 
  -3   1  -1  254.99   13.37 
  -3   1  -1  240.03   13.31 
   3   1   1  238.37   13.30 
   3   1   1  216.89   13.36 
   3   1   1  258.55   13.40 
   3   1   1  246.04   13.31 
  -3   1  -1  257.93   13.36 
  -3   1  -1  242.41   13.34 
  -4  -1  -1   14.25    0.77 
   4  -1   1   14.97    0.77 
  -4  -1  -1   14.76    0.75 
  -4  -1  -1   14.68    0.77 
   4  -1   1   14.89    0.76 
  -4   1  -1   10.58    0.73 
  -4   1  -1   11.03    0.75 
  -4   1  -1   10.75    0.72 
  -4   1  -1   10.92    0.76 
   4   1   1   10.58    0.73 
   4   1   1   11.32    0.77 
   4   1   1   10.98    0.71 
   4   1   1   10.75    0.76 
  -5  -1  -1   30.07    1.66 
   5  -1   1   30.25    1.71 
   5  -1   1   30.69    1.69 
  -5  -1  -1   31.70    1.65 
  -5  -1  -1   29.48    1.68 
  -5  -1  -1   31.28    1.64 
  -5  -1  -1   31.07    1.69 
   5  -1   1   29.85    1.66 
   5  -1   1   30.06    1.66 
   5  -1   1   30.88    1.64 
   5   1   1   27.76    1.64 
   5   1   1   27.05    1.68 
  -5   1  -1   27.75    1.64 
   5   1   1   26.86    1.62 
  -5   1  -1   26.23    1.68 
  -5   1  -1   26.80    1.65 
  -5   1  -1   27.27    1.67 
  -5   1  -1   27.93    1.65 
   5   1   1   26.89    1.68 
   5   1   1   27.10    1.64 
  -6  -1  -1   76.34    3.81 
   6  -1   1   72.86    3.86 
   6  -1   1   71.17    3.82 
  -6  -1  -1   64.52    3.92 
  -6  -1  -1   65.14    3.91 
  -6  -1  -1   74.32    3.81 
  -6  -1  -1   72.62    3.82 
   6  -1   1   75.13    3.80 
   6  -1   1   74.93    3.83 
   6   1   1   65.21    3.80 
  -6   1  -1   62.68    3.84 
  -6   1  -1   63.83    3.81 
  -6   1  -1   64.65    3.82 
   6   1   1   63.94    3.77 
   6   1   1   66.16    3.80 
   6   1   1   65.98    3.80 
  -6   1  -1   64.21    3.80 
  -7  -1  -1    0.20    0.20 
  -7  -1  -1    0.13    0.20 
   7  -1   1    0.18    0.16 
   7  -1   1    0.15    0.15 
   7  -1   1    0.21    0.21 
   7  -1   1    0.29    0.18 
  -7  -1  -1    0.18    0.19 
  -7  -1  -1    0.10    0.14 
   7   1   1    0.03    0.20 
   7   1   1    0.16    0.15 
   7   1   1    0.16    0.17 
   7   1   1    0.16    0.16 
  -7   1  -1    0.05    0.14 
   7   1   1    0.19    0.19 
   7   1   1   -0.04    0.13 
  -7   1  -1    0.11    0.18 
  -7   1  -1    0.13    0.19 
  -7   1  -1    0.11    0.19 
  -7   1  -1    0.08    0.23 
   7   1   1    0.32    0.19 
  -8  -1  -1   13.64    0.98 
   8  -1   1   12.87    0.89 
  -8  -1  -1   12.92    0.94 
   8  -1   1   13.36    0.84 
   8  -1   1   11.20    0.89 
   8  -1   1   13.03    0.96 
  -8  -1  -1   13.40    0.96 
  -8   1  -1   13.67    0.96 
   8   1   1   14.08    0.87 
  -8   1  -1   14.12    1.01 
   8   1   1   14.37    0.89 
  -8   1  -1   13.58    0.96 
   8   1   1   14.42    0.84 
   8   1   1   12.86    0.93 
   8   1   1   13.33    0.92 
   9  -1   1    3.28    0.53 
  -9  -2   1    4.48    0.71 
  -9  -2   1    4.94    0.64 
  -9  -2   1    4.69    0.59 
  -9   2   1    4.77    0.65 
  -9   2   1    4.59    0.66 
  -9   2   1    4.67    0.78 
   8  -2  -1    6.98    0.58 
  -8  -2   1    7.05    0.59 
  -8  -2   1    6.78    0.66 
  -8  -2   1    7.11    0.63 
   8  -2  -1    6.73    0.56 
  -8  -2   1    6.87    0.62 
   8  -2  -1    6.98    0.69 
  -8  -2   1    6.57    0.62 
  -8   2   1    8.44    0.69 
  -8   2   1    8.50    0.66 
  -8   2   1    7.60    0.70 
  -8   2   1    7.87    0.68 
   8   2  -1    8.16    0.56 
   8   2  -1    6.05    0.56 
  -7  -2   1   27.82    1.85 
  -7  -2   1   28.07    1.87 
  -7  -2   1   27.49    1.83 
   7  -2  -1   28.07    1.87 
   7  -2  -1   27.65    1.83 
  -7  -2   1   28.23    1.91 
   7  -2  -1   27.46    1.82 
  -7  -2   1   27.17    1.84 
  -7   2   1   36.16    1.94 
  -7   2   1   36.59    1.95 
   7   2  -1   34.12    1.90 
   7   2  -1   36.80    1.84 
  -7   2   1   36.25    1.90 
  -7   2   1   36.98    1.91 
  -7   2   1   35.83    1.86 
   7   2  -1   36.09    1.85 
   7   2  -1   36.43    1.86 
   6  -2  -1   65.58    3.43 
   6  -2  -1   66.63    3.46 
   6  -2  -1   67.45    3.43 
   6  -2  -1   67.39    3.47 
  -6  -2   1   66.49    3.47 
  -6  -2   1   67.38    3.44 
  -6  -2   1   67.70    3.43 
  -6  -2   1   66.93    3.44 
  -6   2   1   58.22    3.48 
  -6   2   1   58.39    3.43 
  -6   2   1   58.11    3.46 
   6   2  -1   57.28    3.42 
   6   2  -1   57.49    3.42 
  -6   2   1   51.51    3.58 
   6   2  -1   56.76    3.42 
   6   2  -1   57.82    3.46 
  -6   2   1   58.29    3.45 
  -5  -2   1   38.94    2.07 
   5  -2  -1   39.20    2.09 
   5  -2  -1   40.07    2.05 
   5  -2  -1   39.16    2.02 
  -5  -2   1   40.22    2.02 
  -5  -2   1   38.98    2.01 
  -5  -2   1   38.78    2.02 
   5  -2  -1   38.24    2.05 
   5  -2  -1   40.20    2.02 
  -5  -2   1   38.65    2.04 
  -5   2   1   32.32    2.03 
   5   2  -1   32.00    2.01 
   5   2  -1   31.85    2.00 
  -5   2   1   31.54    2.04 
  -5   2   1   31.35    2.07 
  -5   2   1   32.31    2.05 
   5   2  -1   33.73    2.04 
  -5   2   1   32.68    2.02 
   5   2  -1   32.67    2.01 
  -4  -2   1   60.62    3.60 
   4  -2  -1   58.50    3.59 
   4  -2  -1   59.62    3.58 
   4  -2  -1   61.15    3.61 
  -4  -2   1   60.94    3.56 
  -4  -2   1   61.90    3.57 
  -4  -2   1   61.94    3.56 
   4  -2  -1   61.74    3.57 
  -4  -2   1   60.10    3.58 
   4  -2  -1   61.16    3.57 
  -4   2   1   68.94    3.61 
   4   2  -1   69.58    3.56 
   4   2  -1   69.57    3.57 
   4   2  -1   68.60    3.59 
  -4   2   1   68.24    3.63 
   4   2  -1   67.35    3.58 
  -4   2   1   67.49    3.58 
  -4   2   1   69.93    3.60 
   4   2  -1   70.16    3.61 
  -4   2   1   69.22    3.59 
   3  -2  -1   28.61    1.79 
   3  -2  -1   28.77    1.78 
  -3  -2   1   27.98    1.80 
   3  -2  -1   28.48    1.78 
   3  -2  -1   29.54    1.79 
  -3  -2   1   29.27    1.76 
  -3  -2   1   29.20    1.77 
  -3  -2   1   28.61    1.78 
  -3  -2   1   29.92    1.79 
  -3  -2   1   27.57    1.77 
   3  -2  -1   28.26    1.81 
   3   2  -1   35.59    1.78 
  -3   2   1   34.41    1.79 
  -3   2   1   34.90    1.81 
   3   2  -1   35.62    1.79 
  -3   2   1   36.83    1.80 
   3   2  -1   36.10    1.79 
  -3   2   1   34.18    1.80 
  -3   2   1   36.49    1.83 
   3   2  -1   35.16    1.81 
   3   2  -1   35.88    1.77 
  -2  -2   1  149.27    7.90 
   2  -2  -1  142.58    7.90 
  -2  -2   1  149.77    7.89 
  -2  -2   1  150.01    7.94 
   2  -2  -1  146.37    7.89 
  -2  -2   1  141.14    7.93 
   2  -2  -1  144.49    7.94 
  -2  -2   1  143.27    7.90 
  -2  -2   1  152.05    7.92 
   2  -2  -1  150.68    7.92 
   2  -2  -1  142.17    7.89 
   2  -2  -1  147.66    7.90 
  -2   2   1  143.91    7.90 
   2   2  -1  146.75    7.94 
   2   2  -1  143.74    7.93 
   2   2  -1  141.75    7.94 
  -2   2   1  139.61    7.94 
  -2   2   1  138.81    7.89 
   2   2  -1  141.76    7.91 
   2   2  -1  137.83    7.91 
  -2   2   1  144.76    7.92 
  -1  -2   1  260.20   14.47 
  -1  -2   1  246.33   14.39 
   1  -2  -1  259.04   14.49 
  -1  -2   1  251.87   14.34 
   1  -2  -1  255.33   14.43 
   1  -2  -1  243.54   14.40 
   1  -2  -1  245.48   14.38 
   1  -2  -1  259.83   14.38 
  -1  -2   1  239.05   14.33 
   1   2  -1  261.74   14.35 
  -1   2   1  281.97   14.45 
  -1   2   1  283.51   14.40 
  -1   2   1  282.45   14.55 
   1   2  -1  277.38   14.41 
  -1   2   1  277.99   14.43 
   1   2  -1  269.56   14.43 
  -1   2   1  274.58   14.43 
  -1   2   1  263.76   14.41 
   0  -2  -1  219.84   11.69 
   0  -2   1  224.25   11.69 
   0  -2  -1  212.11   11.73 
   0  -2  -1  230.55   11.68 
   0  -2   1  199.26   11.73 
   0  -2  -1  224.30   11.64 
   0  -2  -1  218.99   11.65 
   0  -2   1  226.68   11.65 
   0   2   1  220.41   11.68 
   0   2   1  211.51   11.68 
   0   2   1  184.55   11.67 
   0   2  -1  221.32   11.64 
   0   2  -1  192.30   11.72 
   0   2  -1  204.32   11.61 
   0   2   1  207.33   11.65 
   0   2   1  207.42   11.73 
   1  -2   1  243.84   13.23 
   1  -2   1  238.68   13.17 
   1  -2   1  250.92   13.15 
  -1  -2  -1  227.67   13.22 
  -1  -2  -1  240.86   13.18 
  -1  -2  -1  236.95   13.18 
  -1  -2  -1  241.08   13.16 
   1  -2   1  240.57   13.18 
   1  -2   1  245.66   13.18 
   1   2   1  244.53   13.16 
   1   2   1  224.97   13.15 
   1   2   1  225.91   13.22 
   1   2   1  247.24   13.21 
  -1   2  -1  251.89   13.20 
  -1   2  -1  243.07   13.28 
  -1   2  -1  235.79   13.14 
  -1   2  -1  244.97   13.15 
  -2  -2  -1  204.19   11.41 
   2  -2   1  217.89   11.39 
  -2  -2  -1  215.05   11.36 
  -2  -2  -1  211.73   11.39 
   2  -2   1  218.64   11.42 
  -2  -2  -1  211.13   11.35 
   2  -2   1  216.41   11.39 
   2  -2   1  221.73   11.52 
  -2   2  -1  204.44   11.48 
  -2   2  -1  199.77   11.38 
  -2   2  -1  199.21   11.41 
   2   2   1  201.98   11.34 
  -2   2  -1  203.59   11.39 
  -2   2  -1  199.81   11.39 
   2   2   1  194.79   11.34 
   2   2   1  199.42   11.46 
   2   2   1  207.51   11.41 
  -3  -2  -1    6.30    0.40 
  -3  -2  -1    6.19    0.43 
   3  -2   1    6.01    0.43 
   3  -2   1    6.38    0.42 
  -3  -2  -1    6.41    0.40 
  -3  -2  -1    6.12    0.41 
   3  -2   1    6.28    0.43 
   3  -2   1    6.21    0.43 
  -3  -2  -1    6.28    0.43 
   3   2   1    6.87    0.40 
   3   2   1    6.71    0.40 
   3   2   1    6.66    0.44 
  -3   2  -1    6.87    0.43 
  -3   2  -1    6.82    0.43 
   3   2   1    6.79    0.41 
  -3   2  -1    6.68    0.46 
   3   2   1    6.80    0.45 
  -3   2  -1    6.82    0.42 
  -4  -2  -1   46.48    2.74 
  -4  -2  -1   46.15    2.75 
   4  -2   1   45.71    2.74 
  -4  -2  -1   45.96    2.76 
   4  -2   1   46.97    2.77 
  -4  -2  -1   47.11    2.73 
   4  -2   1   43.75    2.79 
   4  -2   1   46.26    2.76 
   4  -2   1   45.19    2.76 
  -4  -2  -1   45.22    2.77 
   4   2   1   54.12    2.76 
   4   2   1   53.54    2.73 
   4   2   1   52.63    2.74 
   4   2   1   53.86    2.75 
   4   2   1   52.62    2.78 
  -4   2  -1   52.36    2.77 
  -4   2  -1   51.51    2.80 
   4   2   1   52.48    2.79 
  -4   2  -1   52.41    2.77 
  -4   2  -1   54.35    2.76 
  -4   2  -1   50.97    2.76 
  -5  -2  -1   12.35    0.81 
   5  -2   1   12.71    0.79 
  -5  -2  -1   12.88    0.80 
   5  -2   1   13.29    0.79 
   5  -2   1   12.73    0.77 
  -5  -2  -1   12.66    0.78 
   5  -2   1   12.50    0.80 
  -5  -2  -1   13.34    0.76 
  -5  -2  -1   13.16    0.76 
   5  -2   1   13.05    0.84 
  -5   2  -1   12.22    0.79 
  -5   2  -1   12.05    0.79 
   5   2   1   12.62    0.78 
  -5   2  -1   12.48    0.80 
  -5   2  -1   12.06    0.82 
   5   2   1   12.66    0.81 
   5   2   1   12.62    0.76 
   5   2   1   12.35    0.82 
  -5   2  -1   12.44    0.77 
   5   2   1   12.48    0.74 
   6  -2   1    5.51    0.46 
   6  -2   1    5.59    0.41 
  -6  -2  -1    5.38    0.40 
   6  -2   1    5.43    0.47 
  -6  -2  -1    5.97    0.46 
  -6  -2  -1    5.54    0.46 
   6  -2   1    5.95    0.44 
   6  -2   1    5.29    0.44 
  -6  -2  -1    5.27    0.43 
  -6   2  -1    4.31    0.44 
  -6   2  -1    4.41    0.42 
  -6   2  -1    4.31    0.44 
  -6   2  -1    4.40    0.37 
   6   2   1    4.64    0.41 
  -6   2  -1    4.50    0.47 
   6   2   1    4.43    0.40 
   6   2   1    4.43    0.44 
   6   2   1    4.21    0.39 
   6   2   1    4.56    0.35 
  -7  -2  -1   24.46    1.45 
  -7  -2  -1   23.82    1.47 
   7  -2   1   22.08    1.52 
   7  -2   1   24.52    1.50 
   7  -2   1   24.55    1.49 
  -7  -2  -1   24.87    1.50 
   7  -2   1   24.02    1.46 
   7  -2   1   24.21    1.51 
  -7  -2  -1   23.67    1.50 
  -7   2  -1   24.81    1.51 
   7   2   1   25.52    1.46 
   7   2   1   25.94    1.46 
   7   2   1   25.28    1.41 
   7   2   1   24.87    1.40 
   7   2   1   24.32    1.46 
  -7   2  -1   24.38    1.45 
   7   2   1   24.90    1.51 
  -7   2  -1   24.54    1.51 
  -7   2  -1   25.84    1.55 
  -7   2  -1   25.34    1.48 
   8  -2   1    3.61    0.58 
  -8  -2  -1    4.21    0.50 
   8  -2   1    4.10    0.52 
   8  -2   1    3.94    0.36 
   8  -2   1    4.16    0.47 
  -8  -2  -1    4.43    0.51 
  -8   2  -1    3.97    0.52 
  -8   2  -1    3.66    0.64 
   8   2   1    3.90    0.36 
  -8   2  -1    4.09    0.52 
   8   2   1    4.03    0.44 
   8   2   1    3.86    0.49 
  -9   3   1   12.11    1.01 
   8  -3  -1   26.45    1.66 
  -8  -3   1   25.49    1.58 
  -8  -3   1   26.61    1.67 
  -8  -3   1   26.26    1.66 
  -8  -3   1   26.55    1.61 
   8  -3  -1   26.40    1.57 
  -8   3   1   26.94    1.69 
  -8   3   1   26.13    1.67 
  -8   3   1   28.00    1.65 
   8   3  -1   27.18    1.57 
  -8   3   1   26.20    1.66 
   8   3  -1   27.01    1.58 
  -7  -3   1    5.39    0.46 
   7  -3  -1    5.57    0.48 
   7  -3  -1    5.22    0.46 
  -7  -3   1    5.70    0.47 
   7  -3  -1    5.00    0.45 
   7  -3  -1    5.20    0.56 
  -7  -3   1    5.44    0.44 
  -7  -3   1    4.96    0.53 
  -7  -3   1    5.45    0.47 
  -7   3   1    5.28    0.54 
  -7   3   1    5.38    0.52 
   7   3  -1    5.55    0.48 
  -7   3   1    5.23    0.54 
   7   3  -1    5.62    0.51 
   7   3  -1    5.75    0.47 
   7   3  -1    5.39    0.43 
  -7   3   1    5.63    0.55 
   7   3  -1    5.39    0.44 
  -7   3   1    5.33    0.43 
   6  -3  -1   47.55    2.91 
   6  -3  -1   47.84    2.88 
   6  -3  -1   47.98    2.91 
  -6  -3   1   46.79    2.86 
  -6  -3   1   48.30    2.90 
  -6  -3   1   46.88    2.87 
  -6  -3   1   46.28    2.94 
   6  -3  -1   47.15    2.88 
  -6   3   1   55.26    2.95 
  -6   3   1   55.45    2.92 
  -6   3   1   57.00    2.98 
   6   3  -1   55.30    2.95 
   6   3  -1   55.99    2.87 
   6   3  -1   53.93    2.87 
   6   3  -1   54.23    2.89 
  -6   3   1   53.86    2.89 
   6   3  -1   56.91    2.92 
  -5  -3   1   38.64    2.24 
  -5  -3   1   40.58    2.27 
  -5  -3   1   39.61    2.25 
   5  -3  -1   39.73    2.28 
  -5  -3   1   37.34    2.29 
   5  -3  -1   40.33    2.32 
   5  -3  -1   40.67    2.29 
   5  -3  -1   38.04    2.26 
   5  -3  -1   39.17    2.26 
  -5   3   1   41.00    2.28 
  -5   3   1   40.49    2.30 
   5   3  -1   40.44    2.24 
  -5   3   1   41.88    2.26 
   5   3  -1   41.33    2.27 
  -5   3   1   41.01    2.29 
   5   3  -1   41.77    2.27 
  -5   3   1   40.31    2.33 
   5   3  -1   41.52    2.24 
   5   3  -1   41.10    2.30 
  -4  -3   1    5.21    0.36 
   4  -3  -1    5.12    0.38 
   4  -3  -1    4.18    0.52 
   4  -3  -1    5.01    0.38 
  -4  -3   1    5.03    0.35 
  -4  -3   1    4.96    0.36 
  -4  -3   1    5.30    0.38 
   4  -3  -1    5.19    0.50 
   4  -3  -1    5.22    0.41 
  -4  -3   1    5.18    0.41 
  -4   3   1    6.17    0.42 
   4   3  -1    6.03    0.35 
  -4   3   1    5.88    0.40 
   4   3  -1    6.17    0.42 
   4   3  -1    6.08    0.35 
  -4   3   1    6.42    0.43 
  -4   3   1    6.03    0.38 
   4   3  -1    6.03    0.38 
   4   3  -1    6.17    0.40 
  -4   3   1    5.97    0.45 
   3  -3  -1  112.24    6.14 
   3  -3  -1  113.48    6.17 
   3  -3  -1  114.44    6.11 
  -3  -3   1  111.41    6.13 
  -3  -3   1  116.68    6.12 
   3  -3  -1  116.29    6.14 
  -3  -3   1  114.47    6.12 
   3  -3  -1  113.00    6.15 
  -3  -3   1  111.37    6.15 
   3  -3  -1  114.11    6.15 
  -3  -3   1  118.86    6.12 
  -3  -3   1  119.80    6.15 
   3   3  -1  109.52    6.11 
   3   3  -1  107.93    6.13 
   3   3  -1  110.08    6.15 
  -3   3   1  103.89    6.15 
  -3   3   1  105.05    6.17 
  -3   3   1  109.47    6.15 
  -3   3   1  108.90    6.13 
  -3   3   1  112.36    6.15 
   3   3  -1  109.04    6.11 
   3   3  -1  112.42    6.15 
  -2  -3   1  173.13    9.08 
   2  -3  -1  169.96    9.09 
  -2  -3   1  168.06    9.10 
   2  -3  -1  158.80    9.09 
  -2  -3   1  173.22    9.13 
   2  -3  -1  162.49    9.08 
   2  -3  -1  168.63    9.12 
  -2  -3   1  171.71    9.11 
  -2  -3   1  163.59    9.12 
  -2  -3   1  162.82    9.16 
   2  -3  -1  157.41    9.11 
   2  -3  -1  158.52    9.10 
  -2   3   1  168.55    9.12 
   2   3  -1  169.55    9.11 
   2   3  -1  168.01    9.11 
  -2   3   1  161.52    9.08 
   2   3  -1  171.46    9.14 
  -2   3   1  165.98    9.09 
   2   3  -1  170.99    9.10 
  -2   3   1  164.79    9.11 
   1  -3  -1   88.32    4.65 
  -1  -3   1   86.63    4.65 
   1  -3  -1   88.47    4.65 
   1  -3  -1   86.94    4.65 
  -1  -3   1   75.90    4.69 
   1  -3  -1   89.17    4.68 
  -1  -3   1   89.27    4.67 
  -1  -3   1   89.48    4.76 
   1  -3  -1   88.24    4.65 
  -1  -3   1   88.17    4.66 
  -1   3   1   82.50    4.65 
  -1   3   1   84.34    4.65 
   1   3  -1   83.59    4.64 
   1   3  -1   80.91    4.66 
  -1   3   1   84.23    4.66 
  -1   3   1   82.21    4.65 
  -1   3   1   78.08    4.65 
   1   3  -1   83.27    4.66 
   0  -3   1  416.53   22.06 
   0  -3   1  412.06   22.04 
   0  -3  -1  408.52   21.98 
   0  -3  -1  364.80   22.02 
   0  -3  -1  400.40   21.99 
   0  -3  -1  416.61   21.93 
   0  -3  -1  377.23   21.97 
   0  -3   1  388.39   21.92 
   0  -3  -1  425.92   22.05 
   0  -3   1  401.80   21.97 
   0   3   1  398.59   22.02 
   0   3   1  366.07   22.02 
   0   3  -1  414.90   21.97 
   0   3   1  396.92   21.96 
   0   3   1  421.21   21.94 
   0   3  -1  371.58   22.04 
   0   3   1  436.55   22.00 
   0   3  -1  415.07   22.03 
  -1  -3  -1  108.57    6.62 
   1  -3   1  108.96    6.61 
  -1  -3  -1  110.68    6.63 
   1  -3   1  109.46    6.64 
  -1  -3  -1  107.78    6.67 
   1  -3   1  115.80    6.62 
   1  -3   1  110.01    6.62 
  -1  -3  -1  105.50    6.62 
   1   3   1  137.27    6.70 
  -1   3  -1  136.30    6.68 
   1   3   1  129.44    6.67 
   1   3   1  137.78    6.69 
  -1   3  -1  134.91    6.63 
   1   3   1  135.40    6.68 
  -1   3  -1  132.51    6.66 
   2  -3   1   13.60    0.80 
   2  -3   1   12.82    0.77 
   2  -3   1   13.44    0.77 
  -2  -3  -1   12.93    0.77 
  -2  -3  -1   13.55    0.77 
  -2  -3  -1   12.98    0.76 
   2  -3   1   13.53    0.76 
   2  -3   1   12.86    0.76 
  -2  -3  -1   13.30    0.75 
   3  -3   1  212.95   10.72 
   3  -3   1  194.94   10.70 
  -3  -3  -1  200.82   10.72 
   3  -3   1  206.50   10.75 
  -3  -3  -1  201.96   10.86 
  -3  -3  -1  207.38   10.75 
   3  -3   1  207.36   10.71 
   3  -3   1  198.49   10.71 
  -3  -3  -1  204.51   10.76 
   3   3   1  190.50   10.71 
  -3   3  -1  187.08   10.71 
   3   3   1  189.78   10.70 
  -3   3  -1  188.11   10.75 
   3   3   1  190.27   10.72 
   3   3   1  187.05   10.72 
  -3   3  -1  185.71   10.70 
  -3   3  -1  193.13   10.74 
  -3   3  -1  190.56   10.71 
   3   3   1  187.75   10.71 
   4   3   1    2.93    0.43 
  -4   3  -1    3.64    0.30 
  -4   3  -1    3.58    0.30 
   4   3   1    3.47    0.25 
   4   3   1    3.46    0.24 
  -4   3  -1    3.60    0.35 
  -4   3  -1    3.45    0.31 
  -4   3  -1    3.59    0.29 
   4   3   1    3.61    0.31 
  -5  -3  -1   15.68    0.82 
  -5  -3  -1   15.55    0.78 
   5  -3   1   15.77    0.82 
   5  -3   1   15.49    0.80 
   5   3   1   11.59    0.73 
   5   3   1   11.43    0.75 
   5   3   1   11.38    0.80 
  -5   3  -1   11.91    0.85 
  -5   3  -1   11.10    0.80 
   5   3   1   11.93    0.82 
   5   3   1   11.76    0.80 
  -5   3  -1   11.58    0.78 
  -5   3  -1   11.31    0.80 
  -6  -3  -1    9.19    0.70 
   6  -3   1    9.47    0.74 
  -6  -3  -1    9.45    0.73 
   6  -3   1    9.37    0.78 
   6  -3   1    9.83    0.71 
   6  -3   1    9.56    0.73 
  -6  -3  -1    9.68    0.75 
  -6   3  -1   12.26    0.72 
  -6   3  -1   12.82    0.82 
   6   3   1   13.29    0.77 
  -6   3  -1   13.22    0.78 
  -6   3  -1   13.06    0.76 
   6   3   1   13.34    0.75 
   7  -3   1    1.60    0.31 
  -7  -3  -1    1.64    0.29 
  -7  -3  -1    1.88    0.29 
   7  -3   1    1.79    0.29 
   7  -3   1    1.85    0.26 
  -7  -3  -1    2.03    0.33 
  -7  -3  -1    1.90    0.34 
   7  -3   1    1.84    0.35 
   7   3   1    1.39    0.23 
  -7   3  -1    1.95    0.36 
   7   3   1    1.88    0.23 
  -7   3  -1    1.94    0.32 
  -7   3  -1    1.68    0.29 
   7   3   1    1.87    0.29 
   7   3   1    1.77    0.23 
   7   3   1    1.91    0.37 
   7   3   1    1.88    0.32 
  -7   3  -1    1.92    0.26 
  -7   3  -1    1.74    0.28 
   7   3   1    1.96    0.32 
   8  -3   1   14.72    1.18 
   8  -3   1   14.04    1.12 
   8  -3   1   15.35    1.09 
  -8  -3  -1   14.51    1.11 
  -8  -3  -1   14.31    1.13 
   8   3   1   19.74    1.14 
   8   3   1   19.54    1.10 
  -8   3  -1   19.57    1.25 
  -8   3  -1   19.90    1.22 
  -8   3  -1   19.56    1.18 
   8  -4  -1   10.89    0.77 
  -8  -4   1   10.39    0.74 
   8  -4  -1    9.67    0.78 
   8  -4  -1   10.81    0.91 
  -8  -4   1   10.27    0.75 
  -8  -4   1   10.21    0.83 
  -8  -4   1   10.07    0.76 
   8   4  -1    9.91    0.72 
   8   4  -1   10.09    0.77 
  -8   4   1   10.87    0.82 
  -8   4   1   10.32    0.84 
  -8   4   1   10.15    0.84 
   7  -4  -1   44.94    2.58 
   7  -4  -1   45.95    2.54 
   7  -4  -1   44.12    2.59 
  -7  -4   1   45.59    2.51 
  -7  -4   1   43.13    2.59 
  -7  -4   1   42.68    2.51 
  -7  -4   1   43.49    2.52 
  -7  -4   1   42.07    2.54 
  -7   4   1   44.66    2.58 
  -7   4   1   39.52    2.58 
  -7   4   1   45.18    2.60 
   7   4  -1   46.29    2.50 
   7   4  -1   46.10    2.61 
  -7   4   1   47.29    2.60 
   7   4  -1   44.12    2.50 
  -7   4   1   45.96    2.64 
   7   4  -1   46.07    2.56 
   7   4  -1   45.73    2.55 
   6  -4  -1   23.29    1.42 
  -6  -4   1   22.27    1.37 
  -6  -4   1   23.42    1.35 
  -6  -4   1   22.99    1.35 
   6  -4  -1   23.56    1.38 
   6  -4  -1   22.43    1.45 
  -6  -4   1   23.64    1.36 
  -6  -4   1   23.41    1.43 
   6  -4  -1   23.56    1.38 
  -6   4   1   24.27    1.47 
   6   4  -1   23.63    1.39 
  -6   4   1   23.31    1.43 
  -6   4   1   23.84    1.38 
   6   4  -1   24.07    1.39 
  -6   4   1   24.68    1.42 
   6   4  -1   23.58    1.43 
   6   4  -1   23.28    1.34 
   6   4  -1   24.30    1.34 
  -5  -4   1   81.03    4.56 
   5  -4  -1   81.14    4.61 
   5  -4  -1   77.41    4.60 
  -5  -4   1   79.85    4.56 
   5  -4  -1   78.93    4.58 
  -5  -4   1   82.47    4.62 
  -5  -4   1   78.83    4.58 
   5  -4  -1   77.87    4.64 
  -5  -4   1   79.14    4.55 
   5  -4  -1   79.85    4.58 
  -5   4   1   84.73    4.61 
  -5   4   1   86.02    4.66 
  -5   4   1   88.30    4.62 
  -5   4   1   85.56    4.62 
   5   4  -1   85.11    4.55 
   5   4  -1   86.61    4.55 
  -5   4   1   86.19    4.59 
   5   4  -1   87.27    4.59 
   5   4  -1   86.86    4.60 
   5   4  -1   86.23    4.62 
   4  -4  -1   75.66    4.62 
  -4  -4   1   77.59    4.60 
  -4  -4   1   75.23    4.61 
   4  -4  -1   75.70    4.64 
   4  -4  -1   77.21    4.67 
   4  -4  -1   75.53    4.64 
  -4  -4   1   76.19    4.64 
   4  -4  -1   75.93    4.58 
  -4  -4   1   76.92    4.59 
   4  -4  -1   74.05    4.62 
  -4  -4   1   73.96    4.59 
  -4   4   1   94.07    4.66 
  -4   4   1   97.29    4.65 
  -4   4   1   90.14    4.63 
   4   4  -1   94.06    4.62 
  -4   4   1   94.52    4.66 
   4   4  -1   92.21    4.65 
   4   4  -1   90.95    4.66 
   4   4  -1   91.90    4.60 
  -4   4   1   91.85    4.70 
   4   4  -1   92.85    4.59 
   3  -4  -1   36.12    2.04 
   3  -4  -1   36.02    2.03 
  -3  -4   1   36.41    2.01 
  -3  -4   1   37.84    2.04 
   3  -4  -1   36.75    2.00 
  -3  -4   1   37.71    2.00 
  -3  -4   1   38.62    2.00 
   3  -4  -1   35.59    2.04 
   3  -4  -1   37.59    2.07 
  -3  -4   1   38.03    2.05 
  -3  -4   1   37.44    1.99 
   3  -4  -1   37.70    2.03 
   3   4  -1   34.93    2.04 
  -3   4   1   34.72    2.03 
   3   4  -1   34.88    2.01 
  -3   4   1   34.67    2.04 
  -3   4   1   34.56    2.04 
  -3   4   1   34.93    2.07 
   3   4  -1   35.85    1.99 
  -3   4   1   35.04    2.02 
   3   4  -1   35.86    2.04 
  -2  -4   1   53.51    2.79 
   2  -4  -1   50.01    2.80 
  -2  -4   1   54.37    2.76 
   2  -4  -1   52.87    2.80 
   2  -4  -1   54.45    2.83 
  -2  -4   1   53.66    2.78 
   2  -4  -1   54.02    2.79 
  -2  -4   1   52.92    2.77 
   2  -4  -1   52.47    2.80 
   2  -4  -1   54.07    2.78 
  -2  -4   1   54.69    2.81 
  -2  -4   1   54.29    2.76 
  -2   4   1   45.68    2.78 
   2   4  -1   45.41    2.80 
   2   4  -1   45.64    2.77 
  -2   4   1   46.66    2.83 
  -2   4   1   43.49    2.79 
   2   4  -1   45.63    2.76 
   2   4  -1   45.52    2.79 
   1  -4  -1  235.19   13.15 
  -1  -4   1  242.11   13.19 
  -1  -4   1  237.62   13.27 
   1  -4  -1  238.88   13.27 
   1  -4  -1  219.90   13.09 
  -1  -4   1  235.18   13.12 
   1  -4  -1  219.48   13.12 
   1  -4  -1  235.15   13.10 
  -1  -4   1  236.92   13.12 
   1  -4  -1  239.28   13.10 
  -1   4   1  261.34   13.20 
   1   4  -1  246.49   13.16 
  -1   4   1  246.76   13.22 
   1   4  -1  254.94   13.13 
  -1   4   1  249.83   13.14 
  -1   4   1  236.69   13.14 
  -1   4   1  241.12   13.15 
   0  -4   1   34.62    2.10 
   0  -4  -1   36.97    2.10 
   0  -4   1   37.14    2.08 
   0  -4  -1   36.10    2.09 
   0  -4   1   37.08    2.10 
   0  -4  -1   36.71    2.09 
   0  -4   1   35.93    2.08 
   0  -4  -1   35.89    2.09 
   0  -4   1   36.67    2.08 
   0  -4  -1   37.77    2.08 
   0  -4  -1   35.13    2.09 
   0   4  -1   40.32    2.09 
   0   4   1   39.24    2.09 
   0   4   1   40.34    2.11 
   0   4   1   39.47    2.11 
   0   4   1   40.14    2.12 
   0   4   1   38.44    2.08 
   0   4  -1   39.44    2.10 
   0   4   1   39.97    2.08 
   1  -4   1  197.07   10.05 
  -1  -4  -1  198.60   10.09 
  -1  -4  -1  186.18   10.04 
   1  -4   1  199.91   10.07 
   1  -4   1  199.82   10.03 
  -1  -4  -1  203.43   10.08 
  -1  -4  -1  196.10   10.04 
   1  -4   1  193.67   10.01 
   1  -4   1  197.15   10.03 
  -1   4  -1  169.87    9.98 
  -1   4  -1  164.51   10.02 
   1   4   1  169.68   10.02 
   1   4   1  171.87   10.03 
   1   4   1  159.95   10.06 
  -1   4  -1  168.13    9.99 
   1   4   1  173.15   10.00 
  -1   4  -1  163.18   10.00 
   2  -4   1   92.04    5.00 
  -2  -4  -1   88.10    4.96 
  -2  -4  -1   88.65    4.95 
   2  -4   1   92.32    4.97 
   2  -4   1   88.30    4.97 
  -2  -4  -1   92.21    4.97 
  -2  -4  -1   87.68    4.97 
   2  -4   1   89.64    4.96 
  -2   4  -1   94.78    4.96 
   2   4   1   91.61    4.97 
   2   4   1   89.29    4.97 
   2   4   1   90.30    4.99 
  -2   4  -1   93.06    4.97 
  -2   4  -1   92.42    4.95 
  -2   4  -1   89.84    5.00 
  -2   4  -1   87.07    4.97 
   2   4   1   91.56    4.94 
  -3  -4  -1   22.21    1.29 
  -3  -4  -1   23.17    1.29 
   3  -4   1   22.33    1.33 
   3  -4   1   22.09    1.29 
  -3  -4  -1   21.75    1.26 
  -3  -4  -1   22.37    1.26 
   3   4   1   22.59    1.23 
  -3   4  -1   21.29    1.32 
  -3   4  -1   22.21    1.27 
  -3   4  -1   22.58    1.29 
  -3   4  -1   21.98    1.27 
  -3   4  -1   22.12    1.29 
   3   4   1   22.94    1.30 
   3   4   1   22.54    1.29 
   3   4   1   22.55    1.30 
   3   4   1   22.84    1.24 
   4  -4   1   63.56    3.81 
   4  -4   1   63.95    3.81 
  -4  -4  -1   65.67    3.78 
  -4  -4  -1   65.15    3.81 
   4  -4   1   62.76    3.86 
   4  -4   1   65.70    3.80 
  -4  -4  -1   64.99    3.81 
  -4  -4  -1   63.97    3.78 
   4   4   1   71.23    3.82 
   4   4   1   71.50    3.83 
  -4   4  -1   70.43    3.80 
  -4   4  -1   69.74    3.81 
   4   4   1   72.06    3.76 
   4   4   1   71.41    3.83 
   4   4   1   72.66    3.76 
  -4   4  -1   74.23    3.82 
  -4   4  -1   71.58    3.86 
  -4   4  -1   74.55    3.80 
  -5  -4  -1   11.02    0.87 
   5  -4   1   11.00    0.87 
   5  -4   1   11.54    0.85 
  -5  -4  -1   11.45    0.83 
   5   4   1   15.25    0.80 
   5   4   1   14.60    0.81 
  -5   4  -1   15.35    0.95 
  -5   4  -1   15.22    0.88 
  -5   4  -1   14.95    0.88 
  -5   4  -1   15.40    0.87 
   5   4   1   14.94    0.88 
   5   4   1   14.96    0.91 
  -5   4  -1   15.22    0.89 
   5   4   1   14.57    0.89 
  -6  -4  -1    6.09    0.48 
   6  -4   1    6.01    0.55 
   6  -4   1    5.81    0.47 
  -6  -4  -1    5.78    0.44 
  -6  -4  -1    5.57    0.46 
  -6  -4  -1    5.89    0.51 
   6  -4   1    5.56    0.52 
  -6   4  -1    5.98    0.51 
   6   4   1    5.81    0.36 
  -6   4  -1    5.12    0.55 
   6   4   1    5.64    0.41 
   6   4   1    5.81    0.49 
  -6   4  -1    5.61    0.48 
   6   4   1    5.68    0.36 
  -7  -4  -1   51.75    2.87 
   7  -4   1   50.38    2.81 
  -7  -4  -1   51.41    2.85 
   7  -4   1   49.71    2.83 
  -7  -4  -1   50.37    2.82 
  -7  -4  -1   49.44    2.81 
   7  -4   1   51.50    2.86 
   7   4   1   50.50    2.85 
  -7   4  -1   48.46    2.85 
   7   4   1   48.11    2.91 
  -7   4  -1   49.78    2.85 
  -7   4  -1   49.00    2.87 
  -7   4  -1   49.05    2.91 
   7   4   1   45.52    2.81 
  -8  -4  -1    3.63    0.47 
   8  -4   1    3.90    0.51 
   8  -4   1    4.09    0.67 
  -8  -4  -1    3.57    0.51 
  -8   4  -1    4.33    0.58 
   8   4   1    3.87    0.56 
  -8   4  -1    3.74    0.57 
  -8   4  -1    4.20    0.66 
   8  -5  -1   25.11    1.62 
   8  -5  -1   25.43    1.51 
  -8  -5   1   24.68    1.57 
  -8  -5   1   23.82    1.50 
  -8  -5   1   24.61    1.49 
   8   5  -1   24.93    1.53 
  -8   5   1   23.30    1.61 
  -8   5   1   24.51    1.58 
  -8   5   1   24.71    1.56 
   7  -5  -1    1.43    0.35 
  -7  -5   1    1.55    0.25 
   7  -5  -1    1.81    0.28 
  -7  -5   1    1.64    0.30 
  -7  -5   1    1.88    0.30 
  -7  -5   1    1.62    0.26 
  -7  -5   1    1.61    0.31 
   7  -5  -1    1.74    0.27 
   7   5  -1    1.45    0.30 
  -7   5   1    1.47    0.35 
   7   5  -1    1.72    0.27 
  -7   5   1    1.48    0.28 
  -7   5   1    1.38    0.33 
   7   5  -1    1.62    0.33 
  -7   5   1    1.86    0.33 
   7   5  -1    1.52    0.22 
   6  -5  -1   49.54    3.00 
   6  -5  -1   46.37    2.96 
  -6  -5   1   50.90    2.93 
  -6  -5   1   49.03    3.00 
  -6  -5   1   51.91    2.92 
   6  -5  -1   51.51    2.96 
  -6  -5   1   49.26    2.93 
  -6  -5   1   45.00    2.97 
   6  -5  -1   49.51    3.04 
  -6   5   1   55.00    3.02 
  -6   5   1   56.06    3.07 
   6   5  -1   57.60    2.97 
  -6   5   1   58.01    3.01 
   6   5  -1   56.25    2.99 
   6   5  -1   55.98    2.92 
  -6   5   1   56.92    3.01 
   6   5  -1   56.83    2.91 
   5  -5  -1   19.45    1.38 
   5  -5  -1   20.18    1.33 
  -5  -5   1   19.07    1.29 
  -5  -5   1   20.04    1.31 
  -5  -5   1   20.13    1.28 
  -5  -5   1   20.77    1.35 
   5  -5  -1   19.33    1.35 
  -5  -5   1   20.21    1.29 
   5  -5  -1   20.18    1.33 
  -5   5   1   25.41    1.37 
   5   5  -1   25.49    1.36 
   5   5  -1   26.48    1.33 
   5   5  -1   25.95    1.28 
   5   5  -1   25.60    1.29 
   5   5  -1   26.10    1.38 
  -5   5   1   25.44    1.43 
  -5   5   1   24.93    1.37 
  -5   5   1   25.42    1.37 
  -4  -5   1   15.84    0.87 
   4  -5  -1   16.14    0.93 
   4  -5  -1   15.51    0.92 
  -4  -5   1   15.65    0.93 
   4  -5  -1   16.50    0.98 
   4  -5  -1   15.77    0.95 
   4  -5  -1   15.92    0.87 
   4  -5  -1   16.37    0.92 
  -4  -5   1   15.80    0.86 
  -4  -5   1   15.46    0.89 
  -4  -5   1   15.69    0.88 
  -4   5   1   13.72    0.93 
  -4   5   1   14.20    0.98 
   4   5  -1   14.42    0.86 
  -4   5   1   14.98    0.93 
   4   5  -1   14.04    0.89 
  -4   5   1   14.16    0.92 
   4   5  -1   13.97    0.93 
  -3  -5   1  100.36    5.86 
   3  -5  -1   98.75    5.89 
  -3  -5   1  108.60    5.92 
  -3  -5   1  103.43    5.85 
   3  -5  -1  103.03    5.87 
  -3  -5   1  104.57    5.84 
  -3  -5   1  103.98    5.89 
   3  -5  -1   99.04    5.90 
   3  -5  -1  101.29    5.93 
  -3  -5   1  100.17    5.87 
   3  -5  -1  102.27    5.90 
  -3   5   1  113.64    5.91 
  -3   5   1  118.09    5.91 
  -3   5   1  115.26    5.95 
   3   5  -1  109.93    5.91 
   3   5  -1  114.44    5.90 
   3   5  -1  114.23    5.86 
   3   5  -1  114.35    5.87 
  -3   5   1  112.94    5.90 
  -2  -5   1  182.79    9.66 
   2  -5  -1  169.24    9.64 
   2  -5  -1  174.01    9.63 
   2  -5  -1  167.42    9.63 
   2  -5  -1  167.06    9.64 
  -2  -5   1  170.59    9.62 
  -2  -5   1  175.32    9.63 
   2  -5  -1  179.26    9.64 
  -2  -5   1  178.02    9.62 
  -2  -5   1  174.99    9.68 
   2  -5  -1  178.84    9.67 
  -2  -5   1  172.13    9.67 
   2   5  -1  175.36    9.66 
   2   5  -1  182.47    9.65 
  -2   5   1  178.19    9.64 
  -2   5   1  184.05    9.64 
  -2   5   1  186.11    9.69 
  -2   5   1  173.94    9.63 
   2   5  -1  181.61    9.67 
   1  -5  -1   90.43    4.93 
   1  -5  -1   86.24    4.91 
   1  -5  -1   88.27    4.90 
  -1  -5   1   88.69    4.93 
   1  -5  -1   86.49    4.90 
   1  -5  -1   91.56    4.90 
  -1  -5   1   91.46    4.88 
  -1  -5   1   83.59    4.89 
  -1  -5   1   87.88    4.89 
  -1  -5   1   90.97    4.91 
   1  -5  -1   87.28    4.91 
  -1  -5   1   90.70    4.88 
  -1  -5   1   88.62    4.88 
  -1   5   1   86.12    4.91 
   1   5  -1   90.30    4.93 
  -1   5   1   91.37    4.93 
   1   5  -1   88.96    4.90 
   1   5  -1   92.21    4.88 
  -1   5   1   91.61    4.91 
  -1   5   1   89.18    4.90 
  -1   5   1   90.44    4.90 
  -1   5   1   93.38    4.95 
   0  -5   1   70.86    3.97 
   0  -5  -1   70.17    3.98 
   0  -5   1   70.62    3.98 
   0  -5  -1   70.16    3.96 
   0  -5  -1   66.97    3.96 
   0  -5  -1   71.88    3.95 
   0  -5   1   70.36    3.94 
   0  -5   1   70.90    3.95 
   0  -5  -1   71.65    3.96 
   0  -5   1   73.40    3.95 
   0  -5  -1   72.34    3.94 
   0   5  -1   74.18    3.95 
   0   5   1   73.31    3.94 
   0   5  -1   75.27    3.98 
   0   5  -1   75.11    3.96 
   0   5   1   73.82    3.99 
   0   5   1   73.88    3.95 
   0   5   1   69.28    3.98 
   0   5   1   74.02    3.98 
  -1  -5  -1   35.95    1.86 
  -1  -5  -1   34.24    1.88 
  -1  -5  -1   34.60    1.91 
   1  -5   1   33.88    1.92 
  -1  -5  -1   34.54    1.88 
   1  -5   1   33.95    1.90 
   1  -5   1   36.01    1.89 
  -1  -5  -1   34.65    1.89 
   1  -5   1   35.95    1.91 
   1  -5   1   35.44    1.90 
   1   5   1   33.14    1.88 
   1   5   1   33.15    1.89 
  -1   5  -1   32.57    1.92 
   1   5   1   32.47    1.92 
   1   5   1   32.37    1.91 
  -1   5  -1   32.54    1.89 
  -1   5  -1   31.85    1.88 
   2  -5   1   41.02    2.06 
  -2  -5  -1   39.68    2.07 
   2   5   1   29.71    2.05 
  -3  -5  -1   93.75    5.14 
   3  -5   1   96.94    5.15 
  -3  -5  -1   97.19    5.13 
   3  -5   1   98.26    5.21 
   3  -5   1   96.41    5.15 
   3  -5   1   96.49    5.17 
  -3  -5  -1   95.40    5.16 
   3  -5   1   89.74    5.26 
  -3  -5  -1   91.67    5.16 
  -3   5  -1   91.62    5.15 
   3   5   1   91.63    5.16 
   3   5   1   93.12    5.17 
  -3   5  -1   93.94    5.14 
   3   5   1   94.56    5.11 
  -3   5  -1   89.79    5.20 
  -3   5  -1   91.24    5.16 
  -3   5  -1   94.64    5.17 
   3   5   1   88.85    5.18 
   4  -5   1   10.79    0.84 
  -4  -5  -1   11.14    0.79 
  -4  -5  -1   10.66    0.82 
   4  -5   1   10.90    0.83 
  -4   5  -1   14.30    0.82 
   4   5   1   14.95    0.86 
   4   5   1   14.36    0.84 
  -4   5  -1   14.61    0.85 
   4   5   1   14.91    0.76 
  -4   5  -1   15.34    0.91 
  -4   5  -1   14.34    0.82 
   4   5   1   14.20    0.86 
   4   5   1   14.48    0.80 
  -4   5  -1   14.28    0.84 
   5  -5   1   34.52    2.18 
   5  -5   1   36.05    2.26 
   5  -5   1   35.70    2.21 
  -5  -5  -1   34.79    2.17 
  -5  -5  -1   34.49    2.19 
  -5  -5  -1   35.43    2.17 
  -5  -5  -1   35.31    2.21 
  -5   5  -1   41.68    2.21 
   5   5   1   41.12    2.17 
   5   5   1   41.48    2.23 
  -5   5  -1   42.52    2.23 
  -5   5  -1   43.01    2.29 
   5   5   1   41.57    2.13 
   5   5   1   41.18    2.24 
   5   5   1   40.16    2.21 
   6  -5   1   32.03    1.86 
   6  -5   1   31.60    1.92 
  -6  -5  -1   30.53    1.80 
   6  -5   1   32.23    1.77 
  -6  -5  -1   32.32    1.84 
  -6  -5  -1   30.79    1.85 
  -6  -5  -1   31.52    1.81 
   6  -5   1   30.60    1.82 
   6   5   1   31.21    1.75 
  -6   5  -1   32.32    1.85 
   6   5   1   31.61    1.86 
   6   5   1   30.20    1.79 
  -6   5  -1   31.43    1.91 
  -6   5  -1   31.32    1.85 
  -6   5  -1   31.46    1.86 
  -7  -5  -1    0.51    0.22 
  -7  -5  -1    0.55    0.22 
  -7  -5  -1    0.48    0.23 
   7  -5   1    0.45    0.16 
  -7  -5  -1    0.33    0.22 
   7  -5   1    0.54    0.27 
   7  -5   1    0.86    0.23 
  -7   5  -1    0.46    0.25 
  -7   5  -1    0.43    0.27 
   7   5   1    0.49    0.26 
  -7   5  -1    0.64    0.27 
   7   5   1    0.44    0.21 
  -7   5  -1    0.59    0.28 
   7   5   1    0.44    0.17 
   8  -5   1   20.78    1.26 
   8  -5   1   22.27    1.38 
  -8  -5  -1   20.95    1.31 
  -8  -5  -1   20.39    1.27 
  -8   5  -1   17.09    1.30 
   8   5   1   17.07    1.30 
  -8   5  -1   18.48    1.36 
   8  -6  -1    4.09    0.58 
  -8  -6   1    3.82    0.61 
  -8  -6   1    3.91    0.48 
   8  -6  -1    4.83    0.58 
  -8  -6   1    3.44    0.60 
  -8   6   1    4.48    0.65 
  -8   6   1    4.43    0.66 
  -8   6   1    3.32    0.55 
   8   6  -1    4.97    0.63 
  -7  -6   1   19.12    1.18 
   7  -6  -1   19.90    1.13 
  -7  -6   1   18.45    1.09 
  -7  -6   1   18.59    1.08 
   7  -6  -1   18.84    1.22 
  -7  -6   1   19.23    1.09 
  -7   6   1   16.02    1.22 
   7   6  -1   16.21    1.14 
   7   6  -1   16.40    1.04 
   7   6  -1   15.85    1.09 
  -7   6   1   15.81    1.14 
  -7   6   1   16.29    1.16 
  -7   6   1   16.89    1.21 
   6  -6  -1   19.97    1.30 
   6  -6  -1   19.87    1.30 
  -6  -6   1   19.62    1.26 
  -6  -6   1   20.81    1.23 
   6  -6  -1   19.81    1.36 
  -6  -6   1   19.83    1.33 
  -6  -6   1   20.35    1.27 
   6  -6  -1   20.08    1.38 
  -6  -6   1   20.05    1.26 
   6   6  -1   25.04    1.25 
   6   6  -1   24.73    1.30 
  -6   6   1   25.14    1.45 
  -6   6   1   24.92    1.48 
  -6   6   1   24.55    1.36 
   5  -6  -1   34.20    2.08 
  -5  -6   1   35.35    1.97 
  -5  -6   1   35.84    1.94 
   5  -6  -1   34.42    2.01 
  -5  -6   1   34.54    2.03 
  -5  -6   1   35.33    1.97 
   5  -6  -1   34.72    2.05 
   5  -6  -1   34.51    2.02 
   5  -6  -1   35.40    1.95 
  -5  -6   1   35.01    1.98 
   5  -6  -1   29.95    2.02 
  -5   6   1   32.38    2.20 
   5   6  -1   37.02    1.99 
  -5   6   1   35.80    2.03 
   5   6  -1   36.58    2.04 
  -5   6   1   38.46    2.05 
   5   6  -1   36.32    1.96 
   5   6  -1   35.77    2.04 
  -5   6   1   36.64    2.05 
  -4  -6   1  119.60    6.89 
   4  -6  -1  126.43    6.98 
   4  -6  -1  118.22    6.91 
   4  -6  -1  120.16    6.94 
   4  -6  -1  123.99    6.93 
  -4  -6   1  121.47    6.88 
  -4  -6   1  123.57    6.88 
  -4  -6   1  124.07    6.92 
   4  -6  -1  123.23    6.88 
   4  -6  -1  123.76    6.92 
  -4   6   1  126.65    6.91 
  -4   6   1  130.91    6.94 
  -4   6   1  134.48    6.94 
   4   6  -1  130.53    6.93 
  -4   6   1  129.39    6.93 
   4   6  -1  129.58    6.90 
   4   6  -1  127.36    6.95 
  -4   6   1  129.74    7.00 
   4   6  -1  128.09    6.87 
  -3  -6   1    1.18    0.20 
   3  -6  -1    0.89    0.18 
   3  -6  -1    0.84    0.15 
  -3  -6   1    1.08    0.16 
  -3  -6   1    1.12    0.13 
   3  -6  -1    0.73    0.17 
  -3  -6   1    1.02    0.17 
   3  -6  -1    0.97    0.16 
   3  -6  -1    1.13    0.17 
   3  -6  -1    1.00    0.16 
  -3  -6   1    1.03    0.15 
  -3   6   1    1.18    0.20 
  -3   6   1    1.26    0.17 
   3   6  -1    0.94    0.18 
  -3   6   1    0.94    0.17 
   3   6  -1    1.25    0.15 
  -3   6   1    1.17    0.20 
   3   6  -1    1.35    0.14 
  -3   6   1    0.87    0.20 
   3   6  -1    1.12    0.19 
   2  -6  -1   75.59    4.27 
  -2  -6   1   76.00    4.24 
  -2  -6   1   75.49    4.24 
  -2  -6   1   74.05    4.24 
   2  -6  -1   72.80    4.26 
   2  -6  -1   72.73    4.28 
   2  -6  -1   74.86    4.31 
  -2  -6   1   75.78    4.22 
  -2  -6   1   77.44    4.22 
  -2  -6   1   75.23    4.28 
   2  -6  -1   76.47    4.27 
  -2  -6   1   75.44    4.25 
  -2   6   1   81.99    4.33 
   2   6  -1   81.59    4.25 
  -2   6   1   83.05    4.28 
   2   6  -1   79.18    4.30 
  -2   6   1   80.42    4.27 
  -2   6   1   80.88    4.26 
   2   6  -1   81.57    4.26 
   1  -6  -1   72.57    4.00 
   1  -6  -1   69.63    4.02 
  -1  -6   1   72.69    3.99 
   1  -6  -1   72.22    4.01 
  -1  -6   1   70.15    4.03 
   1  -6  -1   70.93    4.01 
  -1  -6   1   73.34    3.98 
   1  -6  -1   67.51    4.01 
  -1  -6   1   72.88    4.01 
  -1  -6   1   72.53    3.99 
  -1  -6   1   70.62    3.98 
   1  -6  -1   71.99    4.01 
  -1  -6   1   71.56    3.99 
  -1  -6   1   69.41    3.98 
  -1   6   1   71.48    4.05 
   1   6  -1   75.45    4.01 
  -1   6   1   74.98    4.04 
   1   6  -1   76.12    3.98 
   1   6  -1   74.53    4.04 
  -1   6   1   75.79    4.00 
  -1   6   1   73.05    3.99 
   1   6  -1   76.36    4.02 
  -1   6   1   77.00    4.03 
   0  -6   1   13.64    0.83 
   0  -6  -1   13.54    0.84 
   0  -6  -1   14.18    0.82 
   0  -6   1   14.30    0.84 
   0  -6   1   13.63    0.83 
   0  -6  -1   13.81    0.85 
   0  -6  -1   14.00    0.84 
   0  -6   1   13.92    0.87 
   0  -6  -1   13.79    0.84 
   0  -6  -1   13.79    0.87 
   0   6   1   14.83    0.87 
   0   6  -1   15.54    0.87 
   0   6  -1   15.71    0.86 
   0   6   1   15.42    0.83 
   0   6   1   14.83    0.87 
   0   6   1   15.33    0.83 
   0   6   1   15.18    0.89 
  -1  -6  -1   34.51    1.93 
  -1  -6  -1   31.65    1.89 
   1  -6   1   31.88    1.93 
   1  -6   1   31.94    1.90 
  -1  -6  -1   31.50    1.89 
   1  -6   1   31.90    1.90 
  -1  -6  -1   31.94    1.92 
  -1  -6  -1   32.84    1.86 
   1  -6   1   33.13    1.92 
   1  -6   1   33.32    1.90 
  -1  -6  -1   32.90    1.89 
  -1   6  -1   42.26    1.92 
   1   6   1   41.95    1.96 
  -2  -6  -1   74.66    4.21 
  -2  -6  -1   76.66    4.18 
  -2  -6  -1   74.34    4.19 
   2  -6   1   75.72    4.21 
   2  -6   1   74.12    4.19 
  -2  -6  -1   74.87    4.18 
   2  -6   1   77.06    4.21 
   2  -6   1   76.44    4.24 
   2  -6   1   77.26    4.21 
  -2   6  -1   77.93    4.25 
  -2   6  -1   77.75    4.17 
  -2   6  -1   76.93    4.21 
   2   6   1   77.47    4.20 
  -2   6  -1   76.19    4.19 
   2   6   1   73.92    4.23 
   2   6   1   76.54    4.21 
  -3  -6  -1    4.03    0.30 
  -3  -6  -1    4.09    0.32 
  -3  -6  -1    4.29    0.28 
   3  -6   1    4.02    0.33 
   3  -6   1    4.23    0.39 
   3  -6   1    4.19    0.32 
   3  -6   1    3.91    0.31 
   3  -6   1    3.96    0.35 
  -3  -6  -1    3.96    0.32 
  -3   6  -1    3.63    0.33 
   3   6   1    3.76    0.33 
   3   6   1    3.87    0.36 
  -3   6  -1    3.42    0.39 
   3   6   1    3.71    0.29 
  -3   6  -1    3.51    0.33 
  -3   6  -1    3.66    0.29 
   3   6   1    3.61    0.31 
  -3   6  -1    3.62    0.30 
   4  -6   1  139.72    7.40 
  -4  -6  -1  134.01    7.36 
   4  -6   1  135.50    7.45 
   4  -6   1  138.13    7.40 
   4  -6   1  136.69    7.36 
  -4  -6  -1  133.95    7.38 
   4  -6   1  132.62    7.38 
  -4  -6  -1  132.80    7.36 
  -4  -6  -1  135.34    7.38 
   4   6   1  132.41    7.35 
  -4   6  -1  135.77    7.45 
  -4   6  -1  131.13    7.37 
  -4   6  -1  132.30    7.40 
   4   6   1  132.28    7.38 
   4   6   1  136.20    7.42 
  -4   6  -1  133.83    7.39 
   4   6   1  133.79    7.40 
  -4   6  -1  130.41    7.36 
   5  -6   1    3.52    0.44 
  -5  -6  -1    3.29    0.36 
  -5  -6  -1    3.47    0.31 
  -5  -6  -1    3.44    0.30 
   5  -6   1    3.63    0.41 
   5  -6   1    3.32    0.29 
   5  -6   1    3.25    0.34 
  -5  -6  -1    2.73    0.53 
  -5   6  -1    2.55    0.33 
   5   6   1    2.35    0.36 
  -5   6  -1    2.37    0.35 
   5   6   1    2.41    0.31 
   5   6   1    2.41    0.29 
  -5   6  -1    2.21    0.44 
   5   6   1    2.40    0.37 
  -5   6  -1    2.59    0.34 
  -6  -6  -1    1.27    0.24 
   6  -6   1    1.36    0.29 
   6  -6   1    0.19    0.16 
   6   6   1    0.47    0.17 
  -6   6  -1    0.65    0.27 
  -6   6  -1    0.60    0.17 
   6   6   1    0.79    0.26 
  -6   6  -1    0.39    0.26 
   6   6   1    0.49    0.20 
   6   6   1    0.90    0.21 
  -6   6  -1    0.75    0.25 
  -6   6  -1    0.68    0.23 
  -7  -6  -1   31.40    1.87 
   7  -6   1   30.59    1.77 
  -7  -6  -1   30.79    1.82 
  -7  -6  -1   30.82    1.84 
  -7  -6  -1   30.98    1.82 
   7  -6   1   32.44    1.90 
   7  -6   1   31.66    1.83 
  -7   6  -1   29.57    1.91 
  -7   6  -1   30.33    1.85 
   7   6   1   30.59    1.87 
   7   6   1   31.44    1.75 
  -7   6  -1   29.62    1.93 
  -8  -6  -1    1.87    0.37 
   8  -6   1    2.02    0.53 
   8  -6   1    2.26    0.36 
  -8  -6  -1    2.16    0.36 
   8   6   1    1.13    0.44 
  -8   6  -1    1.16    0.38 
  -8   6  -1    1.34    0.43 
  -7  -7   1    2.19    0.31 
  -7  -7   1    2.51    0.33 
  -7  -7   1    2.62    0.35 
   7  -7  -1    2.34    0.44 
  -7  -7   1    2.19    0.37 
   7  -7  -1    2.30    0.35 
   7   7  -1    2.15    0.40 
   7   7  -1    2.54    0.41 
  -7   7   1    1.86    0.37 
  -7   7   1    2.59    0.49 
  -7   7   1    2.39    0.39 
  -7   7   1    2.18    0.46 
   6  -7  -1   40.43    2.48 
   6  -7  -1   42.85    2.39 
   6  -7  -1   41.37    2.44 
  -6  -7   1   39.55    2.34 
  -6  -7   1   41.20    2.35 
  -6  -7   1   40.96    2.33 
  -6  -7   1   40.70    2.41 
   6  -7  -1   40.76    2.39 
  -6   7   1   42.87    2.42 
  -6   7   1   43.38    2.44 
   6   7  -1   41.84    2.42 
  -6   7   1   39.85    2.58 
  -6   7   1   43.35    2.51 
   6   7  -1   43.16    2.43 
   6   7  -1   41.36    2.31 
   5  -7  -1   94.25    5.44 
  -5  -7   1   94.74    5.38 
   5  -7  -1   94.13    5.42 
  -5  -7   1   95.38    5.43 
   5  -7  -1   93.47    5.49 
   5  -7  -1   92.96    5.44 
  -5  -7   1   96.27    5.37 
   5  -7  -1   95.63    5.36 
  -5  -7   1   95.82    5.37 
   5   7  -1  100.91    5.36 
  -5   7   1  103.99    5.45 
   5   7  -1  101.15    5.44 
  -5   7   1  100.02    5.45 
  -5   7   1  100.60    5.52 
   5   7  -1  101.43    5.39 
  -5   7   1  103.53    5.43 
   5   7  -1   98.90    5.45 
   4  -7  -1   13.93    0.92 
   4  -7  -1   14.15    0.87 
  -4  -7   1   13.01    0.80 
   4  -7  -1   13.97    0.90 
  -4  -7   1   13.62    0.80 
   4  -7  -1   13.97    0.82 
  -4  -7   1   13.27    0.81 
  -4  -7   1   13.84    0.85 
  -4   7   1   13.75    0.87 
  -4   7   1   13.74    0.85 
  -4   7   1   13.36    0.84 
   4   7  -1   13.05    0.79 
   4   7  -1   13.28    0.85 
   4   7  -1   13.51    0.89 
  -4   7   1   13.47    0.95 
  -4   7   1   13.95    0.88 
   4   7  -1   13.59    0.81 
   3  -7  -1   41.51    2.28 
   3  -7  -1   41.90    2.30 
  -3  -7   1   40.90    2.24 
   3  -7  -1   42.65    2.29 
  -3  -7   1   41.10    2.26 
  -3  -7   1   42.80    2.32 
  -3  -7   1   42.04    2.24 
   3  -7  -1   42.36    2.27 
   3  -7  -1   42.21    2.34 
   3   7  -1   38.14    2.25 
  -3   7   1   37.81    2.28 
   3   7  -1   39.23    2.31 
  -3   7   1   39.15    2.29 
  -3   7   1   38.50    2.34 
   3   7  -1   38.46    2.27 
  -3   7   1   38.66    2.26 
  -3   7   1   38.76    2.26 
  -2  -7   1   51.23    2.66 
  -2  -7   1   50.32    2.70 
  -2  -7   1   50.82    2.69 
   2  -7  -1   50.27    2.73 
   2  -7  -1   50.71    2.78 
  -2  -7   1   49.27    2.70 
   2  -7  -1   49.69    2.73 
   2  -7  -1   49.38    2.72 
   2  -7  -1   48.76    2.74 
  -2  -7   1   50.35    2.69 
   2  -7  -1   50.84    2.73 
  -2  -7   1   50.06    2.67 
  -2  -7   1   50.47    2.74 
  -2  -7   1   50.41    2.77 
  -2   7   1   46.16    2.73 
   2   7  -1   44.56    2.75 
  -2   7   1   46.42    2.78 
  -2   7   1   46.39    2.71 
  -2   7   1   45.98    2.72 
   2   7  -1   46.17    2.70 
   2   7  -1   45.85    2.71 
   1  -7  -1   33.44    1.90 
  -1  -7   1   32.88    1.87 
   1  -7  -1   32.88    1.89 
  -1  -7   1   33.38    1.86 
  -1  -7   1   33.40    1.85 
  -1  -7   1   33.08    1.84 
  -1  -7   1   33.28    1.87 
   1  -7  -1   33.32    1.90 
   1  -7  -1   33.95    1.87 
   1  -7  -1   33.00    1.89 
  -1  -7   1   32.58    1.92 
  -1  -7   1   33.55    1.86 
   1  -7  -1   33.16    1.88 
  -1  -7   1   32.51    1.86 
   1   7  -1   34.55    1.88 
  -1   7   1   34.19    1.94 
  -1   7   1   33.59    1.85 
   1   7  -1   33.75    1.85 
  -1   7   1   33.61    1.87 
   1   7  -1   33.22    1.90 
  -1   7   1   32.84    1.92 
  -1   7   1   34.37    1.90 
   1   7  -1   33.26    1.92 
   0  -7   1  105.45    5.82 
   0  -7  -1  104.76    5.83 
   0  -7   1  105.94    5.82 
   0  -7  -1  108.71    5.80 
   0  -7   1  105.93    5.82 
   0  -7   1  105.02    5.81 
   0  -7  -1   98.77    5.88 
   0  -7   1  106.83    5.81 
   0  -7   1  100.37    5.86 
   0  -7  -1  107.45    5.83 
   0  -7  -1  107.22    5.82 
   0  -7  -1  103.61    5.82 
   0   7  -1   95.40    5.87 
   0   7  -1  113.33    5.86 
   0   7   1  107.61    5.86 
   0   7   1  109.90    5.80 
   0   7   1  107.75    5.86 
   0   7   1  110.75    5.81 
   0   7   1  111.36    5.87 
  -1  -7  -1   28.35    1.61 
  -1  -7  -1   29.00    1.60 
   1  -7   1   28.13    1.60 
   1  -7   1   28.50    1.65 
  -1  -7  -1   28.61    1.56 
  -1  -7  -1   28.66    1.60 
   1  -7   1   27.29    1.60 
  -1  -7  -1   29.77    1.65 
   1  -7   1   28.12    1.61 
   1  -7   1   29.89    1.61 
   1  -7   1   28.29    1.63 
  -1  -7  -1   27.78    1.60 
   1   7   1   27.10    1.63 
   1   7   1   28.58    1.60 
   1   7   1   27.95    1.62 
  -1   7  -1   28.64    1.60 
   1   7   1   26.88    1.64 
  -1   7  -1   27.49    1.65 
  -1   7  -1   29.31    1.61 
  -2  -7  -1   45.29    2.57 
   2  -7   1   46.13    2.59 
   2  -7   1   44.70    2.57 
  -2  -7  -1   44.33    2.57 
  -2  -7  -1   45.10    2.60 
  -2  -7  -1   45.63    2.56 
   2  -7   1   44.33    2.63 
   2  -7   1   44.17    2.59 
  -2   7  -1   47.70    2.64 
  -2   7  -1   47.07    2.53 
   2   7   1   47.63    2.60 
  -2   7  -1   47.95    2.59 
  -2   7  -1   46.80    2.56 
   2   7   1   48.91    2.58 
   2   7   1   46.48    2.62 
  -3  -7  -1   53.54    2.92 
  -3  -7  -1   53.10    2.95 
   3  -7   1   53.24    2.97 
   3  -7   1   52.09    2.96 
   3  -7   1   54.88    3.02 
   3  -7   1   54.27    2.95 
   3  -7   1   51.05    2.95 
  -3  -7  -1   52.95    2.93 
  -3  -7  -1   51.95    2.96 
   3   7   1   53.56    3.00 
   3   7   1   52.78    2.96 
  -3   7  -1   52.17    2.92 
  -3   7  -1   52.80    2.96 
  -3   7  -1   53.10    2.94 
   3   7   1   51.86    2.93 
   3   7   1   52.17    2.96 
  -3   7  -1   51.82    3.01 
   4  -7   1    0.45    0.16 
   4  -7   1    0.31    0.14 
   4  -7   1    0.55    0.21 
  -4  -7  -1    0.47    0.17 
   4  -7   1    0.60    0.20 
   4  -7   1    0.62    0.16 
   4   7   1    0.13    0.12 
   4   7   1    0.10    0.18 
   4   7   1    0.16    0.14 
  -4   7  -1    0.26    0.23 
  -4   7  -1   -0.03    0.16 
   4   7   1    0.16    0.15 
  -4   7  -1    0.21    0.13 
  -4   7  -1    0.17    0.18 
  -4   7  -1    0.02    0.13 
   5  -7   1   14.59    0.97 
  -5  -7  -1   14.66    0.93 
   5  -7   1   14.37    0.94 
   5  -7   1   14.97    0.93 
  -5  -7  -1   14.62    0.92 
   5  -7   1   15.01    1.03 
  -5  -7  -1   14.97    0.89 
   5  -7   1   14.66    0.89 
  -5  -7  -1   14.55    0.95 
  -5   7  -1   13.72    1.11 
   5   7   1   14.35    0.88 
   5   7   1   14.31    0.96 
  -5   7  -1   14.55    0.92 
   5   7   1   14.74    0.98 
  -5   7  -1   14.49    0.95 
  -5   7  -1   14.11    0.96 
  -6  -7  -1   25.56    1.53 
   6  -7   1   25.34    1.45 
  -6  -7  -1   25.44    1.49 
  -6  -7  -1   23.64    1.49 
   6  -7   1   26.89    1.64 
   6  -7   1   25.58    1.50 
  -6  -7  -1   24.72    1.50 
  -6   7  -1   25.86    1.51 
  -6   7  -1   24.67    1.56 
  -6   7  -1   25.14    1.62 
   6   7   1   24.27    1.55 
   6   7   1   24.89    1.51 
   6   7   1   24.94    1.56 
   6   7   1   24.50    1.46 
  -7  -7  -1    0.05    0.26 
   7  -7   1    0.15    0.36 
  -7  -7  -1    0.15    0.22 
   7  -7   1    0.50    0.25 
  -7  -7  -1    0.24    0.27 
   7   7   1   -0.13    0.29 
  -7   7  -1   -0.02    0.37 
  -7   7  -1    0.10    0.34 
  -7   7  -1   -0.06    0.28 
   7  -8  -1   25.45    1.50 
  -7  -8   1   25.71    1.52 
  -7  -8   1   24.07    1.53 
  -7  -8   1   24.45    1.43 
   7  -8  -1   25.37    1.64 
  -7   8   1   23.66    1.54 
  -7   8   1   22.33    1.52 
  -7   8   1   24.23    1.65 
  -7   8   1   21.83    1.58 
   7   8  -1   23.22    1.55 
  -6  -8   1    9.81    0.63 
  -6  -8   1    9.46    0.65 
   6  -8  -1   10.26    0.70 
   6  -8  -1    8.87    0.80 
  -6  -8   1   10.27    0.64 
  -6  -8   1   10.02    0.73 
   6   8  -1    8.12    0.73 
  -6   8   1    8.35    0.73 
   6   8  -1    8.53    0.74 
  -6   8   1    8.45    0.73 
  -6   8   1    7.81    0.75 
  -6   8   1    9.44    0.87 
   6   8  -1    8.79    0.70 
  -5  -8   1   17.23    1.07 
   5  -8  -1   18.26    1.14 
  -5  -8   1   17.72    1.13 
  -5  -8   1   17.31    1.07 
   5  -8  -1   17.86    1.13 
   5  -8  -1   17.89    1.19 
   5  -8  -1   17.59    1.23 
   5  -8  -1   17.36    1.12 
  -5   8   1   19.54    1.14 
  -5   8   1   19.21    1.17 
   5   8  -1   18.53    1.15 
   5   8  -1   18.82    1.18 
  -5   8   1   19.16    1.27 
  -5   8   1   18.58    1.17 
  -5   8   1   18.74    1.12 
   5   8  -1   18.82    1.09 
   4  -8  -1   58.27    3.08 
  -4  -8   1   56.54    3.06 
  -4  -8   1   57.15    3.02 
  -4  -8   1   57.70    3.02 
   4  -8  -1   57.04    3.05 
   4  -8  -1   57.31    3.09 
   4  -8  -1   58.26    3.16 
   4  -8  -1   58.78    3.11 
  -4   8   1   51.04    3.08 
  -4   8   1   52.34    3.06 
   4   8  -1   51.63    3.04 
  -4   8   1   52.46    3.16 
   4   8  -1   51.92    3.07 
   4   8  -1   51.80    3.03 
   4   8  -1   50.49    3.10 
  -4   8   1   50.70    3.08 
  -3  -8   1    4.50    0.34 
  -3  -8   1    4.17    0.32 
   3  -8  -1    4.34    0.35 
  -3  -8   1    4.24    0.39 
  -3  -8   1    4.22    0.39 
  -3  -8   1    4.41    0.31 
  -3  -8   1    4.33    0.31 
   3  -8  -1    4.47    0.37 
   3  -8  -1    4.39    0.46 
   3  -8  -1    4.19    0.42 
  -3   8   1    3.97    0.49 
   3   8  -1    4.00    0.32 
  -3   8   1    3.71    0.36 
   3   8  -1    3.75    0.34 
   3   8  -1    3.68    0.41 
  -3   8   1    4.03    0.35 
  -3   8   1    3.90    0.38 
  -3   8   1    3.70    0.34 
  -2  -8   1   33.74    1.96 
  -2  -8   1   33.87    1.95 
   2  -8  -1   34.78    2.00 
  -2  -8   1   33.86    1.96 
  -2  -8   1   35.37    1.99 
  -2  -8   1   34.31    1.96 
   2  -8  -1   33.76    1.99 
   2  -8  -1   35.01    1.99 
  -2  -8   1   34.44    2.04 
   2  -8  -1   32.42    2.01 
   2  -8  -1   34.24    2.00 
  -2   8   1   36.41    2.00 
   2   8  -1   36.01    1.97 
   2   8  -1   35.22    2.04 
  -2   8   1   36.15    1.98 
   2   8  -1   36.55    1.98 
  -2   8   1   37.06    2.08 
  -2   8   1   37.22    2.05 
   2   8  -1   36.72    1.99 
  -1  -8   1  200.24   10.92 
   1  -8  -1  205.18   10.94 
  -1  -8   1  204.45   10.91 
  -1  -8   1  198.73   10.98 
   1  -8  -1  195.23   10.94 
   1  -8  -1  207.51   10.93 
   1  -8  -1  204.89   10.96 
  -1  -8   1  204.38   10.93 
  -1  -8   1  206.36   10.93 
   1  -8  -1  204.51   10.97 
  -1  -8   1  205.29   10.93 
   1  -8  -1  201.80   10.95 
   1   8  -1  196.08   10.90 
   1   8  -1  196.92   10.95 
  -1   8   1  195.15   10.96 
  -1   8   1  192.63   10.91 
  -1   8   1  195.39   10.98 
  -1   8   1  196.81   10.93 
   1   8  -1  199.82   10.96 
  -1   8   1  194.55   10.99 
   1   8  -1  195.59   10.98 
   0  -8  -1    9.05    0.54 
   0  -8   1    8.43    0.57 
   0  -8   1    8.83    0.57 
   0  -8  -1    8.87    0.59 
   0  -8  -1    9.19    0.57 
   0  -8  -1    9.27    0.61 
   0  -8  -1    8.71    0.58 
   0  -8  -1    8.78    0.57 
   0  -8   1    8.65    0.61 
   0  -8   1    8.75    0.56 
   0  -8   1    8.70    0.56 
   0  -8   1    8.72    0.55 
   0   8   1    9.22    0.54 
   0   8   1    8.88    0.61 
   0   8  -1    8.93    0.59 
   0   8  -1    9.54    0.63 
   0   8   1    9.24    0.62 
   0   8   1    9.22    0.64 
  -1  -8  -1   39.22    2.33 
  -1  -8  -1   38.68    2.33 
  -1  -8  -1   39.82    2.33 
   1  -8   1   39.13    2.33 
   1  -8   1   40.02    2.37 
   1  -8   1   38.84    2.34 
  -1  -8  -1   39.23    2.28 
   1  -8   1   39.46    2.33 
  -1  -8  -1   37.57    2.32 
   1  -8   1   39.30    2.37 
   1  -8   1   38.69    2.33 
  -1   8  -1   45.91    2.32 
   1   8   1   46.22    2.37 
  -1   8  -1   46.29    2.34 
   1   8   1   46.00    2.39 
  -1   8  -1   44.57    2.39 
   1   8   1   42.97    2.39 
   1   8   1   47.25    2.33 
  -2  -8  -1   43.64    2.34 
  -2  -8  -1   44.97    2.33 
  -2  -8  -1   43.90    2.33 
   2  -8   1   44.60    2.37 
   2  -8   1   44.88    2.36 
  -2  -8  -1   45.15    2.32 
   2  -8   1   43.50    2.34 
  -2  -8  -1   43.61    2.33 
   2  -8   1   46.36    2.42 
   2  -8   1   45.07    2.36 
   2  -8   1   44.04    2.37 
  -2   8  -1   38.71    2.40 
   2   8   1   37.54    2.33 
  -2   8  -1   37.78    2.34 
   2   8   1   37.24    2.36 
  -2   8  -1   37.07    2.32 
  -2   8  -1   37.06    2.33 
   2   8   1   38.04    2.35 
   2   8   1   37.33    2.38 
   3  -8   1    0.35    0.17 
  -3  -8  -1    0.32    0.15 
   3  -8   1    0.31    0.19 
  -3  -8  -1    0.32    0.14 
  -3  -8  -1    0.31    0.13 
   3  -8   1    0.33    0.14 
  -3  -8  -1    0.30    0.12 
   3  -8   1    0.39    0.16 
   3  -8   1    0.23    0.15 
   3  -8   1    0.34    0.17 
  -3   8  -1    0.80    0.17 
  -3   8  -1    0.63    0.12 
  -3   8  -1    0.91    0.26 
   3   8   1    0.62    0.17 
   3   8   1    0.52    0.27 
  -3   8  -1    0.51    0.14 
  -4  -8  -1   26.05    1.53 
  -4  -8  -1   26.06    1.50 
   4  -8   1   25.04    1.56 
   4  -8   1   25.52    1.62 
   4  -8   1   24.39    1.53 
  -4  -8  -1   24.74    1.51 
   4  -8   1   25.16    1.52 
  -4  -8  -1   25.59    1.54 
   4  -8   1   25.56    1.54 
   4   8   1   26.69    1.50 
  -4   8  -1   27.65    1.50 
   4   8   1   26.34    1.58 
  -4   8  -1   27.01    1.52 
  -4   8  -1   25.78    1.55 
  -4   8  -1   27.16    1.64 
   4   8   1   27.18    1.56 
   4   8   1   27.22    1.54 
   5  -8   1   18.51    1.18 
  -5  -8  -1   18.45    1.09 
   5  -8   1   18.15    1.12 
   5  -8   1   18.13    1.14 
  -5  -8  -1   17.97    1.12 
  -5  -8  -1   18.20    1.10 
  -5  -8  -1   18.04    1.13 
   5  -8   1   18.08    1.25 
   5   8   1   17.67    1.12 
   5   8   1   17.59    1.08 
  -5   8  -1   17.83    1.16 
  -5   8  -1   17.81    1.25 
   5   8   1   18.32    1.18 
  -5   8  -1   17.43    1.11 
  -5   8  -1   18.41    1.10 
  -6  -8  -1    5.41    0.53 
  -6  -8  -1    5.20    0.50 
  -6  -8  -1    5.54    0.56 
  -6  -8  -1    5.57    0.50 
   6  -8   1    4.89    0.64 
   6  -8   1    4.82    0.50 
   6  -8   1    5.36    0.47 
  -6   8  -1    5.17    0.70 
  -6   8  -1    5.34    0.65 
   6   8   1    4.89    0.48 
   6   8   1    5.02    0.60 
  -6   8  -1    5.28    0.53 
   6   8   1    4.84    0.57 
  -7  -8  -1    9.60    0.88 
   7  -8   1   10.51    0.84 
   7  -8   1   10.53    1.00 
  -7  -8  -1    9.61    0.81 
   7   8   1   12.33    0.94 
  -7   8  -1   12.61    0.89 
  -7   8  -1   12.16    1.04 
  -7  -9   1    1.03    0.25 
   7  -9  -1    0.76    0.31 
  -7  -9   1    0.91    0.38 
   7   9  -1    0.67    0.41 
  -7   9   1    0.58    0.39 
  -7   9   1    0.90    0.47 
  -6  -9   1   42.60    2.27 
  -6  -9   1   40.85    2.27 
  -6  -9   1   41.08    2.29 
   6  -9  -1   41.60    2.34 
   6  -9  -1   40.09    2.40 
  -6  -9   1   41.16    2.35 
   6   9  -1   38.22    2.37 
  -6   9   1   38.38    2.38 
   6   9  -1   39.15    2.28 
  -6   9   1   39.07    2.48 
   6   9  -1   39.23    2.38 
  -6   9   1   40.63    2.35 
  -6   9   1   38.34    2.36 
   5  -9  -1   54.80    3.07 
   5  -9  -1   54.93    3.01 
  -5  -9   1   55.10    2.91 
  -5  -9   1   55.31    2.90 
   5  -9  -1   54.88    2.97 
  -5  -9   1   45.49    3.09 
  -5   9   1   50.35    2.98 
   5   9  -1   51.61    2.91 
   5   9  -1   50.17    2.96 
  -5   9   1   50.80    2.94 
   5   9  -1   49.47    2.99 
  -5   9   1   51.43    3.08 
  -5   9   1   50.72    2.99 
  -4  -9   1    3.74    0.39 
   4  -9  -1    4.52    0.42 
  -4  -9   1    3.73    0.34 
   4  -9  -1    3.31    0.51 
  -4  -9   1    3.84    0.32 
  -4  -9   1    3.23    0.71 
   4  -9  -1    3.84    0.55 
  -4  -9   1    4.07    0.35 
   4  -9  -1    4.09    0.41 
   4  -9  -1    3.39    0.39 
  -4   9   1    4.41    0.41 
   4   9  -1    4.26    0.41 
   4   9  -1    4.31    0.46 
  -4   9   1    4.39    0.46 
  -4   9   1    4.45    0.65 
   4   9  -1    4.53    0.36 
   4   9  -1    4.50    0.38 
  -4   9   1    3.85    0.37 
  -4   9   1    3.94    0.43 
  -3  -9   1   43.38    2.35 
  -3  -9   1   42.98    2.36 
  -3  -9   1   44.27    2.44 
  -3  -9   1   43.04    2.35 
   3  -9  -1   44.26    2.40 
   3  -9  -1   43.19    2.39 
   3  -9  -1   43.93    2.47 
  -3  -9   1   42.80    2.37 
   3  -9  -1   37.92    2.46 
   3  -9  -1   44.13    2.40 
  -3  -9   1   43.28    2.40 
  -3   9   1   41.10    2.40 
  -3   9   1   39.81    2.44 
   3   9  -1   39.69    2.43 
   3   9  -1   40.26    2.36 
  -3   9   1   40.56    2.39 
  -3   9   1   41.50    2.36 
   3   9  -1   41.23    2.36 
  -3   9   1   41.18    2.37 
  -3   9   1   41.07    2.48 
  -2  -9   1   30.31    1.67 
  -2  -9   1   29.08    1.65 
  -2  -9   1   29.95    1.63 
   2  -9  -1   30.44    1.68 
   2  -9  -1   29.61    1.71 
   2  -9  -1   28.87    1.69 
  -2  -9   1   30.54    1.65 
  -2  -9   1   30.39    1.67 
  -2  -9   1   30.10    1.65 
   2  -9  -1   29.15    1.70 
   2  -9  -1   28.94    1.68 
   2  -9  -1   29.93    1.70 
   2   9  -1   28.72    1.67 
   2   9  -1   28.35    1.69 
  -2   9   1   27.06    1.63 
  -2   9   1   28.09    1.68 
   2   9  -1   26.92    1.72 
   2   9  -1   27.51    1.64 
  -2   9   1   29.37    1.78 
  -1  -9   1    3.92    0.39 
  -1  -9   1    4.21    0.33 
  -1  -9   1    3.86    0.32 
   1  -9  -1    3.89    0.35 
   1  -9  -1    3.88    0.38 
   1  -9  -1    3.87    0.34 
   1  -9  -1    4.21    0.33 
  -1  -9   1    3.58    0.35 
  -1  -9   1    3.91    0.29 
   1  -9  -1    3.75    0.36 
  -1  -9   1    4.00    0.32 
   1  -9  -1    4.04    0.37 
  -1   9   1    3.93    0.46 
  -1   9   1    4.00    0.29 
  -1   9   1    4.06    0.39 
   1   9  -1    3.77    0.39 
   1   9  -1    4.01    0.27 
  -1   9   1    4.21    0.35 
   1   9  -1    4.01    0.35 
   0  -9   1   68.40    3.77 
   0  -9  -1   67.74    3.79 
   0  -9   1   68.06    3.77 
   0  -9   1   65.72    3.78 
   0  -9   1   68.16    3.77 
   0  -9  -1   69.22    3.78 
   0  -9   1   66.16    3.82 
   0  -9  -1   68.07    3.82 
   0  -9  -1   67.90    3.78 
   0  -9  -1   66.84    3.78 
   0  -9   1   69.54    3.76 
   0  -9  -1   70.06    3.74 
   0   9  -1   69.68    3.82 
   0   9   1   67.61    3.82 
   0   9   1   69.50    3.75 
   0   9  -1   67.64    3.80 
   0   9   1   67.49    3.84 
   0   9   1   66.91    3.81 
   1  -9   1   16.40    0.97 
   1  -9   1   16.03    1.02 
  -1  -9  -1   16.81    0.96 
  -1  -9  -1   16.49    0.90 
   1  -9   1   16.88    1.01 
   1  -9   1   17.18    0.97 
  -1  -9  -1   17.15    0.96 
  -1  -9  -1   16.73    0.96 
   1   9   1   14.75    1.02 
  -1   9  -1   15.43    1.03 
   1   9   1   15.03    1.02 
   1   9   1   15.23    0.94 
  -1   9  -1   14.76    0.99 
   1   9   1   15.34    0.99 
   2  -9   1    2.28    0.29 
   2  -9   1    2.04    0.37 
  -2  -9  -1    2.08    0.27 
   2  -9   1    2.29    0.39 
  -2  -9  -1    2.11    0.26 
   2  -9   1    2.09    0.32 
   2  -9   1    2.23    0.29 
  -2  -9  -1    2.34    0.26 
  -2  -9  -1    2.30    0.27 
   2  -9   1    2.18    0.31 
   2   9   1    2.45    0.28 
   2   9   1    2.44    0.28 
  -2   9  -1    2.61    0.43 
   2   9   1    2.74    0.37 
  -2   9  -1    2.55    0.27 
  -2   9  -1    2.54    0.26 
  -2   9  -1    2.33    0.28 
   2   9   1    2.42    0.35 
  -3  -9  -1   53.35    2.96 
   3  -9   1   53.78    3.01 
  -3  -9  -1   52.31    2.97 
   3  -9   1   55.04    3.08 
   3  -9   1   52.62    3.01 
  -3  -9  -1   52.82    3.01 
  -3  -9  -1   55.00    2.99 
  -3  -9  -1   52.45    2.97 
   3  -9   1   49.89    3.00 
   3  -9   1   52.59    2.99 
   3  -9   1   52.61    3.02 
  -3   9  -1   55.08    2.97 
  -3   9  -1   54.91    2.93 
   3   9   1   55.03    3.00 
  -3   9  -1   56.91    3.09 
   3   9   1   52.37    3.05 
   3   9   1   54.97    3.02 
   3   9   1   44.87    3.05 
  -3   9  -1   53.85    3.01 
   4  -9   1    3.76    0.40 
  -4  -9  -1    3.66    0.34 
   4  -9   1    3.50    0.36 
  -4  -9  -1    3.42    0.43 
   4  -9   1    3.33    0.43 
  -4  -9  -1    3.57    0.37 
  -4  -9  -1    3.95    0.38 
   4  -9   1    3.83    0.38 
   4  -9   1    4.06    0.55 
   4  -9   1    3.59    0.39 
  -4   9  -1    2.42    0.36 
   4   9   1    2.41    0.39 
   4   9   1    2.12    0.41 
  -4   9  -1    2.54    0.54 
  -4   9  -1    2.46    0.30 
   4   9   1    2.52    0.35 
   4   9   1    2.29    0.35 
   5  -9   1   13.13    0.90 
  -5  -9  -1   13.36    0.90 
  -5  -9  -1   13.28    0.88 
  -5  -9  -1   13.20    0.87 
   5  -9   1   13.17    0.88 
   5  -9   1   13.65    0.98 
   5  -9   1   13.05    1.06 
  -5  -9  -1   12.99    0.91 
  -5   9  -1   13.66    0.95 
   5   9   1   13.62    0.86 
   5   9   1   14.24    0.97 
  -5   9  -1   13.71    1.08 
  -5   9  -1   13.96    0.87 
   5   9   1   14.09    0.90 
   6  -9   1   12.60    0.91 
   6  -9   1   13.21    1.04 
  -6  -9  -1   12.07    0.91 
  -6  -9  -1   12.31    0.93 
  -6  -9  -1   12.48    0.90 
   6   9   1   14.31    1.00 
  -6   9  -1   14.16    0.92 
  -6   9  -1   14.58    1.15 
  -6 -10   1    6.05    0.44 
  -6 -10   1    6.27    0.65 
   6 -10  -1    5.79    0.77 
   6  10  -1    4.72    0.60 
  -6  10   1    4.67    0.63 
   6  10  -1    5.06    0.66 
  -6  10   1    5.07    0.89 
  -6  10   1    4.30    0.64 
  -5 -10   1   18.39    1.12 
  -5 -10   1   18.73    1.10 
   5 -10  -1   18.12    1.17 
   5 -10  -1   18.89    1.26 
  -5 -10   1   18.75    1.27 
  -5 -10   1   18.44    1.16 
  -5 -10   1   17.45    1.07 
  -5  10   1   17.78    1.35 
   5  10  -1   17.56    1.22 
   5  10  -1   17.74    1.11 
  -5  10   1   18.19    1.20 
  -5  10   1   18.70    1.16 
   4 -10  -1   45.60    2.66 
  -4 -10   1   48.12    2.60 
   4 -10  -1   44.93    2.56 
  -4 -10   1   46.48    2.52 
   4 -10  -1   46.75    2.56 
  -4 -10   1   45.47    2.48 
   4 -10  -1   47.34    2.54 
  -4 -10   1   45.88    2.50 
  -4 -10   1   46.26    2.49 
   4 -10  -1   47.02    2.61 
  -4  10   1   40.88    2.56 
   4  10  -1   42.61    2.51 
   4  10  -1   42.18    2.53 
  -4  10   1   41.23    2.52 
   4  10  -1   42.56    2.60 
  -4  10   1   43.20    2.67 
  -4  10   1   40.78    2.55 
  -4  10   1   41.85    2.51 
   3 -10  -1    7.92    0.62 
  -3 -10   1    7.85    0.56 
  -3 -10   1    8.28    0.57 
  -3 -10   1    8.47    0.61 
   3 -10  -1    7.93    0.62 
  -3 -10   1    7.45    0.63 
   3 -10  -1    7.70    0.59 
   3 -10  -1    8.16    0.67 
  -3 -10   1    7.89    0.56 
   3 -10  -1    7.84    0.61 
   3 -10  -1    7.51    0.67 
  -3 -10   1    8.16    0.55 
  -3  10   1    9.49    0.81 
  -3  10   1    8.87    0.54 
   3  10  -1    9.06    0.58 
  -3  10   1    9.22    0.58 
  -3  10   1    9.12    0.65 
  -3  10   1    9.39    0.64 
   3  10  -1    7.29    0.57 
   3  10  -1    9.45    0.68 
   2 -10  -1   24.10    1.48 
   2 -10  -1   26.27    1.47 
  -2 -10   1   24.96    1.45 
  -2 -10   1   25.68    1.45 
   2 -10  -1   24.60    1.50 
   2 -10  -1   24.93    1.50 
   2 -10  -1   25.52    1.51 
  -2 -10   1   24.72    1.45 
  -2 -10   1   24.76    1.45 
   2 -10  -1   24.87    1.48 
  -2  10   1   25.69    1.42 
  -2  10   1   26.47    1.49 
  -2  10   1   26.74    1.61 
   2  10  -1   25.41    1.47 
   2  10  -1   25.16    1.42 
  -2  10   1   25.67    1.43 
   2  10  -1   21.04    1.62 
   1 -10  -1   54.43    3.63 
   1 -10  -1   63.90    3.63 
  -1 -10   1   66.86    3.60 
  -1 -10   1   64.93    3.60 
   1 -10  -1   65.22    3.65 
   1 -10  -1   64.87    3.62 
  -1 -10   1   65.81    3.60 
  -1 -10   1   66.26    3.57 
   1 -10  -1   64.88    3.62 
   1 -10  -1   64.62    3.62 
  -1 -10   1   65.18    3.59 
  -1  10   1   64.95    3.56 
  -1  10   1   66.66    3.70 
   1  10  -1   64.02    3.63 
   1  10  -1   68.88    3.66 
   0 -10  -1    6.17    0.63 
   0 -10  -1    7.65    0.57 
   0 -10  -1    7.21    0.52 
   0 -10  -1    7.19    0.53 
   0 -10   1    7.27    0.51 
   0 -10   1    6.87    0.50 
   0 -10  -1    7.14    0.46 
   0 -10  -1    7.04    0.50 
   0 -10   1    7.38    0.48 
   0 -10   1    6.86    0.51 
   0 -10   1    7.25    0.51 
   0  10   1    6.39    0.45 
   0  10  -1    6.64    0.60 
   0  10   1    6.73    0.62 
   0  10   1    6.32    0.56 
  -1 -10  -1    7.07    0.52 
  -1 -10  -1    7.14    0.50 
   1 -10   1    7.73    0.55 
   1 -10   1    7.00    0.51 
   1 -10   1    7.16    0.52 
   1 -10   1    6.18    0.59 
  -1 -10  -1    7.02    0.51 
   1 -10   1    7.06    0.53 
   1 -10   1    7.11    0.57 
  -1 -10  -1    7.18    0.52 
  -1 -10  -1    7.24    0.42 
   2 -10   1   44.13    2.52 
   2 -10   1   44.25    2.58 
  -2 -10  -1   42.79    2.49 
   2 -10   1   44.39    2.55 
   2 -10   1   43.92    2.50 
   2 -10   1   45.00    2.53 
  -2 -10  -1   43.53    2.49 
   2 -10   1   44.62    2.51 
  -2 -10  -1   42.09    2.49 
  -2 -10  -1   44.03    2.49 
   2  10   1   45.21    2.49 
  -2  10  -1   44.68    2.51 
   2  10   1   43.29    2.57 
   2  10   1   44.22    2.55 
  -2  10  -1   45.22    2.47 
  -2  10  -1   45.43    2.60 
  -3 -10  -1    3.97    0.40 
   3 -10   1    4.29    0.45 
   3 -10   1    3.72    0.41 
  -3 -10  -1    4.07    0.38 
  -3 -10  -1    4.19    0.37 
  -3 -10  -1    4.10    0.40 
   3 -10   1    3.95    0.46 
   3 -10   1    4.62    0.59 
  -3 -10  -1    4.05    0.38 
   3 -10   1    3.82    0.46 
   3 -10   1    3.71    0.41 
   3  10   1    4.50    0.50 
  -3  10  -1    4.22    0.39 
  -3  10  -1    4.51    0.44 
   3  10   1    4.29    0.41 
   3  10   1    4.75    0.44 
  -3  10  -1    4.16    0.61 
   3  10   1    4.76    0.50 
  -3  10  -1    4.69    0.41 
  -4 -10  -1   21.58    1.35 
   4 -10   1   20.72    1.35 
  -4 -10  -1   20.67    1.28 
  -4 -10  -1   21.25    1.30 
   4 -10   1   21.26    1.36 
  -4 -10  -1   21.64    1.31 
   4 -10   1   20.60    1.31 
   4 -10   1   21.92    1.48 
   4 -10   1   21.36    1.34 
  -4  10  -1   22.08    1.50 
   4  10   1   21.90    1.34 
   4  10   1   22.40    1.32 
  -4  10  -1   22.13    1.24 
   4  10   1   21.02    1.38 
   4  10   1   22.64    1.36 
  -4  10  -1   21.92    1.30 
  -5 -10  -1   13.58    0.96 
   5 -10   1   14.47    0.98 
   5 -10   1   14.55    1.07 
  -5 -10  -1   13.99    0.99 
  -5 -10  -1   14.25    0.97 
   5 -10   1   15.10    1.24 
   5 -10   1   14.89    1.01 
   5  10   1   15.42    1.06 
  -5  10  -1   15.60    1.21 
  -5  10  -1   15.79    0.93 
   5  10   1   15.29    1.06 
  -6 -10  -1    1.42    0.31 
   6 -10   1    1.36    0.44 
  -6 -10  -1    0.99    0.35 
   6 -10   1    0.98    0.30 
  -6  10  -1    2.20    0.55 
   5 -11  -1   14.73    1.08 
  -5 -11   1   14.21    0.83 
  -5 -11   1   15.02    0.95 
   5 -11  -1   15.38    0.95 
  -5  11   1   11.93    1.19 
   5  11  -1   11.22    1.00 
  -5  11   1   13.17    1.07 
  -5  11   1   11.98    1.01 
   5  11  -1   11.69    0.98 
  -4 -11   1    1.20    0.26 
  -4 -11   1    1.00    0.19 
  -4 -11   1    1.22    0.26 
   4 -11  -1    1.32    0.35 
   4 -11  -1    1.40    0.41 
   4 -11  -1    1.01    0.25 
  -4 -11   1    1.42    0.47 
  -4 -11   1    1.27    0.24 
  -4  11   1    1.02    0.31 
   4  11  -1    0.89    0.29 
   4  11  -1    1.06    0.24 
  -4  11   1    1.05    0.25 
   4  11  -1    1.10    0.28 
  -4  11   1    0.78    0.44 
   3 -11  -1   21.09    1.30 
   3 -11  -1   20.47    1.30 
  -3 -11   1   21.44    1.26 
  -3 -11   1   20.38    1.25 
  -3 -11   1   20.47    1.25 
   3 -11  -1   21.27    1.35 
  -3 -11   1   20.84    1.23 
  -3 -11   1   20.87    1.24 
  -3 -11   1   20.90    1.25 
  -3  11   1   18.86    1.58 
  -3  11   1   22.13    1.23 
  -3  11   1   21.69    1.21 
   3  11  -1   21.63    1.25 
   3  11  -1   22.05    1.27 
   2 -11  -1   25.50    1.66 
  -2 -11   1   26.36    1.49 
   2 -11  -1   25.08    1.51 
   2 -11  -1   25.31    1.54 
  -2 -11   1   26.18    1.48 
  -2 -11   1   26.01    1.48 
   2 -11  -1   26.08    1.50 
   2 -11  -1   25.44    1.54 
  -2 -11   1   25.51    1.48 
   2  11  -1   24.22    1.50 
   2  11  -1   25.21    1.54 
  -2  11   1   24.51    1.43 
  -2  11   1   24.53    1.44 
  -2  11   1   25.58    1.66 
  -1 -11   1    6.04    0.48 
   1 -11  -1    6.40    0.55 
  -1 -11   1    5.64    0.54 
   1 -11  -1    6.25    0.51 
   1 -11  -1    5.82    0.49 
   1 -11  -1    6.14    0.47 
  -1 -11   1    6.16    0.50 
   1 -11  -1    6.51    0.54 
  -1 -11   1    6.39    0.43 
  -1 -11   1    6.10    0.49 
  -1  11   1    6.70    0.71 
   1  11  -1    6.41    0.51 
  -1  11   1    6.22    0.42 
   1  11  -1    6.57    0.61 
  -1  11   1    5.96    0.56 
   0 -11   1   50.41    3.00 
   0 -11   1   51.42    3.00 
   0 -11  -1   51.13    3.00 
   0 -11  -1   52.26    3.01 
   0 -11   1   50.68    2.99 
   0 -11  -1   52.18    2.95 
   0 -11   1   52.73    2.97 
   0 -11   1   52.70    3.00 
   0 -11  -1   52.54    3.00 
   0 -11   1   51.20    3.06 
   0 -11  -1   50.84    3.02 
   0  11   1   57.27    3.10 
   0  11  -1   56.72    3.08 
   0  11  -1   56.02    3.04 
   0  11   1   55.32    3.06 
   0  11   1   56.96    2.95 
   0  11   1   55.81    3.06 
  -1 -11  -1    7.64    0.56 
   1 -11   1    8.12    0.58 
   1 -11   1    7.93    0.56 
  -1 -11  -1    7.88    0.57 
   1 -11   1    7.22    0.57 
   1 -11   1    8.25    0.64 
   1 -11   1    7.93    0.60 
   1 -11   1    7.63    0.56 
  -1 -11  -1    7.92    0.55 
  -1 -11  -1    7.56    0.57 
   1  11   1    6.57    0.68 
   1  11   1    7.27    0.63 
   1  11   1    6.93    0.51 
  -1  11  -1    7.16    0.70 
   1  11   1    6.77    0.58 
  -1  11  -1    6.68    0.58 
   2 -11   1    4.10    0.54 
   2 -11   1    3.19    0.43 
   2 -11   1    4.08    0.43 
   2 -11   1    4.19    0.46 
  -2 -11  -1    4.09    0.43 
  -2 -11  -1    3.79    0.40 
   2 -11   1    4.23    0.53 
  -2 -11  -1    4.14    0.42 
   2 -11   1    3.74    0.46 
  -2 -11  -1    3.77    0.39 
   2  11   1    5.35    0.43 
   2  11   1    5.42    0.53 
  -2  11  -1    4.78    0.64 
   2  11   1    5.19    0.57 
   2  11   1    4.97    0.45 
  -3 -11  -1   24.17    1.45 
  -3 -11  -1   23.79    1.50 
   3 -11   1   24.46    1.48 
  -3 -11  -1   24.47    1.46 
   3 -11   1   24.68    1.52 
  -3 -11  -1   25.18    1.46 
   3 -11   1   25.12    1.51 
   3 -11   1   25.43    1.63 
  -3 -11  -1   23.85    1.45 
   3  11   1   23.93    1.47 
  -3  11  -1   25.00    1.63 
  -3  11  -1   24.67    1.45 
   3  11   1   25.26    1.54 
   3  11   1   24.26    1.55 
  -4 -11  -1    0.81    0.20 
  -4 -11  -1    1.00    0.32 
   4 -11   1    0.47    0.27 
   4 -11   1    0.78    0.24 
  -4 -11  -1    0.80    0.25 
   4 -11   1    0.83    0.48 
  -4  11  -1    0.48    0.25 
  -4  11  -1    0.14    0.43 
   4  11   1    0.58    0.29 
   4  11   1    0.13    0.27 
  -4  11  -1    0.28    0.29 
   5 -11   1    7.00    0.77 
  -5 -11  -1    6.17    0.66 
  -5 -11  -1    6.53    0.53 
   5 -11   1    6.03    0.58 
  -4 -12   1    9.61    0.65 
  -4 -12   1    9.84    0.82 
   4 -12  -1    8.74    0.88 
  -4 -12   1    9.20    0.74 
   4 -12  -1    9.58    0.75 
  -4  12   1   10.30    1.12 
  -3 -12   1    3.41    0.37 
   3 -12  -1    3.58    0.44 
  -3 -12   1    2.91    0.46 
  -3 -12   1    3.69    0.45 
   3 -12  -1    3.41    0.57 
   3 -12  -1    4.01    0.53 
  -3  12   1    2.83    0.57 
  -2 -12   1   13.57    0.89 
   2 -12  -1   13.36    0.97 
  -2 -12   1   13.27    0.88 
   2 -12  -1   13.97    0.92 
  -2 -12   1   13.12    0.90 
   2 -12  -1   13.79    0.91 
   2 -12  -1   13.73    0.96 
  -2 -12   1   13.66    0.86 
  -2  12   1   14.07    1.15 
  -1 -12   1   17.13    1.07 
  -1 -12   1   17.82    1.06 
  -1 -12   1   17.64    1.00 
   1 -12  -1   17.87    1.10 
  -1 -12   1   17.35    1.09 
   1 -12  -1   17.47    1.13 
   1 -12  -1   16.71    1.10 
   1 -12  -1   17.95    1.05 
  -1  12   1   15.89    1.27 
   1  12  -1   15.06    1.16 
   0 -12   1    1.63    0.28 
   0 -12  -1    1.68    0.30 
   0 -12   1    1.60    0.26 
   0 -12   1    1.74    0.28 
   0 -12  -1    1.40    0.26 
   0 -12   1    1.96    0.33 
   0 -12  -1    1.73    0.27 
   0 -12   1    1.69    0.29 
   0 -12  -1    1.74    0.22 
   0  12   1    1.34    0.19 
   0  12  -1    1.58    0.38 
   0  12   1    1.44    0.40 
   1 -12   1   34.23    1.91 
  -1 -12  -1   31.11    1.90 
  -1 -12  -1   32.67    1.91 
   1 -12   1   33.27    1.93 
  -1 -12  -1   32.46    1.91 
  -1 -12  -1   32.85    1.91 
   1 -12   1   32.27    1.91 
   1 -12   1   33.10    1.93 
   1  12   1   32.90    1.99 
   1  12   1   32.72    1.86 
  -1  12  -1   32.53    2.02 
   1  12   1   32.57    2.02 
  -2 -12  -1   11.80    0.89 
   2 -12   1   12.60    0.92 
   2 -12   1   12.40    0.90 
  -2 -12  -1   12.36    0.89 
   2 -12   1   12.59    0.93 
  -2 -12  -1   12.24    0.88 
   2  12   1   15.60    0.89 
   2  12   1   16.26    1.00 
  -2  12  -1   16.38    1.13 
   3 -12   1    7.64    0.68 
   3 -12   1    7.17    0.75 
  -3 -12  -1    7.54    0.57 
   3 -12   1    7.12    0.62 
  -3 -12  -1    7.40    0.89 
  -3 -12  -1    7.51    0.64 
   3  12   1    7.42    0.69 
  -3  12  -1    7.77    1.16 
  -4 -12  -1   16.58    1.02 
   4 -12   1   15.36    1.31 
   4 -12   1   16.99    1.07 
   4 -12   1   16.97    1.15 
  -4 -12  -1   17.68    1.09 
   4  12   1   14.20    1.13 
  -4  12  -1   14.31    1.36 
  -3 -13   1    6.36    0.63 
   3 -13  -1    6.23    0.80 
   3 -13  -1    6.55    0.76 
  -3 -13   1    6.48    0.54 
  -3  13   1    8.51    1.10 
   2 -13  -1   10.17    0.83 
  -2 -13   1   10.44    0.72 
  -2 -13   1   10.74    0.77 
   2 -13  -1   10.60    0.78 
  -2  13   1    8.76    1.09 
   1 -13  -1   25.11    1.50 
  -1 -13   1   23.27    1.45 
  -1 -13   1   23.84    1.47 
   1 -13  -1   23.35    1.50 
  -1  13   1   26.20    1.73 
   0 -13  -1   24.96    1.51 
   0 -13  -1   25.02    1.51 
   0 -13   1   25.48    1.49 
   0 -13   1   25.47    1.50 
   0  13   1   21.85    1.69 
  -1 -13  -1    0.79    0.27 
  -1 -13  -1    0.71    0.23 
   1 -13   1    0.75    0.26 
   1 -13   1    0.80    0.25 
  -1  13  -1    0.32    0.53 
   2 -13   1    2.57    0.38 
   2 -13   1    2.44    0.45 
   2 -13   1    2.37    0.35 
  -2 -13  -1    2.13    0.35 
  -2 -13  -1    2.57    0.40 
   2  13   1    2.80    0.49 
  -2  13  -1    3.23    0.61 
  -3 -13  -1   20.06    1.32 
   3 -13   1   21.13    1.37 
   3 -13   1   20.14    1.33 
  -3  13  -1   20.74    1.62 
  -9   0   2    5.67    0.62 
  -9   0   2    5.91    0.67 
  -9   0   2    6.02    0.70 
  -8   0   2   26.32    1.59 
  -8   0   2   25.83    1.61 
  -8   0   2   25.48    1.55 
   8   0  -2   26.53    1.58 
  -8   0   2   26.63    1.58 
  -8   0   2   26.25    1.64 
  -7   0   2    1.15    0.28 
  -7   0   2    1.28    0.25 
  -7   0   2    1.12    0.23 
   7   0  -2    1.20    0.23 
   7   0  -2    1.11    0.22 
  -7   0   2    1.01    0.19 
   7   0  -2    1.28    0.18 
   7   0  -2    1.07    0.18 
  -7   0   2    1.12    0.25 
   6   0  -2   15.68    0.97 
  -6   0   2   15.70    0.93 
  -6   0   2   15.71    0.94 
   6   0  -2   15.49    0.95 
   6   0  -2   15.47    0.88 
  -6   0   2   15.98    0.97 
   6   0  -2   15.74    0.89 
  -6   0   2   15.75    0.98 
  -6   0   2   14.37    1.01 
   5   0  -2   73.96    4.17 
  -5   0   2   75.57    4.14 
  -5   0   2   75.33    4.13 
  -5   0   2   73.87    4.15 
   5   0  -2   75.88    4.10 
   5   0  -2   74.61    4.10 
  -5   0   2   76.25    4.17 
  -5   0   2   72.61    4.18 
   5   0  -2   76.39    4.17 
  -4   0   2   39.77    2.26 
  -4   0   2   40.86    2.24 
  -4   0   2   39.97    2.27 
   4   0  -2   40.61    2.22 
   4   0  -2   40.48    2.25 
  -4   0   2   40.09    2.23 
  -4   0   2   39.33    2.28 
   4   0  -2   40.98    2.22 
   4   0  -2   40.83    2.26 
  -3   0   2   72.60    4.04 
  -3   0   2   73.51    4.00 
   3   0  -2   72.92    4.01 
  -3   0   2   73.25    4.01 
  -3   0   2   73.12    4.02 
   3   0  -2   73.58    3.99 
  -3   0   2   71.65    4.02 
   3   0  -2   71.56    4.02 
  -3   0   2   75.79    3.99 
   3   0  -2   72.17    3.99 
   2   0  -2  106.87    5.96 
  -2   0   2  107.02    5.92 
  -2   0   2  107.46    5.94 
  -2   0   2  111.42    5.92 
  -2   0   2  108.96    5.91 
   2   0  -2  101.80    5.90 
   2   0  -2  105.43    5.90 
  -2   0   2  111.35    5.93 
   2   0  -2  110.52    5.90 
  -2   0   2  110.12    5.92 
  -1   0   2   98.92    5.38 
  -1   0   2   98.33    5.38 
   1   0  -2   98.95    5.40 
  -1   0   2   96.99    5.43 
   1   0  -2   98.30    5.37 
   1   0  -2   97.32    5.37 
  -1   0   2   97.07    5.37 
   1   0  -2   97.87    5.38 
   0   0  -2  138.93    8.08 
   0   0   2  150.20    8.04 
   0   0   2  149.38    8.06 
   0   0  -2  146.83    8.19 
   0   0   2  142.67    8.16 
   0   0  -2  141.97    8.04 
   0   0  -2  152.46    8.03 
   0   0   2  149.12    8.11 
  -1   0  -2  126.69    6.80 
  -1   0  -2  127.10    6.87 
   1   0   2  120.91    6.77 
   1   0   2  116.36    6.78 
  -1   0  -2  131.37    6.85 
  -1   0  -2  121.46    6.79 
   1   0   2  123.41    6.79 
  -2   0  -2   34.14    1.95 
   2   0   2   34.45    1.94 
  -2   0  -2   33.41    1.96 
  -2   0  -2   36.82    1.95 
  -2   0  -2   35.32    1.94 
   2   0   2   36.20    1.95 
   2   0   2   34.20    1.97 
   2   0   2   34.78    1.96 
   2   0   2   36.81    1.95 
   3   0   2   87.67    4.99 
  -3   0  -2   89.99    5.02 
  -3   0  -2   91.04    5.01 
   3   0   2   90.96    5.00 
  -3   0  -2   92.05    4.99 
   3   0   2   91.01    5.00 
   3   0   2   91.78    5.02 
   3   0   2   92.65    5.03 
  -3   0  -2   91.76    5.00 
   4   0   2   31.05    1.76 
   4   0   2   30.77    1.74 
  -4   0  -2   30.53    1.72 
  -4   0  -2   29.14    1.74 
  -4   0  -2   29.94    1.71 
  -4   0  -2   29.42    1.73 
   4   0   2   30.76    1.71 
   4   0   2   31.16    1.70 
   4   0   2   29.53    1.71 
  -5   0  -2    6.97    0.53 
   5   0   2    6.95    0.51 
  -5   0  -2    7.14    0.47 
   5   0   2    6.99    0.47 
   5   0   2    6.69    0.49 
  -5   0  -2    7.10    0.50 
   5   0   2    6.87    0.53 
   5   0   2    6.70    0.48 
  -6   0  -2   26.02    1.52 
   6   0   2   26.99    1.50 
   6   0   2   25.21    1.56 
  -6   0  -2   26.12    1.56 
   6   0   2   26.55    1.53 
  -6   0  -2   26.24    1.55 
   6   0   2   25.47    1.53 
  -6   0  -2   26.08    1.57 
   7   0   2    7.55    0.61 
   7   0   2    8.13    0.57 
  -7   0  -2    7.73    0.57 
  -7   0  -2    8.38    0.64 
   7   0   2    8.41    0.65 
   7   0   2    8.45    0.59 
  -7   0  -2    7.97    0.65 
  -7   0  -2    7.49    0.65 
   7   0   2    7.77    0.64 
   8   0   2   12.61    0.96 
   8   0   2   13.29    0.87 
   8   0   2   13.48    0.88 
  -8   0  -2   13.46    0.95 
  -8   0  -2   13.38    1.05 
   8   0   2   12.90    0.95 
  -8   0  -2   12.94    0.96 
  -9  -1   2    9.66    0.88 
  -9  -1   2    8.86    0.86 
  -9  -1   2    9.51    0.84 
  -9   1   2   11.66    0.87 
  -9   1   2   10.99    0.90 
  -9   1   2   12.84    0.91 
  -8  -1   2    0.15    0.24 
  -8  -1   2    0.18    0.24 
   8  -1  -2    0.01    0.27 
  -8  -1   2    0.20    0.20 
   8  -1  -2    0.05    0.16 
   8  -1  -2    0.08    0.15 
  -8  -1   2    0.19    0.24 
  -8  -1   2    0.06    0.21 
  -8   1   2    0.43    0.25 
  -8   1   2    0.49    0.25 
  -8   1   2    0.56    0.27 
  -8   1   2    0.06    0.25 
   8   1  -2    0.21    0.23 
   8   1  -2    0.32    0.23 
  -7  -1   2   56.12    3.08 
   7  -1  -2   55.68    3.10 
  -7  -1   2   56.00    3.06 
  -7  -1   2   55.40    3.03 
   7  -1  -2   55.11    3.00 
   7  -1  -2   55.40    3.00 
   7  -1  -2   56.34    3.06 
  -7  -1   2   55.73    3.04 
  -7  -1   2   55.37    3.12 
  -7   1   2   52.19    3.11 
  -7   1   2   52.99    3.07 
   7   1  -2   51.78    3.04 
  -7   1   2   51.26    3.03 
  -7   1   2   52.63    3.06 
  -7   1   2   52.75    3.10 
   7   1  -2   51.73    3.03 
   6  -1  -2   37.00    2.02 
  -6  -1   2   37.18    1.98 
   6  -1  -2   37.69    1.94 
  -6  -1   2   31.63    2.08 
   6  -1  -2   37.74    1.93 
   6  -1  -2   37.58    1.99 
   6  -1  -2   37.17    1.98 
  -6  -1   2   36.97    1.96 
  -6  -1   2   36.91    1.95 
  -6  -1   2   37.58    2.00 
   6   1  -2   32.31    1.96 
  -6   1   2   31.85    1.97 
   6   1  -2   32.33    1.98 
  -6   1   2   31.29    2.02 
   6   1  -2   31.87    1.95 
  -6   1   2   31.02    2.01 
  -6   1   2   31.59    1.98 
  -6   1   2   31.88    1.95 
   5  -1  -2   27.00    1.48 
  -5  -1   2   26.79    1.45 
  -5  -1   2   26.94    1.47 
  -5  -1   2   25.68    1.52 
   5  -1  -2   27.24    1.51 
   5  -1  -2   26.38    1.45 
  -5  -1   2   27.11    1.49 
   5  -1  -2   27.18    1.45 
  -5  -1   2   27.40    1.50 
   5   1  -2   24.38    1.47 
  -5   1   2   24.47    1.51 
   5   1  -2   25.13    1.49 
  -5   1   2   23.88    1.47 
  -5   1   2   24.55    1.49 
   5   1  -2   24.10    1.46 
  -5   1   2   23.85    1.51 
  -4  -1   2   49.41    2.48 
   4  -1  -2   48.10    2.50 
  -4  -1   2   48.11    2.50 
   4  -1  -2   47.08    2.52 
  -4  -1   2   48.94    2.48 
  -4  -1   2   49.74    2.50 
   4  -1  -2   48.55    2.50 
  -4  -1   2   46.87    2.53 
   4  -1  -2   47.46    2.48 
   4  -1  -2   49.51    2.48 
  -4   1   2   38.94    2.50 
   4   1  -2   40.74    2.48 
   4   1  -2   40.73    2.47 
  -4   1   2   39.88    2.52 
  -4   1   2   40.83    2.48 
   4   1  -2   41.05    2.49 
  -4   1   2   41.40    2.49 
  -4   1   2   39.27    2.52 
  -3  -1   2  123.71    6.61 
  -3  -1   2  123.45    6.61 
  -3  -1   2  121.47    6.63 
  -3  -1   2  116.55    6.59 
  -3  -1   2  122.84    6.61 
   3  -1  -2  120.90    6.63 
   3  -1  -2  118.54    6.59 
   3  -1  -2  120.98    6.61 
   3  -1  -2  118.80    6.61 
  -3  -1   2  120.54    6.59 
   3  -1  -2  116.03    6.59 
   3   1  -2  122.05    6.64 
  -3   1   2  120.18    6.60 
  -3   1   2  127.11    6.61 
  -3   1   2  118.81    6.63 
   3   1  -2  124.53    6.59 
  -3   1   2  119.49    6.63 
   3   1  -2  119.98    6.60 
  -3   1   2  119.51    6.62 
  -2  -1   2   33.39    1.85 
  -2  -1   2   34.24    1.82 
  -2  -1   2   34.15    1.82 
   2  -1  -2   34.05    1.86 
  -2  -1   2   33.69    1.84 
  -2  -1   2   33.94    1.86 
   2  -1  -2   34.12    1.84 
  -2  -1   2   31.07    1.84 
  -2  -1   2   33.14    1.84 
   2  -1  -2   32.42    1.85 
   2  -1  -2   32.94    1.84 
   1  -1  -2  123.65    7.37 
  -1  -1   2  124.98    7.49 
  -1  -1   2  127.03    7.33 
   1  -1  -2  124.73    7.37 
   1  -1  -2  120.27    7.36 
  -1  -1   2  128.37    7.39 
   1  -1  -2  121.36    7.35 
   1  -1  -2  127.30    7.37 
  -1  -1   2  123.96    7.34 
  -1   1   2  135.63    7.38 
  -1   1   2  145.05    7.38 
   1   1  -2  143.49    7.33 
  -1   1   2  144.61    7.40 
  -1   1   2  142.75    7.52 
   1   1  -2  149.04    7.34 
  -1   1   2  143.49    7.46 
   1   1  -2  146.48    7.36 
  -1   1   2  140.71    7.43 
   0  -1  -2   73.52    3.87 
   0  -1  -2   71.68    3.94 
   0  -1   2   74.78    3.92 
   0  -1   2   74.16    3.88 
   0  -1   2   74.05    3.91 
   0  -1  -2   73.25    3.87 
   0  -1   2   72.81    3.85 
   0  -1  -2   67.33    3.86 
   0   1  -2   68.65    3.85 
   0   1   2   68.96    3.89 
   0   1  -2   70.08    3.87 
   0   1   2   65.09    3.85 
   0   1   2   70.05    3.87 
   0   1   2   66.08    3.91 
   0   1   2   66.05    3.85 
   0   1  -2   63.32    3.87 
  -1  -1  -2  443.24   22.66 
  -1  -1  -2  406.33   22.69 
  -1  -1  -2  448.07   22.62 
   1  -1   2  427.94   22.70 
   1  -1   2  436.21   22.61 
   1  -1   2  435.87   22.61 
   1  -1   2  452.54   22.63 
  -1  -1  -2  467.36   22.66 
  -1   1  -2  387.64   22.59 
   1   1   2  368.81   22.59 
   1   1   2  382.84   22.64 
  -1   1  -2  393.32   22.59 
   1   1   2  374.60   22.57 
   1   1   2  384.45   22.70 
  -1   1  -2  398.69   22.70 
  -1   1  -2  408.49   22.63 
   2  -1   2   97.24    5.39 
   2  -1   2   91.11    5.38 
  -2  -1  -2   93.72    5.38 
  -2  -1  -2   95.03    5.39 
   2  -1   2   90.97    5.38 
  -2  -1  -2   93.26    5.38 
   2  -1   2   97.62    5.41 
  -2  -1  -2   91.38    5.40 
   2  -1   2   98.98    5.39 
  -2   1  -2  101.66    5.38 
   2   1   2  100.09    5.38 
   2   1   2  100.20    5.38 
   2   1   2  104.96    5.38 
  -2   1  -2  103.42    5.39 
   2   1   2   97.70    5.40 
  -2   1  -2  106.26    5.39 
   2   1   2  101.36    5.41 
  -2   1  -2  105.97    5.41 
   3  -1   2   38.56    2.11 
  -3  -1  -2   39.02    2.09 
  -3  -1  -2   37.18    2.08 
   3  -1   2   37.27    2.08 
   3  -1   2   35.62    2.07 
  -3  -1  -2   36.07    2.07 
  -3  -1  -2   36.66    2.09 
   3  -1   2   39.48    2.08 
   3  -1   2   39.27    2.09 
   3   1   2   35.75    2.06 
   3   1   2   37.19    2.07 
   3   1   2   37.11    2.07 
  -3   1  -2   37.72    2.08 
   3   1   2   37.77    2.11 
  -3   1  -2   36.92    2.08 
   3   1   2   35.69    2.09 
  -3   1  -2   36.15    2.10 
  -3   1  -2   36.51    2.07 
  -4  -1  -2   26.78    1.54 
  -4  -1  -2   27.25    1.56 
  -4  -1  -2   27.34    1.58 
   4  -1   2   26.72    1.54 
   4  -1   2   25.78    1.59 
   4  -1   2   27.11    1.55 
  -4  -1  -2   26.48    1.57 
   4  -1   2   27.24    1.56 
   4  -1   2   27.24    1.57 
  -4   1  -2   28.36    1.56 
   4   1   2   26.00    1.61 
   4   1   2   28.16    1.54 
   4   1   2   25.93    1.63 
   4   1   2   27.98    1.54 
  -4   1  -2   27.77    1.59 
   4   1   2   27.48    1.55 
  -4   1  -2   29.88    1.57 
  -5  -1  -2  146.06    7.89 
  -5  -1  -2  144.81    7.88 
   5  -1   2  148.84    7.89 
  -5  -1  -2  142.60    7.91 
   5  -1   2  146.76    7.87 
   5  -1   2  145.44    7.89 
  -5  -1  -2  148.87    7.92 
   5  -1   2  148.77    7.92 
   5  -1   2  147.52    7.94 
   5   1   2  140.79    7.87 
  -5   1  -2  143.15    7.88 
   5   1   2  137.27    7.87 
  -5   1  -2  140.84    7.90 
   5   1   2  140.14    7.92 
   5   1   2  142.45    7.93 
   5   1   2  139.69    7.86 
  -5   1  -2  137.89    7.92 
  -5   1  -2  143.46    7.90 
   6  -1   2   10.32    0.81 
   6  -1   2   11.09    0.78 
   6  -1   2   10.92    0.80 
  -6  -1  -2   10.91    0.75 
  -6  -1  -2   11.43    0.81 
   6  -1   2   10.98    0.77 
  -6  -1  -2   10.74    0.78 
  -6  -1  -2   10.65    0.79 
   6  -1   2   11.00    0.75 
  -6   1  -2   13.96    0.84 
   6   1   2   13.95    0.78 
   6   1   2   13.82    0.79 
  -6   1  -2   13.77    0.81 
  -6   1  -2   13.63    0.77 
  -7  -1  -2   18.34    1.05 
   7  -1   2   15.16    1.09 
  -7  -1  -2   17.04    1.10 
   7  -1   2   16.28    1.08 
  -7  -1  -2   17.61    1.11 
   7  -1   2   17.06    1.14 
  -7  -1  -2   17.05    1.09 
   7  -1   2   17.34    1.11 
   7   1   2   16.99    1.06 
   7   1   2   16.92    1.10 
  -7   1  -2   16.07    1.04 
   7   1   2   16.95    1.07 
   7   1   2   17.12    1.05 
  -7   1  -2   16.47    1.10 
  -7   1  -2   16.15    1.11 
   7   1   2   16.90    1.02 
  -7   1  -2   16.49    1.09 
   8  -1   2   10.89    0.74 
  -8  -1  -2   11.38    0.81 
   8  -1   2   11.05    0.73 
   8  -1   2   11.22    0.85 
  -8  -1  -2   11.61    0.82 
  -8   1  -2    9.14    0.79 
  -8   1  -2    9.43    0.89 
  -8   1  -2    9.41    0.80 
   8   1   2    9.77    0.76 
   8   1   2    9.45    0.71 
   8   1   2    9.71    0.80 
  -9  -2   2    5.31    0.92 
  -9  -2   2    7.26    0.72 
  -9  -2   2    6.51    0.65 
  -9   2   2    5.21    0.70 
  -9   2   2    5.89    0.75 
  -9   2   2    5.88    0.71 
  -8  -2   2   18.35    1.13 
   8  -2  -2   18.77    1.09 
   8  -2  -2   18.86    1.20 
   8  -2  -2   18.58    1.09 
  -8  -2   2   19.69    1.18 
  -8  -2   2   18.64    1.16 
  -8  -2   2   19.00    1.23 
  -8   2   2   17.44    1.21 
  -8   2   2   17.22    1.20 
  -8   2   2   17.20    1.22 
  -8   2   2   17.23    1.18 
   8   2  -2   15.90    1.14 
   7  -2  -2    1.89    0.28 
   7  -2  -2    1.82    0.32 
   7  -2  -2    1.58    0.28 
  -7  -2   2    1.89    0.27 
   7  -2  -2    1.62    0.28 
  -7  -2   2    1.89    0.32 
  -7  -2   2    1.70    0.32 
  -7  -2   2    2.10    0.28 
   7  -2  -2    2.05    0.43 
  -7  -2   2    1.87    0.38 
  -7   2   2    2.38    0.40 
  -7   2   2    1.70    0.28 
   7   2  -2    1.70    0.29 
  -7   2   2    1.84    0.32 
   7   2  -2    2.08    0.30 
  -7   2   2    1.78    0.28 
  -7   2   2    1.81    0.27 
  -6  -2   2   37.24    2.11 
  -6  -2   2   31.75    2.32 
  -6  -2   2   38.72    2.14 
   6  -2  -2   38.75    2.10 
   6  -2  -2   38.83    2.15 
   6  -2  -2   38.76    2.14 
  -6  -2   2   39.12    2.13 
  -6   2   2   35.41    2.19 
   6   2  -2   37.75    2.14 
   6   2  -2   37.50    2.11 
   6   2  -2   37.67    2.10 
  -6   2   2   36.98    2.12 
  -6   2   2   37.71    2.15 
  -6   2   2   36.83    2.22 
  -6   2   2   37.39    2.14 
   6   2  -2   37.74    2.10 
   5  -2  -2   50.11    2.84 
  -5  -2   2   52.25    2.78 
   5  -2  -2   51.27    2.81 
   5  -2  -2   51.58    2.81 
   5  -2  -2   50.19    2.78 
  -5  -2   2   50.89    2.80 
  -5  -2   2   49.61    2.84 
  -5  -2   2   51.27    2.78 
   5  -2  -2   51.81    2.78 
  -5  -2   2   51.71    2.80 
  -5   2   2   47.95    2.84 
   5   2  -2   49.91    2.77 
  -5   2   2   48.37    2.85 
  -5   2   2   49.11    2.82 
   5   2  -2   48.84    2.78 
   5   2  -2   49.16    2.80 
   5   2  -2   49.87    2.78 
  -5   2   2   49.56    2.79 
  -5   2   2   49.84    2.81 
  -4  -2   2    1.73    0.17 
  -4  -2   2    1.90    0.15 
  -4  -2   2    1.68    0.24 
   4  -2  -2    1.66    0.23 
   4  -2  -2    1.57    0.21 
  -4  -2   2    1.70    0.20 
   4  -2  -2    1.69    0.20 
   4  -2  -2    1.66    0.18 
   4  -2  -2    1.86    0.18 
  -4  -2   2    1.81    0.18 
   4   2  -2    1.60    0.17 
  -4   2   2    1.75    0.21 
  -4   2   2    1.81    0.23 
   4   2  -2    1.72    0.18 
  -4   2   2    1.72    0.24 
   4   2  -2    1.71    0.16 
  -4   2   2    1.68    0.23 
  -4   2   2    1.75    0.17 
   4   2  -2    1.60    0.17 
  -3  -2   2   68.03    4.01 
   3  -2  -2   64.80    4.02 
  -3  -2   2   65.47    4.01 
  -3  -2   2   64.54    4.05 
   3  -2  -2   65.68    4.03 
  -3  -2   2   67.64    4.00 
   3  -2  -2   67.72    4.04 
  -3  -2   2   67.72    4.03 
  -3  -2   2   67.25    4.02 
   3  -2  -2   65.91    4.02 
   3  -2  -2   67.76    4.05 
   3   2  -2   81.27    4.03 
  -3   2   2   83.34    4.05 
   3   2  -2   82.68    4.02 
   3   2  -2   80.46    4.02 
  -3   2   2   83.79    4.04 
   3   2  -2   82.17    4.01 
  -3   2   2   80.53    4.03 
  -3   2   2   79.91    4.07 
  -3   2   2   81.08    4.06 
   2  -2  -2   61.20    3.37 
   2  -2  -2   61.78    3.36 
  -2  -2   2   62.75    3.37 
   2  -2  -2   62.59    3.36 
   2  -2  -2   59.79    3.39 
  -2  -2   2   61.29    3.34 
  -2  -2   2   62.77    3.36 
  -2  -2   2   62.57    3.38 
  -2  -2   2   65.12    3.34 
   2   2  -2   61.94    3.35 
  -2   2   2   59.39    3.36 
  -2   2   2   61.29    3.37 
  -2   2   2   59.76    3.37 
  -2   2   2   59.96    3.37 
  -2   2   2   62.99    3.34 
   2   2  -2   60.83    3.34 
  -2   2   2   55.74    3.39 
   1  -2  -2    7.37    0.46 
   1  -2  -2    7.66    0.46 
  -1  -2   2    8.18    0.50 
   1  -2  -2    7.33    0.46 
   1  -2  -2    7.43    0.46 
   1  -2  -2    7.73    0.46 
  -1   2   2    8.03    0.48 
  -1   2   2    7.87    0.48 
  -1   2   2    8.11    0.46 
  -1   2   2    8.07    0.46 
  -1   2   2    7.92    0.48 
   0  -2  -2  456.10   23.56 
   0  -2   2  461.70   23.46 
   0  -2  -2  448.70   23.43 
   0  -2  -2  454.57   23.39 
   0  -2  -2  470.62   23.46 
   0  -2   2  440.51   23.62 
   0  -2   2  476.69   23.36 
   0  -2   2  484.74   23.40 
   0  -2  -2  459.12   23.53 
   0   2   2  361.68   23.41 
   0   2  -2  387.75   23.31 
   0   2  -2  394.45   23.37 
   0   2   2  369.62   23.42 
   0   2   2  393.57   23.43 
   0   2   2  366.52   23.38 
  -1  -2  -2  278.97   16.98 
   1  -2   2  316.71   16.92 
  -1  -2  -2  295.98   16.94 
  -1  -2  -2  303.72   16.95 
   1  -2   2  316.89   16.95 
  -1  -2  -2  296.21   16.91 
   1  -2   2  302.79   16.94 
   1  -2   2  319.53   17.06 
   1   2   2  321.42   16.95 
  -1   2  -2  321.50   16.91 
   1   2   2  317.42   16.97 
  -1   2  -2  305.61   17.00 
  -1   2  -2  311.19   16.92 
  -1   2  -2  319.44   16.92 
   1   2   2  315.03   17.05 
   1   2   2  304.11   16.93 
  -2  -2  -2   27.89    1.38 
   2  -2   2   25.72    1.41 
   2  -2   2   27.70    1.39 
  -2  -2  -2   25.92    1.38 
   2  -2   2   25.96    1.38 
   2  -2   2   26.17    1.39 
   2   2   2   24.46    1.36 
   2   2   2   22.83    1.37 
  -2   2  -2   23.30    1.40 
   2   2   2   23.97    1.39 
   2   2   2   22.07    1.37 
  -2   2  -2   23.64    1.38 
  -2   2  -2   22.89    1.38 
  -2   2  -2   23.32    1.37 
   2   2   2   23.37    1.40 
  -3  -2  -2  125.45    7.15 
  -3  -2  -2  123.79    7.14 
   3  -2   2  120.71    7.16 
  -3  -2  -2  127.39    7.12 
   3  -2   2  124.49    7.13 
   3  -2   2  125.38    7.14 
   3  -2   2  126.02    7.14 
  -3  -2  -2  128.38    7.13 
   3  -2   2  128.40    7.14 
   3   2   2  134.58    7.12 
  -3   2  -2  136.11    7.14 
   3   2   2  134.46    7.13 
   3   2   2  139.48    7.16 
   3   2   2  133.38    7.12 
  -3   2  -2  135.23    7.13 
  -3   2  -2  132.49    7.16 
  -3   2  -2  136.79    7.14 
   3   2   2  133.07    7.16 
   4  -2   2   17.39    1.03 
  -4  -2  -2   18.26    1.04 
   4  -2   2   17.96    1.04 
   4  -2   2   18.02    1.01 
  -4  -2  -2   17.37    1.04 
  -4  -2  -2   17.56    1.01 
   4  -2   2   16.75    1.05 
   4  -2   2   17.32    1.02 
  -4  -2  -2   17.49    1.00 
  -4   2  -2   17.11    1.02 
   4   2   2   17.18    1.00 
   4   2   2   16.10    1.04 
   4   2   2   16.41    1.04 
  -4   2  -2   16.75    1.02 
   4   2   2   17.06    0.99 
   4   2   2   16.91    0.99 
  -5  -2  -2   30.00    1.93 
   5  -2   2   29.84    1.96 
  -5  -2  -2   28.81    1.96 
   5  -2   2   30.20    1.95 
   5  -2   2   29.39    1.99 
  -5  -2  -2   30.02    1.94 
   5  -2   2   30.20    1.95 
   5  -2   2   30.01    1.93 
  -5  -2  -2   30.23    1.97 
   5   2   2   39.43    1.94 
  -5   2  -2   39.98    1.98 
   5   2   2   39.07    1.95 
   5   2   2   38.84    2.00 
   5   2   2   38.72    2.00 
  -5   2  -2   38.99    2.02 
   5   2   2   39.35    1.92 
  -5   2  -2   39.59    1.96 
   6  -2   2  123.22    6.47 
   6  -2   2  123.81    6.38 
   6  -2   2  128.05    6.40 
  -6  -2  -2  125.33    6.43 
   6  -2   2  122.45    6.43 
  -6  -2  -2  121.18    6.40 
   6  -2   2  120.80    6.41 
  -6  -2  -2  121.72    6.38 
  -6  -2  -2  125.64    6.43 
  -6   2  -2  106.93    6.40 
   6   2   2  105.31    6.38 
   6   2   2  106.98    6.36 
   6   2   2  107.41    6.37 
   6   2   2  109.14    6.34 
  -6   2  -2  104.89    6.41 
  -6   2  -2  107.78    6.43 
  -6   2  -2  107.07    6.38 
  -7  -2  -2    2.56    0.35 
   7  -2   2    2.78    0.40 
   7  -2   2    2.58    0.38 
  -7  -2  -2    2.97    0.45 
   7  -2   2    2.71    0.46 
  -7  -2  -2    2.77    0.40 
   7  -2   2    2.81    0.42 
  -7  -2  -2    2.83    0.41 
   7  -2   2    2.82    0.41 
   7   2   2    3.70    0.42 
  -7   2  -2    3.22    0.33 
   7   2   2    3.56    0.48 
   7   2   2    2.89    0.54 
   7   2   2    3.41    0.40 
  -7   2  -2    3.60    0.49 
   7   2   2    3.68    0.34 
  -7   2  -2    3.50    0.45 
   7   2   2    3.63    0.41 
  -7   2  -2    3.58    0.43 
   8  -2   2    7.33    0.57 
   8  -2   2    7.40    0.74 
   8  -2   2    6.88    0.61 
  -8  -2  -2    6.95    0.65 
  -8  -2  -2    7.20    0.66 
   8   2   2    7.00    0.65 
  -8   2  -2    7.62    0.79 
   8   2   2    7.33    0.56 
   8   2   2    7.55    0.61 
  -8   2  -2    7.27    0.68 
  -8   2  -2    7.45    0.67 
  -8  -3   2    1.66    0.32 
   8  -3  -2    2.09    0.40 
   8  -3  -2    1.88    0.29 
  -8  -3   2    1.85    0.37 
   8  -3  -2    1.81    0.28 
  -8  -3   2    1.97    0.32 
  -8  -3   2    1.79    0.28 
  -8  -3   2    1.87    0.31 
   8   3  -2    1.60    0.29 
  -8   3   2    1.37    0.34 
  -8   3   2    1.20    0.33 
  -8   3   2    1.34    0.45 
  -8   3   2    1.39    0.35 
   7  -3  -2   21.86    1.39 
   7  -3  -2   23.33    1.36 
  -7  -3   2   23.39    1.38 
  -7  -3   2   23.03    1.35 
   7  -3  -2   23.50    1.43 
  -7  -3   2   23.60    1.37 
   7  -3  -2   23.44    1.36 
  -7  -3   2   23.21    1.45 
  -7  -3   2   23.50    1.38 
  -7   3   2   23.54    1.42 
   7   3  -2   23.68    1.36 
   7   3  -2   22.92    1.34 
  -7   3   2   23.12    1.42 
  -7   3   2   23.21    1.46 
  -7   3   2   22.62    1.45 
  -7   3   2   22.75    1.37 
   6  -3  -2    5.52    0.49 
  -6  -3   2    4.91    0.40 
  -6  -3   2    5.21    0.42 
  -6  -3   2    5.02    0.41 
   6  -3  -2    5.08    0.41 
   6  -3  -2    5.03    0.40 
  -6  -3   2    4.96    0.48 
  -6  -3   2    5.31    0.42 
   6  -3  -2    4.94    0.42 
   6   3  -2    4.87    0.45 
  -6   3   2    5.62    0.41 
   6   3  -2    5.98    0.42 
  -6   3   2    5.31    0.59 
   6   3  -2    5.94    0.43 
  -6   3   2    5.74    0.47 
   6   3  -2    5.67    0.38 
  -6   3   2    5.86    0.47 
  -6   3   2    5.92    0.53 
   5  -3  -2   15.65    1.05 
  -5  -3   2   15.80    0.98 
  -5  -3   2   15.51    0.96 
   5  -3  -2   15.43    0.98 
   5  -3  -2   15.74    1.02 
   5  -3  -2   14.74    1.00 
  -5  -3   2   15.44    1.04 
  -5  -3   2   15.65    0.97 
  -5  -3   2   15.43    0.98 
   5  -3  -2   14.98    0.99 
   5   3  -2   18.17    1.00 
  -5   3   2   18.43    1.02 
   5   3  -2   18.47    0.99 
  -5   3   2   18.24    1.07 
   5   3  -2   18.48    0.98 
  -5   3   2   19.21    1.04 
  -5   3   2   17.98    0.99 
  -5   3   2   18.12    1.05 
   5   3  -2   18.42    0.96 
  -4  -3   2   76.52    4.07 
  -4  -3   2   76.85    4.10 
  -4  -3   2   76.45    4.05 
   4  -3  -2   74.16    4.08 
  -4  -3   2   76.80    4.05 
   4  -3  -2   75.28    4.06 
   4  -3  -2   76.81    4.11 
  -4  -3   2   78.27    4.04 
   4  -3  -2   74.23    4.08 
   4  -3  -2   76.19    4.06 
  -4  -3   2   76.09    4.03 
   4   3  -2   71.34    4.04 
   4   3  -2   70.67    4.06 
  -4   3   2   69.05    4.08 
   4   3  -2   72.17    4.05 
  -4   3   2   72.76    4.07 
  -4   3   2   68.35    4.09 
   4   3  -2   70.84    4.03 
  -4   3   2   70.40    4.07 
  -4   3   2   69.37    4.11 
   3  -3  -2   39.66    2.15 
  -3  -3   2   40.99    2.14 
  -3  -3   2   42.16    2.12 
   3  -3  -2   40.29    2.17 
   3  -3  -2   39.47    2.19 
  -3  -3   2   41.59    2.11 
   3  -3  -2   39.96    2.16 
  -3  -3   2   39.06    2.12 
   3  -3  -2   40.79    2.15 
  -3  -3   2   41.61    2.17 
  -3  -3   2   40.04    2.17 
   3   3  -2   35.92    2.12 
  -3   3   2   36.69    2.16 
  -3   3   2   36.06    2.14 
  -3   3   2   33.14    2.18 
   3   3  -2   35.66    2.13 
   3   3  -2   36.17    2.15 
   3   3  -2   35.95    2.11 
   2  -3  -2  314.63   16.90 
   2  -3  -2  303.88   16.81 
  -2  -3   2  317.18   16.85 
   2  -3  -2  316.75   17.01 
  -2  -3   2  316.38   16.91 
   2  -3  -2  308.60   16.89 
   2  -3  -2  294.57   16.84 
  -2  -3   2  315.86   16.89 
  -2   3   2  308.21   16.89 
  -2   3   2  301.49   16.88 
  -2   3   2  294.51   16.89 
  -2   3   2  317.36   16.83 
  -2   3   2  297.84   17.00 
  -2   3   2  300.87   16.87 
   1  -3  -2  107.43    6.64 
   1  -3  -2  111.35    6.65 
  -1  -3   2  113.94    6.64 
  -1  -3   2  106.37    6.66 
   1  -3  -2  113.02    6.64 
   1  -3  -2  111.54    6.65 
  -1  -3   2  112.54    6.65 
   1  -3  -2  112.28    6.65 
  -1  -3   2  111.17    6.70 
  -1   3   2  131.47    6.67 
  -1   3   2  135.43    6.68 
  -1   3   2  130.43    6.68 
  -1   3   2  133.49    6.77 
  -1   3   2  136.31    6.65 
  -1   3   2  130.03    6.68 
   1   3  -2  133.35    6.66 
  -1   3   2  129.52    6.68 
   1   3  -2  130.89    6.66 
   0  -3  -2  119.43    6.46 
   0  -3  -2  120.53    6.48 
   0  -3  -2  119.01    6.47 
   0  -3   2  118.97    6.50 
   0  -3  -2  120.43    6.51 
   0  -3   2  120.17    6.43 
   0  -3   2  115.31    6.43 
   0  -3  -2  123.62    6.46 
   0  -3  -2  111.88    6.45 
   0  -3   2  123.55    6.45 
   0   3   2  114.22    6.43 
   0   3  -2  111.29    6.57 
   0   3   2  113.33    6.45 
   0   3   2  116.07    6.43 
   0   3  -2  119.39    6.42 
   0   3   2  115.47    6.48 
   0   3   2  116.71    6.47 
  -1  -3  -2   37.59    2.36 
   1  -3   2   40.98    2.37 
  -1  -3  -2   39.56    2.36 
   1  -3   2   38.10    2.36 
  -1  -3  -2   38.17    2.36 
   1  -3   2   39.66    2.38 
  -1  -3  -2   37.84    2.38 
   1  -3   2   39.85    2.35 
   1  -3   2   37.36    2.35 
  -1   3  -2   48.48    2.35 
   1   3   2   47.53    2.36 
  -1   3  -2   46.33    2.36 
   1   3   2   45.90    2.37 
   1   3   2   45.64    2.37 
   1   3   2   46.87    2.34 
  -1   3  -2   49.20    2.37 
   1   3   2   46.69    2.39 
  -1   3  -2   44.96    2.38 
  -2  -3  -2  215.11   11.85 
  -2  -3  -2  217.03   11.81 
  -2  -3  -2  210.48   11.76 
  -2  -3  -2  217.52   11.75 
   2  -3   2  208.32   11.74 
   2  -3   2  211.12   11.73 
   2  -3   2  214.50   11.70 
   2  -3   2  221.71   11.79 
   2  -3   2  207.74   11.70 
   2   3   2  214.54   11.79 
  -2   3  -2  210.42   11.72 
   2   3   2  210.76   11.81 
   2   3   2  214.55   11.79 
   2   3   2  226.15   11.72 
  -2   3  -2  219.76   11.77 
  -2   3  -2  207.73   11.70 
  -2   3  -2  217.94   11.69 
   2   3   2  214.49   11.77 
   3  -3   2    0.46    0.13 
   3  -3   2    0.29    0.09 
   3  -3   2    0.27    0.10 
  -3  -3  -2    0.33    0.08 
   3  -3   2    0.64    0.11 
   3  -3   2    0.26    0.10 
  -3  -3  -2    0.42    0.10 
  -3  -3  -2    0.38    0.11 
  -3  -3  -2    0.28    0.10 
  -3   3  -2    0.28    0.11 
  -3   3  -2    0.32    0.09 
  -3   3  -2    0.39    0.10 
   3   3   2    0.41    0.12 
   3   3   2    0.43    0.09 
  -3   3  -2    0.50    0.11 
   3   3   2    0.48    0.10 
   3   3   2    0.44    0.07 
   3   3   2    0.36    0.11 
  -4  -3  -2  119.30    6.15 
  -4  -3  -2  116.20    6.15 
   4  -3   2  127.00    6.15 
   4  -3   2  119.96    6.14 
   4  -3   2  106.39    6.24 
   4  -3   2  120.49    6.12 
  -4  -3  -2  124.82    6.12 
  -4  -3  -2  122.59    6.13 
   4  -3   2  120.95    6.15 
   4   3   2  102.41    6.15 
   4   3   2  104.04    6.09 
   4   3   2  104.79    6.14 
   4   3   2  103.86    6.11 
   4   3   2  104.86    6.09 
   4   3   2  103.87    6.15 
  -4   3  -2  107.04    6.13 
  -4   3  -2   99.86    6.16 
  -4   3  -2  101.75    6.12 
  -4   3  -2  107.48    6.14 
   5  -3   2   68.58    3.63 
  -5  -3  -2   66.02    3.60 
   5  -3   2   66.80    3.68 
   5  -3   2   67.22    3.61 
   5  -3   2   66.44    3.63 
  -5  -3  -2   66.48    3.64 
   5  -3   2   67.28    3.64 
  -5  -3  -2   68.36    3.64 
  -5  -3  -2   67.31    3.61 
  -5   3  -2   61.43    3.63 
   5   3   2   61.95    3.64 
  -5   3  -2   64.21    3.62 
  -5   3  -2   62.20    3.66 
   5   3   2   62.32    3.65 
   5   3   2   63.31    3.60 
   5   3   2   63.83    3.57 
   5   3   2   62.47    3.58 
   5   3   2   62.71    3.62 
  -5   3  -2   63.94    3.61 
  -6  -3  -2    3.24    0.38 
   6  -3   2    3.32    0.35 
  -6  -3  -2    3.26    0.38 
  -6  -3  -2    3.15    0.33 
   6  -3   2    3.44    0.37 
  -6  -3  -2    3.08    0.38 
   6  -3   2    3.28    0.42 
   6  -3   2    3.22    0.42 
   6   3   2    3.57    0.30 
  -6   3  -2    3.37    0.41 
   6   3   2    3.34    0.37 
   6   3   2    3.58    0.38 
  -6   3  -2    3.76    0.45 
   6   3   2    3.59    0.33 
  -6   3  -2    3.79    0.39 
   7  -3   2   49.53    2.94 
   7  -3   2   50.19    2.90 
   7  -3   2   48.77    2.96 
   7  -3   2   48.82    2.94 
  -7  -3  -2   48.61    2.91 
  -7  -3  -2   48.35    2.93 
  -7  -3  -2   48.94    2.95 
  -7  -3  -2   50.07    2.95 
  -7   3  -2   53.69    2.95 
   7   3   2   53.89    2.94 
   7   3   2   54.83    2.92 
   7   3   2   52.76    2.89 
  -7   3  -2   54.42    2.97 
   7   3   2   53.82    2.85 
  -7   3  -2   53.79    3.00 
   8  -3   2    9.90    0.70 
  -8  -3  -2    8.68    0.70 
  -8  -3  -2    9.53    0.71 
   8  -3   2    9.38    0.81 
   8   3   2    6.91    0.69 
   8   3   2    7.30    0.56 
  -8   3  -2    7.29    0.72 
  -8   3  -2    7.20    0.71 
   8   3   2    7.06    0.66 
  -8   3  -2    7.10    0.90 
  -8  -4   2   13.92    0.99 
   8  -4  -2   13.97    0.90 
  -8  -4   2   14.53    0.91 
   8  -4  -2   14.58    1.02 
  -8  -4   2   14.87    1.02 
  -8  -4   2   13.50    0.88 
  -8  -4   2   13.54    0.89 
   8  -4  -2   13.56    1.04 
  -8   4   2   11.27    0.94 
  -8   4   2   10.62    0.97 
   8   4  -2   10.95    0.86 
   7  -4  -2    3.38    0.51 
  -7  -4   2    3.19    0.35 
   7  -4  -2    2.88    0.37 
  -7  -4   2    3.13    0.37 
  -7  -4   2    3.01    0.45 
  -7  -4   2    3.50    0.35 
  -7  -4   2    3.34    0.36 
  -7   4   2    2.80    0.46 
  -7   4   2    2.98    0.48 
  -7   4   2    2.41    0.32 
  -7   4   2    2.63    0.42 
   7   4  -2    2.63    0.33 
   7   4  -2    2.60    0.31 
  -7   4   2    2.72    0.45 
   6  -4  -2   84.14    4.60 
  -6  -4   2   86.13    4.58 
  -6  -4   2   84.29    4.58 
  -6  -4   2   82.76    4.65 
   6  -4  -2   85.86    4.60 
  -6  -4   2   82.01    4.59 
  -6  -4   2   83.10    4.57 
   6  -4  -2   82.64    4.63 
   6   4  -2   82.35    4.57 
  -6   4   2   83.08    4.64 
   6   4  -2   83.70    4.61 
   6   4  -2   82.92    4.59 
   6   4  -2   80.56    4.55 
  -6   4   2   82.05    4.63 
  -6   4   2   80.48    4.60 
  -6   4   2   82.21    4.69 
  -5  -4   2   23.61    1.27 
  -5  -4   2   22.91    1.29 
   5  -4  -2   23.01    1.37 
   5  -4  -2   22.25    1.34 
   5  -4  -2   21.76    1.33 
   5  -4  -2   23.08    1.31 
   5  -4  -2   23.54    1.31 
  -5  -4   2   22.25    1.34 
  -5  -4   2   23.05    1.29 
  -5  -4   2   22.72    1.27 
  -5   4   2   21.92    1.38 
   5   4  -2   22.05    1.26 
  -5   4   2   22.44    1.33 
   5   4  -2   22.14    1.27 
  -5   4   2   21.51    1.30 
   5   4  -2   22.36    1.29 
  -5   4   2   22.17    1.35 
   5   4  -2   21.85    1.31 
  -5   4   2   22.02    1.34 
  -4  -4   2    5.02    0.32 
   4  -4  -2    5.03    0.41 
   4  -4  -2    5.18    0.40 
   4  -4  -2    5.15    0.38 
  -4  -4   2    4.94    0.39 
  -4  -4   2    4.96    0.31 
   4  -4  -2    4.64    0.36 
  -4  -4   2    5.04    0.34 
  -4  -4   2    5.07    0.32 
   4  -4  -2    4.65    0.36 
  -4  -4   2    4.90    0.37 
   4   4  -2    5.00    0.30 
  -4   4   2    4.64    0.39 
  -4   4   2    4.95    0.40 
  -4   4   2    4.69    0.43 
   4   4  -2    5.16    0.32 
   4   4  -2    4.76    0.38 
  -4   4   2    4.80    0.35 
  -4   4   2    4.95    0.38 
   4   4  -2    5.03    0.38 
  -3  -4   2   86.41    4.87 
  -3  -4   2   89.14    4.82 
  -3  -4   2   85.78    4.82 
   3  -4  -2   82.85    4.87 
   3  -4  -2   89.69    4.90 
   3  -4  -2   82.91    4.86 
  -3  -4   2   86.96    4.83 
  -3  -4   2   84.82    4.87 
   3  -4  -2   88.29    4.86 
   3  -4  -2   83.98    4.85 
  -3  -4   2   89.29    4.81 
   3   4  -2   90.78    4.87 
   3   4  -2   91.78    4.82 
  -3   4   2   86.19    4.86 
  -3   4   2   92.64    4.91 
   3   4  -2   92.25    4.87 
  -3   4   2   90.82    4.87 
   3   4  -2   91.11    4.81 
  -3   4   2   92.96    4.86 
  -2  -4   2   91.45    4.97 
   2  -4  -2   92.75    5.00 
  -2  -4   2   89.38    5.02 
  -2  -4   2   91.89    5.00 
   2  -4  -2   91.43    5.00 
   2  -4  -2   87.81    5.01 
   2  -4  -2   89.10    5.03 
   2  -4  -2   89.06    5.00 
  -2  -4   2   90.60    4.96 
  -2  -4   2   93.34    5.04 
  -2  -4   2   90.66    4.97 
  -2   4   2   84.88    5.00 
   2   4  -2   92.31    4.97 
   2   4  -2   98.51    4.97 
  -2   4   2   94.62    4.99 
  -2   4   2   87.75    5.00 
  -2   4   2   89.19    5.00 
  -2   4   2   94.74    5.00 
  -1  -4   2   37.96    2.23 
  -1  -4   2   38.23    2.22 
   1  -4  -2   37.03    2.20 
   1  -4  -2   38.76    2.20 
  -1  -4   2   38.66    2.18 
  -1  -4   2   38.93    2.19 
   1  -4  -2   36.86    2.20 
   1  -4  -2   39.06    2.20 
  -1   4   2   41.50    2.21 
  -1   4   2   39.30    2.20 
  -1   4   2   42.79    2.21 
  -1   4   2   42.23    2.20 
   1   4  -2   41.36    2.19 
  -1   4   2   40.73    2.23 
   1   4  -2   41.31    2.19 
  -1   4   2   41.14    2.21 
   0  -4   2   85.15    4.82 
   0  -4  -2   86.67    4.80 
   0  -4   2   87.81    4.79 
   0  -4   2   87.31    4.81 
   0  -4  -2   87.88    4.79 
   0  -4  -2   88.74    4.80 
   0  -4   2   88.40    4.79 
   0  -4  -2   84.77    4.83 
   0  -4  -2   86.50    4.80 
   0   4   2   86.27    4.80 
   0   4  -2   88.98    4.79 
   0   4   2   89.02    4.80 
   0   4  -2   87.06    4.81 
   0   4  -2   87.40    4.83 
   0   4   2   87.37    4.81 
   0   4   2   86.27    4.82 
   0   4   2   86.08    4.82 
   0   4   2   90.48    4.79 
   1  -4   2   72.64    3.81 
  -1  -4  -2   70.59    3.81 
   1  -4   2   72.53    3.78 
  -1  -4  -2   70.98    3.78 
   1  -4   2   73.93    3.79 
   1  -4   2   74.31    3.76 
  -1  -4  -2   70.39    3.79 
   1  -4   2   73.65    3.79 
  -1  -4  -2   74.90    3.79 
   1   4   2   65.36    3.79 
   1   4   2   66.08    3.76 
   1   4   2   63.49    3.80 
  -1   4  -2   65.15    3.75 
   1   4   2   66.78    3.79 
   1   4   2   63.37    3.81 
   1   4   2   64.58    3.78 
  -1   4  -2   67.70    3.79 
  -1   4  -2   66.75    3.80 
  -1   4  -2   66.08    3.77 
  -2  -4  -2   63.99    3.79 
   2  -4   2   63.22    3.80 
   2  -4   2   66.04    3.77 
  -2  -4  -2   65.45    3.78 
  -2  -4  -2   66.13    3.79 
  -2  -4  -2   63.36    3.81 
   2  -4   2   66.26    3.79 
   2  -4   2   64.60    3.78 
   2  -4   2   66.30    3.82 
  -2   4  -2   74.90    3.80 
   2   4   2   74.18    3.82 
   2   4   2   74.69    3.82 
   2   4   2   67.50    3.81 
  -2   4  -2   73.91    3.78 
   2   4   2   76.03    3.81 
   2   4   2   60.47    3.75 
  -2   4  -2   70.44    3.82 
   2   4   2   74.30    3.78 
  -2   4  -2   75.93    3.77 
  -3  -4  -2  172.88    9.37 
  -3  -4  -2  173.00    9.34 
  -3  -4  -2  179.94    9.36 
   3  -4   2  170.79    9.34 
   3  -4   2  180.67    9.40 
  -3  -4  -2  179.26    9.34 
   3  -4   2  177.44    9.36 
   3  -4   2  179.68    9.36 
   3  -4   2  176.87    9.34 
   3   4   2  164.00    9.37 
  -3   4  -2  162.22    9.34 
   3   4   2  160.02    9.37 
   3   4   2  163.60    9.31 
   3   4   2  167.68    9.32 
   3   4   2  172.35    9.37 
  -3   4  -2  165.32    9.34 
  -3   4  -2  163.38    9.36 
  -3   4  -2  167.16    9.39 
   4  -4   2   14.63    1.03 
   4  -4   2   15.82    0.99 
  -4  -4  -2   15.48    1.00 
  -4  -4  -2   14.22    0.99 
  -4  -4  -2   14.99    0.97 
   4  -4   2   15.12    0.97 
   4  -4   2   15.06    0.97 
  -4  -4  -2   14.82    0.98 
   4   4   2   17.82    1.01 
   4   4   2   18.07    1.01 
   4   4   2   13.63    1.04 
   4   4   2   17.68    0.94 
  -4   4  -2   18.20    0.98 
   4   4   2   17.50    0.93 
  -4   4  -2   17.73    1.00 
  -4   4  -2   17.88    1.05 
  -4   4  -2   17.83    0.98 
   4   4   2   18.66    1.02 
   5  -4   2    8.75    0.59 
   5  -4   2    8.99    0.57 
  -5  -4  -2    8.70    0.55 
  -5  -4  -2    8.73    0.58 
  -5  -4  -2    8.57    0.58 
   5  -4   2    8.62    0.55 
   5  -4   2    8.47    0.57 
   5  -4   2    9.20    0.65 
  -5  -4  -2    9.20    0.54 
  -5   4  -2    6.69    0.55 
  -5   4  -2    7.36    0.62 
   5   4   2    6.73    0.57 
   5   4   2    6.76    0.57 
   5   4   2    6.68    0.49 
   5   4   2    6.59    0.49 
   6  -4   2   81.53    4.49 
   6  -4   2   82.29    4.47 
  -6  -4  -2   80.34    4.50 
  -6  -4  -2   76.69    4.46 
  -6  -4  -2   78.73    4.47 
  -6  -4  -2   78.59    4.50 
   6  -4   2   79.77    4.50 
   6  -4   2   80.03    4.56 
   6   4   2   81.66    4.43 
  -6   4  -2   79.63    4.50 
   6   4   2   82.38    4.41 
  -6   4  -2   81.80    4.49 
  -6   4  -2   80.24    4.55 
   6   4   2   81.34    4.50 
  -7  -4  -2    1.13    0.27 
   7  -4   2    1.62    0.34 
  -7  -4  -2    1.40    0.25 
   7  -4   2    1.63    0.26 
  -7  -4  -2    1.21    0.25 
  -7  -4  -2    1.29    0.28 
   7   4   2    1.18    0.23 
  -7   4  -2    0.97    0.30 
   7   4   2    1.14    0.18 
  -7   4  -2    0.79    0.30 
   7   4   2    1.41    0.31 
  -7   4  -2    0.75    0.26 
   8  -4   2    3.02    0.51 
  -8  -4  -2    3.96    0.51 
   8  -4   2    3.58    0.52 
  -8  -4  -2    3.85    0.52 
  -8   4  -2    4.18    0.60 
  -8   4  -2    5.09    0.60 
   8   4   2    4.43    0.60 
  -8  -5   2    5.41    0.57 
  -8  -5   2    5.57    0.52 
   8  -5  -2    5.60    0.84 
  -8  -5   2    5.65    0.65 
  -8  -5   2    5.82    0.56 
   8  -5  -2    5.42    0.59 
   8  -5  -2    5.26    0.62 
  -8   5   2    6.19    0.63 
  -8   5   2    6.56    0.68 
  -8   5   2    6.44    0.70 
   7  -5  -2   23.65    1.38 
  -7  -5   2   23.72    1.34 
  -7  -5   2   23.53    1.35 
  -7  -5   2   23.46    1.45 
   7  -5  -2   24.12    1.46 
  -7  -5   2   23.31    1.34 
  -7  -5   2   23.59    1.34 
   7  -5  -2   23.43    1.38 
  -7   5   2   21.37    1.48 
   7   5  -2   21.27    1.30 
   7   5  -2   21.60    1.33 
  -7   5   2   22.35    1.42 
  -7   5   2   21.74    1.44 
   6  -5  -2   10.56    0.71 
  -6  -5   2   10.88    0.60 
   6  -5  -2   10.66    0.64 
   6  -5  -2    8.86    0.70 
   6  -5  -2   10.53    0.71 
  -6  -5   2   10.55    0.71 
  -6  -5   2   10.97    0.60 
  -6  -5   2   10.91    0.60 
  -6   5   2    7.77    0.73 
   6   5  -2    7.72    0.55 
   6   5  -2    8.11    0.59 
   6   5  -2    7.93    0.65 
  -6   5   2    7.59    0.60 
  -6   5   2    7.57    0.66 
  -6   5   2    7.78    0.68 
  -6   5   2    8.25    0.69 
   5  -5  -2    5.86    0.47 
  -5  -5   2    5.42    0.47 
   5  -5  -2    5.52    0.42 
   5  -5  -2    5.58    0.42 
  -5  -5   2    5.32    0.36 
  -5  -5   2    5.51    0.37 
  -5  -5   2    5.44    0.36 
  -5  -5   2    5.31    0.36 
   5  -5  -2    5.97    0.48 
   5   5  -2    5.44    0.37 
  -5   5   2    4.61    0.39 
   5   5  -2    4.82    0.43 
  -5   5   2    4.99    0.46 
   5   5  -2    5.01    0.33 
  -5   5   2    5.12    0.51 
   5   5  -2    5.16    0.43 
  -5   5   2    4.49    0.49 
  -5   5   2    5.24    0.46 
   4  -5  -2   76.89    4.46 
  -4  -5   2   79.58    4.48 
  -4  -5   2   77.78    4.42 
  -4  -5   2   76.25    4.42 
  -4  -5   2   77.45    4.48 
   4  -5  -2   75.20    4.51 
   4  -5  -2   79.73    4.48 
   4  -5  -2   78.46    4.46 
  -4  -5   2   77.77    4.43 
  -4  -5   2   79.74    4.42 
   4  -5  -2   78.62    4.48 
   4   5  -2   83.14    4.48 
   4   5  -2   85.29    4.43 
  -4   5   2   82.53    4.53 
   4   5  -2   83.46    4.49 
  -4   5   2   83.80    4.49 
  -4   5   2   84.63    4.48 
  -4   5   2   84.04    4.49 
   4   5  -2   85.57    4.41 
  -4   5   2   85.87    4.46 
  -3  -5   2   34.91    1.79 
   3  -5  -2   32.67    1.89 
   3  -5  -2   32.20    1.86 
   3  -5  -2   31.28    1.84 
  -3  -5   2   34.75    1.87 
   3  -5  -2   30.56    1.87 
   3  -5  -2   32.99    1.84 
  -3  -5   2   34.32    1.85 
  -3  -5   2   34.09    1.80 
  -3  -5   2   34.46    1.81 
  -3  -5   2   34.94    1.79 
  -3   5   2   29.58    1.85 
  -3   5   2   30.33    1.90 
   3   5  -2   32.17    1.80 
   3   5  -2   31.94    1.86 
   3   5  -2   31.62    1.84 
  -3   5   2   31.26    1.83 
   2  -5  -2  131.26    7.13 
  -2  -5   2  129.83    7.17 
  -2  -5   2  129.16    7.11 
   2  -5  -2  128.71    7.16 
  -2  -5   2  127.35    7.10 
   2  -5  -2  132.45    7.15 
  -2  -5   2  130.08    7.16 
  -2  -5   2  128.96    7.12 
  -2  -5   2  128.13    7.10 
   2  -5  -2  126.57    7.13 
   2  -5  -2  130.25    7.13 
  -2   5   2  130.43    7.14 
   2   5  -2  131.14    7.11 
  -2   5   2  124.13    7.17 
  -2   5   2  132.45    7.14 
   2   5  -2  136.11    7.11 
  -2   5   2  135.65    7.12 
  -2   5   2  131.40    7.12 
  -1  -5   2   75.11    3.78 
   1  -5  -2   75.52    3.81 
  -1  -5   2   71.77    3.83 
   1  -5  -2   72.90    3.82 
  -1  -5   2   76.49    3.83 
   1  -5  -2   74.70    3.80 
   1  -5  -2   74.09    3.81 
  -1  -5   2   75.70    3.78 
  -1  -5   2   75.23    3.78 
   1  -5  -2   72.67    3.81 
  -1   5   2   60.63    3.80 
   1   5  -2   62.09    3.78 
  -1   5   2   58.10    3.83 
  -1   5   2   61.81    3.82 
  -1   5   2   62.16    3.80 
  -1   5   2   61.71    3.78 
  -1   5   2   62.76    3.81 
   0  -5  -2    0.51    0.09 
   0  -5  -2    0.53    0.10 
   0  -5  -2    0.85    0.18 
   0  -5  -2    0.49    0.08 
   0  -5   2    0.43    0.08 
   0  -5   2    0.48    0.09 
   0  -5   2    0.62    0.13 
   0  -5   2    0.50    0.09 
   0  -5   2    0.45    0.11 
   0  -5  -2    0.55    0.10 
   0  -5  -2    0.54    0.10 
   0   5  -2    0.29    0.11 
   0   5   2    0.36    0.11 
   0   5  -2    0.33    0.08 
   0   5  -2    0.44    0.12 
   0   5   2    0.32    0.10 
   0   5   2    0.49    0.08 
   0   5   2    0.47    0.09 
   0   5   2    0.37    0.12 
   0   5   2    0.46    0.10 
  -1  -5  -2   13.70    0.82 
  -1  -5  -2   14.53    0.81 
  -1  -5  -2   13.56    0.85 
   1  -5   2   14.32    0.82 
   1  -5   2   13.68    0.82 
   1  -5   2   14.48    0.84 
   1  -5   2   14.01    0.85 
  -1  -5  -2   14.55    0.82 
   1  -5   2   13.83    0.81 
  -2  -5  -2  212.74   11.74 
   2  -5   2  218.19   11.73 
   2  -5   2  211.77   11.76 
  -2  -5  -2  207.93   11.79 
   2  -5   2  203.77   11.71 
  -2  -5  -2  213.15   11.76 
   2  -5   2  212.30   11.72 
  -2  -5  -2  202.18   11.74 
   2   5   2  222.38   11.73 
  -2   5  -2  216.03   11.75 
   2   5   2  227.47   11.75 
  -2   5  -2  212.86   11.70 
  -2   5  -2  219.16   11.72 
   2   5   2  216.79   11.74 
   2   5   2  215.39   11.70 
  -2   5  -2  222.06   11.74 
   3  -5   2    0.09    0.10 
   3  -5   2    0.25    0.15 
  -3  -5  -2    0.16    0.08 
  -3  -5  -2    0.24    0.12 
  -3  -5  -2    0.03    0.10 
   3  -5   2    0.04    0.09 
   3  -5   2    0.02    0.10 
  -3  -5  -2    0.02    0.09 
   3   5   2    0.02    0.13 
   3   5   2    0.06    0.09 
   3   5   2    0.12    0.10 
   3   5   2    0.09    0.08 
  -3   5  -2    0.04    0.08 
  -3   5  -2    0.05    0.09 
  -3   5  -2    0.07    0.13 
  -3   5  -2    0.09    0.10 
   3   5   2    0.10    0.11 
  -4  -5  -2   47.50    2.85 
  -4  -5  -2   47.26    2.82 
   4  -5   2   47.65    2.85 
   4  -5   2   46.93    2.90 
   4  -5   2   46.32    2.85 
  -4  -5  -2   48.88    2.82 
  -4  -5  -2   46.47    2.85 
   4  -5   2   49.41    2.84 
  -4   5  -2   52.88    2.86 
  -4   5  -2   54.36    2.83 
   4   5   2   53.92    2.88 
   4   5   2   52.77    2.77 
   4   5   2   52.91    2.87 
   4   5   2   54.38    2.80 
   4   5   2   53.59    2.83 
  -4   5  -2   51.89    2.90 
   4   5   2   54.00    2.87 
  -4   5  -2   51.43    2.83 
   5   5   2   11.40    0.79 
  -5   5  -2   11.81    0.84 
  -5   5  -2   11.32    0.74 
   5   5   2   11.66    0.68 
   5   5   2   11.37    0.77 
   5   5   2   12.02    0.80 
  -5   5  -2   11.98    0.76 
  -5   5  -2   11.81    0.79 
   5   5   2   11.91    0.69 
   6  -5   2    0.42    0.27 
  -6  -5  -2    0.39    0.20 
  -6  -5  -2    0.33    0.18 
  -6  -5  -2    0.40    0.17 
   6  -5   2    0.33    0.23 
   6  -5   2    0.20    0.17 
  -6  -5  -2    0.35    0.20 
  -6   5  -2    0.46    0.18 
  -6   5  -2    0.48    0.26 
   6   5   2    0.32    0.13 
   6   5   2    0.62    0.23 
   6   5   2    0.58    0.24 
  -6   5  -2    0.58    0.25 
   6   5   2    0.42    0.12 
   6   5   2    0.48    0.19 
  -6   5  -2    0.47    0.20 
   7  -5   2   12.89    0.93 
  -7  -5  -2   12.13    0.86 
  -7  -5  -2   11.06    0.84 
  -7  -5  -2   11.46    0.86 
   7  -5   2   11.83    0.84 
  -7  -5  -2   12.04    0.86 
  -7   5  -2   12.53    0.87 
  -7   5  -2   12.34    0.95 
   7   5   2   12.43    0.76 
  -7   5  -2   12.96    0.99 
   7   5   2   12.68    0.89 
   8  -5   2    8.99    0.78 
   8  -5   2    9.74    0.95 
  -8  -5  -2    8.86    0.76 
  -8  -5  -2    8.67    0.78 
  -8   5  -2   10.92    0.92 
  -8   5  -2   10.41    0.84 
   8   5   2   10.56    0.88 
   8  -6  -2    3.80    0.58 
  -8  -6   2    3.85    0.45 
  -8  -6   2    4.42    0.63 
  -8   6   2    4.91    0.58 
  -8   6   2    4.68    0.63 
  -8   6   2    4.25    0.67 
   7  -6  -2    2.02    0.40 
  -7  -6   2    2.06    0.30 
  -7  -6   2    2.25    0.37 
   7  -6  -2    1.81    0.30 
  -7  -6   2    2.18    0.32 
  -7  -6   2    2.07    0.34 
   7  -6  -2    1.69    0.30 
  -7  -6   2    2.02    0.27 
   7   6  -2    2.01    0.33 
  -7   6   2    1.66    0.35 
  -7   6   2    1.79    0.34 
  -7   6   2    1.54    0.39 
   7   6  -2    1.74    0.25 
  -7   6   2    1.84    0.36 
   6  -6  -2   32.16    1.84 
   6  -6  -2   31.73    1.92 
  -6  -6   2   31.71    1.88 
  -6  -6   2   30.72    1.78 
  -6  -6   2   32.22    1.78 
   6  -6  -2   30.98    1.89 
  -6  -6   2   31.42    1.88 
  -6  -6   2   31.97    1.78 
   6   6  -2   32.26    1.80 
  -6   6   2   31.24    1.95 
   6   6  -2   31.78    1.76 
  -6   6   2   31.47    1.88 
  -6   6   2   30.89    1.87 
   6   6  -2   32.11    1.87 
   5  -6  -2   29.31    1.74 
  -5  -6   2   28.49    1.61 
  -5  -6   2   29.51    1.61 
  -5  -6   2   29.81    1.61 
   5  -6  -2   29.48    1.67 
  -5  -6   2   28.88    1.61 
  -5  -6   2   29.26    1.69 
   5  -6  -2   22.81    1.78 
   5  -6  -2   29.50    1.68 
   5  -6  -2   29.62    1.71 
   4  -6  -2   21.13    1.24 
   4  -6  -2   21.37    1.28 
  -4  -6   2   21.33    1.18 
   4  -6  -2   21.74    1.31 
   4  -6  -2   21.77    1.25 
  -4  -6   2   21.38    1.18 
  -4  -6   2   21.32    1.27 
  -4  -6   2   21.11    1.19 
   4  -6  -2   21.33    1.25 
  -4  -6   2   21.33    1.25 
  -4  -6   2   20.89    1.18 
  -4   6   2   21.41    1.26 
  -4   6   2   21.54    1.26 
   4   6  -2   21.17    1.27 
  -4   6   2   20.57    1.26 
   4   6  -2   18.51    1.28 
   4   6  -2   21.59    1.19 
  -4   6   2   20.87    1.24 
  -4   6   2   21.10    1.32 
  -3  -6   2   84.16    4.57 
   3  -6  -2   81.17    4.64 
  -3  -6   2   83.86    4.65 
   3  -6  -2   81.97    4.63 
  -3  -6   2   84.76    4.58 
  -3  -6   2   83.13    4.57 
   3  -6  -2   82.84    4.67 
   3  -6  -2   81.92    4.62 
  -3  -6   2   84.18    4.57 
  -3  -6   2   84.58    4.62 
  -3  -6   2   85.40    4.68 
   3  -6  -2   83.36    4.62 
  -3   6   2   79.79    4.63 
  -3   6   2   84.80    4.63 
  -3   6   2   83.30    4.61 
   3   6  -2   87.41    4.58 
  -3   6   2   86.50    4.70 
   3   6  -2   84.94    4.62 
   3   6  -2   83.52    4.58 
   3   6  -2   82.77    4.65 
   2  -6  -2   59.49    3.37 
  -2  -6   2   59.14    3.35 
   2  -6  -2   56.89    3.38 
  -2  -6   2   61.12    3.40 
  -2  -6   2   60.59    3.40 
  -2  -6   2   61.90    3.33 
   2  -6  -2   60.18    3.37 
   2  -6  -2   58.33    3.37 
  -2  -6   2   59.44    3.33 
  -2  -6   2   61.09    3.33 
   2  -6  -2   58.59    3.37 
  -2   6   2   57.78    3.44 
  -2   6   2   65.67    3.38 
   2   6  -2   65.44    3.35 
  -2   6   2   64.08    3.37 
  -2   6   2   61.04    3.37 
  -2   6   2   60.63    3.42 
   2   6  -2   62.79    3.34 
  -1  -6   2   27.14    1.42 
   1  -6  -2   26.97    1.46 
  -1  -6   2   26.77    1.42 
   1  -6  -2   26.85    1.43 
  -1  -6   2   26.86    1.46 
   1  -6  -2   25.92    1.44 
  -1  -6   2   26.45    1.41 
   1  -6  -2   26.59    1.45 
  -1  -6   2   26.07    1.47 
  -1  -6   2   27.29    1.40 
  -1   6   2   22.05    1.46 
  -1   6   2   22.93    1.45 
  -1   6   2   22.71    1.42 
  -1   6   2   23.52    1.48 
   1   6  -2   23.44    1.42 
  -1   6   2   23.15    1.43 
   0  -6  -2   57.85    3.31 
   0  -6   2   54.88    3.35 
   0  -6   2   56.16    3.31 
   0  -6  -2   55.02    3.34 
   0  -6  -2   55.55    3.33 
   0  -6   2   57.37    3.34 
   0  -6  -2   56.18    3.33 
   0  -6   2   57.60    3.32 
   0  -6   2   55.58    3.32 
   0  -6  -2   57.11    3.33 
   0   6   2   74.87    3.33 
   0   6   2   72.25    3.39 
   0   6   2   73.41    3.38 
   1  -6   2   24.23    1.36 
   1  -6   2   25.29    1.40 
   1  -6   2   24.78    1.38 
   1  -6   2   25.94    1.38 
  -1  -6  -2   24.51    1.37 
  -1  -6  -2   24.92    1.37 
   1  -6   2   25.21    1.41 
  -1  -6  -2   25.27    1.37 
  -1  -6  -2   24.30    1.41 
   1   6   2   22.09    1.37 
   1   6   2   24.11    1.37 
  -1   6  -2   23.65    1.35 
  -1   6  -2   23.34    1.37 
  -1   6  -2   22.78    1.39 
  -1   6  -2   23.74    1.40 
   1   6   2   24.11    1.41 
   1   6   2   22.68    1.40 
   1   6   2   24.35    1.37 
   1   6   2   23.48    1.33 
   2  -6   2   18.35    1.06 
  -2  -6  -2   19.48    1.05 
   2  -6   2   19.02    1.07 
   2  -6   2   19.92    1.05 
  -2  -6  -2   18.71    1.08 
   2  -6   2   19.22    1.07 
  -2  -6  -2   19.72    1.04 
   2  -6   2   18.82    1.11 
  -2  -6  -2   19.58    1.06 
  -2   6  -2   16.62    1.09 
  -2   6  -2   16.92    1.00 
   2   6   2   15.33    1.06 
  -2   6  -2   17.16    1.03 
   2   6   2   16.45    1.09 
   2   6   2   17.75    1.07 
   2   6   2   17.38    1.06 
   2   6   2   17.53    1.03 
  -2   6  -2   17.32    1.06 
   3  -6   2   41.43    2.25 
   3  -6   2   41.43    2.24 
  -3  -6  -2   41.11    2.26 
  -3  -6  -2   41.66    2.24 
   3  -6   2   41.93    2.30 
   3  -6   2   40.99    2.25 
   3  -6   2   40.87    2.23 
  -3  -6  -2   39.69    2.22 
  -3  -6  -2   39.31    2.27 
  -3   6  -2   38.05    2.22 
   3   6   2   38.07    2.26 
   3   6   2   38.16    2.22 
  -3   6  -2   38.10    2.24 
   3   6   2   39.64    2.20 
  -3   6  -2   39.26    2.20 
   3   6   2   37.78    2.25 
  -3   6  -2   37.81    2.28 
   3   6   2   37.83    2.27 
  -4  -6  -2   21.41    1.27 
   4  -6   2   22.55    1.37 
   4  -6   2   22.75    1.31 
  -4  -6  -2   21.89    1.31 
   4  -6   2   22.71    1.29 
  -4  -6  -2   23.00    1.27 
   4  -6   2   22.41    1.31 
  -4  -6  -2   22.34    1.30 
   4   6   2   21.95    1.32 
  -4   6  -2   22.33    1.31 
   4   6   2   21.43    1.30 
  -4   6  -2   21.50    1.36 
  -4   6  -2   21.14    1.28 
   4   6   2   21.34    1.23 
  -4   6  -2   21.77    1.27 
   4   6   2   19.94    1.32 
   5  -6   2   11.41    0.88 
  -5  -6  -2   11.68    0.80 
  -5  -6  -2   11.45    0.75 
  -5  -6  -2   11.62    0.79 
   5  -6   2   11.27    0.77 
  -5  -6  -2   11.72    0.77 
   5  -6   2   11.98    0.82 
  -5   6  -2   11.92    0.88 
   5   6   2   12.43    0.83 
  -5   6  -2   12.54    0.82 
  -5   6  -2   12.15    0.77 
   5   6   2   12.72    0.70 
   5   6   2   12.08    0.84 
  -6  -6  -2   24.20    1.58 
   6  -6   2   25.57    1.59 
  -6  -6  -2   25.27    1.61 
  -6  -6  -2   25.14    1.62 
   6  -6   2   24.92    1.55 
  -6  -6  -2   26.62    1.58 
   6  -6   2   26.24    1.64 
   6  -6   2   25.51    1.71 
   6   6   2   29.17    1.64 
  -6   6  -2   28.89    1.61 
   6   6   2   28.51    1.65 
   6   6   2   29.40    1.67 
  -6   6  -2   26.40    1.59 
  -6   6  -2   28.98    1.66 
  -6   6  -2   29.68    1.71 
  -7  -6  -2    2.56    0.46 
   7  -6   2    2.19    0.38 
   7  -6   2    2.87    0.43 
  -7  -6  -2    2.67    0.42 
  -7   6  -2    2.09    0.35 
   7   6   2    2.05    0.40 
  -7   6  -2    1.76    0.39 
  -7   6  -2    1.90    0.43 
   8  -6   2    4.51    0.59 
  -8  -6  -2    4.08    0.57 
   8  -6   2    4.86    0.84 
  -8  -6  -2    4.06    0.61 
   8   6   2    5.56    0.74 
  -8   6  -2    5.56    0.75 
  -8   6  -2    5.06    0.68 
  -7  -7   2   17.89    1.14 
   7  -7  -2   18.55    1.32 
  -7  -7   2   19.22    1.25 
  -7  -7   2   18.26    1.10 
   7  -7  -2   19.28    1.20 
  -7  -7   2   19.30    1.11 
  -7   7   2   18.15    1.28 
  -7   7   2   18.92    1.34 
   7   7  -2   18.61    1.13 
  -7   7   2   18.20    1.23 
  -7   7   2   18.15    1.25 
   6  -7  -2    5.17    0.48 
   6  -7  -2    5.06    0.59 
   6  -7  -2    5.34    0.49 
  -6  -7   2    5.52    0.39 
  -6  -7   2    5.80    0.53 
  -6  -7   2    5.26    0.38 
  -6  -7   2    5.55    0.36 
   6  -7  -2    5.54    0.69 
  -6  -7   2    5.22    0.42 
   6   7  -2    4.85    0.39 
  -6   7   2    4.50    0.53 
  -6   7   2    4.62    0.52 
  -6   7   2    4.55    0.56 
   6   7  -2    4.58    0.33 
   6   7  -2    4.26    0.51 
  -6   7   2    4.57    0.61 
  -5  -7   2   19.68    1.22 
   5  -7  -2   20.67    1.29 
   5  -7  -2   20.56    1.21 
   5  -7  -2   19.43    1.27 
  -5  -7   2   19.08    1.14 
   5  -7  -2   19.04    1.21 
  -5  -7   2   19.69    1.12 
  -5  -7   2   19.74    1.14 
  -5  -7   2   20.39    1.14 
   5   7  -2   19.66    1.24 
   5   7  -2   20.13    1.14 
  -5   7   2   19.82    1.24 
  -5   7   2   20.69    1.24 
  -5   7   2   20.24    1.32 
  -5   7   2   20.50    1.24 
   4  -7  -2   22.42    1.29 
   4  -7  -2   21.50    1.24 
   4  -7  -2   17.92    1.37 
  -4  -7   2   21.70    1.18 
  -4  -7   2   22.63    1.29 
   4  -7  -2   21.95    1.25 
   4  -7  -2   21.65    1.31 
  -4  -7   2   21.73    1.16 
  -4  -7   2   22.20    1.18 
  -4  -7   2   22.54    1.25 
  -4   7   2   20.27    1.33 
  -4   7   2   19.55    1.23 
   4   7  -2   20.79    1.18 
  -4   7   2   20.06    1.26 
   4   7  -2   19.61    1.27 
   4   7  -2   19.82    1.19 
  -4   7   2   19.54    1.26 
  -4   7   2   20.29    1.25 
   4   7  -2   20.45    1.24 
   3  -7  -2    5.41    0.42 
  -3  -7   2    5.88    0.34 
   3  -7  -2    5.35    0.42 
  -3  -7   2    5.68    0.45 
  -3  -7   2    5.54    0.46 
  -3  -7   2    6.13    0.36 
  -3  -7   2    5.32    0.40 
  -3  -7   2    5.47    0.35 
   3  -7  -2    5.80    0.49 
   3  -7  -2    5.01    0.46 
  -3  -7   2    5.59    0.35 
   3  -7  -2    5.42    0.42 
   3   7  -2    5.65    0.45 
   3   7  -2    5.62    0.36 
   3   7  -2    6.05    0.37 
  -3   7   2    5.26    0.43 
   3   7  -2    5.76    0.40 
  -3   7   2    5.84    0.54 
  -3   7   2    5.65    0.44 
  -3   7   2    5.45    0.40 
   2  -7  -2    4.87    0.39 
   2  -7  -2    5.32    0.42 
  -2  -7   2    5.16    0.41 
   2  -7  -2    4.97    0.38 
   2  -7  -2    5.24    0.37 
   2  -7  -2    4.79    0.37 
  -2  -7   2    5.00    0.32 
  -2  -7   2    4.92    0.33 
  -2  -7   2    5.06    0.33 
  -2  -7   2    5.02    0.33 
  -2  -7   2    4.89    0.33 
  -2  -7   2    5.12    0.40 
  -1  -7   2   92.59    5.16 
   1  -7  -2   95.57    5.15 
   1  -7  -2   94.78    5.17 
  -1  -7   2   91.21    5.12 
   1  -7  -2   90.47    5.15 
   1  -7  -2   92.06    5.15 
  -1  -7   2   95.92    5.19 
  -1  -7   2   93.94    5.13 
   1  -7  -2   95.34    5.13 
  -1  -7   2   97.04    5.12 
  -1  -7   2   97.74    5.13 
  -1   7   2   92.16    5.20 
  -1   7   2   91.30    5.14 
   1   7  -2   91.99    5.14 
  -1   7   2   92.40    5.17 
  -1   7   2   90.40    5.13 
  -1   7   2   95.07    5.19 
   0  -7   2   16.31    0.94 
   0  -7  -2   15.31    0.95 
   0  -7  -2   15.71    0.97 
   0  -7  -2   16.24    0.96 
   0  -7  -2   15.72    0.95 
   0  -7   2   16.38    0.97 
   0  -7  -2   16.00    0.92 
   0  -7   2   16.07    0.93 
   0  -7   2   15.83    0.99 
   0  -7   2   16.22    0.94 
   0   7   2   16.76    0.94 
   0   7   2   16.09    0.93 
   0   7   2   15.99    0.99 
   0   7  -2   16.58    0.97 
   0   7   2   16.73    0.99 
   0   7   2   16.71    1.01 
   0   7  -2   16.63    0.94 
   0   7  -2   16.52    0.97 
   1  -7   2   59.72    3.26 
  -1  -7  -2   58.39    3.26 
   1  -7   2   59.91    3.30 
  -1  -7  -2   60.03    3.31 
   1  -7   2   60.31    3.27 
   1  -7   2   59.09    3.27 
   1  -7   2   57.74    3.29 
   1   7   2   58.95    3.26 
  -1   7  -2   56.20    3.28 
   1   7   2   58.52    3.29 
   1   7   2   58.98    3.26 
   1   7   2   60.27    3.31 
   1   7   2   58.97    3.22 
  -1   7  -2   57.99    3.30 
  -1   7  -2   58.30    3.26 
  -2  -7  -2   52.35    2.93 
   2  -7   2   53.13    2.89 
   2  -7   2   50.17    2.92 
  -2  -7  -2   51.50    2.88 
   2  -7   2   52.60    2.95 
  -2  -7  -2   52.99    2.88 
   2  -7   2   53.27    2.90 
   2  -7   2   53.60    2.90 
  -2  -7  -2   52.27    2.89 
  -2   7  -2   49.92    2.94 
  -2   7  -2   52.80    2.90 
   2   7   2   52.98    2.92 
  -2   7  -2   51.69    2.87 
   2   7   2   52.87    2.90 
   2   7   2   49.41    2.93 
   2   7   2   47.20    2.89 
   2   7   2   52.72    2.87 
  -3  -7  -2    4.52    0.35 
   3  -7   2    4.50    0.45 
   3  -7   2    4.26    0.36 
   3  -7   2    4.09    0.38 
   3  -7   2    4.19    0.38 
  -3  -7  -2    4.56    0.37 
  -3  -7  -2    4.33    0.39 
   3  -7   2    4.00    0.40 
  -3  -7  -2    4.56    0.33 
   3   7   2    4.31    0.41 
   3   7   2    4.56    0.38 
  -3   7  -2    4.24    0.38 
  -3   7  -2    4.40    0.34 
   3   7   2    4.69    0.32 
   3   7   2    4.48    0.38 
  -3   7  -2    4.40    0.31 
  -3   7  -2    4.43    0.46 
  -4   7  -2    1.61    0.23 
  -4   7  -2    1.33    0.29 
   4   7   2    1.73    0.18 
  -4   7  -2    1.66    0.24 
  -4   7  -2    1.35    0.24 
   4   7   2    1.67    0.30 
   4   7   2    1.31    0.25 
   4   7   2    1.45    0.27 
  -5  -7  -2   32.08    1.85 
  -5  -7  -2   31.21    1.81 
   5  -7   2   32.51    1.83 
   5  -7   2   29.53    1.84 
   5  -7   2   31.57    1.85 
   5  -7   2   30.30    1.90 
  -5  -7  -2   32.68    1.80 
   5  -7   2   32.32    1.94 
  -5  -7  -2   30.98    1.83 
  -5   7  -2   32.28    1.86 
  -5   7  -2   33.37    1.81 
   5   7   2   32.02    1.85 
  -5   7  -2   26.99    1.84 
  -5   7  -2   29.29    2.01 
   5   7   2   31.92    1.80 
   5   7   2   32.22    1.88 
   6  -7   2    4.67    0.57 
  -6  -7  -2    4.19    0.48 
  -6  -7  -2    4.19    0.50 
  -6  -7  -2    4.32    0.46 
   6  -7   2    4.64    0.47 
   6  -7   2    5.09    0.67 
  -6  -7  -2    4.35    0.46 
   6   7   2    4.62    0.55 
   6   7   2    5.36    0.47 
  -6   7  -2    4.15    0.58 
  -6   7  -2    4.75    0.64 
  -6   7  -2    5.05    0.49 
   6   7   2    4.91    0.58 
  -7  -7  -2   33.03    2.02 
   7  -7   2   32.83    2.00 
  -7  -7  -2   34.20    2.05 
   7  -7   2   34.32    2.08 
   7   7   2   34.37    2.08 
  -7   7  -2   34.49    2.02 
  -7   7  -2   33.85    2.13 
  -7   7  -2   34.60    2.14 
  -7  -8   2    3.92    0.43 
  -7  -8   2    3.90    0.39 
   7  -8  -2    4.03    0.59 
   7  -8  -2    3.84    0.56 
  -7  -8   2    3.68    0.62 
  -7   8   2    5.58    0.59 
  -7   8   2    5.00    0.74 
  -7   8   2    5.74    0.76 
   7   8  -2    5.06    0.57 
  -7   8   2    5.57    0.68 
  -6  -8   2    7.23    0.49 
  -6  -8   2    6.47    0.53 
   6  -8  -2    6.81    0.72 
   6  -8  -2    7.19    0.59 
  -6  -8   2    7.64    0.64 
  -6   8   2    6.88    0.76 
  -6   8   2    6.71    0.63 
  -6   8   2    7.23    0.70 
   6   8  -2    6.74    0.48 
  -6   8   2    7.00    0.65 
   5  -8  -2    6.12    0.62 
   5  -8  -2    5.58    0.62 
  -5  -8   2    6.27    0.66 
  -5  -8   2    6.09    0.42 
  -5  -8   2    6.04    0.53 
  -5  -8   2    5.66    0.44 
   5  -8  -2    5.51    0.50 
   5  -8  -2    5.79    0.50 
   5  -8  -2    5.72    0.52 
  -5   8   2    6.46    0.56 
   5   8  -2    6.39    0.57 
  -5   8   2    6.66    0.57 
   5   8  -2    6.75    0.43 
  -5   8   2    6.57    0.68 
  -5   8   2    6.72    0.49 
  -5   8   2    6.70    0.58 
   5   8  -2    6.70    0.43 
   4  -8  -2   13.54    0.95 
   4  -8  -2   13.32    0.85 
  -4  -8   2   13.35    0.84 
  -4  -8   2   13.12    0.78 
  -4  -8   2   12.93    0.77 
   4  -8  -2   13.76    0.91 
  -4  -8   2   13.41    0.89 
  -4  -8   2   14.01    0.93 
  -4  -8   2   13.56    0.77 
   4  -8  -2   13.16    0.85 
   4   8  -2   13.51    0.79 
  -4   8   2   13.48    0.88 
  -4   8   2   13.69    0.86 
   4   8  -2   13.32    0.78 
  -4   8   2   13.12    1.04 
   4   8  -2   12.90    0.89 
  -4   8   2   12.33    0.88 
   3  -8  -2   44.85    2.70 
  -3  -8   2   47.73    2.64 
  -3  -8   2   48.27    2.63 
  -3  -8   2   48.79    2.64 
   3  -8  -2   46.28    2.69 
  -3  -8   2   48.47    2.74 
   3  -8  -2   46.68    2.70 
   3  -8  -2   45.73    2.71 
  -3  -8   2   47.29    2.66 
  -3  -8   2   50.09    2.73 
  -3   8   2   48.76    2.68 
  -3   8   2   48.34    2.70 
  -3   8   2   46.78    2.70 
   3   8  -2   48.96    2.65 
  -3   8   2   48.20    2.79 
   3   8  -2   48.63    2.64 
  -3   8   2   47.37    2.75 
   2  -8  -2   36.33    2.04 
  -2  -8   2   36.41    2.08 
  -2  -8   2   37.19    1.99 
  -2  -8   2   38.73    2.06 
   2  -8  -2   36.24    2.06 
  -2  -8   2   36.94    2.00 
  -2  -8   2   38.13    2.00 
  -2  -8   2   37.59    1.98 
  -2  -8   2   37.63    2.00 
   2  -8  -2   36.07    2.05 
   2  -8  -2   36.55    2.03 
   2  -8  -2   36.98    2.04 
   2   8  -2   34.21    2.01 
  -2   8   2   34.08    2.04 
  -2   8   2   31.92    2.07 
   2   8  -2   34.03    2.00 
  -2   8   2   31.95    2.10 
  -2   8   2   33.53    2.03 
  -1  -8   2    4.63    0.42 
  -1  -8   2    4.85    0.33 
  -1  -8   2    4.58    0.33 
   1  -8  -2    4.91    0.38 
   1  -8  -2    4.94    0.36 
  -1  -8   2    4.47    0.34 
   1  -8  -2    4.65    0.37 
   1  -8  -2    4.94    0.34 
  -1  -8   2    4.41    0.34 
   1  -8  -2    4.78    0.40 
  -1  -8   2    4.79    0.34 
   0  -8  -2   33.96    1.94 
   0  -8   2   33.28    1.92 
   0  -8   2   33.13    1.97 
   0  -8  -2   34.71    1.93 
   0  -8  -2   33.87    1.93 
   0  -8  -2   33.36    1.93 
   0  -8   2   33.90    1.92 
   0  -8  -2   34.56    1.90 
   0  -8   2   33.86    1.91 
   0   8   2   34.24    1.99 
   0   8  -2   34.19    1.95 
   0   8   2   35.23    1.92 
   0   8   2   34.21    1.90 
   0   8  -2   34.73    1.95 
   0   8   2   34.16    1.97 
   0   8   2   34.25    1.97 
   1  -8   2  101.81    5.63 
   1  -8   2  103.05    5.59 
  -1  -8  -2  103.04    5.60 
  -1  -8  -2  102.10    5.59 
  -1  -8  -2  100.96    5.59 
   1  -8   2  105.30    5.63 
  -1  -8  -2  102.88    5.58 
   1  -8   2  100.62    5.58 
   1  -8   2  105.05    5.60 
   1   8   2   99.15    5.62 
   1   8   2   99.98    5.64 
   1   8   2  103.39    5.59 
  -1   8  -2   98.97    5.60 
  -1   8  -2  101.50    5.59 
  -1   8  -2   99.49    5.63 
   1   8   2   97.14    5.63 
  -2  -8  -2   33.35    1.78 
  -2  -8  -2   31.93    1.78 
   2  -8   2   31.83    1.82 
   2  -8   2   31.67    1.80 
   2  -8   2   31.62    1.85 
   2  -8   2   31.69    1.78 
  -2  -8  -2   31.57    1.83 
   2  -8   2   33.13    1.80 
  -2  -8  -2   31.30    1.78 
   2   8   2   30.19    1.79 
   2   8   2   30.50    1.84 
  -2   8  -2   30.44    1.79 
  -2   8  -2   31.69    1.85 
  -2   8  -2   30.70    1.76 
  -2   8  -2   30.05    1.81 
   2   8   2   30.62    1.79 
   2   8   2   30.29    1.81 
   3  -8   2   15.66    1.36 
  -3  -8  -2   17.95    1.05 
  -3  -8  -2   17.65    1.03 
   3  -8   2   16.54    1.08 
  -3  -8  -2   18.11    1.05 
   3  -8   2   17.39    1.07 
   3  -8   2   18.88    1.08 
   3  -8   2   17.60    1.07 
  -3  -8  -2   16.17    1.17 
  -3   8  -2   17.61    1.03 
   3   8   2   17.08    1.07 
  -3   8  -2   17.54    1.07 
  -3   8  -2   17.33    1.14 
  -3   8  -2   17.55    0.99 
   3   8   2   17.84    1.12 
   3   8   2   17.72    1.07 
   4  -8   2    2.68    0.31 
  -4  -8  -2    2.91    0.35 
  -4  -8  -2    2.73    0.33 
  -4  -8  -2    2.72    0.30 
   4  -8   2    2.65    0.34 
  -4  -8  -2    2.67    0.33 
   4  -8   2    3.13    0.49 
   4  -8   2    2.46    0.39 
   4  -8   2    2.87    0.34 
   4   8   2    2.05    0.34 
   4   8   2    2.05    0.38 
  -4   8  -2    2.16    0.26 
  -4   8  -2    2.46    0.31 
  -4   8  -2    2.36    0.39 
  -4   8  -2    2.14    0.34 
   4   8   2    1.96    0.35 
   5  -8   2    7.58    0.84 
  -5  -8  -2   10.94    0.72 
   5  -8   2   10.55    0.70 
   5  -8   2   10.70    0.70 
   5  -8   2   12.00    0.89 
  -5  -8  -2   10.36    0.69 
   5  -8   2   11.07    0.77 
  -5  -8  -2   11.11    0.68 
  -5  -8  -2   10.83    0.72 
   5   8   2    8.43    0.75 
   5   8   2    9.20    0.70 
  -5   8  -2    8.96    0.67 
  -5   8  -2    9.31    0.84 
  -5   8  -2    8.97    0.66 
  -5   8  -2    8.43    0.74 
   5   8   2    8.83    0.86 
   5   8   2    9.11    0.68 
  -6  -8  -2   17.72    1.17 
  -6  -8  -2   17.83    1.15 
   6  -8   2   18.91    1.16 
   6  -8   2   18.60    1.25 
  -6  -8  -2   18.53    1.24 
  -6  -8  -2   18.59    1.18 
   6  -8   2   18.66    1.15 
   6   8   2   18.28    1.23 
  -6   8  -2   16.74    1.25 
  -6   8  -2   18.41    1.32 
  -6   8  -2   17.93    1.14 
  -7  -8  -2    0.61    0.28 
  -7  -8  -2    0.51    0.32 
   7  -8   2    0.59    0.37 
   7  -8   2    0.69    0.27 
  -7   8  -2    0.54    0.32 
   7   8   2    0.39    0.37 
  -7   8  -2    0.08    0.35 
  -6  -9   2    2.36    0.41 
  -6  -9   2    2.81    0.32 
   6  -9  -2    3.06    0.50 
  -6  -9   2    3.05    0.71 
   6  -9  -2    2.86    0.45 
  -6  -9   2    2.34    0.37 
  -6  -9   2    2.68    0.27 
   5  -9  -2    7.98    0.75 
  -5  -9   2    7.42    0.52 
   5  -9  -2    7.79    0.59 
   5  -9  -2    6.99    0.72 
  -5  -9   2    7.62    0.59 
  -5  -9   2    8.46    0.73 
  -5  -9   2    7.50    0.46 
  -5  -9   2    7.32    0.48 
  -5   9   2    6.03    0.63 
  -5   9   2    6.04    0.76 
  -5   9   2    6.39    0.62 
   5   9  -2    6.36    0.47 
   5   9  -2    6.79    0.48 
  -5   9   2    6.44    0.61 
   4  -9  -2   26.72    1.58 
  -4  -9   2   26.37    1.51 
   4  -9  -2   26.04    1.57 
  -4  -9   2   26.12    1.49 
  -4  -9   2   25.78    1.49 
  -4  -9   2   26.08    1.61 
  -4  -9   2   27.46    1.64 
  -4  -9   2   26.58    1.55 
   4  -9  -2   25.62    1.66 
   4   9  -2   27.51    1.51 
  -4   9   2   25.99    1.69 
  -4   9   2   26.58    1.60 
  -4   9   2   26.48    1.59 
  -4   9   2   26.67    1.65 
  -4   9   2   26.46    1.55 
   4   9  -2   26.96    1.50 
  -4   9   2   27.65    1.57 
   3  -9  -2   15.07    1.01 
  -3  -9   2   15.04    1.00 
  -3  -9   2   15.48    0.91 
  -3  -9   2   15.38    1.00 
   3  -9  -2   15.38    0.96 
  -3  -9   2   14.79    0.92 
  -3  -9   2   15.14    0.90 
  -3  -9   2   15.07    0.90 
   3  -9  -2   14.93    0.97 
  -3   9   2   16.34    0.99 
   3   9  -2   16.16    0.91 
  -3   9   2   16.91    1.11 
  -3   9   2   16.44    0.93 
  -3   9   2   15.60    1.02 
  -3   9   2   13.94    0.96 
   3   9  -2   16.75    0.93 
  -2  -9   2   38.86    2.18 
  -2  -9   2   39.15    2.19 
   2  -9  -2   38.20    2.25 
   2  -9  -2   38.35    2.22 
  -2  -9   2   38.40    2.19 
   2  -9  -2   38.66    2.21 
   2  -9  -2   38.62    2.23 
   2  -9  -2   37.87    2.23 
  -2  -9   2   38.92    2.16 
  -2  -9   2   39.78    2.23 
  -2  -9   2   39.03    2.18 
  -2  -9   2   38.70    2.16 
  -2   9   2   39.12    2.27 
  -2   9   2   39.93    2.22 
  -2   9   2   39.52    2.24 
  -2   9   2   38.52    2.18 
  -2   9   2   40.78    2.32 
   2   9  -2   40.93    2.20 
  -1  -9   2   32.80    1.77 
  -1  -9   2   34.01    1.78 
   1  -9  -2   33.87    1.81 
   1  -9  -2   32.57    1.82 
   1  -9  -2   34.11    1.80 
  -1  -9   2   33.30    1.76 
   1  -9  -2   32.18    1.81 
  -1  -9   2   33.63    1.78 
   1  -9  -2   33.44    1.77 
  -1   9   2   28.47    1.77 
  -1   9   2   27.79    1.86 
  -1   9   2   27.68    1.76 
  -1   9   2   26.83    1.82 
   1   9  -2   28.33    1.78 
   0  -9  -2    1.99    0.19 
   0  -9   2    2.03    0.26 
   0  -9  -2    2.10    0.24 
   0  -9  -2    1.76    0.28 
   0  -9   2    2.21    0.25 
   0  -9  -2    1.88    0.26 
   0  -9   2    2.39    0.25 
   0  -9   2    2.03    0.24 
   0  -9  -2    2.14    0.27 
   0  -9   2    2.11    0.30 
   0   9  -2    1.58    0.25 
   0   9   2    1.28    0.22 
   0   9  -2    1.40    0.25 
   0   9   2    1.55    0.30 
   0   9   2    1.21    0.22 
   0   9   2    1.41    0.26 
  -1  -9  -2   44.09    2.46 
  -1  -9  -2   43.93    2.45 
   1  -9   2   43.40    2.46 
  -1  -9  -2   44.40    2.46 
   1  -9   2   43.52    2.50 
   1  -9   2   44.54    2.51 
  -1  -9  -2   37.90    2.50 
   1  -9   2   44.25    2.46 
   1  -9   2   44.00    2.46 
   1  -9   2   43.41    2.44 
   1   9   2   44.33    2.52 
  -1   9  -2   44.87    2.46 
   1   9   2   44.21    2.45 
   1   9   2   44.07    2.63 
  -1   9  -2   42.58    2.51 
   2  -9   2   33.90    1.92 
  -2  -9  -2   33.30    1.91 
  -2  -9  -2   34.86    1.89 
  -2  -9  -2   32.81    1.90 
   2  -9   2   33.38    1.94 
   2  -9   2   35.58    1.99 
   2  -9   2   30.70    1.93 
   2  -9   2   35.04    1.92 
   2   9   2   31.73    1.98 
  -2   9  -2   33.25    1.98 
  -2   9  -2   34.11    1.91 
   2   9   2   33.95    1.96 
  -2   9  -2   31.22    1.93 
   2   9   2   31.86    1.93 
  -2   9  -2   33.28    1.92 
   2   9   2   33.33    1.97 
  -3  -9  -2    0.27    0.18 
  -3  -9  -2    0.35    0.17 
  -3  -9  -2    0.38    0.16 
   3  -9   2    0.27    0.17 
  -3  -9  -2    0.35    0.14 
   3  -9   2    0.24    0.17 
   3  -9   2    0.50    0.17 
   3  -9   2    0.46    0.27 
   3  -9   2    0.44    0.21 
  -3   9  -2    0.32    0.16 
  -3   9  -2    0.36    0.15 
   3   9   2    0.34    0.22 
  -3   9  -2    0.46    0.26 
   3   9   2    0.48    0.19 
   4  -9   2   17.09    1.08 
   4  -9   2   18.56    1.22 
   4  -9   2   18.37    1.08 
  -4  -9  -2   18.07    1.05 
  -4  -9  -2   18.16    1.10 
   4  -9   2   18.40    1.10 
   4  -9   2   18.25    1.09 
   4  -9   2   18.44    1.12 
  -4  -9  -2   17.85    1.06 
   4   9   2   16.32    1.14 
   4   9   2   16.04    1.10 
  -4   9  -2   15.87    1.09 
   4   9   2   15.81    1.05 
  -4   9  -2   15.88    0.99 
   4   9   2   15.86    1.08 
  -4   9  -2   16.02    1.19 
  -5  -9  -2   19.51    1.26 
   5  -9   2   19.60    1.26 
   5  -9   2   20.21    1.31 
   5  -9   2   19.85    1.27 
   5  -9   2   19.71    1.43 
  -5  -9  -2   20.37    1.24 
  -5  -9  -2   19.53    1.27 
  -5  -9  -2   19.62    1.25 
   5   9   2   21.59    1.33 
   5   9   2   21.13    1.34 
  -5   9  -2   21.69    1.21 
  -5   9  -2   21.13    1.44 
  -5   9  -2   20.36    1.31 
   5   9   2   20.30    1.24 
   6  -9   2    2.71    0.44 
  -6  -9  -2    3.42    0.53 
  -6  -9  -2    3.70    0.48 
   6  -9   2    3.06    0.47 
   6   9   2    3.62    0.57 
  -6   9  -2    3.25    0.56 
  -6   9  -2    3.35    0.47 
   6 -10  -2    9.06    0.74 
  -6 -10   2    8.52    0.56 
  -6 -10   2    9.17    0.80 
   6 -10  -2    8.41    0.92 
  -5 -10   2   16.06    1.03 
  -5 -10   2   16.34    0.99 
   5 -10  -2   16.10    1.09 
  -5 -10   2   16.59    1.22 
  -5 -10   2   16.09    0.98 
   5 -10  -2   16.25    1.21 
  -5  10   2   21.40    1.19 
   4 -10  -2    3.09    0.53 
  -4 -10   2    3.36    0.36 
   4 -10  -2    3.26    0.54 
  -4 -10   2    3.28    0.30 
  -4 -10   2    3.20    0.29 
  -4 -10   2    3.02    0.38 
   4 -10  -2    3.36    0.42 
   4 -10  -2    3.10    0.40 
  -4 -10   2    3.29    0.50 
  -4  10   2    2.58    0.47 
  -4  10   2    3.56    0.47 
   4  10  -2    3.24    0.31 
   4  10  -2    3.07    0.34 
  -4  10   2    3.21    0.44 
   3 -10  -2   36.71    2.21 
  -3 -10   2   38.63    2.16 
   3 -10  -2   38.54    2.25 
   3 -10  -2   38.76    2.24 
  -3 -10   2   39.72    2.16 
  -3 -10   2   38.60    2.15 
  -3 -10   2   38.86    2.15 
  -3 -10   2   40.20    2.23 
  -3 -10   2   39.20    2.16 
  -3 -10   2   38.64    2.26 
   3 -10  -2   39.00    2.22 
   3 -10  -2   37.68    2.20 
   3  10  -2   39.46    2.18 
  -3  10   2   36.84    2.27 
   3  10  -2   38.77    2.16 
  -3  10   2   38.53    2.22 
  -3  10   2   34.95    2.42 
  -3  10   2   38.33    2.19 
  -3  10   2   38.07    2.16 
   2 -10  -2   34.72    1.94 
  -2 -10   2   34.49    1.92 
  -2 -10   2   34.43    1.92 
   2 -10  -2   33.23    1.95 
  -2 -10   2   34.75    1.93 
   2 -10  -2   32.68    1.99 
  -2 -10   2   33.46    1.91 
   2 -10  -2   33.77    1.97 
  -2 -10   2   34.21    1.88 
   2 -10  -2   33.72    1.97 
  -2  10   2   34.80    2.08 
  -2  10   2   32.93    1.95 
   2  10  -2   34.94    1.94 
  -2  10   2   33.61    2.01 
  -2  10   2   33.62    1.91 
  -1 -10   2   25.63    1.51 
  -1 -10   2   25.57    1.49 
  -1 -10   2   25.94    1.52 
   1 -10  -2   25.37    1.54 
   1 -10  -2   25.57    1.55 
  -1 -10   2   25.23    1.51 
  -1 -10   2   26.21    1.51 
   1 -10  -2   26.21    1.54 
   1 -10  -2   26.12    1.57 
  -1  10   2   27.10    1.65 
   1  10  -2   28.22    1.54 
  -1  10   2   27.03    1.52 
  -1  10   2   26.93    1.50 
   1  10  -2   27.30    1.56 
   0 -10  -2   28.20    1.55 
   0 -10   2   28.03    1.58 
   0 -10  -2   27.48    1.61 
   0 -10   2   27.86    1.60 
   0 -10   2   27.40    1.58 
   0 -10   2   27.51    1.59 
   0 -10  -2   26.65    1.62 
   0 -10   2   27.98    1.59 
   0 -10  -2   27.33    1.61 
   0 -10  -2   27.10    1.60 
  -1 -10  -2   15.28    0.98 
  -1 -10  -2   15.98    0.98 
   1 -10   2   15.80    0.98 
  -1 -10  -2   15.69    0.97 
   1 -10   2   16.46    0.99 
  -1 -10  -2   15.48    0.99 
   1 -10   2   15.33    0.98 
   1  10   2   16.25    1.07 
   1  10   2   17.15    0.97 
   1  10   2   14.97    1.02 
  -1  10  -2   16.66    1.07 
   1  10   2   15.88    1.05 
   2 -10   2    7.75    0.58 
   2 -10   2    8.50    0.70 
  -2 -10  -2    8.24    0.55 
   2 -10   2    7.49    0.56 
  -2 -10  -2    8.01    0.57 
  -2 -10  -2    8.26    0.57 
  -2 -10  -2    7.77    0.56 
   2 -10   2    7.96    0.59 
   2 -10   2    8.44    0.59 
   2 -10   2    7.53    0.62 
   2  10   2    7.62    0.66 
   2  10   2    6.88    0.62 
   2  10   2    7.45    0.57 
  -2  10  -2    7.12    0.57 
  -2  10  -2    7.00    0.69 
  -2  10  -2    7.24    0.54 
   2  10   2    7.50    0.58 
  -3 -10  -2   47.71    2.89 
  -3 -10  -2   48.58    2.89 
   3 -10   2   47.93    2.90 
   3 -10   2   49.67    3.00 
  -3 -10  -2   46.58    2.87 
  -3 -10  -2   49.70    2.85 
  -3 -10  -2   48.71    2.89 
   3 -10   2   48.46    2.93 
   3 -10   2   46.72    2.91 
   3 -10   2   46.96    2.91 
   3 -10   2   48.07    2.92 
  -3  10  -2   55.14    2.94 
  -3  10  -2   53.97    2.92 
   3  10   2   55.93    2.97 
   3  10   2   57.48    2.93 
   3  10   2   53.67    2.94 
   3  10   2   55.84    2.99 
  -3  10  -2   57.47    3.02 
  -3  10  -2   56.15    2.88 
   4 -10   2    7.02    0.65 
   4 -10   2    7.20    0.58 
  -4 -10  -2    6.85    0.59 
   4 -10   2    7.57    0.82 
   4 -10   2    7.62    0.64 
  -4 -10  -2    6.86    0.60 
  -4 -10  -2    7.04    0.57 
  -4 -10  -2    7.15    0.59 
   4  10   2    7.32    0.65 
  -4  10  -2    7.79    0.58 
  -4  10  -2    6.07    1.07 
   5 -10   2    7.72    0.73 
  -5 -10  -2    6.99    0.66 
   5 -10   2    6.90    0.69 
   5 -10   2    6.55    0.94 
  -5 -10  -2    6.87    0.64 
   5 -10   2    7.09    0.61 
   5  10   2    7.73    0.76 
  -5  10  -2    7.72    0.91 
   5  10   2    8.13    0.70 
  -5  10  -2    7.81    0.55 
  -6 -10  -2   15.75    1.10 
  -6 -10  -2   14.99    1.07 
   6 -10   2   15.42    1.20 
   6  10   2   15.08    1.15 
  -6  10  -2   15.39    1.33 
   5 -11  -2    6.57    0.85 
  -5 -11   2    5.78    0.63 
   5 -11  -2    6.15    0.60 
  -5 -11   2    6.34    0.48 
   5 -11  -2    6.32    1.06 
  -5 -11   2    6.05    0.45 
  -5  11   2    6.76    0.67 
  -5  11   2    7.06    0.99 
  -5  11   2    6.51    0.70 
  -4 -11   2   17.25    1.30 
  -4 -11   2   16.33    1.03 
  -4 -11   2   16.15    0.97 
  -4 -11   2   16.88    1.03 
   4 -11  -2   16.49    1.18 
   4 -11  -2   16.38    1.07 
   4 -11  -2   16.21    1.17 
  -4 -11   2   16.11    0.98 
  -3 -11   2    6.66    0.47 
   3 -11  -2    6.77    0.56 
  -3 -11   2    6.44    0.57 
  -3 -11   2    6.79    0.52 
  -3 -11   2    6.42    0.51 
   3 -11  -2    6.16    0.64 
  -3 -11   2    6.38    0.47 
  -3 -11   2    6.70    0.49 
   3 -11  -2    6.47    0.57 
   3 -11  -2    6.18    0.64 
  -3  11   2    6.19    0.50 
  -3  11   2    6.88    0.54 
   3  11  -2    6.78    0.53 
  -3  11   2    7.14    0.84 
  -3  11   2    6.54    0.60 
   2 -11  -2   24.02    1.47 
   2 -11  -2   23.77    1.45 
  -2 -11   2   23.59    1.40 
  -2 -11   2   23.82    1.39 
  -2 -11   2   23.15    1.41 
   2 -11  -2   24.07    1.42 
  -2 -11   2   23.25    1.40 
   2 -11  -2   23.08    1.48 
  -2  11   2   24.44    1.44 
   2  11  -2   25.45    1.54 
  -2  11   2   26.00    1.63 
  -2  11   2   24.57    1.39 
   1 -11  -2   11.89    0.86 
  -1 -11   2   12.03    0.80 
   1 -11  -2   12.17    0.78 
  -1 -11   2   11.67    0.76 
   1 -11  -2   11.81    0.81 
  -1 -11   2   11.90    0.81 
  -1 -11   2   11.90    0.78 
   1 -11  -2   11.12    0.82 
  -1 -11   2   11.66    0.79 
   1 -11  -2   12.53    0.86 
   1  11  -2   13.59    0.83 
   1  11  -2   13.75    0.87 
  -1  11   2   13.83    1.00 
  -1  11   2   13.51    0.89 
  -1  11   2   13.31    0.77 
   0 -11   2    3.43    0.37 
   0 -11  -2    3.62    0.42 
   0 -11   2    3.77    0.45 
   0 -11   2    3.29    0.38 
   0 -11   2    3.45    0.39 
   0 -11  -2    3.51    0.37 
   0 -11   2    3.65    0.39 
   0 -11   2    3.35    0.40 
   0 -11  -2    3.51    0.31 
   0 -11  -2    3.40    0.40 
   0 -11  -2    3.48    0.43 
   0  11  -2    4.75    0.41 
   0  11   2    4.38    0.53 
   0  11  -2    4.73    0.52 
   0  11   2    4.42    0.60 
   0  11   2    4.43    0.37 
   0  11   2    4.19    0.47 
  -1 -11  -2   19.81    1.17 
  -1 -11  -2   19.12    1.18 
  -1 -11  -2   19.55    1.18 
  -1 -11  -2   19.51    1.18 
   1 -11   2   18.55    1.19 
   1 -11   2   18.47    1.16 
   1 -11   2   19.09    1.18 
   1 -11   2   18.67    1.17 
   1 -11   2   18.21    1.17 
   1 -11   2   17.99    1.23 
   1  11   2   20.40    1.30 
   1  11   2   20.21    1.16 
  -1  11  -2   19.38    1.27 
   1  11   2   19.98    1.25 
  -1  11  -2   18.44    1.20 
   2 -11   2   38.37    2.22 
  -2 -11  -2   37.98    2.22 
  -2 -11  -2   37.60    2.21 
  -2 -11  -2   38.36    2.22 
   2 -11   2   37.35    2.23 
  -2 -11  -2   39.43    2.22 
   2 -11   2   37.40    2.23 
   2 -11   2   36.39    2.27 
   2 -11   2   39.09    2.24 
   2 -11   2   36.66    2.39 
  -2  11  -2   41.10    2.20 
   2  11   2   40.31    2.31 
   2  11   2   40.40    2.31 
   2  11   2   39.56    2.22 
  -2  11  -2   39.33    2.33 
  -3 -11  -2    0.12    0.20 
   3 -11   2    0.25    0.39 
  -3 -11  -2    0.31    0.18 
   3 -11   2    0.14    0.20 
  -3 -11  -2    0.14    0.20 
   3 -11   2    0.51    0.26 
   3 -11   2    0.32    0.23 
   3 -11   2    0.44    0.29 
  -3 -11  -2    0.16    0.23 
   3  11   2    0.14    0.23 
   3  11   2    0.39    0.31 
  -3  11  -2    0.28    0.35 
   3  11   2    0.00    0.24 
  -3  11  -2    0.22    0.25 
  -4 -11  -2   12.62    0.93 
   4 -11   2   11.67    0.98 
  -4 -11  -2   11.62    0.88 
   4 -11   2   12.61    0.92 
   4 -11   2   12.31    1.20 
   4 -11   2   12.35    0.97 
  -4  11  -2   15.42    0.93 
  -4  11  -2   15.99    1.18 
   4  11   2   16.16    1.03 
  -4  11  -2   15.21    1.01 
   5 -11   2   10.06    0.90 
  -5 -11  -2   10.28    0.82 
   5 -11   2   10.46    0.78 
  -5 -11  -2   10.06    0.84 
  -5  11  -2   11.11    1.15 
   5  11   2   10.49    0.88 
  -4 -12   2    0.78    0.27 
   4 -12  -2    0.79    0.41 
  -4 -12   2    0.46    0.18 
   4 -12  -2    0.23    0.23 
  -4  12   2    0.88    0.51 
  -4  12   2    0.56    0.37 
  -3 -12   2   13.16    0.82 
   3 -12  -2   13.01    0.97 
  -3 -12   2   12.91    0.86 
   3 -12  -2   13.50    0.90 
   3 -12  -2   13.93    0.89 
  -3 -12   2   12.89    0.79 
  -3 -12   2   12.59    0.83 
  -3  12   2    9.45    0.91 
  -3  12   2   10.26    1.12 
   2 -12  -2   12.89    0.87 
  -2 -12   2   12.24    0.84 
   2 -12  -2   11.61    0.94 
  -2 -12   2   12.29    0.82 
  -2 -12   2   12.73    0.88 
   2 -12  -2   12.29    0.88 
  -2 -12   2   12.29    0.84 
   2 -12  -2   12.73    0.97 
  -2  12   2   15.81    1.17 
   2  12  -2   13.91    0.91 
  -2  12   2   14.31    0.83 
  -1 -12   2    0.06    0.18 
   1 -12  -2    0.12    0.26 
   1 -12  -2    0.13    0.22 
  -1 -12   2    0.10    0.23 
  -1 -12   2    0.29    0.23 
   1 -12  -2    0.05    0.19 
  -1 -12   2    0.32    0.17 
   1 -12  -2    0.16    0.21 
  -1 -12   2    0.12    0.20 
  -1  12   2    0.55    0.19 
   1  12  -2    0.55    0.30 
  -1  12   2    0.41    0.42 
   0 -12   2   17.35    1.13 
   0 -12   2   16.58    1.08 
   0 -12  -2   16.86    1.13 
   0 -12  -2   17.35    1.12 
   0 -12   2   17.41    1.09 
   0 -12   2   16.92    1.08 
   0 -12  -2   16.93    1.02 
   0 -12   2   16.81    1.11 
   0 -12  -2   17.52    1.14 
   0  12   2   19.32    1.20 
   0  12   2   18.68    1.06 
   0  12   2   18.52    1.29 
   0  12  -2   18.96    1.21 
  -1 -12  -2    4.65    0.51 
   1 -12   2    4.72    0.49 
   1 -12   2    5.56    0.54 
   1 -12   2    5.28    0.49 
   1 -12   2    4.87    0.66 
  -1 -12  -2    4.99    0.55 
   1 -12   2    4.71    0.57 
  -1 -12  -2    4.84    0.51 
   1  12   2    6.31    0.60 
  -1  12  -2    6.65    0.71 
   1  12   2    6.37    0.76 
   1  12   2    6.13    0.54 
   2 -12   2    2.96    0.43 
  -2 -12  -2    3.22    0.44 
  -2 -12  -2    2.52    0.39 
   2 -12   2    3.29    0.52 
   2 -12   2    2.59    0.42 
  -2  12  -2    3.37    0.70 
   2  12   2    3.77    0.47 
   2  12   2    3.51    0.67 
   2  12   2    3.83    0.51 
  -3 -12  -2   19.72    1.24 
   3 -12   2   19.58    1.23 
  -3 -12  -2   18.27    1.20 
   3 -12   2   18.92    1.25 
  -3  12  -2   20.94    1.47 
   3  12   2   19.57    1.31 
   4 -12   2    2.71    0.43 
  -4 -12  -2    2.18    0.39 
   4 -12   2    2.90    0.46 
   4  12   2    3.98    0.62 
  -4  12  -2    3.65    0.63 
  -3 -13   2    4.54    0.55 
  -3 -13   2    4.25    0.43 
   3 -13  -2    4.19    0.69 
  -3  13   2    4.95    1.02 
   2 -13  -2   11.41    0.90 
   2 -13  -2   10.76    0.81 
  -2 -13   2   10.44    0.85 
  -2 -13   2   10.82    0.80 
  -2 -13   2   11.20    0.74 
  -2  13   2   10.75    1.18 
   1 -13  -2    6.67    0.68 
  -1 -13   2    7.38    0.58 
  -1 -13   2    7.49    0.64 
   1 -13  -2    7.46    0.66 
  -1  13   2    9.17    1.12 
   0 -13  -2    3.37    0.49 
   0 -13   2    4.00    0.43 
   0 -13   2    3.92    0.49 
   0 -13  -2    4.51    0.52 
   0  13   2    4.03    0.83 
   1 -13   2    1.08    0.29 
  -1 -13  -2    1.19    0.30 
   1 -13   2    1.48    0.28 
  -1 -13  -2    1.35    0.28 
   1  13   2    2.05    0.38 
   2 -13   2   24.61    1.49 
   2 -13   2   22.72    1.54 
   2 -13   2   24.74    1.48 
  -2 -13  -2   25.22    1.50 
  -2 -13  -2   23.98    1.47 
   2  13   2   22.34    1.56 
  -9   0   3    2.59    0.52 
  -9   0   3    2.52    0.43 
  -9   0   3    1.78    0.45 
  -8   0   3    0.80    0.28 
  -8   0   3    0.49    0.26 
  -8   0   3    0.83    0.29 
  -8   0   3    0.57    0.27 
   8   0  -3    0.59    0.25 
  -8   0   3    0.70    0.21 
   8   0  -3    0.53    0.24 
   7   0  -3   16.96    1.04 
  -7   0   3   16.55    1.07 
   7   0  -3   17.02    1.07 
  -7   0   3   16.50    1.02 
  -7   0   3   16.87    1.04 
  -7   0   3   17.55    1.09 
  -7   0   3   16.46    1.11 
  -6   0   3   69.83    4.24 
  -6   0   3   74.01    4.19 
   6   0  -3   75.12    4.20 
   6   0  -3   75.58    4.17 
  -6   0   3   75.07    4.15 
   6   0  -3   78.05    4.16 
  -6   0   3   78.20    4.17 
  -6   0   3   75.60    4.21 
  -5   0   3   18.80    1.09 
  -5   0   3   19.14    1.14 
  -5   0   3   18.55    1.17 
   5   0  -3   19.28    1.06 
   5   0  -3   19.08    1.06 
  -5   0   3   19.32    1.11 
   5   0  -3   19.55    1.14 
   5   0  -3   19.37    1.12 
   5   0  -3   18.94    1.11 
  -5   0   3   19.31    1.15 
  -4   0   3  135.18    7.36 
   4   0  -3  134.64    7.33 
   4   0  -3  135.13    7.38 
   4   0  -3  132.92    7.37 
   4   0  -3  136.24    7.33 
  -4   0   3  129.34    7.40 
  -4   0   3  133.20    7.35 
  -4   0   3  140.54    7.34 
  -4   0   3  132.44    7.39 
   4   0  -3  132.57    7.36 
  -4   0   3  138.85    7.39 
   3   0  -3    1.64    0.11 
  -3   0   3    1.71    0.18 
   3   0  -3    1.48    0.16 
   3   0  -3    1.59    0.15 
  -3   0   3    1.62    0.14 
  -3   0   3    1.60    0.18 
  -3   0   3    1.76    0.15 
   3   0  -3    1.68    0.16 
  -3   0   3    1.70    0.13 
  -3   0   3    1.70    0.13 
  -2   0   3   19.65    1.21 
   2   0  -3   20.55    1.14 
   2   0  -3   20.01    1.13 
  -2   0   3   20.80    1.14 
  -2   0   3   21.22    1.14 
   2   0  -3   19.38    1.15 
   2   0  -3   20.93    1.13 
   2   0  -3   21.46    1.15 
  -2   0   3   20.54    1.16 
  -2   0   3   20.87    1.16 
  -2   0   3   20.84    1.16 
  -1   0   3   46.40    2.55 
  -1   0   3   45.67    2.54 
   1   0  -3   44.39    2.60 
  -1   0   3   46.68    2.55 
   1   0  -3   47.33    2.53 
  -1   0   3   45.85    2.54 
   1   0  -3   47.07    2.54 
   1   0  -3   46.70    2.56 
   1   0  -3   46.64    2.54 
  -1   0   3   46.50    2.54 
   0   0   3  926.18   52.59 
   0   0  -3  953.05   52.60 
   0   0  -3 1000.00   52.28 
   1   0   3  921.88   50.77 
  -1   0  -3  926.35   50.67 
  -1   0  -3  902.05   50.75 
   1   0   3  900.44   50.70 
  -1   0  -3  918.09   50.64 
  -1   0  -3  976.94   50.72 
   1   0   3  963.76   50.67 
   1   0   3  921.10   50.67 
   2   0   3  127.84    7.03 
   2   0   3  127.40    7.06 
  -2   0  -3  133.32    7.05 
   2   0   3  130.63    7.04 
  -2   0  -3  129.78    7.04 
   2   0   3  124.65    7.03 
  -2   0  -3  127.53    7.03 
  -2   0  -3  127.91    7.03 
   3   0   3    0.20    0.08 
  -3   0  -3    0.30    0.09 
   3   0   3    0.06    0.09 
   3   0   3    0.16    0.08 
  -3   0  -3    0.23    0.09 
   3   0   3    0.15    0.08 
  -3   0  -3    0.13    0.10 
   3   0   3    0.20    0.09 
  -3   0  -3    0.24    0.10 
   4   0   3   38.30    2.18 
  -4   0  -3   38.68    2.14 
  -4   0  -3   37.98    2.18 
   4   0   3   36.96    2.19 
  -4   0  -3   37.95    2.16 
   4   0   3   39.56    2.15 
  -4   0  -3   38.36    2.16 
   4   0   3   37.61    2.13 
   4   0   3   37.87    2.14 
   5   0   3   34.67    2.07 
  -5   0  -3   33.77    2.02 
  -5   0  -3   36.30    2.01 
   5   0   3   35.63    2.00 
   5   0   3   35.08    2.01 
  -5   0  -3   35.88    2.03 
  -5   0  -3   36.09    2.06 
   5   0   3   35.26    2.01 
   5   0   3   35.88    2.05 
  -6   0  -3    9.74    0.63 
   6   0   3    9.29    0.65 
  -6   0  -3    9.15    0.69 
   6   0   3    9.30    0.68 
   6   0   3    9.60    0.67 
   6   0   3    9.68    0.62 
  -6   0  -3    9.47    0.68 
  -6   0  -3    9.07    0.66 
   6   0   3    8.34    0.69 
  -7   0  -3   87.12    5.00 
  -7   0  -3   88.07    5.00 
  -7   0  -3   92.05    5.13 
   7   0   3   89.29    4.94 
   7   0   3   87.44    4.97 
   7   0   3   91.11    5.13 
  -7   0  -3   90.18    5.03 
  -8   0  -3   16.34    1.11 
   8   0   3   16.12    1.12 
   8   0   3   15.77    1.05 
  -8   0  -3   15.07    1.07 
   8   0   3   16.10    1.03 
  -9  -1   3    7.59    0.70 
  -9  -1   3    8.25    0.78 
  -9  -1   3    7.92    0.92 
  -9   1   3    7.87    0.81 
  -9   1   3    7.15    0.77 
  -9   1   3    7.21    0.75 
  -8  -1   3   31.08    1.93 
  -8  -1   3   31.90    1.99 
  -8  -1   3   32.33    1.93 
  -8  -1   3   32.34    1.89 
  -8  -1   3   30.84    1.94 
  -8   1   3   33.95    1.99 
  -8   1   3   33.63    1.94 
   8   1  -3   33.72    1.92 
   8   1  -3   33.16    1.92 
  -8   1   3   33.37    1.96 
  -8   1   3   33.12    2.01 
   7  -1  -3    1.46    0.21 
   7  -1  -3    1.40    0.23 
  -7  -1   3    1.83    0.29 
   7  -1  -3    1.58    0.30 
  -7  -1   3    1.67    0.26 
  -7  -1   3    1.12    0.26 
   7  -1  -3    1.63    0.21 
  -7  -1   3    1.75    0.33 
  -7  -1   3    1.43    0.22 
   7   1  -3    1.35    0.22 
   7   1  -3    1.04    0.21 
  -7   1   3    1.01    0.27 
  -7   1   3    1.19    0.20 
  -7   1   3    0.97    0.25 
  -7   1   3    0.98    0.23 
  -7   1   3    0.99    0.24 
   6  -1  -3    3.97    0.36 
   6  -1  -3    4.34    0.30 
  -6  -1   3    4.09    0.38 
  -6  -1   3    3.72    0.37 
  -6  -1   3    4.25    0.32 
  -6  -1   3    3.78    0.44 
   6  -1  -3    4.26    0.29 
   6  -1  -3    4.02    0.38 
  -6  -1   3    4.17    0.40 
  -5  -1   3   98.19    5.49 
   5  -1  -3  101.14    5.51 
   5  -1  -3   98.77    5.44 
   5  -1  -3   98.33    5.49 
  -5  -1   3  101.50    5.53 
  -5  -1   3   98.32    5.45 
  -5  -1   3   98.23    5.49 
   5  -1  -3   95.19    5.44 
  -5   1   3   95.57    5.47 
   5   1  -3  103.65    5.46 
   5   1  -3  104.22    5.49 
  -5   1   3   99.60    5.53 
  -5   1   3   99.76    5.50 
   5   1  -3   98.39    5.48 
  -5   1   3  100.90    5.52 
  -5   1   3  101.60    5.48 
   4  -1  -3    5.13    0.37 
  -4  -1   3    5.25    0.34 
  -4  -1   3    5.00    0.41 
  -4  -1   3    4.98    0.32 
  -4  -1   3    5.13    0.37 
  -4  -1   3    5.10    0.36 
  -4  -1   3    5.35    0.34 
   4  -1  -3    5.17    0.36 
   4  -1  -3    5.00    0.33 
   4  -1  -3    5.16    0.32 
   4   1  -3    5.43    0.34 
  -4   1   3    5.32    0.41 
  -4   1   3    5.30    0.36 
   4   1  -3    5.45    0.35 
   4   1  -3    5.27    0.35 
  -4   1   3    5.24    0.40 
  -4   1   3    5.26    0.34 
  -4   1   3    5.24    0.39 
  -3  -1   3  159.92    9.05 
   3  -1  -3  162.31    9.05 
  -3  -1   3  164.70    9.05 
   3  -1  -3  163.04    9.03 
   3  -1  -3  163.37    9.06 
  -3  -1   3  155.23    9.06 
  -3  -1   3  169.59    9.07 
  -3  -1   3  161.83    9.04 
  -3  -1   3  164.71    9.05 
  -3  -1   3  162.82    9.10 
   3  -1  -3  160.00    9.06 
   3   1  -3  172.99    9.07 
  -3   1   3  172.14    9.14 
  -3   1   3  159.64    9.06 
  -3   1   3  166.72    9.04 
   3   1  -3  166.87    9.04 
  -3   1   3  171.61    9.04 
  -3   1   3  167.19    9.05 
   3   1  -3  170.82    9.08 
  -3   1   3  176.62    9.04 
   2  -1  -3  146.09    8.25 
  -2  -1   3  143.32    8.25 
  -2  -1   3  146.69    8.24 
  -2  -1   3  141.51    8.21 
  -2  -1   3  147.27    8.21 
   2  -1  -3  141.59    8.21 
  -2  -1   3  142.88    8.26 
   2  -1  -3  145.64    8.24 
   2  -1  -3  146.57    8.20 
   2   1  -3  155.02    8.23 
   2   1  -3  161.45    8.22 
  -2   1   3  149.87    8.22 
  -2   1   3  157.13    8.25 
  -2   1   3  157.30    8.27 
  -2   1   3  150.71    8.22 
  -2   1   3  161.51    8.27 
   2   1  -3  161.94    8.24 
   1  -1  -3    1.34    0.12 
  -1  -1   3    1.32    0.09 
   1  -1  -3    1.31    0.12 
   1  -1  -3    1.15    0.12 
   1  -1  -3    1.29    0.11 
  -1  -1   3    1.35    0.13 
  -1  -1   3    1.28    0.10 
  -1  -1   3    1.27    0.17 
   1  -1  -3    1.34    0.14 
  -1  -1   3    1.19    0.11 
   1  -1  -3    1.21    0.17 
  -1   1   3    1.00    0.11 
  -1   1   3    1.14    0.16 
  -1   1   3    0.98    0.13 
  -1   1   3    1.15    0.11 
   1   1  -3    0.90    0.17 
   1   1  -3    1.10    0.10 
  -1   1   3    0.96    0.12 
  -1   1   3    0.92    0.12 
   0  -1  -3  184.08   10.13 
   0  -1   3  179.32   10.13 
   0  -1   3  183.93   10.32 
   0  -1  -3  171.12   10.24 
   0  -1   3  178.07   10.09 
   0  -1  -3  176.70   10.13 
   0  -1  -3  181.50   10.21 
   0  -1   3  181.26   10.16 
   0  -1   3  179.41   10.17 
   0   1   3  182.24   10.12 
   0   1  -3  195.20   10.09 
   0   1  -3  176.59   10.22 
   0   1   3  183.79   10.20 
   0   1   3  192.16   10.21 
   0   1   3  192.97   10.16 
   0   1  -3  189.79   10.17 
   0   1  -3  194.66   10.13 
   0   1   3  195.31   10.16 
   1  -1   3   43.00    2.44 
   1  -1   3   43.02    2.46 
  -1  -1  -3   44.03    2.45 
   1  -1   3   43.13    2.44 
  -1  -1  -3   44.13    2.47 
  -1  -1  -3   42.37    2.45 
  -1  -1  -3   46.34    2.44 
   1  -1   3   44.82    2.45 
   1   1   3   43.45    2.45 
   1   1   3   47.24    2.45 
  -1   1  -3   45.68    2.44 
   1   1   3   45.41    2.44 
  -1   1  -3   46.09    2.44 
  -1   1  -3   43.56    2.46 
   1   1   3   42.97    2.47 
  -1   1  -3   44.80    2.45 
   2  -1   3   28.28    1.56 
  -2  -1  -3   27.97    1.56 
   2  -1   3   27.88    1.58 
  -2  -1  -3   28.83    1.57 
   2  -1   3   28.49    1.55 
   2  -1   3   26.95    1.55 
  -2  -1  -3   27.69    1.55 
  -2  -1  -3   28.35    1.55 
   2   1   3   27.33    1.57 
  -2   1  -3   27.53    1.57 
   2   1   3   26.42    1.57 
   2   1   3   27.90    1.55 
  -2   1  -3   26.76    1.55 
   2   1   3   26.45    1.55 
  -2   1  -3   26.76    1.55 
  -2   1  -3   27.66    1.55 
   3  -1   3  178.69    9.63 
  -3  -1  -3  174.78    9.61 
   3  -1   3  172.13    9.62 
   3  -1   3  174.69    9.62 
  -3  -1  -3  179.24    9.65 
  -3  -1  -3  176.10    9.63 
   3  -1   3  182.00    9.66 
   3  -1   3  169.13    9.61 
  -3  -1  -3  178.19    9.63 
   3   1   3  176.20    9.61 
   3   1   3  169.34    9.61 
  -3   1  -3  174.76    9.65 
  -3   1  -3  174.79    9.62 
  -3   1  -3  179.15    9.62 
  -3   1  -3  174.68    9.65 
   3   1   3  177.05    9.64 
   3   1   3  177.71    9.62 
   3   1   3  179.14    9.66 
   4  -1   3   39.64    2.65 
  -4  -1  -3   44.45    2.57 
   4  -1   3   44.42    2.59 
   4  -1   3   44.43    2.56 
   4  -1   3   45.09    2.55 
  -4  -1  -3   45.77    2.59 
   4  -1   3   45.45    2.56 
  -4  -1  -3   45.65    2.57 
  -4  -1  -3   44.31    2.55 
  -4   1  -3   46.54    2.57 
  -4   1  -3   49.58    2.56 
   4   1   3   48.37    2.56 
  -4   1  -3   45.99    2.57 
   4   1   3   46.23    2.60 
   4   1   3   46.65    2.56 
   4   1   3   46.41    2.55 
  -4   1  -3   48.04    2.60 
   4   1   3   46.88    2.59 
   5  -1   3   72.05    4.03 
  -5  -1  -3   74.02    4.01 
   5  -1   3   73.31    4.00 
  -5  -1  -3   74.51    3.98 
  -5  -1  -3   72.66    3.96 
  -5  -1  -3   74.84    3.99 
   5  -1   3   77.29    3.96 
   5  -1   3   75.39    3.97 
   5  -1   3   72.98    3.97 
  -5   1  -3   68.54    4.00 
  -5   1  -3   69.11    3.96 
  -5   1  -3   69.09    3.98 
  -5   1  -3   68.00    3.98 
   5   1   3   68.10    3.96 
   5   1   3   66.16    4.01 
   5   1   3   68.69    3.94 
   5   1   3   68.74    4.00 
  -6  -1  -3   89.58    4.90 
   6  -1   3   89.01    4.86 
   6  -1   3   90.21    4.95 
   6  -1   3   90.19    4.87 
   6  -1   3   85.23    4.91 
  -6  -1  -3   88.16    4.87 
  -6  -1  -3   88.39    4.91 
  -6  -1  -3   86.07    4.88 
   6  -1   3   87.49    4.88 
  -6   1  -3   85.93    4.89 
   6   1   3   89.13    4.87 
  -6   1  -3   86.98    4.89 
   6   1   3   86.51    4.86 
   6   1   3   86.59    4.92 
   6   1   3   85.64    4.84 
  -6   1  -3   88.39    4.92 
   7  -1   3    1.46    0.24 
   7  -1   3    1.28    0.30 
  -7  -1  -3    1.39    0.28 
  -7  -1  -3    1.37    0.30 
  -7  -1  -3    1.03    0.22 
  -7  -1  -3    1.31    0.28 
   7  -1   3    1.28    0.27 
   7  -1   3    1.20    0.27 
   7   1   3    1.99    0.29 
  -7   1  -3    2.19    0.38 
   8  -1   3    5.39    0.53 
  -8  -1  -3    5.17    0.55 
  -8  -1  -3    6.18    0.58 
   8  -1   3    4.60    0.67 
   8   1   3    4.00    0.67 
  -8   1  -3    4.76    0.56 
  -8   1  -3    4.71    0.58 
   8   1   3    4.84    0.62 
   8   1   3    3.77    0.78 
   8   1   3    4.40    0.51 
  -9  -2   3    9.03    0.83 
  -9  -2   3    9.01    0.78 
  -9   2   3    9.17    0.85 
  -9   2   3    8.50    1.01 
  -8  -2   3    0.62    0.26 
   8  -2  -3    0.66    0.19 
  -8  -2   3    0.87    0.23 
   8  -2  -3    0.18    0.28 
  -8  -2   3    0.68    0.28 
  -8  -2   3    0.66    0.25 
   8  -2  -3    0.56    0.24 
  -8  -2   3    0.72    0.26 
  -8   2   3    0.74    0.30 
  -8   2   3    0.82    0.27 
   8   2  -3    0.84    0.26 
  -8   2   3    1.32    0.48 
  -8   2   3    0.74    0.27 
  -7  -2   3   39.97    2.30 
  -7  -2   3   41.87    2.32 
   7  -2  -3   39.98    2.38 
  -7  -2   3   39.95    2.41 
   7  -2  -3   40.03    2.35 
   7  -2  -3   41.54    2.36 
  -7  -2   3   41.12    2.35 
   7  -2  -3   41.36    2.29 
  -7  -2   3   41.19    2.34 
   7  -2  -3   41.29    2.29 
  -7   2   3   41.10    2.38 
  -7   2   3   41.82    2.35 
   7   2  -3   41.07    2.30 
  -7   2   3   41.07    2.41 
  -7   2   3   40.43    2.32 
   7   2  -3   41.55    2.32 
  -7   2   3   40.52    2.41 
  -6  -2   3   10.86    0.78 
   6  -2  -3   11.22    0.72 
  -6  -2   3   11.32    0.69 
   6  -2  -3   10.93    0.68 
  -6  -2   3   11.08    0.71 
  -6  -2   3   11.00    0.73 
  -6  -2   3   10.96    0.67 
   6  -2  -3   11.10    0.67 
   6  -2  -3   10.84    0.74 
   5  -2  -3    4.59    0.40 
   5  -2  -3    5.23    0.39 
  -5  -2   3    5.15    0.34 
  -5  -2   3    5.29    0.35 
  -5  -2   3    5.13    0.38 
   5  -2  -3    5.14    0.36 
   5  -2  -3    5.08    0.41 
  -5  -2   3    5.18    0.44 
  -5  -2   3    5.04    0.39 
   5  -2  -3    5.20    0.35 
   4  -2  -3  140.08    7.57 
  -4  -2   3  140.66    7.57 
  -4  -2   3  141.51    7.59 
   4  -2  -3  139.07    7.57 
  -4  -2   3  136.61    7.62 
   4  -2  -3  125.51    7.62 
  -4  -2   3  143.51    7.58 
  -4  -2   3  140.97    7.55 
  -4  -2   3  141.35    7.56 
   4  -2  -3  137.73    7.59 
   4  -2  -3  129.81    7.63 
   4   2  -3  141.49    7.55 
  -4   2   3  136.59    7.62 
  -4   2   3  138.47    7.59 
  -4   2   3  138.70    7.63 
  -4   2   3  139.59    7.58 
   4   2  -3  144.29    7.57 
  -4   2   3  137.00    7.61 
   4   2  -3  138.92    7.57 
  -3  -2   3  128.32    7.41 
   3  -2  -3  133.07    7.37 
  -3  -2   3  132.50    7.39 
   3  -2  -3  131.18    7.39 
  -3  -2   3  140.70    7.37 
  -3  -2   3  129.97    7.39 
  -3  -2   3  129.78    7.37 
   3  -2  -3  128.45    7.37 
  -3  -2   3  129.84    7.36 
  -3  -2   3  134.86    7.38 
   3  -2  -3  130.87    7.39 
   3  -2  -3  127.11    7.41 
   3   2  -3  142.88    7.37 
   3   2  -3  138.07    7.38 
   3   2  -3  141.33    7.37 
  -3   2   3  140.72    7.38 
  -3   2   3  143.06    7.41 
  -3   2   3  137.56    7.39 
  -3   2   3  139.62    7.42 
   3   2  -3  141.20    7.39 
  -3   2   3  135.17    7.39 
   2  -2  -3  102.19    5.69 
  -2  -2   3  104.98    5.70 
  -2  -2   3  100.99    5.75 
   2  -2  -3  105.12    5.69 
  -2  -2   3  104.07    5.69 
   2  -2  -3  102.28    5.69 
   2  -2  -3  105.65    5.70 
   2  -2  -3  107.10    5.70 
  -2   2   3  103.12    5.69 
  -2   2   3  107.94    5.70 
  -2   2   3  106.64    5.72 
  -2   2   3  101.42    5.72 
  -2   2   3  101.41    5.70 
   1  -2  -3   72.69    3.87 
   1  -2  -3   71.78    3.87 
  -1  -2   3   72.71    3.92 
   1  -2  -3   73.37    3.87 
   1  -2  -3   71.86    3.88 
   1  -2  -3   72.66    3.90 
  -1  -2   3   73.28    3.86 
  -1  -2   3   73.91    3.87 
   1   2  -3   67.79    3.93 
  -1   2   3   70.08    3.87 
   1   2  -3   70.14    3.86 
  -1   2   3   66.94    3.87 
  -1   2   3   68.19    3.88 
  -1   2   3   69.09    3.90 
  -1   2   3   70.11    3.89 
   1   2  -3   69.90    3.87 
  -1   2   3   66.39    3.88 
   0  -2  -3   35.01    2.15 
   0  -2   3   34.73    2.11 
   0  -2  -3   34.09    2.12 
   0  -2  -3   34.67    2.14 
   0  -2   3   34.53    2.11 
   0  -2  -3   34.43    2.12 
   0  -2   3   34.43    2.13 
   0  -2   3   34.09    2.11 
   0  -2   3   35.33    2.17 
   0   2  -3   42.89    2.10 
   0   2   3   40.84    2.14 
   0   2  -3   42.32    2.18 
   0   2  -3   43.51    2.12 
   0   2   3   42.34    2.12 
   0   2   3   43.54    2.15 
   0   2  -3   41.76    2.13 
   0   2   3   44.29    2.14 
   1  -2   3  144.60    8.21 
   1  -2   3  149.24    8.16 
  -1  -2  -3  135.89    8.17 
  -1  -2  -3  148.30    8.21 
  -1  -2  -3  138.96    8.22 
   1  -2   3  139.93    8.18 
   1  -2   3  145.39    8.22 
  -1  -2  -3  137.96    8.19 
   1   2   3  156.16    8.24 
  -1   2  -3  161.68    8.23 
  -1   2  -3  152.94    8.18 
   1   2   3  154.93    8.19 
   1   2   3  152.78    8.21 
  -1   2  -3  158.74    8.19 
   1   2   3  161.42    8.21 
  -1   2  -3  155.72    8.20 
   2  -2   3   70.97    3.78 
   2  -2   3   71.89    3.78 
  -2  -2  -3   70.06    3.78 
  -2  -2  -3   66.50    3.80 
  -2  -2  -3   69.98    3.78 
   2  -2   3   70.99    3.78 
   2  -2   3   70.31    3.82 
  -2  -2  -3   65.49    3.78 
   2  -2   3   74.86    3.79 
  -2   2  -3   69.35    3.77 
   2   2   3   65.70    3.78 
  -2   2  -3   67.46    3.80 
   2   2   3   66.53    3.77 
   2   2   3   63.09    3.80 
  -2   2  -3   68.37    3.79 
   2   2   3   66.05    3.79 
  -2   2  -3   69.32    3.77 
   3  -2   3   14.36    0.87 
  -3  -2  -3   14.29    0.87 
   3  -2   3   14.92    0.88 
   3  -2   3   14.83    0.86 
   3  -2   3   14.56    0.91 
  -3  -2  -3   14.22    0.88 
   3  -2   3   15.15    0.88 
  -3  -2  -3   14.25    0.89 
  -3  -2  -3   15.34    0.86 
  -3   2  -3   14.67    0.87 
  -3   2  -3   15.02    0.86 
   3   2   3   14.62    0.85 
   3   2   3   14.85    0.90 
   3   2   3   14.72    0.87 
  -3   2  -3   15.08    0.88 
   3   2   3   14.98    0.86 
  -3   2  -3   14.33    0.90 
  -4  -2  -3  127.74    6.86 
  -4  -2  -3  125.00    6.88 
  -4  -2  -3  128.19    6.85 
   4  -2   3  122.07    6.87 
  -4  -2  -3  123.08    6.87 
   4  -2   3  126.98    6.88 
   4  -2   3  123.19    6.86 
   4  -2   3  120.19    6.85 
   4  -2   3  109.48    6.95 
  -4   2  -3  127.31    6.87 
   4   2   3  127.90    6.85 
   4   2   3  123.81    6.89 
   4   2   3  125.53    6.90 
   4   2   3  127.92    6.84 
  -4   2  -3  126.08    6.90 
  -4   2  -3  126.86    6.86 
  -4   2  -3  129.93    6.86 
   4   2   3  126.14    6.84 
   5  -2   3   60.47    3.47 
  -5  -2  -3   60.52    3.51 
  -5  -2  -3   59.77    3.48 
   5  -2   3   61.86    3.51 
  -5  -2  -3   62.54    3.49 
   5  -2   3   61.64    3.49 
   5  -2   3   61.83    3.55 
   5  -2   3   59.77    3.49 
  -5  -2  -3   60.70    3.50 
   5   2   3   64.67    3.47 
  -5   2  -3   65.44    3.51 
   5   2   3   63.26    3.48 
  -5   2  -3   64.62    3.49 
  -5   2  -3   62.07    3.53 
  -5   2  -3   66.14    3.50 
   5   2   3   62.66    3.54 
   5   2   3   63.56    3.46 
   5   2   3   63.02    3.53 
  -6  -2  -3   53.01    2.98 
   6  -2   3   53.95    3.00 
   6  -2   3   53.54    3.07 
   6  -2   3   53.52    3.02 
  -6  -2  -3   54.40    3.03 
  -6  -2  -3   54.47    3.00 
  -6  -2  -3   52.81    3.01 
   6  -2   3   56.00    3.00 
   6  -2   3   55.36    2.98 
  -6   2  -3   50.61    3.00 
  -6   2  -3   52.41    3.09 
   6   2   3   51.62    2.95 
   6   2   3   51.00    2.96 
  -6   2  -3   51.59    3.04 
   6   2   3   49.20    2.97 
   7  -2   3   22.43    1.37 
   7  -2   3   22.87    1.34 
  -7  -2  -3   22.45    1.39 
   7  -2   3   22.65    1.38 
  -7  -2  -3   22.12    1.40 
  -7  -2  -3   22.28    1.35 
  -7  -2  -3   23.00    1.38 
   7  -2   3   22.14    1.40 
   7   2   3   21.33    1.36 
  -7   2  -3   22.37    1.42 
  -7   2  -3   21.49    1.41 
   7   2   3   21.60    1.30 
   7   2   3   21.65    1.36 
   7   2   3   21.71    1.34 
  -7   2  -3   21.89    1.37 
   8  -2   3   16.23    1.02 
  -8  -2  -3   15.50    1.06 
  -8  -2  -3   14.95    1.05 
   8  -2   3   16.01    1.11 
  -8   2  -3   13.90    1.07 
   8   2   3   15.38    1.06 
  -8   2  -3   14.83    1.06 
   8   2   3   15.16    1.14 
   8  -3  -3   27.30    1.59 
  -8  -3   3   26.12    1.61 
  -8  -3   3   26.24    1.72 
  -8  -3   3   27.45    1.61 
  -8  -3   3   26.81    1.62 
  -8  -3   3   26.41    1.64 
   8  -3  -3   27.08    1.59 
  -8   3   3   28.74    1.74 
  -8   3   3   27.93    1.69 
  -8   3   3   29.86    1.75 
  -7  -3   3    5.19    0.43 
  -7  -3   3    4.79    0.40 
  -7  -3   3    5.21    0.48 
   7  -3  -3    5.07    0.54 
   7  -3  -3    5.02    0.42 
  -7  -3   3    5.22    0.42 
  -7  -3   3    4.91    0.53 
   7  -3  -3    5.12    0.46 
   7  -3  -3    5.18    0.54 
   7  -3  -3    4.97    0.41 
   7   3  -3    4.80    0.42 
  -7   3   3    4.56    0.50 
  -7   3   3    4.74    0.54 
   7   3  -3    4.26    0.38 
  -7   3   3    4.56    0.52 
  -7   3   3    4.77    0.51 
  -7   3   3    4.57    0.40 
   6  -3  -3   30.44    1.82 
  -6  -3   3   31.28    1.84 
  -6  -3   3   31.22    1.81 
   6  -3  -3   30.81    1.81 
  -6  -3   3   30.50    1.82 
   6  -3  -3   30.32    1.86 
  -6  -3   3   30.81    1.80 
  -6  -3   3   31.13    1.90 
   6   3  -3   32.42    1.79 
  -6   3   3   32.39    1.83 
  -6   3   3   34.39    1.89 
   6   3  -3   33.71    1.82 
  -6   3   3   33.05    1.92 
  -6   3   3   33.24    1.91 
   6   3  -3   33.73    1.83 
  -6   3   3   34.20    1.86 
  -5  -3   3   44.73    2.46 
   5  -3  -3   44.01    2.50 
   5  -3  -3   44.02    2.53 
  -5  -3   3   44.27    2.47 
  -5  -3   3   44.40    2.52 
  -5  -3   3   45.71    2.48 
   5  -3  -3   44.05    2.47 
  -5  -3   3   44.80    2.44 
   5  -3  -3   43.48    2.47 
   5  -3  -3   43.12    2.49 
  -5  -3   3   43.49    2.44 
  -4  -3   3   10.85    0.65 
   4  -3  -3   10.77    0.70 
  -4  -3   3   10.92    0.64 
  -4  -3   3   11.10    0.68 
   4  -3  -3   10.92    0.71 
   4  -3  -3   11.10    0.68 
   4  -3  -3   11.10    0.68 
  -4  -3   3   11.44    0.65 
   4  -3  -3   10.54    0.73 
  -4  -3   3   11.41    0.70 
  -4  -3   3   10.84    0.72 
   4   3  -3   12.23    0.66 
  -4   3   3   10.67    0.72 
  -4   3   3   11.88    0.76 
  -4   3   3   11.59    0.72 
  -4   3   3   11.91    0.73 
  -4   3   3   11.49    0.70 
   4   3  -3   12.10    0.67 
   4   3  -3   12.04    0.64 
   3  -3  -3  110.67    6.11 
  -3  -3   3  114.41    6.07 
   3  -3  -3  113.33    6.09 
   3  -3  -3  113.22    6.07 
  -3  -3   3  113.28    6.09 
   3  -3  -3  115.40    6.08 
   3  -3  -3  110.32    6.09 
  -3  -3   3  112.54    6.10 
  -3   3   3  107.54    6.12 
  -3   3   3  111.60    6.07 
  -3   3   3  105.69    6.08 
  -3   3   3  106.02    6.09 
  -3   3   3  107.75    6.08 
  -2  -3   3  111.40    6.38 
  -2  -3   3  108.06    6.43 
   2  -3  -3  110.30    6.38 
   2  -3  -3  110.36    6.37 
   2  -3  -3  107.37    6.38 
   2  -3  -3  109.25    6.38 
  -2  -3   3  112.76    6.39 
   2  -3  -3  108.30    6.39 
  -2  -3   3  111.78    6.37 
  -2   3   3  126.13    6.42 
  -2   3   3  124.83    6.40 
  -2   3   3  124.44    6.38 
  -2   3   3  131.31    6.37 
  -2   3   3  124.66    6.41 
  -2   3   3  128.33    6.39 
   1  -3  -3    6.91    0.45 
   1  -3  -3    6.87    0.44 
   1  -3  -3    6.98    0.49 
  -1  -3   3    6.96    0.49 
   1  -3  -3    6.69    0.46 
  -1  -3   3    6.80    0.42 
   1  -3  -3    6.67    0.45 
  -1   3   3    7.41    0.48 
   1   3  -3    8.12    0.42 
  -1   3   3    7.79    0.45 
  -1   3   3    7.76    0.46 
  -1   3   3    7.93    0.48 
   1   3  -3    8.02    0.42 
  -1   3   3    7.50    0.49 
   1   3  -3    7.81    0.51 
  -1   3   3    7.86    0.47 
   0  -3   3  222.06   12.19 
   0  -3  -3  211.90   12.20 
   0  -3  -3  212.90   12.21 
   0  -3   3  212.01   12.20 
   0  -3   3  218.45   12.28 
   0  -3  -3  210.51   12.26 
   0  -3  -3  215.35   12.31 
   0  -3   3  219.80   12.21 
   0   3   3  221.37   12.22 
   0   3  -3  230.31   12.44 
   0   3   3  240.71   12.32 
   0   3  -3  246.10   12.21 
   0   3   3  234.30   12.26 
   0   3   3  225.24   12.25 
   1  -3   3   93.85    5.53 
   1  -3   3   94.33    5.52 
  -1  -3  -3   93.77    5.53 
   1  -3   3   91.69    5.55 
  -1  -3  -3   89.94    5.55 
  -1  -3  -3   91.53    5.53 
   1  -3   3   93.71    5.52 
  -1  -3  -3   92.79    5.52 
  -1   3  -3  108.52    5.52 
  -1   3  -3  110.84    5.55 
   1   3   3  105.85    5.56 
   1   3   3  109.96    5.52 
   1   3   3  107.94    5.55 
   1   3   3  110.80    5.53 
  -1   3  -3  109.68    5.52 
  -1   3  -3  109.68    5.54 
   1   3   3  103.28    5.54 
   2  -3   3  122.79    6.37 
  -2  -3  -3  121.22    6.38 
   2  -3   3  122.23    6.38 
  -2  -3  -3  126.19    6.38 
   2  -3   3  120.48    6.38 
   2  -3   3  123.68    6.39 
  -2  -3  -3  115.50    6.41 
  -2  -3  -3  113.58    6.38 
   2  -3   3  114.90    6.41 
   2   3   3  111.17    6.37 
   2   3   3  110.35    6.39 
  -2   3  -3  116.48    6.39 
  -2   3  -3  116.85    6.37 
   2   3   3  115.35    6.38 
   2   3   3  108.41    6.40 
  -2   3  -3  106.57    6.40 
  -2   3  -3  114.24    6.36 
  -3  -3  -3   74.77    4.44 
  -3  -3  -3   82.64    4.47 
  -3  -3  -3   80.43    4.45 
   3  -3   3   76.62    4.44 
  -3  -3  -3   80.74    4.43 
   3  -3   3   80.72    4.44 
   3  -3   3   82.99    4.49 
   3  -3   3   83.93    4.46 
   3  -3   3   79.08    4.44 
  -3   3  -3   83.07    4.48 
   3   3   3   82.89    4.42 
   3   3   3   78.69    4.47 
   3   3   3   81.32    4.44 
  -3   3  -3   79.85    4.43 
  -3   3  -3   81.79    4.44 
   3   3   3   80.70    4.43 
   3   3   3   79.33    4.47 
   4  -3   3   19.33    1.26 
   4  -3   3   19.41    1.19 
  -4  -3  -3   18.17    1.20 
   4  -3   3   18.93    1.21 
  -4  -3  -3   18.63    1.22 
   4  -3   3   19.37    1.21 
  -4  -3  -3   19.91    1.19 
   4  -3   3   18.89    1.21 
  -4  -3  -3   19.21    1.21 
  -4   3  -3   23.34    1.27 
   4   3   3   22.56    1.20 
   4   3   3   22.26    1.18 
   4   3   3   22.53    1.18 
  -4   3  -3   22.49    1.21 
   4   3   3   22.02    1.25 
   4   3   3   22.60    1.25 
   5  -3   3   36.45    2.02 
   5  -3   3   34.75    2.08 
   5  -3   3   35.42    2.00 
   5  -3   3   33.42    2.02 
  -5  -3  -3   34.12    2.01 
   5  -3   3   34.72    2.03 
  -5  -3  -3   34.70    1.99 
  -5  -3  -3   35.61    2.03 
  -5  -3  -3   34.12    2.04 
   5   3   3   35.71    2.00 
   5   3   3   34.92    1.97 
  -5   3  -3   36.14    2.02 
   5   3   3   35.93    1.98 
  -5   3  -3   36.14    2.07 
  -6  -3  -3   41.32    2.23 
  -6  -3  -3   41.99    2.22 
   6  -3   3   42.31    2.19 
   6  -3   3   40.51    2.23 
  -6  -3  -3   40.66    2.18 
  -6  -3  -3   40.64    2.21 
   6  -3   3   42.43    2.22 
   6  -3   3   40.93    2.29 
  -6   3  -3   32.30    2.23 
   6   3   3   34.06    2.17 
   6   3   3   33.51    2.14 
  -6   3  -3   32.86    2.21 
   6   3   3   32.71    2.19 
  -7  -3  -3   10.24    0.80 
  -7  -3  -3   10.63    0.78 
   7  -3   3   10.80    0.81 
   7  -3   3    9.77    0.79 
  -7  -3  -3    9.55    0.87 
  -7  -3  -3   10.03    0.77 
   7  -3   3   10.69    0.74 
   7   3   3   10.41    0.78 
  -7   3  -3   11.22    0.86 
  -7   3  -3   10.79    0.83 
  -7   3  -3   11.07    0.79 
   7   3   3   10.63    0.70 
   7   3   3   10.31    0.73 
   7   3   3   10.84    0.78 
   8  -3   3   22.48    1.37 
  -8  -3  -3   21.70    1.39 
   8  -3   3   21.98    1.44 
  -8  -3  -3   21.31    1.40 
  -8   3  -3   21.73    1.40 
   8   3   3   21.15    1.41 
   8   3   3   21.82    1.29 
  -8   3  -3   21.22    1.44 
  -8  -4   3    0.35    0.25 
   8  -4  -3    0.33    0.25 
  -8  -4   3   -0.04    0.29 
   8  -4  -3   -0.03    0.26 
  -8  -4   3    0.38    0.24 
  -8  -4   3    0.39    0.21 
  -8  -4   3    0.21    0.26 
  -8   4   3    0.37    0.30 
  -8   4   3    0.14    0.25 
   8   4  -3    0.07    0.24 
  -8   4   3    0.12    0.25 
   7  -4  -3   39.40    2.23 
   7  -4  -3   39.93    2.30 
  -7  -4   3   39.20    2.32 
  -7  -4   3   39.12    2.22 
   7  -4  -3   39.38    2.23 
  -7  -4   3   40.49    2.21 
  -7  -4   3   40.00    2.21 
  -7  -4   3   40.80    2.25 
   7   4  -3   37.89    2.18 
  -7   4   3   37.63    2.30 
  -7   4   3   39.73    2.35 
  -7   4   3   38.65    2.33 
   7   4  -3   38.03    2.21 
  -7   4   3   40.74    2.29 
  -7   4   3   38.00    2.32 
  -6  -4   3    7.03    0.43 
   6  -4  -3    7.26    0.46 
  -6  -4   3    7.42    0.44 
  -6  -4   3    7.78    0.57 
   6  -4  -3    7.65    0.56 
   6   4  -3    5.33    0.43 
  -6   4   3    5.26    0.56 
  -6   4   3    5.42    0.45 
  -6   4   3    4.97    0.54 
   6   4  -3    5.47    0.43 
  -6   4   3    5.23    0.50 
  -6   4   3    5.16    0.52 
   5  -4  -3    1.16    0.18 
   5  -4  -3    1.42    0.24 
   5  -4  -3    1.19    0.17 
  -5  -4   3    1.10    0.20 
  -5  -4   3    1.10    0.18 
   5  -4  -3    1.09    0.22 
  -5  -4   3    1.21    0.22 
  -5  -4   3    1.23    0.16 
  -5  -4   3    1.25    0.16 
  -5  -4   3    1.14    0.16 
  -4  -4   3  112.97    5.80 
  -4  -4   3  112.44    5.73 
  -4  -4   3  106.62    5.72 
   4  -4  -3  111.54    5.79 
   4  -4  -3  109.22    5.77 
   4  -4  -3  106.54    5.80 
  -4  -4   3  110.27    5.76 
  -4  -4   3  106.71    5.80 
   4  -4  -3  108.53    5.82 
   4  -4  -3  106.95    5.78 
  -4  -4   3  107.01    5.73 
  -4   4   3   95.70    5.83 
  -4   4   3   97.97    5.80 
   4   4  -3   99.00    5.73 
  -4   4   3   98.27    5.78 
  -4   4   3   98.72    5.80 
  -4   4   3   97.28    5.77 
   3  -4  -3   24.01    1.32 
  -3  -4   3   25.76    1.41 
   3  -4  -3   23.37    1.32 
  -3  -4   3   24.17    1.34 
   3  -4  -3   23.84    1.33 
   3  -4  -3   23.75    1.36 
   3  -4  -3   23.39    1.34 
  -3  -4   3   24.38    1.30 
  -3  -4   3   24.47    1.34 
  -3   4   3   21.47    1.31 
  -3   4   3   22.15    1.29 
  -3   4   3   21.39    1.33 
  -3   4   3   20.74    1.36 
  -3   4   3   21.72    1.33 
  -3   4   3   22.33    1.33 
  -2  -4   3    2.66    0.22 
   2  -4  -3    2.71    0.23 
   2  -4  -3    2.46    0.25 
  -2  -4   3    2.59    0.27 
   2  -4  -3    2.95    0.22 
  -2  -4   3    2.78    0.25 
   2  -4  -3    2.58    0.23 
   2  -4  -3    2.90    0.22 
  -2  -4   3    2.76    0.21 
  -2   4   3    2.68    0.24 
  -2   4   3    2.84    0.26 
  -2   4   3    2.84    0.22 
  -2   4   3    2.76    0.21 
  -2   4   3    2.78    0.25 
  -2   4   3    2.90    0.28 
  -2   4   3    2.71    0.24 
   1  -4  -3  193.31   11.38 
  -1  -4   3  199.56   11.38 
  -1  -4   3  200.79   11.36 
  -1  -4   3  202.22   11.56 
   1  -4  -3  190.97   11.36 
  -1  -4   3  195.91   11.39 
   1  -4  -3  197.72   11.37 
   1  -4  -3  190.55   11.37 
  -1  -4   3  198.82   11.39 
   1  -4  -3  195.60   11.40 
  -1   4   3  222.59   11.45 
  -1   4   3  223.35   11.49 
   1   4  -3  221.82   11.36 
   1   4  -3  222.81   11.40 
  -1   4   3  210.67   11.40 
  -1   4   3  210.56   11.38 
  -1   4   3  225.85   11.51 
   1   4  -3  223.73   11.63 
  -1   4   3  229.12   11.42 
   0  -4  -3    1.93    0.18 
   0  -4  -3    1.91    0.15 
   0  -4   3    1.87    0.17 
   0  -4  -3    1.89    0.22 
   0  -4   3    2.02    0.16 
   0  -4  -3    1.91    0.18 
   0  -4   3    2.05    0.15 
   0  -4   3    1.99    0.13 
   1  -4   3  132.07    6.76 
  -1  -4  -3  133.99    6.73 
   1  -4   3  133.98    6.73 
  -1  -4  -3  129.81    6.74 
   1  -4   3  131.63    6.72 
  -1  -4  -3  127.30    6.76 
  -1  -4  -3  129.27    6.73 
   1  -4   3  135.98    6.72 
   1   4   3  112.52    6.73 
  -1   4  -3  119.73    6.73 
   1   4   3  111.97    6.73 
  -1   4  -3  113.83    6.77 
   1   4   3  115.28    6.75 
  -1   4  -3  114.72    6.71 
   1   4   3  116.57    6.72 
  -1   4  -3  116.53    6.74 
   1   4   3  115.58    6.71 
  -2  -4  -3  157.21    8.97 
  -2  -4  -3  156.89    8.97 
   2  -4   3  161.46    8.95 
   2  -4   3  155.60    9.00 
  -2  -4  -3  155.67    8.99 
  -2  -4  -3  160.58    8.96 
   2  -4   3  163.09    8.97 
   2  -4   3  161.19    8.96 
   2  -4   3  160.82    8.98 
  -2   4  -3  168.02    8.97 
  -2   4  -3  165.88    8.95 
   2   4   3  176.85    8.99 
  -2   4  -3  170.20    8.96 
   2   4   3  166.77    9.00 
   2   4   3  167.70    8.96 
  -2   4  -3  173.41    9.00 
   2   4   3  166.99    8.97 
   3  -4   3    1.53    0.26 
  -3  -4  -3    1.46    0.21 
  -3  -4  -3    1.52    0.21 
   3  -4   3    1.48    0.22 
   3  -4   3    1.86    0.23 
  -3  -4  -3    1.65    0.18 
  -3  -4  -3    1.70    0.24 
   3  -4   3    1.60    0.20 
   3  -4   3    1.56    0.19 
  -3   4  -3    1.59    0.19 
   3   4   3    1.37    0.32 
   3   4   3    1.75    0.24 
  -3   4  -3    1.77    0.27 
  -3   4  -3    1.69    0.18 
   3   4   3    2.10    0.22 
  -3   4  -3    1.90    0.22 
   3   4   3    1.69    0.15 
   3   4   3    1.94    0.19 
  -4  -4  -3   61.68    3.47 
  -4  -4  -3   60.35    3.48 
   4  -4   3   61.19    3.50 
   4  -4   3   61.22    3.48 
  -4  -4  -3   60.82    3.51 
   4  -4   3   62.41    3.49 
   4  -4   3   62.60    3.49 
   4  -4   3   61.81    3.55 
  -4  -4  -3   62.39    3.50 
  -4   4  -3   64.88    3.54 
  -4   4  -3   65.33    3.48 
   4   4   3   63.70    3.48 
   4   4   3   64.38    3.44 
  -4   4  -3   57.83    3.53 
  -4   4  -3   63.40    3.48 
   4   4   3   63.41    3.52 
   4   4   3   64.81    3.46 
   4   4   3   64.17    3.52 
  -5  -4  -3   53.06    3.06 
  -5  -4  -3   54.65    3.02 
   5  -4   3   54.41    3.03 
  -5  -4  -3   51.29    3.16 
  -5  -4  -3   55.21    3.01 
   5  -4   3   55.87    3.03 
   5  -4   3   56.06    3.09 
   5  -4   3   53.91    3.10 
  -5   4  -3   53.35    3.08 
   5   4   3   51.99    2.97 
  -5   4  -3   54.67    3.01 
   5   4   3   54.26    3.06 
  -5   4  -3   51.78    3.00 
   5   4   3   51.63    3.04 
  -5   4  -3   53.59    3.04 
   5   4   3   53.21    2.98 
   5   4   3   53.24    3.00 
   6  -4   3    4.07    0.43 
   6  -4   3    4.27    0.52 
  -6  -4  -3    4.24    0.43 
  -6  -4  -3    4.19    0.39 
  -6  -4  -3    4.20    0.45 
   6  -4   3    4.53    0.41 
   6  -4   3    4.31    0.48 
   6  -4   3    3.96    0.44 
  -6  -4  -3    4.20    0.44 
  -6   4  -3    4.12    0.51 
   6   4   3    4.09    0.36 
   6   4   3    3.74    0.44 
  -6   4  -3    4.27    0.48 
   6   4   3    4.07    0.43 
   6   4   3    3.38    0.51 
  -6   4  -3    4.08    0.48 
   6   4   3    4.06    0.36 
   7  -4   3   19.88    1.23 
  -7  -4  -3   19.97    1.21 
   7  -4   3   20.38    1.24 
   7  -4   3   20.33    1.16 
  -7  -4  -3   18.80    1.19 
  -7  -4  -3   20.50    1.22 
   7   4   3   17.61    1.12 
  -7   4  -3   17.44    1.25 
  -7   4  -3   16.07    1.25 
   7   4   3   17.02    1.17 
   7   4   3   17.37    1.09 
   7   4   3   17.05    1.20 
  -7   4  -3   16.99    1.18 
   8  -4   3   14.67    1.11 
   8  -4   3   15.52    1.01 
  -8  -4  -3   15.81    1.04 
  -8  -4  -3   15.34    1.03 
  -8   4  -3   14.08    1.09 
  -8   4  -3   12.80    1.03 
   8   4   3   12.36    1.06 
  -8  -5   3   23.27    1.34 
   8  -5  -3   23.46    1.35 
  -8  -5   3   22.30    1.28 
   8  -5  -3   22.79    1.35 
  -8  -5   3   23.40    1.43 
  -8  -5   3   23.09    1.45 
  -8   5   3   17.32    1.42 
  -8   5   3   16.91    1.42 
   7  -5  -3    6.05    0.53 
  -7  -5   3    5.78    0.47 
  -7  -5   3    5.45    0.61 
  -7  -5   3    5.80    0.44 
  -7  -5   3    5.68    0.50 
  -7  -5   3    5.64    0.45 
   7  -5  -3    6.23    0.68 
  -7   5   3    5.81    0.59 
   7   5  -3    5.56    0.45 
   7   5  -3    6.46    0.40 
  -7   5   3    6.34    0.62 
  -7   5   3    6.81    0.58 
  -7   5   3    6.00    0.64 
  -6  -5   3    9.18    0.55 
   6  -5  -3    9.13    0.60 
   6  -5  -3    9.10    0.63 
   6  -5  -3    9.47    0.70 
  -6  -5   3    9.95    0.59 
  -6  -5   3    9.10    0.68 
  -6  -5   3    9.31    0.54 
  -6  -5   3    9.60    0.55 
   6  -5  -3    8.75    0.66 
   6   5  -3    7.79    0.54 
  -6   5   3    7.84    0.64 
  -6   5   3    7.27    0.70 
  -6   5   3    7.35    0.67 
  -6   5   3    7.74    0.58 
  -6   5   3    7.68    0.65 
   5  -5  -3   31.43    1.92 
  -5  -5   3   33.02    1.95 
  -5  -5   3   31.58    1.90 
   5  -5  -3   32.44    1.93 
  -5  -5   3   31.59    1.87 
  -5  -5   3   32.74    1.87 
   5  -5  -3   32.21    1.96 
  -5  -5   3   31.30    1.95 
   5  -5  -3   32.34    1.98 
  -5  -5   3   32.23    1.87 
   5   5  -3   37.40    1.87 
  -5   5   3   36.57    2.23 
  -5   5   3   37.16    1.93 
  -5   5   3   36.66    1.96 
  -5   5   3   38.15    1.99 
  -5   5   3   34.96    1.98 
   4  -5  -3    2.41    0.33 
   4  -5  -3    2.31    0.30 
  -4  -5   3    2.22    0.29 
   4  -5  -3    2.40    0.27 
  -4  -5   3    2.27    0.17 
  -4  -5   3    2.35    0.28 
  -4  -5   3    2.24    0.22 
   4  -5  -3    2.28    0.25 
   4  -5  -3    2.23    0.26 
  -4   5   3    2.81    0.31 
  -4   5   3    3.05    0.37 
  -4   5   3    2.85    0.29 
  -4   5   3    2.66    0.25 
  -3  -5   3  101.03    5.67 
  -3  -5   3  101.92    5.61 
   3  -5  -3  101.94    5.66 
   3  -5  -3  101.67    5.64 
  -3  -5   3  106.27    5.71 
   3  -5  -3   98.41    5.63 
   3  -5  -3  101.29    5.64 
   3  -5  -3   99.30    5.68 
  -3  -5   3  103.47    5.65 
  -3   5   3  101.55    5.63 
  -3   5   3   99.31    5.70 
  -3   5   3  106.87    5.65 
  -3   5   3  106.97    5.62 
  -3   5   3  106.42    5.66 
  -3   5   3  102.50    5.69 
   2  -5  -3   75.84    3.71 
   2  -5  -3   73.14    3.71 
  -2  -5   3   76.24    3.74 
  -2  -5   3   74.22    3.70 
   2  -5  -3   71.43    3.72 
   2  -5  -3   75.13    3.71 
   2  -5  -3   76.78    3.71 
  -2  -5   3   76.37    3.77 
  -2   5   3   59.92    3.69 
  -2   5   3   60.33    3.71 
  -2   5   3   58.45    3.74 
  -2   5   3   56.67    3.70 
  -2   5   3   57.35    3.70 
  -2   5   3   56.76    3.69 
  -2   5   3   57.69    3.73 
  -1  -5   3   15.38    0.91 
  -1  -5   3   14.88    0.85 
  -1  -5   3   14.61    0.92 
  -1  -5   3   14.98    0.85 
  -1  -5   3   15.07    0.86 
   1  -5  -3   14.13    0.88 
   1  -5  -3   14.38    0.88 
   1  -5  -3   14.68    0.88 
   1  -5  -3   14.77    0.87 
  -1  -5   3   14.55    0.84 
   1  -5  -3   14.21    0.90 
  -1   5   3   15.87    0.94 
  -1   5   3   15.87    0.90 
  -1   5   3   15.27    0.89 
  -1   5   3   14.74    0.91 
  -1   5   3   15.76    0.88 
  -1   5   3   16.28    0.88 
   1   5  -3   16.38    0.86 
   0  -5  -3  235.42   13.05 
   0  -5   3  244.42   13.14 
   0  -5  -3  242.94   13.05 
   0  -5  -3  247.38   13.15 
   0  -5  -3  236.09   13.17 
   0  -5  -3  233.45   13.07 
   0  -5   3  249.32   13.09 
   0  -5  -3  242.82   13.07 
   0  -5   3  243.96   13.08 
   0  -5   3  241.00   13.07 
   0   5   3  229.46   13.07 
   0   5   3  236.66   13.07 
   0   5   3  240.33   13.11 
   0   5  -3  239.07   13.11 
   0   5  -3  243.76   13.12 
   0   5   3  240.91   13.07 
   0   5   3  232.72   13.05 
   0   5  -3  230.49   13.22 
   0   5   3  235.30   13.09 
   1  -5   3  219.98   12.36 
  -1  -5  -3  221.05   12.29 
   1  -5   3  233.54   12.31 
  -1  -5  -3  213.53   12.33 
   1  -5   3  225.94   12.36 
  -1  -5  -3  222.49   12.36 
   1  -5   3  225.61   12.33 
  -1  -5  -3  223.84   12.30 
   1   5   3  232.46   12.33 
  -1   5  -3  223.84   12.38 
   1   5   3  230.51   12.31 
  -1   5  -3  230.56   12.30 
  -1   5  -3  231.98   12.32 
   1   5   3  222.79   12.30 
   1   5   3  226.60   12.31 
  -1   5  -3  225.03   12.34 
   1   5   3  221.15   12.31 
   1   5   3  227.15   12.33 
  -2  -5  -3   18.47    1.05 
  -2  -5  -3   18.23    1.08 
  -2  -5  -3   18.68    1.03 
   2  -5   3   18.94    1.04 
  -2  -5  -3   18.88    1.05 
   2  -5   3   17.84    1.06 
   2  -5   3   19.00    1.10 
   2  -5   3   18.89    1.02 
   2  -5   3   18.69    1.05 
   2   5   3   17.72    1.03 
  -2   5  -3   17.85    1.01 
  -2   5  -3   17.47    1.08 
   2   5   3   14.80    1.12 
   2   5   3   18.20    1.06 
  -2   5  -3   17.49    1.03 
   2   5   3   17.39    1.05 
  -2   5  -3   16.86    1.05 
   2   5   3   17.41    1.00 
  -3  -5  -3   57.32    3.12 
   3  -5   3   59.22    3.12 
   3  -5   3   57.37    3.17 
   3  -5   3   55.95    3.11 
  -3  -5  -3   56.76    3.10 
   3  -5   3   57.91    3.13 
  -3  -5  -3   58.63    3.15 
   3  -5   3   57.58    3.09 
  -3  -5  -3   57.14    3.11 
  -3   5  -3   54.53    3.12 
   3   5   3   55.09    3.13 
   3   5   3   55.85    3.14 
  -3   5  -3   55.36    3.16 
   3   5   3   52.20    3.14 
   3   5   3   54.20    3.06 
  -3   5  -3   52.71    3.10 
   3   5   3   55.70    3.05 
  -3   5  -3   54.36    3.08 
   3   5   3   54.59    3.09 
   3   5   3   55.10    3.11 
  -4  -5  -3   25.31    1.62 
  -4  -5  -3   25.69    1.61 
   4  -5   3   25.45    1.66 
   4  -5   3   26.67    1.61 
  -4  -5  -3   25.86    1.58 
  -4  -5  -3   25.55    1.59 
   4  -5   3   25.14    1.62 
   4  -5   3   25.48    1.59 
   4   5   3   28.97    1.64 
   4   5   3   29.34    1.64 
   4   5   3   29.58    1.57 
   4   5   3   29.61    1.64 
  -4   5  -3   30.35    1.63 
  -4   5  -3   29.61    1.67 
   4   5   3   28.88    1.60 
  -4   5  -3   28.84    1.59 
   4   5   3   29.16    1.54 
  -4   5  -3   30.08    1.59 
   5  -5   3   20.12    1.34 
   5  -5   3   20.54    1.27 
  -5  -5  -3   20.58    1.28 
   5  -5   3   20.96    1.25 
  -5  -5  -3   21.21    1.23 
  -5  -5  -3   21.32    1.27 
   5  -5   3   19.99    1.23 
  -5  -5  -3   20.15    1.25 
   5   5   3   21.47    1.18 
  -5   5  -3   21.26    1.33 
   5   5   3   20.70    1.24 
  -5   5  -3   20.94    1.28 
  -5   5  -3   21.39    1.24 
   5   5   3   20.82    1.30 
   5   5   3   21.14    1.30 
   5   5   3   21.12    1.20 
  -5   5  -3   19.79    1.25 
   6  -5   3   31.60    1.83 
   6  -5   3   32.35    1.83 
   6  -5   3   32.22    1.80 
  -6  -5  -3   31.89    1.83 
  -6  -5  -3   32.34    1.84 
   6  -5   3   32.57    1.84 
   6  -5   3   32.53    1.92 
  -6  -5  -3   33.04    1.80 
  -6  -5  -3   31.41    1.81 
   6   5   3   29.59    1.74 
   6   5   3   29.18    1.85 
  -6   5  -3   29.19    1.84 
  -6   5  -3   29.65    1.80 
  -6   5  -3   29.27    1.79 
   6   5   3   29.70    1.73 
  -6   5  -3   29.67    1.89 
   6   5   3   29.81    1.79 
   6   5   3   29.36    1.84 
   6   5   3   29.19    1.84 
  -7  -5  -3    1.67    0.30 
   7  -5   3    1.90    0.29 
  -7  -5  -3    2.25    0.39 
   7  -5   3    2.09    0.40 
  -7  -5  -3    2.55    0.59 
   7   5   3    1.51    0.36 
  -7   5  -3    1.33    0.39 
  -7   5  -3    1.56    0.40 
   7   5   3    1.38    0.24 
   7   5   3    1.51    0.22 
  -7   5  -3    1.51    0.31 
  -8  -5  -3   15.84    1.19 
   8  -5   3   16.23    1.10 
  -8  -5  -3   15.87    1.11 
   8  -5   3   15.74    1.22 
   8   5   3   15.75    1.17 
  -8   5  -3   15.60    1.13 
  -8   5  -3   16.38    1.22 
  -8  -6   3    1.59    0.41 
  -8  -6   3    1.43    0.23 
   8  -6  -3    1.77    0.35 
  -8   6   3    1.30    0.36 
  -8   6   3    1.10    0.34 
  -8   6   3    1.40    0.42 
   7  -6  -3   28.35    1.53 
   7  -6  -3   27.41    1.63 
  -7  -6   3   27.28    1.43 
   7  -6  -3   25.56    1.51 
  -7  -6   3   24.94    1.45 
  -7  -6   3   26.98    1.59 
  -7  -6   3   26.46    1.46 
  -7  -6   3   27.58    1.47 
   7   6  -3   22.35    1.42 
  -7   6   3   22.99    1.56 
  -7   6   3   22.72    1.58 
  -7   6   3   22.06    1.62 
  -7   6   3   21.10    1.54 
   6  -6  -3   13.56    0.89 
   6  -6  -3   12.38    0.94 
  -6  -6   3   13.68    0.80 
  -6  -6   3   13.35    0.82 
  -6  -6   3   13.52    0.94 
  -6  -6   3   13.86    0.84 
  -6  -6   3   13.66    0.79 
   6  -6  -3   13.30    0.97 
   6  -6  -3   12.47    0.89 
  -6   6   3   14.32    0.99 
  -6   6   3   14.54    0.96 
   6   6  -3   14.38    0.79 
  -6   6   3   14.42    0.94 
  -6   6   3   14.73    1.02 
  -6   6   3   14.39    0.87 
  -5  -6   3    2.47    0.36 
  -5  -6   3    2.17    0.25 
   5  -6  -3    2.46    0.28 
  -5  -6   3    2.20    0.32 
   5  -6  -3    2.22    0.28 
  -5  -6   3    2.32    0.19 
  -5  -6   3    2.26    0.21 
   5  -6  -3    1.91    0.30 
   5  -6  -3    2.30    0.34 
   4  -6  -3   88.37    5.03 
   4  -6  -3   87.65    5.02 
  -4  -6   3   90.82    5.11 
  -4  -6   3   89.26    5.05 
   4  -6  -3   88.29    5.02 
   4  -6  -3   87.93    5.05 
  -4  -6   3   88.89    4.98 
   4  -6  -3   87.81    5.08 
  -4  -6   3   88.23    4.96 
  -4  -6   3   87.99    5.03 
  -4   6   3  100.17    5.12 
  -4   6   3   97.75    5.06 
  -4   6   3  104.90    5.05 
  -4   6   3   85.20    5.09 
   3  -6  -3   34.33    1.86 
  -3  -6   3   34.69    1.92 
  -3  -6   3   35.76    1.81 
  -3  -6   3   34.78    1.88 
  -3  -6   3   34.61    1.84 
   3  -6  -3   33.97    1.88 
   3  -6  -3   34.23    1.85 
   3  -6  -3   33.89    1.85 
   3  -6  -3   34.49    1.85 
  -3   6   3   29.29    1.91 
  -3   6   3   29.62    1.85 
  -3   6   3   30.27    1.84 
  -3   6   3   30.15    1.89 
  -3   6   3   28.62    1.86 
  -3   6   3   29.32    1.82 
   2  -6  -3   37.31    2.09 
   2  -6  -3   34.34    2.11 
  -2  -6   3   36.72    2.07 
   2  -6  -3   35.50    2.10 
  -2  -6   3   37.20    2.05 
  -2  -6   3   36.95    2.13 
  -2  -6   3   37.75    2.04 
   2  -6  -3   37.01    2.10 
   2  -6  -3   36.32    2.09 
  -2  -6   3   37.32    2.14 
  -2   6   3   37.07    2.11 
  -2   6   3   38.78    2.10 
  -2   6   3   37.21    2.21 
  -2   6   3   37.44    2.10 
  -2   6   3   37.93    2.11 
   2   6  -3   38.26    2.05 
  -2   6   3   38.26    2.16 
  -2   6   3   37.95    2.09 
   2   6  -3   38.58    2.05 
  -1  -6   3  163.45    9.23 
   1  -6  -3  165.22    9.25 
  -1  -6   3  168.17    9.23 
   1  -6  -3  170.03    9.24 
   1  -6  -3  167.03    9.25 
   1  -6  -3  165.38    9.27 
  -1  -6   3  166.40    9.29 
   1  -6  -3  167.38    9.26 
  -1  -6   3  167.74    9.29 
  -1  -6   3  169.81    9.23 
   1   6  -3  172.71    9.25 
  -1   6   3  171.41    9.31 
  -1   6   3  166.42    9.29 
  -1   6   3  175.64    9.26 
  -1   6   3  172.98    9.25 
  -1   6   3  168.24    9.25 
  -1   6   3  175.73    9.27 
   1   6  -3  171.01    9.25 
   0  -6   3   59.41    3.18 
   0  -6   3   59.76    3.19 
   0  -6  -3   52.73    3.21 
   0  -6   3   59.36    3.21 
   0  -6  -3   58.71    3.21 
   0  -6  -3   59.69    3.26 
   0  -6  -3   59.58    3.22 
   0  -6  -3   57.89    3.21 
   0  -6  -3   59.46    3.18 
   0   6   3   59.34    3.19 
   0   6   3   60.63    3.21 
   0   6  -3   54.59    3.20 
   0   6   3   58.66    3.20 
   0   6  -3   59.38    3.25 
   0   6   3   58.82    3.26 
   0   6  -3   51.83    3.24 
   0   6   3   51.02    3.34 
   0   6   3   59.61    3.24 
  -1  -6  -3   65.39    3.55 
   1  -6   3   67.46    3.53 
  -1  -6  -3   67.67    3.58 
   1  -6   3   68.15    3.57 
  -1  -6  -3   69.28    3.54 
   1  -6   3   69.75    3.54 
   1  -6   3   66.65    3.57 
   1  -6   3   67.51    3.52 
  -1  -6  -3   67.79    3.52 
   1   6   3   61.88    3.54 
   1   6   3   61.31    3.53 
  -1   6  -3   57.84    3.55 
  -1   6  -3   62.62    3.53 
   1   6   3   61.01    3.56 
   1   6   3   60.57    3.54 
   1   6   3   59.96    3.57 
  -1   6  -3   59.89    3.50 
  -1   6  -3   59.04    3.57 
   1   6   3   59.93    3.50 
   2  -6   3  101.05    5.42 
  -2  -6  -3   97.60    5.41 
  -2  -6  -3  100.73    5.41 
  -2  -6  -3   94.04    5.44 
   2  -6   3  101.84    5.46 
   2  -6   3   97.10    5.40 
   2  -6   3   98.07    5.41 
  -2  -6  -3   99.15    5.40 
   2   6   3   92.23    5.44 
  -2   6  -3   98.66    5.39 
  -2   6  -3   99.68    5.45 
   2   6   3   97.37    5.41 
   2   6   3   99.49    5.42 
   2   6   3   98.22    5.44 
  -2   6  -3   98.83    5.41 
   2   6   3   97.82    5.39 
  -2   6  -3   98.64    5.36 
  -3  -6  -3    8.99    0.60 
   3  -6   3    8.65    0.58 
  -3  -6  -3    8.80    0.62 
   3  -6   3    9.11    0.60 
   3  -6   3    9.01    0.60 
  -3  -6  -3    9.05    0.57 
  -3  -6  -3    8.69    0.59 
   3  -6   3    9.40    0.67 
   3   6   3    8.75    0.59 
  -3   6  -3    9.22    0.60 
   3   6   3    9.04    0.56 
  -3   6  -3    9.39    0.54 
  -3   6  -3    9.12    0.66 
   3   6   3    8.44    0.62 
   3   6   3    8.48    0.61 
  -3   6  -3    8.90    0.57 
   3   6   3    9.13    0.64 
  -4  -6  -3   51.33    2.78 
   4  -6   3   52.11    2.80 
  -4  -6  -3   54.37    2.76 
  -4  -6  -3   51.55    2.79 
   4  -6   3   53.20    2.87 
   4  -6   3   45.76    2.87 
   4  -6   3   52.74    2.80 
   4   6   3   47.91    2.74 
  -4   6  -3   47.24    2.84 
  -4   6  -3   47.46    2.74 
  -4   6  -3   47.36    2.79 
   4   6   3   48.54    2.81 
   4   6   3   47.61    2.77 
   4   6   3   48.64    2.81 
  -4   6  -3   47.71    2.76 
   4   6   3   45.55    2.81 
  -5  -6  -3   56.87    3.38 
   5  -6   3   58.42    3.37 
   5  -6   3   58.05    3.39 
  -5  -6  -3   56.17    3.37 
   5  -6   3   58.24    3.47 
  -5  -6  -3   56.83    3.35 
  -5  -6  -3   55.77    3.40 
   5   6   3   63.05    3.36 
   5   6   3   63.25    3.43 
  -5   6  -3   64.00    3.41 
  -5   6  -3   63.70    3.46 
   5   6   3   63.99    3.32 
  -5   6  -3   65.82    3.36 
   5   6   3   56.56    3.42 
  -6  -6  -3    2.02    0.28 
   6  -6   3    1.98    0.35 
  -6  -6  -3    1.70    0.31 
   6  -6   3    1.91    0.27 
  -6  -6  -3    1.91    0.30 
  -6  -6  -3    1.81    0.37 
   6  -6   3    1.83    0.40 
   6   6   3    2.44    0.28 
   6   6   3    2.11    0.36 
  -6   6  -3    2.25    0.37 
  -6   6  -3    1.67    0.33 
  -6   6  -3    2.31    0.35 
  -7  -6  -3    7.87    0.67 
   7  -6   3    8.98    0.79 
   7  -6   3    8.93    0.66 
  -7  -6  -3    8.13    0.67 
  -7   6  -3    6.49    0.86 
   7   6   3    6.88    0.72 
  -7   6  -3    6.62    0.67 
  -7   6  -3    7.46    0.79 
  -7  -7   3    0.45    0.30 
  -7  -7   3    0.56    0.21 
   7  -7  -3    0.24    0.39 
  -7  -7   3    0.52    0.15 
   7  -7  -3    0.53    0.27 
  -7   7   3    1.01    0.35 
  -7   7   3    1.11    0.39 
  -7   7   3    0.95    0.30 
  -7   7   3    1.10    0.39 
   6  -7  -3   15.22    1.02 
   6  -7  -3   14.35    1.00 
  -6  -7   3   14.77    0.94 
  -6  -7   3   15.28    1.06 
  -6  -7   3   14.98    0.94 
   6  -7  -3   15.36    1.10 
  -6   7   3   17.65    1.09 
  -6   7   3   18.14    1.09 
  -6   7   3   16.88    1.06 
  -6   7   3   16.51    1.16 
   5  -7  -3   68.51    3.97 
  -5  -7   3   70.30    4.08 
   5  -7  -3   67.82    4.03 
  -5  -7   3   67.31    3.97 
  -5  -7   3   66.77    3.90 
   5  -7  -3   67.91    3.96 
  -5  -7   3   67.04    3.99 
  -5  -7   3   68.23    3.90 
   5  -7  -3   68.25    4.00 
  -5   7   3   76.64    4.08 
  -5   7   3   77.32    4.01 
  -5   7   3   78.10    4.01 
  -5   7   3   79.27    4.00 
   4  -7  -3   22.93    1.36 
  -4  -7   3   24.12    1.45 
   4  -7  -3   22.74    1.42 
   4  -7  -3   22.57    1.37 
  -4  -7   3   23.42    1.30 
  -4  -7   3   22.95    1.29 
   4  -7  -3   23.89    1.41 
   4  -7  -3   22.46    1.35 
  -4  -7   3   23.63    1.36 
  -4  -7   3   23.66    1.40 
  -4   7   3   22.62    1.42 
  -4   7   3   21.27    1.43 
  -4   7   3   23.10    1.46 
   3  -7  -3   99.59    5.54 
   3  -7  -3  100.28    5.57 
  -3  -7   3  108.67    5.61 
  -3  -7   3  101.22    5.58 
  -3  -7   3  103.09    5.49 
  -3  -7   3  103.77    5.53 
  -3  -7   3  103.94    5.48 
   3  -7  -3  103.53    5.54 
  -3  -7   3  102.39    5.47 
   3  -7  -3  103.30    5.54 
  -3   7   3   94.15    5.53 
  -3   7   3   94.25    5.55 
  -3   7   3   93.84    5.58 
  -3   7   3   96.04    5.61 
  -3   7   3   98.27    5.52 
   2  -7  -3   68.72    3.73 
  -2  -7   3   69.76    3.68 
   2  -7  -3   65.49    3.75 
  -2  -7   3   69.02    3.77 
  -2  -7   3   72.01    3.78 
   2  -7  -3   69.25    3.73 
  -2  -7   3   71.26    3.68 
   2  -7  -3   69.35    3.74 
  -2  -7   3   69.81    3.69 
   2   7  -3   66.05    3.68 
  -2   7   3   63.58    3.79 
  -2   7   3   66.06    3.70 
  -2   7   3   64.81    3.73 
  -2   7   3   64.33    3.73 
  -2   7   3   63.71    3.71 
  -2   7   3   62.87    3.76 
   2   7  -3   65.58    3.68 
   1  -7  -3   10.47    0.62 
   1  -7  -3   10.81    0.59 
  -1  -7   3   10.32    0.65 
  -1  -7   3   10.04    0.57 
   1  -7  -3   10.28    0.61 
  -1  -7   3   10.25    0.58 
   1  -7  -3   10.54    0.63 
   1  -7  -3   10.23    0.64 
  -1  -7   3   10.02    0.66 
  -1  -7   3   10.28    0.58 
  -1   7   3    8.85    0.62 
  -1   7   3    8.66    0.63 
  -1   7   3    8.48    0.59 
   1   7  -3    8.72    0.59 
  -1   7   3    9.04    0.60 
  -1   7   3    8.52    0.68 
  -1   7   3    8.67    0.64 
   0  -7  -3   97.95    5.53 
   0  -7   3   98.08    5.57 
   0  -7  -3   95.58    5.55 
   0  -7  -3   97.49    5.50 
   0  -7   3   98.03    5.52 
   0  -7   3  100.86    5.53 
   0  -7  -3   94.82    5.54 
   0  -7   3   99.93    5.51 
   0  -7  -3   96.47    5.54 
   0  -7   3   99.83    5.55 
   0   7   3  104.49    5.54 
   0   7   3  104.51    5.54 
   0   7  -3  102.07    5.58 
   0   7   3  102.69    5.58 
   0   7  -3  102.92    5.55 
   0   7   3  102.76    5.57 
   0   7   3  104.21    5.60 
   0   7  -3  107.24    5.52 
   0   7   3  102.85    5.52 
   1  -7   3   45.84    2.56 
   1  -7   3   44.17    2.54 
   1  -7   3   44.51    2.51 
  -1  -7  -3   44.12    2.52 
   1  -7   3   46.27    2.56 
   1  -7   3   43.87    2.52 
  -1  -7  -3   45.51    2.52 
  -1  -7  -3   42.97    2.57 
  -1   7  -3   46.96    2.52 
   1   7   3   45.75    2.57 
   1   7   3   45.02    2.53 
  -1   7  -3   46.44    2.56 
  -1   7  -3   43.28    2.56 
   1   7   3   45.35    2.54 
   1   7   3   45.66    2.56 
   1   7   3   45.34    2.48 
   1   7   3   46.22    2.52 
   2  -7   3    7.92    0.55 
   2  -7   3    8.09    0.54 
   2  -7   3    7.78    0.51 
  -2  -7  -3    7.88    0.52 
  -2  -7  -3    7.76    0.52 
   2  -7   3    7.79    0.53 
   2  -7   3    7.71    0.59 
  -2  -7  -3    7.65    0.57 
  -2  -7  -3    7.54    0.50 
  -3  -7  -3   68.53    3.79 
   3  -7   3   67.96    3.81 
  -3  -7  -3   70.94    3.78 
  -3  -7  -3   66.78    3.79 
   3  -7   3   69.80    3.86 
  -3  -7  -3   66.08    3.83 
   3  -7   3   66.83    3.80 
   3  -7   3   68.11    3.79 
   3  -7   3   66.96    3.81 
   3   7   3   63.65    3.83 
   3   7   3   67.37    3.82 
  -3   7  -3   68.52    3.77 
   3   7   3   69.23    3.79 
  -3   7  -3   68.15    3.85 
   3   7   3   70.38    3.77 
  -3   7  -3   68.62    3.74 
  -3   7  -3   68.89    3.81 
   3   7   3   69.85    3.82 
  -4  -7  -3   73.90    4.14 
   4  -7   3   71.16    4.15 
   4  -7   3   76.32    4.20 
  -4  -7  -3   73.77    4.11 
  -4  -7  -3   74.27    4.09 
   4  -7   3   74.74    4.11 
   4  -7   3   70.26    4.12 
   4  -7   3   74.71    4.10 
  -4  -7  -3   71.07    4.10 
   4   7   3   74.78    4.14 
  -4   7  -3   74.87    4.06 
   4   7   3   74.99    4.06 
   4   7   3   71.04    4.15 
  -4   7  -3   75.53    4.09 
  -4   7  -3   70.36    4.12 
   4   7   3   76.03    4.12 
  -4   7  -3   74.75    4.18 
   5  -7   3   25.31    1.53 
  -5  -7  -3   25.77    1.37 
  -5  -7  -3   25.03    1.39 
   5  -7   3   25.44    1.38 
   5  -7   3   25.14    1.38 
  -5  -7  -3   25.75    1.43 
   5  -7   3   25.21    1.41 
  -5  -7  -3   25.24    1.40 
   5  -7   3   25.58    1.42 
  -5   7  -3   19.90    1.35 
   5   7   3   20.99    1.31 
  -5   7  -3   20.27    1.34 
  -5   7  -3   19.79    1.40 
   5   7   3   20.58    1.43 
   5   7   3   19.73    1.39 
   5   7   3   20.21    1.42 
   5   7   3   20.91    1.36 
   6  -7   3   18.89    1.22 
  -6  -7  -3   18.45    1.25 
  -6  -7  -3   17.64    1.24 
   6  -7   3   18.39    1.40 
   6  -7   3   18.35    1.27 
  -6  -7  -3   19.21    1.23 
   6  -7   3   18.46    1.22 
  -6  -7  -3   18.15    1.24 
   6   7   3   21.90    1.12 
  -6   7  -3   21.76    1.22 
  -6   7  -3   22.06    1.32 
  -6   7  -3   22.24    1.37 
   6   7   3   20.97    1.31 
  -7  -7  -3    0.64    0.28 
  -7  -7  -3    0.48    0.26 
   7  -7   3    0.52    0.26 
   7  -7   3    0.68    0.38 
   7   7   3    0.72    0.36 
  -7   7  -3    0.81    0.37 
  -7   7  -3    0.63    0.30 
  -7  -8   3    4.96    0.70 
   7  -8  -3    5.11    0.65 
  -7   8   3    7.02    0.68 
  -7   8   3    6.99    0.76 
  -7   8   3    6.93    0.80 
  -6  -8   3   25.49    1.51 
   6  -8  -3   26.37    1.64 
   6  -8  -3   26.07    1.55 
  -6  -8   3   26.21    1.58 
  -6  -8   3   27.86    1.73 
  -6   8   3   23.66    1.58 
  -6   8   3   23.61    1.58 
  -6   8   3   24.47    1.68 
  -6   8   3   25.05    1.59 
   5  -8  -3    3.33    0.40 
  -5  -8   3    3.17    0.30 
   5  -8  -3    3.71    0.49 
  -5  -8   3    3.90    0.53 
   5  -8  -3    3.63    0.38 
   5  -8  -3    3.03    0.37 
  -5  -8   3    3.40    0.27 
  -5  -8   3    3.52    0.43 
   5  -8  -3    3.29    0.55 
  -5  -8   3    3.18    0.43 
  -5   8   3    2.72    0.43 
  -5   8   3    3.02    0.45 
  -5   8   3    2.45    0.44 
  -5   8   3    2.43    0.43 
   4  -8  -3   82.51    4.54 
  -4  -8   3   86.62    4.53 
  -4  -8   3   86.89    4.63 
  -4  -8   3   87.69    4.47 
  -4  -8   3   85.31    4.47 
   4  -8  -3   81.29    4.58 
   4  -8  -3   82.91    4.54 
   4  -8  -3   82.84    4.55 
   4  -8  -3   68.90    4.56 
  -4  -8   3   84.92    4.59 
  -4   8   3   68.43    4.55 
  -4   8   3   82.77    4.55 
  -4   8   3   78.99    4.56 
  -4   8   3   79.48    4.60 
  -4   8   3   82.25    4.65 
  -4   8   3   83.31    4.56 
  -3  -8   3   13.42    0.89 
   3  -8  -3   12.10    0.84 
  -3  -8   3   12.94    0.75 
  -3  -8   3   12.42    0.87 
  -3  -8   3   13.00    0.77 
  -3  -8   3   12.89    0.75 
  -3  -8   3   13.13    0.80 
   3  -8  -3   12.47    0.83 
   3  -8  -3   11.89    0.87 
   3  -8  -3   12.81    0.82 
  -3  -8   3   13.02    0.76 
  -3   8   3   16.34    0.91 
  -3   8   3   15.75    0.87 
  -2  -8   3   29.10    1.67 
   2  -8  -3   28.54    1.72 
  -2  -8   3   27.68    1.76 
   2  -8  -3   29.92    1.73 
  -2  -8   3   29.49    1.67 
  -2  -8   3   29.72    1.67 
  -2  -8   3   29.59    1.67 
  -2  -8   3   28.97    1.67 
   2  -8  -3   28.79    1.75 
  -2  -8   3   29.34    1.76 
   2  -8  -3   29.02    1.70 
  -2  -8   3   29.58    1.68 
  -2   8   3   32.27    1.74 
   2   8  -3   31.13    1.68 
  -2   8   3   31.28    1.81 
  -2   8   3   30.91    1.77 
  -2   8   3   31.76    1.73 
   2   8  -3   32.21    1.68 
  -1  -8   3   69.09    3.81 
  -1  -8   3   68.47    3.81 
   1  -8  -3   67.72    3.84 
  -1  -8   3   67.99    3.80 
  -1  -8   3   69.20    3.89 
   1  -8  -3   69.00    3.81 
   1  -8  -3   67.40    3.84 
  -1  -8   3   68.07    3.80 
   1  -8  -3   65.77    3.83 
   1  -8  -3   65.26    3.86 
  -1   8   3   70.93    3.88 
   1   8  -3   74.24    3.83 
  -1   8   3   70.30    3.83 
  -1   8   3   70.57    3.82 
  -1   8   3   69.96    3.91 
  -1   8   3   71.97    3.87 
   0  -8   3   54.51    3.08 
   0  -8  -3   52.81    3.10 
   0  -8   3   55.23    3.09 
   0  -8  -3   55.88    3.10 
   0  -8   3   55.91    3.12 
   0  -8  -3   52.97    3.12 
   0  -8  -3   54.72    3.06 
   0  -8  -3   53.35    3.09 
   0  -8   3   56.26    3.08 
   0  -8   3   55.35    3.14 
   0   8   3   56.89    3.09 
   0   8   3   55.58    3.14 
   0   8   3   58.37    3.18 
   0   8  -3   57.21    3.08 
   0   8  -3   56.56    3.13 
   0   8   3   56.36    3.14 
   0   8   3   55.88    3.07 
   0   8  -3   56.33    3.11 
   0   8   3   56.02    3.10 
  -1  -8  -3   47.88    2.70 
   1  -8   3   47.21    2.73 
  -1  -8  -3   48.09    2.70 
   1  -8   3   49.97    2.74 
   1  -8   3   47.41    2.69 
  -1  -8  -3   49.60    2.69 
  -1  -8  -3   48.13    2.76 
   1  -8   3   48.10    2.70 
  -1  -8  -3   47.84    2.71 
   1  -8   3   48.80    2.68 
  -1   8  -3   48.54    2.71 
   1   8   3   47.32    2.75 
   1   8   3   49.45    2.76 
   1   8   3   48.29    2.65 
  -1   8  -3   46.61    2.73 
  -1   8  -3   47.37    2.73 
   1   8   3   46.54    2.76 
   1   8   3   48.62    2.70 
   1   8   3   48.51    2.69 
   2  -8   3   43.25    2.43 
  -2  -8  -3   42.06    2.43 
   2  -8   3   45.02    2.50 
  -2  -8  -3   36.33    2.58 
  -2  -8  -3   44.67    2.43 
  -2  -8  -3   44.51    2.42 
   2  -8   3   41.33    2.45 
   2  -8   3   44.77    2.47 
   2  -8   3   44.97    2.45 
  -2   8  -3   43.82    2.40 
   2   8   3   43.71    2.41 
   2   8   3   44.04    2.45 
   2   8   3   43.27    2.44 
   2   8   3   40.08    2.60 
  -2   8  -3   43.38    2.48 
  -2   8  -3   43.66    2.49 
  -2   8  -3   43.63    2.44 
  -3  -8  -3    5.37    0.49 
   3  -8   3    5.18    0.46 
  -3  -8  -3    5.16    0.41 
  -3  -8  -3    5.42    0.45 
   3  -8   3    5.20    0.46 
   3  -8   3    5.42    0.47 
  -3  -8  -3    5.38    0.45 
   3  -8   3    5.23    0.44 
   3  -8   3    5.62    0.56 
  -3   8  -3    5.83    0.56 
   3   8   3    5.65    0.47 
   3   8   3    6.09    0.41 
  -3   8  -3    5.51    0.45 
  -3   8  -3    5.78    0.42 
   3   8   3    6.04    0.48 
  -3   8  -3    5.67    0.34 
   3   8   3    5.46    0.50 
   4  -8   3   24.60    1.56 
  -4  -8  -3   24.84    1.57 
   4  -8   3   23.52    1.55 
  -4  -8  -3   24.74    1.54 
   4  -8   3   24.53    1.53 
  -4  -8  -3   23.95    1.53 
  -4  -8  -3   23.99    1.51 
   4  -8   3   24.58    1.55 
   4  -8   3   25.14    1.65 
  -4   8  -3   28.83    1.65 
  -4   8  -3   28.22    1.48 
   4   8   3   28.06    1.48 
  -4   8  -3   26.93    1.52 
   4   8   3   28.19    1.59 
   4   8   3   27.29    1.61 
  -4   8  -3   28.06    1.57 
   4   8   3   26.19    1.55 
   4   8   3   27.93    1.58 
  -5  -8  -3   32.64    1.99 
   5  -8   3   32.83    1.95 
   5  -8   3   32.58    1.99 
   5  -8   3   33.30    1.96 
  -5  -8  -3   32.55    1.96 
  -5  -8  -3   33.12    1.94 
  -5  -8  -3   31.64    1.95 
   5  -8   3   32.31    2.09 
  -5   8  -3   34.71    1.95 
  -5   8  -3   34.98    2.01 
   5   8   3   33.10    2.01 
   5   8   3   34.95    1.87 
  -5   8  -3   34.86    2.08 
   5   8   3   34.15    2.02 
  -5   8  -3   34.82    1.91 
  -6  -8  -3    1.53    0.31 
   6  -8   3    2.02    0.31 
   6  -8   3    1.42    0.34 
   6  -8   3    1.89    0.37 
  -6  -8  -3    2.22    0.42 
   6   8   3    2.05    0.39 
  -6   8  -3    1.77    0.38 
  -6   8  -3    2.66    0.41 
  -7  -8  -3   11.49    0.89 
  -7  -8  -3   11.98    0.86 
  -7   8  -3    9.59    0.84 
   7   8   3    9.66    0.94 
  -7   8  -3   10.14    1.04 
   6  -9  -3    8.55    0.88 
  -6  -9   3    8.99    0.93 
  -6  -9   3    8.75    0.74 
   6  -9  -3    9.34    0.70 
  -6   9   3    7.65    0.88 
  -6   9   3    7.40    0.74 
  -6   9   3    7.27    0.76 
  -6   9   3    7.61    0.80 
  -5  -9   3   36.72    2.10 
   5  -9  -3   35.45    1.99 
   5  -9  -3   35.51    2.06 
  -5  -9   3   34.76    1.90 
   5  -9  -3   33.91    2.01 
  -5  -9   3   35.40    1.97 
  -5   9   3   32.88    2.22 
  -5   9   3   30.88    2.00 
  -5   9   3   30.11    2.10 
  -5   9   3   30.45    1.99 
  -4  -9   3    7.53    0.61 
   4  -9  -3    6.71    0.73 
   4  -9  -3    7.23    0.63 
   4  -9  -3    6.71    0.57 
   4  -9  -3    7.51    0.57 
  -4  -9   3    7.65    0.49 
  -4  -9   3    7.60    0.68 
  -4  -9   3    7.01    0.55 
   4  -9  -3    6.78    0.54 
  -4   9   3    7.84    0.77 
  -4   9   3    7.29    0.54 
  -4   9   3    7.76    0.61 
  -4   9   3    7.96    0.60 
  -4   9   3    7.63    0.64 
  -4   9   3    6.97    0.61 
  -3  -9   3   30.91    1.66 
  -3  -9   3   29.98    1.68 
   3  -9  -3   30.11    1.75 
  -3  -9   3   30.40    1.67 
  -3  -9   3   32.47    1.80 
   3  -9  -3   30.54    1.76 
  -3  -9   3   30.95    1.70 
  -3  -9   3   29.86    1.79 
   3  -9  -3   30.50    1.79 
  -3  -9   3   29.97    1.66 
  -3  -9   3   30.72    1.67 
   3  -9  -3   30.43    1.73 
  -3   9   3   28.86    1.70 
  -3   9   3   27.31    1.79 
   3   9  -3   28.67    1.66 
  -3   9   3   29.92    1.87 
   3   9  -3   28.73    1.67 
  -3   9   3   28.04    1.75 
  -2  -9   3   22.69    1.29 
  -2  -9   3   22.44    1.27 
  -2  -9   3   23.50    1.29 
  -2  -9   3   22.76    1.30 
   2  -9  -3   22.57    1.36 
  -2  -9   3   22.34    1.29 
   2  -9  -3   23.07    1.39 
  -2  -9   3   22.70    1.29 
  -2  -9   3   23.30    1.38 
   2  -9  -3   22.47    1.35 
   2  -9  -3   22.46    1.33 
   1  -9  -3    3.10    0.36 
  -1  -9   3    2.99    0.30 
   1  -9  -3    3.19    0.28 
   1  -9  -3    2.89    0.29 
  -1  -9   3    3.12    0.28 
  -1  -9   3    3.09    0.29 
  -1  -9   3    3.04    0.29 
   1  -9  -3    3.30    0.34 
  -1  -9   3    2.88    0.28 
   1  -9  -3    2.99    0.38 
  -1   9   3    3.82    0.34 
  -1   9   3    3.70    0.32 
  -1   9   3    3.87    0.48 
  -1   9   3    3.99    0.39 
  -1   9   3    3.99    0.37 
   0  -9  -3   66.25    3.74 
   0  -9   3   67.98    3.72 
   0  -9   3   65.98    3.72 
   0  -9  -3   70.00    3.70 
   0  -9  -3   60.29    3.77 
   0  -9  -3   59.07    3.85 
   0  -9  -3   66.76    3.75 
   0  -9   3   68.42    3.80 
   0   9   3   70.45    3.73 
   0   9   3   69.22    3.83 
   0   9  -3   68.74    3.76 
   0   9  -3   67.64    3.75 
   0   9   3   69.94    3.79 
   0   9   3   69.79    3.71 
   1  -9   3   48.03    2.68 
  -1  -9  -3   47.81    2.71 
  -1  -9  -3   47.76    2.68 
  -1  -9  -3   46.53    2.69 
   1  -9   3   47.36    2.69 
   1  -9   3   48.12    2.69 
   1  -9   3   47.93    2.74 
   1  -9   3   47.80    2.73 
   1   9   3   47.27    2.76 
  -1   9  -3   47.74    2.72 
   1   9   3   48.01    2.63 
   1   9   3   48.45    2.69 
  -1   9  -3   48.02    2.73 
   1   9   3   48.38    2.75 
   2  -9   3   23.62    1.37 
  -2  -9  -3   22.79    1.34 
  -2  -9  -3   23.82    1.28 
  -2  -9  -3   22.70    1.26 
   2  -9   3   22.23    1.28 
   2  -9   3   22.96    1.33 
   2  -9   3   20.05    1.33 
   2  -9   3   23.46    1.30 
  -2   9  -3   20.11    1.31 
   2   9   3   19.46    1.33 
  -2   9  -3   19.51    1.34 
  -2   9  -3   19.23    1.22 
   2   9   3   19.62    1.28 
   3  -9   3   33.65    2.16 
   3  -9   3   35.39    2.16 
   3  -9   3   34.96    2.14 
  -3  -9  -3   33.78    2.13 
  -3  -9  -3   34.91    2.13 
   3  -9   3   35.29    2.13 
  -3  -9  -3   34.99    2.11 
   3  -9   3   35.71    2.23 
  -3  -9  -3   33.81    2.17 
  -3   9  -3   39.72    2.16 
  -3   9  -3   39.40    2.20 
   3   9   3   40.31    2.19 
   3   9   3   40.49    2.18 
   3   9   3   40.55    2.17 
  -3   9  -3   39.79    2.11 
   3   9   3   40.07    2.22 
  -3   9  -3   40.77    2.24 
  -4  -9  -3   23.91    1.39 
   4  -9   3   23.41    1.44 
  -4  -9  -3   23.95    1.41 
  -4  -9  -3   23.72    1.41 
   4  -9   3   23.02    1.40 
  -4  -9  -3   23.75    1.45 
   4  -9   3   24.47    1.44 
   4  -9   3   23.13    1.43 
   4  -9   3   25.33    1.56 
  -4   9  -3   22.91    1.52 
  -4   9  -3   22.43    1.43 
  -4   9  -3   22.72    1.31 
   4   9   3   21.39    1.47 
   5  -9   3    9.18    0.80 
   5  -9   3    8.27    0.76 
   5  -9   3    9.87    1.00 
  -5  -9  -3   10.44    0.92 
  -5  -9  -3    9.18    0.75 
  -5  -9  -3    8.91    0.75 
   5  -9   3    9.05    0.72 
  -5  -9  -3    9.88    0.82 
  -5   9  -3   11.33    0.67 
  -5   9  -3   11.28    0.95 
   5   9   3   11.18    0.82 
   5   9   3   11.22    0.85 
  -5   9  -3   10.93    0.82 
   6  -9   3   11.87    0.96 
  -6  -9  -3   11.06    0.87 
  -6  -9  -3   10.89    0.85 
   6  -9   3   11.37    0.82 
  -6   9  -3   11.25    1.05 
  -6   9  -3   11.15    0.80 
   6   9   3   10.61    0.91 
   6 -10  -3    2.93    0.57 
  -6 -10   3    3.42    0.61 
   6 -10  -3    3.24    0.53 
  -6  10   3    4.11    0.83 
  -6  10   3    4.57    0.67 
  -5 -10   3    1.08    0.44 
   5 -10  -3    0.92    0.28 
  -5 -10   3    1.38    0.30 
   5 -10  -3    1.63    0.41 
   5 -10  -3    1.00    0.42 
  -5  10   3    2.14    0.39 
  -5  10   3    2.27    0.51 
   4 -10  -3   20.86    1.25 
  -4 -10   3   21.61    1.33 
  -4 -10   3   21.23    1.20 
   4 -10  -3   20.97    1.25 
   4 -10  -3   20.64    1.32 
  -4 -10   3   20.86    1.17 
  -4 -10   3   20.74    1.12 
   4 -10  -3   20.75    1.30 
  -4  10   3   17.67    1.41 
  -4  10   3   17.92    1.21 
  -4  10   3   17.86    1.27 
  -4  10   3   17.61    1.24 
  -3 -10   3    4.98    0.38 
  -3 -10   3    4.63    0.39 
  -3 -10   3    4.74    0.37 
   3 -10  -3    4.13    0.54 
  -3 -10   3    4.70    0.33 
  -3 -10   3    4.92    0.52 
  -3 -10   3    4.94    0.35 
   3 -10  -3    4.73    0.46 
   3 -10  -3    4.67    0.45 
   3 -10  -3    4.51    0.51 
  -3 -10   3    4.62    0.34 
  -3 -10   3    4.64    0.33 
   3  10  -3    5.05    0.36 
  -3  10   3    4.75    0.48 
  -3  10   3    4.72    0.51 
  -3  10   3    4.91    0.43 
  -3  10   3    5.02    0.70 
   3  10  -3    4.83    0.34 
  -2 -10   3   13.25    0.76 
   2 -10  -3   13.36    0.81 
   2 -10  -3   13.54    0.81 
  -2 -10   3   13.49    0.77 
   2 -10  -3   13.95    0.90 
   2 -10  -3   13.78    0.88 
  -2 -10   3   13.65    0.77 
   2 -10  -3   14.45    0.85 
  -2 -10   3   13.14    0.77 
  -2  10   3   10.85    0.96 
   2  10  -3   11.74    0.77 
  -2  10   3   11.15    0.83 
   2  10  -3   11.21    0.78 
  -2  10   3   11.53    0.85 
  -2  10   3   11.11    0.85 
   1 -10  -3   58.60    3.25 
  -1 -10   3   58.27    3.23 
  -1 -10   3   60.97    3.22 
   1 -10  -3   58.85    3.26 
   1 -10  -3   57.26    3.28 
  -1 -10   3   61.22    3.22 
   1 -10  -3   59.02    3.21 
  -1 -10   3   59.35    3.21 
  -1 -10   3   59.61    3.22 
   1 -10  -3   59.85    3.26 
  -1  10   3   54.63    3.35 
   1  10  -3   55.16    3.23 
  -1  10   3   53.28    3.22 
  -1  10   3   54.20    3.22 
   0 -10  -3   26.12    1.50 
   0 -10  -3   26.22    1.57 
   0 -10  -3   26.34    1.59 
   0 -10   3   26.07    1.53 
   0 -10  -3   25.96    1.56 
   0 -10   3   25.86    1.63 
   0 -10   3   27.03    1.55 
   0 -10   3   26.79    1.55 
   0 -10  -3   26.03    1.55 
   0 -10   3   26.21    1.54 
   0  10  -3   28.12    1.60 
   0  10   3   27.39    1.62 
   0  10   3   27.92    1.52 
   0  10   3   27.38    1.67 
  -1 -10  -3   36.09    2.19 
  -1 -10  -3   35.43    2.20 
  -1 -10  -3   36.22    2.17 
   1 -10   3   35.34    2.17 
   1 -10   3   36.14    2.23 
  -1 -10  -3   36.20    2.19 
   1 -10   3   36.35    2.19 
  -1  10  -3   41.15    2.24 
   1  10   3   41.37    2.19 
   1  10   3   42.63    2.30 
  -1  10  -3   41.19    2.21 
   1  10   3   41.10    2.27 
   2 -10   3   25.43    1.57 
   2 -10   3   24.62    1.49 
  -2 -10  -3   25.21    1.48 
  -2 -10  -3   23.99    1.47 
   2 -10   3   24.28    1.47 
  -2 -10  -3   24.25    1.47 
  -2 -10  -3   24.30    1.45 
   2 -10   3   25.34    1.46 
  -2  10  -3   25.02    1.56 
   2  10   3   24.65    1.54 
  -2  10  -3   24.76    1.46 
   2  10   3   24.60    1.51 
   2  10   3   25.58    1.48 
  -2  10  -3   24.45    1.50 
   2  10   3   25.89    1.57 
   3 -10   3    5.84    0.50 
   3 -10   3    5.43    0.54 
  -3 -10  -3    5.48    0.59 
   3 -10   3    6.22    0.70 
  -3 -10  -3    5.77    0.53 
  -3 -10  -3    5.82    0.47 
   3 -10   3    5.88    0.52 
  -3 -10  -3    5.69    0.54 
   3  10   3    5.58    0.57 
  -3  10  -3    5.53    0.58 
   3  10   3    5.63    0.55 
  -3  10  -3    5.60    0.46 
  -3  10  -3    5.73    0.67 
  -4 -10  -3   21.09    1.38 
   4 -10   3   21.55    1.37 
  -4 -10  -3   21.23    1.34 
   4 -10   3   21.84    1.53 
   4 -10   3   20.77    1.32 
  -4 -10  -3   21.30    1.34 
  -4 -10  -3   21.51    1.34 
  -4  10  -3   22.18    1.43 
  -4  10  -3   23.17    1.51 
   4  10   3   22.20    1.40 
   4  10   3   22.44    1.42 
   5 -10   3   18.43    1.45 
   5 -10   3   18.68    1.29 
   5 -10   3   18.63    1.21 
  -5 -10  -3   18.71    1.18 
  -5 -10  -3   17.61    1.16 
   5 -10   3   17.61    1.13 
   5  10   3   14.32    1.18 
  -5  10  -3   15.55    1.33 
  -5 -11   3   10.63    0.80 
   5 -11  -3   10.63    0.81 
   5 -11  -3   10.17    1.03 
   5 -11  -3    9.85    1.04 
  -5  11   3   10.41    0.87 
  -5  11   3    9.95    0.89 
  -5  11   3   10.37    1.12 
   4 -11  -3    1.84    0.43 
  -4 -11   3    1.92    0.57 
  -4 -11   3    1.51    0.26 
   4 -11  -3    1.56    0.37 
  -4 -11   3    1.69    0.25 
   4 -11  -3    1.37    0.28 
  -4 -11   3    1.21    0.21 
  -4  11   3    1.28    0.46 
  -4  11   3    1.69    0.35 
  -4  11   3    1.30    0.33 
  -3 -11   3   12.04    0.79 
  -3 -11   3   12.27    0.76 
   3 -11  -3   12.18    0.86 
   3 -11  -3   12.45    0.93 
  -3 -11   3   12.24    0.90 
   3 -11  -3   12.74    0.95 
  -3 -11   3   12.40    0.77 
  -3 -11   3   12.28    0.76 
   3 -11  -3   12.60    0.86 
  -3 -11   3   12.44    0.81 
  -3  11   3   13.83    1.11 
  -3  11   3   13.69    0.90 
   3  11  -3   12.86    0.78 
  -3  11   3   12.55    0.82 
   3  11  -3   13.10    0.77 
  -2 -11   3   21.24    1.20 
  -2 -11   3   21.35    1.21 
   2 -11  -3   21.76    1.28 
  -2 -11   3   21.29    1.21 
  -2 -11   3   21.33    1.19 
   2 -11  -3   21.10    1.24 
   2 -11  -3   21.45    1.31 
  -2 -11   3   21.44    1.23 
   2 -11  -3   21.06    1.32 
  -2  11   3   19.16    1.29 
  -2  11   3   19.53    1.26 
  -2  11   3   19.32    1.22 
  -2  11   3   17.64    1.43 
   2  11  -3   20.12    1.23 
  -1 -11   3    0.25    0.17 
   1 -11  -3    0.35    0.24 
   1 -11  -3    0.01    0.18 
  -1 -11   3    0.25    0.15 
   1 -11  -3    0.23    0.17 
  -1 -11   3    0.36    0.19 
  -1 -11   3    0.40    0.19 
  -1 -11   3    0.22    0.19 
   1 -11  -3    0.21    0.25 
  -1  11   3    0.52    0.23 
  -1  11   3    0.61    0.26 
   1  11  -3    0.58    0.21 
   1  11  -3    0.65    0.20 
  -1  11   3    0.75    0.37 
  -1  11   3    0.61    0.21 
   0 -11   3   50.85    2.83 
   0 -11   3   51.43    2.84 
   0 -11  -3   50.49    2.86 
   0 -11  -3   51.46    2.89 
   0 -11  -3   52.51    2.79 
   0 -11   3   50.80    2.86 
   0 -11   3   49.97    2.85 
   0 -11  -3   52.50    2.87 
   0 -11  -3   52.16    2.87 
   0 -11   3   51.34    2.84 
   0  11   3   49.20    2.97 
   0  11  -3   47.18    2.86 
   0  11  -3   49.07    2.89 
   0  11   3   49.33    2.83 
   0  11   3   48.02    2.91 
   1 -11   3   27.99    1.60 
   1 -11   3   27.42    1.57 
  -1 -11  -3   27.51    1.59 
   1 -11   3   28.00    1.60 
  -1 -11  -3   27.49    1.58 
  -1 -11  -3   26.93    1.59 
   1 -11   3   27.97    1.66 
   1 -11   3   28.12    1.57 
  -1 -11  -3   27.31    1.60 
   1  11   3   24.39    1.64 
   1  11   3   25.01    1.69 
   1  11   3   24.75    1.57 
  -1  11  -3   24.48    1.64 
   2 -11   3    4.80    0.49 
  -2 -11  -3    4.89    0.53 
   2 -11   3    5.20    0.71 
   2 -11   3    5.56    0.55 
  -2 -11  -3    5.72    0.52 
   2 -11   3    4.94    0.56 
   2 -11   3    5.76    0.60 
  -2 -11  -3    5.30    0.51 
   2 -11   3    5.51    0.50 
  -2 -11  -3    4.95    0.49 
  -2  11  -3    6.38    0.68 
  -2  11  -3    6.78    0.57 
   2  11   3    7.24    0.72 
   2  11   3    6.00    0.58 
   2  11   3    6.52    0.56 
  -3 -11  -3   19.15    1.17 
   3 -11   3   20.03    1.39 
   3 -11   3   18.94    1.18 
  -3 -11  -3   19.41    1.18 
   3 -11   3   19.13    1.20 
   3 -11   3   18.35    1.25 
   3  11   3   18.62    1.31 
   3  11   3   17.58    1.24 
  -3  11  -3   18.32    1.33 
  -3  11  -3   17.42    1.22 
  -4 -11  -3    6.64    0.63 
   4 -11   3    7.11    0.98 
   4 -11   3    6.66    0.63 
   4 -11   3    6.66    0.57 
   4 -11   3    6.55    0.72 
  -4 -11  -3    6.90    0.63 
  -4  11  -3    5.12    0.58 
   4  11   3    5.40    0.62 
  -4  11  -3    5.65    0.86 
  -4  11  -3    5.56    0.71 
   4  11   3    5.16    0.71 
  -5 -11  -3    7.20    0.72 
  -5  11  -3    9.95    1.11 
  -4 -12   3   12.32    0.96 
   4 -12  -3   13.48    1.00 
   4 -12  -3   13.71    1.10 
  -4 -12   3   13.27    0.78 
  -4  12   3   12.36    1.02 
  -4  12   3   14.22    1.28 
   3 -12  -3   16.00    1.06 
  -3 -12   3   16.11    0.97 
  -3 -12   3   15.43    0.95 
   3 -12  -3   15.69    1.17 
   3 -12  -3   15.25    1.06 
   3  12  -3   16.72    0.97 
  -3  12   3   15.99    1.05 
  -3  12   3   15.40    1.10 
  -3  12   3   17.09    1.36 
   2 -12  -3    6.16    0.65 
  -2 -12   3    6.01    0.51 
  -2 -12   3    5.85    0.52 
   2 -12  -3    6.61    0.80 
  -2 -12   3    6.29    0.47 
   2 -12  -3    6.01    0.55 
   2 -12  -3    6.59    0.57 
  -2 -12   3    5.98    0.58 
  -2 -12   3    6.75    0.44 
   2  12  -3    5.64    0.51 
  -2  12   3    6.50    0.60 
  -2  12   3    5.52    0.89 
  -1 -12   3   27.18    1.56 
  -1 -12   3   28.17    1.58 
   1 -12  -3   28.25    1.62 
   1 -12  -3   27.15    1.64 
   1 -12  -3   28.15    1.55 
  -1 -12   3   27.89    1.61 
   1 -12  -3   28.23    1.67 
  -1 -12   3   28.51    1.58 
  -1  12   3   23.61    1.56 
  -1  12   3   23.35    1.66 
  -1  12   3   24.25    1.95 
   0 -12  -3   10.93    0.84 
   0 -12  -3   10.93    0.66 
   0 -12   3   11.42    0.76 
   0 -12   3   10.75    0.74 
   0 -12   3   11.48    0.79 
   0 -12   3   11.02    0.72 
   0 -12  -3   11.40    0.78 
   0 -12   3   11.09    0.77 
   0 -12  -3   10.97    0.80 
   0  12   3    8.45    0.74 
   0  12   3    9.02    0.83 
   0  12   3    9.40    0.97 
  -1 -12  -3   17.89    1.17 
   1 -12   3   18.17    1.17 
   1 -12   3   17.92    1.14 
   1 -12   3   17.19    1.12 
  -1 -12  -3   17.62    1.15 
   1  12   3   18.51    1.24 
   1  12   3   19.07    1.34 
  -1  12  -3   19.25    1.27 
   1  12   3   18.26    1.15 
  -2 -12  -3   14.61    0.92 
   2 -12   3   13.31    0.89 
  -2 -12  -3   13.31    0.89 
   2 -12   3   14.25    0.97 
   2 -12   3   14.66    0.90 
  -2  12  -3   11.82    1.05 
   2  12   3   11.97    0.93 
   2  12   3   11.22    0.96 
   2  12   3   11.82    1.08 
  -3 -12  -3    0.14    0.21 
  -3 -12  -3    0.29    0.26 
   3 -12   3    0.38    0.25 
   3 -12   3    0.13    0.24 
  -3  12  -3    0.42    0.45 
   3  12   3    0.22    0.28 
   2 -13  -3   15.28    1.03 
  -2 -13   3   14.92    0.93 
   2 -13  -3   14.75    1.11 
  -2 -13   3   14.80    0.99 
  -2  13   3   15.27    1.43 
  -1 -13   3   -0.02    0.18 
  -1 -13   3    0.19    0.25 
   1 -13  -3    0.04    0.24 
  -1 -13   3    0.23    0.33 
   1 -13  -3    0.16    0.28 
  -1  13   3    0.15    0.52 
   0 -13  -3   17.01    1.10 
   0 -13  -3   17.03    1.13 
   0 -13   3   16.28    1.06 
   0 -13   3   16.48    1.04 
   0  13   3   15.21    1.17 
   0  13   3   16.49    1.36 
  -1 -13  -3    9.06    0.74 
   1 -13   3    9.00    0.67 
  -1 -13  -3    9.77    0.75 
   1 -13   3    9.21    0.72 
   1  13   3    8.68    1.38 
   1  13   3    7.82    0.81 
   2 -13   3    1.52    0.34 
  -2 -13  -3    1.16    0.33 
   2  13   3    2.23    0.49 
  -9   0   4    1.16    0.35 
  -9   0   4    1.21    0.40 
  -8   0   4   12.61    0.93 
  -8   0   4   12.86    0.96 
  -8   0   4   13.19    0.89 
  -8   0   4   11.67    0.84 
  -8   0   4   12.95    0.92 
   7   0  -4    6.67    0.52 
  -7   0   4    6.30    0.61 
   7   0  -4    6.56    0.53 
  -7   0   4    6.58    0.51 
  -7   0   4    6.47    0.56 
  -7   0   4    6.80    0.49 
  -7   0   4    6.98    0.59 
  -6   0   4   49.53    2.79 
   6   0  -4   48.97    2.77 
  -6   0   4   48.64    2.73 
   6   0  -4   48.90    2.76 
  -6   0   4   49.95    2.74 
  -6   0   4   48.72    2.83 
  -6   0   4   49.16    2.79 
   6   0  -4   48.73    2.74 
   5   0  -4  137.11    7.43 
   5   0  -4  135.99    7.40 
  -5   0   4  135.18    7.39 
  -5   0   4  134.14    7.43 
   5   0  -4  137.51    7.42 
  -5   0   4  135.63    7.44 
  -5   0   4  134.08    7.40 
  -5   0   4  131.49    7.46 
  -4   0   4    1.76    0.23 
  -4   0   4    1.82    0.16 
  -4   0   4    1.79    0.23 
  -4   0   4    1.79    0.26 
   4   0  -4    1.94    0.20 
  -4   0   4    1.83    0.19 
  -4   0   4    1.72    0.16 
  -4   0   4    1.76    0.18 
   4   0  -4    1.87    0.19 
   4   0  -4    1.76    0.20 
  -3   0   4   91.47    5.04 
  -3   0   4   93.36    5.07 
   3   0  -4   93.39    5.05 
  -3   0   4   92.66    5.05 
  -3   0   4   92.13    5.03 
   3   0  -4   91.04    5.04 
   3   0  -4   94.66    5.04 
  -3   0   4   87.91    5.06 
  -2   0   4  165.29    9.04 
   2   0  -4  174.08    8.99 
   2   0  -4  171.69    9.02 
  -2   0   4  169.90    9.09 
  -2   0   4  164.73    9.09 
   2   0  -4  169.82    9.02 
  -2   0   4  169.59    9.01 
   2   0  -4  141.69    9.00 
  -2   0   4  164.15    9.01 
  -2   0   4  156.33    9.06 
   2   0  -4  167.20    8.99 
  -1   0   4   44.79    2.47 
  -1   0   4   44.14    2.49 
  -1   0   4   45.14    2.49 
   1   0  -4   45.01    2.55 
   1   0  -4   44.70    2.47 
  -1   0   4   46.27    2.54 
   1   0  -4   44.72    2.47 
   1   0  -4   44.86    2.50 
   1   0  -4   45.11    2.47 
  -1   0   4   44.94    2.48 
   0   0  -4  193.47   10.31 
   0   0   4  187.69   10.18 
   0   0  -4  180.36   10.26 
   0   0   4  181.18   10.26 
   0   0   4  184.37   10.22 
   0   0  -4  195.02   10.19 
   0   0   4  178.51   10.20 
   0   0  -4  189.60   10.24 
   1   0   4   46.95    2.65 
  -1   0  -4   48.89    2.64 
  -1   0  -4   48.77    2.65 
   1   0   4   46.19    2.67 
  -1   0  -4   48.58    2.67 
  -1   0  -4   48.55    2.65 
   1   0   4   48.36    2.64 
   1   0   4   47.22    2.65 
   2   0   4   11.64    0.68 
   2   0   4   11.36    0.69 
   2   0   4   11.54    0.72 
  -2   0  -4   11.64    0.68 
   2   0   4   11.60    0.68 
  -2   0  -4   11.19    0.68 
  -2   0  -4   11.14    0.69 
  -2   0  -4   11.54    0.71 
  -3   0  -4   57.26    3.16 
   3   0   4   56.47    3.16 
  -3   0  -4   58.17    3.17 
   3   0   4   57.79    3.17 
  -3   0  -4   57.16    3.20 
   3   0   4   54.15    3.16 
   3   0   4   59.28    3.19 
  -3   0  -4   54.37    3.17 
   3   0   4   58.92    3.22 
   4   0   4    6.03    0.44 
   4   0   4    6.16    0.42 
  -4   0  -4    6.60    0.48 
  -4   0  -4    5.62    0.45 
  -4   0  -4    5.99    0.43 
   4   0   4    6.03    0.49 
   4   0   4    5.88    0.43 
  -4   0  -4    6.05    0.44 
   4   0   4    6.00    0.45 
   5   0   4    6.00    0.45 
  -5   0  -4    5.68    0.43 
   5   0   4    5.99    0.46 
  -5   0  -4    5.81    0.50 
   5   0   4    5.79    0.43 
   5   0   4    5.42    0.48 
  -5   0  -4    5.56    0.46 
  -5   0  -4    6.21    0.48 
   5   0   4    5.95    0.52 
   6   0   4   52.48    3.06 
   6   0   4   53.65    3.02 
   6   0   4   54.33    3.00 
   6   0   4   53.10    3.10 
  -6   0  -4   53.88    3.07 
  -6   0  -4   51.34    3.03 
  -6   0  -4   54.49    3.05 
   6   0   4   54.25    3.03 
   7   0   4    1.10    0.30 
   7   0   4    1.10    0.29 
  -7   0  -4    0.82    0.26 
  -7   0  -4    1.10    0.35 
  -7   0  -4    0.95    0.25 
   7   0   4    1.17    0.24 
   8   0   4   18.16    1.25 
   8   0   4   18.30    1.15 
  -8   0  -4   17.60    1.22 
  -8   0  -4   17.07    1.18 
  -9  -1   4   18.25    1.18 
  -9  -1   4   17.53    1.23 
  -9   1   4   16.35    1.23 
  -9   1   4   16.58    1.22 
  -8  -1   4    1.80    0.28 
  -8  -1   4    1.94    0.36 
  -8  -1   4    1.85    0.35 
  -8  -1   4    1.74    0.31 
  -8  -1   4    1.82    0.31 
  -8   1   4    1.87    0.35 
  -8   1   4    1.85    0.36 
   8   1  -4    1.96    0.32 
  -8   1   4    1.91    0.37 
  -8   1   4    1.77    0.43 
   7  -1  -4   44.32    2.46 
  -7  -1   4   44.47    2.41 
  -7  -1   4   45.11    2.52 
   7  -1  -4   44.28    2.43 
  -7  -1   4   45.14    2.46 
  -7  -1   4   44.78    2.40 
  -7  -1   4   45.14    2.45 
  -7   1   4   40.07    2.40 
  -7   1   4   39.45    2.47 
  -7   1   4   39.45    2.41 
  -7   1   4   41.01    2.50 
   7   1  -4   40.34    2.39 
  -7   1   4   40.25    2.46 
  -6  -1   4   45.06    2.54 
  -6  -1   4   46.08    2.44 
   6  -1  -4   44.42    2.47 
   6  -1  -4   45.32    2.40 
   6  -1  -4   46.19    2.40 
  -6  -1   4   43.54    2.44 
   6  -1  -4   45.80    2.49 
  -6  -1   4   45.27    2.49 
  -6  -1   4   44.50    2.48 
   6   1  -4   42.50    2.46 
  -6   1   4   42.35    2.44 
  -6   1   4   41.37    2.51 
   6   1  -4   41.95    2.43 
  -6   1   4   41.18    2.45 
   6   1  -4   41.49    2.46 
  -6   1   4   40.97    2.52 
  -5  -1   4    3.86    0.29 
  -5  -1   4    3.62    0.28 
   5  -1  -4    3.73    0.33 
   5  -1  -4    3.63    0.32 
  -5  -1   4    4.33    0.36 
  -5  -1   4    4.06    0.28 
  -5  -1   4    3.89    0.33 
   5  -1  -4    3.80    0.26 
   5  -1  -4    3.90    0.25 
  -5  -1   4    3.91    0.40 
  -4  -1   4  200.72   10.90 
  -4  -1   4  195.34   10.92 
   4  -1  -4  194.51   10.89 
   4  -1  -4  197.97   10.89 
  -4  -1   4  197.19   10.89 
  -4  -1   4  201.06   10.90 
  -4  -1   4  199.84   10.95 
   4  -1  -4  201.27   10.91 
  -4  -1   4  198.15   10.91 
  -4  -1   4  209.11   10.92 
   4  -1  -4  187.11   10.95 
  -4   1   4  201.27   10.91 
  -4   1   4  195.34   10.93 
   4   1  -4  206.87   10.94 
  -4   1   4  203.13   10.89 
  -4   1   4  202.99   10.90 
  -4   1   4  198.33   10.94 
   4   1  -4  202.63   10.89 
   4   1  -4  201.79   10.91 
  -3  -1   4   20.02    1.05 
  -3  -1   4   20.25    1.07 
  -3  -1   4   19.45    1.09 
   3  -1  -4   20.28    1.05 
   3  -1  -4   20.78    1.09 
   3  -1  -4   20.72    1.06 
  -3  -1   4   20.17    1.18 
  -3  -1   4   20.39    1.05 
  -3  -1   4   21.06    1.08 
  -3  -1   4   20.22    1.08 
   3  -1  -4   20.09    1.07 
   3   1  -4   16.25    1.05 
  -3   1   4   15.46    1.07 
  -3   1   4   15.53    1.06 
  -3   1   4   15.75    1.08 
   3   1  -4   15.83    1.05 
   2  -1  -4   30.67    1.74 
  -2  -1   4   31.60    1.73 
  -2  -1   4   30.58    1.72 
  -2  -1   4   32.95    1.82 
   2  -1  -4   31.35    1.73 
  -2  -1   4   31.66    1.72 
  -2  -1   4   31.13    1.74 
  -2  -1   4   30.08    1.75 
   2  -1  -4   31.49    1.72 
   2  -1  -4   31.17    1.74 
   1  -1  -4  237.22   13.87 
   1  -1  -4  244.41   13.83 
   1  -1  -4  256.58   13.83 
  -1  -1   4  243.83   13.88 
   1  -1  -4  246.70   13.85 
   1  -1  -4  257.39   14.18 
  -1  -1   4  253.53   13.82 
  -1  -1   4  254.22   13.84 
  -1   1   4  236.57   13.85 
  -1   1   4  252.55   14.01 
  -1   1   4  260.36   13.90 
  -1   1   4  263.55   13.92 
   1   1  -4  262.40   14.19 
  -1   1   4  261.86   13.96 
   1   1  -4  261.63   13.84 
   0  -1   4  116.53    6.09 
   0  -1   4  115.64    6.08 
   0  -1  -4  112.58    6.07 
   0  -1  -4  117.36    6.10 
   0  -1   4  124.52    6.15 
   0  -1  -4  114.67    6.13 
   0  -1   4  118.43    6.10 
   0  -1   4  117.41    6.11 
   0  -1  -4  118.18    6.08 
   0   1   4  105.48    6.07 
   0   1   4  101.28    6.09 
   0   1  -4  100.54    6.13 
   0   1   4  100.01    6.08 
   0   1  -4  107.27    6.10 
   0   1   4  106.26    6.07 
   0   1  -4  106.12    6.07 
   0   1  -4  105.84    6.07 
  -1  -1  -4  109.78    5.54 
   1  -1   4  104.81    5.54 
   1  -1   4  104.27    5.51 
  -1  -1  -4  106.26    5.52 
   1  -1   4  106.03    5.51 
   1  -1   4  105.53    5.52 
  -1  -1  -4  108.28    5.51 
  -1  -1  -4  104.81    5.52 
   1   1   4   91.53    5.51 
  -1   1  -4   92.76    5.51 
   1   1   4   98.96    5.52 
  -1   1  -4   93.95    5.52 
  -1   1  -4   97.49    5.51 
   1   1   4   94.70    5.51 
   1   1   4   96.12    5.54 
  -1   1  -4   95.44    5.50 
   2  -1   4   76.56    5.02 
   2  -1   4   79.53    5.05 
  -2  -1  -4   78.89    5.01 
  -2  -1  -4   75.75    5.02 
  -2   1  -4  102.04    5.03 
  -2   1  -4  101.93    5.02 
   2   1   4  102.85    5.03 
   2   1   4  101.50    5.07 
   2   1   4  104.32    5.02 
  -3  -1  -4    2.38    0.25 
   3  -1   4    2.61    0.24 
  -3  -1  -4    2.60    0.24 
  -3  -1  -4    2.60    0.26 
   3  -1   4    2.49    0.25 
   3  -1   4    2.82    0.26 
  -3  -1  -4    2.54    0.28 
   3  -1   4    2.57    0.25 
   3  -1   4    2.55    0.29 
   3   1   4    3.66    0.31 
   3   1   4    3.69    0.29 
   3   1   4    3.82    0.27 
   4  -1   4  101.51    5.86 
  -4  -1  -4  103.04    5.88 
   4  -1   4  101.98    5.87 
   4  -1   4  104.86    5.93 
  -4  -1  -4   99.37    5.89 
   4  -1   4   99.44    5.86 
  -4  -1  -4  101.93    5.88 
   4  -1   4  100.61    5.89 
  -4  -1  -4  101.88    5.86 
   4   1   4  111.38    5.90 
  -4   1  -4  109.18    5.91 
   4   1   4  108.10    5.86 
  -4   1  -4  110.21    5.87 
   4   1   4  111.78    5.93 
  -4   1  -4  113.01    5.89 
  -4   1  -4  114.25    5.88 
   4   1   4  112.83    5.86 
   4   1   4  112.98    5.87 
   5  -1   4   25.16    1.37 
  -5  -1  -4   24.87    1.33 
   5  -1   4   25.58    1.33 
  -5  -1  -4   25.26    1.36 
   5  -1   4   24.35    1.34 
  -5  -1  -4   24.74    1.36 
   5  -1   4   24.90    1.35 
   5  -1   4   24.83    1.42 
  -5  -1  -4   25.44    1.39 
  -5   1  -4   20.46    1.35 
   5   1   4   19.58    1.35 
  -5   1  -4   19.70    1.36 
   5   1   4   20.17    1.32 
   5   1   4   19.79    1.37 
   5   1   4   19.29    1.32 
   5   1   4   20.70    1.31 
  -5   1  -4   19.48    1.33 
  -6  -1  -4    6.09    0.52 
   6  -1   4    5.98    0.52 
  -6  -1  -4    5.36    0.47 
   6  -1   4    6.32    0.55 
   6  -1   4    6.00    0.59 
   6  -1   4    6.08    0.49 
  -6  -1  -4    5.97    0.55 
  -6  -1  -4    6.04    0.56 
   6  -1   4    6.39    0.55 
   6   1   4    6.97    0.58 
   6   1   4    6.60    0.52 
   6   1   4    6.14    0.54 
  -6   1  -4    7.19    0.58 
   6   1   4    6.56    0.54 
   6   1   4    6.73    0.49 
  -6   1  -4    6.55    0.52 
  -6   1  -4    6.11    0.57 
  -7  -1  -4   19.99    1.27 
   7  -1   4   20.30    1.23 
   7  -1   4   19.21    1.28 
  -7  -1  -4   18.95    1.33 
   7  -1   4   19.08    1.27 
  -7  -1  -4   19.80    1.30 
   7   1   4   21.19    1.23 
  -7   1  -4   21.46    1.33 
  -7   1  -4   20.46    1.27 
  -7   1  -4   19.93    1.32 
   7   1   4   20.44    1.27 
   8  -1   4    8.16    0.81 
  -8  -1  -4    8.18    0.71 
   8  -1   4    7.65    0.66 
  -8  -1  -4    7.46    0.68 
   8   1   4    6.97    0.78 
  -8   1  -4    7.55    0.73 
   8   1   4    7.75    0.66 
  -8   1  -4    7.60    0.68 
   8   1   4    6.44    0.71 
  -8  -2   4   28.74    1.70 
  -8  -2   4   28.24    1.76 
  -8  -2   4   27.64    1.63 
   8  -2  -4   23.83    1.56 
  -8  -2   4   29.03    1.64 
  -8  -2   4   27.23    1.65 
  -8   2   4   28.86    1.76 
  -8   2   4   29.23    1.75 
  -8   2   4   28.38    1.73 
   8   2  -4   28.05    1.66 
   7  -2  -4    2.18    0.26 
   7  -2  -4    2.20    0.27 
   7  -2  -4    2.49    0.33 
  -7  -2   4    2.00    0.29 
   7  -2  -4    2.20    0.35 
  -7  -2   4    2.37    0.40 
  -7  -2   4    2.33    0.37 
  -7  -2   4    2.20    0.33 
  -7  -2   4    2.03    0.33 
  -7   2   4    3.16    0.43 
  -7   2   4    3.16    0.37 
  -7   2   4    3.49    0.44 
  -6  -2   4   16.75    1.11 
  -6  -2   4   16.99    1.20 
  -6  -2   4   16.75    1.15 
  -6  -2   4   16.42    1.13 
   6  -2  -4   16.53    1.09 
   6  -2  -4   16.58    1.09 
   6  -2  -4   15.97    1.16 
  -6  -2   4   16.45    1.10 
  -6   2   4   21.71    1.23 
   6   2  -4   22.16    1.11 
   6   2  -4   21.83    1.14 
  -6   2   4   21.59    1.16 
  -6   2   4   22.26    1.24 
   6   2  -4   21.91    1.14 
  -6   2   4   21.80    1.14 
  -6   2   4   22.38    1.21 
  -5  -2   4  135.49    7.16 
  -5  -2   4  139.55    7.10 
   5  -2  -4  135.09    7.14 
  -5  -2   4  139.58    7.10 
  -5  -2   4  136.22    7.07 
  -5  -2   4  138.51    7.12 
  -5  -2   4  138.89    7.07 
   5  -2  -4  134.37    7.12 
   5  -2  -4  137.42    7.07 
   5  -2  -4  134.75    7.08 
  -5   2   4  118.62    7.15 
  -5   2   4  118.96    7.15 
   5   2  -4  119.70    7.09 
   5   2  -4  122.25    7.08 
  -5   2   4  119.12    7.10 
  -5   2   4  119.43    7.09 
  -5   2   4  118.68    7.13 
   5   2  -4  122.09    7.06 
   4  -2  -4    9.76    0.64 
  -4  -2   4    9.60    0.56 
  -4  -2   4    9.12    0.58 
   4  -2  -4    9.35    0.61 
  -4  -2   4    9.80    0.61 
   4  -2  -4    9.63    0.58 
  -4  -2   4    9.85    0.57 
  -4  -2   4    9.59    0.59 
  -4  -2   4    9.58    0.65 
  -4  -2   4   10.06    0.57 
  -4  -2   4    9.44    0.62 
   4  -2  -4    9.37    0.59 
  -4   2   4   10.32    0.62 
  -4   2   4   10.07    0.60 
  -4   2   4    9.67    0.64 
   4   2  -4   10.11    0.60 
   4   2  -4   10.64    0.56 
  -4   2   4   10.37    0.66 
  -4   2   4   10.12    0.61 
   4   2  -4   10.44    0.57 
  -3  -2   4   36.72    2.02 
  -3  -2   4   36.09    2.13 
   3  -2  -4   36.58    2.04 
   3  -2  -4   36.62    2.03 
  -3  -2   4   36.91    2.05 
  -3  -2   4   37.26    2.05 
  -3  -2   4   37.24    2.02 
  -3  -2   4   36.36    2.01 
  -3  -2   4   36.66    2.01 
   3  -2  -4   36.54    2.05 
   3  -2  -4   37.14    2.05 
  -3  -2   4   36.17    2.08 
  -3   2   4   37.43    2.04 
  -3   2   4   36.59    2.07 
   3   2  -4   37.11    2.01 
   3   2  -4   37.53    2.01 
  -3   2   4   36.04    2.09 
  -3   2   4   37.18    2.05 
  -3   2   4   35.34    2.07 
  -2  -2   4  205.44   11.07 
   2  -2  -4  206.57   11.09 
  -2  -2   4  178.32   11.09 
  -2  -2   4  210.33   11.14 
   2  -2  -4  207.82   11.12 
  -2  -2   4  215.89   11.23 
   2  -2  -4  205.66   11.13 
   2  -2  -4  208.49   11.11 
   2  -2  -4  205.22   11.11 
   2   2  -4  198.15   11.04 
   2   2  -4  211.74   11.05 
  -2   2   4  200.41   11.16 
  -2   2   4  194.45   11.06 
  -2   2   4  194.32   11.04 
  -2   2   4  206.69   11.19 
  -2   2   4  197.58   11.12 
  -2   2   4  197.07   11.07 
  -1  -2   4   27.27    1.49 
   1  -2  -4   26.60    1.51 
   1  -2  -4   26.85    1.51 
   1  -2  -4   26.25    1.51 
   1  -2  -4   24.79    1.56 
   1  -2  -4   26.57    1.54 
   1  -2  -4   26.86    1.50 
  -1  -2   4   27.11    1.50 
  -1  -2   4   26.81    1.48 
  -1  -2   4   27.01    1.57 
   1   2  -4   28.36    1.49 
  -1   2   4   26.10    1.53 
  -1   2   4   28.22    1.52 
  -1   2   4   28.19    1.56 
   1   2  -4   26.82    1.59 
  -1   2   4   27.81    1.52 
  -1   2   4   26.51    1.51 
   0  -2  -4  307.03   17.98 
   0  -2   4  310.43   17.70 
   0  -2   4  310.54   17.67 
   0  -2  -4  303.91   17.67 
   0  -2  -4  311.70   17.85 
   0  -2   4  310.74   17.72 
   0  -2  -4  317.14   17.77 
   0  -2   4  316.13   17.81 
   0   2   4  339.43   17.83 
   0   2  -4  347.72   17.65 
   0   2   4  355.89   17.80 
   0   2   4  334.95   17.80 
   0   2   4  334.11   17.71 
   0   2  -4  332.56   18.07 
   0   2  -4  347.81   17.70 
   0   2  -4  287.04   17.85 
   0   2   4  330.70   17.72 
   1  -2   4   39.37    1.95 
  -1  -2  -4   40.69    1.95 
   1  -2   4   39.38    1.98 
  -1  -2  -4   38.44    1.98 
   1  -2   4   40.40    1.94 
  -1  -2  -4   40.96    1.96 
   1  -2   4   40.13    1.95 
  -1   2  -4   30.06    1.95 
   1   2   4   31.34    1.94 
  -1   2  -4   31.07    1.93 
  -1   2  -4   31.35    1.94 
  -1   2  -4   31.95    1.94 
   1   2   4   30.85    1.95 
  -1   2  -4   32.28    2.00 
   1   2   4   31.88    1.96 
   1   2   4   29.58    1.96 
  -2  -2  -4    6.10    0.41 
   2  -2   4    6.34    0.40 
   2  -2   4    6.16    0.41 
  -2  -2  -4    6.21    0.44 
  -2  -2  -4    6.20    0.42 
   3  -2   4  119.26    6.81 
  -3  -2  -4  117.87    6.84 
   3  -2   4  120.86    6.82 
  -3  -2  -4  113.63    6.82 
   3  -2   4  113.40    6.80 
   3  -2   4  124.18    6.82 
   3  -2   4  123.54    6.86 
  -3  -2  -4  115.40    6.81 
  -3   2  -4  127.61    6.82 
   3   2   4  130.83    6.81 
   3   2   4  133.51    6.82 
  -3   2  -4  131.96    6.81 
  -3   2  -4  131.23    6.81 
  -3   2  -4  130.07    6.85 
   3   2   4  129.48    6.86 
   4  -2   4   18.09    1.21 
   4  -2   4   18.20    1.20 
   4  -2   4   18.34    1.26 
  -4  -2  -4   18.19    1.19 
  -4  -2  -4   17.38    1.21 
  -4  -2  -4   18.72    1.24 
   4  -2   4   18.23    1.22 
  -4  -2  -4   18.57    1.21 
   4  -2   4   18.09    1.20 
  -4   2  -4   23.62    1.27 
  -4   2  -4   22.63    1.24 
  -4   2  -4   22.84    1.22 
   4   2   4   23.87    1.27 
   4   2   4   23.15    1.27 
   4   2   4   22.68    1.20 
  -4   2  -4   22.70    1.21 
   4   2   4   23.08    1.22 
   4   2   4   23.14    1.20 
   5  -2   4   15.28    0.99 
   5  -2   4   15.49    1.08 
   5  -2   4   15.21    1.01 
  -5  -2  -4   15.93    1.03 
   5  -2   4   15.66    1.03 
  -5  -2  -4   14.32    1.09 
  -5  -2  -4   14.20    1.14 
  -5  -2  -4   16.05    0.99 
   5  -2   4   15.98    1.01 
   5   2   4   18.50    1.02 
  -5   2  -4   17.16    1.04 
  -5   2  -4   18.53    1.02 
   5   2   4   18.59    0.99 
   5   2   4   18.54    1.08 
   5   2   4   14.61    1.11 
  -5   2  -4   18.50    1.07 
  -6  -2  -4   14.34    1.01 
   6  -2   4   13.40    1.00 
   6  -2   4   14.55    1.03 
   6  -2   4   14.77    0.99 
  -6  -2  -4   13.47    1.02 
  -6  -2  -4   14.08    0.97 
  -6  -2  -4   14.36    1.03 
  -6   2  -4   18.54    1.08 
   6   2   4   18.60    1.02 
  -6   2  -4   18.00    1.02 
   6   2   4   18.98    0.99 
  -6   2  -4   18.07    1.06 
   7  -2   4    0.11    0.26 
   7  -2   4    0.10    0.20 
  -7  -2  -4    0.09    0.20 
  -7  -2  -4    0.18    0.31 
  -7  -2  -4    0.15    0.22 
  -7   2  -4    0.18    0.24 
  -7   2  -4    0.14    0.30 
   7   2   4    0.33    0.24 
   7   2   4    0.25    0.20 
  -7   2  -4    0.21    0.21 
   7   2   4    0.25    0.26 
  -8  -2  -4    9.15    0.74 
   8  -2   4    8.20    0.87 
  -8  -2  -4    8.39    0.74 
   8  -2   4    8.77    0.72 
  -8   2  -4    8.52    0.80 
   8   2   4    7.62    0.79 
   8   2   4    8.97    0.79 
  -8   2  -4    8.55    0.75 
   8   2   4    8.35    0.69 
   8  -3  -4    0.17    0.20 
  -8  -3   4    0.15    0.28 
  -8  -3   4    0.34    0.23 
  -8  -3   4    0.03    0.24 
  -8  -3   4    0.35    0.29 
  -8  -3   4    0.29    0.21 
  -8   3   4    0.10    0.28 
  -8   3   4    0.10    0.28 
   8   3  -4    0.31    0.26 
   8   3  -4    0.11    0.25 
  -8   3   4    0.32    0.27 
  -7  -3   4   21.39    1.27 
  -7  -3   4   20.34    1.19 
   7  -3  -4   21.54    1.12 
   7  -3  -4   21.57    1.23 
  -7  -3   4   21.04    1.12 
   7  -3  -4   20.72    1.12 
  -7  -3   4   21.07    1.12 
  -7  -3   4   21.23    1.14 
   7   3  -4   16.48    1.13 
   7   3  -4   15.90    1.08 
  -7   3   4   16.90    1.24 
  -7   3   4   16.18    1.13 
  -7   3   4   16.39    1.23 
  -7   3   4   16.62    1.21 
  -7   3   4   15.80    1.16 
  -6  -3   4   63.07    3.38 
   6  -3  -4   61.38    3.43 
  -6  -3   4   60.84    3.41 
  -6  -3   4   61.24    3.47 
  -6  -3   4   63.74    3.37 
   6  -3  -4   60.95    3.38 
   6  -3  -4   62.03    3.38 
  -6  -3   4   61.84    3.37 
  -6   3   4   59.41    3.48 
  -6   3   4   59.12    3.47 
  -6   3   4   59.32    3.45 
  -6   3   4   60.42    3.40 
   6   3  -4   60.70    3.39 
   6   3  -4   59.67    3.35 
   6   3  -4   62.26    3.38 
  -6   3   4   59.69    3.41 
  -5  -3   4    5.65    0.46 
   5  -3  -4    5.97    0.43 
  -5  -3   4    5.80    0.52 
   5  -3  -4    5.78    0.51 
  -5  -3   4    6.15    0.47 
   5  -3  -4    5.76    0.47 
  -5  -3   4    5.84    0.40 
  -5  -3   4    5.91    0.41 
  -5  -3   4    6.01    0.40 
   5  -3  -4    5.91    0.45 
   5  -3  -4    5.97    0.50 
  -5   3   4    7.23    0.55 
   5   3  -4    7.35    0.39 
  -5   3   4    7.64    0.53 
   5   3  -4    7.19    0.47 
  -5   3   4    7.82    0.46 
   5   3  -4    7.68    0.42 
  -5   3   4    7.55    0.48 
  -5   3   4    7.44    0.54 
   4  -3  -4   73.46    4.26 
   4  -3  -4   73.12    4.25 
  -4  -3   4   78.57    4.20 
  -4  -3   4   76.89    4.26 
  -4  -3   4   73.89    4.20 
   4  -3  -4   74.69    4.23 
  -4  -3   4   74.91    4.20 
  -4  -3   4   74.22    4.28 
   4  -3  -4   74.05    4.28 
   4  -3  -4   74.80    4.23 
  -4  -3   4   74.24    4.20 
  -4  -3   4   75.56    4.20 
  -4  -3   4   73.17    4.24 
  -4   3   4   81.93    4.31 
  -4   3   4   83.34    4.24 
  -4   3   4   83.45    4.28 
  -4   3   4   81.28    4.26 
  -4   3   4   83.44    4.26 
   3  -3  -4   56.69    2.95 
   3  -3  -4   55.83    2.93 
  -3  -3   4   55.73    2.94 
  -3  -3   4   56.31    3.04 
  -3  -3   4   57.02    2.96 
   3  -3  -4   55.56    2.95 
   3  -3  -4   55.13    2.94 
  -3  -3   4   55.32    2.97 
   3  -3  -4   54.91    2.96 
  -3   3   4   47.45    2.96 
  -3   3   4   49.07    2.95 
  -3   3   4   47.57    2.97 
  -3   3   4   49.41    2.93 
  -3   3   4   47.74    2.98 
   2  -3  -4   42.69    2.46 
   2  -3  -4   42.78    2.46 
   2  -3  -4   41.81    2.45 
  -2  -3   4   41.79    2.46 
   2  -3  -4   42.38    2.47 
  -2  -3   4   41.98    2.53 
   2  -3  -4   43.81    2.46 
  -2   3   4   45.83    2.47 
  -2   3   4   47.08    2.51 
  -2   3   4   46.67    2.48 
  -2   3   4   46.30    2.49 
  -2   3   4   46.09    2.46 
  -2   3   4   48.39    2.52 
  -1  -3   4  314.85   16.46 
   1  -3  -4  286.66   16.09 
   1  -3  -4  289.25   16.12 
  -1  -3   4  305.72   16.13 
   1  -3  -4  295.75   16.35 
   1  -3  -4  290.64   16.17 
  -1  -3   4  298.17   16.07 
  -1  -3   4  301.75   16.10 
   1  -3  -4  300.18   16.17 
   1  -3  -4  299.90   16.18 
  -1   3   4  290.16   16.15 
   1   3  -4  293.83   16.35 
   1   3  -4  299.30   16.09 
  -1   3   4  277.15   16.07 
  -1   3   4  291.93   16.15 
  -1   3   4  286.44   16.22 
  -1   3   4  290.34   16.29 
   1   3  -4  292.89   16.13 
   0  -3  -4   42.58    2.33 
   0  -3   4   45.06    2.31 
   0  -3  -4   44.90    2.30 
   0  -3   4   45.40    2.28 
   0  -3   4   45.21    2.28 
   0  -3   4   45.59    2.28 
   0  -3  -4   44.61    2.34 
   0  -3  -4   44.26    2.29 
   0   3   4   36.93    2.30 
   0   3  -4   38.54    2.36 
   0   3  -4   38.71    2.29 
   0   3  -4   38.71    2.28 
   0   3   4   37.56    2.29 
   0   3   4   38.32    2.32 
   0   3   4   36.57    2.30 
   0   3   4   37.82    2.29 
   1  -3   4   34.84    1.87 
   1  -3   4   33.64    1.91 
  -1  -3  -4   35.89    1.90 
  -1  -3  -4   33.26    1.89 
   1  -3   4   34.47    1.87 
  -1  -3  -4   37.08    1.88 
   1  -3   4   35.76    1.88 
  -1  -3  -4   34.36    1.92 
   1   3   4   33.29    1.91 
   1   3   4   33.50    1.87 
  -1   3  -4   32.59    1.95 
   1   3   4   32.68    1.88 
   1   3   4   31.60    1.89 
   1   3   4   33.14    1.90 
  -1   3  -4   32.77    1.86 
  -1   3  -4   31.79    1.89 
  -1   3  -4   33.08    1.88 
   2  -3   4   88.76    5.48 
   2  -3   4   91.75    5.44 
   2  -3   4   89.04    5.44 
  -2  -3  -4   90.02    5.45 
  -2  -3  -4   91.11    5.48 
  -2  -3  -4   87.10    5.45 
   2  -3   4   89.44    5.44 
  -2  -3  -4   92.03    5.44 
   2   3   4  106.79    5.48 
   2   3   4  108.25    5.49 
  -2   3  -4  110.81    5.46 
  -2   3  -4  110.52    5.44 
   2   3   4  107.12    5.45 
   2   3   4  106.31    5.46 
  -2   3  -4  110.78    5.48 
  -2   3  -4  108.40    5.44 
   3  -3   4   26.95    1.56 
  -3  -3  -4   26.72    1.57 
  -3  -3  -4   26.84    1.57 
   3  -3   4   27.59    1.62 
  -3  -3  -4   27.90    1.56 
   3  -3   4   27.88    1.58 
  -3  -3  -4   27.00    1.60 
   3  -3   4   27.16    1.57 
   3  -3   4   28.48    1.57 
   3   3   4   27.06    1.55 
   3   3   4   27.27    1.60 
  -3   3  -4   27.53    1.55 
  -3   3  -4   27.62    1.60 
   3   3   4   28.23    1.57 
  -3   3  -4   27.24    1.56 
   3   3   4   28.22    1.61 
  -3   3  -4   27.30    1.58 
  -4  -3  -4   74.44    4.21 
   4  -3   4   72.65    4.21 
   4  -3   4   70.31    4.25 
   4  -3   4   74.44    4.22 
   4  -3   4   75.32    4.20 
  -4  -3  -4   71.39    4.23 
  -4  -3  -4   76.12    4.20 
   4  -3   4   74.21    4.27 
  -4  -3  -4   74.17    4.21 
   4   3   4   79.56    4.18 
  -4   3  -4   79.32    4.20 
   4   3   4   78.20    4.25 
   4   3   4   77.50    4.19 
  -4   3  -4   77.33    4.23 
   4   3   4   76.49    4.20 
   4   3   4   78.98    4.26 
  -4   3  -4   78.78    4.20 
  -4   3  -4   76.06    4.25 
  -5  -3  -4   17.58    1.01 
  -5  -3  -4   17.11    1.04 
   5  -3   4   17.33    1.04 
   5  -3   4   17.57    1.02 
  -5  -3  -4   17.33    1.06 
   5  -3   4   17.63    1.04 
  -5  -3  -4   17.41    1.04 
   5  -3   4   17.93    1.05 
  -5   3  -4   15.55    1.04 
   5   3   4   15.77    0.99 
  -5   3  -4   16.07    1.08 
  -5   3  -4   15.90    1.00 
   5   3   4   16.16    1.02 
  -5   3  -4   15.61    1.01 
   5   3   4   15.20    0.99 
   6  -3   4    7.16    0.59 
  -6  -3  -4    7.02    0.58 
  -6  -3  -4    6.86    0.61 
  -6  -3  -4    7.03    0.59 
   6  -3   4    7.11    0.55 
   6  -3   4    7.04    0.59 
  -6  -3  -4    7.26    0.53 
   6  -3   4    7.30    0.58 
   6  -3   4    6.89    0.65 
  -6   3  -4    6.95    0.62 
   6   3   4    7.31    0.59 
   6   3   4    7.29    0.52 
  -6   3  -4    7.60    0.67 
   6   3   4    7.09    0.53 
  -6   3  -4    6.58    0.63 
  -6   3  -4    6.55    0.55 
  -7  -3  -4    7.24    0.75 
   7  -3   4    7.56    0.66 
  -7  -3  -4    7.88    0.69 
   7  -3   4    7.28    0.71 
   7  -3   4    7.30    0.77 
  -7  -3  -4    7.76    0.69 
   7   3   4   10.21    0.74 
  -7   3  -4   10.07    0.83 
   7   3   4    9.44    0.72 
  -7   3  -4    9.23    0.69 
  -7   3  -4    9.85    0.76 
   7   3   4    9.56    0.67 
  -8  -3  -4    4.79    0.59 
  -8   3  -4    6.86    0.67 
  -8   3  -4    6.64    0.70 
   8   3   4    6.41    0.72 
   8   3   4    6.27    0.59 
  -8  -4   4   23.97    1.47 
  -8  -4   4   24.91    1.53 
  -8  -4   4   25.26    1.62 
  -8  -4   4   24.62    1.45 
  -8  -4   4   25.58    1.45 
   8  -4  -4   25.36    1.47 
  -8   4   4   24.80    1.62 
  -8   4   4   24.74    1.58 
   8   4  -4   24.76    1.47 
  -8   4   4   24.31    1.62 
  -7  -4   4    7.64    0.53 
  -7  -4   4    7.47    0.62 
   7  -4  -4    7.74    0.58 
   7  -4  -4    7.37    0.56 
  -7  -4   4    7.58    0.70 
  -7  -4   4    7.58    0.54 
   7  -4  -4    7.80    0.72 
  -7  -4   4    6.45    0.56 
   7   4  -4    8.18    0.58 
  -7   4   4    8.44    0.72 
   7   4  -4    8.75    0.54 
  -7   4   4    8.52    0.73 
  -7   4   4    8.08    0.68 
  -7   4   4    8.62    0.66 
   7   4  -4    8.15    0.48 
  -6  -4   4    9.73    0.60 
   6  -4  -4    9.92    0.72 
   6  -4  -4   10.14    0.63 
  -6  -4   4    9.93    0.59 
  -6  -4   4   10.37    0.74 
  -6  -4   4    9.63    0.66 
   6  -4  -4   10.00    0.65 
  -6  -4   4    9.88    0.59 
  -6   4   4    8.95    0.75 
  -6   4   4    9.81    0.75 
  -6   4   4    9.09    0.68 
  -6   4   4    9.46    0.64 
   6   4  -4    9.41    0.59 
  -6   4   4    9.47    0.72 
   5  -4  -4  153.89    8.44 
  -5  -4   4  159.91    8.39 
  -5  -4   4  153.33    8.40 
  -5  -4   4  157.66    8.45 
   5  -4  -4  151.14    8.48 
  -5  -4   4  155.70    8.50 
   5  -4  -4  152.47    8.44 
  -5   4   4  149.38    8.45 
  -5   4   4  151.59    8.50 
  -5   4   4  156.01    8.47 
   4  -4  -4    1.79    0.20 
   4  -4  -4    1.92    0.27 
  -4  -4   4    1.87    0.24 
   4  -4  -4    1.81    0.22 
   4  -4  -4    1.67    0.22 
   4  -4  -4    1.79    0.22 
  -4  -4   4    1.79    0.27 
  -4  -4   4    1.88    0.22 
   4  -4  -4    1.63    0.28 
  -4  -4   4    1.87    0.32 
  -4   4   4    1.12    0.19 
  -4   4   4    1.19    0.19 
  -4   4   4    1.19    0.25 
  -4   4   4    1.28    0.23 
   3  -4  -4   64.28    3.95 
   3  -4  -4   67.66    3.94 
   3  -4  -4   65.30    3.93 
  -3  -4   4   65.56    3.93 
   3  -4  -4   65.78    3.94 
  -3  -4   4   65.63    3.96 
   3  -4  -4   65.65    3.94 
  -3  -4   4   68.32    4.02 
  -3  -4   4   65.44    3.95 
  -3   4   4   79.23    3.92 
  -3   4   4   79.10    3.99 
  -3   4   4   79.92    4.01 
  -3   4   4   78.12    3.97 
  -3   4   4   78.59    4.01 
  -3   4   4   75.81    3.94 
  -3   4   4   78.05    3.96 
   2  -4  -4   79.70    4.22 
  -2  -4   4   80.50    4.30 
   2  -4  -4   75.78    4.24 
  -2  -4   4   82.36    4.25 
  -2  -4   4   80.71    4.22 
   2  -4  -4   82.03    4.22 
   2  -4  -4   82.09    4.23 
   2  -4  -4   80.11    4.23 
  -2  -4   4   80.31    4.23 
  -2   4   4   69.58    4.25 
  -2   4   4   67.89    4.26 
  -2   4   4   73.27    4.23 
  -2   4   4   74.83    4.26 
  -2   4   4   70.97    4.22 
  -2   4   4   73.63    4.22 
  -2   4   4   73.35    4.23 
   1  -4  -4    3.87    0.29 
  -1  -4   4    3.58    0.25 
   1  -4  -4    3.67    0.27 
  -1  -4   4    3.95    0.34 
  -1  -4   4    3.79    0.23 
   1  -4  -4    3.82    0.28 
  -1  -4   4    3.81    0.24 
   1  -4  -4    3.83    0.34 
   1  -4  -4    3.98    0.30 
   1  -4  -4    3.86    0.27 
   1   4  -4    3.87    0.25 
  -1   4   4    4.00    0.31 
  -1   4   4    3.74    0.31 
  -1   4   4    3.94    0.29 
  -1   4   4    3.68    0.29 
   1   4  -4    3.53    0.36 
  -1   4   4    3.91    0.31 
   1   4  -4    4.05    0.24 
   0  -4  -4   98.63    5.19 
   0  -4  -4   94.31    5.22 
   0  -4  -4   94.28    5.19 
   0  -4   4   93.69    5.17 
   0  -4   4   97.18    5.18 
   0  -4   4   95.23    5.20 
   0  -4   4   95.67    5.17 
   0  -4  -4   92.09    5.23 
   0  -4  -4   91.47    5.20 
   0   4   4   97.57    5.23 
   0   4   4   94.80    5.20 
   0   4  -4   94.57    5.19 
   0   4   4   97.13    5.21 
   0   4  -4   97.54    5.18 
   0   4   4   93.23    5.18 
   0   4  -4   91.74    5.26 
   0   4   4   89.78    5.20 
  -1  -4  -4   58.14    2.86 
  -1  -4  -4   56.00    2.89 
   1  -4   4   57.29    2.85 
  -1  -4  -4   57.24    2.86 
   1  -4   4   57.86    2.85 
   1  -4   4   55.66    2.89 
  -1  -4  -4   57.58    2.91 
   1  -4   4   57.64    2.84 
  -1  -4  -4   57.44    2.87 
  -1   4  -4   44.29    2.91 
   1   4   4   46.95    2.86 
  -1   4  -4   46.97    2.83 
   1   4   4   45.28    2.85 
  -1   4  -4   46.16    2.85 
   1   4   4   46.06    2.83 
   1   4   4   43.42    2.85 
  -1   4  -4   47.67    2.86 
   1   4   4   45.94    2.88 
   2  -4   4    6.04    0.44 
   2  -4   4    5.74    0.39 
  -2  -4  -4    5.60    0.40 
   2  -4   4    5.89    0.38 
  -2  -4  -4    5.88    0.39 
   2  -4   4    6.05    0.37 
  -2  -4  -4    5.96    0.38 
  -2  -4  -4    6.03    0.44 
   2  -4   4    5.70    0.44 
  -2   4  -4    5.43    0.39 
   2   4   4    5.19    0.40 
   2   4   4    5.44    0.38 
  -2   4  -4    5.28    0.36 
  -2   4  -4    5.46    0.37 
  -2   4  -4    5.11    0.41 
   2   4   4    5.43    0.40 
   2   4   4    5.07    0.42 
  -3  -4  -4  142.75    8.09 
   3  -4   4  143.94    8.14 
   3  -4   4  145.99    8.08 
  -3  -4  -4  147.38    8.12 
   3  -4   4  148.45    8.10 
   3  -4   4  146.10    8.08 
   3  -4   4  144.74    8.08 
  -3  -4  -4  143.91    8.07 
  -3  -4  -4  145.42    8.09 
   3   4   4  148.69    8.07 
  -3   4  -4  149.93    8.06 
   3   4   4  151.92    8.08 
  -3   4  -4  152.54    8.10 
  -3   4  -4  150.94    8.13 
   3   4   4  152.37    8.12 
  -3   4  -4  145.46    8.08 
   3   4   4  146.36    8.12 
  -4  -4  -4   14.51    0.95 
   4  -4   4   15.47    1.03 
  -4  -4  -4   14.96    0.94 
   4  -4   4   14.58    0.94 
   4  -4   4   14.99    0.95 
   4  -4   4   15.23    0.97 
  -4  -4  -4   15.02    0.96 
   4  -4   4   14.84    0.96 
  -4  -4  -4   14.63    0.98 
  -4   4  -4   17.11    0.95 
   4   4   4   15.34    1.00 
  -4   4  -4   16.98    1.02 
  -4   4  -4   16.55    0.94 
   4   4   4   16.20    0.99 
   4   4   4   16.03    0.95 
   4   4   4   16.61    0.93 
   4   4   4   16.24    0.91 
  -4   4  -4   15.70    0.97 
   5  -4   4   17.70    1.22 
  -5  -4  -4   17.45    1.14 
  -5  -4  -4   17.43    1.10 
  -5  -4  -4   17.19    1.16 
   5  -4   4   17.66    1.13 
  -5  -4  -4   17.75    1.13 
   5  -4   4   18.13    1.14 
   5  -4   4   18.14    1.11 
  -5   4  -4   19.49    1.16 
   5   4   4   19.72    1.13 
  -5   4  -4   18.71    1.14 
  -5   4  -4   19.42    1.20 
  -5   4  -4   18.92    1.11 
   5   4   4   19.68    1.10 
   5   4   4   19.55    1.08 
   6  -4   4    7.32    0.56 
   6  -4   4    7.62    0.60 
   6  -4   4    7.40    0.61 
  -6  -4  -4    6.84    0.58 
  -6  -4  -4    7.43    0.56 
   6  -4   4    7.59    0.62 
  -6  -4  -4    7.92    0.62 
  -6  -4  -4    7.84    0.63 
   6  -4   4    7.29    0.72 
   6   4   4    6.08    0.61 
   7  -4   4   13.35    0.92 
  -7  -4  -4   14.08    1.09 
   7  -4   4   12.45    0.98 
  -7  -4  -4   12.94    0.96 
   7  -4   4   12.00    0.98 
  -7  -4  -4   12.11    0.93 
   7   4   4   14.30    0.88 
   7   4   4   14.24    0.99 
   7   4   4   14.57    0.90 
  -7   4  -4   13.60    1.05 
   7   4   4   14.44    0.97 
  -7   4  -4   14.25    0.94 
  -7   4  -4   14.01    1.03 
   8  -4   4   12.47    0.96 
   8   4   4    9.78    0.91 
  -8   4  -4    9.84    0.91 
  -8   4  -4    9.42    0.85 
  -8  -5   4    0.28    0.17 
  -8  -5   4   -0.05    0.29 
  -8  -5   4    0.15    0.33 
  -8  -5   4    0.24    0.20 
   8  -5  -4    0.32    0.29 
  -8   5   4    0.35    0.36 
  -8   5   4    0.35    0.29 
  -8   5   4    0.17    0.26 
  -7  -5   4   18.26    1.10 
  -7  -5   4   18.29    1.15 
  -7  -5   4   17.17    1.23 
  -7  -5   4   18.94    1.07 
  -7  -5   4   18.01    1.05 
   7  -5  -4   18.31    1.15 
   7  -5  -4   18.31    1.25 
  -7   5   4   19.35    1.27 
   7   5  -4   18.91    1.06 
  -7   5   4   18.73    1.28 
  -7   5   4   18.92    1.22 
  -7   5   4   19.23    1.22 
  -6  -5   4   18.85    1.07 
   6  -5  -4   19.24    1.12 
  -6  -5   4   18.93    1.13 
   6  -5  -4   19.51    1.14 
  -6  -5   4   19.45    1.05 
  -6  -5   4   19.14    1.21 
   6  -5  -4   19.12    1.21 
  -6   5   4   17.56    1.24 
  -6   5   4   18.68    1.20 
  -6   5   4   17.94    1.12 
  -6   5   4   17.63    1.21 
  -6   5   4   18.64    1.17 
   5  -5  -4   21.42    1.33 
  -5  -5   4   21.57    1.26 
  -5  -5   4   22.04    1.41 
  -5  -5   4   20.71    1.21 
   5  -5  -4   21.60    1.27 
  -5  -5   4   22.34    1.31 
   5  -5  -4   21.07    1.28 
  -5  -5   4   21.93    1.33 
  -5   5   4   22.16    1.34 
  -5   5   4   21.55    1.27 
  -5   5   4   22.60    1.33 
  -5   5   4   21.88    1.30 
  -5   5   4   21.29    1.37 
  -4  -5   4   95.95    5.02 
   4  -5  -4   90.37    4.90 
  -4  -5   4   92.78    4.93 
   4  -5  -4   92.80    4.92 
   4  -5  -4   88.63    4.93 
   4  -5  -4   94.42    4.91 
  -4  -5   4   92.94    4.94 
   4  -5  -4   90.36    4.92 
  -4  -5   4   93.02    4.89 
  -4   5   4   81.44    4.90 
  -4   5   4   84.18    4.91 
  -4   5   4   81.16    4.93 
  -4   5   4   83.65    4.98 
  -4   5   4   82.57    4.99 
   3  -5  -4   23.27    1.48 
  -3  -5   4   22.10    1.57 
  -3  -5   4   22.47    1.47 
   3  -5  -4   23.60    1.45 
  -3  -5   4   22.67    1.46 
  -3  -5   4   23.32    1.43 
   3  -5  -4   23.41    1.44 
   3  -5  -4   23.18    1.45 
  -3   5   4   28.16    1.51 
  -3   5   4   28.53    1.54 
  -3   5   4   28.81    1.44 
  -3   5   4   27.95    1.49 
  -3   5   4   28.30    1.48 
  -3   5   4   28.13    1.51 
  -3   5   4   27.27    1.45 
   2  -5  -4   28.75    1.50 
  -2  -5   4   28.91    1.49 
   2  -5  -4   28.36    1.50 
   2  -5  -4   28.89    1.52 
   2  -5  -4   28.24    1.49 
   2  -5  -4   28.23    1.50 
  -2  -5   4   23.43    1.63 
  -2  -5   4   29.34    1.57 
  -2   5   4   23.21    1.50 
  -2   5   4   23.73    1.53 
  -2   5   4   23.82    1.50 
  -2   5   4   24.31    1.49 
  -2   5   4   24.54    1.51 
  -2   5   4   24.13    1.49 
   1  -5  -4  233.26   12.69 
  -1  -5   4  217.88   12.71 
   1  -5  -4  224.14   12.66 
  -1  -5   4  232.99   12.65 
  -1  -5   4  232.44   12.67 
  -1  -5   4  238.34   12.65 
  -1  -5   4  234.99   12.68 
  -1  -5   4  227.48   12.71 
   1  -5  -4  234.78   12.65 
   1  -5  -4  232.64   12.65 
   1  -5  -4  229.38   12.65 
   1   5  -4  236.27   12.69 
  -1   5   4  232.47   12.66 
  -1   5   4  234.71   12.65 
  -1   5   4  234.20   12.66 
   1   5  -4  217.62   12.71 
  -1   5   4  231.17   12.70 
   1   5  -4  236.24   12.65 
  -1   5   4  237.02   12.73 
  -1   5   4  236.94   12.69 
   0  -5  -4   10.06    0.60 
   0  -5  -4    9.54    0.61 
   0  -5  -4    9.88    0.62 
   0  -5   4   10.05    0.62 
   0  -5   4   10.02    0.56 
   0  -5   4    9.83    0.59 
   0  -5  -4   10.38    0.67 
   0  -5  -4    9.59    0.61 
   0  -5   4    9.88    0.58 
   1  -5   4   72.75    4.38 
  -1  -5  -4   72.26    4.41 
   1  -5   4   71.23    4.40 
  -1  -5  -4   71.54    4.43 
   1  -5   4   71.11    4.40 
  -1  -5  -4   72.59    4.45 
   1  -5   4   70.85    4.44 
   1   5   4   88.41    4.40 
  -1   5  -4   84.54    4.49 
  -1   5  -4   87.11    4.39 
   1   5   4   90.50    4.43 
   1   5   4   90.94    4.44 
   1   5   4   86.70    4.47 
  -1   5  -4   86.24    4.44 
   1   5   4   86.42    4.44 
  -2  -5  -4   53.20    2.86 
  -2  -5  -4   52.08    2.88 
   2  -5   4   53.81    2.89 
   2  -5   4   52.55    2.92 
   2  -5   4   53.39    2.87 
  -2  -5  -4   52.43    2.92 
   2  -5   4   53.18    2.84 
  -2  -5  -4   53.08    2.88 
   2  -5   4   53.41    2.86 
  -2   5  -4   50.87    2.85 
   2   5   4   51.26    2.91 
  -2   5  -4   49.86    2.87 
   2   5   4   49.93    2.86 
  -2   5  -4   48.10    2.89 
  -2   5  -4   50.20    2.83 
   2   5   4   50.62    2.88 
   2   5   4   49.01    2.89 
   2   5   4   50.83    2.83 
  -3  -5  -4    2.40    0.28 
  -3  -5  -4    2.23    0.23 
  -3  -5  -4    2.21    0.27 
   3  -5   4    2.03    0.25 
   3  -5   4    2.30    0.27 
   3  -5   4    2.13    0.27 
   3  -5   4    2.24    0.23 
   3  -5   4    2.23    0.34 
  -3  -5  -4    2.20    0.31 
   3   5   4    2.25    0.25 
   3   5   4    2.23    0.29 
  -3   5  -4    2.61    0.22 
   3   5   4    2.58    0.30 
  -3   5  -4    2.25    0.23 
   3   5   4    2.46    0.30 
  -3   5  -4    2.45    0.32 
   3   5   4    2.41    0.19 
  -3   5  -4    2.48    0.27 
   4  -5   4   54.83    2.92 
   4  -5   4   54.83    2.98 
  -4  -5  -4   56.24    2.88 
  -4  -5  -4   49.65    2.99 
  -4  -5  -4   54.11    2.90 
   4  -5   4   56.97    2.89 
  -4  -5  -4   54.67    2.90 
   4  -5   4   55.13    2.90 
   4   5   4   47.08    2.92 
   4   5   4   47.07    2.92 
  -4   5  -4   48.61    2.86 
  -4   5  -4   48.68    2.94 
  -4   5  -4   49.71    2.87 
   4   5   4   48.59    2.83 
   4   5   4   50.20    2.86 
   4   5   4   49.48    2.88 
  -4   5  -4   48.01    2.90 
   5  -5   4   37.50    2.29 
   5  -5   4   36.43    2.26 
  -5  -5  -4   37.39    2.31 
  -5  -5  -4   37.73    2.26 
  -5  -5  -4   36.97    2.28 
   5  -5   4   36.54    2.28 
   5  -5   4   37.00    2.37 
  -5  -5  -4   36.99    2.29 
  -5   5  -4   44.35    2.37 
   5   5   4   42.59    2.22 
   5   5   4   43.20    2.28 
  -5   5  -4   43.14    2.32 
   5   5   4   43.76    2.25 
  -5   5  -4   42.71    2.27 
   5   5   4   41.54    2.33 
   6  -5   4    0.06    0.18 
  -6  -5  -4    0.11    0.23 
  -6  -5  -4    0.22    0.17 
   6  -5   4    0.03    0.25 
  -6  -5  -4    0.20    0.20 
   6  -5   4    0.01    0.21 
   6  -5   4   -0.14    0.30 
  -6  -5  -4    0.14    0.19 
  -6   5  -4    0.23    0.24 
   6   5   4    0.20    0.24 
   6   5   4    0.12    0.24 
   6   5   4    0.13    0.16 
  -6   5  -4    0.33    0.25 
   6   5   4    0.13    0.17 
  -6   5  -4    0.15    0.27 
   7  -5   4   24.77    1.61 
  -7  -5  -4   23.50    1.55 
  -7  -5  -4   25.88    1.58 
   7  -5   4   26.25    1.60 
   7  -5   4   25.69    1.54 
   7   5   4   24.71    1.60 
   7   5   4   25.56    1.48 
  -7   5  -4   25.04    1.66 
  -7   5  -4   25.35    1.65 
  -7   5  -4   25.01    1.54 
   8  -6  -4   14.70    1.06 
  -8  -6   4   15.08    1.18 
  -8  -6   4   15.34    0.90 
  -8   6   4   16.63    1.22 
  -7  -6   4    0.99    0.33 
   7  -6  -4    0.95    0.37 
   7  -6  -4    1.26    0.28 
  -7  -6   4    1.17    0.22 
   7  -6  -4    0.83    0.26 
  -7  -6   4    1.23    0.27 
  -7   6   4    0.97    0.35 
  -7   6   4    0.78    0.31 
  -7   6   4    0.92    0.33 
  -7   6   4    0.83    0.32 
   6  -6  -4   18.07    1.07 
  -6  -6   4   17.42    1.24 
  -6  -6   4   17.41    1.10 
  -6  -6   4   17.07    1.02 
   6  -6  -4   18.06    1.16 
  -6  -6   4   17.18    1.12 
  -6  -6   4   16.78    0.98 
  -6   6   4   13.12    1.08 
  -5  -6   4   44.67    2.47 
   5  -6  -4   42.13    2.44 
  -5  -6   4   45.35    2.41 
  -5  -6   4   44.06    2.47 
  -5  -6   4   43.03    2.36 
  -5  -6   4   43.94    2.56 
   5  -6  -4   43.19    2.42 
   5  -6  -4   42.86    2.48 
   5  -6  -4   43.66    2.45 
   5  -6  -4   43.65    2.50 
  -5   6   4   41.31    2.47 
  -5   6   4   38.88    2.53 
  -5   6   4   43.29    2.51 
  -5   6   4   40.69    2.53 
  -5   6   4   42.42    2.45 
  -4  -6   4    3.68    0.43 
  -4  -6   4    3.79    0.36 
  -4  -6   4    3.36    0.36 
   4  -6  -4    3.15    0.40 
   4  -6  -4    3.66    0.31 
  -4  -6   4    3.74    0.31 
   4  -6  -4    3.35    0.34 
   4  -6  -4    3.36    0.32 
   4  -6  -4    3.65    0.34 
  -4   6   4    2.37    0.37 
  -3  -6   4   91.07    5.08 
   3  -6  -4   89.99    5.05 
  -3  -6   4   91.42    5.12 
   3  -6  -4   89.67    5.07 
  -3  -6   4   92.51    5.04 
   3  -6  -4   91.67    5.04 
  -3  -6   4   92.50    5.01 
   3  -6  -4   91.15    5.03 
   3  -6  -4   94.27    5.04 
  -3   6   4   88.23    5.06 
  -3   6   4   93.74    5.09 
  -3   6   4   91.84    5.12 
  -3   6   4   90.20    5.03 
  -3   6   4   87.92    5.05 
  -3   6   4   91.71    5.02 
  -3   6   4   93.11    5.07 
   2  -6  -4   62.73    3.44 
  -2  -6   4   63.35    3.42 
  -2  -6   4   61.19    3.47 
   2  -6  -4   62.79    3.43 
   2  -6  -4   62.79    3.44 
   2  -6  -4   55.55    3.44 
  -2  -6   4   68.12    3.51 
   2  -6  -4   61.15    3.46 
  -2   6   4   60.21    3.44 
  -2   6   4   61.41    3.43 
  -2   6   4   60.31    3.45 
  -2   6   4   60.90    3.51 
  -2   6   4   62.10    3.44 
  -2   6   4   64.64    3.45 
  -2   6   4   61.53    3.48 
  -1  -6   4   12.59    0.74 
   1  -6  -4   12.99    0.79 
  -1  -6   4   12.92    0.81 
   1  -6  -4   12.87    0.76 
   1  -6  -4   12.71    0.74 
  -1  -6   4   12.70    0.72 
   1  -6  -4   13.21    0.77 
  -1  -6   4   12.83    0.72 
  -1  -6   4   12.68    0.83 
  -1  -6   4   12.67    0.72 
   1  -6  -4   12.75    0.77 
  -1   6   4   12.92    0.77 
  -1   6   4   12.45    0.78 
  -1   6   4   12.27    0.76 
  -1   6   4   12.71    0.81 
  -1   6   4   12.51    0.79 
   1   6  -4   12.34    0.73 
   1   6  -4   12.39    0.84 
  -1   6   4   11.84    0.83 
   0  -6  -4  108.14    6.10 
   0  -6   4  110.64    6.14 
   0  -6  -4  110.17    6.08 
   0  -6  -4  104.40    6.16 
   0  -6   4  110.92    6.08 
   0  -6   4  110.68    6.09 
   0  -6  -4  108.00    6.11 
   0  -6  -4  103.30    6.11 
   0  -6  -4  107.30    6.10 
   0  -6   4  109.92    6.11 
   0   6   4  116.30    6.12 
   0   6   4  115.86    6.10 
   0   6  -4  114.55    6.18 
   0   6   4  115.52    6.14 
   0   6  -4  114.43    6.09 
   0   6   4  114.02    6.15 
   0   6   4  112.85    6.12 
   0   6  -4  113.66    6.11 
   0   6   4  112.98    6.13 
   1  -6   4   40.73    2.88 
   1  -6   4   41.21    2.92 
   1   6   4   55.16    2.92 
   1   6   4   53.90    2.91 
  -1   6  -4   55.32    2.98 
   1   6   4   53.10    2.94 
  -1   6  -4   55.21    2.86 
   1   6   4   54.84    2.92 
   1   6   4   53.08    2.95 
  -1   6  -4   55.03    2.93 
  -1   6  -4   54.94    2.90 
   1   6   4   53.70    2.87 
   2  -6   4   19.72    1.21 
   2  -6   4   20.35    1.18 
   2  -6   4   19.75    1.28 
  -2  -6  -4   19.58    1.23 
  -2  -6  -4   19.20    1.23 
  -2  -6  -4   20.06    1.21 
  -2  -6  -4   19.56    1.27 
   2  -6   4   19.52    1.22 
   2  -6   4   20.21    1.24 
  -2   6  -4   22.14    1.20 
   2   6   4   22.32    1.23 
  -2   6  -4   22.27    1.27 
   2   6   4   22.11    1.28 
   2   6   4   22.65    1.26 
  -2   6  -4   21.71    1.31 
  -2   6  -4   21.87    1.23 
   2   6   4   22.38    1.18 
   2   6   4   22.48    1.25 
   2   6   4   22.76    1.28 
  -3  -6  -4   92.99    5.19 
   3  -6   4   96.53    5.22 
   3  -6   4   93.31    5.15 
   3  -6   4   94.00    5.14 
  -3  -6  -4   93.88    5.13 
  -3  -6  -4   96.39    5.15 
  -3  -6  -4   93.00    5.15 
   3  -6   4   96.53    5.17 
   3  -6   4   94.50    5.11 
   3   6   4   91.25    5.08 
   3   6   4   91.84    5.08 
   3   6   4   93.83    5.15 
   3   6   4   92.28    5.19 
  -3   6  -4   86.04    5.18 
   3   6   4   91.58    5.17 
   3   6   4   91.94    5.22 
   3   6   4   94.11    5.13 
  -3   6  -4   93.86    5.16 
  -3   6  -4   91.63    5.10 
  -3   6  -4   92.69    5.12 
   4  -6   4   34.15    1.94 
  -4  -6  -4   34.36    1.82 
   4  -6   4   33.79    1.82 
  -4  -6  -4   29.30    1.89 
   4  -6   4   34.74    1.85 
  -4  -6  -4   32.91    1.88 
   4  -6   4   34.16    1.83 
  -4  -6  -4   32.87    1.84 
  -4   6  -4   30.23    1.85 
  -4   6  -4   31.12    1.90 
   4   6   4   30.62    1.88 
  -4   6  -4   29.55    1.81 
  -4   6  -4   30.80    1.79 
   4   6   4   31.41    1.83 
   4   6   4   30.51    1.80 
   4   6   4   29.75    1.87 
   4   6   4   29.71    1.75 
   5  -6   4   41.88    2.54 
  -5  -6  -4   42.22    2.44 
  -5  -6  -4   42.85    2.44 
  -5  -6  -4   43.82    2.42 
   5  -6   4   42.53    2.44 
   5  -6   4   41.79    2.42 
  -5  -6  -4   43.86    2.48 
   5  -6   4   42.55    2.42 
   5   6   4   42.66    2.34 
   5   6   4   40.64    2.47 
  -5   6  -4   40.83    2.62 
   5   6   4   43.06    2.39 
  -5   6  -4   43.13    2.40 
   5   6   4   42.45    2.48 
   5   6   4   43.00    2.43 
  -5   6  -4   41.64    2.46 
   6  -6   4   18.25    1.15 
   6  -6   4   17.79    1.27 
  -6  -6  -4   18.08    1.14 
  -6  -6  -4   18.08    1.14 
   6  -6   4   17.95    1.09 
  -6  -6  -4   17.62    1.11 
   6   6   4   16.75    1.11 
  -6   6  -4   15.74    1.17 
   6   6   4   16.85    1.04 
   6   6   4   16.51    1.15 
  -6   6  -4   15.91    1.13 
  -6   6  -4   16.48    1.21 
   6   6   4   16.55    0.98 
   7  -6   4   11.40    0.96 
   7  -6   4   10.89    0.82 
  -7  -6  -4   10.82    0.85 
  -7  -6  -4   10.66    0.86 
  -7   6  -4   12.07    0.86 
  -7   6  -4   11.48    1.00 
   7   6   4   11.76    0.94 
  -7  -7   4    8.36    0.64 
   7  -7  -4    8.47    0.72 
  -7  -7   4    7.68    0.78 
   7  -7  -4    7.73    0.88 
  -7   7   4    8.72    0.85 
  -7   7   4    8.70    0.74 
  -7   7   4    9.57    0.84 
  -6  -7   4   12.15    0.74 
  -6  -7   4   12.53    0.78 
   6  -7  -4   11.91    0.96 
   6  -7  -4   12.10    0.86 
  -6  -7   4   12.07    0.88 
   6  -7  -4   12.35    0.84 
   6  -7  -4   11.69    0.82 
  -6  -7   4   12.44    0.90 
  -6  -7   4   12.18    1.01 
  -6   7   4   12.85    0.98 
  -6   7   4   12.09    0.96 
  -6   7   4   12.30    0.92 
  -6   7   4   11.79    0.88 
  -6   7   4   12.96    0.90 
   5  -7  -4    3.09    0.39 
  -5  -7   4    2.84    0.23 
   5  -7  -4    2.78    0.49 
  -5  -7   4    2.84    0.41 
   5  -7  -4    2.30    0.36 
   5  -7  -4    3.10    0.38 
  -5  -7   4    2.97    0.31 
  -5  -7   4    3.00    0.48 
   5  -7  -4    2.67    0.33 
  -5  -7   4    3.05    0.40 
  -5   7   4    2.23    0.48 
  -5   7   4    2.22    0.44 
  -5   7   4    2.55    0.41 
  -5   7   4    2.17    0.34 
  -4  -7   4   70.24    3.91 
   4  -7  -4   69.86    3.91 
   4  -7  -4   71.10    3.92 
   4  -7  -4   67.59    3.91 
  -4  -7   4   69.82    4.00 
  -4  -7   4   68.28    3.95 
  -4  -7   4   71.65    3.87 
   4  -7  -4   68.60    3.94 
   4  -7  -4   68.26    3.92 
  -4   7   4   70.03    3.94 
  -4   7   4   71.13    4.02 
  -4   7   4   72.43    3.98 
  -4   7   4   73.20    3.96 
   3  -7  -4    4.64    0.40 
   3  -7  -4    4.71    0.37 
  -3  -7   4    4.97    0.35 
  -3  -7   4    4.99    0.44 
   3  -7  -4    4.93    0.47 
  -3  -7   4    4.90    0.38 
   3  -7  -4    4.89    0.38 
   3  -7  -4    4.93    0.41 
  -3  -7   4    5.05    0.47 
   2  -7  -4   11.21    0.70 
   2  -7  -4   10.89    0.68 
  -2  -7   4   10.84    0.62 
   2  -7  -4   10.90    0.69 
   2  -7  -4   10.88    0.67 
  -2  -7   4   10.48    0.72 
   2  -7  -4   10.91    0.73 
  -2  -7   4   11.27    0.65 
  -2  -7   4   11.21    0.61 
  -2  -7   4   11.33    0.75 
  -2  -7   4   11.01    0.61 
  -2   7   4   10.37    0.70 
  -2   7   4   10.68    0.67 
  -2   7   4   10.02    0.72 
  -2   7   4   10.43    0.70 
  -2   7   4   10.03    0.70 
  -2   7   4   10.77    0.78 
   1  -7  -4  120.88    6.60 
  -1  -7   4  116.60    6.62 
   1  -7  -4  123.47    6.55 
  -1  -7   4  122.16    6.53 
  -1  -7   4  121.39    6.63 
   1  -7  -4  122.26    6.57 
  -1  -7   4  121.77    6.53 
   1  -7  -4  119.31    6.58 
   1  -7  -4  124.74    6.58 
  -1   7   4  117.49    6.59 
   1   7  -4  120.05    6.55 
  -1   7   4  117.96    6.57 
  -1   7   4  116.25    6.57 
  -1   7   4  116.77    6.61 
  -1   7   4  118.36    6.65 
  -1   7   4  117.12    6.58 
   1   7  -4  116.70    6.55 
   0  -7   4    1.36    0.23 
   0  -7   4    1.17    0.17 
   0  -7  -4    0.93    0.18 
   0  -7   4    1.25    0.21 
   0  -7  -4    0.77    0.15 
   0  -7  -4    1.21    0.24 
   0  -7   4    1.33    0.17 
   0  -7  -4    1.19    0.18 
   0  -7  -4    1.13    0.15 
   0  -7  -4    1.35    0.19 
  -1  -7  -4  116.20    6.80 
   1  -7   4  117.09    6.74 
   1  -7   4  123.85    6.76 
  -1  -7  -4  116.91    6.73 
   1  -7   4  120.00    6.73 
  -1  -7  -4  118.97    6.74 
  -1  -7  -4  114.22    6.74 
   1  -7   4  120.14    6.79 
   1  -7   4  119.58    6.78 
  -1   7  -4  126.19    6.77 
  -1   7  -4  122.71    6.81 
   1   7   4  129.97    6.80 
   1   7   4  129.09    6.75 
   1   7   4  128.54    6.77 
   1   7   4  127.77    6.76 
   1   7   4  125.45    6.80 
   1   7   4  126.25    6.71 
  -1   7  -4  128.32    6.75 
  -2  -7  -4  143.14    7.93 
   2  -7   4  143.75    7.98 
   2  -7   4  141.52    7.93 
   2  -7   4  143.45    7.92 
   2  -7   4  138.67    7.94 
  -2  -7  -4  140.53    7.93 
  -2  -7  -4  138.70    7.98 
  -2  -7  -4  141.63    7.92 
   2   7   4  147.68    7.92 
   2   7   4  140.73    7.97 
  -2   7  -4  147.65    7.90 
   2   7   4  148.74    7.99 
  -2   7  -4  151.18    7.94 
   2   7   4  153.25    7.96 
   2   7   4  143.14    7.94 
  -2   7  -4  147.30    7.97 
  -2   7  -4  143.80    8.00 
   2   7   4  145.31    7.87 
   3  -7   4    0.95    0.20 
   3  -7   4    1.05    0.21 
  -3  -7  -4    0.92    0.20 
  -3  -7  -4    0.86    0.15 
   3  -7   4    0.67    0.24 
  -3  -7  -4    0.87    0.18 
  -3   7  -4    0.57    0.11 
   3   7   4    0.48    0.18 
  -3   7  -4    0.65    0.14 
   3   7   4    0.54    0.20 
  -3   7  -4    0.55    0.16 
  -3   7  -4    0.50    0.23 
   3   7   4    0.49    0.19 
   3   7   4    0.82    0.16 
   4  -7   4   51.35    2.96 
  -4  -7  -4   53.11    2.93 
   4  -7   4   52.04    2.94 
   4  -7   4   55.21    3.06 
  -4  -7  -4   52.54    2.96 
  -4  -7  -4   51.95    3.00 
  -4  -7  -4   51.38    2.95 
   4  -7   4   52.58    2.98 
  -4   7  -4   52.92    2.90 
  -4   7  -4   51.77    3.01 
   4   7   4   50.11    3.00 
  -4   7  -4   52.22    2.93 
   4   7   4   52.77    2.95 
   4   7   4   53.11    2.92 
  -4   7  -4   50.42    2.96 
   5  -7   4   13.34    1.04 
  -5  -7  -4   12.82    0.90 
  -5  -7  -4   12.96    0.88 
  -5  -7  -4   13.11    0.87 
  -5  -7  -4   13.39    0.84 
   5  -7   4   13.40    0.89 
   5  -7   4   13.69    0.85 
  -5   7  -4   12.42    0.81 
   5   7   4   11.71    0.91 
  -5   7  -4   12.65    0.90 
  -5   7  -4   12.41    0.84 
  -5   7  -4   12.05    0.95 
   5   7   4   12.73    0.91 
   5   7   4   12.70    0.87 
   5   7   4   12.61    0.80 
  -6  -7  -4    0.13    0.21 
  -6  -7  -4   -0.05    0.21 
   6  -7   4    0.29    0.27 
   6  -7   4    0.17    0.19 
   6  -7   4    0.16    0.42 
   6   7   4    0.20    0.27 
  -6   7  -4    0.11    0.23 
   6   7   4    0.22    0.19 
   6   7   4   -0.05    0.28 
  -6   7  -4    0.27    0.32 
  -7  -7  -4   14.47    1.07 
   7  -7   4   15.37    1.04 
   7  -7   4   14.84    1.18 
  -7  -7  -4   14.73    1.07 
  -7   7  -4   15.74    1.25 
   7   7   4   15.93    1.15 
  -7   7  -4   15.55    1.06 
   7  -8  -4    6.19    0.68 
   7  -8  -4    6.60    0.89 
  -7  -8   4    6.53    0.75 
  -7   8   4    6.01    0.66 
  -7   8   4    6.40    0.80 
  -7   8   4    5.50    0.79 
   6  -8  -4   10.25    0.77 
  -6  -8   4   10.04    0.72 
  -6  -8   4   10.57    0.82 
  -6  -8   4   10.19    0.67 
   6  -8  -4    9.69    0.92 
  -6  -8   4    9.90    0.96 
  -6   8   4   11.01    0.87 
  -6   8   4   10.44    0.93 
  -6   8   4   10.19    0.84 
  -6   8   4   10.23    0.93 
  -6   8   4   10.76    0.83 
   5  -8  -4   11.99    0.92 
  -5  -8   4   11.97    0.87 
   5  -8  -4   11.77    0.82 
   5  -8  -4   11.51    0.88 
  -5  -8   4   11.87    0.95 
  -5  -8   4   11.69    0.74 
  -5  -8   4   11.44    0.71 
   5  -8  -4   11.15    0.79 
   5  -8  -4   11.90    0.85 
  -5  -8   4   11.71    0.83 
  -5   8   4   13.38    0.88 
  -5   8   4   13.14    0.92 
  -5   8   4   12.71    0.98 
  -5   8   4   12.48    0.86 
   4  -8  -4    6.45    0.50 
  -4  -8   4    7.19    0.63 
  -4  -8   4    6.74    0.51 
  -4  -8   4    6.72    0.45 
   4  -8  -4    6.70    0.52 
   4  -8  -4    6.43    0.61 
   4  -8  -4    6.51    0.55 
   4  -8  -4    6.79    0.49 
  -4  -8   4    6.56    0.56 
  -4  -8   4    6.62    0.41 
  -4   8   4    5.77    0.59 
  -4   8   4    6.05    0.56 
  -4   8   4    5.68    0.56 
  -4   8   4    5.97    0.68 
   3  -8  -4   28.78    1.71 
  -3  -8   4   28.86    1.66 
   3  -8  -4   28.79    1.70 
   3  -8  -4   28.94    1.76 
   3  -8  -4   28.22    1.71 
  -3  -8   4   28.90    1.75 
  -3  -8   4   28.44    1.67 
  -3  -8   4   29.30    1.64 
  -3  -8   4   29.42    1.78 
  -3   8   4   31.52    1.71 
  -3   8   4   30.62    1.70 
  -3   8   4   29.95    1.82 
  -3   8   4   30.41    1.73 
  -3   8   4   30.35    1.77 
  -2  -8   4   34.13    1.98 
  -2  -8   4   34.91    2.09 
  -2  -8   4   34.28    1.97 
  -2  -8   4   33.39    2.08 
  -2  -8   4   33.32    1.97 
   2  -8  -4   34.21    2.07 
   2  -8  -4   32.56    2.07 
   2  -8  -4   34.35    2.01 
  -2  -8   4   35.08    1.97 
   2  -8  -4   33.72    2.04 
  -2   8   4   38.32    2.00 
  -2   8   4   37.63    2.03 
  -2   8   4   37.66    2.09 
  -2   8   4   36.72    2.04 
   2   8  -4   38.81    1.97 
  -2   8   4   36.82    2.14 
  -2   8   4   37.44    2.05 
   2   8  -4   38.56    1.97 
   1  -8  -4    9.13    0.63 
   1  -8  -4    9.07    0.58 
  -1  -8   4    9.24    0.59 
  -1  -8   4    9.36    0.57 
   1  -8  -4    9.13    0.63 
  -1  -8   4    9.05    0.57 
   1  -8  -4    8.92    0.66 
   1   8  -4    9.81    0.59 
   1   8  -4    9.99    0.60 
  -1   8   4    9.30    0.66 
  -1   8   4    9.39    0.62 
  -1   8   4    9.76    0.64 
  -1   8   4    9.93    0.67 
  -1   8   4    9.43    0.73 
  -1   8   4    9.32    0.62 
   0  -8  -4  227.58   12.35 
   0  -8   4  231.18   12.31 
   0  -8   4  231.08   12.40 
   0  -8   4  226.24   12.32 
   0  -8  -4  227.25   12.37 
   0  -8  -4  225.95   12.35 
   0  -8  -4  228.14   12.30 
   0  -8   4  231.71   12.34 
   0  -8   4  234.53   12.36 
   0  -8  -4  238.66   12.34 
   0   8   4  225.77   12.35 
   0   8   4  226.86   12.42 
   0   8  -4  207.04   12.44 
   0   8  -4  219.49   12.40 
   0   8   4  222.05   12.34 
   0   8   4  217.29   12.38 
   0   8   4  222.96   12.39 
   0   8  -4  223.38   12.32 
   0   8   4  221.39   12.32 
   1  -8   4   25.85    1.55 
  -1  -8  -4   25.46    1.50 
   1  -8   4   25.19    1.55 
  -1  -8  -4   24.80    1.51 
  -1  -8  -4   25.52    1.51 
   1  -8   4   26.07    1.49 
   1  -8   4   25.57    1.52 
   1   8   4   26.77    1.51 
   1   8   4   26.15    1.57 
  -1   8  -4   26.84    1.54 
   1   8   4   26.59    1.52 
   1   8   4   26.94    1.46 
   1   8   4   26.95    1.54 
  -1   8  -4   25.96    1.57 
   2  -8   4   15.68    1.05 
   2  -8   4   15.38    0.97 
  -2  -8  -4   15.81    0.96 
   2  -8   4   15.55    0.97 
  -2  -8  -4   15.67    0.96 
   2  -8   4   16.12    1.00 
   2  -8   4   15.55    1.01 
  -2  -8  -4   15.75    0.99 
  -2  -8  -4   15.89    1.05 
   2   8   4   16.45    0.97 
  -2   8  -4   16.54    1.06 
  -2   8  -4   16.95    1.05 
   2   8   4   17.23    1.01 
   2   8   4   15.32    1.04 
  -2   8  -4   15.99    0.93 
   2   8   4   16.56    1.01 
  -3  -8  -4   39.78    2.35 
  -3  -8  -4   41.34    2.30 
   3  -8   4   41.94    2.39 
   3  -8   4   40.39    2.32 
   3  -8   4   41.26    2.31 
  -3  -8  -4   41.49    2.28 
   3  -8   4   40.41    2.29 
  -3  -8  -4   40.00    2.30 
   3  -8   4   40.66    2.33 
  -3   8  -4   40.07    2.26 
   3   8   4   39.98    2.27 
   3   8   4   40.20    2.33 
   3   8   4   39.51    2.31 
  -3   8  -4   40.47    2.31 
  -3   8  -4   38.47    2.36 
   3   8   4   39.19    2.36 
  -3   8  -4   39.71    2.38 
  -4  -8  -4    4.15    0.47 
   4  -8   4    3.96    0.41 
   4  -8   4    4.06    0.46 
  -4  -8  -4    4.24    0.44 
   4  -8   4    4.06    0.62 
   4  -8   4    4.04    0.44 
   4  -8   4    4.33    0.46 
  -4  -8  -4    3.81    0.46 
  -4  -8  -4    3.91    0.39 
   4   8   4    4.96    0.41 
  -4   8  -4    5.01    0.46 
   4   8   4    4.26    0.49 
  -4   8  -4    4.67    0.42 
  -4   8  -4    4.90    0.57 
  -4   8  -4    4.83    0.34 
   4   8   4    4.31    0.44 
   4   8   4    4.91    0.50 
  -5  -8  -4    6.87    0.66 
   5  -8   4    6.94    0.85 
  -5  -8  -4    6.77    0.62 
   5  -8   4    7.29    0.65 
  -5  -8  -4    6.46    0.64 
   5  -8   4    7.05    0.59 
   5  -8   4    6.86    0.65 
  -5   8  -4    8.62    0.55 
   5   8   4    8.38    0.68 
   5   8   4    8.49    0.56 
  -5   8  -4    8.48    0.62 
   5   8   4    8.68    0.69 
  -5   8  -4    8.52    0.78 
   6  -8   4   27.73    1.69 
  -6  -8  -4   27.78    1.74 
   6  -8   4   27.43    1.75 
  -6  -8  -4   27.78    1.73 
  -6   8  -4   28.78    1.66 
  -6   8  -4   30.07    1.86 
   6   8   4   27.75    1.78 
  -6  -9   4   24.33    1.48 
   6  -9  -4   23.34    1.59 
   6  -9  -4   24.51    1.46 
  -6   9   4   22.88    1.62 
  -6   9   4   21.10    1.48 
  -6   9   4   22.51    1.52 
  -5  -9   4    3.07    0.64 
  -5  -9   4    3.02    0.31 
  -5  -9   4    2.90    0.31 
   5  -9  -4    3.11    0.40 
   5  -9  -4    2.85    0.53 
  -5  -9   4    3.20    0.46 
   5  -9  -4    3.30    0.45 
  -5   9   4    3.77    0.51 
  -5   9   4    3.70    0.65 
  -5   9   4    3.35    0.55 
  -5   9   4    3.27    0.52 
  -4  -9   4   50.75    3.07 
   4  -9  -4   51.08    3.08 
  -4  -9   4   52.27    3.10 
   4  -9  -4   51.09    3.03 
  -4  -9   4   51.65    2.95 
   4  -9  -4   52.44    3.04 
  -4  -9   4   53.25    3.00 
  -4  -9   4   51.88    2.94 
   4  -9  -4   51.03    3.01 
  -4   9   4   60.06    3.04 
  -4   9   4   55.84    3.11 
  -4   9   4   57.80    3.18 
  -4   9   4   54.47    3.05 
  -3  -9   4    5.81    0.41 
  -3  -9   4    5.91    0.42 
  -3  -9   4    5.71    0.43 
  -3  -9   4    5.78    0.40 
   3  -9  -4    5.38    0.47 
  -3  -9   4    5.80    0.54 
   3  -9  -4    5.63    0.50 
  -3  -9   4    6.49    0.58 
   3  -9  -4    5.53    0.52 
   3  -9  -4    5.79    0.59 
  -3   9   4    6.55    0.50 
  -3   9   4    6.79    0.45 
  -3   9   4    6.50    0.55 
  -3   9   4    6.51    0.67 
   2  -9  -4   11.45    0.81 
  -2  -9   4   10.97    0.72 
  -2  -9   4   10.84    0.75 
   2  -9  -4   12.07    0.85 
  -2  -9   4   11.75    0.85 
  -2  -9   4   11.33    0.72 
  -2  -9   4   11.11    0.71 
   2  -9  -4   11.34    0.80 
   2  -9  -4   11.26    0.76 
  -2   9   4   13.37    0.83 
  -2   9   4   13.19    0.79 
  -2   9   4   13.81    0.95 
  -2   9   4   13.53    0.82 
  -2   9   4   13.89    0.86 
   2   9  -4   13.89    0.73 
   2   9  -4   13.64    0.73 
  -1  -9   4   35.38    1.92 
   1  -9  -4   34.11    1.97 
   1  -9  -4   34.40    1.97 
   1  -9  -4   34.87    2.00 
  -1  -9   4   29.85    2.03 
  -1  -9   4   36.09    1.92 
   1  -9  -4   30.19    1.94 
  -1  -9   4   36.48    1.93 
   1   9  -4   34.52    1.94 
  -1   9   4   34.17    1.95 
  -1   9   4   34.89    2.07 
  -1   9   4   34.02    2.00 
  -1   9   4   34.61    2.02 
   1   9  -4   35.49    1.94 
  -1   9   4   33.88    1.95 
   0   9   4    1.49    0.27 
   0   9   4    1.31    0.23 
   0   9  -4    1.34    0.35 
   0   9   4    1.47    0.20 
   0   9   4    1.22    0.29 
   0   9  -4    1.62    0.30 
   0   9   4    1.10    0.46 
  -1  -9  -4   61.03    3.32 
   1  -9   4   60.94    3.31 
   1  -9   4   61.81    3.31 
  -1  -9  -4   61.05    3.33 
   1  -9   4   62.31    3.37 
  -1  -9  -4   59.20    3.32 
  -1  -9  -4   62.60    3.35 
   1  -9   4   62.70    3.34 
  -1   9  -4   57.36    3.35 
   1   9   4   58.71    3.32 
   1   9   4   58.85    3.33 
   1   9   4   57.02    3.26 
   1   9   4   54.54    3.37 
   1   9   4   57.51    3.40 
  -1   9  -4   55.08    3.37 
  -2  -9  -4   49.46    2.72 
   2  -9   4   49.09    2.64 
  -2  -9  -4   49.98    2.66 
   2  -9   4   50.37    2.73 
  -2  -9  -4   47.26    2.63 
   2  -9   4   48.22    2.67 
   2  -9   4   48.88    2.65 
  -2   9  -4   44.28    2.70 
   2   9   4   45.81    2.67 
   2   9   4   44.14    2.63 
   2   9   4   44.58    2.67 
  -2   9  -4   45.35    2.70 
  -2   9  -4   43.60    2.59 
   2   9   4   44.00    2.70 
   3  -9   4    3.59    0.44 
  -3  -9  -4    3.83    0.47 
  -3  -9  -4    3.91    0.38 
  -3  -9  -4    3.88    0.43 
  -3  -9  -4    3.63    0.44 
   3  -9   4    3.62    0.42 
   3  -9   4    4.01    0.40 
   3  -9   4    3.93    0.59 
  -3   9  -4    4.64    0.55 
  -3   9  -4    4.52    0.57 
  -3   9  -4    4.50    0.38 
  -3   9  -4    4.57    0.40 
   3   9   4    4.46    0.40 
   3   9   4    4.43    0.49 
   3   9   4    4.24    0.48 
   3   9   4    4.58    0.45 
   3   9   4    4.16    0.46 
  -4  -9  -4   26.10    1.67 
  -4  -9  -4   26.55    1.66 
   4  -9   4   27.20    1.67 
  -4  -9  -4   25.63    1.64 
   4  -9   4   26.29    1.65 
  -4  -9  -4   26.91    1.72 
   4  -9   4   26.10    1.80 
   4   9   4   29.70    1.61 
   4   9   4   29.94    1.73 
   4   9   4   30.20    1.69 
  -4   9  -4   29.88    1.56 
  -4   9  -4   29.65    1.78 
   4   9   4   29.83    1.74 
   5  -9   4   14.42    1.01 
   5  -9   4   14.77    1.10 
  -5  -9  -4   14.33    1.02 
   5  -9   4   14.09    0.95 
  -5  -9  -4   14.43    0.99 
   5  -9   4   13.62    1.24 
   5   9   4   15.14    0.89 
   5   9   4   13.97    1.03 
  -5   9  -4   14.28    1.12 
  -5   9  -4   14.93    0.88 
  -6  -9  -4    0.66    0.32 
  -6  -9  -4    1.06    0.31 
   6  -9   4    0.88    0.37 
   6   9   4    0.73    0.36 
  -6   9  -4    1.38    0.50 
  -6 -10   4    4.02    0.64 
   6 -10  -4    4.16    0.59 
   6 -10  -4    3.01    0.61 
   5 -10  -4   26.20    1.78 
  -5 -10   4   26.85    1.65 
  -5 -10   4   26.84    1.81 
   5 -10  -4   26.40    1.67 
   5 -10  -4   25.68    1.71 
  -5  10   4   29.58    1.72 
  -5  10   4   29.05    1.72 
  -5  10   4   29.11    1.87 
  -4 -10   4    0.54    0.21 
   4 -10  -4    0.30    0.22 
   4 -10  -4    0.40    0.25 
  -4 -10   4    0.43    0.15 
   4 -10  -4    0.41    0.33 
   4 -10  -4    0.43    0.27 
  -4 -10   4    0.32    0.14 
  -4 -10   4    0.47    0.17 
  -4 -10   4    0.33    0.33 
  -4  10   4    1.10    0.44 
  -4  10   4    0.92    0.30 
  -4  10   4    0.77    0.25 
   3 -10  -4   38.97    2.23 
   3 -10  -4   39.35    2.29 
  -3 -10   4   41.10    2.15 
   3 -10  -4   40.45    2.26 
  -3 -10   4   40.01    2.29 
  -3 -10   4   38.92    2.15 
  -3 -10   4   39.05    2.16 
   3 -10  -4   37.80    2.20 
  -3 -10   4   39.13    2.15 
  -3 -10   4   39.10    2.15 
  -3  10   4   36.49    2.36 
  -3  10   4   36.23    2.23 
  -3  10   4   36.12    2.22 
  -3  10   4   36.05    2.20 
  -2 -10   4   32.80    1.84 
   2 -10  -4   31.03    1.87 
   2 -10  -4   30.79    1.95 
  -2 -10   4   31.68    1.86 
  -2 -10   4   32.11    1.85 
   2 -10  -4   32.15    1.92 
  -2 -10   4   31.87    1.83 
  -2 -10   4   31.24    1.86 
   2 -10  -4   32.44    1.93 
  -2 -10   4   29.79    2.00 
  -2  10   4   33.70    1.91 
  -2  10   4   34.70    2.06 
  -2  10   4   33.71    1.89 
   2  10  -4   34.94    1.85 
  -2  10   4   34.28    1.97 
  -2  10   4   34.63    1.94 
   2  10  -4   36.13    1.85 
  -1 -10   4    1.08    0.18 
  -1 -10   4    1.04    0.19 
  -1 -10   4    0.89    0.20 
   1 -10  -4    1.50    0.29 
   1 -10  -4    0.93    0.17 
   1 -10  -4    1.04    0.22 
  -1 -10   4    0.99    0.16 
   1 -10  -4    1.07    0.25 
   1 -10  -4    1.06    0.17 
  -1  10   4    0.88    0.23 
   1  10  -4    0.93    0.18 
  -1  10   4    1.08    0.26 
  -1  10   4    0.94    0.36 
  -1  10   4    1.06    0.22 
  -1  10   4    0.89    0.21 
   1  10  -4    0.91    0.20 
   0 -10  -4   38.22    2.20 
   0 -10  -4   37.50    2.20 
   0 -10  -4   37.73    2.22 
   0 -10   4   38.63    2.26 
   0 -10  -4   39.06    2.19 
   0 -10   4   39.26    2.16 
   0 -10   4   38.50    2.16 
   0 -10   4   39.45    2.19 
   0 -10  -4   38.82    2.13 
   0  10  -4   37.37    2.20 
   0  10   4   38.20    2.19 
   0  10   4   38.47    2.15 
   0  10   4   37.87    2.31 
   0  10   4   36.94    2.25 
   1  10   4    4.41    0.50 
  -1  10  -4    4.13    0.49 
  -1  10  -4    4.23    0.50 
   1  10   4    4.33    0.44 
   1  10   4    4.11    0.31 
  -1  10  -4    4.11    0.36 
   1  10   4    4.12    0.58 
  -2 -10  -4    1.59    0.27 
  -2 -10  -4    1.90    0.34 
   2 -10   4    1.77    0.26 
  -2 -10  -4    1.37    0.26 
  -2 -10  -4    1.45    0.22 
   2 -10   4    2.03    0.37 
   2 -10   4    1.86    0.25 
   2 -10   4    2.22    0.32 
  -2 -10  -4    1.91    0.27 
   2 -10   4    2.17    0.35 
   2  10   4    0.82    0.32 
  -2  10  -4    1.25    0.33 
  -2  10  -4    1.14    0.31 
   2  10   4    1.11    0.29 
   2  10   4    0.91    0.23 
   3 -10   4   39.19    2.25 
  -3 -10  -4   39.11    2.27 
   3 -10   4   38.42    2.27 
   3 -10   4   38.85    2.38 
  -3 -10  -4   40.50    2.21 
   3 -10   4   36.81    2.29 
  -3 -10  -4   38.76    2.32 
   3 -10   4   37.58    2.31 
   3  10   4   40.12    2.35 
  -3  10  -4   40.11    2.36 
  -3  10  -4   39.31    2.34 
   3  10   4   40.31    2.30 
  -3  10  -4   39.82    2.21 
  -4 -10  -4    3.55    0.51 
   4 -10   4    3.81    0.48 
   4 -10   4    4.44    0.81 
  -4 -10  -4    3.83    0.50 
   4 -10   4    3.89    0.45 
   4 -10   4    2.95    0.57 
  -4  10  -4    3.08    0.75 
   4  10   4    3.42    0.52 
  -4  10  -4    3.52    0.69 
   4  10   4    3.74    0.59 
  -5 -10  -4    4.94    0.60 
  -5 -10  -4    5.09    0.59 
   5 -10   4    4.12    0.71 
   5 -10   4    5.11    0.62 
   5 -10   4    4.49    0.50 
   5 -10   4    4.80    1.00 
   5  10   4    4.31    0.60 
  -5  10  -4    4.17    0.78 
   5 -11  -4    1.78    0.37 
   5 -11  -4    2.39    0.56 
  -5  11   4    1.92    0.45 
  -5  11   4    1.78    0.44 
  -5  11   4    1.32    0.52 
   4 -11  -4   33.11    1.95 
   4 -11  -4   31.63    1.89 
   4 -11  -4   32.93    1.99 
  -4 -11   4   32.61    1.79 
  -4 -11   4   34.13    1.83 
  -4  11   4   30.43    1.92 
  -4  11   4   30.88    2.08 
  -4  11   4   31.36    1.91 
  -4  11   4   26.57    1.85 
   3 -11  -4   12.25    0.85 
   3 -11  -4   11.89    0.86 
  -3 -11   4   11.92    0.95 
  -3 -11   4   12.13    0.78 
   3 -11  -4   11.95    0.94 
   3 -11  -4   12.18    0.98 
  -3 -11   4   11.78    0.72 
  -3 -11   4   12.46    0.76 
  -3 -11   4   11.86    0.81 
  -3  11   4   14.07    0.92 
  -3  11   4   14.91    1.14 
  -3  11   4   13.12    0.86 
  -2 -11   4    6.73    0.54 
   2 -11  -4    7.48    0.55 
   2 -11  -4    7.23    0.59 
  -2 -11   4    7.04    0.51 
   2 -11  -4    7.69    0.69 
  -2 -11   4    6.84    0.49 
  -2 -11   4    7.31    0.47 
  -2 -11   4    7.20    0.53 
   2 -11  -4    7.51    0.67 
  -2  11   4    6.55    0.62 
  -2  11   4    6.67    0.57 
   2  11  -4    6.88    0.51 
   2  11  -4    6.46    0.48 
  -2  11   4    6.49    0.81 
  -2  11   4    5.79    0.85 
   1 -11  -4   30.03    1.78 
  -1 -11   4   30.26    1.75 
  -1 -11   4   30.91    1.72 
   1 -11  -4   29.84    1.82 
  -1 -11   4   30.88    1.73 
   1 -11  -4   30.17    1.71 
  -1 -11   4   29.56    1.71 
  -1 -11   4   30.26    1.74 
  -1  11   4   30.80    1.83 
  -1  11   4   24.74    2.29 
  -1  11   4   30.32    1.75 
  -1  11   4   30.65    1.75 
   1  11  -4   29.65    1.77 
   1  11  -4   30.95    1.75 
   0 -11   4    7.53    0.62 
   0 -11  -4    7.85    0.67 
   0 -11   4    8.00    0.63 
   0 -11   4    7.43    0.56 
   0 -11  -4    7.47    0.62 
   0 -11   4    7.42    0.65 
   0 -11  -4    7.46    0.67 
   0 -11   4    7.79    0.59 
   0  11   4   10.83    0.87 
   0  11   4   10.53    0.73 
   1 -11   4   14.00    0.93 
   1 -11   4   13.95    0.88 
   1 -11   4   14.79    1.00 
  -1 -11  -4   14.72    0.93 
  -1 -11  -4   14.42    0.91 
   1 -11   4   14.33    0.88 
  -1 -11  -4   14.24    0.94 
   1  11   4   13.01    1.08 
   1  11   4   12.54    0.92 
   1  11   4   12.32    0.97 
  -1  11  -4   12.69    0.95 
  -1  11  -4   13.01    0.97 
   2 -11   4   19.21    1.22 
   2 -11   4   20.14    1.17 
   2 -11   4   19.25    1.17 
   2 -11   4   19.14    1.32 
  -2 -11  -4   18.51    1.20 
  -2 -11  -4   18.89    1.18 
  -2 -11  -4   19.73    1.21 
   2  11   4   18.07    1.25 
  -2  11  -4   18.37    1.28 
   2  11   4   18.69    1.33 
   2  11   4   17.41    1.20 
  -2  11  -4   17.90    1.24 
   3 -11   4    3.22    0.58 
   3 -11   4    2.36    0.43 
   3 -11   4    2.93    0.43 
  -3 -11  -4    2.55    0.43 
  -3 -11  -4    3.27    0.45 
  -3 -11  -4    3.12    0.50 
   3  11   4    3.36    0.49 
   3  11   4    3.16    0.53 
  -3  11  -4    2.89    0.59 
  -3  11  -4    2.84    0.50 
   3  11   4    3.09    0.44 
   4 -11   4   20.56    1.29 
   4 -11   4   20.20    1.27 
  -4 -11  -4   20.64    1.31 
  -4 -11  -4   20.74    1.33 
  -4  11  -4   18.64    1.48 
  -4  11  -4   18.78    1.42 
   4  11   4   20.03    1.35 
  -3 -12   4   10.54    0.65 
   3 -12  -4   10.53    0.96 
   3 -12  -4   12.37    0.97 
   3 -12  -4   11.19    0.80 
  -3 -12   4   10.69    0.74 
  -3  12   4   10.02    1.17 
  -3  12   4   10.61    0.88 
  -2 -12   4   20.16    1.20 
  -2 -12   4   20.77    1.28 
  -2 -12   4   18.43    1.40 
   2 -12  -4   20.72    1.39 
  -2 -12   4   21.00    1.21 
  -2 -12   4   21.01    1.21 
   2 -12  -4   21.02    1.31 
   2 -12  -4   20.37    1.26 
   2  12  -4   21.22    1.22 
  -2  12   4   21.03    1.31 
  -2  12   4   20.67    1.35 
  -2  12   4   21.10    1.54 
  -1 -12   4    3.25    0.35 
  -1 -12   4    3.49    0.44 
  -1 -12   4    3.51    0.49 
   1 -12  -4    3.95    0.58 
   1 -12  -4    3.55    0.38 
  -1 -12   4    3.12    0.46 
  -1 -12   4    3.12    0.41 
   1 -12  -4    3.25    0.45 
  -1  12   4    3.16    0.57 
  -1  12   4    3.18    0.47 
  -1  12   4    2.94    0.37 
  -1  12   4    2.81    0.46 
   0 -12   4   13.42    0.86 
   0 -12   4   13.68    0.89 
   0 -12  -4   13.55    0.98 
   0 -12   4   12.71    0.94 
   0 -12  -4   13.72    0.93 
   0 -12   4   13.92    0.95 
   0  12   4   13.39    1.02 
   0  12   4   13.76    0.94 
  -1 -12  -4   15.61    1.05 
   1 -12   4   15.43    0.99 
   1 -12   4   15.36    1.07 
  -1 -12  -4   14.73    1.02 
   1 -12   4   15.66    1.01 
   1  12   4   15.73    1.11 
   1  12   4   15.52    1.24 
   1  12   4   15.48    1.05 
  -2 -12  -4    3.49    0.47 
   2 -12   4    2.50    0.40 
   2 -12   4    3.11    0.46 
  -2 -12  -4    3.32    0.47 
   2  12   4    2.14    0.52 
   2  12   4    2.60    0.45 
   3 -12   4   30.82    1.85 
  -3 -12  -4   31.45    1.86 
  -3 -12  -4   31.65    1.85 
   3 -12   4   29.69    1.84 
   3  12   4   29.71    1.93 
   1 -13  -4   43.26    2.58 
  -1 -13   4   42.45    2.47 
   1 -13  -4   43.25    2.53 
  -1 -13   4   42.61    2.44 
  -1  13   4   43.45    2.60 
  -1  13   4   43.66    2.75 
   0 -13  -4    0.73    0.29 
   0 -13  -4    0.66    0.31 
   0 -13   4    1.01    0.23 
   0 -13   4    0.89    0.30 
   0  13   4    1.26    0.41 
   0  13   4    1.08    0.59 
  -1 -13  -4   13.97    1.00 
   1 -13   4   14.40    0.97 
  -1 -13  -4   14.04    0.97 
   1  13   4   11.61    1.58 
   1  13   4   12.63    1.05 
  -8   0   5    0.31    0.26 
  -8   0   5    0.40    0.22 
  -8   0   5    0.42    0.26 
  -8   0   5    0.30    0.31 
  -7   0   5   18.00    1.09 
   7   0  -5   17.69    1.12 
  -7   0   5   18.74    1.11 
  -7   0   5   18.13    1.17 
  -7   0   5   18.31    1.21 
   7   0  -5   17.82    1.12 
   7   0  -5   18.05    1.10 
  -7   0   5   18.29    1.15 
  -6   0   5    6.91    0.55 
   6   0  -5    6.94    0.49 
  -6   0   5    7.06    0.59 
   6   0  -5    7.11    0.50 
  -6   0   5    7.03    0.46 
  -6   0   5    5.81    0.50 
  -6   0   5    5.79    0.59 
   6   0  -5    6.77    0.50 
  -5   0   5    5.05    0.44 
  -5   0   5    5.25    0.42 
  -5   0   5    4.89    0.47 
  -5   0   5    4.93    0.38 
  -5   0   5    5.22    0.33 
  -5   0   5    4.95    0.39 
  -5   0   5    5.22    0.35 
   5   0  -5    4.90    0.34 
   5   0  -5    5.12    0.38 
   5   0  -5    5.48    0.39 
  -4   0   5   83.58    4.57 
   4   0  -5   83.70    4.57 
  -4   0   5   82.19    4.62 
  -4   0   5   83.26    4.57 
  -4   0   5   83.29    4.60 
  -4   0   5   83.30    4.58 
  -4   0   5   84.54    4.71 
   4   0  -5   85.60    4.60 
   4   0  -5   82.11    4.58 
  -4   0   5   82.56    4.61 
  -3   0   5  103.01    5.54 
   3   0  -5  100.25    5.51 
  -3   0   5  100.44    5.50 
  -3   0   5   98.04    5.53 
  -3   0   5   99.37    5.50 
   3   0  -5  100.36    5.50 
  -3   0   5  103.47    5.62 
   3   0  -5  101.04    5.52 
  -3   0   5   99.37    5.52 
  -2   0   5   42.11    2.32 
  -2   0   5   41.95    2.33 
  -2   0   5   41.28    2.31 
  -2   0   5   40.16    2.34 
   2   0  -5   42.13    2.29 
   2   0  -5   43.09    2.33 
  -2   0   5   43.95    2.41 
   2   0  -5   41.85    2.32 
  -2   0   5   40.82    2.33 
  -1   0   5  240.89   13.19 
   1   0  -5  242.58   13.17 
   1   0  -5  244.33   13.12 
  -1   0   5  239.79   13.19 
  -1   0   5  238.74   13.34 
   1   0  -5  248.93   13.13 
  -1   0   5  224.35   13.09 
   1   0  -5  238.82   13.42 
  -1   0   5  236.65   13.13 
   1   0  -5  244.43   13.25 
   0   0   5    0.57    0.10 
   0   0  -5    0.77    0.14 
   0   0   5    0.70    0.10 
   0   0   5    0.55    0.11 
   0   0  -5    0.66    0.16 
   0   0   5    0.55    0.10 
   0   0  -5    0.79    0.10 
   0   0  -5    0.71    0.10 
   1   0   5   16.66    1.00 
   1   0   5   15.64    0.95 
  -1   0  -5   16.93    1.04 
  -1   0  -5   17.38    0.97 
  -1   0  -5   16.14    0.98 
   1   0   5   16.62    0.97 
   1   0   5   17.20    0.96 
  -1   0  -5   17.04    0.95 
  -2   0  -5  143.04    7.62 
   2   0   5  135.52    7.63 
  -2   0  -5  143.98    7.63 
  -2   0  -5  142.47    7.65 
   2   0   5  138.18    7.66 
   2   0   5  138.83    7.61 
  -2   0  -5  134.43    7.62 
   2   0   5  136.63    7.62 
  -3   0  -5   17.31    1.02 
  -3   0  -5   16.54    0.97 
   3   0   5   16.67    0.98 
   3   0   5   15.46    1.00 
   3   0   5   16.88    1.04 
  -3   0  -5   16.34    0.98 
  -3   0  -5   16.74    0.99 
   3   0   5   16.46    0.97 
   4   0   5   15.74    1.01 
  -4   0  -5   16.05    0.97 
  -4   0  -5   16.47    1.03 
   4   0   5   16.35    0.97 
  -4   0  -5   17.21    1.00 
  -4   0  -5   15.50    0.98 
   4   0   5   16.63    0.98 
   4   0   5   15.77    1.04 
   4   0   5   15.96    0.98 
   5   0   5   36.75    2.14 
   5   0   5   37.50    2.06 
   5   0   5   30.40    2.13 
   5   0   5   36.81    2.10 
   5   0   5   38.44    2.06 
  -5   0  -5   34.27    2.27 
  -6   0  -5    5.63    0.56 
  -6   0  -5    5.31    0.58 
   6   0   5    5.56    0.51 
   6   0   5    5.25    0.52 
   6   0   5    5.72    0.47 
   6   0   5    5.57    0.53 
  -6   0  -5    5.30    0.50 
   6   0   5    5.60    0.58 
   7   0   5   10.92    0.78 
   7   0   5   11.15    0.86 
   7   0   5   10.44    0.84 
  -7   0  -5   11.20    0.81 
  -7   0  -5   11.31    0.93 
  -7   0  -5   11.37    0.87 
  -8   0  -5    5.10    0.63 
  -8   0  -5    4.59    0.59 
   8   0   5    5.90    0.61 
  -8  -1   5    9.64    0.79 
  -8  -1   5    9.87    0.76 
  -8  -1   5   10.26    0.89 
  -8  -1   5    9.92    0.87 
  -8   1   5   13.01    0.87 
  -8   1   5   13.54    0.93 
  -7  -1   5   10.87    0.72 
  -7  -1   5   11.65    0.81 
   7  -1  -5   11.16    0.76 
  -7  -1   5   11.68    0.73 
  -7  -1   5   11.15    0.77 
  -7  -1   5   11.50    0.86 
   7  -1  -5   11.05    0.78 
   7  -1  -5   11.65    0.76 
  -7   1   5   11.34    0.82 
   7   1  -5   10.99    0.75 
   7   1  -5   11.18    0.76 
   7   1  -5   11.30    0.69 
  -7   1   5   10.51    0.81 
   7   1  -5   10.98    0.72 
  -7   1   5   11.12    0.86 
  -7   1   5   10.68    0.73 
  -7   1   5   10.82    0.74 
  -6  -1   5   21.82    1.41 
   6  -1  -5   21.54    1.37 
  -6  -1   5   22.65    1.44 
  -6  -1   5   21.62    1.33 
  -6  -1   5   21.95    1.34 
  -6  -1   5   21.51    1.37 
  -6   1   5   24.10    1.42 
   6   1  -5   24.46    1.36 
  -6   1   5   24.83    1.35 
   6   1  -5   24.53    1.34 
  -6   1   5   24.67    1.43 
  -6   1   5   24.08    1.46 
   6   1  -5   25.25    1.37 
  -6   1   5   23.77    1.36 
  -5  -1   5  105.43    5.46 
   5  -1  -5  104.54    5.50 
  -5  -1   5  108.12    5.53 
  -5  -1   5  107.66    5.50 
  -5  -1   5  107.51    5.47 
  -5  -1   5  108.13    5.48 
  -5  -1   5  106.85    5.56 
  -5  -1   5  107.36    5.48 
   5  -1  -5  112.68    5.51 
   5  -1  -5  107.42    5.51 
  -5  -1   5  105.68    5.49 
   5   1  -5   92.64    5.45 
  -5   1   5   95.01    5.47 
  -5   1   5   90.14    5.49 
  -5   1   5   91.03    5.53 
  -5   1   5   92.32    5.51 
   5   1  -5   90.77    5.46 
  -5   1   5   88.38    5.52 
  -5   1   5   92.71    5.48 
   5   1  -5   93.34    5.49 
  -5   1   5   86.68    5.54 
  -4  -1   5    1.96    0.34 
  -4  -1   5    1.75    0.22 
   4  -1  -5    1.69    0.14 
   4  -1  -5    1.91    0.21 
  -4  -1   5    1.90    0.19 
   4  -1  -5    1.74    0.19 
  -4  -1   5    1.73    0.18 
  -4  -1   5    1.86    0.16 
   4  -1  -5    1.88    0.15 
  -4  -1   5    1.87    0.20 
  -4  -1   5    1.67    0.28 
   4  -1  -5    1.62    0.25 
  -4  -1   5    1.77    0.25 
  -4   1   5    1.37    0.22 
   3  -1  -5   55.26    2.81 
  -3  -1   5   53.69    2.85 
   3  -1  -5   54.42    2.86 
   3  -1  -5   50.56    2.85 
  -3  -1   5   55.24    2.84 
  -3  -1   5   55.65    2.87 
  -3  -1   5   54.55    2.82 
   3  -1  -5   55.27    2.82 
  -3  -1   5   56.25    2.82 
  -3  -1   5   53.47    3.01 
  -3   1   5   46.58    2.87 
  -3   1   5   47.84    2.85 
  -3   1   5   47.24    2.84 
   3   1  -5   48.11    2.81 
  -3   1   5   46.83    2.83 
   3   1  -5   48.40    2.82 
  -3   1   5   49.15    2.93 
  -3   1   5   46.05    2.86 
   2  -1  -5  110.39    6.14 
  -2  -1   5  112.84    6.14 
  -2  -1   5  104.90    6.23 
  -2  -1   5  106.93    6.15 
  -2  -1   5  108.83    6.17 
   2  -1  -5  109.72    6.16 
  -2  -1   5  108.46    6.14 
   2  -1  -5  107.23    6.14 
  -2  -1   5  108.12    6.13 
   2  -1  -5  111.83    6.15 
  -2   1   5  110.37    6.17 
  -2   1   5  117.76    6.16 
  -2   1   5  114.80    6.16 
   2   1  -5  119.54    6.14 
   2   1  -5  117.93    6.14 
  -2   1   5  116.18    6.19 
  -2   1   5  117.80    6.24 
  -2   1   5  116.60    6.15 
  -2   1   5  117.14    6.17 
   1  -1  -5   13.01    0.81 
  -1  -1   5   13.87    0.86 
  -1  -1   5   13.36    0.77 
   1  -1  -5   13.19    0.76 
   1  -1  -5   13.18    0.77 
   1  -1  -5   12.47    0.86 
  -1  -1   5   12.88    0.78 
   1  -1  -5   13.17    0.77 
  -1  -1   5   13.13    0.76 
   1   1  -5   13.70    0.88 
  -1   1   5   13.76    0.79 
  -1   1   5   13.32    0.80 
  -1   1   5   13.32    0.79 
   1   1  -5   13.94    0.77 
  -1   1   5   13.13    0.78 
  -1   1   5   14.36    0.85 
   1   1  -5   13.70    0.79 
   0  -1   5  114.55    6.50 
   0  -1  -5  119.28    6.51 
   0  -1  -5  114.42    6.57 
   0  -1  -5  116.08    6.50 
   0  -1   5  114.98    6.50 
   0  -1  -5  114.88    6.53 
   0  -1   5  116.44    6.51 
   0  -1   5  111.38    6.52 
   0   1  -5  122.19    6.51 
   0   1   5  123.59    6.54 
   0   1   5  120.14    6.51 
   0   1   5  120.15    6.51 
   0   1  -5  121.60    6.59 
   0   1   5  127.95    6.53 
   0   1  -5  124.38    6.53 
   0   1  -5  121.78    6.49 
  -1  -1  -5  207.60   10.38 
   1  -1   5  206.39   10.41 
   1  -1   5  201.48   10.38 
  -1  -1  -5  209.75   10.35 
  -1  -1  -5  207.17   10.66 
  -1  -1  -5  207.16   10.46 
   1  -1   5  201.96   10.36 
   1  -1   5  204.71   10.41 
  -1   1  -5  159.83   10.40 
  -1   1  -5  181.08   10.35 
   1   1   5  179.23   10.35 
  -1   1  -5  172.96   10.33 
   1   1   5  168.91   10.34 
  -1   1  -5  173.31   10.36 
   1   1   5  177.80   10.36 
   1   1   5  174.43   10.37 
   2  -1   5   10.47    0.60 
  -2  -1  -5   10.77    0.63 
   2  -1   5   10.40    0.59 
  -2  -1  -5   10.35    0.60 
  -2  -1  -5   11.00    0.59 
   2  -1   5   10.62    0.65 
   2  -1   5   10.14    0.58 
  -2  -1  -5   10.94    0.61 
   2   1   5    8.06    0.60 
  -2   1  -5    8.36    0.57 
  -2   1  -5    8.58    0.58 
   2   1   5    8.56    0.63 
  -2   1  -5    7.95    0.59 
  -2   1  -5    8.49    0.61 
   2   1   5    8.29    0.58 
   2   1   5    8.65    0.59 
   3  -1   5  116.72    6.30 
   3  -1   5  123.74    6.33 
  -3  -1  -5  121.30    6.32 
   3  -1   5  122.55    6.37 
  -3  -1  -5  126.35    6.31 
   3  -1   5  119.19    6.30 
  -3  -1  -5  117.18    6.31 
  -3  -1  -5  122.23    6.35 
   3   1   5  107.24    6.33 
   3   1   5  105.48    6.30 
  -3   1  -5  106.46    6.30 
  -3   1  -5  108.17    6.31 
  -3   1  -5  107.61    6.29 
   3   1   5  105.70    6.29 
  -3   1  -5  111.35    6.33 
   4  -1   5   11.53    0.72 
  -4  -1  -5   10.90    0.72 
   4  -1   5   10.92    0.78 
   4  -1   5   11.24    0.71 
  -4  -1  -5   11.27    0.71 
  -4  -1  -5   10.95    0.75 
   4  -1   5   11.24    0.70 
   4  -1   5   10.70    0.73 
   4   1   5   11.14    0.78 
  -4   1  -5   10.87    0.71 
   4   1   5   11.28    0.70 
   4   1   5   11.40    0.71 
  -4   1  -5   10.26    0.77 
  -4   1  -5   11.40    0.70 
   4   1   5   11.13    0.70 
   4   1   5   11.22    0.74 
  -4   1  -5   11.20    0.76 
   5  -1   5    0.78    0.19 
   5  -1   5    0.81    0.20 
   5  -1   5    0.44    0.21 
  -5  -1  -5    0.44    0.17 
  -5  -1  -5    0.46    0.20 
   5  -1   5    0.80    0.21 
   5  -1   5    0.48    0.16 
  -5  -1  -5    0.53    0.21 
  -6  -1  -5   49.36    2.92 
  -6  -1  -5   49.22    2.95 
  -6  -1  -5   47.51    2.95 
   6  -1   5   51.19    2.89 
  -6  -1  -5   48.29    2.90 
   6  -1   5   48.82    3.00 
   6  -1   5   49.11    2.91 
   6  -1   5   47.85    2.95 
   6   1   5   53.30    3.01 
  -6   1  -5   52.42    2.92 
   6   1   5   53.34    2.92 
   6   1   5   55.47    2.89 
  -6   1  -5   55.11    2.96 
   6   1   5   53.00    2.91 
   6   1   5   51.70    2.97 
  -6   1  -5   54.55    2.98 
  -7  -1  -5    3.13    0.47 
  -7  -1  -5    3.38    0.49 
  -7  -1  -5    2.92    0.43 
   7  -1   5    3.40    0.42 
   7  -1   5    2.55    0.38 
  -7   1  -5    2.19    0.41 
   7   1   5    2.33    0.38 
   7   1   5    1.99    0.36 
  -7   1  -5    2.73    0.48 
  -7   1  -5    2.25    0.43 
   7   1   5    2.86    0.43 
   8  -1   5    1.56    0.50 
  -8  -1  -5    1.85    0.37 
  -8  -1  -5    1.50    0.33 
   8  -1   5    2.15    0.37 
  -8   1  -5    2.93    0.54 
  -8   1  -5    2.29    0.37 
   8   1   5    2.59    0.37 
  -8  -2   5    1.47    0.27 
  -8  -2   5    1.20    0.26 
  -8  -2   5    1.42    0.33 
  -8  -2   5    1.60    0.37 
  -8  -2   5    1.67    0.31 
  -8   2   5    1.20    0.33 
  -8   2   5    1.57    0.37 
  -8   2   5    1.91    0.37 
  -7  -2   5   20.61    1.27 
  -7  -2   5   20.80    1.24 
  -7  -2   5   20.91    1.25 
  -7  -2   5   19.87    1.32 
  -7  -2   5   20.35    1.38 
  -7   2   5   22.09    1.37 
  -7   2   5   21.51    1.39 
   7   2  -5   21.61    1.23 
  -7   2   5   21.91    1.28 
   7   2  -5   21.97    1.22 
  -7   2   5   22.04    1.36 
  -7   2   5   22.10    1.30 
  -6  -2   5   18.01    1.17 
  -6  -2   5   17.94    1.07 
  -6  -2   5   17.18    1.11 
  -6  -2   5   17.43    1.06 
   6  -2  -5   17.86    1.02 
  -6  -2   5   17.65    1.04 
   6  -2  -5   17.08    1.03 
  -6  -2   5   18.02    1.04 
   6   2  -5   18.64    1.03 
   6   2  -5   18.31    1.03 
  -6   2   5   17.95    1.17 
  -6   2   5   18.39    1.16 
  -6   2   5   18.68    1.15 
  -6   2   5   18.39    1.08 
  -6   2   5   18.87    1.09 
   6   2  -5   18.55    1.08 
   5  -2  -5   19.94    1.10 
   5  -2  -5   19.47    1.16 
  -5  -2   5   19.98    1.12 
   5  -2  -5   19.76    1.11 
   5  -2  -5   20.29    1.16 
  -5  -2   5   19.85    1.17 
  -5  -2   5   19.80    1.10 
  -5  -2   5   19.49    1.13 
  -5  -2   5   19.40    1.21 
  -5  -2   5   19.87    1.14 
   5   2  -5   19.44    1.09 
  -5   2   5   18.83    1.16 
   5   2  -5   19.10    1.10 
  -5   2   5   18.99    1.14 
  -5   2   5   18.43    1.21 
  -5   2   5   18.73    1.20 
  -5   2   5   19.70    1.13 
  -5   2   5   19.53    1.18 
   5   2  -5   19.80    1.14 
  -5   2   5   19.55    1.19 
   4  -2  -5  155.81    8.22 
  -4  -2   5  159.15    8.25 
   4  -2  -5  159.14    8.24 
  -4  -2   5  156.90    8.21 
  -4  -2   5  159.06    8.37 
  -4  -2   5  158.83    8.21 
  -4  -2   5  156.90    8.22 
   4  -2  -5  156.29    8.26 
  -4  -2   5  154.99    8.29 
  -4  -2   5  156.51    8.21 
  -4  -2   5  156.01    8.26 
   4  -2  -5  159.35    8.22 
   4  -2  -5  160.09    8.26 
  -4   2   5  141.07    8.27 
   4   2  -5  142.42    8.20 
   4   2  -5  141.80    8.20 
  -4   2   5  137.85    8.33 
  -4   2   5  142.32    8.27 
  -4   2   5  128.16    8.27 
  -4   2   5  141.39    8.25 
  -4   2   5  137.54    8.28 
   3  -2  -5   34.18    1.85 
  -3  -2   5   31.93    1.88 
  -3  -2   5   34.06    2.00 
  -3  -2   5   32.80    1.82 
   3  -2  -5   33.22    1.84 
  -3  -2   5   32.18    1.83 
   3  -2  -5   28.50    1.89 
   3  -2  -5   30.64    1.88 
   3  -2  -5   32.34    1.87 
  -3  -2   5   33.45    1.84 
  -3  -2   5   33.01    1.84 
   3   2  -5   35.14    1.82 
  -3   2   5   33.42    1.91 
  -3   2   5   34.96    1.89 
  -3   2   5   33.00    1.95 
   3   2  -5   36.02    1.83 
  -3   2   5   34.39    1.90 
  -3   2   5   34.05    1.87 
  -3   2   5   34.56    1.86 
  -2  -2   5   31.29    1.72 
  -2  -2   5   31.52    1.76 
   2  -2  -5   33.60    1.75 
   2  -2  -5   30.45    1.76 
  -2  -2   5   32.54    1.84 
   2  -2  -5   31.26    1.75 
  -2  -2   5   32.76    1.72 
  -2  -2   5   33.37    1.73 
   2  -2  -5   32.11    1.76 
  -2  -2   5   32.16    1.73 
   2  -2  -5   32.39    1.74 
   2   2  -5   29.46    1.72 
  -2   2   5   30.52    1.77 
  -2   2   5   28.53    1.79 
  -2   2   5   29.85    1.74 
  -2   2   5   31.16    1.82 
  -2   2   5   30.51    1.77 
   2   2  -5   31.31    1.72 
  -2   2   5   29.28    1.75 
   2   2  -5   30.76    1.73 
  -1  -2   5  103.38    5.75 
  -1  -2   5  110.51    5.84 
  -1  -2   5  106.32    5.74 
   1  -2  -5  110.16    5.80 
   1  -2  -5  104.76    5.83 
   1  -2  -5  104.47    5.75 
  -1  -2   5  105.94    5.73 
   1  -2  -5  104.58    5.76 
   1  -2  -5  105.34    5.75 
  -1   2   5  105.62    5.77 
  -1   2   5  104.80    5.78 
   1   2  -5  105.61    5.74 
  -1   2   5  102.91    5.76 
  -1   2   5  106.99    5.82 
  -1   2   5  100.39    5.77 
   1   2  -5   99.63    5.84 
   0  -2  -5   77.55    3.89 
   0  -2   5   79.84    3.89 
   0  -2   5   76.67    3.87 
   0  -2  -5   74.57    3.93 
   0  -2  -5   77.13    3.96 
   0  -2   5   77.95    3.91 
   0  -2  -5   80.16    3.89 
   0  -2   5   78.05    3.88 
   0   2   5   64.65    3.91 
   0   2   5   65.29    3.89 
   0   2   5   61.85    3.88 
   0   2  -5   64.47    3.89 
   0   2   5   62.45    3.88 
   0   2  -5   66.94    3.97 
   0   2  -5   64.96    3.86 
   0   2   5   62.96    3.90 
   0   2  -5   65.78    3.88 
  -1  -2  -5   43.09    2.29 
   1  -2   5   44.58    2.24 
  -1  -2  -5   44.16    2.32 
   1  -2   5   44.65    2.29 
   1   2   5   33.39    2.27 
  -1   2  -5   32.45    2.24 
  -2  -2  -5  145.02    7.83 
  -2  -2  -5  145.68    7.84 
  -2  -2  -5  148.93    7.83 
   2  -2   5  143.98    7.87 
   2  -2   5  144.37    7.82 
  -2  -2  -5  138.45    7.86 
   2  -2   5  139.13    7.82 
   2  -2   5  146.42    7.83 
  -2   2  -5  146.02    7.85 
   2   2   5  142.97    7.85 
   2   2   5  135.89    7.86 
   2   2   5  137.87    7.82 
  -2   2  -5  142.56    7.82 
   2   2   5  146.28    7.83 
  -2   2  -5  140.74    7.83 
  -2   2  -5  142.02    7.82 
  -3  -2  -5    9.68    0.61 
  -3  -2  -5    9.28    0.56 
  -3  -2  -5    9.84    0.58 
   3  -2   5    9.24    0.57 
  -3  -2  -5    8.77    0.58 
   3  -2   5    9.59    0.63 
   3  -2   5    9.21    0.56 
   3  -2   5    9.74    0.58 
   3  -2   5    9.34    0.58 
  -3   2  -5    8.13    0.60 
   3   2   5    7.86    0.55 
  -3   2  -5    7.34    0.59 
  -3   2  -5    7.89    0.55 
   3   2   5    7.32    0.59 
   3   2   5    8.57    0.57 
  -3   2  -5    7.96    0.54 
   3   2   5    7.56    0.60 
   4  -2   5   26.89    1.66 
  -4  -2  -5   26.60    1.60 
   4  -2   5   26.01    1.60 
   4  -2   5   26.65    1.59 
  -4  -2  -5   26.39    1.58 
   4  -2   5   25.97    1.60 
  -4  -2  -5   26.85    1.63 
   4  -2   5   26.03    1.58 
  -4   2  -5   28.04    1.58 
  -4   2  -5   27.77    1.61 
   4   2   5   27.96    1.63 
   4   2   5   28.75    1.58 
  -4   2  -5   28.92    1.58 
  -4   2  -5   28.29    1.63 
   4   2   5   28.11    1.59 
   4   2   5   29.80    1.58 
   4   2   5   27.85    1.65 
   5  -2   5   31.39    1.93 
   5  -2   5   32.21    2.03 
  -5  -2  -5   32.22    1.98 
  -5  -2  -5   31.36    1.95 
   5  -2   5   30.88    1.94 
   5  -2   5   31.56    1.96 
  -5  -2  -5   31.54    1.97 
   5  -2   5   32.10    1.97 
   5   2   5   37.15    1.96 
  -5   2  -5   35.58    1.98 
   5   2   5   36.26    1.94 
   5   2   5   35.55    2.03 
  -5   2  -5   36.37    1.95 
  -5   2  -5   36.78    2.01 
   5   2   5   36.07    1.94 
   6  -2   5    8.86    0.71 
   6  -2   5    9.38    0.70 
   6  -2   5    9.11    0.68 
  -6  -2  -5    8.82    0.67 
  -6  -2  -5    8.67    0.62 
  -6  -2  -5    9.04    0.71 
   6  -2   5    9.35    0.65 
  -6  -2  -5    9.14    0.72 
   6  -2   5    8.74    0.78 
  -6   2  -5    9.27    0.74 
   6   2   5    8.75    0.71 
   6   2   5    8.39    0.68 
  -6   2  -5    8.92    0.66 
  -6   2  -5    8.52    0.63 
   6   2   5    9.12    0.69 
   6   2   5    9.10    0.64 
   6   2   5    8.23    0.65 
  -6   2  -5    9.56    0.74 
  -7  -2  -5   42.82    2.38 
   7  -2   5   44.21    2.31 
   7  -2   5   43.13    2.36 
  -7  -2  -5   41.36    2.34 
  -7  -2  -5   43.19    2.40 
   7   2   5   36.65    2.28 
  -7   2  -5   37.00    2.39 
  -7   2  -5   36.12    2.32 
   7   2   5   37.29    2.34 
  -7   2  -5   36.87    2.38 
   8  -2   5    9.25    0.83 
   8  -2   5    9.46    0.99 
   8   2   5   11.19    0.83 
  -8   2  -5   11.55    0.93 
   8   2   5   11.44    0.93 
  -8   2  -5   10.60    0.87 
  -8  -3   5   22.04    1.21 
  -8  -3   5   20.89    1.23 
  -8  -3   5   21.16    1.32 
  -8  -3   5   21.32    1.39 
  -8  -3   5   21.48    1.21 
   8   3  -5   18.12    1.25 
  -8   3   5   17.78    1.36 
  -8   3   5   18.91    1.35 
  -8   3   5   18.50    1.33 
  -7  -3   5    3.28    0.34 
   7  -3  -5    3.43    0.33 
  -7  -3   5    3.30    0.35 
  -7  -3   5    3.41    0.33 
  -7  -3   5    3.34    0.34 
   7  -3  -5    3.38    0.34 
  -7  -3   5    3.80    0.46 
   7  -3  -5    3.37    0.53 
  -7  -3   5    2.87    0.49 
  -7   3   5    4.95    0.52 
  -6  -3   5   32.08    1.93 
  -6  -3   5   34.09    1.79 
  -6  -3   5   32.34    1.80 
   6  -3  -5   32.86    1.81 
  -6  -3   5   33.80    1.85 
   6  -3  -5   32.99    1.88 
  -6  -3   5   32.39    1.87 
   6  -3  -5   32.72    1.89 
   6  -3  -5   31.92    1.89 
  -6  -3   5   33.59    1.80 
   6  -3  -5   32.27    1.81 
   6  -3  -5   26.95    1.82 
  -6  -3   5   32.85    1.80 
  -6   3   5   31.35    1.86 
  -6   3   5   31.21    1.84 
  -6   3   5   31.69    1.93 
  -6   3   5   31.63    1.93 
   6   3  -5   32.48    1.84 
  -6   3   5   31.48    1.90 
   5  -3  -5   27.83    1.63 
  -5  -3   5   28.46    1.61 
  -5  -3   5   27.15    1.55 
  -5  -3   5   27.27    1.62 
   5  -3  -5   28.35    1.58 
  -5  -3   5   27.70    1.55 
  -5  -3   5   28.08    1.56 
  -5  -3   5   28.06    1.55 
  -5  -3   5   28.19    1.66 
   5  -3  -5   28.04    1.57 
   5  -3  -5   27.19    1.60 
  -5  -3   5   27.52    1.74 
  -5   3   5   29.27    1.60 
  -5   3   5   28.56    1.69 
  -5   3   5   22.98    1.80 
  -5   3   5   29.16    1.61 
  -5   3   5   29.31    1.65 
  -4  -3   5    0.25    0.15 
   4  -3  -5    0.17    0.11 
   4  -3  -5    0.21    0.09 
   4  -3  -5    0.35    0.15 
  -4  -3   5    0.35    0.19 
  -4  -3   5    0.29    0.13 
  -4  -3   5    0.32    0.07 
   4  -3  -5    0.24    0.09 
   4  -3  -5    0.46    0.14 
  -4  -3   5    0.24    0.13 
  -4  -3   5    0.27    0.06 
  -4   3   5    0.20    0.13 
  -4   3   5    0.18    0.14 
  -4   3   5    0.18    0.17 
  -4   3   5    0.24    0.17 
  -4   3   5    0.24    0.10 
  -4   3   5    0.17    0.12 
  -3  -3   5   70.76    3.79 
   3  -3  -5   69.58    3.79 
  -3  -3   5   71.11    3.80 
  -3  -3   5   74.15    3.88 
   3  -3  -5   71.78    3.77 
   3  -3  -5   71.04    3.77 
  -3  -3   5   70.20    3.78 
   3  -3  -5   71.86    3.78 
   3  -3  -5   70.61    3.76 
  -3   3   5   61.32    3.79 
  -3   3   5   60.45    3.81 
  -3   3   5   65.84    3.78 
  -3   3   5   66.83    3.80 
  -3   3   5   61.81    3.79 
  -3   3   5   66.85    3.84 
   2  -3  -5  268.14   13.89 
  -2  -3   5  266.06   13.81 
   2  -3  -5  257.49   13.80 
   2  -3  -5  261.32   13.82 
  -2  -3   5  254.22   13.85 
  -2  -3   5  258.12   13.88 
  -2  -3   5  265.92   13.82 
   2  -3  -5  259.86   13.80 
   2  -3  -5  259.53   13.85 
  -2   3   5  237.69   13.80 
  -2   3   5  236.89   13.82 
  -2   3   5  247.03   13.81 
  -2   3   5  245.13   13.79 
  -2   3   5  246.53   13.89 
  -2   3   5  230.90   13.84 
   1  -3  -5   29.40    1.68 
  -1  -3   5   29.07    1.67 
  -1  -3   5   29.32    1.65 
   1  -3  -5   28.57    1.72 
   1  -3  -5   30.20    1.67 
   1  -3  -5   29.44    1.74 
   1  -3  -5   29.02    1.68 
  -1  -3   5   29.56    1.76 
  -1  -3   5   29.73    1.65 
  -1   3   5   31.35    1.70 
  -1   3   5   30.66    1.73 
  -1   3   5   30.15    1.69 
   1   3  -5   30.97    1.78 
  -1   3   5   29.61    1.68 
  -1   3   5   29.80    1.71 
   1   3  -5   30.40    1.65 
   1   3  -5   30.29    1.66 
   0  -3   5   43.35    2.44 
   0  -3  -5   41.34    2.47 
   0  -3  -5   42.15    2.43 
   0  -3  -5   41.75    2.48 
   0  -3  -5   44.95    2.43 
   0  -3  -5   43.06    2.42 
   0  -3   5   43.16    2.41 
   0  -3   5   43.97    2.42 
   0  -3   5   43.76    2.41 
   0   3   5   44.40    2.45 
   0   3   5   46.04    2.45 
   0   3  -5   45.67    2.42 
   0   3   5   44.91    2.43 
   0   3   5   41.34    2.46 
   0   3   5   45.25    2.44 
   0   3  -5   44.42    2.52 
  -1  -3  -5  118.54    6.42 
   1  -3   5  118.41    6.36 
   1  -3   5  114.60    6.35 
  -1  -3  -5  120.96    6.38 
  -1  -3  -5  115.07    6.41 
   1  -3   5  115.83    6.40 
   1  -3   5  117.74    6.36 
  -1  -3  -5  119.54    6.36 
  -1   3  -5  115.27    6.45 
   1   3   5  113.89    6.37 
   1   3   5  116.20    6.36 
   1   3   5  115.25    6.38 
  -1   3  -5  113.03    6.36 
   1   3   5  118.11    6.39 
  -1   3  -5  112.75    6.38 
   1   3   5  113.85    6.40 
  -1   3  -5  115.59    6.34 
  -2  -3  -5    7.92    0.60 
   2  -3   5    8.04    0.60 
  -2  -3  -5    7.75    0.56 
  -2  -3  -5    7.99    0.56 
   2  -3   5    7.68    0.54 
   2  -3   5    7.86    0.55 
  -2  -3  -5    7.88    0.55 
   2  -3   5    7.83    0.55 
   2   3   5   10.30    0.58 
   2   3   5    9.85    0.61 
   2   3   5    9.80    0.59 
  -2   3  -5   10.27    0.60 
  -2   3  -5   10.06    0.55 
  -2   3  -5   10.04    0.55 
   3  -3   5   59.58    3.36 
  -3  -3  -5   61.05    3.39 
   3  -3   5   59.11    3.41 
  -3  -3  -5   57.62    3.36 
   3  -3   5   58.23    3.34 
  -3  -3  -5   62.12    3.35 
  -3  -3  -5   58.14    3.36 
   3  -3   5   58.35    3.34 
   3  -3   5   59.06    3.35 
   3   3   5   62.82    3.41 
  -3   3  -5   61.39    3.38 
  -3   3  -5   62.48    3.36 
  -3   3  -5   62.05    3.34 
   3   3   5   61.48    3.34 
   3   3   5   59.72    3.35 
  -3   3  -5   60.40    3.34 
   3   3   5   59.52    3.38 
   4  -3   5   29.11    1.52 
  -4  -3  -5   30.00    1.59 
  -4  -3  -5   28.91    1.54 
   4  -3   5   29.47    1.55 
   4  -3   5   29.20    1.62 
  -4  -3  -5   30.16    1.53 
   4  -3   5   29.76    1.54 
   4  -3   5   29.61    1.55 
  -4  -3  -5   29.05    1.55 
   4   3   5   22.93    1.49 
  -4   3  -5   21.94    1.53 
   4   3   5   23.15    1.57 
   4   3   5   22.56    1.52 
  -4   3  -5   23.03    1.50 
  -4   3  -5   22.82    1.56 
   4   3   5   22.61    1.50 
  -4   3  -5   22.69    1.50 
   5  -3   5    6.31    0.47 
  -5  -3  -5    6.12    0.50 
   5  -3   5    6.01    0.48 
  -5  -3  -5    6.39    0.50 
   5  -3   5    6.43    0.57 
  -5   3  -5    4.12    0.42 
   5   3   5    4.29    0.41 
   5   3   5    4.43    0.46 
   5   3   5    4.49    0.47 
  -5   3  -5    4.72    0.47 
   5   3   5    3.92    0.44 
  -5   3  -5    4.18    0.50 
  -6  -3  -5   55.51    2.95 
  -6  -3  -5   52.74    2.91 
  -6  -3  -5   49.70    2.96 
   6  -3   5   55.03    2.89 
  -6  -3  -5   54.00    2.93 
   6  -3   5   52.52    3.01 
   6  -3   5   53.29    2.94 
   6  -3   5   54.31    2.90 
   6  -3   5   53.80    2.92 
   6   3   5   47.65    2.88 
  -6   3  -5   48.16    2.88 
   6   3   5   46.75    2.85 
  -6   3  -5   48.26    2.93 
  -6   3  -5   43.05    2.94 
  -6   3  -5   47.29    2.94 
   6   3   5   49.87    2.86 
   7  -3   5   19.76    1.25 
  -7  -3  -5   19.36    1.47 
   7  -3   5   19.11    1.30 
  -7  -3  -5   18.23    1.26 
  -7  -3  -5   18.94    1.30 
  -7   3  -5   21.23    1.38 
   7   3   5   20.08    1.22 
   7   3   5   20.76    1.30 
  -7   3  -5   20.47    1.35 
   7   3   5   20.21    1.26 
  -7   3  -5   20.04    1.27 
  -8  -4   5    0.72    0.35 
   8  -4  -5    0.98    0.29 
  -8  -4   5    1.06    0.35 
  -8  -4   5    0.97    0.20 
  -8  -4   5    0.97    0.21 
  -8   4   5    0.72    0.33 
  -8   4   5    0.81    0.34 
  -8   4   5    0.60    0.35 
  -7  -4   5   32.00    1.92 
  -7  -4   5   31.15    1.73 
   7  -4  -5   29.40    1.88 
  -7  -4   5   32.28    1.74 
  -7  -4   5   31.37    1.76 
  -7  -4   5   31.21    1.83 
   7  -4  -5   31.03    1.77 
  -7  -4   5   31.96    1.73 
   7  -4  -5   31.13    1.78 
  -7   4   5   29.73    1.88 
  -7   4   5   30.79    1.85 
  -7   4   5   30.29    1.92 
  -7   4   5   31.08    1.92 
  -6  -4   5   51.59    2.94 
   6  -4  -5   51.50    2.97 
   6  -4  -5   52.18    2.90 
  -6  -4   5   50.25    3.09 
   6  -4  -5   51.75    2.89 
  -6  -4   5   51.72    2.94 
  -6  -4   5   51.43    2.87 
  -6  -4   5   51.05    2.99 
   6  -4  -5   49.90    2.92 
  -6   4   5   56.25    2.95 
  -6   4   5   54.79    2.93 
  -6   4   5   55.73    3.04 
  -6   4   5   43.20    3.20 
  -6   4   5   54.05    2.99 
  -6   4   5   54.02    3.01 
  -5  -4   5   35.40    2.16 
  -5  -4   5   36.54    2.08 
  -5  -4   5   36.60    2.05 
   5  -4  -5   36.05    2.00 
   5  -4  -5   36.21    2.06 
   5  -4  -5   37.34    2.02 
  -5  -4   5   36.73    1.96 
   5  -4  -5   37.36    2.03 
  -5  -4   5   36.69    2.03 
  -5   4   5   34.77    2.03 
  -5   4   5   33.78    2.01 
  -5   4   5   33.79    2.07 
  -5   4   5   33.41    2.07 
  -5   4   5   33.55    2.10 
  -4  -4   5   25.80    1.37 
   4  -4  -5   25.69    1.35 
   4  -4  -5   26.05    1.36 
  -4  -4   5   25.17    1.41 
  -4  -4   5   26.69    1.50 
   4  -4  -5   23.99    1.37 
  -4  -4   5   24.88    1.42 
   4  -4  -5   25.36    1.37 
   4  -4  -5   24.80    1.40 
  -4   4   5   21.84    1.31 
  -4   4   5   21.40    1.35 
  -4   4   5   21.03    1.39 
  -4   4   5   21.76    1.40 
  -4   4   5   21.15    1.37 
  -4   4   5   21.41    1.44 
  -4   4   5   19.89    1.42 
   3  -4  -5   47.49    2.60 
  -3  -4   5   45.65    2.63 
   3  -4  -5   46.65    2.60 
   3  -4  -5   48.27    2.60 
   3  -4  -5   47.76    2.61 
  -3  -4   5   48.00    2.62 
  -3  -4   5   48.20    2.60 
  -3  -4   5   46.97    2.69 
   3  -4  -5   46.20    2.62 
  -3   4   5   45.18    2.61 
  -3   4   5   47.20    2.58 
  -3   4   5   46.21    2.59 
  -3   4   5   45.93    2.63 
  -3   4   5   44.26    2.66 
  -3   4   5   47.22    2.67 
  -3   4   5   43.67    2.63 
   2  -4  -5    3.30    0.27 
   2  -4  -5    3.27    0.25 
   2  -4  -5    3.20    0.25 
  -2  -4   5    3.25    0.34 
  -2  -4   5    3.33    0.26 
   2  -4  -5    2.96    0.29 
   2  -4  -5    3.23    0.24 
  -2   4   5    2.58    0.28 
  -2   4   5    2.53    0.23 
  -2   4   5    2.39    0.29 
  -2   4   5    2.62    0.28 
  -2   4   5    2.59    0.27 
  -2   4   5    2.99    0.33 
  -1  -4   5  111.75    6.07 
   1  -4  -5  112.32    6.10 
  -1  -4   5  115.21    6.20 
   1  -4  -5  108.97    6.11 
   1  -4  -5  112.05    6.10 
   1  -4  -5  114.84    6.12 
   1  -4  -5  108.25    6.16 
  -1  -4   5  112.11    6.08 
  -1  -4   5  112.27    6.10 
   1  -4  -5  110.91    6.17 
   1   4  -5  109.91    6.09 
  -1   4   5  106.44    6.14 
  -1   4   5  113.55    6.16 
   1   4  -5  112.38    6.08 
   1   4  -5  110.44    6.21 
  -1   4   5  111.09    6.12 
  -1   4   5  113.48    6.13 
  -1   4   5  109.74    6.12 
   0  -4  -5   23.92    1.38 
   0  -4  -5   24.58    1.33 
   0  -4   5   24.78    1.31 
   0  -4  -5   23.26    1.32 
   0  -4  -5   23.06    1.33 
   0  -4   5   24.29    1.34 
   0  -4   5   24.76    1.31 
   0  -4   5   24.77    1.31 
   0  -4  -5   24.22    1.38 
   0   4  -5   21.93    1.41 
   0   4   5   21.66    1.34 
   0   4   5   21.78    1.34 
   0   4  -5   23.19    1.32 
   0   4  -5   23.33    1.31 
   0   4   5   22.41    1.33 
   0   4   5   22.01    1.36 
   0   4   5   22.33    1.32 
   1  -4   5   60.02    3.32 
  -1  -4  -5   59.14    3.34 
  -1  -4  -5   58.37    3.29 
  -1  -4  -5   57.58    3.29 
   1  -4   5   59.77    3.27 
  -1  -4  -5   58.87    3.34 
   1  -4   5   59.37    3.27 
   1  -4   5   60.73    3.28 
  -1   4  -5   59.33    3.37 
   1   4   5   59.77    3.30 
   1   4   5   59.50    3.29 
   1   4   5   61.85    3.27 
   1   4   5   53.26    3.34 
  -1   4  -5   59.90    3.29 
   1   4   5   62.39    3.33 
  -1   4  -5   59.68    3.26 
  -1   4  -5   59.59    3.30 
   2  -4   5  133.13    7.36 
  -2  -4  -5  130.31    7.38 
   2  -4   5  133.11    7.36 
  -2  -4  -5  131.00    7.41 
   2  -4   5  131.90    7.36 
   2  -4   5  130.79    7.41 
  -2  -4  -5  134.72    7.36 
  -2  -4  -5  133.11    7.38 
   2   4   5  138.31    7.40 
   2   4   5  137.20    7.37 
  -2   4  -5  134.40    7.35 
  -2   4  -5  138.97    7.35 
   2   4   5  138.24    7.38 
   2   4   5  136.99    7.41 
  -2   4  -5  137.63    7.38 
  -2   4  -5  130.50    7.39 
   3  -4   5   12.11    0.68 
   3  -4   5   12.03    0.67 
   3  -4   5   12.24    0.76 
   3  -4   5   11.72    0.71 
  -3  -4  -5   11.40    0.70 
  -3  -4  -5   12.00    0.74 
   3  -4   5   12.08    0.69 
  -3  -4  -5   11.75    0.70 
  -3  -4  -5   12.48    0.67 
   3   4   5    9.25    0.66 
  -3   4  -5    9.23    0.64 
  -3   4  -5    9.43    0.65 
  -3   4  -5    8.95    0.68 
   3   4   5    8.82    0.70 
   3   4   5    9.36    0.72 
  -3   4  -5    9.29    0.71 
   3   4   5    9.50    0.68 
  -4  -4  -5   38.82    2.02 
   4  -4   5   37.27    2.03 
  -4  -4  -5   36.68    2.04 
   4  -4   5   37.60    2.03 
  -4  -4  -5   30.52    2.21 
   4   4   5   34.97    2.00 
  -4   4  -5   33.56    2.03 
   4   4   5   35.80    2.02 
  -4   4  -5   34.61    2.00 
   4   4   5   34.70    1.98 
  -4   4  -5   35.23    2.01 
   4   4   5   33.55    2.07 
  -4   4  -5   34.86    2.07 
  -5  -4  -5   16.10    1.07 
  -5  -4  -5   17.22    1.02 
   5  -4   5   16.70    1.06 
  -5  -4  -5   16.06    1.05 
   5  -4   5   15.30    1.04 
  -5  -4  -5   15.99    1.06 
   5  -4   5   15.30    1.05 
   5  -4   5   17.04    1.16 
   5  -4   5   15.73    1.01 
  -5   4  -5   17.54    1.02 
   5   4   5   17.34    1.00 
  -5   4  -5   16.66    1.07 
  -5   4  -5   16.56    1.12 
   5   4   5   17.23    1.01 
   5   4   5   17.93    1.05 
   6  -4   5   15.14    0.97 
  -6  -4  -5   15.23    1.05 
   6  -4   5   14.29    1.02 
  -6  -4  -5   14.41    0.99 
   6  -4   5   14.55    1.00 
   6  -4   5   14.88    1.15 
  -6  -4  -5   15.20    1.03 
   6   4   5   16.26    1.02 
   6   4   5   15.38    0.95 
  -6   4  -5   15.60    1.08 
   6   4   5   15.43    0.95 
  -6   4  -5   15.02    0.98 
  -6   4  -5   15.42    1.06 
   7  -4   5   15.01    0.96 
  -7  -4  -5   14.27    1.01 
   7  -4   5   13.84    1.01 
  -7  -4  -5   14.01    0.97 
  -7   4  -5   13.90    1.14 
  -7   4  -5   14.10    1.06 
   7   4   5   12.71    1.08 
   7   4   5   13.70    1.02 
   7   4   5   14.12    0.93 
  -7   4  -5   13.70    0.98 
   8  -5  -5   13.55    0.95 
  -8  -5   5   13.63    1.02 
  -8  -5   5   13.45    1.11 
  -8   5   5   13.38    1.03 
  -8   5   5   15.12    1.17 
  -8   5   5   14.33    1.12 
  -7  -5   5    7.00    0.61 
   7  -5  -5    6.60    0.55 
   7  -5  -5    7.51    0.75 
  -7  -5   5    7.14    0.70 
  -7   5   5    6.77    0.66 
  -7   5   5    6.36    0.70 
  -7   5   5    6.57    0.70 
  -7   5   5    6.82    0.66 
  -7   5   5    6.99    0.76 
  -6  -5   5   19.43    1.21 
   6  -5  -5   19.48    1.18 
   6  -5  -5   20.35    1.16 
  -6  -5   5   20.16    1.27 
  -6  -5   5   20.14    1.19 
  -6  -5   5   20.40    1.36 
   6  -5  -5   19.18    1.18 
  -6  -5   5   19.50    1.11 
   6  -5  -5   20.45    1.27 
  -6   5   5   18.95    1.24 
  -6   5   5   18.27    1.16 
  -6   5   5   18.83    1.29 
  -6   5   5   18.87    1.21 
  -6   5   5   18.89    1.27 
  -6   5   5   19.15    1.27 
   5  -5  -5   17.42    1.15 
  -5  -5   5   17.55    1.15 
   5  -5  -5   18.03    1.10 
  -5  -5   5   17.02    1.09 
  -5  -5   5   17.36    1.23 
   5  -5  -5   17.74    1.08 
  -5  -5   5   17.23    1.02 
  -5  -5   5   17.47    1.13 
   5  -5  -5   17.10    1.10 
  -5   5   5   20.99    1.23 
  -5   5   5   20.13    1.18 
  -5   5   5   20.46    1.17 
  -5   5   5   20.00    1.10 
   4  -5  -5   16.74    1.13 
  -4  -5   5   17.40    1.09 
   4  -5  -5   16.92    1.09 
   4  -5  -5   17.81    1.10 
   4  -5  -5   17.17    1.09 
  -4  -5   5   16.97    1.12 
   4  -5  -5   17.28    1.08 
  -4  -5   5   17.15    1.12 
  -4  -5   5   18.08    1.20 
  -4   5   5   19.34    1.14 
  -4   5   5   21.01    1.19 
  -4   5   5   20.68    1.13 
  -4   5   5   19.48    1.20 
  -4   5   5   20.29    1.05 
  -4   5   5   20.38    1.09 
  -3  -5   5   13.86    0.86 
   3  -5  -5   13.92    0.85 
  -3  -5   5   14.00    0.84 
   3  -5  -5   13.92    0.89 
   3  -5  -5   13.79    0.84 
   3  -5  -5   14.27    0.85 
   3  -5  -5   13.90    0.84 
  -3  -5   5   14.29    0.95 
  -3  -5   5   13.97    0.88 
  -3   5   5   13.90    0.88 
  -3   5   5   13.29    0.93 
  -3   5   5   14.06    0.87 
  -3   5   5   14.90    0.92 
  -3   5   5   14.29    0.90 
  -3   5   5   14.03    0.84 
  -3   5   5   14.15    0.83 
  -2  -5   5  121.92    6.55 
   2  -5  -5  119.24    6.55 
   2  -5  -5  109.95    6.55 
   2  -5  -5  121.16    6.54 
   2  -5  -5  120.00    6.54 
  -2  -5   5  121.96    6.74 
  -2  -5   5  126.06    6.59 
   2  -5  -5  118.62    6.57 
  -2   5   5  115.71    6.56 
  -2   5   5  119.44    6.55 
  -2   5   5  120.85    6.56 
  -2   5   5  118.08    6.59 
  -2   5   5  114.62    6.61 
  -2   5   5  122.47    6.59 
   1  -5  -5   13.81    0.82 
   1  -5  -5   14.09    0.78 
  -1  -5   5   13.64    0.75 
   1  -5  -5   13.94    0.78 
   1  -5  -5   13.40    0.79 
   1  -5  -5   14.27    0.87 
  -1  -5   5   11.02    0.81 
   1  -5  -5   13.25    0.80 
  -1  -5   5   13.62    0.88 
  -1  -5   5   13.74    0.74 
   1   5  -5   12.19    0.88 
   1   5  -5   12.89    0.75 
  -1   5   5   13.51    0.82 
   1   5  -5   12.89    0.74 
  -1   5   5   12.69    0.80 
  -1   5   5   13.17    0.83 
  -1   5   5   12.53    0.79 
  -1   5   5   12.44    0.83 
   0  -5  -5   89.22    4.84 
   0  -5   5   94.92    4.79 
   0  -5   5   93.16    4.78 
   0  -5  -5   91.23    4.81 
   0  -5  -5   93.46    4.87 
   0  -5   5   91.31    4.82 
   0  -5  -5   89.89    4.80 
   0  -5   5   90.30    4.77 
   0  -5  -5   92.67    4.81 
   0   5   5   82.66    4.81 
   0   5   5   83.22    4.80 
   0   5   5   84.31    4.82 
   0   5  -5   83.09    4.79 
   0   5  -5   80.89    4.88 
   0   5   5   73.65    4.86 
   0   5  -5   82.52    4.80 
  -1  -5  -5   22.67    1.30 
  -1  -5  -5   22.56    1.32 
   1  -5   5   23.16    1.24 
   1  -5   5   23.68    1.30 
  -1  -5  -5   23.69    1.26 
  -1  -5  -5   23.48    1.27 
   1  -5   5   23.96    1.25 
   1  -5   5   23.71    1.23 
   1   5   5   19.67    1.26 
   1   5   5   20.98    1.28 
  -1   5  -5   20.19    1.27 
  -1   5  -5   20.26    1.21 
   1   5   5   20.20    1.23 
   1   5   5   21.26    1.30 
  -1   5  -5   20.64    1.34 
   1   5   5   20.34    1.27 
  -1   5  -5   20.22    1.25 
  -2  -5  -5    1.55    0.24 
   2  -5   5    1.63    0.23 
  -2  -5  -5    1.58    0.20 
   2  -5   5    1.78    0.24 
  -2  -5  -5    1.65    0.29 
  -2  -5  -5    1.53    0.24 
   2  -5   5    1.76    0.19 
   2  -5   5    1.26    0.20 
   2  -5   5    1.71    0.29 
   2   5   5    1.94    0.24 
   2   5   5    1.64    0.25 
  -2   5  -5    1.89    0.22 
   2   5   5    1.67    0.18 
  -2   5  -5    1.68    0.28 
   2   5   5    1.64    0.27 
  -2   5  -5    1.92    0.34 
  -2   5  -5    2.01    0.19 
   2   5   5    1.79    0.26 
  -3  -5  -5   79.29    4.55 
   3  -5   5   79.23    4.49 
   3  -5   5   80.10    4.52 
  -3  -5  -5   82.40    4.49 
   3  -5   5   79.55    4.49 
  -3  -5  -5   75.78    4.51 
   3  -5   5   78.23    4.56 
   3  -5   5   79.79    4.50 
  -3  -5  -5   80.19    4.51 
  -3   5  -5   84.32    4.47 
   3   5   5   81.30    4.54 
  -3   5  -5   83.04    4.52 
  -3   5  -5   82.40    4.48 
   3   5   5   87.61    4.52 
   3   5   5   81.45    4.55 
  -3   5  -5   82.07    4.54 
   3   5   5   84.84    4.50 
  -4  -5  -5   26.37    1.81 
  -4  -5  -5   27.05    1.76 
  -4  -5  -5   26.59    1.78 
  -4  -5  -5   26.55    1.79 
   4  -5   5   26.75    1.76 
   4  -5   5   26.63    1.86 
   4  -5   5   26.99    1.78 
   4  -5   5   27.12    1.78 
  -4   5  -5   34.24    1.82 
  -4   5  -5   34.97    1.76 
   4   5   5   35.79    1.81 
  -4   5  -5   34.65    1.86 
   4   5   5   34.89    1.78 
  -4   5  -5   35.52    1.78 
   4   5   5   34.52    1.74 
   4   5   5   35.28    1.86 
   5  -5   5    9.36    0.84 
  -5  -5  -5   10.29    0.66 
  -5  -5  -5    9.43    0.69 
   5  -5   5    9.12    0.70 
  -5  -5  -5    9.43    0.73 
   5  -5   5    9.50    0.67 
  -5  -5  -5    9.18    0.71 
   5  -5   5    9.51    0.70 
  -5   5  -5    7.98    0.69 
  -5   5  -5    9.75    0.65 
   5   5   5   10.08    0.74 
  -5   5  -5    9.67    0.73 
   5   5   5   10.12    0.62 
   5   5   5    9.99    0.70 
   5   5   5   10.01    0.66 
  -6  -5  -5   10.62    0.75 
  -6  -5  -5   10.58    0.72 
   6  -5   5    9.66    0.68 
   6  -5   5   10.28    0.75 
  -6  -5  -5    9.09    0.78 
   6  -5   5    9.64    0.91 
   6  -5   5    9.60    0.75 
  -6   5  -5    8.64    0.79 
  -6   5  -5    8.62    0.80 
  -6   5  -5    8.18    0.68 
   6   5   5    8.31    0.74 
   6   5   5    8.61    0.74 
   6   5   5    7.91    0.62 
  -7  -5  -5    3.81    0.50 
   7  -5   5    4.67    0.51 
   7  -5   5    4.68    0.63 
  -7  -5  -5    3.94    0.51 
  -7   5  -5    2.97    0.42 
  -7   5  -5    3.77    0.66 
   7   5   5    3.11    0.50 
   7   5   5    3.46    0.60 
  -7  -6   5    7.83    0.64 
  -7  -6   5    7.69    0.75 
   7  -6  -5    7.83    0.84 
   7  -6  -5    7.95    0.64 
   7  -6  -5    7.98    0.63 
  -7   6   5    6.52    0.75 
  -7   6   5    6.76    0.84 
  -7   6   5    6.48    0.73 
  -7   6   5    6.83    0.70 
  -6  -6   5   33.89    2.08 
   6  -6  -5   33.71    2.10 
  -6  -6   5   34.50    2.06 
   6  -6  -5   34.22    2.02 
  -6  -6   5   34.51    2.01 
  -6  -6   5   35.44    2.20 
  -6  -6   5   34.58    1.94 
  -6   6   5   36.79    2.13 
  -6   6   5   35.60    2.15 
  -6   6   5   36.30    2.11 
  -6   6   5   35.30    2.09 
  -5  -6   5    2.80    0.48 
   5  -6  -5    2.89    0.35 
  -5  -6   5    3.31    0.43 
  -5  -6   5    3.02    0.40 
   5  -6  -5    3.04    0.48 
  -5  -6   5    2.97    0.34 
   5  -6  -5    3.19    0.32 
   5  -6  -5    3.08    0.37 
   5  -6  -5    3.05    0.33 
  -5   6   5    3.36    0.45 
  -5   6   5    3.44    0.44 
  -5   6   5    3.77    0.50 
  -5   6   5    3.45    0.32 
  -5   6   5    3.53    0.50 
   4  -6  -5    3.66    0.45 
  -4  -6   5    3.95    0.35 
  -4  -6   5    3.74    0.47 
   4  -6  -5    4.01    0.35 
   4  -6  -5    3.94    0.35 
   4  -6  -5    3.77    0.36 
  -4  -6   5    4.26    0.42 
  -4  -6   5    3.84    0.40 
   4  -6  -5    3.64    0.37 
  -4   6   5    4.93    0.46 
  -4   6   5    3.31    0.32 
  -4   6   5    4.79    0.32 
  -4   6   5    4.52    0.49 
  -4   6   5    4.90    0.47 
  -4   6   5    4.56    0.44 
  -3  -6   5   51.80    2.75 
   3  -6  -5   50.31    2.74 
  -3  -6   5   50.99    2.73 
   3  -6  -5   50.54    2.74 
   3  -6  -5   49.92    2.78 
  -3  -6   5   54.57    2.85 
   3  -6  -5   50.07    2.75 
  -3  -6   5   50.81    2.79 
   3  -6  -5   51.03    2.75 
  -3   6   5   46.49    2.79 
  -3   6   5   47.93    2.83 
  -3   6   5   42.09    2.73 
  -3   6   5   47.27    2.78 
  -3   6   5   46.15    2.76 
  -3   6   5   47.16    2.73 
  -3   6   5   46.53    2.77 
   2  -6  -5   14.07    0.86 
   2  -6  -5   14.52    0.87 
  -2  -6   5   13.62    0.92 
   2  -6  -5   14.05    0.89 
  -2  -6   5   13.78    0.96 
   2  -6  -5   13.44    0.91 
  -2  -6   5   14.17    0.86 
   2  -6  -5   13.89    0.89 
  -2   6   5   15.00    0.90 
  -2   6   5   15.58    0.94 
  -2   6   5   16.10    0.91 
  -2   6   5   15.68    0.91 
  -2   6   5   14.73    0.97 
  -2   6   5   15.39    0.89 
   1  -6  -5   68.45    3.78 
   1  -6  -5   68.14    3.80 
   1  -6  -5   70.37    3.80 
  -1  -6   5   71.24    3.75 
  -1  -6   5   70.18    3.75 
   1  -6  -5   69.19    3.83 
  -1  -6   5   68.55    3.84 
   1  -6  -5   70.77    3.79 
  -1  -6   5   70.21    3.76 
  -1  -6   5   71.08    3.88 
  -1   6   5   67.75    3.84 
   1   6  -5   65.35    3.88 
   1   6  -5   67.69    3.75 
   1   6  -5   66.86    3.76 
  -1   6   5   66.78    3.87 
  -1   6   5   68.03    3.81 
  -1   6   5   67.91    3.81 
  -1   6   5   66.26    3.80 
  -1   6   5   67.34    3.82 
   0  -6  -5    5.87    0.41 
   0  -6   5    6.07    0.39 
   0  -6   5    6.01    0.38 
   0  -6   5    5.91    0.35 
   0  -6  -5    5.94    0.45 
   0  -6  -5    5.96    0.51 
   0  -6  -5    6.12    0.43 
   0  -6  -5    5.61    0.42 
   0  -6   5    5.91    0.43 
   1  -6   5   13.49    0.72 
   1  -6   5   13.45    0.78 
  -1  -6  -5   13.87    0.82 
  -1  -6  -5   13.56    0.77 
   1  -6   5   13.59    0.71 
  -1  -6  -5   13.95    0.75 
   1  -6   5   13.56    0.68 
   1   6   5   10.20    0.76 
   1   6   5   10.17    0.73 
   1   6   5   10.66    0.75 
   1   6   5   10.57    0.74 
  -1   6  -5   10.13    0.74 
   1   6   5   10.23    0.70 
  -1   6  -5   10.38    0.66 
  -1   6  -5   10.33    0.72 
  -1   6  -5   10.47    0.81 
  -2  -6  -5   62.05    3.14 
   2  -6   5   61.89    3.10 
  -2  -6  -5   65.02    3.16 
   2  -6   5   62.80    3.14 
  -2  -6  -5   60.77    3.16 
   2  -6   5   62.88    3.21 
  -2  -6  -5   61.60    3.21 
   2  -6   5   61.88    3.14 
   2  -6   5   62.60    3.17 
   2   6   5   50.67    3.16 
  -2   6  -5   49.56    3.10 
   2   6   5   52.07    3.15 
  -2   6  -5   49.11    3.16 
  -2   6  -5   49.55    3.21 
   2   6   5   50.38    3.09 
  -2   6  -5   49.11    3.13 
   2   6   5   50.30    3.17 
   2   6   5   51.23    3.13 
   3  -6   5    1.29    0.28 
   3  -6   5    0.98    0.18 
  -3  -6  -5    0.95    0.22 
   3  -6   5    1.21    0.21 
  -3  -6  -5    0.92    0.20 
  -3  -6  -5    1.19    0.21 
   3  -6   5    1.42    0.23 
   3  -6   5    0.99    0.18 
  -3  -6  -5    1.26    0.18 
   3   6   5    1.71    0.26 
  -3   6  -5    1.67    0.25 
   3   6   5    0.80    0.19 
   3   6   5    1.43    0.23 
   3   6   5    1.59    0.30 
   3   6   5    1.93    0.33 
  -3   6  -5    1.74    0.34 
   4  -6   5   10.69    0.74 
   4  -6   5   10.71    0.74 
   4  -6   5   10.31    0.88 
  -4  -6  -5   10.38    0.80 
   4  -6   5   10.57    0.77 
  -4  -6  -5   10.80    0.73 
  -4  -6  -5   11.33    0.78 
  -4  -6  -5   10.64    0.77 
  -4   6  -5   12.13    0.74 
  -4   6  -5   11.98    0.78 
   4   6   5   11.98    0.68 
   4   6   5   12.30    0.74 
  -4   6  -5   12.08    0.71 
   4   6   5   12.46    0.80 
   4   6   5   12.34    0.67 
  -4   6  -5   11.80    0.85 
   4   6   5   11.55    0.81 
  -5  -6  -5   32.25    1.94 
  -5  -6  -5   31.28    1.95 
  -5  -6  -5   33.21    1.92 
  -5  -6  -5   32.77    1.98 
   5  -6   5   31.92    1.92 
   5  -6   5   31.30    2.06 
   5  -6   5   31.56    1.92 
   5  -6   5   31.35    1.94 
  -5   6  -5   32.96    1.91 
   5   6   5   34.93    1.95 
  -5   6  -5   34.51    1.97 
   5   6   5   33.23    1.99 
   5   6   5   33.65    1.85 
   5   6   5   33.13    1.99 
   5   6   5   34.16    1.90 
  -5   6  -5   34.66    1.90 
  -5   6  -5   34.76    2.03 
   6  -6   5    0.22    0.26 
   6  -6   5    0.23    0.41 
   6  -6   5   -0.11    0.19 
  -6  -6  -5   -0.01    0.22 
  -6  -6  -5    0.10    0.21 
   6  -6   5   -0.03    0.27 
  -6  -6  -5   -0.14    0.33 
   6   6   5   -0.03    0.25 
  -6   6  -5    0.06    0.22 
   6   6   5    0.15    0.29 
  -6   6  -5    0.08    0.30 
   6   6   5    0.01    0.21 
  -7  -6  -5   12.56    0.97 
   7  -6   5   12.36    1.05 
  -7  -6  -5   12.68    1.00 
   7  -6   5   12.64    0.94 
  -7   6  -5   14.92    0.98 
   7   6   5   14.64    1.07 
  -7   6  -5   15.22    1.15 
  -7  -7   5   10.92    0.78 
   7  -7  -5   11.39    0.84 
  -7  -7   5   10.57    0.93 
  -7   7   5    9.99    0.93 
  -7   7   5    9.64    1.03 
  -7   7   5    9.25    0.83 
  -7   7   5   10.47    0.94 
  -6  -7   5    2.75    0.39 
   6  -7  -5    2.80    0.44 
   6  -7  -5    2.41    0.32 
  -6  -7   5    2.69    0.27 
  -6  -7   5    3.28    0.67 
  -6  -7   5    2.75    0.40 
   6  -7  -5    2.67    0.47 
  -6  -7   5    2.49    0.42 
  -6   7   5    2.07    0.41 
  -6   7   5    2.43    0.41 
  -6   7   5    2.36    0.37 
  -6   7   5    2.27    0.42 
  -5  -7   5   47.00    2.67 
  -5  -7   5   46.98    2.70 
   5  -7  -5   45.91    2.63 
   5  -7  -5   44.73    2.64 
   5  -7  -5   47.87    2.65 
   5  -7  -5   45.71    2.65 
   5  -7  -5   45.44    2.70 
  -5  -7   5   46.10    2.61 
  -5  -7   5   46.63    2.78 
  -5   7   5   47.57    2.73 
  -5   7   5   46.33    2.77 
  -5   7   5   47.43    2.73 
  -5   7   5   46.23    2.69 
  -4  -7   5    1.70    0.27 
  -4  -7   5    1.51    0.24 
   4  -7  -5    1.28    0.27 
   4  -7  -5    1.13    0.19 
  -4  -7   5    1.72    0.29 
   4  -7  -5    1.62    0.24 
   4  -7  -5    1.49    0.23 
  -4  -7   5    1.68    0.40 
  -4   7   5    1.63    0.46 
  -4   7   5    1.63    0.28 
  -4   7   5    1.63    0.29 
  -4   7   5    1.33    0.30 
  -4   7   5    1.60    0.24 
  -3  -7   5   26.14    1.46 
   3  -7  -5   26.54    1.48 
   3  -7  -5   24.94    1.45 
  -3  -7   5   26.12    1.44 
   3  -7  -5   21.73    1.51 
   3  -7  -5   25.10    1.45 
  -3  -7   5   25.36    1.51 
   3  -7  -5   25.44    1.52 
  -3  -7   5   27.28    1.57 
  -3   7   5   24.84    1.46 
  -3   7   5   25.09    1.49 
  -3   7   5   24.85    1.49 
  -3   7   5   24.94    1.52 
  -3   7   5   22.33    1.62 
  -3   7   5   25.07    1.49 
   2  -7  -5    6.38    0.46 
  -2  -7   5    7.12    0.57 
   2  -7  -5    7.01    0.50 
  -2  -7   5    6.73    0.45 
  -2  -7   5    6.75    0.53 
   2  -7  -5    6.63    0.49 
   2  -7  -5    6.42    0.46 
  -2  -7   5    6.65    0.40 
   2  -7  -5    6.71    0.55 
   1  -7  -5    1.56    0.23 
   1  -7  -5    1.76    0.26 
   1  -7  -5    1.70    0.26 
   1  -7  -5    1.78    0.20 
  -1  -7   5    1.67    0.30 
   1  -7  -5    1.54    0.26 
  -1  -7   5    1.58    0.14 
  -1  -7   5    1.56    0.17 
  -1  -7   5    1.61    0.16 
  -1  -7   5    1.47    0.27 
  -1  -7   5    1.76    0.18 
  -1   7   5    1.63    0.28 
  -1   7   5    1.73    0.36 
  -1   7   5    1.70    0.26 
   1   7  -5    1.52    0.36 
  -1   7   5    1.72    0.28 
  -1   7   5    1.70    0.25 
  -1   7   5    1.79    0.28 
   1   7  -5    1.62    0.18 
   0  -7   5   14.64    0.74 
   0  -7  -5   14.72    0.77 
   0  -7  -5   14.36    0.78 
   0  -7  -5   14.81    0.87 
   0   7  -5   10.77    0.75 
   0   7   5   11.03    0.80 
   0   7   5   11.27    0.77 
   0   7   5   11.42    0.75 
   0   7   5   10.92    0.77 
   0   7  -5   11.25    0.72 
   0   7   5   10.92    0.81 
   0   7   5   10.92    0.80 
  -1  -7  -5   32.50    1.72 
   1  -7   5   32.73    1.77 
  -1  -7  -5   32.81    1.73 
   1  -7   5   32.55    1.71 
  -1  -7  -5   31.88    1.73 
  -1  -7  -5   31.88    1.73 
   1  -7   5   31.94    1.71 
   1  -7   5   33.09    1.74 
  -1  -7  -5   32.00    1.81 
   1   7   5   28.10    1.73 
  -1   7  -5   26.72    1.79 
   1   7   5   27.57    1.76 
   1   7   5   27.28    1.68 
   1   7   5   27.70    1.76 
   1   7   5   27.19    1.74 
   1   7   5   27.13    1.72 
  -1   7  -5   27.62    1.73 
  -2  -7  -5    3.06    0.28 
   2  -7   5    2.60    0.33 
   2  -7   5    2.75    0.40 
   2  -7   5    2.68    0.29 
  -2  -7  -5    3.14    0.34 
  -2  -7  -5    2.93    0.34 
  -2  -7  -5    3.12    0.39 
   2  -7   5    2.86    0.32 
   2   7   5    3.69    0.38 
   2   7   5    3.23    0.33 
  -2   7  -5    2.73    0.36 
  -2   7  -5    2.73    0.42 
   2   7   5    2.86    0.34 
  -2   7  -5    2.71    0.25 
   2   7   5    2.85    0.33 
   2   7   5    2.91    0.24 
   2   7   5    2.74    0.36 
   3  -7   5   51.59    2.84 
   3  -7   5   50.13    2.89 
   3  -7   5   50.93    2.97 
  -3  -7  -5   51.36    2.87 
   3  -7   5   50.47    2.91 
  -3  -7  -5   52.24    2.90 
  -3  -7  -5   51.38    2.90 
   3  -7   5   51.38    2.88 
  -3  -7  -5   50.09    2.95 
   3   7   5   52.11    2.93 
  -3   7  -5   51.57    2.90 
  -3   7  -5   52.18    2.99 
  -3   7  -5   51.56    2.83 
   3   7   5   50.23    2.95 
   3   7   5   50.37    2.87 
   3   7   5   51.85    2.81 
  -3   7  -5   52.55    2.94 
   3   7   5   51.83    2.91 
   3   7   5   50.49    2.81 
  -3   7  -5   50.64    2.86 
   4  -7   5    3.45    0.40 
   4  -7   5    2.97    0.54 
  -4  -7  -5    3.28    0.44 
   4  -7   5    3.23    0.37 
   4  -7   5    3.17    0.34 
  -4  -7  -5    3.35    0.33 
  -4  -7  -5    3.08    0.43 
  -4  -7  -5    3.20    0.39 
   4  -7   5    2.66    0.36 
   4   7   5    3.47    0.46 
  -4   7  -5    3.79    0.51 
   4   7   5    3.52    0.45 
   4   7   5    3.72    0.38 
  -4   7  -5    3.80    0.32 
   4   7   5    3.40    0.45 
  -4   7  -5    4.28    0.42 
  -4   7  -5    3.60    0.36 
   5  -7   5    0.60    0.38 
  -5  -7  -5    0.63    0.24 
  -5  -7  -5    0.63    0.29 
  -5  -7  -5    0.73    0.25 
   5  -7   5    0.58    0.24 
   5  -7   5    0.47    0.20 
   5   7   5    0.19    0.20 
  -5   7  -5    0.11    0.20 
   5   7   5    0.18    0.27 
  -5   7  -5    0.24    0.32 
  -5   7  -5    0.32    0.18 
   5   7   5    0.15    0.24 
  -5   7  -5    0.34    0.30 
  -6  -7  -5   21.83    1.43 
   6  -7   5   22.16    1.44 
  -6  -7  -5   22.08    1.41 
   6  -7   5   22.25    1.37 
  -6   7  -5   22.27    1.53 
   6   7   5   22.93    1.34 
   6   7   5   21.75    1.46 
  -7  -8   5    4.18    0.72 
  -7   8   5    2.61    0.53 
   6  -8  -5   16.69    1.10 
   6  -8  -5   16.63    1.27 
  -6  -8   5   16.91    1.15 
  -6  -8   5   16.55    1.03 
  -6   8   5   15.76    1.13 
  -6   8   5   16.22    1.24 
  -6   8   5   16.45    1.19 
  -6   8   5   16.55    1.24 
   5  -8  -5   -0.06    0.21 
   5  -8  -5    0.08    0.33 
  -5  -8   5    0.20    0.25 
   5  -8  -5   -0.03    0.20 
  -5  -8   5   -0.01    0.23 
  -5  -8   5    0.11    0.33 
  -5  -8   5    0.12    0.19 
  -5   8   5    0.13    0.30 
  -5   8   5    0.01    0.30 
  -5   8   5   -0.01    0.27 
  -5   8   5   -0.04    0.26 
  -5   8   5    0.10    0.26 
   4  -8  -5   38.18    2.18 
  -4  -8   5   39.47    2.25 
   4  -8  -5   39.30    2.20 
  -4  -8   5   39.75    2.15 
  -4  -8   5   39.42    2.30 
   4  -8  -5   39.14    2.25 
   4  -8  -5   38.85    2.18 
  -4  -8   5   39.94    2.19 
   4  -8  -5   38.79    2.20 
  -4   8   5   36.23    2.26 
  -4   8   5   37.89    2.22 
  -4   8   5   32.96    2.18 
  -4   8   5   36.31    2.22 
  -4   8   5   36.44    2.31 
  -3  -8   5    5.95    0.34 
   3  -8  -5    6.18    0.48 
  -3  -8   5    5.91    0.42 
  -3  -8   5    5.71    0.50 
  -3  -8   5    6.18    0.56 
   3  -8  -5    5.64    0.56 
   3  -8  -5    5.68    0.43 
  -3  -8   5    6.05    0.43 
   3  -8  -5    4.29    0.47 
   3  -8  -5    5.85    0.47 
  -3   8   5    4.53    0.50 
  -3   8   5    4.43    0.58 
  -3   8   5    4.43    0.44 
  -3   8   5    4.47    0.45 
  -2  -8   5   13.72    0.94 
   2  -8  -5   14.64    0.96 
  -2  -8   5   15.07    0.99 
   2  -8  -5   14.31    0.87 
   2  -8  -5   14.09    0.91 
  -2  -8   5   13.94    0.82 
  -2  -8   5   14.14    0.83 
   2  -8  -5   14.36    0.91 
  -2   8   5   14.17    0.92 
  -2   8   5   15.20    1.03 
  -2   8   5   14.74    0.90 
  -2   8   5   14.64    0.92 
  -2   8   5   13.75    0.95 
  -2   8   5   14.50    0.92 
   1  -8  -5   32.25    1.64 
   1  -8  -5   32.26    1.69 
  -1  -8   5   31.87    1.62 
   1  -8  -5   31.64    1.73 
  -1  -8   5   31.58    1.62 
   1  -8  -5   31.20    1.72 
  -1   8   5   27.73    1.66 
   1   8  -5   27.21    1.63 
  -1   8   5   26.06    1.71 
  -1   8   5   27.62    1.77 
   1   8  -5   26.96    1.63 
  -1   8   5   24.81    1.72 
  -1   8   5   26.64    1.67 
  -1   8   5   26.78    1.70 
   0  -8   5   10.78    0.77 
   0  -8   5   10.39    0.77 
   0  -8  -5   10.89    0.78 
   0  -8   5   10.38    0.73 
   0  -8   5   11.00    0.73 
   0  -8  -5   10.54    0.81 
   0  -8  -5   10.28    0.77 
   0   8   5   13.48    0.80 
   0   8   5   13.33    0.76 
   0   8   5   13.77    0.84 
   0   8   5   13.23    0.83 
   0   8   5   13.83    0.80 
   0   8  -5   13.23    0.77 
   0   8  -5   13.52    0.74 
   0   8  -5   14.00    0.89 
   0   8   5   13.56    0.90 
   1  -8   5    3.10    0.37 
  -1  -8  -5    3.41    0.31 
   1  -8   5    3.19    0.31 
   1  -8   5    3.41    0.40 
  -1  -8  -5    3.12    0.42 
  -1  -8  -5    3.00    0.35 
  -1  -8  -5    3.05    0.28 
   1  -8   5    3.26    0.35 
   1  -8   5    3.22    0.30 
   2  -8   5   47.14    2.57 
   2  -8   5   42.35    2.58 
   2  -8   5   47.58    2.65 
  -2  -8  -5   48.01    2.57 
  -2  -8  -5   46.55    2.58 
  -2  -8  -5   47.89    2.59 
   2  -8   5   46.99    2.64 
  -2  -8  -5   47.94    2.66 
   2  -8   5   46.97    2.60 
   2   8   5   44.95    2.57 
   2   8   5   41.54    2.63 
   2   8   5   45.49    2.61 
   2   8   5   44.85    2.60 
  -2   8  -5   43.81    2.61 
  -2   8  -5   44.63    2.52 
  -2   8  -5   44.53    2.66 
   2   8   5   43.74    2.51 
   3  -8   5    4.03    0.38 
   3  -8   5    3.81    0.36 
   3  -8   5    4.03    0.41 
  -3  -8  -5    3.91    0.45 
  -3  -8  -5    4.25    0.44 
  -3  -8  -5    4.06    0.40 
   3  -8   5    3.98    0.57 
  -3  -8  -5    3.70    0.33 
  -3   8  -5    2.69    0.32 
  -3   8  -5    2.72    0.49 
   3   8   5    2.62    0.37 
   3   8   5    2.43    0.43 
  -3   8  -5    2.69    0.47 
   3   8   5    2.42    0.41 
  -3   8  -5    2.58    0.34 
   4  -8   5   12.19    0.81 
  -4  -8  -5   12.33    0.85 
   4  -8   5   12.51    1.04 
  -4  -8  -5   12.74    0.90 
   4  -8   5   12.59    0.85 
  -4  -8  -5   12.33    0.88 
  -4  -8  -5   12.49    0.89 
  -4   8  -5   12.26    0.81 
   4   8   5   12.53    0.89 
   4   8   5   11.92    0.81 
   4   8   5   11.87    0.89 
  -4   8  -5   12.83    0.95 
  -4   8  -5   12.36    0.75 
   4   8   5   12.29    0.90 
  -5  -8  -5   24.96    1.46 
   5  -8   5   24.33    1.37 
   5  -8   5   25.68    1.42 
  -5  -8  -5   24.38    1.40 
   5  -8   5   23.73    1.63 
   5   8   5   19.17    1.43 
   5   8   5   20.41    1.33 
  -5   8  -5   20.45    1.49 
  -5   8  -5   19.79    1.36 
  -5   8  -5   20.49    1.30 
   6  -8   5    0.20    0.21 
  -6  -8  -5    0.24    0.25 
   6  -8   5    0.25    0.34 
  -6  -8  -5   -0.04    0.27 
  -6   8  -5    0.04    0.26 
   6   8   5   -0.02    0.32 
  -6   8  -5   -0.11    0.42 
   6  -9  -5    8.09    1.02 
   6  -9  -5    8.35    0.76 
  -6  -9   5    8.38    0.80 
  -6   9   5    7.72    0.78 
  -6   9   5    8.71    0.87 
  -6   9   5    9.13    0.93 
  -5  -9   5   19.54    1.10 
   5  -9  -5   17.40    1.31 
  -5  -9   5   18.35    1.17 
   5  -9  -5   19.54    1.18 
  -5  -9   5   18.33    1.33 
  -5   9   5   17.25    1.34 
  -5   9   5   17.52    1.24 
  -5   9   5   16.73    1.20 
  -5   9   5   17.39    1.22 
   4  -9  -5    5.14    0.46 
  -4  -9   5    5.11    0.63 
   4  -9  -5    5.23    0.54 
   4  -9  -5    4.84    0.49 
   4  -9  -5    4.79    0.62 
  -4  -9   5    5.27    0.47 
  -4  -9   5    5.38    0.43 
  -4  -9   5    4.93    0.36 
  -4   9   5    4.67    0.52 
  -4   9   5    4.71    0.55 
  -4   9   5    4.93    0.70 
  -4   9   5    4.47    0.58 
   3  -9  -5    4.77    0.42 
   3  -9  -5    5.13    0.47 
  -3  -9   5    5.06    0.34 
  -3  -9   5    4.99    0.40 
  -3  -9   5    5.22    0.58 
  -3  -9   5    4.88    0.50 
   3  -9  -5    4.89    0.42 
  -3  -9   5    5.13    0.41 
   3  -9  -5    5.26    0.61 
   3  -9  -5    4.67    0.50 
  -2  -9   5   45.09    2.46 
  -2  -9   5   43.08    2.59 
   2  -9  -5   45.45    2.55 
  -2  -9   5   44.02    2.47 
   2  -9  -5   43.83    2.54 
  -2  -9   5   44.44    2.45 
   2  -9  -5   44.52    2.51 
   2  -9  -5   45.12    2.59 
  -2  -9   5   44.83    2.62 
  -2   9   5   44.99    2.56 
  -2   9   5   42.67    2.54 
  -2   9   5   45.20    2.53 
  -2   9   5   44.68    2.60 
  -2   9   5   46.67    2.67 
   1  -9  -5    1.75    0.25 
  -1  -9   5    1.58    0.27 
  -1  -9   5    1.68    0.23 
   1  -9  -5    1.69    0.37 
   1  -9  -5    1.35    0.23 
  -1  -9   5    1.62    0.24 
  -1  -9   5    1.73    0.20 
   1  -9  -5    1.62    0.23 
   1   9  -5    1.20    0.23 
   1   9  -5    1.39    0.23 
  -1   9   5    1.19    0.25 
  -1   9   5    1.71    0.24 
  -1   9   5    1.37    0.23 
  -1   9   5    1.48    0.27 
  -1   9   5    1.43    0.36 
  -1   9   5    1.69    0.30 
   0  -9   5   23.15    1.41 
   0  -9  -5   22.63    1.41 
   0  -9   5   22.88    1.37 
   0  -9   5   22.39    1.37 
   0  -9   5   21.95    1.41 
   0  -9  -5   23.08    1.42 
   0  -9  -5   22.45    1.39 
   0  -9   5   22.24    1.47 
   0  -9  -5   22.69    1.45 
   0   9   5   25.59    1.48 
   0   9   5   25.35    1.39 
   0   9   5   25.87    1.47 
   0   9   5   24.85    1.43 
   0   9  -5   25.58    1.51 
   0   9   5   25.07    1.42 
   0   9   5   25.78    1.54 
   0   9  -5   24.72    1.41 
   1  -9   5   14.67    1.03 
   1  -9   5   15.51    1.00 
  -1  -9  -5   15.70    0.99 
   1  -9   5   15.25    0.96 
   1  -9   5   15.28    1.04 
  -1  -9  -5   15.56    1.08 
  -1  -9  -5   15.23    1.00 
  -1  -9  -5   14.55    0.95 
   1  -9   5   14.96    0.95 
  -1   9  -5   16.95    1.09 
   1   9   5   16.87    1.00 
   1   9   5   16.53    1.06 
   1   9   5   14.87    1.01 
   1   9   5   16.97    0.93 
   1   9   5   16.97    1.01 
  -1   9  -5   16.58    1.01 
   2  -9   5    6.39    0.55 
   2  -9   5    6.34    0.50 
   2  -9   5    6.21    0.56 
  -2  -9  -5    6.33    0.48 
  -2  -9  -5    6.81    0.56 
  -2  -9  -5    6.02    0.47 
   2  -9   5    6.72    0.65 
  -2  -9  -5    6.42    0.60 
   2  -9   5    6.06    0.49 
   2   9   5    6.60    0.57 
  -2   9  -5    6.56    0.63 
  -2   9  -5    6.20    0.58 
   2   9   5    6.95    0.62 
   2   9   5    6.44    0.59 
   2   9   5    6.90    0.53 
  -3  -9  -5   26.51    1.57 
  -3  -9  -5   26.14    1.60 
   3  -9   5   26.35    1.68 
  -3  -9  -5   27.21    1.63 
  -3  -9  -5   26.15    1.55 
   3  -9   5   25.08    1.58 
   3  -9   5   26.05    1.53 
   3  -9   5   26.67    1.54 
   3  -9   5   26.72    1.60 
  -3   9  -5   24.84    1.65 
   3   9   5   25.48    1.59 
   3   9   5   25.95    1.53 
   3   9   5   24.76    1.61 
   3   9   5   26.45    1.59 
  -3   9  -5   25.57    1.49 
  -3   9  -5   24.81    1.61 
  -4  -9  -5   20.44    1.23 
   4  -9   5   20.06    1.27 
   4  -9   5   20.49    1.22 
   4  -9   5   20.90    1.42 
   4  -9   5   19.49    1.20 
  -4  -9  -5   20.39    1.28 
  -4  -9  -5   20.58    1.27 
  -4   9  -5   17.53    1.33 
   4   9   5   16.64    1.26 
   4   9   5   18.32    1.18 
   4   9   5   17.68    1.24 
  -4   9  -5   18.03    1.31 
   5  -9   5    1.00    0.40 
  -5  -9  -5    1.03    0.30 
   5  -9   5    1.40    0.60 
  -5  -9  -5    0.86    0.29 
   5  -9   5    0.96    0.29 
   5  -9   5    1.03    0.26 
   5   9   5    0.52    0.26 
   5   9   5    0.27    0.29 
  -5   9  -5    0.19    0.36 
   5 -10  -5    0.05    0.41 
   5 -10  -5    0.14    0.26 
  -5 -10   5    0.60    0.46 
  -5 -10   5    0.14    0.28 
  -5  10   5    0.07    0.32 
  -5  10   5    0.23    0.36 
  -5  10   5    0.21    0.44 
  -4 -10   5   10.20    0.70 
  -4 -10   5    9.94    0.62 
   4 -10  -5    9.50    0.84 
   4 -10  -5    9.83    0.75 
  -4 -10   5   10.26    0.67 
  -4 -10   5   10.47    0.93 
   4 -10  -5    9.17    0.90 
  -4  10   5    9.06    0.79 
  -4  10   5   10.74    1.02 
  -3 -10   5   12.86    0.82 
  -3 -10   5   13.03    0.78 
   3 -10  -5   12.85    1.01 
   3 -10  -5   12.54    0.88 
  -3 -10   5   12.94    0.79 
   3 -10  -5   12.87    0.85 
  -3 -10   5   11.09    0.98 
  -3 -10   5   13.70    1.01 
  -3 -10   5   12.53    0.80 
   3 -10  -5   13.00    0.94 
  -3  10   5   14.09    1.10 
  -3  10   5   13.56    0.92 
  -3  10   5   14.03    0.91 
  -3  10   5   14.49    0.89 
   2 -10  -5    1.90    0.29 
   2 -10  -5    2.37    0.31 
   2 -10  -5    2.27    0.33 
  -2 -10   5    2.34    0.35 
  -2 -10   5    2.22    0.21 
  -2 -10   5    2.01    0.24 
   2 -10  -5    2.23    0.36 
  -2 -10   5    2.30    0.28 
  -2  10   5    2.46    0.45 
  -2  10   5    2.60    0.49 
  -2  10   5    1.80    0.30 
  -2  10   5    1.98    0.31 
  -1 -10   5   64.23    3.68 
   1 -10  -5   64.07    3.69 
  -1 -10   5   64.56    3.73 
  -1 -10   5   66.53    3.69 
   1 -10  -5   65.30    3.75 
   1 -10  -5   64.30    3.75 
  -1 -10   5   63.91    3.69 
   1 -10  -5   62.74    3.78 
  -1  10   5   68.87    3.73 
  -1  10   5   70.41    3.88 
  -1  10   5   67.26    3.74 
   1  10  -5   70.62    3.71 
  -1  10   5   69.14    3.80 
   1  10  -5   69.78    3.71 
  -1  10   5   69.93    3.85 
   0 -10   5    9.51    0.93 
   0 -10  -5    8.44    0.64 
   0 -10   5    8.96    0.65 
   0 -10   5    8.54    0.57 
   0 -10  -5    8.61    0.66 
   0 -10   5    8.53    0.59 
   0 -10  -5    8.47    0.69 
   0 -10   5    8.45    0.65 
   1 -10   5    7.49    0.63 
  -1 -10  -5    7.16    0.64 
   1 -10   5    7.71    0.68 
   1 -10   5    7.09    0.54 
   1 -10   5    6.60    0.67 
  -1 -10  -5    7.50    0.63 
  -1 -10  -5    7.72    0.59 
   1 -10   5    7.06    0.56 
  -1  10  -5    7.74    0.64 
   1  10   5    9.12    0.79 
   1  10   5    7.68    0.51 
   1  10   5    8.10    0.63 
   1  10   5    8.27    0.62 
   1  10   5    8.28    0.67 
  -1  10  -5    7.63    0.71 
   2 -10   5   25.02    1.48 
   2 -10   5   24.86    1.49 
   2 -10   5   23.86    1.53 
  -2 -10  -5   26.05    1.51 
   2 -10   5   25.55    1.61 
   2 -10   5   24.06    1.66 
  -2 -10  -5   25.45    1.60 
  -2 -10  -5   25.44    1.53 
   2  10   5   25.75    1.58 
  -2  10  -5   25.39    1.60 
   2  10   5   22.62    1.67 
   2  10   5   26.23    1.59 
  -2  10  -5   25.04    1.56 
  -3 -10  -5    2.77    0.50 
   3 -10   5    3.47    0.72 
   3 -10   5    3.29    0.43 
  -3 -10  -5    2.80    0.49 
   3 -10   5    2.93    0.41 
  -3 -10  -5    3.11    0.42 
  -3  10  -5    4.00    0.60 
   3  10   5    3.80    0.49 
   3  10   5    4.10    0.62 
   3  10   5    4.04    0.55 
  -3  10  -5    3.91    0.62 
   3  10   5    4.50    0.47 
  -3  10  -5    4.14    0.38 
  -4 -10  -5    9.25    0.80 
  -4 -10  -5    9.15    0.78 
   4 -10   5    9.46    0.72 
   4 -10   5    9.03    0.73 
   4 -10   5   10.35    1.13 
  -4 -10  -5    8.87    0.77 
  -4  10  -5    9.58    0.94 
  -4  10  -5    9.53    0.94 
   4  10   5    9.68    0.71 
   4  10   5    9.60    0.79 
   5 -10   5   10.80    0.87 
  -5 -10  -5   10.33    0.89 
  -5  10  -5   10.83    1.10 
  -5  10  -5   11.66    1.10 
   4 -11  -5    8.89    0.70 
   4 -11  -5    9.01    0.93 
   4 -11  -5    8.68    0.86 
  -4  11   5    7.15    0.79 
  -4  11   5    7.36    1.00 
  -4  11   5    6.61    0.77 
   3 -11  -5    4.02    0.64 
   3 -11  -5    4.10    0.55 
  -3 -11   5    4.66    0.43 
  -3 -11   5    3.88    0.39 
   3 -11  -5    3.93    0.48 
   3 -11  -5    3.71    0.49 
  -2 -11   5   30.17    1.79 
  -2 -11   5   29.96    1.76 
  -2 -11   5   29.72    1.73 
   2 -11  -5   29.10    1.86 
  -2 -11   5   28.94    1.79 
   2 -11  -5   28.46    1.78 
   2 -11  -5   28.81    1.91 
  -2 -11   5   29.90    1.73 
   2 -11  -5   30.74    1.85 
   2  11  -5   34.26    1.77 
  -2  11   5   32.79    1.84 
  -2  11   5   34.49    2.04 
  -2  11   5   33.17    1.85 
  -2  11   5   33.47    1.89 
  -1 -11   5    0.62    0.20 
   1 -11  -5    0.80    0.19 
   1 -11  -5    0.48    0.29 
  -1 -11   5    0.60    0.25 
   1 -11  -5    0.58    0.30 
  -1 -11   5    0.62    0.16 
  -1 -11   5    0.65    0.21 
   1 -11  -5    0.56    0.22 
   1  11  -5    0.35    0.20 
  -1  11   5    0.30    0.28 
  -1  11   5    0.56    0.25 
  -1  11   5    0.54    0.25 
  -1  11   5    0.40    0.37 
   1  11  -5    0.46    0.20 
   0 -11   5   14.14    0.93 
   0 -11   5   13.25    0.86 
   0 -11  -5   14.29    0.98 
   0 -11   5   13.46    0.94 
   0 -11  -5   13.83    0.95 
   0 -11  -5   13.52    0.91 
   0 -11   5   13.33    0.84 
   0  11   5   13.42    0.99 
   0  11   5   13.03    0.92 
   0  11  -5   13.17    0.90 
   0  11   5   14.18    0.87 
   0  11   5   13.91    1.12 
  -1 -11  -5   19.95    1.36 
   1 -11   5   20.53    1.36 
   1 -11   5   20.34    1.41 
   1 -11   5   20.21    1.30 
   1 -11   5   20.00    1.28 
  -1 -11  -5   20.24    1.35 
  -1 -11  -5   19.75    1.32 
  -1  11  -5   23.11    1.37 
   1  11   5   24.58    1.54 
  -1  11  -5   23.02    1.43 
   1  11   5   23.01    1.22 
   1  11   5   23.53    1.42 
  -2 -11  -5    1.47    0.27 
   2 -11   5    1.24    0.24 
  -2 -11  -5    1.44    0.32 
   2 -11   5    1.27    0.26 
  -2  11  -5    0.64    0.35 
   2  11   5    0.81    0.30 
   2  11   5    0.92    0.42 
   2  11   5    0.66    0.32 
  -2  11  -5    0.74    0.37 
  -3 -11  -5   24.02    1.54 
   3 -11   5   24.31    1.44 
   3 -11   5   23.41    1.43 
  -3 -11  -5   24.79    1.45 
   3  11   5   22.06    1.52 
  -3  11  -5   21.52    1.55 
   4 -11   5    2.58    0.39 
   4 -11   5    3.06    0.51 
  -4  11  -5    3.61    0.78 
  -4  11  -5    4.29    0.75 
   3 -12  -5    3.75    0.55 
   3 -12  -5    3.74    0.56 
  -3  12   5    3.69    0.51 
  -3  12   5    3.31    0.67 
   2 -12  -5    2.74    0.49 
   2 -12  -5    2.92    0.47 
  -2 -12   5    2.74    0.34 
  -2 -12   5    2.80    0.30 
   2 -12  -5    3.16    0.45 
  -2  12   5    3.87    0.60 
  -2  12   5    3.05    0.47 
  -2  12   5    3.09    0.62 
   1 -12  -5   10.76    0.85 
  -1 -12   5   11.23    0.88 
  -1 -12   5   11.25    0.81 
  -1 -12   5   11.18    0.75 
   1 -12  -5   10.66    0.96 
  -1  12   5   13.78    0.98 
  -1  12   5   13.52    0.86 
  -1  12   5   13.77    1.17 
   0 -12   5    7.59    0.72 
   0 -12   5    7.58    0.71 
   0 -12   5    7.16    0.54 
   0 -12   5    7.18    0.61 
   0 -12  -5    7.53    0.64 
   0 -12  -5    7.62    0.74 
   0  12   5    7.22    0.78 
   0  12   5    7.40    0.74 
   0  12   5    7.66    0.94 
   1 -12   5    6.71    0.52 
  -1 -12  -5    6.78    0.66 
   1 -12   5    6.60    0.60 
  -1 -12  -5    6.67    0.59 
   1 -12   5    6.02    0.73 
   1  12   5    5.13    0.68 
   1  12   5    5.31    0.71 
   1  12   5    6.02    0.94 
   2 -12   5   13.56    0.98 
   2 -12   5   13.24    0.92 
  -2 -12  -5   13.12    0.97 
  -2 -12  -5   13.26    1.01 
   2  12   5   16.30    1.18 
   2  12   5   15.08    1.27 
   2  12   5   14.66    1.07 
  -8   0   6    5.06    0.56 
  -8   0   6    5.59    0.67 
  -8   0   6    4.80    0.63 
  -8   0   6    4.90    0.57 
  -7   0   6    6.12    0.55 
  -7   0   6    6.02    0.60 
  -7   0   6    6.09    0.53 
  -7   0   6    5.93    0.62 
   7   0  -6    6.36    0.51 
  -7   0   6    6.15    0.49 
   7   0  -6    5.84    0.52 
   6   0  -6    0.70    0.18 
  -6   0   6    0.74    0.22 
  -6   0   6    0.68    0.16 
  -6   0   6    0.63    0.18 
  -6   0   6    0.44    0.21 
  -6   0   6    0.72    0.21 
   6   0  -6    0.66    0.12 
   5   0  -6   63.75    3.55 
  -5   0   6   63.91    3.80 
  -5   0   6   64.54    3.55 
  -5   0   6   63.61    3.54 
   5   0  -6   63.09    3.53 
  -5   0   6   65.32    3.52 
   5   0  -6   63.38    3.51 
  -5   0   6   63.73    3.51 
  -5   0   6   63.39    3.58 
  -5   0   6   62.84    3.57 
  -4   0   6    0.34    0.12 
  -4   0   6    0.32    0.17 
   4   0  -6    0.40    0.09 
  -4   0   6    0.47    0.10 
  -4   0   6    0.44    0.12 
   4   0  -6    0.39    0.12 
  -4   0   6    0.34    0.14 
  -4   0   6    0.43    0.20 
   4   0  -6    0.69    0.13 
  -3   0   6   56.76    3.11 
  -3   0   6   54.97    3.23 
   3   0  -6   56.80    3.12 
  -3   0   6   56.48    3.13 
   3   0  -6   56.96    3.11 
  -3   0   6   55.68    3.15 
  -3   0   6   57.52    3.16 
  -3   0   6   56.95    3.12 
  -2   0   6   67.14    3.68 
   2   0  -6   65.46    3.58 
   2   0  -6   59.99    3.58 
  -2   0   6   65.89    3.58 
  -2   0   6   64.99    3.56 
  -2   0   6   64.37    3.60 
  -2   0   6   64.68    3.59 
   2   0  -6   67.39    3.60 
   2   0  -6   64.57    3.54 
   2   0  -6   65.54    3.54 
  -2   0   6   63.86    3.57 
  -1   0   6   28.66    1.63 
   1   0  -6   29.09    1.59 
   1   0  -6   29.27    1.59 
   1   0  -6   29.44    1.61 
  -1   0   6   28.41    1.61 
   1   0  -6   29.34    1.64 
  -1   0   6   28.96    1.63 
  -1   0   6   29.83    1.71 
  -1   0   6   28.09    1.61 
   1   0  -6   25.63    1.71 
   0   0  -6    7.03    0.43 
   0   0   6    6.65    0.44 
   0   0   6    6.94    0.47 
   0   0  -6    7.29    0.45 
   0   0   6    6.86    0.45 
   0   0  -6    7.17    0.55 
   0   0   6    7.17    0.46 
   0   0  -6    6.92    0.47 
  -1   0  -6  567.09   31.09 
   1   0   6  538.24   30.61 
   1   0   6  554.65   30.65 
  -1   0  -6  565.90   30.59 
   1   0   6  558.07   30.65 
   1   0   6  543.11   30.62 
  -1   0  -6  579.01   30.83 
  -1   0  -6  572.17   30.64 
  -2   0  -6   21.04    1.20 
   2   0   6   21.00    1.25 
  -2   0  -6   19.74    1.20 
   2   0   6   20.13    1.19 
  -2   0  -6   19.66    1.21 
   2   0   6   21.91    1.20 
  -2   0  -6   20.40    1.23 
  -3   0  -6   44.49    2.44 
   3   0   6   42.18    2.47 
   3   0   6   43.52    2.51 
  -3   0  -6   44.26    2.45 
   3   0   6   43.09    2.44 
   3   0   6   44.31    2.45 
  -3   0  -6   42.87    2.48 
   4   0   6   15.61    0.97 
  -4   0  -6   15.94    1.02 
   4   0   6   15.62    0.98 
   4   0   6   15.38    1.01 
   4   0   6   15.97    1.06 
  -4   0  -6   15.72    1.00 
  -4   0  -6   17.04    0.97 
   4   0   6   15.62    0.98 
  -4   0  -6   16.57    0.99 
   5   0   6   -0.04    0.16 
   5   0   6    0.06    0.19 
  -5   0  -6    0.23    0.22 
   5   0   6    0.00    0.17 
  -5   0  -6    0.01    0.20 
   5   0   6    0.11    0.22 
   5   0   6    0.12    0.15 
  -5   0  -6    0.03    0.15 
   6   0   6   16.22    1.12 
   6   0   6   15.85    1.00 
  -6   0  -6   16.14    1.09 
   6   0   6   15.62    1.14 
  -6   0  -6   15.35    1.07 
   6   0   6   15.51    1.03 
   6   0   6   15.47    1.15 
  -6   0  -6   15.48    1.02 
   7   0   6   10.97    0.79 
  -7   0  -6   11.00    1.02 
   7   0   6   10.87    0.89 
  -7   0  -6   10.74    0.81 
  -7   0  -6   10.86    0.88 
  -8  -1   6    2.70    0.45 
  -8  -1   6    2.55    0.44 
  -8  -1   6    2.76    0.44 
  -8  -1   6    2.47    0.45 
  -8   1   6    2.96    0.45 
  -8   1   6    3.17    0.51 
  -8   1   6    2.01    0.42 
  -7  -1   6   25.82    1.50 
  -7  -1   6   25.78    1.52 
  -7  -1   6   25.51    1.54 
  -7  -1   6   25.07    1.58 
   7  -1  -6   25.63    1.54 
  -7  -1   6   27.34    1.66 
  -7   1   6   26.03    1.57 
  -7   1   6   26.63    1.52 
  -7   1   6   25.74    1.52 
   7   1  -6   25.97    1.50 
   7   1  -6   25.54    1.53 
  -7   1   6   25.77    1.64 
  -7   1   6   25.76    1.60 
  -7   1   6   26.26    1.60 
  -6  -1   6   10.56    0.84 
  -6  -1   6   10.82    0.73 
   6  -1  -6   10.79    0.76 
  -6  -1   6    9.37    0.92 
  -6  -1   6   11.05    0.71 
  -6  -1   6   11.10    0.81 
  -6  -1   6   11.14    0.71 
  -6   1   6   12.31    0.87 
   6   1  -6   12.60    0.72 
  -6   1   6   12.40    0.83 
  -6   1   6   12.76    0.74 
  -6   1   6   13.55    0.94 
  -6   1   6   12.52    0.82 
  -6   1   6   12.82    0.80 
  -5  -1   6    7.39    0.49 
  -5  -1   6    7.55    0.52 
  -5  -1   6    6.85    0.71 
  -5  -1   6    7.59    0.47 
  -5  -1   6    7.06    0.56 
  -5  -1   6    7.29    0.49 
   5  -1  -6    7.61    0.52 
  -5  -1   6    7.63    0.50 
   5  -1  -6    7.37    0.52 
  -5   1   6    7.47    0.65 
  -5   1   6    7.49    0.56 
  -5   1   6    7.69    0.49 
   5   1  -6    7.46    0.48 
  -5   1   6    7.11    0.52 
  -5   1   6    7.64    0.53 
   5   1  -6    7.58    0.51 
   5   1  -6    7.49    0.45 
  -5   1   6    7.48    0.45 
  -5   1   6    5.47    0.73 
  -4  -1   6   24.75    1.52 
  -4  -1   6   25.09    1.49 
  -4  -1   6   25.40    1.48 
  -4  -1   6   25.12    1.55 
  -4  -1   6   26.21    1.65 
   4  -1  -6   25.47    1.50 
  -4  -1   6   25.48    1.52 
   4  -1  -6   24.45    1.52 
  -4  -1   6   24.96    1.50 
   4  -1  -6   25.69    1.52 
  -4   1   6   27.68    1.56 
  -4   1   6   27.21    1.64 
  -4   1   6   28.08    1.56 
  -4   1   6   28.38    1.54 
   4   1  -6   28.94    1.48 
   4   1  -6   28.92    1.50 
  -4   1   6   28.50    1.50 
  -4   1   6   28.46    1.52 
  -3  -1   6   42.24    2.53 
   3  -1  -6   42.98    2.51 
   3  -1  -6   41.85    2.53 
   3  -1  -6   42.05    2.55 
  -3  -1   6   42.92    2.65 
  -3  -1   6   42.77    2.52 
   3  -1  -6   42.07    2.51 
  -3  -1   6   41.88    2.52 
  -3  -1   6   41.66    2.55 
  -3  -1   6   40.99    2.56 
  -3   1   6   50.10    2.59 
  -3   1   6   52.62    2.56 
   3   1  -6   52.90    2.52 
  -3   1   6   52.39    2.54 
  -3   1   6   52.82    2.57 
  -3   1   6   50.67    2.59 
   2  -1  -6   13.36    0.81 
  -2  -1   6   13.76    0.80 
   2  -1  -6   14.24    0.75 
  -2  -1   6   13.91    0.76 
   2  -1  -6   14.34    0.75 
  -2  -1   6   14.31    0.77 
  -2  -1   6   11.93    1.08 
  -2  -1   6   13.70    0.77 
  -2  -1   6   13.97    0.75 
  -2   1   6   12.20    0.79 
  -2   1   6   11.96    0.76 
   2   1  -6   12.58    0.75 
  -2   1   6   12.68    0.86 
  -2   1   6   12.15    0.77 
  -2   1   6   11.88    0.79 
  -2   1   6   12.56    0.78 
   1  -1  -6  105.23    5.76 
   1  -1  -6  102.28    5.80 
   1  -1  -6  104.28    5.76 
   1  -1  -6  107.52    5.75 
   1  -1  -6  100.43    5.86 
  -1  -1   6  105.29    5.75 
  -1  -1   6  106.38    5.76 
  -1  -1   6  103.95    5.78 
  -1  -1   6  107.45    5.86 
  -1   1   6  102.83    5.78 
   1   1  -6  107.78    5.76 
   1   1  -6  103.44    5.73 
  -1   1   6  107.64    5.79 
   1   1  -6  102.95    5.88 
   1   1  -6  100.50    5.74 
  -1   1   6  103.78    5.77 
   1   1  -6  109.97    5.78 
  -1   1   6  108.38    5.86 
  -1   1   6  108.49    5.78 
   0  -1  -6  116.67    6.32 
   0  -1   6  113.93    6.31 
   0  -1   6  119.54    6.33 
   0  -1  -6  119.56    6.31 
   0  -1  -6  118.00    6.31 
   0  -1  -6  114.71    6.35 
   0  -1  -6  122.03    6.42 
   0  -1   6  115.74    6.34 
   0  -1   6  115.87    6.31 
   0   1  -6  110.17    6.41 
   0   1  -6  112.38    6.31 
   0   1  -6  112.64    6.30 
   0   1   6  114.79    6.32 
   0   1  -6  109.89    6.33 
   0   1   6  118.59    6.34 
   0   1   6  111.08    6.32 
   0   1   6  115.10    6.35 
  -1  -1  -6   39.10    2.17 
   1  -1   6   39.52    2.16 
   1  -1   6   37.37    2.20 
   1  -1   6   38.90    2.17 
  -1  -1  -6   39.35    2.16 
  -1  -1  -6   36.36    2.24 
   1  -1   6   38.57    2.16 
  -1  -1  -6   36.58    2.19 
   1   1   6   39.72    2.20 
  -1   1  -6   39.68    2.26 
   1   1   6   37.66    2.18 
   1   1   6   39.48    2.17 
   1   1   6   38.05    2.16 
  -1   1  -6   38.86    2.17 
  -1   1  -6   39.49    2.15 
  -1   1  -6   39.62    2.19 
   2  -1   6   81.03    4.42 
  -2  -1  -6   80.47    4.44 
  -2  -1  -6   82.40    4.40 
  -2  -1  -6   78.65    4.41 
   2  -1   6   81.45    4.40 
   2  -1   6   80.48    4.45 
   2  -1   6   84.33    4.40 
  -2  -1  -6   85.02    4.42 
   2   1   6   77.99    4.45 
   2   1   6   77.74    4.40 
  -2   1  -6   76.29    4.39 
   2   1   6   79.89    4.40 
   2   1   6   76.89    4.42 
  -2   1  -6   77.16    4.40 
  -2   1  -6   76.61    4.43 
   3  -1   6   18.16    1.13 
   3  -1   6   18.24    1.21 
   3  -1   6   17.78    1.11 
  -3  -1  -6   17.50    1.15 
   3  -1   6   18.94    1.12 
  -3  -1  -6   18.99    1.12 
  -3  -1  -6   17.37    1.13 
  -3  -1  -6   19.13    1.11 
   3   1   6   19.71    1.12 
  -3   1  -6   20.12    1.11 
   3   1   6   19.49    1.15 
   3   1   6   19.05    1.18 
  -3   1  -6   19.26    1.13 
  -3   1  -6   19.62    1.12 
   3   1   6   18.87    1.11 
  -3   1  -6   19.59    1.16 
   4  -1   6    9.14    0.66 
   4  -1   6   10.58    0.67 
  -4  -1  -6    9.40    0.70 
  -4  -1  -6    9.69    0.66 
   4  -1   6    8.90    0.67 
   4  -1   6    9.48    0.74 
   4  -1   6    9.44    0.68 
  -4   1  -6   10.51    0.72 
   4   1   6    9.93    0.65 
   4   1   6   10.09    0.67 
  -4   1  -6   10.21    0.69 
  -4   1  -6   10.11    0.64 
   4   1   6    9.82    0.74 
  -4   1  -6   10.09    0.65 
   4   1   6    9.50    0.68 
   4   1   6   10.09    0.65 
   5  -1   6   54.76    3.05 
  -5  -1  -6   52.98    3.09 
  -5  -1  -6   52.17    3.05 
   5  -1   6   54.02    3.06 
   5  -1   6   52.51    3.08 
   5  -1   6   53.53    3.03 
  -5  -1  -6   53.68    3.08 
   5  -1   6   54.82    3.15 
  -5   1  -6   53.63    3.07 
   5   1   6   54.31    3.05 
   5   1   6   53.05    3.09 
   5   1   6   54.86    3.03 
  -5   1  -6   54.36    3.10 
  -5   1  -6   54.54    3.04 
   5   1   6   52.67    3.13 
   5   1   6   56.49    3.05 
  -6  -1  -6    1.72    0.32 
   6  -1   6    1.93    0.39 
   6  -1   6    2.15    0.36 
   6  -1   6    2.21    0.36 
   6  -1   6    2.45    0.36 
  -6  -1  -6    2.25    0.37 
   6  -1   6    2.28    0.35 
  -6  -1  -6    2.12    0.38 
   6   1   6    2.34    0.34 
   6   1   6    2.20    0.35 
  -6   1  -6    2.44    0.42 
  -6   1  -6    2.63    0.47 
  -6   1  -6    2.32    0.37 
  -7  -1  -6   17.51    1.19 
  -7  -1  -6   19.03    1.31 
   7  -1   6   17.91    1.11 
  -7  -1  -6   17.67    1.13 
   7  -1   6   15.72    1.27 
   7   1   6   17.77    1.20 
   7   1   6   16.54    1.11 
  -7   1  -6   15.75    1.11 
   7   1   6   16.76    1.19 
  -7   1  -6   16.39    1.28 
  -7   1  -6   16.83    1.20 
  -8  -2   6    6.52    0.56 
  -8  -2   6    6.45    0.59 
  -8  -2   6    6.10    0.73 
  -8  -2   6    6.80    0.73 
  -8   2   6    8.60    0.76 
  -7  -2   6    5.51    0.45 
  -7  -2   6    5.48    0.46 
  -7  -2   6    5.66    0.46 
  -7  -2   6    5.33    0.57 
  -7  -2   6    4.87    0.61 
   7  -2  -6    5.51    0.68 
  -7   2   6    5.61    0.58 
  -7   2   6    5.76    0.59 
  -7   2   6    5.55    0.48 
  -7   2   6    5.32    0.61 
   7   2  -6    5.51    0.37 
   7   2  -6    5.79    0.50 
  -7   2   6    5.61    0.58 
  -6  -2   6   20.21    1.22 
   6  -2  -6   20.66    1.13 
  -6  -2   6   20.84    1.08 
  -6  -2   6   20.83    1.10 
  -6  -2   6   21.22    1.11 
  -6  -2   6   20.75    1.18 
  -6  -2   6   20.01    1.07 
  -6   2   6   16.39    1.15 
  -6   2   6   16.69    1.17 
  -6   2   6   16.60    1.20 
   6   2  -6   16.00    1.10 
  -6   2   6   16.75    1.26 
  -6   2   6   16.57    1.17 
   6   2  -6   16.64    1.05 
  -6   2   6   16.56    1.09 
  -5  -2   6   27.35    1.57 
  -5  -2   6   26.65    1.69 
  -5  -2   6   28.29    1.59 
   5  -2  -6   27.94    1.57 
  -5  -2   6   29.06    1.60 
  -5  -2   6   28.57    1.62 
  -5  -2   6   28.15    1.65 
   5  -2  -6   28.70    1.56 
  -5  -2   6   28.67    1.58 
  -4  -2   6   41.05    2.34 
   4  -2  -6   38.97    2.32 
   4  -2  -6   40.44    2.29 
  -4  -2   6   38.78    2.45 
  -4  -2   6   39.90    2.30 
  -4  -2   6   38.79    2.38 
   4  -2  -6   40.35    2.34 
  -4  -2   6   40.25    2.31 
  -4  -2   6   40.18    2.36 
  -4  -2   6   40.51    2.30 
  -4  -2   6   41.35    2.29 
   4  -2  -6   40.32    2.30 
   4   2  -6   43.67    2.29 
  -4   2   6   43.14    2.36 
  -4   2   6   42.29    2.39 
  -4   2   6   44.50    2.33 
   4   2  -6   44.05    2.28 
  -4   2   6   43.19    2.38 
  -4   2   6   45.41    2.46 
  -4   2   6   44.65    2.35 
  -3  -2   6   26.89    1.44 
   3  -2  -6   25.94    1.43 
   3  -2  -6   25.72    1.42 
  -3  -2   6   27.68    1.54 
  -3  -2   6   22.59    1.44 
  -3  -2   6   25.67    1.38 
   3  -2  -6   25.82    1.41 
   3  -2  -6   26.09    1.39 
   3  -2  -6   26.30    1.40 
  -3  -2   6   26.15    1.38 
  -3  -2   6   26.16    1.40 
  -3   2   6   22.88    1.42 
  -3   2   6   21.77    1.45 
  -3   2   6   23.38    1.40 
  -3   2   6   23.92    1.45 
  -3   2   6   23.66    1.44 
  -3   2   6   23.00    1.50 
   3   2  -6   23.22    1.38 
  -2  -2   6  163.17    8.72 
   2  -2  -6  153.04    8.61 
  -2  -2   6  150.20    8.63 
  -2  -2   6  157.25    8.59 
  -2  -2   6  153.65    8.60 
  -2  -2   6  156.44    8.61 
   2  -2  -6  157.43    8.63 
   2  -2  -6  157.33    8.60 
   2  -2  -6  159.15    8.61 
   2  -2  -6  160.72    8.66 
  -2   2   6  157.12    8.62 
  -2   2   6  153.25    8.64 
  -2   2   6  156.30    8.66 
  -2   2   6  159.01    8.63 
  -2   2   6  165.63    8.70 
   2   2  -6  160.16    8.61 
   2   2  -6  157.52    8.59 
  -2   2   6  159.35    8.64 
   1  -2  -6   14.06    0.83 
   1  -2  -6   14.41    0.77 
   1  -2  -6   13.31    0.77 
  -1  -2   6   14.13    0.76 
  -1  -2   6   13.92    0.78 
  -1  -2   6   14.33    0.75 
   1  -2  -6   14.22    0.88 
   1  -2  -6   14.50    0.76 
  -1   2   6   11.81    0.77 
  -1   2   6   11.55    0.78 
  -1   2   6   11.64    0.79 
  -1   2   6   12.08    0.78 
  -1   2   6   11.48    0.84 
   1   2  -6   12.12    0.75 
   1   2  -6   11.83    0.77 
   0  -2  -6   80.23    4.15 
   0  -2   6   77.64    4.17 
   0  -2   6   79.18    4.13 
   0  -2  -6   77.65    4.19 
   0  -2  -6   78.90    4.23 
   0  -2   6   84.26    4.15 
   0  -2   6   79.19    4.14 
   0  -2  -6   80.07    4.14 
   0  -2  -6   78.82    4.14 
   0   2  -6   70.29    4.15 
   0   2   6   71.81    4.15 
   0   2  -6   70.49    4.14 
   0   2   6   72.08    4.18 
   0   2   6   72.05    4.15 
   0   2  -6   74.02    4.11 
   0   2   6   74.27    4.16 
   0   2  -6   70.46    4.11 
   0   2   6   69.38    4.14 
   0   2  -6   69.14    4.24 
   1  -2   6   55.28    3.18 
   1  -2   6   56.50    3.19 
   1  -2   6   55.40    3.17 
  -1  -2  -6   58.75    3.19 
  -1  -2  -6   57.74    3.18 
   1  -2   6   55.11    3.22 
  -1  -2  -6   57.82    3.23 
  -1  -2  -6   55.52    3.26 
   1   2   6   61.10    3.20 
   1   2   6   61.29    3.23 
   1   2   6   55.87    3.21 
   1   2   6   59.15    3.19 
  -1   2  -6   58.66    3.17 
  -1   2  -6   53.79    3.21 
  -1   2  -6   57.26    3.28 
  -1   2  -6   60.20    3.21 
   2  -2   6    4.54    0.34 
  -2  -2  -6    4.31    0.39 
  -2  -2  -6    4.54    0.36 
  -2  -2  -6    4.64    0.36 
   2  -2   6    4.35    0.35 
   2  -2   6    4.51    0.41 
  -2  -2  -6    4.83    0.34 
   2  -2   6    4.71    0.35 
   2   2   6    4.79    0.35 
  -2   2  -6    4.52    0.33 
  -2   2  -6    4.41    0.34 
   2   2   6    4.36    0.39 
   2   2   6    4.55    0.36 
   2   2   6    4.74    0.38 
  -2   2  -6    4.43    0.35 
  -2   2  -6    4.53    0.39 
   3  -2   6   39.58    2.43 
   3  -2   6   42.02    2.43 
   3  -2   6   41.70    2.46 
   3  -2   6   40.36    2.50 
  -3  -2  -6   42.00    2.44 
  -3  -2  -6   41.52    2.45 
  -3  -2  -6   41.79    2.46 
  -3  -2  -6   43.35    2.49 
  -3   2  -6   45.82    2.44 
  -3   2  -6   45.07    2.48 
   3   2   6   45.33    2.49 
  -3   2  -6   45.08    2.44 
   3   2   6   45.24    2.45 
  -3   2  -6   46.97    2.47 
   3   2   6   44.03    2.44 
   3   2   6   44.78    2.51 
   4  -2   6   72.08    4.26 
   4  -2   6   76.45    4.33 
  -4  -2  -6   71.74    4.25 
   4  -2   6   75.67    4.25 
  -4  -2  -6   65.56    4.34 
   4  -2   6   73.28    4.23 
  -4  -2  -6   75.89    4.28 
   4  -2   6   75.05    4.26 
   4   2   6   79.25    4.23 
   4   2   6   80.54    4.23 
  -4   2  -6   79.29    4.23 
   4   2   6   77.85    4.24 
  -4   2  -6   79.92    4.29 
  -4   2  -6   79.98    4.23 
  -4   2  -6   78.94    4.26 
   4   2   6   77.91    4.28 
   4   2   6   75.03    4.31 
   5  -2   6    1.35    0.27 
   5  -2   6    1.60    0.35 
  -5  -2  -6    1.97    0.32 
   5  -2   6    1.36    0.23 
  -5  -2  -6    1.23    0.27 
   5  -2   6    1.16    0.23 
   5   2   6    2.38    0.31 
   5   2   6    2.02    0.33 
  -5   2  -6    1.69    0.30 
   5   2   6    2.37    0.31 
  -5   2  -6    2.19    0.31 
  -5   2  -6    1.85    0.30 
   5   2   6    2.09    0.33 
  -5   2  -6    2.27    0.32 
   5   2   6    1.64    0.29 
   6  -2   6   36.13    2.13 
   6  -2   6   37.83    2.09 
  -6  -2  -6   37.98    2.16 
   6  -2   6   38.36    2.25 
  -6  -2  -6   37.56    2.12 
   6  -2   6   39.24    2.31 
   6  -2   6   37.01    2.16 
  -6  -2  -6   38.14    2.17 
  -6   2  -6   32.70    2.09 
   6   2   6   33.76    2.11 
  -6   2  -6   34.24    2.16 
   6   2   6   34.39    2.08 
   6   2   6   33.56    2.09 
  -6   2  -6   34.01    2.15 
   7   2   6    3.13    0.47 
  -7   2  -6    3.00    0.47 
  -7   2  -6    2.57    0.46 
   7   2   6    3.70    0.48 
  -7   2  -6    3.22    0.56 
   7   2   6    3.16    0.49 
  -8  -3   6    2.76    0.47 
  -8  -3   6    3.81    0.63 
  -8  -3   6    3.27    0.38 
  -8   3   6    3.97    0.61 
  -8   3   6    4.17    0.65 
  -8   3   6    4.16    0.52 
  -7  -3   6    8.62    0.57 
  -7  -3   6    8.88    0.60 
  -7  -3   6    8.83    0.80 
   7  -3  -6    8.54    0.57 
   7  -3  -6    8.81    0.56 
  -7  -3   6    8.72    0.72 
  -7   3   6    8.93    0.77 
  -7   3   6    9.29    0.75 
  -7   3   6    9.28    0.77 
  -7   3   6    9.53    0.79 
  -7   3   6    9.56    0.83 
  -6  -3   6   24.31    1.55 
   6  -3  -6   25.12    1.55 
   6  -3  -6   25.01    1.52 
  -6  -3   6   25.49    1.44 
  -6  -3   6   25.74    1.60 
  -6  -3   6   25.52    1.45 
  -6  -3   6   22.89    1.64 
  -6  -3   6   26.42    1.44 
   6  -3  -6   25.39    1.46 
  -6  -3   6   26.60    1.68 
   6  -3  -6   25.87    1.45 
  -6   3   6   26.89    1.57 
  -6   3   6   27.02    1.50 
  -6   3   6   26.39    1.60 
  -6   3   6   24.78    1.68 
  -6   3   6   27.04    1.58 
  -6   3   6   27.58    1.62 
   5  -3  -6    8.26    0.62 
  -5  -3   6    8.67    0.70 
  -5  -3   6    7.91    0.59 
   5  -3  -6    8.00    0.53 
  -5  -3   6    8.00    0.51 
  -5  -3   6    8.12    0.59 
  -5  -3   6    7.74    0.49 
   5  -3  -6    8.15    0.51 
  -5  -3   6    8.19    0.65 
  -5   3   6    8.21    0.54 
  -5   3   6    8.46    0.65 
  -5   3   6    8.34    0.70 
  -5   3   6    8.35    0.59 
  -5   3   6    8.28    0.63 
  -5   3   6    8.08    0.62 
  -4  -3   6   41.68    2.37 
   4  -3  -6   41.80    2.33 
   4  -3  -6   40.92    2.35 
  -4  -3   6   42.35    2.40 
   4  -3  -6   41.85    2.34 
   4  -3  -6   42.49    2.32 
  -4  -3   6   42.44    2.37 
  -4  -3   6   41.47    2.30 
   4  -3  -6   42.03    2.37 
  -4  -3   6   42.26    2.29 
  -4  -3   6   43.73    2.48 
  -4   3   6   41.38    2.38 
  -4   3   6   40.74    2.39 
  -4   3   6   41.15    2.36 
  -4   3   6   40.56    2.34 
  -4   3   6   44.29    2.47 
  -4   3   6   38.74    2.41 
   3  -3  -6   58.23    3.33 
   3  -3  -6   58.15    3.32 
   3  -3  -6   56.67    3.36 
   3  -3  -6   56.62    3.34 
  -3  -3   6   59.01    3.35 
  -3  -3   6   58.30    3.29 
  -3  -3   6   56.96    3.29 
  -3  -3   6   57.93    3.44 
   3  -3  -6   57.11    3.33 
  -3   3   6   66.06    3.34 
  -3   3   6   65.47    3.44 
  -3   3   6   63.77    3.38 
  -3   3   6   64.04    3.38 
  -3   3   6   63.22    3.36 
  -3   3   6   62.10    3.40 
   2  -3  -6   22.47    1.24 
   2  -3  -6   22.96    1.23 
  -2  -3   6   22.98    1.21 
  -2  -3   6   22.48    1.25 
  -2  -3   6   22.13    1.34 
  -2  -3   6   22.23    1.20 
   2  -3  -6   22.81    1.27 
   2  -3  -6   23.71    1.25 
   2  -3  -6   23.03    1.24 
  -2  -3   6   22.83    1.22 
   2   3  -6   20.12    1.19 
  -2   3   6   19.70    1.29 
  -2   3   6   20.15    1.26 
   2   3  -6   20.50    1.21 
  -2   3   6   20.02    1.27 
  -2   3   6   19.72    1.25 
  -2   3   6   20.64    1.31 
   2   3  -6   20.95    1.20 
   1  -3  -6   73.99    4.25 
  -1  -3   6   76.43    4.15 
  -1  -3   6   63.64    4.44 
   1  -3  -6   73.80    4.22 
   1  -3  -6   75.47    4.16 
   1  -3  -6   74.60    4.17 
  -1  -3   6   75.25    4.17 
  -1  -3   6   74.30    4.14 
   1  -3  -6   74.17    4.17 
  -1   3   6   77.77    4.18 
   1   3  -6   78.12    4.15 
   1   3  -6   76.47    4.29 
  -1   3   6   78.36    4.21 
  -1   3   6   79.67    4.19 
  -1   3   6   81.36    4.25 
  -1   3   6   77.04    4.18 
   0  -3   6   39.87    2.20 
   0  -3  -6   37.64    2.22 
   0  -3  -6   39.05    2.18 
   0  -3   6   40.42    2.17 
   0  -3  -6   39.58    2.18 
   0  -3   6   39.74    2.16 
   0  -3   6   39.41    2.16 
   0  -3  -6   38.24    2.25 
   0  -3  -6   39.96    2.17 
   0   3   6   40.64    2.20 
   0   3   6   37.93    2.21 
   0   3   6   37.58    2.19 
   0   3  -6   37.47    2.28 
   0   3   6   37.82    2.18 
   0   3  -6   39.10    2.18 
   0   3   6   38.43    2.18 
   0   3  -6   38.63    2.17 
  -1  -3  -6   17.63    1.03 
  -1  -3  -6   17.78    0.94 
   1  -3   6   16.85    0.93 
   1  -3   6   17.60    0.99 
  -1  -3  -6   17.69    0.96 
   1  -3   6   17.43    0.94 
   1  -3   6   17.62    0.93 
  -1  -3  -6   17.89    1.01 
   1   3   6   15.08    0.93 
   1   3   6   14.64    0.94 
  -1   3  -6   14.90    0.96 
  -1   3  -6   14.59    0.94 
   1   3   6   14.50    0.98 
  -1   3  -6   13.91    1.03 
   1   3   6   14.79    0.97 
  -1   3  -6   14.65    0.91 
   1   3   6   14.75    0.96 
   2  -3   6  114.31    6.44 
   2  -3   6  114.70    6.38 
  -2  -3  -6  119.49    6.41 
   2  -3   6  112.39    6.38 
  -2  -3  -6  116.28    6.44 
   2  -3   6  119.17    6.40 
  -2  -3  -6  121.98    6.39 
  -2  -3  -6  116.41    6.40 
  -2   3  -6  117.12    6.38 
   2   3   6  117.55    6.40 
   2   3   6  117.44    6.44 
  -2   3  -6  115.93    6.37 
  -2   3  -6  114.86    6.42 
  -2   3  -6  114.83    6.40 
   2   3   6  111.99    6.42 
  -2   3  -6  119.08    6.50 
   2   3   6  113.68    6.39 
   3  -3   6    3.89    0.36 
   3  -3   6    3.90    0.45 
  -3  -3  -6    3.90    0.38 
  -3  -3  -6    4.14    0.37 
  -3  -3  -6    3.92    0.40 
   3  -3   6    3.83    0.39 
   3  -3   6    4.10    0.37 
   3  -3   6    3.53    0.41 
   3   3   6    5.21    0.45 
  -3   3  -6    5.74    0.45 
   3   3   6    5.84    0.42 
   3   3   6    5.43    0.38 
  -3   3  -6    5.80    0.40 
  -3   3  -6    5.52    0.37 
  -3   3  -6    5.40    0.36 
  -4  -3  -6   27.84    1.81 
  -4  -3  -6   28.99    1.70 
  -4  -3  -6   29.09    1.72 
   4  -3   6   28.67    1.68 
   4  -3   6   28.87    1.71 
   4  -3   6   28.93    1.71 
   4  -3   6   28.34    1.78 
   4  -3   6   29.23    1.69 
   4   3   6   30.43    1.68 
   4   3   6   28.77    1.68 
  -4   3  -6   28.16    1.68 
  -4   3  -6   29.45    1.72 
   4   3   6   28.82    1.76 
  -4   3  -6   30.05    1.68 
   4   3   6   30.21    1.70 
  -4   3  -6   30.40    1.75 
   5  -3   6   48.29    3.01 
  -5  -3  -6   47.78    2.91 
   5  -3   6   48.66    2.89 
   5  -3   6   50.66    2.91 
   5  -3   6   48.92    2.93 
   5  -3   6   47.79    2.93 
  -5  -3  -6   49.35    2.96 
   5   3   6   53.89    2.89 
   5   3   6   52.62    3.00 
   5   3   6   55.19    2.90 
  -5   3  -6   55.00    2.98 
  -5   3  -6   50.00    2.94 
  -5   3  -6   54.71    2.95 
   5   3   6   55.45    2.92 
  -5   3  -6   51.22    2.90 
   6  -3   6    2.95    0.39 
  -6  -3  -6    3.14    0.46 
   6  -3   6    3.04    0.49 
  -6  -3  -6    3.02    0.41 
  -6  -3  -6    3.16    0.44 
   6  -3   6    3.09    0.51 
   6  -3   6    3.50    0.60 
  -6   3  -6    2.29    0.40 
  -6   3  -6    2.75    0.53 
   6   3   6    2.89    0.51 
   6   3   6    2.60    0.35 
  -6   3  -6    2.47    0.41 
   6   3   6    2.51    0.39 
  -7  -3  -6    6.39    0.63 
   7  -3   6    6.43    0.76 
  -7  -3  -6    6.48    0.67 
   7  -3   6    6.08    0.61 
   7   3   6    8.50    0.79 
   7   3   6    7.63    0.65 
  -7   3  -6    7.48    0.66 
  -7   3  -6    8.29    0.80 
  -7   3  -6    8.28    0.88 
  -8   4   6   15.35    1.18 
  -8   4   6   15.87    1.22 
  -8   4   6   16.39    1.20 
  -7  -4   6   12.33    0.91 
   7  -4  -6   12.14    0.82 
  -7  -4   6   12.50    0.80 
  -7  -4   6   12.35    0.99 
   7  -4  -6   12.17    0.80 
  -7   4   6   13.89    1.00 
  -7   4   6   13.58    1.01 
  -7   4   6   14.63    0.97 
  -7   4   6   13.27    0.99 
   6  -4  -6   13.97    0.95 
   6  -4  -6   13.83    0.87 
  -6  -4   6   13.92    1.05 
  -6  -4   6   13.48    0.92 
   6  -4  -6   13.66    0.85 
  -6  -4   6   13.61    0.99 
   6  -4  -6   14.03    0.98 
  -6  -4   6   12.33    0.98 
  -6  -4   6   13.27    0.82 
  -6   4   6   14.56    1.01 
  -6   4   6   15.51    1.02 
  -6   4   6   15.53    0.98 
  -6   4   6   14.94    0.89 
  -6   4   6   14.76    1.10 
   5  -4  -6   19.69    1.16 
  -5  -4   6   20.51    1.24 
  -5  -4   6   20.01    1.09 
  -5  -4   6   20.69    1.19 
  -5  -4   6   20.24    1.10 
  -5  -4   6   21.81    1.21 
   5  -4  -6   20.41    1.15 
   5  -4  -6   20.49    1.23 
  -5  -4   6   21.39    1.33 
   5  -4  -6   20.44    1.14 
  -5   4   6   17.40    1.19 
  -5   4   6   17.84    1.26 
  -5   4   6   18.10    1.22 
  -5   4   6   18.43    1.28 
  -5   4   6   17.50    1.15 
  -5   4   6   17.70    1.22 
  -4  -4   6   34.55    2.03 
  -4  -4   6   34.68    1.92 
  -4  -4   6   34.33    1.95 
  -4  -4   6   34.36    1.93 
   4  -4  -6   34.79    1.90 
   4  -4  -6   33.64    1.91 
   4  -4  -6   34.27    1.94 
   4  -4  -6   34.01    1.90 
   4  -4  -6   33.98    1.88 
  -4   4   6   31.01    1.92 
  -4   4   6   33.64    2.00 
  -4   4   6   32.20    1.89 
  -4   4   6   31.92    1.94 
  -4   4   6   32.63    1.86 
  -4   4   6   31.26    1.95 
  -3  -4   6   46.37    2.62 
   3  -4  -6   45.95    2.59 
  -3  -4   6   48.69    2.71 
   3  -4  -6   46.12    2.58 
  -3  -4   6   46.20    2.63 
   3  -4  -6   45.52    2.62 
   3  -4  -6   47.48    2.59 
   3  -4  -6   47.10    2.59 
  -3  -4   6   45.92    2.60 
  -3   4   6   47.01    2.64 
  -3   4   6   46.70    2.61 
  -3   4   6   47.03    2.59 
  -3   4   6   43.81    2.66 
  -3   4   6   45.22    2.63 
  -2  -4   6   41.21    2.16 
   2  -4  -6   40.72    2.19 
   2  -4  -6   40.87    2.21 
  -2  -4   6   40.24    2.15 
  -2  -4   6   40.39    2.21 
   2  -4  -6   41.20    2.21 
   2  -4  -6   39.29    2.23 
  -2  -4   6   38.01    2.30 
   2  -4  -6   39.88    2.20 
  -2  -4   6   40.53    2.15 
  -2   4   6   37.52    2.22 
   2   4  -6   39.20    2.16 
  -2   4   6   38.54    2.26 
  -2   4   6   36.88    2.24 
  -2   4   6   37.47    2.22 
  -2   4   6   36.16    2.26 
  -1  -4   6    6.08    0.41 
  -1  -4   6    6.50    0.54 
   1  -4  -6    6.38    0.46 
  -1  -4   6    6.10    0.44 
   1  -4  -6    6.06    0.44 
   1  -4  -6    6.00    0.53 
   1  -4  -6    6.57    0.54 
  -1  -4   6    5.91    0.41 
  -1   4   6    7.58    0.48 
  -1   4   6    7.74    0.51 
  -1   4   6    7.41    0.48 
  -1   4   6    7.49    0.53 
  -1   4   6    8.12    0.51 
   1   4  -6    7.61    0.43 
   1   4  -6    7.49    0.42 
   1   4  -6    7.35    0.60 
  -1   4   6    7.55    0.48 
   0  -4   6   86.46    4.80 
   0  -4   6   84.48    4.80 
   0  -4   6   81.82    4.83 
   0  -4  -6   83.56    4.88 
   0  -4  -6   86.57    4.81 
   0  -4  -6   85.65    4.82 
   0  -4   6   83.36    4.79 
   0  -4  -6   82.00    4.87 
   0  -4  -6   85.31    4.82 
   0   4   6   89.32    4.86 
   0   4  -6   91.92    4.81 
   0   4   6   91.55    4.83 
   0   4   6   91.27    4.85 
   0   4  -6   90.11    4.93 
   0   4   6   92.55    4.84 
   0   4   6   94.44    4.82 
  -1  -4  -6   42.12    2.37 
   1  -4   6   41.50    2.34 
   1  -4   6   42.19    2.35 
  -1  -4  -6   41.93    2.42 
   1  -4   6   42.23    2.35 
  -1  -4  -6   42.52    2.42 
   1  -4   6   41.57    2.40 
  -1  -4  -6   43.05    2.36 
   1   4   6   41.71    2.39 
   1   4   6   41.79    2.35 
   1   4   6   42.20    2.41 
   1   4   6   41.79    2.37 
  -1   4  -6   42.96    2.36 
  -1   4  -6   42.01    2.32 
  -1   4  -6   41.97    2.46 
   1   4   6   41.76    2.38 
  -1   4  -6   43.01    2.38 
  -2  -4  -6    3.89    0.34 
   2  -4   6    3.67    0.39 
  -2  -4  -6    3.63    0.34 
  -2  -4  -6    3.96    0.32 
   2  -4   6    3.84    0.31 
   2  -4   6    3.64    0.31 
  -2  -4  -6    3.81    0.39 
   2  -4   6    3.71    0.31 
   2   4   6    3.42    0.32 
   2   4   6    3.89    0.37 
  -2   4  -6    3.56    0.29 
   2   4   6    3.48    0.35 
   2   4   6    3.58    0.36 
  -2   4  -6    3.82    0.44 
  -2   4  -6    3.76    0.31 
  -2   4  -6    3.43    0.35 
  -3  -4  -6   88.20    4.87 
  -3  -4  -6   89.88    4.91 
   3  -4   6   87.82    4.85 
   3  -4   6   86.73    4.85 
   3  -4   6   84.37    4.85 
   3  -4   6   86.47    4.92 
  -3  -4  -6   89.52    4.87 
  -3   4  -6   85.85    4.89 
   3   4   6   88.74    4.86 
  -3   4  -6   89.60    4.84 
  -3   4  -6   87.84    4.83 
  -3   4  -6   86.73    4.87 
   3   4   6   88.67    4.92 
   3   4   6   87.64    4.85 
  -4  -4  -6   47.65    2.68 
  -4  -4  -6   47.07    2.65 
   4  -4   6   45.81    2.62 
  -4  -4  -6   46.84    2.64 
   4  -4   6   46.43    2.61 
   4  -4   6   47.79    2.64 
   4  -4   6   47.23    2.72 
  -4   4  -6   46.78    2.61 
  -4   4  -6   45.58    2.64 
   4   4   6   46.64    2.59 
  -4   4  -6   46.68    2.60 
  -4   4  -6   44.78    2.67 
   4   4   6   42.90    2.64 
   4   4   6   46.30    2.63 
   4   4   6   45.97    2.69 
   5  -4   6    7.91    0.79 
   5  -4   6    8.13    0.69 
  -5  -4  -6    8.58    0.72 
  -5  -4  -6    8.14    0.67 
   5  -4   6    7.61    0.66 
  -5  -4  -6    8.37    0.70 
  -5  -4  -6    8.32    0.62 
   5  -4   6    8.21    0.64 
   5  -4   6    8.37    0.68 
  -5   4  -6    9.96    0.65 
  -5   4  -6   10.31    0.77 
   5   4   6   10.40    0.75 
   5   4   6   10.68    0.71 
  -5   4  -6   10.56    0.73 
  -5   4  -6   10.47    0.66 
   5   4   6   10.96    0.66 
   5   4   6   10.33    0.65 
   6  -4   6   37.90    2.45 
   6  -4   6   39.79    2.56 
  -6  -4  -6   39.81    2.42 
   6  -4   6   40.39    2.40 
  -6  -4  -6   39.99    2.46 
  -6  -4  -6   40.70    2.47 
   6  -4   6   38.76    2.42 
  -6   4  -6   43.32    2.50 
   6   4   6   45.44    2.43 
  -6   4  -6   44.66    2.49 
  -6   4  -6   43.68    2.40 
   6   4   6   43.55    2.39 
   6   4   6   43.26    2.39 
  -7  -4  -6    2.28    0.45 
   7  -4   6    2.92    0.48 
  -7  -4  -6    2.39    0.37 
   7  -4   6    2.31    0.41 
   7   4   6    3.95    0.59 
  -7  -5   6    7.51    0.75 
   7  -5  -6    7.21    0.57 
  -7  -5   6    7.06    0.67 
   7  -5  -6    7.60    0.60 
  -7   5   6    7.47    0.71 
  -7   5   6    7.01    0.72 
  -7   5   6    6.25    0.77 
  -7   5   6    7.13    0.73 
  -6  -5   6   14.99    0.86 
   6  -5  -6   15.61    1.06 
  -6  -5   6   15.34    1.05 
   6  -5  -6   15.67    0.95 
  -6  -5   6   15.85    1.01 
  -6  -5   6   15.61    0.97 
   6  -5  -6   15.05    0.92 
  -6   5   6   14.27    1.06 
  -6   5   6   13.77    1.06 
  -6   5   6   13.49    1.02 
  -6   5   6   14.53    1.13 
  -6   5   6   14.10    1.06 
   5  -5  -6    0.23    0.12 
  -5  -5   6    0.28    0.23 
  -5  -5   6    0.26    0.22 
   5  -5  -6    0.08    0.23 
   5  -5  -6    0.48    0.14 
  -5  -5   6    0.20    0.20 
  -5  -5   6    0.19    0.19 
   5  -5  -6    0.19    0.14 
   5  -5  -6    0.18    0.17 
  -5   5   6    0.21    0.22 
  -5   5   6    0.07    0.12 
  -5   5   6    0.07    0.22 
  -5   5   6    0.25    0.26 
  -5   5   6    0.27    0.24 
   4  -5  -6   45.94    2.71 
   4  -5  -6   48.00    2.67 
  -4  -5   6   46.64    2.67 
  -4  -5   6   46.20    2.70 
  -4  -5   6   48.36    2.80 
   4  -5  -6   47.64    2.65 
   4  -5  -6   45.64    2.67 
   4  -5  -6   47.66    2.67 
  -4  -5   6   47.55    2.71 
  -4   5   6   48.53    2.73 
  -4   5   6   47.96    2.71 
  -4   5   6   48.09    2.67 
  -4   5   6   47.39    2.70 
  -4   5   6   46.20    2.76 
  -4   5   6   50.78    2.77 
  -4   5   6   47.20    2.63 
   3  -5  -6   51.48    2.89 
   3  -5  -6   48.93    2.88 
  -3  -5   6   52.92    3.00 
  -3  -5   6   49.18    2.88 
   3  -5  -6   51.81    2.89 
   3  -5  -6   49.68    2.92 
  -3  -5   6   48.97    2.90 
  -3  -5   6   49.53    2.93 
   3  -5  -6   49.96    2.87 
  -3   5   6   55.38    2.97 
  -3   5   6   54.03    2.88 
  -3   5   6   53.32    2.98 
  -3   5   6   53.45    2.89 
  -3   5   6   54.16    2.93 
  -3   5   6   52.74    2.91 
   2  -5  -6   22.37    1.29 
   2  -5  -6   22.49    1.31 
  -2  -5   6   22.61    1.24 
  -2  -5   6   23.40    1.41 
   2  -5  -6   21.79    1.31 
   2  -5  -6   22.26    1.34 
   2  -5  -6   22.79    1.30 
  -2   5   6   22.66    1.33 
  -2   5   6   24.39    1.37 
  -2   5   6   22.40    1.33 
  -2   5   6   22.64    1.39 
  -2   5   6   20.54    1.40 
   1  -5  -6   42.15    2.25 
  -1  -5   6   43.04    2.36 
  -1  -5   6   42.06    2.21 
  -1  -5   6   40.65    2.24 
  -1  -5   6   42.11    2.21 
   1  -5  -6   38.98    2.28 
   1  -5  -6   41.81    2.26 
   1  -5  -6   40.36    2.33 
   1   5  -6   40.18    2.23 
  -1   5   6   37.89    2.27 
   1   5  -6   39.24    2.21 
  -1   5   6   34.77    2.33 
  -1   5   6   40.70    2.29 
   1   5  -6   39.25    2.37 
  -1   5   6   40.48    2.27 
  -1   5   6   38.46    2.26 
   0  -5  -6   69.33    3.72 
   0  -5  -6   69.42    3.73 
   0  -5  -6   68.50    3.79 
   0  -5  -6   68.13    3.73 
   0  -5   6   68.36    3.69 
   0  -5   6   68.53    3.69 
   0  -5  -6   65.20    3.77 
   0  -5   6   69.12    3.69 
   0  -5   6   68.12    3.74 
   0   5   6   64.54    3.73 
   0   5  -6   67.67    3.70 
   0   5   6   67.07    3.76 
   0   5   6   67.36    3.74 
   0   5   6   65.61    3.72 
   0   5   6   64.82    3.74 
   0   5  -6   64.09    3.82 
   0   5  -6   65.84    3.71 
   1   5   6    5.20    0.43 
   1   5   6    5.03    0.42 
   1   5   6    5.04    0.40 
  -1   5  -6    5.20    0.51 
  -1   5  -6    5.13    0.38 
   1   5   6    5.48    0.37 
  -1   5  -6    4.93    0.41 
  -1   5  -6    5.00    0.32 
   1   5   6    5.55    0.44 
   2  -5   6   83.75    5.17 
  -2  -5  -6   89.63    5.14 
   2  -5   6   89.31    5.10 
  -2  -5  -6   87.52    5.17 
  -2  -5  -6   89.04    5.18 
  -2  -5  -6   91.09    5.12 
  -2  -5  -6   90.19    5.13 
   2  -5   6   90.05    5.11 
   2  -5   6   90.57    5.11 
   2   5   6  100.81    5.15 
  -2   5  -6   95.76    5.24 
  -2   5  -6   95.96    5.09 
   2   5   6   96.61    5.09 
   2   5   6   97.89    5.18 
  -2   5  -6   96.89    5.13 
   2   5   6   96.77    5.13 
   2   5   6   92.43    5.15 
  -2   5  -6   95.68    5.15 
   3  -5   6    9.92    0.68 
   3  -5   6   10.79    0.64 
   3  -5   6   10.28    0.75 
   3  -5   6    9.70    0.67 
  -3  -5  -6   10.55    0.68 
  -3  -5  -6   11.22    0.69 
  -3  -5  -6    9.84    0.80 
   3   5   6    8.83    0.64 
  -3   5  -6    9.27    0.61 
  -3   5  -6    8.75    0.65 
   3   5   6    9.38    0.70 
  -3   5  -6    9.33    0.62 
   3   5   6    9.62    0.60 
   3   5   6    9.21    0.69 
  -3   5  -6    9.06    0.70 
   3   5   6    9.52    0.69 
  -4  -5  -6   19.83    1.17 
   4  -5   6   19.54    1.18 
   4  -5   6   19.49    1.19 
  -4  -5  -6   19.64    1.22 
   4  -5   6   19.88    1.31 
  -4  -5  -6   19.49    1.25 
  -4  -5  -6   19.34    1.20 
   4  -5   6   18.84    1.18 
  -4   5  -6   19.47    1.21 
   4   5   6   18.95    1.24 
   4   5   6   20.03    1.21 
  -4   5  -6   18.87    1.25 
   4   5   6   19.63    1.25 
  -4   5  -6   19.46    1.15 
  -4   5  -6   19.26    1.16 
   4   5   6   19.90    1.14 
   5  -5   6   46.71    2.92 
  -5  -5  -6   48.33    2.84 
  -5  -5  -6   46.81    2.80 
   5  -5   6   45.90    2.78 
   5  -5   6   46.33    2.80 
  -5  -5  -6   46.60    2.81 
   5  -5   6   45.81    2.77 
  -5   5  -6   51.56    2.76 
  -5   5  -6   50.90    2.78 
   5   5   6   51.72    2.77 
   5   5   6   50.56    2.74 
  -5   5  -6   49.97    2.86 
  -5   5  -6   49.97    2.83 
   5   5   6   53.07    2.80 
  -6  -5  -6    0.47    0.23 
   6  -5   6    0.38    0.26 
   6  -5   6    0.52    0.73 
  -6  -5  -6    0.57    0.27 
   6  -5   6    0.28    0.31 
   6  -5   6    0.46    0.21 
   6   5   6    0.13    0.24 
   6   5   6    0.33    0.30 
  -6   5  -6    0.12    0.29 
  -6   5  -6    0.32    0.24 
   6   5   6    0.18    0.24 
   6   5   6    0.06    0.24 
   7  -5   6   18.95    1.32 
   7  -5   6   19.09    1.25 
  -7   5  -6   19.40    1.41 
   7   5   6   19.78    1.25 
   7   5   6   19.13    1.35 
  -7   5  -6   19.62    1.28 
   7  -6  -6   10.72    0.79 
  -7  -6   6   10.84    0.92 
  -7  -6   6   10.65    0.82 
   7  -6  -6   10.62    0.77 
  -7   6   6    9.79    0.91 
  -7   6   6    9.63    0.92 
  -7   6   6   10.30    0.88 
  -7   6   6   10.13    1.09 
  -6  -6   6    8.44    0.76 
  -6  -6   6    8.36    0.73 
  -6  -6   6    8.27    0.67 
   6  -6  -6    8.75    0.84 
   6  -6  -6    8.88    0.67 
  -6  -6   6    8.32    0.53 
  -6   6   6    8.93    0.79 
  -6   6   6    9.07    0.80 
  -6   6   6    8.76    0.85 
  -6   6   6    8.66    0.78 
  -6   6   6    9.30    0.76 
   5  -6  -6   23.70    1.42 
  -5  -6   6   24.44    1.49 
   5  -6  -6   24.56    1.43 
  -5  -6   6   25.22    1.59 
   5  -6  -6   20.62    1.39 
   5  -6  -6   25.12    1.52 
  -5  -6   6   25.19    1.43 
  -5  -6   6   24.62    1.48 
   5  -6  -6   25.78    1.44 
  -5   6   6   24.04    1.55 
  -5   6   6   23.95    1.49 
  -5   6   6   23.86    1.56 
  -5   6   6   22.91    1.50 
  -5   6   6   23.00    1.41 
   4  -6  -6   18.00    1.12 
  -4  -6   6   17.60    1.12 
   4  -6  -6   17.73    1.10 
   4  -6  -6   18.15    1.13 
  -4  -6   6   18.02    1.24 
  -4  -6   6   17.61    1.15 
   4  -6  -6   17.07    1.19 
  -4  -6   6   17.82    1.17 
   4  -6  -6   17.67    1.12 
  -4   6   6   20.67    1.23 
  -4   6   6   19.69    1.17 
  -4   6   6   18.68    1.24 
  -4   6   6   20.04    1.21 
  -4   6   6   20.27    1.09 
  -4   6   6   19.36    1.18 
  -4   6   6   19.61    1.11 
  -3  -6   6   22.63    1.40 
   3  -6  -6   23.48    1.40 
   3  -6  -6   22.64    1.46 
   3  -6  -6   22.65    1.41 
   3  -6  -6   22.94    1.39 
  -3  -6   6   22.70    1.41 
  -3  -6   6   21.81    1.45 
  -3  -6   6   23.27    1.51 
   3  -6  -6   21.49    1.41 
  -3   6   6   26.06    1.48 
  -3   6   6   25.58    1.44 
  -3   6   6   26.40    1.41 
  -3   6   6   26.72    1.59 
  -3   6   6   27.79    1.49 
  -3   6   6   26.49    1.46 
   2  -6  -6   67.73    3.67 
   2  -6  -6   67.34    3.67 
  -2  -6   6   65.36    3.71 
  -2  -6   6   67.07    3.65 
   2  -6  -6   66.81    3.65 
   2  -6  -6   67.08    3.70 
  -2  -6   6   64.95    3.60 
   2  -6  -6   66.96    3.65 
  -2  -6   6   68.34    3.77 
  -2   6   6   68.98    3.71 
  -2   6   6   64.49    3.68 
  -2   6   6   62.90    3.75 
  -2   6   6   62.79    3.71 
  -2   6   6   62.96    3.68 
  -2   6   6   64.52    3.67 
   1  -6  -6   13.62    0.91 
   1  -6  -6   13.55    0.87 
  -1  -6   6   14.30    0.97 
  -1  -6   6   14.17    0.82 
   1  -6  -6   13.81    0.85 
   1  -6  -6   13.81    0.97 
  -1  -6   6   12.63    0.85 
  -1  -6   6   13.65    0.81 
   1  -6  -6   13.61    0.87 
  -1  -6   6   14.15    0.81 
   1   6  -6   15.13    0.83 
  -1   6   6   14.29    0.89 
  -1   6   6   14.44    0.97 
  -1   6   6   14.47    0.92 
  -1   6   6   15.86    0.89 
   1   6  -6   14.91    1.00 
   1   6  -6   15.02    0.81 
  -1   6   6   14.89    0.88 
   0  -6   6   45.24    2.66 
   0  -6   6   44.32    2.70 
   0  -6  -6   45.25    2.69 
   0  -6   6   44.41    2.65 
   0  -6  -6   45.19    2.70 
   0  -6  -6   46.78    2.78 
   0  -6  -6   44.50    2.70 
   0  -6   6   45.15    2.66 
   0  -6  -6   43.88    2.73 
   0   6   6   52.42    2.73 
   0   6   6   51.65    2.70 
   0   6   6   52.87    2.76 
   0   6   6   52.63    2.72 
   0   6  -6   51.85    2.68 
   0   6   6   51.87    2.74 
   0   6  -6   52.92    2.69 
   0   6  -6   48.22    2.81 
   1  -6   6   89.13    4.90 
  -1  -6  -6   84.50    4.87 
  -1  -6  -6   87.40    4.90 
   1  -6   6   88.27    4.84 
  -1  -6  -6   85.53    4.93 
   1  -6   6   87.97    4.84 
   1  -6   6   88.76    4.82 
   1   6   6   86.81    4.89 
  -1   6  -6   90.50    4.97 
   1   6   6   88.05    4.92 
   1   6   6   89.11    4.89 
  -1   6  -6   88.73    4.87 
   1   6   6   88.07    4.87 
   1   6   6   89.05    4.84 
   2  -6   6    2.07    0.38 
   2  -6   6    2.16    0.27 
   2  -6   6    2.11    0.30 
  -2  -6  -6    2.14    0.35 
  -2  -6  -6    2.16    0.31 
  -2  -6  -6    2.31    0.41 
   2  -6   6    2.31    0.24 
   2  -6   6    2.02    0.30 
   2   6   6    2.49    0.25 
   2   6   6    2.61    0.33 
   2   6   6    2.45    0.33 
  -2   6  -6    2.31    0.23 
   2   6   6    2.72    0.31 
  -2   6  -6    2.80    0.34 
   2   6   6    2.61    0.36 
  -2   6  -6    2.59    0.43 
   3  -6   6   29.63    1.78 
   3  -6   6   30.21    1.82 
  -3  -6  -6   30.26    1.86 
  -3  -6  -6   31.90    1.82 
  -3  -6  -6   30.66    1.78 
   3  -6   6   29.78    1.76 
  -3  -6  -6   29.63    1.80 
   3  -6   6   30.09    1.88 
   3  -6   6   29.50    1.79 
  -3   6  -6   31.44    1.84 
   3   6   6   32.50    1.74 
  -3   6  -6   30.98    1.93 
  -3   6  -6   31.70    1.75 
   3   6   6   32.14    1.86 
  -3   6  -6   31.59    1.76 
   3   6   6   32.42    1.82 
  -3   6  -6   31.71    1.81 
   3   6   6   31.97    1.79 
   4  -6   6   31.32    1.70 
   4  -6   6   32.70    1.72 
  -4  -6  -6   30.53    1.74 
  -4  -6  -6   33.11    1.71 
  -4  -6  -6   32.29    1.79 
  -4  -6  -6   31.07    1.73 
   4  -6   6   31.54    1.85 
   4   6   6   27.12    1.69 
   4   6   6   27.06    1.72 
  -4   6  -6   27.28    1.77 
   4   6   6   27.54    1.63 
   4   6   6   27.71    1.77 
   4   6   6   26.84    1.64 
   4   6   6   27.81    1.76 
  -4   6  -6   27.62    1.68 
  -4   6  -6   27.13    1.66 
  -4   6  -6   27.25    1.73 
   5  -6   6    1.63    0.44 
  -5  -6  -6    2.02    0.38 
   5  -6   6    2.04    0.32 
  -5  -6  -6    2.27    0.44 
  -5  -6  -6    2.26    0.38 
   5  -6   6    2.14    0.35 
   5  -6   6    1.75    0.29 
   5   6   6    1.60    0.23 
  -5   6  -6    1.51    0.25 
  -5   6  -6    1.21    0.33 
   5   6   6    1.70    0.34 
  -5   6  -6    1.30    0.36 
   5   6   6    1.54    0.33 
   5   6   6    1.51    0.27 
  -5   6  -6    1.38    0.26 
  -6  -6  -6   41.20    2.50 
   6  -6   6   38.99    2.41 
   6  -6   6   39.64    2.45 
   6  -6   6   37.60    2.45 
  -6  -6  -6   37.80    2.44 
  -6   6  -6   45.55    2.56 
   6   6   6   45.22    2.41 
  -6   6  -6   44.48    2.41 
   6   6   6   43.51    2.51 
   6   6   6   44.87    2.67 
  -7  -7   6   23.73    1.56 
   7  -7  -6   24.97    1.51 
  -7  -7   6   24.56    1.61 
  -7   7   6   22.96    1.71 
  -7   7   6   23.52    1.63 
  -7   7   6   23.86    1.61 
  -6  -7   6   18.74    1.31 
  -6  -7   6   18.77    1.23 
   6  -7  -6   19.42    1.25 
  -6  -7   6   18.00    1.32 
   6  -7  -6   18.18    1.22 
   6  -7  -6   19.13    1.40 
  -6   7   6   20.87    1.39 
  -6   7   6   22.30    1.46 
  -6   7   6   20.80    1.39 
  -6   7   6   21.46    1.37 
  -6   7   6   20.79    1.33 
  -5  -7   6    0.46    0.29 
   5  -7  -6    0.58    0.23 
   5  -7  -6    0.55    0.20 
  -5  -7   6    0.52    0.23 
   5  -7  -6    0.64    0.35 
  -5  -7   6    0.54    0.27 
   5  -7  -6    0.41    0.20 
  -5  -7   6    0.53    0.32 
  -5   7   6    0.60    0.34 
  -5   7   6    0.51    0.31 
  -5   7   6    0.32    0.26 
  -5   7   6    0.43    0.30 
   4  -7  -6   24.10    1.54 
  -4  -7   6   24.54    1.53 
   4  -7  -6   23.26    1.55 
   4  -7  -6   24.83    1.63 
  -4  -7   6   23.70    1.60 
   4  -7  -6   24.93    1.56 
  -4  -7   6   24.20    1.56 
  -4  -7   6   23.34    1.66 
  -4   7   6   31.15    1.53 
  -4   7   6   31.16    1.66 
  -4   7   6   30.34    1.62 
  -4   7   6   29.53    1.60 
  -4   7   6   30.00    1.71 
  -3  -7   6   78.48    4.22 
   3  -7  -6   78.19    4.23 
  -3  -7   6   78.33    4.28 
  -3  -7   6   75.94    4.20 
   3  -7  -6   77.07    4.27 
   3  -7  -6   75.54    4.21 
   3  -7  -6   75.67    4.23 
  -3  -7   6   80.72    4.34 
  -3   7   6   76.24    4.33 
  -3   7   6   75.52    4.28 
  -3   7   6   66.36    4.33 
  -3   7   6   73.90    4.21 
  -3   7   6   77.28    4.26 
  -3   7   6   72.93    4.24 
  -2  -7   6    3.51    0.44 
   2  -7  -6    2.72    0.34 
  -2  -7   6    3.07    0.36 
   2  -7  -6    3.01    0.34 
   2  -7  -6    3.23    0.29 
  -2  -7   6    2.96    0.23 
  -2  -7   6    3.23    0.30 
   2  -7  -6    3.00    0.30 
   2  -7  -6    2.96    0.42 
   1  -7  -6   61.91    3.10 
  -1  -7   6   58.70    3.02 
   1  -7  -6   58.42    3.06 
  -1  -7   6   59.69    3.00 
  -1  -7   6   60.65    2.99 
  -1  -7   6   59.27    3.00 
   1  -7  -6   51.61    3.10 
   1  -7  -6   59.89    3.10 
  -1  -7   6   60.47    2.99 
   1   7  -6   47.79    3.14 
  -1   7   6   49.73    3.05 
  -1   7   6   49.64    3.13 
  -1   7   6   47.71    3.08 
  -1   7   6   50.04    3.04 
  -1   7   6   49.06    3.07 
   1   7  -6   49.54    3.00 
   1   7  -6   50.08    2.98 
   0  -7   6   32.91    1.90 
   0  -7  -6   32.24    1.94 
   0  -7   6   31.66    1.93 
   0  -7  -6   32.24    1.95 
   0  -7  -6   31.27    2.01 
   0   7   6   35.36    1.96 
   0   7   6   34.21    1.98 
   0   7  -6   34.65    2.05 
   0   7   6   34.30    1.95 
   0   7  -6   34.45    1.92 
   0   7   6   35.32    1.99 
   0   7   6   34.92    1.92 
   0   7  -6   35.78    1.90 
   0   7   6   34.42    1.98 
  -1  -7  -6   46.63    2.77 
  -1  -7  -6   48.88    2.87 
  -1  -7  -6   47.37    2.75 
  -1  -7  -6   47.63    2.75 
   1  -7   6   47.78    2.78 
   1  -7   6   45.56    2.72 
   1  -7   6   47.42    2.72 
   1   7   6   46.17    2.89 
   1   7   6   52.25    2.79 
   1   7   6   50.79    2.78 
   1   7   6   50.83    2.72 
   1   7   6   51.30    2.76 
  -1   7  -6   49.12    2.85 
   1   7   6   50.01    2.80 
  -1   7  -6   50.27    2.76 
  -2  -7  -6   57.46    3.44 
   2  -7   6   56.62    3.35 
  -2  -7  -6   55.34    3.47 
   2  -7   6   56.02    3.39 
   2  -7   6   54.69    3.42 
   2  -7   6   57.47    3.39 
   2  -7   6   56.12    3.46 
  -2  -7  -6   59.16    3.42 
  -2   7  -6   65.74    3.45 
   2   7   6   64.27    3.43 
   2   7   6   65.96    3.48 
   2   7   6   62.87    3.48 
  -2   7  -6   64.16    3.53 
   2   7   6   64.12    3.37 
  -2   7  -6   64.40    3.36 
   2   7   6   66.01    3.45 
   2   7   6   65.27    3.45 
  -3  -7  -6    5.83    0.52 
  -3  -7  -6    5.94    0.56 
   3  -7   6    5.54    0.40 
   3  -7   6    6.16    0.46 
  -3  -7  -6    5.62    0.41 
   3  -7   6    5.68    0.62 
   3  -7   6    5.71    0.45 
   3  -7   6    5.20    0.47 
  -3  -7  -6    5.70    0.49 
   3   7   6    4.92    0.51 
  -3   7  -6    4.84    0.60 
  -3   7  -6    4.50    0.54 
  -3   7  -6    4.89    0.41 
   3   7   6    5.00    0.37 
  -3   7  -6    5.00    0.44 
   3   7   6    4.35    0.52 
   3   7   6    4.76    0.47 
   3   7   6    4.79    0.53 
  -4  -7  -6    4.78    0.52 
   4  -7   6    3.92    0.45 
  -4  -7  -6    4.10    0.46 
  -4  -7  -6    4.32    0.53 
   4  -7   6    4.14    0.42 
   4  -7   6    4.03    0.69 
   4  -7   6    3.89    0.41 
   4   7   6    4.81    0.52 
   4   7   6    4.30    0.50 
  -4   7  -6    4.51    0.38 
   4   7   6    4.50    0.54 
  -4   7  -6    4.03    0.50 
   4   7   6    4.56    0.33 
   4   7   6    4.48    0.34 
  -4   7  -6    4.44    0.57 
   4   7   6    4.68    0.46 
  -4   7  -6    4.30    0.41 
  -5  -7  -6   48.19    2.72 
   5  -7   6   46.13    2.65 
  -5  -7  -6   47.45    2.66 
   5  -7   6   46.00    2.63 
   5  -7   6   48.50    2.64 
   5  -7   6   46.33    2.82 
  -5  -7  -6   46.88    2.69 
  -5   7  -6   44.00    2.62 
  -5   7  -6   45.39    2.73 
   5   7   6   46.13    2.68 
  -5   7  -6   44.10    2.59 
   5   7   6   43.65    2.71 
   5   7   6   44.56    2.62 
   6  -7   6    6.12    0.68 
  -6  -7  -6    5.89    0.63 
  -6  -7  -6    5.91    0.64 
   6  -7   6    6.27    0.58 
   6   7   6    7.09    0.71 
  -6   7  -6    7.47    0.87 
  -6   7  -6    6.88    0.61 
   6   7   6    7.34    0.66 
   6  -8  -6    1.98    0.51 
  -6  -8   6    2.31    0.35 
   6  -8  -6    2.14    0.37 
  -6  -8   6    2.32    0.43 
  -6   8   6    2.94    0.51 
  -6   8   6    2.08    0.60 
  -6   8   6    1.90    0.44 
  -6   8   6    2.39    0.67 
  -6   8   6    2.97    0.45 
   5  -8  -6   37.54    2.11 
  -5  -8   6   36.84    2.26 
  -5  -8   6   34.86    2.12 
  -5  -8   6   35.77    2.06 
   5  -8  -6   36.06    2.20 
  -5   8   6   34.54    2.15 
  -5   8   6   36.38    2.19 
  -5   8   6   34.73    2.20 
  -5   8   6   36.40    2.25 
  -4  -8   6   16.09    0.98 
   4  -8  -6   15.93    1.02 
   4  -8  -6   14.90    0.98 
   4  -8  -6   15.77    1.12 
  -4  -8   6   16.35    1.15 
   4  -8  -6   15.58    0.99 
  -4  -8   6   15.21    1.07 
  -4  -8   6   15.72    1.00 
   4  -8  -6   15.75    1.02 
  -4   8   6   15.86    1.16 
  -4   8   6   16.05    1.11 
  -4   8   6   15.42    1.06 
  -4   8   6   16.27    1.07 
  -4   8   6   15.82    0.97 
  -3  -8   6   24.30    1.31 
   3  -8  -6   24.46    1.40 
   3  -8  -6   24.91    1.43 
   3  -8  -6   24.35    1.42 
   3  -8  -6   24.84    1.49 
  -3  -8   6   24.41    1.38 
   3  -8  -6   24.58    1.39 
  -3  -8   6   24.57    1.48 
  -3  -8   6   23.80    1.38 
  -3  -8   6   24.59    1.53 
  -3   8   6   22.74    1.41 
  -3   8   6   21.37    1.47 
  -3   8   6   22.74    1.54 
  -3   8   6   22.76    1.43 
  -3   8   6   22.18    1.44 
  -3   8   6   21.83    1.44 
   2  -8  -6   41.95    2.51 
  -2  -8   6   42.68    2.56 
  -2  -8   6   43.06    2.43 
   2  -8  -6   38.81    2.48 
   2  -8  -6   42.27    2.51 
  -2  -8   6   44.03    2.60 
   2  -8  -6   41.95    2.55 
  -2  -8   6   42.44    2.45 
   2  -8  -6   42.89    2.48 
  -2   8   6   46.27    2.53 
  -2   8   6   46.35    2.57 
  -2   8   6   46.60    2.52 
  -2   8   6   48.33    2.52 
  -2   8   6   46.29    2.63 
  -2   8   6   47.64    2.53 
  -1  -8   6    4.87    0.35 
   1  -8  -6    4.70    0.50 
  -1  -8   6    5.02    0.33 
   1  -8  -6    4.44    0.43 
   1  -8  -6    4.65    0.43 
  -1  -8   6    4.86    0.38 
   1   8  -6    4.77    0.35 
  -1   8   6    4.92    0.45 
  -1   8   6    4.23    0.46 
  -1   8   6    4.53    0.43 
  -1   8   6    4.63    0.46 
  -1   8   6    4.50    0.58 
  -1   8   6    4.78    0.43 
   0  -8  -6   17.06    1.01 
   0  -8   6   17.02    0.95 
   0  -8  -6   17.74    1.12 
   0  -8  -6   17.81    1.06 
   0  -8  -6   16.76    1.00 
   0  -8   6   16.89    1.01 
   0  -8   6   17.55    0.96 
   0   8   6   14.82    1.05 
   0   8   6   15.39    1.01 
   0   8  -6   14.82    1.11 
   0   8   6   14.92    0.98 
   0   8   6   15.05    1.01 
   0   8   6   15.33    1.04 
   0   8   6   14.99    1.11 
  -1  -8  -6   80.81    4.49 
  -1  -8  -6   83.05    4.59 
   1  -8   6   81.25    4.46 
  -1  -8  -6   80.55    4.49 
   1  -8   6   80.15    4.46 
   1  -8   6   80.14    4.52 
   1  -8   6   78.31    4.50 
  -1  -8  -6   80.74    4.49 
   1   8   6   81.88    4.50 
   1   8   6   80.28    4.54 
   1   8   6   82.10    4.45 
  -1   8  -6   77.85    4.58 
   1   8   6   80.67    4.51 
   1   8   6   84.02    4.53 
   1   8   6   80.07    4.55 
  -1   8  -6   79.73    4.49 
  -2  -8  -6    5.62    0.42 
  -2  -8  -6    5.76    0.51 
   2  -8   6    5.25    0.48 
  -2  -8  -6    5.81    0.58 
   2  -8   6    5.69    0.45 
   2  -8   6    6.11    0.45 
   2  -8   6    6.11    0.61 
  -2  -8  -6    6.01    0.53 
   2   8   6    5.60    0.54 
  -2   8  -6    5.03    0.60 
   2   8   6    5.25    0.48 
   2   8   6    5.17    0.56 
  -2   8  -6    5.19    0.37 
  -2   8  -6    5.50    0.54 
   2   8   6    5.35    0.50 
   2   8   6    5.56    0.40 
  -3  -8  -6   29.84    1.60 
  -3  -8  -6   29.42    1.61 
   3  -8   6   27.90    1.60 
   3  -8   6   22.55    1.99 
   3  -8   6   29.70    1.55 
  -3  -8  -6   28.12    1.65 
   3  -8   6   29.38    1.56 
  -3   8  -6   25.08    1.62 
   3   8   6   24.83    1.46 
   3   8   6   24.55    1.46 
   3   8   6   24.80    1.55 
   3   8   6   24.77    1.59 
  -3   8  -6   24.23    1.68 
  -3   8  -6   24.45    1.50 
   3   8   6   24.11    1.62 
   3   8   6   24.29    1.60 
   4  -8   6    9.83    1.00 
   4  -8   6    9.03    0.75 
  -4  -8  -6    9.16    0.83 
  -4  -8  -6    9.47    0.81 
  -4  -8  -6    9.34    0.76 
   4  -8   6    8.84    0.73 
   4   8   6   12.20    0.87 
   4   8   6   10.84    0.82 
  -4   8  -6   12.01    0.95 
  -4   8  -6   12.41    0.91 
  -4   8  -6   11.81    0.73 
   4   8   6   11.40    0.76 
   5  -8   6    2.40    0.36 
  -5  -8  -6    2.38    0.39 
  -5  -8  -6    2.23    0.36 
   5  -8   6    2.24    0.31 
   5  -8   6    2.96    0.66 
  -5   8  -6    1.91    0.40 
  -5   8  -6    1.99    0.37 
   5   8   6    1.99    0.39 
  -5   8  -6    2.07    0.49 
   5   8   6    2.11    0.34 
   6  -9  -6   11.14    0.85 
  -6  -9   6   10.66    0.90 
   6  -9  -6   11.60    1.39 
  -6   9   6    8.50    1.02 
  -6   9   6    7.33    0.84 
  -6   9   6    8.23    0.93 
  -5  -9   6    0.10    0.25 
   5  -9  -6   -0.22    0.25 
  -5  -9   6    0.06    0.28 
  -5  -9   6    0.27    0.48 
  -5   9   6    0.33    0.31 
  -5   9   6    0.23    0.37 
  -4  -9   6   22.62    1.28 
   4  -9  -6   22.51    1.46 
   4  -9  -6   21.77    1.35 
  -4  -9   6   22.26    1.29 
   4  -9  -6   22.70    1.33 
  -4  -9   6   22.39    1.47 
  -4   9   6   18.84    1.40 
  -4   9   6   20.51    1.28 
  -4   9   6   19.93    1.47 
  -4   9   6   20.32    1.37 
  -4   9   6   19.79    1.42 
   3  -9  -6   26.82    1.72 
   3  -9  -6   26.69    1.65 
   3  -9  -6   27.53    1.61 
  -3  -9   6   26.71    1.59 
  -3  -9   6   27.21    1.54 
  -3  -9   6   28.01    1.58 
  -3  -9   6   27.91    1.75 
   3  -9  -6   27.61    1.64 
  -3   9   6   28.09    1.80 
  -3   9   6   27.60    1.67 
  -3   9   6   27.30    1.71 
  -3   9   6   28.87    1.63 
  -3   9   6   27.27    1.64 
  -2  -9   6    2.59    0.25 
   2  -9  -6    2.48    0.41 
  -2  -9   6    2.35    0.39 
   2  -9  -6    2.42    0.37 
   2  -9  -6    2.35    0.43 
   2  -9  -6    2.11    0.33 
   2  -9  -6    2.28    0.31 
  -2   9   6    2.10    0.34 
  -2   9   6    2.10    0.34 
  -2   9   6    2.25    0.43 
  -2   9   6    2.35    0.33 
  -2   9   6    2.32    0.34 
  -2   9   6    1.72    0.28 
   1  -9  -6   18.56    1.43 
   1  -9  -6   18.15    1.37 
   1   9  -6   24.29    1.32 
  -1   9   6   23.30    1.39 
  -1   9   6   24.82    1.53 
  -1   9   6   24.59    1.38 
  -1   9   6   24.04    1.44 
  -1   9   6   23.18    1.38 
  -1   9   6   22.77    1.42 
   1   9  -6   24.37    1.31 
   0  -9  -6   13.57    0.89 
   0  -9   6   14.12    0.89 
   0  -9  -6   14.10    0.89 
   0  -9   6   13.62    0.82 
   0  -9  -6   14.29    0.95 
   0  -9   6   13.21    0.93 
   0  -9   6   13.62    0.89 
   0  -9   6   13.71    0.83 
   0   9   6   13.51    0.86 
   0   9   6   11.99    1.40 
   0   9   6   13.41    0.94 
   0   9  -6   13.12    1.01 
   0   9  -6   13.60    0.82 
   0   9   6   13.35    0.90 
   0   9   6   13.51    0.93 
   0   9   6   13.45    0.90 
   1  -9   6   16.15    1.02 
   1  -9   6   16.33    0.91 
   1  -9   6   17.26    0.98 
  -1  -9  -6   16.50    1.07 
  -1  -9  -6   16.62    0.93 
  -1  -9  -6   16.82    0.96 
   1  -9   6   16.19    1.01 
   1   9   6   14.04    1.04 
   1   9   6   13.47    1.01 
   1   9   6   13.67    0.98 
  -1   9  -6   13.73    0.97 
  -1   9  -6   13.16    0.90 
   1   9   6   13.51    0.90 
  -1   9  -6   12.64    1.06 
   1   9   6   13.21    0.95 
  -2  -9  -6   68.71    3.80 
   2  -9   6   70.48    3.76 
  -2  -9  -6   71.04    3.89 
   2  -9   6   70.38    3.76 
   2  -9   6   69.34    3.86 
  -2  -9  -6   72.11    3.78 
   2  -9   6   72.47    3.86 
   2  -9   6   71.08    3.82 
  -2  -9  -6   72.01    3.78 
   2   9   6   63.92    3.78 
   2   9   6   62.55    3.81 
   2   9   6   65.06    3.82 
   2   9   6   62.30    3.70 
   2   9   6   60.01    3.84 
  -2   9  -6   63.31    3.81 
  -2   9  -6   62.73    3.87 
  -3  -9  -6   10.16    0.86 
   3  -9   6   11.03    1.00 
   3  -9   6    9.70    0.79 
   3  -9   6   10.17    0.79 
  -3  -9  -6    9.95    0.84 
  -3  -9  -6   10.01    0.89 
  -3   9  -6   13.77    1.00 
   3   9   6   13.32    0.90 
  -3   9  -6   13.16    0.94 
  -3   9  -6   13.49    0.75 
   3   9   6   13.57    0.85 
   3   9   6   13.91    0.93 
   3   9   6   12.73    0.93 
  -4  -9  -6    7.71    0.71 
   4  -9   6    7.68    0.64 
  -4  -9  -6    7.89    0.70 
   4  -9   6    7.86    0.98 
  -4  -9  -6    7.48    0.75 
   4  -9   6    7.66    0.65 
   4   9   6    7.61    0.70 
  -4   9  -6    8.39    0.88 
   4   9   6    7.34    0.80 
  -4   9  -6    7.65    0.62 
  -4   9  -6    8.33    0.85 
   4   9   6    8.88    0.69 
  -5  -9  -6   32.18    2.08 
   5  -9   6   32.11    1.99 
  -5  -9  -6   33.74    2.00 
   5  -9   6   32.65    1.96 
   5   9   6   31.56    2.06 
   5   9   6   35.29    1.96 
  -5   9  -6   34.19    2.14 
  -5   9  -6   32.70    2.17 
  -5 -10   6    8.25    0.99 
   5 -10  -6    6.73    1.00 
   5 -10  -6    7.77    0.75 
  -5  10   6    9.09    1.00 
  -5  10   6    7.17    0.79 
  -4 -10   6    4.39    0.46 
  -4 -10   6    3.68    0.74 
   4 -10  -6    3.78    0.55 
  -4 -10   6    4.19    0.47 
   4 -10  -6    3.18    0.51 
   4 -10  -6    4.32    0.62 
  -4  10   6    3.65    0.63 
  -4  10   6    3.33    0.49 
   3 -10  -6   19.31    1.18 
  -3 -10   6   18.05    1.05 
   3 -10  -6   17.81    1.13 
  -3 -10   6   18.66    1.30 
  -3 -10   6   18.77    1.06 
  -3 -10   6   18.52    1.11 
   3 -10  -6   17.46    1.30 
   3 -10  -6   18.10    1.20 
  -3  10   6   17.76    1.36 
  -3  10   6   17.91    1.20 
  -3  10   6   17.44    1.17 
  -3  10   6   18.35    1.18 
   2 -10  -6   21.88    1.40 
   2 -10  -6   22.41    1.46 
   2 -10  -6   22.28    1.32 
  -2 -10   6   23.82    1.36 
   2 -10  -6   24.34    1.39 
  -2 -10   6   22.63    1.28 
  -2  10   6   20.97    1.38 
  -2  10   6   21.04    1.54 
  -2  10   6   20.92    1.40 
  -1 -10   6    3.49    0.34 
  -1 -10   6    3.55    0.29 
  -1 -10   6    3.54    0.44 
   1 -10  -6    3.62    0.55 
   1 -10  -6    3.37    0.40 
  -1 -10   6    3.80    0.38 
   1 -10  -6    3.68    0.49 
  -1  10   6    2.98    0.46 
  -1  10   6    2.79    0.49 
   1  10  -6    2.77    0.33 
  -1  10   6    2.66    0.35 
   1  10  -6    2.79    0.32 
  -1  10   6    2.15    0.44 
   0 -10   6   17.69    0.94 
   0 -10  -6   16.51    1.01 
   0 -10  -6   16.91    1.04 
   0 -10   6   16.74    1.03 
   0 -10   6   16.69    1.02 
   0 -10  -6   16.90    1.09 
   0 -10   6   17.25    0.96 
   0  10  -6   12.90    1.11 
   0  10   6   13.97    1.02 
   0  10   6   13.86    1.16 
   0  10   6   13.26    1.05 
   0  10   6   13.67    0.97 
  -1 -10  -6   38.32    2.32 
   1 -10   6   38.05    2.24 
  -1 -10  -6   36.66    2.28 
   1 -10   6   37.13    2.23 
   1 -10   6   37.96    2.32 
   1 -10   6   37.67    2.30 
  -1 -10  -6   38.97    2.28 
   1  10   6   40.16    2.58 
   1  10   6   41.37    2.32 
   1  10   6   40.78    2.42 
   1  10   6   40.30    2.21 
   1  10   6   41.01    2.29 
  -1  10  -6   41.39    2.40 
  -1  10  -6   42.13    2.30 
   2 -10   6    0.09    0.20 
   2 -10   6    0.04    0.16 
  -2 -10  -6    0.32    0.20 
   2 -10   6    0.19    0.35 
  -2 -10  -6    0.09    0.31 
  -2 -10  -6    0.04    0.26 
   2  10   6    0.15    0.26 
   2  10   6    0.27    0.25 
   2  10   6    0.17    0.36 
  -2  10  -6    0.24    0.41 
   2  10   6    0.15    0.28 
  -2  10  -6   -0.05    0.29 
  -3 -10  -6   12.86    0.95 
   3 -10   6   12.33    0.92 
  -3 -10  -6   12.16    1.03 
   3 -10   6   12.63    0.93 
   3  10   6   15.52    1.05 
  -3  10  -6   15.43    1.10 
  -3  10  -6   15.48    1.13 
   3  10   6   15.83    1.13 
   3  10   6   16.15    0.98 
   4 -10   6   14.96    1.01 
   4 -10   6   14.96    1.02 
  -4 -10  -6   15.21    1.10 
  -4  10  -6   13.53    1.72 
   4  10   6   14.25    1.09 
   4  10   6   15.41    1.03 
  -4  10  -6   15.47    1.25 
   4 -11  -6   19.52    1.25 
   4 -11  -6   18.20    1.42 
  -4  11   6   19.78    1.55 
  -4  11   6   17.68    1.31 
  -3 -11   6   12.37    0.74 
   3 -11  -6   11.71    0.85 
   3 -11  -6   12.23    1.07 
  -3 -11   6   12.07    0.79 
   3 -11  -6   11.07    0.94 
  -3  11   6   10.21    1.12 
  -3  11   6   10.80    0.88 
  -3  11   6   10.17    0.89 
  -3  11   6   10.15    0.89 
   2 -11  -6    3.03    0.42 
   2 -11  -6    3.60    0.47 
   2 -11  -6    3.55    0.53 
  -2 -11   6    3.71    0.40 
   2 -11  -6    3.62    0.62 
  -2 -11   6    3.51    0.50 
  -2  11   6    4.15    0.59 
  -2  11   6    3.10    0.55 
  -2  11   6    3.39    0.55 
  -2  11   6    3.34    0.54 
  -1 -11   6   17.55    1.06 
  -1 -11   6   16.44    1.17 
  -1 -11   6   17.64    1.09 
   1 -11  -6   17.29    1.22 
   1 -11  -6   17.69    1.16 
   1 -11  -6   17.22    1.25 
  -1 -11   6   17.45    1.10 
   1  11  -6   19.09    1.10 
  -1  11   6   19.08    1.20 
  -1  11   6   18.50    1.16 
  -1  11   6   19.85    1.40 
  -1  11   6   19.96    1.26 
   0 -11   6   11.37    0.75 
   0 -11  -6   11.86    0.79 
   0 -11   6   10.49    0.85 
   0 -11  -6   11.32    0.86 
   0 -11   6   11.10    0.70 
   0 -11  -6   11.27    0.89 
   0  11   6   10.93    0.84 
   0  11   6   10.11    0.84 
   0  11   6   10.03    0.89 
   0  11   6    9.61    0.74 
   0  11   6   10.71    1.05 
  -1 -11  -6    3.42    0.45 
   1 -11   6    3.56    0.45 
  -1 -11  -6    3.81    0.56 
   1 -11   6    3.58    0.37 
   1  11   6    3.60    0.58 
  -1  11  -6    3.62    0.68 
   1  11   6    2.73    0.52 
   1  11   6    4.19    0.58 
   1  11   6    3.91    0.56 
  -2 -11  -6   22.58    1.52 
   2 -11   6   22.89    1.39 
  -2 -11  -6   24.11    1.42 
   2 -11   6   21.98    1.37 
  -2 -11  -6   22.41    1.47 
  -2  11  -6   22.17    1.56 
   2  11   6   22.02    1.49 
   2  11   6   23.11    1.44 
   2  11   6   22.88    1.62 
  -3 -11  -6    6.06    0.59 
   3 -11   6    5.94    0.53 
  -3 -11  -6    6.08    0.71 
   3 -11   6    5.48    0.59 
   3  11   6    5.55    0.64 
   3  11   6    4.97    0.67 
  -3  11  -6    4.91    0.81 
   2 -12  -6   17.92    1.46 
   2 -12  -6   18.57    1.34 
  -2 -12   6   16.92    1.26 
  -2  12   6   17.13    1.21 
  -2  12   6   17.43    1.47 
  -2  12   6   17.33    1.26 
   1 -12  -6   -0.12    0.22 
   1 -12  -6   -0.33    0.38 
  -1 -12   6    0.16    0.16 
  -1 -12   6    0.04    0.25 
  -1  12   6    0.07    0.33 
  -1  12   6    0.35    0.39 
  -1  12   6    0.09    0.54 
   1  12  -6   -0.08    0.40 
   0 -12   6   12.57    0.84 
   0 -12   6   13.04    0.91 
   0 -12  -6   12.46    0.94 
   0 -12  -6   13.06    1.07 
   0 -12   6   11.79    1.04 
   0  12   6   14.87    1.08 
   0  12   6   15.53    1.29 
   0  12   6   14.41    1.08 
  -1 -12  -6   19.65    1.24 
   1 -12   6   19.76    1.24 
   1 -12   6   18.78    1.19 
  -1 -12  -6   19.40    1.32 
   1  12   6   18.73    1.36 
   1  12   6   18.54    1.55 
  -8   0   7    0.40    0.35 
  -8   0   7    0.55    0.31 
  -8   0   7    0.30    0.32 
   7   0  -7    1.06    0.25 
  -7   0   7    1.02    0.34 
  -7   0   7    0.93    0.24 
  -7   0   7    0.78    0.26 
  -7   0   7    0.63    0.30 
  -7   0   7    1.08    0.23 
  -6   0   7   37.67    2.19 
  -6   0   7   37.08    2.12 
  -6   0   7   35.98    2.29 
   6   0  -7   36.57    2.10 
   6   0  -7   36.50    2.07 
  -6   0   7   36.54    2.12 
  -6   0   7   36.53    2.15 
  -6   0   7   38.22    2.09 
  -6   0   7   38.15    2.07 
   6   0  -7   37.61    2.12 
  -6   0   7   36.93    2.22 
   5   0  -7    1.18    0.19 
  -5   0   7    1.40    0.24 
  -5   0   7    1.01    0.15 
  -5   0   7    0.94    0.19 
  -5   0   7    1.18    0.18 
  -5   0   7    1.16    0.22 
  -5   0   7    0.88    0.23 
  -4   0   7  228.41   12.39 
  -4   0   7  234.49   12.53 
   4   0  -7  227.34   12.39 
  -4   0   7  226.68   12.40 
   4   0  -7  223.43   12.37 
  -4   0   7  226.37   12.44 
  -4   0   7  226.59   12.37 
  -4   0   7  222.06   12.42 
  -3   0   7   78.25    4.27 
  -3   0   7   80.21    4.38 
  -3   0   7   76.68    4.29 
  -3   0   7   75.92    4.24 
  -3   0   7   75.88    4.25 
  -3   0   7   77.41    4.29 
   3   0  -7   76.90    4.25 
   3   0  -7   76.50    4.24 
   2   0  -7    8.65    0.53 
   2   0  -7    8.81    0.59 
  -2   0   7    8.78    0.55 
  -2   0   7    9.03    0.65 
  -2   0   7    8.39    0.54 
  -2   0   7    8.66    0.58 
   2   0  -7    8.37    0.70 
  -2   0   7    8.43    0.56 
   1   0  -7   83.54    4.47 
   1   0  -7   83.04    4.51 
   1   0  -7   74.10    4.59 
  -1   0   7   80.49    4.49 
  -1   0   7   86.58    4.59 
  -1   0   7   79.74    4.47 
   1   0  -7   82.56    4.45 
  -1   0   7   81.02    4.48 
  -1   0   7   80.19    4.50 
   1   0  -7   81.97    4.45 
   0   0  -7   66.29    3.59 
   0   0   7   64.49    3.56 
   0   0   7   63.66    3.55 
   0   0  -7   65.51    3.54 
   0   0  -7   66.60    3.56 
   0   0  -7   65.22    3.54 
   0   0  -7   61.39    3.67 
   0   0   7   63.48    3.58 
   0   0   7   62.51    3.59 
  -1   0  -7   31.28    1.87 
   1   0   7   33.12    1.90 
   1   0   7   32.44    1.84 
  -1   0  -7   32.36    1.96 
  -1   0  -7   32.27    1.83 
   1   0   7   32.88    1.87 
  -1   0  -7   33.64    1.85 
   1   0   7   33.07    1.85 
   2   0   7  119.51    6.66 
   2   0   7  120.70    6.69 
   2   0   7  119.94    6.72 
  -2   0  -7  125.33    6.68 
  -2   0  -7  122.73    6.68 
  -2   0  -7  121.92    6.77 
   2   0   7  118.09    6.66 
  -2   0  -7  120.06    6.70 
  -2   0  -7  123.46    6.66 
   3   0   7   16.21    0.97 
  -3   0  -7   15.69    1.01 
   3   0   7   14.69    0.95 
  -3   0  -7   16.24    0.95 
  -3   0  -7   15.82    0.98 
  -3   0  -7   15.63    0.96 
   3   0   7   15.63    0.99 
   3   0   7   15.60    1.04 
   4   0   7   43.75    2.62 
  -4   0  -7   44.49    2.56 
   4   0   7   44.17    2.53 
   4   0   7   43.83    2.51 
  -4   0  -7   44.27    2.53 
   4   0   7   43.69    2.57 
   4   0   7   46.54    2.54 
  -4   0  -7   45.01    2.58 
  -5   0  -7   46.52    2.70 
  -5   0  -7   47.25    2.74 
   5   0   7   46.84    2.70 
  -5   0  -7   48.13    2.76 
   5   0   7   47.60    2.69 
   5   0   7   45.90    2.75 
   5   0   7   47.87    2.81 
  -5   0  -7   48.89    2.70 
   6   0   7   17.55    1.08 
  -6   0  -7   16.04    1.09 
  -6   0  -7   17.33    1.19 
  -6   0  -7   17.31    1.17 
   6   0   7   16.11    1.13 
  -7   0  -7   11.73    0.89 
   7   0   7   12.39    0.88 
  -7   0  -7   11.08    0.96 
   7   0   7   12.37    1.01 
  -7   0  -7   14.22    1.55 
  -8  -1   7   23.43    1.49 
  -8  -1   7   23.27    1.57 
  -8  -1   7   22.96    1.62 
  -8   1   7   26.22    1.64 
  -8   1   7   24.30    1.55 
  -8   1   7   24.83    1.60 
  -7  -1   7   15.48    0.97 
  -7  -1   7   15.76    0.94 
  -7  -1   7   16.30    0.94 
  -7  -1   7   15.64    1.10 
  -7  -1   7   16.17    1.05 
   7  -1  -7   16.66    1.14 
  -7   1   7   14.04    1.08 
  -7   1   7   13.99    1.04 
  -7   1   7   14.01    1.00 
  -7   1   7   13.71    0.94 
  -7   1   7   13.75    1.03 
   7   1  -7   13.41    0.90 
   6  -1  -7    2.01    0.22 
  -6  -1   7    1.61    0.28 
  -6  -1   7    1.56    0.27 
   6  -1  -7    1.57    0.24 
  -6  -1   7    1.17    0.33 
  -6  -1   7    1.87    0.31 
  -6  -1   7    1.75    0.32 
  -6  -1   7    1.75    0.26 
   6  -1  -7    1.85    0.26 
  -6  -1   7    1.92    0.32 
  -6  -1   7    1.87    0.35 
  -6   1   7    2.80    0.43 
  -6   1   7    2.75    0.46 
  -6   1   7    2.78    0.42 
   5  -1  -7   69.93    3.68 
  -5  -1   7   71.23    3.65 
  -5  -1   7   70.46    3.67 
  -5  -1   7   69.85    3.73 
  -5  -1   7   70.86    3.67 
  -5  -1   7   68.12    3.76 
  -5  -1   7   70.43    3.66 
  -5  -1   7   68.68    3.69 
  -5   1   7   62.76    3.65 
  -5   1   7   63.60    3.64 
  -5   1   7   62.39    3.69 
   5   1  -7   61.99    3.63 
   5   1  -7   62.53    3.64 
  -5   1   7   61.60    3.72 
  -5   1   7   61.70    3.68 
  -5   1   7   61.45    3.72 
   4  -1  -7   46.22    2.61 
   4  -1  -7   47.49    2.63 
  -4  -1   7   45.58    2.61 
  -4  -1   7   46.49    2.58 
  -4  -1   7   45.90    2.58 
  -4  -1   7   48.30    2.57 
  -4  -1   7   45.83    2.64 
   4   1  -7   46.79    2.56 
   4   1  -7   46.81    2.58 
  -4   1   7   47.16    2.73 
  -4   1   7   46.86    2.62 
  -4   1   7   44.90    2.64 
  -4   1   7   44.90    2.64 
  -4   1   7   46.31    2.60 
  -4   1   7   47.40    2.58 
  -3  -1   7   69.35    4.00 
  -3  -1   7   69.95    4.03 
  -3  -1   7   72.00    4.14 
   3  -1  -7   71.27    3.97 
  -3  -1   7   72.02    4.01 
   3  -1  -7   72.20    4.00 
  -3  -1   7   73.70    4.05 
  -3  -1   7   71.90    3.99 
   3  -1  -7   73.07    3.97 
  -3   1   7   77.09    4.14 
  -3   1   7   73.15    4.04 
  -3   1   7   73.18    4.02 
  -3   1   7   72.12    4.00 
   3   1  -7   75.49    3.99 
   3   1  -7   75.52    4.00 
  -3   1   7   71.09    4.05 
  -3   1   7   73.42    4.06 
  -2  -1   7   69.25    4.06 
   2  -1  -7   67.99    3.92 
   2  -1  -7   70.46    3.92 
  -2  -1   7   68.88    3.93 
  -2  -1   7   69.30    3.95 
  -2  -1   7   65.36    3.96 
   2  -1  -7   69.56    3.99 
  -2  -1   7   69.07    3.94 
   2  -1  -7   69.38    3.94 
   2   1  -7   77.37    3.93 
  -2   1   7   72.84    3.98 
   2   1  -7   74.84    4.11 
  -2   1   7   73.81    3.95 
  -2   1   7   73.88    3.97 
   2   1  -7   74.35    3.97 
  -2   1   7   74.34    4.06 
  -2   1   7   76.18    3.96 
  -1  -1   7    0.92    0.24 
  -1  -1   7    0.70    0.14 
   1  -1  -7    0.92    0.19 
  -1  -1   7    0.95    0.16 
   1  -1  -7    0.89    0.14 
   1  -1  -7    1.00    0.16 
   1  -1  -7    0.86    0.23 
  -1  -1   7    0.81    0.12 
  -1  -1   7    0.91    0.15 
   1  -1  -7    0.89    0.15 
   1   1  -7    1.52    0.33 
   0  -1   7  116.60    6.47 
   0  -1   7  117.18    6.45 
   0  -1  -7  119.20    6.42 
   0  -1   7  116.36    6.43 
   0  -1  -7  117.55    6.44 
   0  -1   7  118.82    6.43 
   0  -1  -7  116.74    6.47 
   0  -1  -7  118.81    6.42 
   0  -1  -7  112.86    6.54 
   0   1  -7  117.72    6.43 
   0   1   7  118.91    6.46 
   0   1  -7  122.51    6.41 
   0   1  -7  109.24    6.54 
   0   1  -7  119.94    6.46 
   0   1   7  116.22    6.47 
   0   1   7  119.16    6.44 
   0   1   7  116.69    6.44 
   0   1  -7  117.42    6.41 
   1  -1   7  150.15    8.21 
  -1  -1  -7  146.71    8.31 
  -1  -1  -7  155.12    8.26 
  -1  -1  -7  153.53    8.22 
   1  -1   7  150.27    8.26 
   1  -1   7  150.20    8.21 
  -1   1  -7  144.58    8.32 
   1   1   7  151.83    8.24 
   1   1   7  147.46    8.22 
   1   1   7  148.69    8.26 
  -1   1  -7  149.06    8.22 
  -1   1  -7  152.90    8.20 
   1   1   7  151.10    8.22 
  -1   1  -7  148.11    8.24 
   2  -1   7    6.60    0.50 
  -2  -1  -7    7.23    0.47 
  -2  -1  -7    6.88    0.50 
   2  -1   7    6.94    0.49 
   2  -1   7    6.50    0.47 
  -2  -1  -7    7.01    0.53 
  -2  -1  -7    6.97    0.60 
  -2  -1  -7    7.18    0.50 
   2  -1   7    6.56    0.55 
  -2   1  -7    6.66    0.61 
   2   1   7    7.05    0.57 
   2   1   7    7.14    0.51 
   2   1   7    7.36    0.48 
   2   1   7    7.44    0.50 
  -2   1  -7    7.35    0.47 
  -2   1  -7    7.05    0.53 
  -2   1  -7    7.15    0.49 
  -3  -1  -7   67.87    3.81 
   3  -1   7   66.00    3.83 
   3  -1   7   64.92    3.75 
   3  -1   7   65.28    3.75 
  -3  -1  -7   67.34    3.78 
  -3  -1  -7   67.62    3.75 
  -3  -1  -7   64.77    3.76 
   3  -1   7   66.80    3.78 
  -3   1  -7   66.59    3.76 
   3   1   7   69.36    3.76 
  -3   1  -7   71.15    3.75 
  -3   1  -7   68.29    3.78 
   3   1   7   69.62    3.84 
  -3   1  -7   68.75    3.80 
   3   1   7   67.67    3.75 
   3   1   7   67.77    3.80 
  -4  -1  -7   62.76    3.82 
   4  -1   7   65.88    3.83 
   4  -1   7   67.90    3.73 
   4  -1   7   66.20    3.74 
   4  -1   7   68.22    3.76 
  -4  -1  -7   65.09    3.77 
   4  -1   7   63.31    3.77 
  -4  -1  -7   65.46    3.75 
  -4   1  -7   67.55    3.77 
   4   1   7   67.28    3.84 
  -4   1  -7   66.73    3.76 
  -4   1  -7   68.44    3.79 
   4   1   7   67.59    3.79 
   4   1   7   69.41    3.75 
  -4   1  -7   66.49    3.74 
   4   1   7   71.41    3.76 
   4   1   7   68.36    3.73 
   5  -1   7    8.32    0.70 
  -5  -1  -7    9.05    0.69 
   5  -1   7    9.50    0.84 
  -5  -1  -7    9.04    0.76 
  -5  -1  -7    8.96    0.66 
  -5  -1  -7    8.77    0.74 
   5  -1   7    9.47    0.67 
   5  -1   7    8.45    0.73 
   5  -1   7    9.03    0.70 
   5   1   7    9.93    0.81 
   5   1   7    9.78    0.71 
  -5   1  -7   10.41    0.69 
   5   1   7   10.82    0.68 
  -5   1  -7   10.32    0.67 
   5   1   7   10.19    0.74 
  -5   1  -7    9.37    0.75 
   5   1   7   10.19    0.73 
  -5   1  -7   10.31    0.77 
  -6  -1  -7   23.11    1.48 
  -6  -1  -7   22.49    1.37 
  -6  -1  -7   21.78    1.42 
   6  -1   7   22.61    1.34 
   6  -1   7   21.85    1.38 
   6   1   7   21.06    1.40 
  -6   1  -7   21.46    1.36 
   6   1   7   22.33    1.34 
  -6   1  -7   21.31    1.43 
   6   1   7   21.53    1.39 
  -6   1  -7   21.35    1.47 
   7  -1   7   14.84    1.03 
   7  -1   7   15.87    1.15 
  -7  -1  -7   14.63    1.11 
  -7  -1  -7   15.23    1.05 
  -7   1  -7   14.62    1.05 
   7   1   7   15.64    1.05 
   7   1   7   15.78    1.17 
  -7   1  -7   15.31    1.29 
  -7   1  -7   15.39    1.14 
  -8  -2   7    6.26    0.74 
  -8  -2   7    5.83    0.53 
  -8  -2   7    5.89    0.77 
  -8   2   7    5.31    0.73 
  -8   2   7    6.03    0.69 
  -8   2   7    5.90    0.72 
  -7  -2   7   19.39    1.20 
  -7  -2   7   19.88    1.38 
  -7  -2   7   19.40    1.31 
  -7  -2   7   18.71    1.21 
  -7  -2   7   18.72    1.21 
  -7   2   7   21.56    1.36 
  -7   2   7   21.30    1.25 
  -7   2   7   21.97    1.35 
  -7   2   7   21.03    1.38 
  -7   2   7   21.39    1.35 
   7   2  -7   21.15    1.16 
   6  -2  -7   21.60    1.40 
   6  -2  -7   20.55    1.38 
  -6  -2   7   20.10    1.33 
  -6  -2   7   20.52    1.32 
  -6  -2   7   20.39    1.34 
  -6  -2   7   20.57    1.41 
  -6  -2   7   20.40    1.36 
  -6  -2   7   19.98    1.46 
  -6   2   7   26.71    1.51 
  -6   2   7   27.41    1.42 
  -6   2   7   26.46    1.47 
  -6   2   7   26.34    1.37 
  -6   2   7   27.12    1.47 
  -6   2   7   27.05    1.43 
   5  -2  -7    8.65    0.49 
  -5  -2   7    8.23    0.67 
  -5  -2   7    8.69    0.52 
   5  -2  -7    8.50    0.49 
  -5  -2   7    8.58    0.63 
  -5  -2   7    8.21    0.54 
  -5  -2   7    8.55    0.52 
  -5  -2   7    8.52    0.54 
  -5  -2   7    8.72    0.59 
  -5   2   7    7.77    0.61 
  -5   2   7    7.85    0.55 
  -5   2   7    8.20    0.66 
  -5   2   7    8.18    0.51 
  -5   2   7    7.67    0.60 
  -5   2   7    8.01    0.64 
   5   2  -7    8.05    0.48 
   5   2  -7    8.23    0.50 
  -4  -2   7   70.78    3.56 
  -4  -2   7   70.22    3.55 
   4  -2  -7   71.29    3.55 
  -4  -2   7   68.75    3.57 
  -4  -2   7   71.89    3.62 
  -4  -2   7   71.54    3.63 
  -4  -2   7   72.95    3.56 
   4  -2  -7   70.98    3.55 
  -4   2   7   57.11    3.61 
  -4   2   7   58.83    3.70 
   4   2  -7   58.36    3.53 
  -4   2   7   56.71    3.57 
   4   2  -7   57.37    3.54 
  -4   2   7   56.08    3.64 
  -4   2   7   56.98    3.59 
  -3  -2   7   43.04    2.33 
  -3  -2   7   43.87    2.30 
  -3  -2   7   45.13    2.47 
   3  -2  -7   43.02    2.35 
   3  -2  -7   43.02    2.33 
   3  -2  -7   42.74    2.31 
   3  -2  -7   43.79    2.31 
  -3  -2   7   44.26    2.37 
  -3  -2   7   42.07    2.32 
  -3  -2   7   42.76    2.31 
   3   2  -7   40.29    2.29 
  -3   2   7   39.88    2.44 
   3   2  -7   40.50    2.30 
  -3   2   7   38.97    2.37 
  -3   2   7   39.28    2.34 
  -3   2   7   40.68    2.36 
  -3   2   7   38.15    2.39 
  -3   2   7   39.37    2.32 
  -2  -2   7    1.28    0.31 
  -2  -2   7    0.89    0.16 
  -2  -2   7    1.20    0.17 
   2  -2  -7    1.33    0.18 
   2  -2  -7    1.29    0.16 
   2  -2  -7    1.08    0.16 
   2  -2  -7    0.93    0.19 
   2  -2  -7    0.98    0.17 
  -2  -2   7    1.23    0.16 
  -2  -2   7    1.10    0.15 
  -2   2   7    0.69    0.15 
  -2   2   7    0.92    0.19 
  -2   2   7    0.80    0.17 
  -2   2   7    0.66    0.16 
  -2   2   7    0.75    0.22 
   2   2  -7    0.72    0.27 
   2   2  -7    0.78    0.12 
   1  -2  -7  149.37    8.21 
  -1  -2   7  152.05    8.21 
   1  -2  -7  147.75    8.27 
   1  -2  -7  146.47    8.34 
  -1  -2   7  149.41    8.24 
  -1  -2   7  149.96    8.20 
  -1  -2   7  159.50    8.35 
   1  -2  -7  148.98    8.22 
   1  -2  -7  152.99    8.22 
  -1   2   7  149.47    8.33 
  -1   2   7  148.79    8.24 
   1   2  -7  156.25    8.21 
  -1   2   7  148.86    8.23 
  -1   2   7  151.13    8.26 
  -1   2   7  153.82    8.24 
   1   2  -7  139.61    8.35 
   0  -2   7   79.12    4.55 
   0  -2  -7   79.78    4.54 
   0  -2   7   76.36    4.57 
   0  -2  -7   79.27    4.53 
   0  -2   7   77.64    4.53 
   0  -2   7   77.59    4.53 
   0  -2  -7   78.50    4.59 
   0  -2  -7   74.02    4.63 
   0  -2  -7   77.68    4.55 
   0   2   7   87.92    4.58 
   0   2   7   85.75    4.56 
   0   2  -7   86.25    4.56 
   0   2   7   86.94    4.56 
   0   2  -7   91.02    4.51 
   0   2  -7   86.48    4.54 
   0   2   7   88.29    4.59 
   0   2  -7   85.65    4.51 
   0   2   7   86.33    4.55 
   0   2  -7   82.31    4.67 
   1  -2   7   62.65    3.72 
  -1  -2  -7   67.04    3.73 
   1  -2   7   65.22    3.69 
  -1  -2  -7   66.92    3.69 
  -1  -2  -7   66.87    3.78 
  -1  -2  -7   65.99    3.68 
   1  -2   7   63.60    3.67 
   1  -2   7   63.73    3.67 
  -1   2  -7   66.37    3.66 
   1   2   7   68.87    3.72 
  -1   2  -7   68.12    3.71 
  -1   2  -7   67.73    3.69 
   1   2   7   65.02    3.69 
   1   2   7   68.50    3.74 
   1   2   7   70.38    3.70 
  -1   2  -7   67.09    3.80 
   2  -2   7   59.45    3.46 
  -2  -2  -7   61.67    3.46 
  -2  -2  -7   62.89    3.50 
  -2  -2  -7   63.87    3.45 
   2  -2   7   60.97    3.44 
  -2  -2  -7   58.01    3.54 
  -2  -2  -7   58.72    3.46 
   2  -2   7   58.98    3.44 
   2  -2   7   59.35    3.51 
   2   2   7   68.42    3.52 
   2   2   7   64.79    3.49 
  -2   2  -7   64.57    3.47 
  -2   2  -7   63.26    3.57 
  -2   2  -7   54.90    3.50 
   2   2   7   65.42    3.46 
   2   2   7   64.31    3.45 
  -2   2  -7   65.02    3.48 
  -3  -2  -7   42.86    2.38 
   3  -2   7   41.63    2.38 
   3  -2   7   43.80    2.36 
   3  -2   7   42.77    2.45 
   3  -2   7   41.86    2.35 
  -3  -2  -7   39.60    2.37 
  -3  -2  -7   43.87    2.42 
  -3  -2  -7   43.36    2.35 
   3   2   7   41.23    2.40 
  -3   2  -7   41.00    2.35 
   3   2   7   41.36    2.43 
  -3   2  -7   41.83    2.38 
  -3   2  -7   40.99    2.35 
  -3   2  -7   41.30    2.40 
   3   2   7   39.68    2.36 
   3   2   7   39.85    2.36 
   4  -2   7   24.03    1.45 
  -4  -2  -7   24.06    1.42 
   4  -2   7   24.65    1.41 
   4  -2   7   25.25    1.54 
  -4  -2  -7   24.10    1.45 
   4  -2   7   24.92    1.42 
  -4  -2  -7   24.98    1.48 
  -4   2  -7   23.36    1.40 
   4   2   7   24.60    1.42 
   4   2   7   22.77    1.40 
  -4   2  -7   23.32    1.47 
  -4   2  -7   22.56    1.40 
   4   2   7   23.48    1.46 
  -4   2  -7   22.58    1.43 
   4   2   7   23.34    1.42 
   4   2   7   22.74    1.49 
   5  -2   7   47.71    2.64 
   5  -2   7   46.98    2.70 
   5  -2   7   47.74    2.78 
  -5  -2  -7   47.48    2.72 
  -5  -2  -7   49.36    2.70 
   5  -2   7   47.90    2.66 
  -5  -2  -7   46.89    2.73 
  -5  -2  -7   48.66    2.67 
   5  -2   7   47.22    2.68 
   5   2   7   46.03    2.66 
   5   2   7   43.18    2.70 
  -5   2  -7   45.78    2.64 
   5   2   7   43.62    2.74 
  -5   2  -7   46.70    2.71 
  -5   2  -7   45.58    2.70 
   5   2   7   45.06    2.65 
   5   2   7   46.06    2.64 
  -5   2  -7   43.60    2.64 
  -6  -2  -7    0.23    0.20 
   6  -2   7    0.39    0.21 
  -6  -2  -7    0.21    0.38 
  -6  -2  -7    0.27    0.25 
   6  -2   7    0.16    0.27 
  -6   2  -7    0.17    0.31 
  -6   2  -7    0.50    0.36 
   6   2   7    0.27    0.29 
   6   2   7    0.38    0.23 
  -6   2  -7    0.44    0.23 
   7  -2   7   10.22    0.81 
   7  -2   7   10.19    0.95 
  -7  -2  -7   10.50    0.83 
  -7  -2  -7   10.27    0.89 
   7   2   7   11.46    0.84 
   7   2   7    9.81    1.06 
  -7   2  -7   10.65    0.84 
  -7   2  -7   11.60    0.96 
   7   2   7   11.85    0.98 
  -8  -3   7   20.12    1.37 
  -8  -3   7   19.57    1.43 
  -8   3   7   20.84    1.54 
  -8   3   7   19.08    1.39 
  -7  -3   7   15.48    0.98 
  -7  -3   7   15.18    1.02 
  -7  -3   7   14.97    1.09 
  -7  -3   7   15.18    0.88 
  -7   3   7   12.85    1.05 
  -7   3   7   13.00    1.02 
  -7   3   7   12.74    1.04 
  -6  -3   7    0.96    0.16 
  -6  -3   7    0.78    0.19 
  -6  -3   7    0.80    0.30 
   6  -3  -7    0.86    0.15 
  -6  -3   7    0.74    0.25 
   6  -3  -7    0.73    0.26 
  -6  -3   7    0.65    0.25 
   6  -3  -7    0.75    0.14 
  -6   3   7    1.67    0.31 
  -6   3   7    1.29    0.20 
  -6   3   7    1.47    0.29 
  -5  -3   7   47.13    2.61 
  -5  -3   7   45.43    2.72 
  -5  -3   7   47.70    2.60 
  -5  -3   7   49.54    2.82 
   5  -3  -7   48.11    2.60 
   5  -3  -7   45.53    2.84 
  -5  -3   7   47.57    2.67 
  -5  -3   7   40.58    2.73 
   5  -3  -7   47.12    2.61 
  -5   3   7   50.07    2.75 
  -5   3   7   48.97    2.72 
  -5   3   7   41.54    3.05 
  -5   3   7   48.85    2.70 
  -5   3   7   48.67    2.64 
  -5   3   7   48.19    2.68 
   4  -3  -7    4.04    0.33 
   4  -3  -7    4.62    0.44 
  -4  -3   7    4.66    0.46 
  -4  -3   7    4.63    0.49 
   4  -3  -7    4.55    0.35 
  -4  -3   7    4.67    0.29 
  -4  -3   7    4.54    0.31 
  -4  -3   7    4.62    0.41 
  -4  -3   7    4.75    0.42 
   4  -3  -7    4.60    0.33 
  -4   3   7    4.58    0.41 
  -4   3   7    4.32    0.44 
  -4   3   7    4.15    0.42 
  -4   3   7    4.56    0.50 
  -4   3   7    4.67    0.35 
  -4   3   7    4.28    0.45 
   3  -3  -7    9.03    0.59 
   3  -3  -7    8.87    0.59 
   3  -3  -7    8.59    0.63 
   3  -3  -7    8.98    0.57 
  -3  -3   7    8.51    0.54 
  -3  -3   7    8.88    0.55 
  -3  -3   7    8.63    0.54 
  -3  -3   7    8.41    0.62 
   3  -3  -7    8.73    0.60 
  -3  -3   7    8.38    0.55 
  -3   3   7   10.79    0.66 
  -3   3   7   10.92    0.60 
  -3   3   7   11.05    0.67 
  -3   3   7   10.63    0.69 
  -3   3   7   11.00    0.64 
  -2  -3   7   78.00    4.31 
   2  -3  -7   77.79    4.36 
   2  -3  -7   77.01    4.32 
   2  -3  -7   78.91    4.41 
  -2  -3   7   79.99    4.45 
   2  -3  -7   78.20    4.34 
  -2  -3   7   76.86    4.30 
  -2  -3   7   75.24    4.35 
  -2  -3   7   70.39    4.33 
   2  -3  -7   78.99    4.33 
   2   3  -7   83.19    4.32 
  -2   3   7   82.27    4.37 
  -2   3   7   83.99    4.44 
   2   3  -7   80.20    4.30 
  -2   3   7   76.98    4.40 
  -2   3   7   77.77    4.35 
  -2   3   7   77.63    4.37 
  -2   3   7   80.65    4.37 
   2   3  -7   79.30    4.50 
  -1  -3   7   23.21    1.36 
   1  -3  -7   22.77    1.50 
  -1  -3   7   24.07    1.36 
  -1  -3   7   23.48    1.50 
   1  -3  -7   23.39    1.46 
  -1  -3   7   23.61    1.40 
   1  -3  -7   23.16    1.39 
   1  -3  -7   23.49    1.39 
  -1   3   7   25.07    1.41 
  -1   3   7   25.46    1.56 
   1   3  -7   25.58    1.37 
  -1   3   7   25.45    1.43 
  -1   3   7   25.60    1.41 
   1   3  -7   24.93    1.54 
  -1   3   7   25.40    1.42 
  -1   3   7   23.96    1.41 
   0  -3   7  107.43    5.54 
   0  -3  -7   99.85    5.60 
   0  -3  -7  107.70    5.54 
   0  -3  -7  101.21    5.63 
   0  -3   7  103.08    5.57 
   0  -3   7  103.10    5.52 
   0  -3  -7  103.20    5.55 
   0  -3  -7  105.57    5.53 
   0  -3   7  101.08    5.52 
   0   3   7   95.67    5.54 
   0   3   7  101.10    5.58 
   0   3   7   95.55    5.54 
   0   3   7   96.00    5.55 
   0   3  -7   98.08    5.54 
   0   3  -7  100.04    5.53 
   0   3  -7   92.39    5.65 
   0   3   7  100.95    5.57 
  -1  -3  -7  110.79    5.62 
   1  -3   7  106.82    5.55 
   1  -3   7  106.44    5.56 
  -1  -3  -7  110.44    5.56 
  -1  -3  -7  106.51    5.57 
   1  -3   7  106.61    5.61 
  -1  -3  -7  109.03    5.66 
   1  -3   7  108.56    5.55 
  -1   3  -7   97.52    5.57 
  -1   3  -7   96.92    5.55 
   1   3   7   93.83    5.58 
   1   3   7   96.54    5.55 
  -1   3  -7   95.42    5.52 
   1   3   7   93.95    5.57 
   1   3   7   85.66    5.63 
   1   3   7   94.29    5.56 
  -1   3  -7   96.23    5.67 
  -2  -3  -7    0.83    0.14 
  -2  -3  -7    0.70    0.23 
   2  -3   7    0.58    0.21 
   2  -3   7    0.49    0.14 
  -2  -3  -7    0.38    0.15 
   2  -3   7    0.37    0.14 
   2  -3   7    0.42    0.14 
  -2  -3  -7    0.37    0.18 
  -2   3  -7    0.73    0.15 
  -2   3  -7    0.81    0.13 
   2   3   7    0.47    0.14 
   2   3   7    0.52    0.16 
   2   3   7    0.85    0.20 
  -2   3  -7    0.60    0.24 
  -2   3  -7    0.53    0.19 
   2   3   7    0.41    0.16 
  -3  -3  -7   25.53    1.61 
   3  -3   7   24.72    1.57 
  -3  -3  -7   24.53    1.57 
   3  -3   7   24.48    1.55 
  -3  -3  -7   25.25    1.57 
   3   3   7   27.71    1.70 
   3   3   7   29.23    1.58 
  -3   3  -7   27.27    1.58 
  -3   3  -7   28.10    1.55 
  -3   3  -7   28.23    1.61 
  -3   3  -7   27.77    1.54 
   3   3   7   29.12    1.65 
   4  -3   7   33.63    1.98 
  -4  -3  -7   34.33    1.90 
   4  -3   7   33.47    1.87 
  -4  -3  -7   34.59    1.93 
  -4  -3  -7   31.92    1.87 
   4  -3   7   33.60    1.86 
   4  -3   7   32.69    1.89 
   4   3   7   31.82    1.85 
   4   3   7   31.64    1.95 
   4   3   7   30.96    1.87 
  -4   3  -7   31.02    1.91 
  -4   3  -7   30.80    1.84 
  -4   3  -7   29.25    1.88 
  -4   3  -7   30.04    1.84 
   4   3   7   31.25    1.85 
  -5  -3  -7   11.20    0.81 
  -5  -3  -7   11.67    0.88 
   5  -3   7   11.10    0.86 
   5  -3   7   10.31    0.85 
   5  -3   7   11.66    0.82 
   5  -3   7   11.13    0.79 
  -5  -3  -7   11.29    0.86 
   5  -3   7   11.26    0.97 
   5   3   7   12.05    0.80 
   5   3   7   12.26    0.85 
   5   3   7   11.69    0.91 
  -5   3  -7   12.55    0.79 
  -5   3  -7   11.87    0.79 
   5   3   7   12.29    0.79 
  -5   3  -7   12.07    0.87 
  -5   3  -7   12.40    0.89 
   6  -3   7   28.94    1.68 
   6  -3   7   28.98    1.64 
  -6  -3  -7   28.96    1.76 
  -6  -3  -7   28.83    1.72 
   6  -3   7   31.08    2.05 
  -6  -3  -7   28.11    1.66 
  -6   3  -7   24.45    1.62 
  -6   3  -7   25.48    1.72 
   6   3   7   25.31    1.67 
   6   3   7   25.72    1.62 
   6   3   7   24.54    1.64 
  -7  -3  -7    2.58    0.47 
   7  -3   7    2.44    0.34 
  -7  -3  -7    2.59    0.53 
   7  -3   7    2.39    0.48 
  -7   3  -7    1.67    0.44 
   7   3   7    1.59    0.36 
  -7   3  -7    1.80    0.37 
  -7  -4   7   14.68    1.11 
  -7  -4   7   14.75    1.03 
  -7  -4   7   16.14    1.20 
   7  -4  -7   14.96    0.89 
  -7   4   7   13.77    1.05 
  -7   4   7   13.22    1.08 
  -7   4   7   12.81    1.06 
   6  -4  -7   26.58    1.54 
  -6  -4   7   26.30    1.63 
   6  -4  -7   26.77    1.55 
  -6  -4   7   25.06    1.63 
  -6  -4   7   26.47    1.69 
  -6  -4   7   25.58    1.52 
   6  -4  -7   26.17    1.66 
  -6   4   7   28.21    1.71 
  -6   4   7   24.59    1.96 
  -6   4   7   29.51    1.72 
  -6   4   7   28.56    1.68 
  -6   4   7   27.66    1.59 
  -6   4   7   29.65    1.80 
  -5  -4   7    7.60    0.69 
   5  -4  -7    7.87    0.53 
  -5  -4   7    7.60    0.46 
  -5  -4   7    7.30    0.61 
   5  -4  -7    7.36    0.52 
   5  -4  -7    7.84    0.65 
   5  -4  -7    7.75    0.51 
  -5  -4   7    7.75    0.65 
  -5  -4   7    7.46    0.48 
  -5   4   7    7.71    0.60 
  -5   4   7    6.92    0.72 
  -5   4   7    7.73    0.67 
  -5   4   7    7.78    0.64 
  -5   4   7    7.61    0.53 
  -5   4   7    7.62    0.64 
  -4  -4   7   54.15    2.99 
   4  -4  -7   55.10    3.02 
  -4  -4   7   52.49    3.02 
   4  -4  -7   55.31    2.98 
  -4  -4   7   54.38    2.91 
  -4  -4   7   53.39    3.01 
  -4  -4   7   51.72    2.91 
   4  -4  -7   55.08    2.95 
   4  -4  -7   53.75    2.97 
   4  -4  -7   54.83    2.96 
  -4  -4   7   56.69    3.12 
  -4   4   7   50.38    3.01 
  -4   4   7   54.86    3.09 
  -4   4   7   50.44    3.02 
  -4   4   7   49.52    3.00 
  -4   4   7   50.34    3.06 
  -4   4   7   49.92    2.96 
   3  -4  -7   33.26    1.92 
  -3  -4   7   32.74    1.86 
   3  -4  -7   32.42    1.91 
   3  -4  -7   32.53    1.91 
   3  -4  -7   32.29    1.95 
  -3  -4   7   31.98    1.85 
   3  -4  -7   33.05    1.90 
  -3  -4   7   31.65    1.93 
  -3  -4   7   33.93    2.04 
  -3   4   7   35.89    1.91 
  -3   4   7   33.74    2.04 
  -3   4   7   36.86    1.97 
  -3   4   7   36.23    1.95 
  -3   4   7   36.51    1.97 
  -2  -4   7    1.50    0.18 
   2  -4  -7    1.42    0.23 
   2  -4  -7    1.34    0.22 
   2  -4  -7    1.51    0.21 
  -2  -4   7    1.40    0.32 
  -2  -4   7    1.56    0.15 
  -2  -4   7    1.43    0.15 
   2  -4  -7    1.46    0.20 
  -2   4   7    2.06    0.32 
  -2   4   7    2.38    0.31 
  -1  -4   7   77.81    4.17 
   1  -4  -7   75.09    4.30 
   1  -4  -7   77.25    4.21 
   1  -4  -7   77.73    4.19 
  -1  -4   7   80.11    4.33 
  -1  -4   7   77.56    4.17 
  -1  -4   7   79.35    4.21 
   1  -4  -7   79.62    4.21 
   1  -4  -7   78.32    4.28 
   1   4  -7   74.71    4.17 
  -1   4   7   74.24    4.23 
  -1   4   7   76.04    4.22 
  -1   4   7   76.06    4.25 
   1   4  -7   67.20    4.32 
  -1   4   7   74.67    4.23 
  -1   4   7   70.82    4.21 
   0  -4   7   40.23    2.17 
   0  -4  -7   39.80    2.13 
   0  -4  -7   38.41    2.21 
   0  -4   7   39.79    2.11 
   0  -4  -7   40.75    2.14 
   0  -4   7   39.27    2.11 
   0  -4   7   41.37    2.13 
   0  -4  -7   38.51    2.22 
   0  -4  -7   40.68    2.14 
   0   4   7   36.29    2.16 
   0   4   7   35.04    2.14 
   0   4  -7   36.02    2.12 
   0   4   7   35.87    2.14 
   0   4   7   35.37    2.16 
   0   4  -7   36.62    2.13 
   0   4   7   35.66    2.18 
   0   4  -7   33.72    2.24 
  -1  -4  -7   25.06    1.45 
  -1  -4  -7   24.82    1.52 
  -1  -4  -7   24.79    1.43 
   1  -4   7   24.07    1.42 
   1  -4   7   24.43    1.49 
  -1  -4  -7   24.51    1.53 
   1  -4   7   24.51    1.42 
   1  -4   7   25.23    1.44 
  -1   4  -7   25.19    1.44 
   1   4   7   24.67    1.43 
   1   4   7   25.74    1.48 
  -1   4  -7   24.01    1.39 
   1   4   7   25.83    1.46 
  -1   4  -7   25.60    1.57 
  -1   4  -7   24.70    1.46 
   1   4   7   25.84    1.50 
   1   4   7   25.77    1.47 
  -2  -4  -7  101.82    5.28 
  -2  -4  -7  106.23    5.21 
   2  -4   7  100.46    5.17 
  -2  -4  -7  102.27    5.25 
   2  -4   7   98.84    5.17 
   2  -4   7  100.64    5.18 
   2  -4   7   99.85    5.25 
  -2  -4  -7   99.05    5.18 
   2   4   7   87.95    5.19 
  -2   4  -7   86.33    5.20 
   2   4   7   84.57    5.18 
  -2   4  -7   85.09    5.29 
  -2   4  -7   85.39    5.15 
  -2   4  -7   84.08    5.18 
   2   4   7   89.37    5.16 
   2   4   7   88.74    5.23 
   3  -4   7   12.20    0.78 
   3  -4   7   10.83    0.94 
  -3  -4  -7   12.28    0.80 
   3  -4   7   12.36    0.75 
  -3  -4  -7   12.01    0.78 
  -3  -4  -7   12.74    0.90 
   3  -4   7   11.46    0.76 
   3   4   7   11.07    0.76 
   3   4   7   11.13    0.83 
  -3   4  -7   11.81    0.74 
   3   4   7   11.85    0.79 
  -3   4  -7   12.03    0.77 
  -3   4  -7   11.42    0.91 
  -3   4  -7   11.86    0.82 
  -3   4  -7   11.67    0.74 
  -4  -4  -7   25.00    1.54 
  -4  -4  -7   25.08    1.49 
   4  -4   7   24.77    1.59 
  -4  -4  -7   25.13    1.51 
   4  -4   7   23.85    1.46 
   4  -4   7   24.19    1.49 
   4  -4   7   24.57    1.47 
  -4   4  -7   24.09    1.45 
  -4   4  -7   25.20    1.54 
  -4   4  -7   24.78    1.50 
   4   4   7   24.79    1.46 
  -4   4  -7   24.65    1.45 
   4   4   7   24.51    1.49 
   4   4   7   26.02    1.46 
   4   4   7   24.37    1.55 
   5  -4   7   18.06    1.11 
   5  -4   7   16.48    1.25 
   5  -4   7   17.28    1.08 
  -5  -4  -7   17.59    1.16 
  -5  -4  -7   17.85    1.16 
  -5  -4  -7   17.18    1.11 
   5  -4   7   16.79    1.14 
  -5   4  -7   16.44    1.08 
   5   4   7   17.23    1.13 
  -5   4  -7   17.12    1.08 
   5   4   7   16.88    1.08 
   5   4   7   17.35    1.08 
  -5   4  -7   16.99    1.15 
  -5   4  -7   17.59    1.19 
  -6  -4  -7    2.84    0.44 
  -6  -4  -7    3.02    0.48 
   6  -4   7    3.24    0.55 
  -6  -4  -7    3.34    0.49 
   6  -4   7    3.56    0.63 
   6  -4   7    3.43    0.42 
  -6   4  -7    2.21    0.43 
   6   4   7    2.56    0.43 
  -6   4  -7    2.31    0.35 
   6   4   7    2.80    0.39 
   6   4   7    2.00    0.34 
  -7  -5   7    5.80    0.66 
  -7  -5   7    5.88    0.75 
   7  -5  -7    6.29    0.55 
  -7   5   7    5.74    0.73 
  -7   5   7    4.96    0.66 
  -7   5   7    5.49    0.67 
   6  -5  -7    6.46    0.71 
  -6  -5   7    6.87    0.64 
  -6  -5   7    6.79    0.42 
  -6  -5   7    7.09    0.68 
  -6  -5   7    6.52    0.60 
   6  -5  -7    6.75    0.54 
   6  -5  -7    6.60    0.50 
  -6   5   7    5.56    0.62 
  -6   5   7    6.07    0.67 
  -6   5   7    5.48    0.68 
  -6   5   7    5.11    0.75 
  -6   5   7    5.57    0.66 
   5  -5  -7   55.88    3.30 
   5  -5  -7   59.12    3.27 
  -5  -5   7   61.05    3.47 
  -5  -5   7   53.89    3.39 
   5  -5  -7   60.64    3.29 
  -5  -5   7   57.97    3.35 
   5  -5  -7   57.47    3.35 
  -5  -5   7   58.55    3.36 
   5  -5  -7   58.88    3.31 
  -5   5   7   59.49    3.42 
  -5   5   7   60.10    3.37 
  -5   5   7   58.64    3.43 
  -5   5   7   59.80    3.37 
  -5   5   7   61.41    3.35 
  -5   5   7   59.52    3.30 
  -4  -5   7   12.80    0.81 
   4  -5  -7   13.23    0.88 
  -4  -5   7   12.88    0.85 
  -4  -5   7   13.44    0.94 
   4  -5  -7   12.28    0.78 
   4  -5  -7   12.66    0.78 
   4  -5  -7   12.68    0.76 
  -4  -5   7   12.59    0.84 
   4  -5  -7   12.75    0.79 
  -4   5   7   11.72    0.90 
  -4   5   7   11.63    0.82 
  -4   5   7   12.07    0.91 
  -4   5   7   11.32    0.75 
  -4   5   7   11.73    0.85 
  -4   5   7   11.56    0.85 
  -4   5   7   11.57    0.77 
   3  -5  -7   27.53    1.51 
  -3  -5   7   27.26    1.54 
   3  -5  -7   25.92    1.50 
   3  -5  -7   27.03    1.56 
  -3  -5   7   26.27    1.51 
  -3  -5   7   27.33    1.63 
   3  -5  -7   28.18    1.49 
  -3  -5   7   26.42    1.55 
   3  -5  -7   26.90    1.50 
  -3   5   7   22.62    1.58 
  -3   5   7   24.11    1.58 
  -3   5   7   24.05    1.55 
  -3   5   7   23.26    1.52 
  -2  -5   7   70.85    3.98 
   2  -5  -7   68.36    3.86 
   2  -5  -7   69.19    3.89 
  -2  -5   7   71.70    3.80 
   2  -5  -7   70.47    3.84 
  -2  -5   7   71.36    3.80 
   2  -5  -7   71.46    3.86 
  -2   5   7   69.97    3.90 
  -2   5   7   64.97    3.87 
  -2   5   7   68.25    3.88 
  -2   5   7   67.00    3.94 
   1  -5  -7   34.31    1.98 
  -1  -5   7   34.40    1.93 
   1  -5  -7   33.67    2.06 
  -1  -5   7   34.83    1.95 
   1  -5  -7   34.68    1.96 
  -1  -5   7   34.01    1.96 
   1  -5  -7   33.91    2.06 
  -1  -5   7   33.59    1.93 
  -1  -5   7   34.77    2.09 
   1  -5  -7   33.09    1.97 
   1   5  -7   35.46    1.93 
  -1   5   7   35.40    2.00 
  -1   5   7   36.59    2.03 
  -1   5   7   35.15    2.01 
  -1   5   7   35.59    1.99 
   1   5  -7   36.77    1.95 
  -1   5   7   35.42    2.00 
   1   5  -7   34.84    2.12 
   0  -5  -7   69.19    3.73 
   0  -5   7   67.12    3.70 
   0  -5   7   66.80    3.74 
   0  -5  -7   70.60    3.82 
   0  -5   7   69.37    3.70 
   0  -5  -7   67.43    3.72 
   0  -5  -7   66.31    3.73 
   0  -5   7   69.91    3.70 
   0  -5  -7   67.21    3.80 
   0   5   7   66.33    3.75 
   0   5  -7   64.02    3.85 
   0   5   7   66.09    3.73 
   0   5   7   65.56    3.78 
   0   5  -7   64.93    3.70 
   0   5   7   64.89    3.74 
   0   5   7   67.58    3.76 
   1  -5   7   30.06    1.58 
  -1  -5  -7   31.09    1.69 
   1  -5   7   29.80    1.65 
   1  -5   7   29.91    1.58 
   1  -5   7   30.07    1.58 
  -1  -5  -7   31.39    1.60 
  -1  -5  -7   31.17    1.69 
  -1  -5  -7   32.16    1.62 
   1   5   7   25.24    1.62 
   1   5   7   25.02    1.64 
  -1   5  -7   24.41    1.53 
   1   5   7   25.39    1.58 
   1   5   7   24.36    1.60 
   1   5   7   24.45    1.62 
  -1   5  -7   25.23    1.60 
  -1   5  -7   23.72    1.70 
   2  -5   7    9.69    0.61 
   2  -5   7    9.29    0.70 
  -2  -5  -7   10.00    0.72 
   2  -5   7    9.56    0.61 
  -2  -5  -7    9.68    0.65 
   2  -5   7    9.33    0.61 
  -2  -5  -7    9.33    0.72 
  -2   5  -7    9.02    0.76 
   2   5   7    8.73    0.67 
   2   5   7    8.06    0.68 
   2   5   7    9.74    0.67 
  -2   5  -7    9.01    0.66 
   2   5   7    8.47    0.65 
  -2   5  -7    8.74    0.57 
   2   5   7    9.21    0.59 
  -3  -5  -7   40.12    2.21 
   3  -5   7   38.35    2.17 
   3  -5   7   31.70    2.27 
   3  -5   7   39.28    2.17 
  -3  -5  -7   39.51    2.25 
  -3  -5  -7   39.17    2.20 
   3  -5   7   38.61    2.31 
  -3   5  -7   37.14    2.31 
  -3   5  -7   37.63    2.14 
  -3   5  -7   36.61    2.18 
  -3   5  -7   39.12    2.23 
   3   5   7   37.36    2.24 
   3   5   7   38.81    2.14 
   3   5   7   39.38    2.20 
   3   5   7   37.17    2.17 
   4  -5   7   13.93    0.83 
   4  -5   7   13.77    0.98 
  -4  -5  -7   13.78    0.83 
   4  -5   7   13.42    0.79 
   4  -5   7   13.52    0.81 
  -4  -5  -7   11.83    0.78 
   4   5   7   11.43    0.87 
   4   5   7   10.96    0.77 
  -4   5  -7   10.85    0.87 
  -4   5  -7   10.81    0.76 
   4   5   7   10.02    0.83 
  -4   5  -7   11.31    0.82 
   4   5   7   10.76    0.79 
   4   5   7   11.08    0.84 
  -4   5  -7   10.25    0.76 
   5  -5   7    4.50    0.45 
   5  -5   7    4.56    0.56 
  -5  -5  -7    4.87    0.60 
  -5  -5  -7    4.89    0.49 
   5  -5   7    4.76    0.50 
  -5  -5  -7    4.86    0.55 
   5  -5   7    5.25    0.75 
  -5   5  -7    4.01    0.63 
  -5   5  -7    3.86    0.53 
  -5   5  -7    4.30    0.47 
   5   5   7    4.15    0.46 
   5   5   7    3.38    0.48 
   5   5   7    4.47    0.58 
   6  -5   7   12.40    1.06 
   6  -5   7   13.50    0.94 
   6  -5   7   13.81    1.01 
  -6  -5  -7   12.70    0.95 
  -6  -5  -7   13.60    1.02 
  -6   5  -7   13.92    0.95 
  -6   5  -7   14.74    1.13 
   6   5   7   15.16    1.07 
   6   5   7   14.40    0.97 
   7  -6  -7   11.22    0.82 
  -7  -6   7   11.52    1.01 
  -7  -6   7   10.91    0.89 
  -7   6   7   10.48    0.95 
  -7   6   7   10.22    0.99 
  -7   6   7   10.38    1.00 
   6  -6  -7   21.26    1.24 
  -6  -6   7   21.64    1.34 
  -6  -6   7   21.25    1.33 
   6  -6  -7   22.39    1.39 
  -6  -6   7   21.81    1.27 
  -6   6   7   17.80    1.31 
  -6   6   7   17.82    1.42 
  -6   6   7   18.27    1.37 
  -6   6   7   17.90    1.34 
  -6   6   7   17.95    1.36 
  -5  -6   7    7.30    0.73 
  -5  -6   7    6.48    0.68 
  -5  -6   7    7.22    0.66 
  -5  -6   7    7.49    0.67 
   5  -6  -7    6.91    0.72 
   5  -6  -7    7.35    0.59 
  -5   6   7    7.89    0.67 
  -5   6   7    7.83    0.63 
  -5   6   7    7.52    0.72 
  -5   6   7    7.57    0.73 
  -5   6   7    8.29    0.76 
   4  -6  -7   47.80    2.74 
   4  -6  -7   46.56    2.68 
   4  -6  -7   45.66    2.65 
  -4  -6   7   47.51    2.68 
   4  -6  -7   45.27    2.67 
  -4  -6   7   47.85    2.71 
   4  -6  -7   45.91    2.69 
  -4  -6   7   46.48    2.81 
  -4  -6   7   45.39    2.73 
  -4   6   7   46.99    2.73 
  -4   6   7   48.40    2.71 
  -4   6   7   48.64    2.75 
  -4   6   7   48.02    2.80 
  -4   6   7   48.22    2.65 
  -4   6   7   47.58    2.67 
  -4   6   7   50.48    2.78 
   3  -6  -7   54.20    3.03 
   3  -6  -7   54.89    3.02 
   3  -6  -7   54.09    3.08 
  -3  -6   7   53.87    3.02 
   3  -6  -7   53.39    3.06 
  -3  -6   7   54.77    3.08 
  -3  -6   7   54.76    3.15 
   3  -6  -7   54.31    3.01 
  -3  -6   7   56.42    3.04 
  -3   6   7   52.66    3.06 
  -3   6   7   52.90    3.02 
  -3   6   7   52.45    3.13 
  -3   6   7   53.15    3.09 
  -3   6   7   53.15    3.08 
  -3   6   7   52.91    3.05 
   2  -6  -7    6.32    0.49 
   2  -6  -7    6.47    0.46 
  -2  -6   7    6.46    0.53 
   2  -6  -7    6.61    0.56 
   2  -6  -7    6.11    0.45 
  -2  -6   7    5.92    0.40 
  -2  -6   7    5.97    0.59 
   2  -6  -7    6.25    0.48 
  -2  -6   7    6.17    0.48 
  -2   6   7    6.89    0.52 
  -2   6   7    6.77    0.61 
  -2   6   7    6.75    0.55 
  -2   6   7    6.72    0.53 
  -2   6   7    7.45    0.57 
   1  -6  -7   84.89    4.47 
  -1  -6   7   69.94    4.36 
   1  -6  -7   83.51    4.38 
   1  -6  -7   79.62    4.40 
  -1  -6   7   81.04    4.32 
  -1  -6   7   84.21    4.33 
   1  -6  -7   80.08    4.37 
  -1  -6   7   81.39    4.31 
   1  -6  -7   80.63    4.35 
   1   6  -7   76.09    4.31 
  -1   6   7   75.07    4.38 
  -1   6   7   75.58    4.41 
   1   6  -7   78.15    4.32 
  -1   6   7   76.64    4.37 
  -1   6   7   77.94    4.38 
  -1   6   7   78.88    4.40 
   1   6  -7   73.98    4.49 
   0  -6  -7   13.95    0.87 
   0  -6   7   14.01    0.85 
   0  -6  -7   13.66    0.89 
   0  -6   7   13.26    0.89 
   0  -6   7   13.74    0.85 
   0  -6   7   14.41    0.91 
   0  -6  -7   14.32    1.04 
   0  -6  -7   14.03    0.96 
   0  -6  -7   14.44    1.00 
   0   6   7   15.20    0.95 
   0   6  -7   14.79    0.88 
   0   6   7   15.51    0.95 
   0   6   7   15.58    0.90 
   0   6   7   15.03    0.93 
   0   6   7   15.06    0.92 
   0   6  -7   14.63    1.04 
   0   6  -7   14.82    0.86 
   1  -6   7   23.54    1.23 
  -1  -6  -7   23.60    1.37 
   1  -6   7   24.14    1.24 
  -1  -6  -7   23.63    1.26 
   1  -6   7   23.47    1.32 
   1  -6   7   23.87    1.22 
  -1  -6  -7   23.96    1.28 
  -1  -6  -7   23.71    1.34 
  -1   6  -7   18.47    1.26 
  -1   6  -7   17.85    1.36 
   1   6   7   18.04    1.26 
   1   6   7   18.38    1.30 
   1   6   7   18.66    1.23 
   1   6   7   17.73    1.27 
   1   6   7   18.94    1.29 
  -2  -6  -7   36.76    2.26 
   2  -6   7   37.26    2.25 
   2  -6   7   34.17    2.17 
  -2  -6  -7   37.90    2.25 
   2  -6   7   35.93    2.15 
   2  -6   7   37.37    2.15 
  -2  -6  -7   37.57    2.19 
   2   6   7   39.45    2.24 
   2   6   7   40.41    2.15 
   2   6   7   40.01    2.19 
  -2   6  -7   39.46    2.21 
   2   6   7   40.32    2.21 
  -2   6  -7   39.15    2.12 
   3  -6   7    9.41    0.92 
   3  -6   7   10.62    0.67 
  -3  -6  -7   10.73    0.77 
   3  -6   7   10.54    0.67 
  -3  -6  -7   11.39    0.75 
  -3  -6  -7   10.56    0.71 
   3  -6   7   10.39    0.70 
   3  -6   7   10.44    0.67 
  -3  -6  -7   10.35    0.78 
  -3   6  -7    8.74    0.66 
  -3   6  -7    8.90    0.63 
   3   6   7    8.57    0.73 
   3   6   7    9.36    0.69 
   3   6   7    9.06    0.72 
  -3   6  -7    9.13    0.83 
  -3   6  -7    8.61    0.74 
   3   6   7    8.92    0.62 
   3   6   7    9.09    0.73 
   4  -6   7   14.09    1.14 
  -4  -6  -7   13.19    1.00 
   4  -6   7   13.75    0.93 
   4  -6   7   13.31    0.91 
  -4  -6  -7   14.07    0.99 
  -4  -6  -7   13.46    0.94 
   4  -6   7   13.21    0.92 
  -4   6  -7   15.19    0.89 
  -4   6  -7   14.17    0.90 
   4   6   7   15.42    0.89 
   4   6   7   15.58    1.00 
   4   6   7   14.86    0.87 
  -4   6  -7   14.25    1.02 
   4   6   7   15.12    0.94 
   5  -6   7   42.61    2.48 
   5  -6   7   43.44    2.68 
  -5  -6  -7   44.38    2.50 
  -5  -6  -7   44.55    2.56 
  -5  -6  -7   45.15    2.56 
   5  -6   7   43.29    2.47 
   5  -6   7   43.72    2.50 
   5   6   7   42.79    2.40 
   5   6   7   43.09    2.48 
  -5   6  -7   39.95    2.47 
  -5   6  -7   41.19    2.57 
  -5   6  -7   41.34    2.44 
   5   6   7   44.50    2.53 
   5   6   7   41.62    2.47 
  -6  -6  -7    8.04    0.67 
  -6  -6  -7    8.29    0.75 
   6  -6   7    7.41    0.71 
   6  -6   7    7.88    0.63 
  -6   6  -7    6.46    0.86 
   6   6   7    6.69    0.70 
  -6   6  -7    6.36    0.66 
   6   6   7    6.62    0.72 
   6  -7  -7    1.13    0.31 
  -6  -7   7    1.32    0.39 
  -6  -7   7    1.27    0.33 
   6  -7  -7    1.31    0.34 
   6  -7  -7    1.50    0.53 
  -6   7   7    0.80    0.49 
  -6   7   7    0.38    0.36 
  -6   7   7    0.79    0.33 
  -6   7   7    0.63    0.43 
  -6   7   7    1.17    0.41 
  -5  -7   7   26.98    1.68 
   5  -7  -7   26.56    1.58 
   5  -7  -7   28.65    1.62 
  -5  -7   7   25.06    1.67 
   5  -7  -7   26.54    1.71 
  -5  -7   7   27.24    1.66 
  -5   7   7   27.48    1.68 
  -5   7   7   27.37    1.75 
  -5   7   7   26.61    1.72 
  -5   7   7   26.60    1.76 
  -4  -7   7   16.56    1.11 
   4  -7  -7   15.80    1.00 
   4  -7  -7   16.32    1.15 
   4  -7  -7   15.36    1.01 
   4  -7  -7   16.28    1.05 
   4  -7  -7   15.48    1.03 
  -4  -7   7   15.96    1.03 
  -4  -7   7   15.90    1.06 
  -4  -7   7   16.78    1.19 
  -4   7   7   16.77    1.13 
  -4   7   7   16.32    1.09 
  -4   7   7   16.84    1.08 
  -4   7   7   16.73    1.17 
  -4   7   7   17.53    1.14 
  -4   7   7   17.35    1.01 
   3  -7  -7   36.02    2.05 
  -3  -7   7   33.50    2.04 
  -3  -7   7   35.40    2.18 
  -3  -7   7   35.72    2.06 
  -3  -7   7   35.75    2.12 
   3  -7  -7   35.11    2.13 
   3  -7  -7   33.97    2.06 
   3  -7  -7   35.28    2.06 
  -3   7   7   37.52    2.10 
  -3   7   7   35.61    2.13 
  -3   7   7   37.47    2.10 
  -3   7   7   37.64    2.12 
  -3   7   7   35.93    2.19 
  -3   7   7   36.35    2.06 
  -2  -7   7   39.05    2.10 
  -2  -7   7   38.13    2.05 
  -2  -7   7   40.51    2.26 
   2  -7  -7   38.07    2.13 
   2  -7  -7   39.09    2.14 
  -2  -7   7   38.92    2.19 
   2  -7  -7   38.41    2.10 
   2  -7  -7   39.14    2.18 
  -2   7   7   33.35    2.14 
  -2   7   7   34.46    2.17 
  -2   7   7   34.05    2.14 
  -2   7   7   34.54    2.23 
  -2   7   7   34.39    2.14 
  -1  -7   7   10.50    0.59 
  -1  -7   7    9.78    0.60 
   1  -7  -7    9.83    0.67 
   1  -7  -7    9.79    0.74 
  -1  -7   7   10.06    0.63 
  -1  -7   7   10.16    0.61 
   1  -7  -7   10.23    0.67 
  -1  -7   7   10.24    0.58 
   1   7  -7    9.53    0.60 
  -1   7   7    9.06    0.67 
  -1   7   7    9.42    0.78 
   1   7  -7    9.18    0.57 
  -1   7   7    9.53    0.72 
   1   7  -7    9.40    0.81 
  -1   7   7    9.47    0.68 
  -1   7   7    9.18    0.70 
  -1   7   7    9.20    0.68 
   0  -7  -7   44.13    2.37 
   0  -7  -7   44.24    2.37 
   0  -7  -7   42.55    2.41 
   0  -7   7   43.49    2.32 
   0  -7   7   42.40    2.31 
   0  -7   7   41.70    2.30 
   0  -7  -7   43.19    2.47 
   0  -7   7   42.85    2.37 
   0   7   7   41.42    2.38 
   0   7   7   41.03    2.41 
   0   7   7   40.59    2.38 
   0   7   7   41.61    2.35 
   0   7   7   37.98    2.40 
   0   7  -7   39.42    2.49 
   0   7   7   35.77    2.44 
   1  -7   7   26.27    1.63 
   1  -7   7   26.81    1.71 
  -1  -7  -7   26.59    1.76 
  -1  -7  -7   26.69    1.71 
   1  -7   7   26.94    1.61 
  -1  -7  -7   27.73    1.68 
  -1  -7  -7   27.70    1.67 
   1  -7   7   26.54    1.64 
   1   7   7   31.07    1.65 
   1   7   7   31.75    1.73 
  -1   7  -7   30.80    1.68 
   1   7   7   31.66    1.75 
   1   7   7   31.21    1.70 
  -1   7  -7   30.62    1.81 
  -2  -7  -7    0.75    0.21 
   2  -7   7    1.29    0.32 
   2  -7   7    1.03    0.19 
   2  -7   7    0.72    0.19 
   2  -7   7    0.97    0.20 
   2  -7   7    1.13    0.17 
  -2  -7  -7    1.02    0.27 
  -2  -7  -7    1.08    0.31 
  -2   7  -7    1.01    0.33 
  -2   7  -7    1.25    0.19 
   2   7   7    1.16    0.30 
   2   7   7    1.25    0.20 
   2   7   7    0.92    0.23 
  -2   7  -7    1.36    0.27 
   2   7   7    0.82    0.22 
   3  -7   7   40.31    2.40 
  -3  -7  -7   40.65    2.51 
   3  -7   7   40.37    2.43 
   3  -7   7   38.82    2.42 
  -3  -7  -7   40.39    2.52 
  -3  -7  -7   42.18    2.48 
   3   7   7   42.34    2.52 
   3   7   7   45.06    2.39 
   3   7   7   46.21    2.50 
  -3   7  -7   44.39    2.40 
   3   7   7   44.11    2.51 
   3   7   7   45.18    2.46 
  -3   7  -7   45.10    2.61 
  -3   7  -7   43.48    2.50 
   4  -7   7   30.01    1.74 
  -4  -7  -7   29.25    1.77 
  -4  -7  -7   30.49    1.84 
   4  -7   7   29.70    1.75 
   4  -7   7   28.80    1.92 
  -4  -7  -7   30.06    1.80 
  -4   7  -7   30.22    1.84 
   4   7   7   29.35    1.68 
   4   7   7   30.30    1.67 
   4   7   7   29.28    1.82 
  -4   7  -7   25.84    1.70 
   4   7   7   30.23    1.75 
   4   7   7   30.33    1.80 
  -4   7  -7   29.39    1.92 
   5  -7   7    8.01    0.68 
   5  -7   7    7.03    1.08 
  -5  -7  -7    8.39    0.75 
  -5  -7  -7    7.94    0.68 
   5  -7   7    8.51    0.65 
  -5   7  -7    7.67    0.84 
  -5   7  -7    7.72    0.62 
   5   7   7    8.25    0.83 
   5   7   7    7.81    0.69 
   5   7   7    6.87    0.70 
   6  -8  -7   25.18    1.57 
  -6  -8   7   24.66    1.55 
  -6  -8   7   24.74    1.63 
  -6   8   7   24.37    1.64 
  -6   8   7   25.74    1.74 
  -6   8   7   24.73    1.68 
  -5  -8   7    0.50    0.31 
   5  -8  -7    0.66    0.28 
   5  -8  -7    0.11    0.40 
  -5  -8   7    0.55    0.33 
  -5   8   7    0.50    0.32 
  -5   8   7    0.58    0.40 
  -5   8   7    0.11    0.39 
  -5   8   7    0.50    0.39 
   4  -8  -7   29.35    1.87 
   4  -8  -7   29.54    1.77 
  -4  -8   7   29.10    1.91 
  -4  -8   7   29.17    1.77 
  -4  -8   7   29.12    1.74 
   4  -8  -7   28.75    1.77 
  -4   8   7   29.83    1.80 
  -4   8   7   30.65    1.74 
  -4   8   7   30.81    1.92 
  -4   8   7   31.01    1.83 
  -4   8   7   31.36    1.83 
  -4   8   7   29.21    1.85 
  -3  -8   7   10.90    0.70 
   3  -8  -7   10.34    0.73 
  -3  -8   7   11.13    0.87 
   3  -8  -7   10.30    0.73 
  -3  -8   7   10.16    0.70 
   3  -8  -7   10.07    0.68 
   3  -8  -7   10.52    0.69 
  -3  -8   7   10.26    0.59 
   3  -8  -7   10.37    0.85 
  -3  -8   7   10.00    0.79 
  -3   8   7   10.06    0.82 
  -3   8   7    9.73    0.72 
  -3   8   7    9.92    0.76 
  -3   8   7    9.31    0.87 
  -3   8   7    8.27    0.79 
  -3   8   7    9.50    0.77 
  -2  -8   7    2.75    0.30 
   2  -8  -7    2.68    0.32 
  -2  -8   7    3.15    0.51 
   2  -8  -7    3.39    0.38 
   2  -8  -7    3.22    0.51 
   2  -8  -7    2.97    0.38 
  -2  -8   7    2.40    0.39 
  -2  -8   7    3.05    0.25 
   2  -8  -7    2.90    0.31 
  -2   8   7    2.41    0.40 
  -2   8   7    2.24    0.44 
  -2   8   7    2.17    0.40 
  -2   8   7    2.01    0.39 
  -2   8   7    2.59    0.35 
   1  -8  -7   31.61    2.06 
  -1  -8   7   31.60    1.94 
   1  -8  -7   32.32    2.02 
  -1  -8   7   31.32    1.95 
  -1  -8   7   30.83    1.93 
   1  -8  -7   32.46    2.01 
  -1  -8   7   30.91    1.97 
   1  -8  -7   29.38    1.98 
  -1   8   7   39.39    2.09 
  -1   8   7   40.83    2.18 
  -1   8   7   41.19    2.04 
  -1   8   7   39.66    2.09 
   1   8  -7   39.48    2.21 
  -1   8   7   40.28    2.06 
   0  -8   7   68.86    3.76 
   0  -8  -7   67.39    3.81 
   0  -8   7   68.61    3.81 
   0  -8  -7   69.78    3.81 
   0  -8  -7   70.11    3.92 
   0  -8   7   68.98    3.75 
   0   8  -7   67.78    3.94 
   0   8   7   65.72    3.86 
   0   8   7   67.98    3.79 
   0   8   7   67.82    3.86 
   0   8   7   68.97    3.82 
   0   8  -7   66.75    3.76 
   0   8   7   64.93    3.85 
  -1  -8  -7   12.67    0.85 
   1  -8   7   12.49    0.80 
   1  -8   7   11.76    0.88 
  -1  -8  -7   13.05    0.87 
   1  -8   7   12.33    0.86 
   1  -8   7   12.71    0.78 
  -1  -8  -7   12.69    0.95 
  -1  -8  -7   13.08    0.83 
  -1   8  -7   12.30    0.83 
   1   8   7   12.96    0.84 
  -1   8  -7   10.25    1.06 
  -1   8  -7   12.07    0.79 
   1   8   7   12.61    0.88 
   1   8   7   13.46    0.92 
   1   8   7   13.25    0.80 
   1   8   7   12.45    0.89 
   1   8   7   11.95    0.88 
  -2  -8  -7   23.82    1.46 
   2  -8   7   22.43    1.40 
   2  -8   7   23.18    1.41 
  -2  -8  -7   21.83    1.53 
   2  -8   7   22.61    1.53 
  -2  -8  -7   22.67    1.47 
   2  -8   7   22.12    1.46 
  -2   8  -7   24.72    1.48 
   2   8   7   26.01    1.51 
   2   8   7   24.66    1.51 
   2   8   7   25.29    1.38 
   2   8   7   26.19    1.46 
  -2   8  -7   24.34    1.58 
   2   8   7   24.89    1.49 
  -3  -8  -7    4.22    0.55 
   3  -8   7    3.79    0.33 
  -3  -8  -7    3.64    0.52 
   3  -8   7    4.33    0.68 
   3  -8   7    3.94    0.39 
   3  -8   7    4.43    0.43 
  -3  -8  -7    4.10    0.53 
   3   8   7    2.67    0.45 
   3   8   7    3.13    0.56 
  -3   8  -7    2.79    0.35 
  -3   8  -7    2.85    0.55 
   3   8   7    2.60    0.44 
  -3   8  -7    3.10    0.62 
  -4  -8  -7   12.83    1.20 
   4  -8   7   10.85    0.78 
   4  -8   7   11.04    1.09 
  -4  -8  -7   11.27    0.89 
  -4  -8  -7   10.97    0.83 
   4  -8   7   11.00    0.78 
  -4   8  -7   10.33    0.76 
   4   8   7   11.19    0.94 
  -4   8  -7   10.47    1.00 
   4   8   7   10.43    0.85 
   4   8   7   11.04    0.82 
  -4   8  -7   10.91    0.96 
   5  -8   7    8.01    0.70 
  -5  -8  -7    8.13    0.76 
  -5  -8  -7    8.13    0.80 
   5  -8   7    8.21    0.75 
  -5   8  -7    9.45    1.02 
  -5   8  -7   10.03    0.99 
   5   8   7   10.33    0.79 
   5   8   7    9.64    0.81 
  -5  -9   7   26.75    1.63 
  -5  -9   7   27.78    1.72 
   5  -9  -7   26.30    2.08 
   5  -9  -7   28.17    1.67 
  -5   9   7   27.03    1.85 
  -5   9   7   24.75    1.72 
  -4  -9   7   10.66    1.00 
  -4  -9   7   10.78    0.79 
   4  -9  -7    9.92    0.80 
  -4  -9   7   11.21    0.78 
  -4   9   7   10.57    1.00 
  -4   9   7   11.02    0.78 
  -4   9   7   10.84    0.89 
  -3  -9   7   15.39    1.00 
   3  -9  -7   15.84    1.03 
  -3  -9   7   15.90    0.90 
   3  -9  -7   15.69    0.99 
  -3  -9   7   15.61    1.18 
  -3  -9   7   15.65    0.97 
   3  -9  -7   15.41    1.05 
  -3   9   7   15.64    1.20 
  -3   9   7   16.10    1.04 
  -3   9   7   15.82    1.04 
  -3   9   7   14.61    1.14 
  -3   9   7   15.46    1.08 
  -3   9   7   15.45    1.06 
   2  -9  -7   24.77    1.62 
   2  -9  -7   23.47    1.75 
   2  -9  -7   23.90    1.57 
  -2  -9   7   24.58    1.53 
   2  -9  -7   23.49    1.62 
  -2   9   7   30.85    1.81 
  -2   9   7   29.11    1.66 
  -2   9   7   30.79    1.65 
  -2   9   7   30.22    1.71 
  -2   9   7   28.84    1.66 
  -2   9   7   29.74    1.65 
  -1  -9   7    1.65    0.21 
   1  -9  -7    2.03    0.32 
   1  -9  -7    2.09    0.38 
   1  -9  -7    1.83    0.28 
  -1  -9   7    1.78    0.28 
  -1   9   7    2.04    0.31 
  -1   9   7    1.94    0.33 
  -1   9   7    2.10    0.42 
  -1   9   7    2.42    0.33 
  -1   9   7    1.80    0.35 
   1   9  -7    2.21    0.28 
   1   9  -7    2.03    0.26 
  -1   9   7    1.83    0.31 
   0  -9  -7   15.08    1.12 
   0  -9   7   15.12    1.07 
   0  -9   7   14.22    0.98 
   0  -9  -7   14.70    1.04 
   0  -9   7   14.12    1.04 
   0  -9  -7   14.62    1.06 
   0  -9   7   14.40    0.96 
   0   9   7   18.25    1.09 
   0   9   7   19.19    1.23 
   0   9  -7   17.78    0.98 
   0   9  -7   17.90    1.25 
   0   9   7   18.38    1.04 
   0   9   7   18.98    1.09 
   0   9   7   18.08    1.12 
  -1  -9  -7   20.65    1.22 
  -1  -9  -7   19.86    1.24 
  -1  -9  -7   20.51    1.35 
   1  -9   7   19.82    1.18 
   1  -9   7   20.70    1.29 
   1  -9   7   19.71    1.25 
   1  -9   7   20.86    1.17 
   1   9   7   18.85    1.18 
   1   9   7   18.92    1.26 
   1   9   7   19.28    1.24 
  -1   9  -7   19.25    1.23 
   1   9   7   18.59    1.29 
   1   9   7   19.42    1.32 
  -1   9  -7   18.69    1.37 
  -2  -9  -7    4.28    0.45 
  -2  -9  -7    4.16    0.51 
   2  -9   7    4.39    0.40 
   2  -9   7    4.87    0.44 
  -2  -9  -7    4.28    0.60 
  -2  -9  -7    4.42    0.56 
   2  -9   7    5.01    0.66 
   2   9   7    4.72    0.51 
   2   9   7    4.04    0.39 
  -2   9  -7    3.39    0.64 
   2   9   7    4.17    0.63 
  -2   9  -7    3.92    0.56 
   2   9   7    3.78    0.52 
  -3  -9  -7   19.48    1.36 
   3  -9   7   19.91    1.23 
   3  -9   7   22.06    1.67 
   3  -9   7   19.97    1.22 
  -3  -9  -7   21.07    1.34 
  -3  -9  -7   20.17    1.30 
  -3   9  -7   19.17    1.42 
   3   9   7   19.28    1.35 
   3   9   7   19.62    1.26 
   3   9   7   18.51    1.31 
  -3   9  -7   19.02    1.33 
  -4  -9  -7   10.43    0.91 
   4  -9   7   10.29    0.81 
   4  -9   7   10.23    0.81 
  -4  -9  -7   10.20    0.95 
   4   9   7   13.23    0.89 
  -4   9  -7   12.33    1.10 
   4   9   7   12.66    0.92 
  -4   9  -7   12.91    1.04 
   4 -10  -7   12.76    0.95 
   4 -10  -7   13.28    1.17 
  -4 -10   7   12.94    0.92 
  -4  10   7   12.76    1.04 
  -4  10   7   12.77    1.18 
  -4  10   7   12.92    0.93 
  -3 -10   7   20.47    1.30 
  -3 -10   7   20.98    1.49 
   3 -10  -7   20.15    1.36 
  -3 -10   7   21.73    1.18 
   3 -10  -7   20.92    1.45 
   3 -10  -7   20.75    1.30 
  -3  10   7   19.57    1.32 
  -3  10   7   20.11    1.51 
  -3  10   7   19.47    1.35 
   2 -10  -7    0.46    0.24 
   2 -10  -7    0.37    0.22 
   2 -10  -7    0.42    0.39 
   2 -10  -7    0.35    0.31 
  -2 -10   7    0.45    0.18 
  -2  10   7    0.53    0.28 
  -2  10   7    0.26    0.32 
  -2  10   7    0.29    0.30 
  -2  10   7    0.43    0.40 
  -2  10   7    0.10    0.27 
  -1 -10   7   23.15    1.37 
   1 -10  -7   23.36    1.47 
  -1 -10   7   23.20    1.34 
   1 -10  -7   24.15    1.54 
  -1 -10   7   23.02    1.47 
   1 -10  -7   23.30    1.44 
  -1  10   7   22.75    1.47 
  -1  10   7   23.09    1.50 
  -1  10   7   24.96    1.48 
  -1  10   7   24.89    1.65 
  -1  10   7   23.79    1.46 
   0 -10  -7   12.86    1.00 
   0 -10   7   12.86    0.95 
   0 -10  -7   12.28    0.96 
   0 -10   7   12.65    0.85 
   0 -10   7   13.10    0.82 
   0 -10  -7   12.94    0.90 
   0 -10   7   12.13    0.91 
   0  10   7   14.07    0.97 
   0  10   7   14.04    0.90 
   0  10   7   13.97    0.95 
   0  10  -7   14.08    1.10 
   0  10   7   13.93    1.00 
   0  10   7   14.57    1.14 
  -1 -10  -7   17.49    1.23 
  -1 -10  -7   16.49    1.18 
  -1 -10  -7   17.68    1.30 
  -1 -10  -7   17.32    1.14 
   1 -10   7   16.84    1.11 
   1 -10   7   17.47    1.09 
   1  10   7   18.86    1.10 
   1  10   7   19.59    1.37 
   1  10   7   18.21    1.24 
  -1  10  -7   18.76    1.34 
   1  10   7   19.59    1.19 
  -2 -10  -7    3.52    0.60 
   2 -10   7    3.64    0.49 
  -2 -10  -7    4.82    0.49 
   2 -10   7    3.93    0.43 
  -2  10  -7    5.53    0.76 
   2  10   7    5.74    0.60 
   2  10   7    6.02    0.61 
   2  10   7    5.67    0.79 
   3 -10   7    2.26    0.34 
  -3 -10  -7    2.67    0.47 
   3 -10   7    2.18    0.38 
  -3 -10  -7    1.98    0.32 
  -3  10  -7    3.38    0.74 
   3  10   7    3.51    0.57 
   3  10   7    2.81    0.52 
  -3 -11   7    3.37    0.53 
   3 -11  -7    3.78    0.64 
   3 -11  -7    3.73    0.54 
  -3  11   7    3.94    0.71 
  -3  11   7    3.59    0.66 
  -3  11   7    3.00    0.50 
   2 -11  -7   24.02    1.69 
  -2 -11   7   24.82    1.45 
   2 -11  -7   23.19    1.60 
   2 -11  -7   24.98    1.54 
  -2  11   7   26.09    1.80 
  -2  11   7   25.34    1.61 
  -2  11   7   24.92    1.56 
   1 -11  -7    6.81    0.76 
  -1 -11   7    6.77    0.47 
   1 -11  -7    7.59    0.63 
  -1 -11   7    7.13    0.55 
   1 -11  -7    6.67    0.82 
  -1 -11   7    7.37    0.72 
  -1 -11   7    7.05    0.58 
  -1  11   7    6.93    0.67 
  -1  11   7    6.38    0.71 
  -1  11   7    6.74    0.95 
  -1  11   7    6.80    0.76 
   1  11  -7    6.66    0.53 
   0 -11  -7   13.25    1.02 
   0 -11  -7   13.20    0.90 
   0 -11   7   13.23    0.85 
   0 -11   7   12.89    0.80 
   0  11   7   12.30    0.97 
   0  11   7   12.29    1.20 
   0  11   7   12.05    1.01 
   0  11   7   11.65    0.87 
   1 -11   7   12.30    0.91 
   1 -11   7   11.87    0.85 
  -1 -11  -7   12.10    1.05 
  -1 -11  -7   12.03    0.92 
   1  11   7   17.00    1.29 
  -1  11  -7   15.83    1.20 
   1  11   7   15.14    1.07 
   2 -11   7    2.91    0.46 
  -2 -11  -7    2.94    0.48 
   2 -11   7    2.64    0.38 
  -2 -11  -7    3.14    0.62 
  -2 -11  -7    2.24    0.44 
   2  11   7    2.86    0.44 
   2  11   7    2.58    0.48 
   2  11   7    3.08    0.66 
  -2  11  -7    2.54    0.58 
  -7   0   8    9.72    0.85 
  -7   0   8   10.11    0.84 
  -7   0   8    9.59    0.77 
  -7   0   8    9.32    0.70 
  -6   0   8   10.26    0.77 
  -6   0   8   10.65    0.70 
  -6   0   8   10.87    0.87 
  -6   0   8   10.87    0.73 
   6   0  -8   11.04    0.72 
  -6   0   8   10.78    0.82 
  -6   0   8   10.90    0.75 
  -6   0   8   10.32    0.69 
  -5   0   8   12.25    0.74 
  -5   0   8   12.27    0.77 
  -5   0   8   12.02    0.78 
   5   0  -8   12.18    0.77 
  -5   0   8   11.97    0.92 
  -5   0   8   12.01    0.85 
  -5   0   8   11.79    0.81 
   5   0  -8   11.85    0.71 
  -5   0   8   12.02    0.77 
   4   0  -8    1.29    0.19 
  -4   0   8    1.19    0.20 
  -4   0   8    1.62    0.25 
   4   0  -8    1.18    0.19 
  -4   0   8    1.17    0.19 
  -4   0   8    1.39    0.29 
  -4   0   8    1.13    0.23 
   3   0  -8    3.06    0.25 
  -3   0   8    3.24    0.34 
   3   0  -8    3.16    0.30 
  -3   0   8    3.06    0.29 
  -3   0   8    2.93    0.35 
  -3   0   8    3.37    0.31 
  -3   0   8    2.97    0.41 
  -2   0   8   60.19    3.37 
   2   0  -8   62.14    3.37 
  -2   0   8   59.29    3.50 
  -2   0   8   61.20    3.38 
  -2   0   8   57.70    3.41 
   2   0  -8   64.06    3.42 
  -2   0   8   62.12    3.40 
   2   0  -8   60.72    3.55 
   1   0  -8   13.42    1.00 
  -1   0   8   13.68    0.87 
  -1   0   8   14.04    0.87 
   1   0  -8   14.40    0.85 
  -1   0   8   13.77    0.85 
   1   0  -8   14.54    0.82 
   1   0  -8   14.70    0.90 
  -1   0   8   14.11    0.88 
  -1   0   8   14.42    0.85 
   1   0  -8   14.33    0.81 
  -1   0   8   14.62    0.98 
   0   0   8   82.51    4.51 
   0   0  -8   79.29    4.61 
   0   0  -8   83.23    4.52 
   0   0  -8   82.95    4.46 
   0   0  -8   80.33    4.48 
   0   0   8   78.71    4.52 
   0   0   8   80.89    4.48 
   0   0   8   80.94    4.48 
   0   0  -8   81.77    4.46 
   1   0   8   22.94    1.37 
   1   0   8   22.38    1.30 
  -1   0  -8   22.59    1.31 
  -1   0  -8   22.29    1.29 
  -1   0  -8   21.79    1.44 
   1   0   8   22.88    1.31 
  -1   0  -8   22.57    1.35 
   1   0   8   22.74    1.34 
   2   0   8    5.60    0.45 
  -2   0  -8    5.88    0.59 
   2   0   8    5.75    0.47 
  -2   0  -8    5.78    0.50 
   2   0   8    6.22    0.66 
  -2   0  -8    5.77    0.45 
   2   0   8    5.78    0.44 
  -2   0  -8    5.95    0.42 
   3   0   8   62.86    3.52 
  -3   0  -8   67.13    3.52 
   3   0   8   62.62    3.61 
  -3   0  -8   59.10    3.58 
  -3   0  -8   61.80    3.54 
  -3   0  -8   65.17    3.58 
   3   0   8   64.43    3.53 
  -3   0  -8   59.41    3.65 
   3   0   8   64.43    3.57 
  -4   0  -8   12.34    0.78 
   4   0   8   12.32    0.94 
  -4   0  -8   11.74    0.85 
  -4   0  -8   11.97    0.80 
  -4   0  -8   12.40    0.87 
   4   0   8   12.16    0.85 
   4   0   8   12.00    0.79 
   4   0   8   11.05    0.87 
  -5   0  -8    0.12    0.23 
   5   0   8    0.38    0.36 
   5   0   8    0.27    0.20 
  -5   0  -8   -0.06    0.29 
  -5   0  -8    0.26    0.20 
   5   0   8    0.16    0.24 
   5   0   8    0.09    0.24 
   6   0   8   31.86    1.84 
  -6   0  -8   30.73    1.93 
   6   0   8   32.33    1.91 
  -6   0  -8   30.28    1.86 
  -6   0  -8   29.92    1.96 
  -7  -1   8    7.95    0.59 
  -7  -1   8    8.30    0.78 
  -7  -1   8    7.47    0.62 
  -7  -1   8    7.60    0.74 
  -7   1   8    7.06    0.74 
  -7   1   8    7.27    0.73 
  -7   1   8    7.32    0.61 
  -7   1   8    7.02    0.70 
  -6  -1   8   39.00    2.24 
   6  -1  -8   39.10    2.25 
  -6  -1   8   39.23    2.25 
  -6  -1   8   39.38    2.36 
  -6  -1   8   39.02    2.20 
  -6  -1   8   39.80    2.23 
  -6  -1   8   38.67    2.24 
  -6  -1   8   39.19    2.31 
  -6   1   8   38.72    2.36 
  -6   1   8   38.09    2.22 
  -6   1   8   39.42    2.26 
  -6   1   8   40.75    2.26 
  -6   1   8   40.41    2.32 
   6   1  -8   38.73    2.17 
  -6   1   8   38.54    2.30 
   6   1  -8   38.68    2.19 
  -5  -1   8   14.31    0.81 
  -5  -1   8   14.23    0.86 
  -5  -1   8   14.39    0.84 
   5  -1  -8   14.17    0.87 
  -5  -1   8   13.69    0.86 
  -5  -1   8   14.66    0.83 
  -5  -1   8   14.30    0.93 
   5  -1  -8   13.78    0.81 
  -5   1   8   12.60    0.87 
  -5   1   8   12.43    0.90 
  -5   1   8   12.67    0.86 
  -5   1   8   12.80    0.99 
  -5   1   8   12.15    0.92 
   5   1  -8   12.78    0.81 
  -5   1   8   12.45    0.82 
  -4  -1   8   21.56    1.35 
   4  -1  -8   23.49    1.38 
  -4  -1   8   23.93    1.42 
  -4  -1   8   22.88    1.36 
  -4  -1   8   22.66    1.33 
  -4  -1   8   21.71    1.38 
  -4   1   8   23.53    1.52 
  -4   1   8   22.61    1.45 
  -4   1   8   24.41    1.35 
   4   1  -8   24.54    1.35 
  -4   1   8   24.74    1.39 
  -4   1   8   24.12    1.38 
   4   1  -8   24.82    1.33 
  -4   1   8   24.63    1.44 
  -3   1   8    9.11    0.62 
   3   1  -8    9.43    0.59 
  -3   1   8    9.47    0.68 
  -3   1   8    9.22    0.63 
   3   1  -8    9.22    0.56 
  -3   1   8    9.74    0.74 
  -3   1   8    9.34    0.66 
   2  -1  -8    2.46    0.24 
   2  -1  -8    2.51    0.34 
   2  -1  -8    2.43    0.20 
  -2  -1   8    2.61    0.24 
  -2  -1   8    2.44    0.29 
   2  -1  -8    2.54    0.22 
  -2  -1   8    2.59    0.26 
   2  -1  -8    2.39    0.44 
  -2  -1   8    2.60    0.39 
  -2  -1   8    2.53    0.24 
   2   1  -8    1.86    0.43 
  -2   1   8    2.39    0.37 
   2   1  -8    2.31    0.21 
  -2   1   8    2.31    0.30 
   2   1  -8    2.58    0.29 
  -2   1   8    2.24    0.26 
  -2   1   8    2.17    0.29 
  -2   1   8    2.26    0.27 
  -1  -1   8   62.62    3.52 
  -1  -1   8   59.79    3.52 
  -1  -1   8   60.52    3.49 
   1  -1  -8   60.08    3.50 
   1  -1  -8   60.32    3.55 
  -1  -1   8   63.16    3.63 
   1  -1  -8   58.58    3.63 
   1  -1  -8   63.58    3.48 
  -1  -1   8   61.95    3.52 
   1  -1  -8   60.22    3.48 
  -1  -1   8   59.66    3.49 
   1   1  -8   63.79    3.66 
  -1   1   8   68.05    3.54 
  -1   1   8   64.40    3.53 
  -1   1   8   65.32    3.63 
   1   1  -8   64.80    3.45 
   1   1  -8   66.43    3.53 
   1   1  -8   64.51    3.49 
  -1   1   8   64.31    3.51 
   1   1  -8   65.87    3.45 
  -1   1   8   67.33    3.52 
  -1   1   8   64.84    3.54 
   0  -1  -8   15.02    0.96 
   0  -1   8   14.27    0.90 
   0  -1   8   14.23    0.95 
   0  -1  -8   14.86    0.91 
   0  -1  -8   14.80    0.89 
   0  -1   8   14.19    0.90 
   0  -1  -8   14.35    1.04 
   0  -1   8   14.47    0.92 
   0  -1  -8   14.53    0.89 
   0   1  -8   15.56    0.94 
   0   1  -8   15.75    0.88 
   0   1   8   16.26    0.93 
   0   1  -8   16.42    0.88 
   0   1  -8   15.07    1.05 
   0   1   8   15.40    0.96 
   0   1   8   15.61    0.94 
   0   1  -8   15.75    0.91 
   0   1   8   16.36    0.93 
   0   1   8   15.88    0.92 
  -1  -1  -8   24.65    1.66 
  -1  -1  -8   25.14    1.55 
   1  -1   8   25.46    1.54 
   1  -1   8   30.32    1.58 
   1  -1   8   25.42    1.61 
  -1  -1  -8   25.40    1.54 
  -1  -1  -8   24.75    1.59 
   1  -1   8   25.30    1.54 
   1   1   8   29.10    1.62 
  -1   1  -8   27.88    1.59 
  -1   1  -8   26.72    1.69 
   1   1   8   28.62    1.56 
   1   1   8   28.54    1.59 
  -1   1  -8   27.82    1.56 
   1   1   8   27.74    1.55 
  -1   1  -8   29.57    1.53 
  -2  -1  -8  128.03    6.39 
   2  -1   8  123.20    6.39 
  -2  -1  -8  128.24    6.45 
   2  -1   8  124.31    6.47 
  -2  -1  -8  128.37    6.41 
   2  -1   8  118.58    6.41 
  -2  -1  -8  125.16    6.53 
   2  -1   8  125.41    6.39 
   2   1   8  107.32    6.42 
  -2   1  -8  103.49    6.39 
  -2   1  -8  110.82    6.37 
   2   1   8  107.24    6.45 
   2   1   8   98.76    6.39 
   2   1   8  105.85    6.38 
  -2   1  -8  105.50    6.42 
   3  -1   8    8.04    0.55 
  -3  -1  -8    8.07    0.59 
   3  -1   8    8.34    0.69 
   3  -1   8    7.93    0.60 
  -3  -1  -8    7.72    0.58 
  -3  -1  -8    7.75    0.70 
  -3  -1  -8    8.28    0.54 
   3  -1   8    7.95    0.57 
  -3  -1  -8    8.36    0.63 
  -3   1  -8    7.36    0.62 
  -3   1  -8    7.38    0.56 
  -3   1  -8    7.10    0.70 
   3   1   8    7.10    0.54 
  -3   1  -8    7.25    0.57 
   3   1   8    7.65    0.67 
  -3   1  -8    7.42    0.53 
   3   1   8    7.15    0.59 
   3   1   8    7.40    0.57 
   4  -1   8   24.67    1.44 
  -4  -1  -8   25.49    1.51 
   4  -1   8   24.71    1.57 
  -4  -1  -8   26.03    1.43 
  -4  -1  -8   24.90    1.45 
   4  -1   8   24.46    1.49 
   4  -1   8   25.37    1.43 
  -4  -1  -8   24.33    1.47 
   4  -1   8   19.80    1.55 
   4   1   8   24.66    1.43 
   4   1   8   22.71    1.48 
  -4   1  -8   23.43    1.43 
  -4   1  -8   23.03    1.47 
  -4   1  -8   20.84    1.56 
   4   1   8   23.41    1.55 
   4   1   8   24.85    1.45 
   5  -1   8    8.72    0.74 
   5  -1   8    8.47    0.68 
   5  -1   8    7.86    0.62 
   5  -1   8    8.10    0.68 
  -5  -1  -8    8.77    0.74 
   5  -1   8    8.41    0.85 
  -5  -1  -8    8.14    0.65 
  -5  -1  -8    8.59    0.76 
  -6  -1  -8    4.13    0.59 
   6  -1   8    3.39    0.60 
  -6  -1  -8    3.58    0.48 
  -6  -1  -8    3.52    0.57 
   6  -1   8    4.27    0.48 
   6   1   8    3.48    0.47 
   6   1   8    3.79    0.62 
  -6   1  -8    3.49    0.56 
  -6   1  -8    3.87    0.49 
  -6   1  -8    3.50    0.62 
  -7  -2   8   10.16    0.87 
  -7  -2   8    9.57    0.69 
  -7  -2   8    9.87    0.91 
  -7  -2   8    9.88    0.76 
  -7   2   8   10.93    0.87 
  -7   2   8   11.93    0.92 
  -7   2   8   11.21    0.87 
  -6  -2   8    1.85    0.37 
  -6  -2   8    1.94    0.27 
  -6  -2   8    2.02    0.35 
  -6  -2   8    2.15    0.27 
  -6  -2   8    2.14    0.39 
  -6  -2   8    2.14    0.29 
   6  -2  -8    2.12    0.32 
  -6   2   8    2.04    0.32 
  -6   2   8    1.99    0.35 
  -6   2   8    1.94    0.33 
  -6   2   8    1.68    0.35 
  -6   2   8    1.80    0.36 
  -6   2   8    2.07    0.32 
   5  -2  -8   42.13    2.46 
  -5  -2   8   43.11    2.40 
  -5  -2   8   41.85    2.39 
  -5  -2   8   41.04    2.41 
  -5  -2   8   41.14    2.41 
  -5  -2   8   41.71    2.45 
  -5  -2   8   42.43    2.49 
  -5  -2   8   41.98    2.52 
  -5   2   8   44.54    2.47 
   5   2  -8   44.86    2.38 
   5   2  -8   42.06    2.39 
  -5   2   8   43.39    2.51 
  -5   2   8   45.20    2.47 
  -5   2   8   45.02    2.61 
  -5   2   8   45.10    2.51 
  -5   2   8   43.51    2.42 
   4  -2  -8   13.43    0.72 
  -4  -2   8   12.69    0.76 
  -4  -2   8   12.85    0.83 
   4  -2  -8   13.13    0.71 
  -4  -2   8   13.63    0.75 
  -4  -2   8   13.13    0.73 
  -4  -2   8   12.80    0.75 
  -4   2   8   11.65    0.80 
  -4   2   8   11.96    0.92 
   4   2  -8   11.32    0.72 
   4   2  -8   11.54    0.71 
  -4   2   8   11.86    0.85 
  -4   2   8   11.51    0.84 
  -4   2   8   11.82    0.81 
  -4   2   8   11.93    0.76 
   3  -2  -8   34.35    1.92 
  -3  -2   8   35.07    1.94 
   3  -2  -8   34.70    1.98 
   3  -2  -8   35.65    1.92 
  -3  -2   8   33.59    1.99 
  -3  -2   8   34.24    1.95 
  -3  -2   8   34.13    1.93 
  -3   2   8   33.73    2.15 
  -3   2   8   34.15    1.98 
  -3   2   8   34.77    2.06 
  -3   2   8   34.40    1.97 
  -3   2   8   33.66    2.07 
   3   2  -8   35.49    1.92 
   3   2  -8   34.62    1.91 
  -2  -2   8   78.37    4.40 
   2  -2  -8   81.43    4.40 
   2  -2  -8   79.64    4.48 
  -2  -2   8   76.87    4.55 
  -2  -2   8   77.04    4.44 
   2  -2  -8   81.03    4.40 
  -2  -2   8   80.26    4.42 
   2  -2  -8   76.99    4.41 
  -2  -2   8   78.04    4.40 
  -2   2   8   85.37    4.55 
  -2   2   8   79.92    4.45 
  -2   2   8   81.95    4.44 
  -2   2   8   80.86    4.43 
  -2   2   8   80.59    4.45 
   2   2  -8   77.86    4.59 
   2   2  -8   84.32    4.39 
   1  -2  -8    2.86    0.26 
  -1  -2   8    3.03    0.25 
  -1  -2   8    3.13    0.43 
  -1  -2   8    3.00    0.28 
  -1  -2   8    2.83    0.26 
   1  -2  -8    2.75    0.36 
   1  -2  -8    3.25    0.28 
   1  -2  -8    3.11    0.44 
  -1  -2   8    2.87    0.31 
   1  -2  -8    3.00    0.25 
   1   2  -8    2.03    0.43 
   0  -2   8   29.65    2.00 
   0  -2   8   29.52    1.96 
   0  -2   8   29.76    1.96 
   0  -2  -8   31.15    1.97 
   0  -2   8   30.37    1.98 
   0  -2  -8   29.91    1.97 
   0  -2  -8   30.09    1.96 
   0  -2  -8   29.88    2.03 
   0   2  -8   39.26    2.01 
   0   2   8   39.36    2.02 
   0   2  -8   39.66    1.94 
   0   2   8   39.27    2.00 
   0   2  -8   39.10    1.99 
   0   2   8   39.32    2.01 
   0   2   8   39.90    2.00 
   0   2  -8   39.30    2.15 
   0   2   8   40.93    2.05 
   1  -2   8   38.68    2.18 
   1  -2   8   38.72    2.24 
  -2  -2  -8   13.81    0.94 
   2  -2   8   12.55    0.87 
   2  -2   8   13.68    0.90 
  -2  -2  -8   13.38    0.86 
   2  -2   8   13.18    0.96 
  -2  -2  -8   14.08    0.90 
  -2  -2  -8   13.69    1.01 
   2  -2   8   13.88    0.88 
  -2   2  -8   14.87    0.89 
  -2   2  -8   15.36    0.86 
   2   2   8   16.35    0.98 
   2   2   8   15.02    0.93 
  -2   2  -8   14.39    1.05 
   2   2   8   13.70    0.90 
   2   2   8   15.67    0.91 
  -2   2  -8   15.39    0.93 
  -3  -2  -8   52.56    3.00 
   3  -2   8   51.30    2.97 
  -3  -2  -8   51.28    2.89 
  -3  -2  -8   53.79    2.94 
  -3  -2  -8   53.56    2.90 
   3  -2   8   50.95    2.90 
   3  -2   8   50.77    2.86 
   3  -2   8   50.32    2.87 
   3   2   8   51.91    2.88 
  -3   2  -8   49.80    2.91 
   3   2   8   49.90    2.87 
  -3   2  -8   50.09    2.87 
  -3   2  -8   50.47    3.01 
  -3   2  -8   50.10    2.85 
   3   2   8   50.28    2.95 
   3   2   8   49.69    2.91 
  -3   2  -8   48.55    2.89 
   4  -2   8   21.50    1.34 
  -4  -2  -8   21.84    1.42 
   4  -2   8   22.62    1.50 
   4  -2   8   21.29    1.36 
   4  -2   8   21.48    1.39 
  -4  -2  -8   21.58    1.37 
  -4  -2  -8   23.16    1.35 
  -4  -2  -8   21.99    1.41 
   4  -2   8   21.41    1.40 
   4   2   8   24.60    1.39 
   4   2   8   24.10    1.49 
  -4   2  -8   23.62    1.44 
  -4   2  -8   23.93    1.40 
   4   2   8   24.02    1.36 
  -4   2  -8   22.92    1.36 
   4   2   8   22.26    1.41 
  -5  -2  -8    0.73    0.26 
   5  -2   8    0.57    0.29 
  -5  -2  -8    0.97    0.34 
  -5  -2  -8    0.97    0.24 
   5  -2   8    0.75    0.21 
   5  -2   8    0.77    0.39 
   5  -2   8    0.82    0.28 
   5   2   8    0.69    0.23 
  -5   2  -8    0.68    0.23 
  -5   2  -8    0.54    0.30 
  -5   2  -8    0.83    0.31 
   5   2   8    0.54    0.28 
   6  -2   8   11.29    0.91 
  -6  -2  -8   11.29    0.93 
  -6  -2  -8   11.64    1.16 
   6  -2   8   11.63    0.99 
  -6  -2  -8   11.85    1.01 
   6   2   8   16.64    0.96 
  -6   2  -8   16.22    0.97 
  -6   2  -8   16.32    1.09 
   6   2   8   16.02    1.05 
  -7  -3   8   11.29    0.87 
  -7  -3   8   11.13    0.94 
  -7   3   8    8.89    0.85 
  -7   3   8    9.21    0.84 
  -7   3   8    9.25    0.88 
  -6  -3   8   31.46    1.87 
  -6  -3   8   31.43    1.76 
  -6  -3   8   31.01    1.78 
  -6  -3   8   31.87    1.84 
  -6  -3   8   32.20    1.93 
  -6   3   8   30.26    1.80 
  -6   3   8   30.88    1.89 
  -6   3   8   30.04    1.91 
  -6   3   8   30.43    1.87 
  -6   3   8   30.89    1.86 
  -5  -3   8    0.30    0.12 
  -5  -3   8    0.58    0.25 
  -5  -3   8    0.29    0.26 
   5  -3  -8    0.50    0.24 
   5  -3  -8    0.10    0.15 
   5  -3  -8    0.26    0.14 
  -5  -3   8    0.24    0.15 
  -5  -3   8    0.28    0.21 
   5  -3  -8    0.32    0.12 
   5  -3  -8    0.07    0.13 
  -5  -3   8    0.20    0.23 
  -5   3   8    0.07    0.21 
  -5   3   8    0.10    0.19 
  -5   3   8    0.09    0.23 
  -5   3   8    0.17    0.22 
  -5   3   8   -0.09    0.13 
  -5   3   8    0.19    0.29 
  -4  -3   8   51.49    3.05 
  -4  -3   8   53.38    3.13 
  -4  -3   8   51.57    3.23 
   4  -3  -8   52.98    3.13 
  -4  -3   8   53.64    3.04 
   4  -3  -8   53.11    3.06 
  -4  -3   8   53.40    3.13 
   4  -3  -8   54.42    3.05 
  -4   3   8   56.65    3.19 
  -4   3   8   60.77    3.15 
  -4   3   8   56.64    3.14 
  -4   3   8   56.32    3.16 
  -4   3   8   62.23    3.25 
  -4   3   8   58.88    3.09 
  -3  -3   8   53.44    3.16 
  -3  -3   8   54.43    3.10 
  -3  -3   8   53.89    3.26 
   3  -3  -8   53.06    3.12 
  -3  -3   8   54.24    3.09 
   3  -3  -8   54.55    3.10 
   3  -3  -8   53.58    3.16 
   3  -3  -8   54.74    3.11 
  -3  -3   8   53.08    3.10 
  -3   3   8   58.50    3.16 
  -3   3   8   58.28    3.22 
  -3   3   8   61.41    3.26 
   3   3  -8   61.32    3.08 
  -3   3   8   57.62    3.18 
  -3   3   8   60.13    3.18 
   2  -3  -8    3.50    0.32 
   2  -3  -8    3.35    0.44 
  -2  -3   8    3.59    0.42 
   2  -3  -8    3.34    0.30 
  -2  -3   8    3.34    0.27 
  -2  -3   8    3.40    0.27 
   2  -3  -8    3.27    0.29 
  -2  -3   8    3.18    0.30 
  -2  -3   8    3.38    0.34 
   2  -3  -8    3.32    0.38 
  -2   3   8    3.92    0.44 
  -2   3   8    4.22    0.38 
  -2   3   8    3.90    0.39 
   2   3  -8    3.70    0.26 
  -2   3   8    3.91    0.35 
   2   3  -8    3.82    0.30 
  -2   3   8    3.66    0.37 
   2   3  -8    3.35    0.52 
  -1  -3   8  120.18    6.45 
   1  -3  -8  126.88    6.47 
   1  -3  -8  121.49    6.48 
  -1  -3   8  123.40    6.45 
  -1  -3   8  119.50    6.49 
  -1  -3   8  124.73    6.48 
   1  -3  -8  121.26    6.46 
   1  -3  -8  120.32    6.61 
  -1  -3   8  120.78    6.61 
   1  -3  -8  119.63    6.55 
  -1   3   8  110.83    6.48 
   1   3  -8  109.61    6.45 
   1   3  -8  115.93    6.47 
   1   3  -8  114.81    6.63 
  -1   3   8  111.11    6.49 
  -1   3   8  115.26    6.52 
  -1   3   8  114.02    6.52 
  -1   3   8  110.63    6.49 
   0  -3  -8    7.45    0.65 
   0  -3  -8    7.98    0.62 
   0  -3  -8    8.02    0.53 
   0  -3   8    7.60    0.50 
   0  -3   8    7.73    0.53 
   0  -3   8    7.68    0.57 
   0  -3   8    7.74    0.50 
   0  -3  -8    7.74    0.53 
   0  -3  -8    7.97    0.51 
  -1   3  -8    3.41    0.47 
   1   3   8    2.94    0.35 
  -1   3  -8    3.30    0.25 
   1   3   8    3.24    0.37 
   1   3   8    2.52    0.31 
  -1   3  -8    3.11    0.35 
   1   3   8    2.97    0.31 
  -2  -3  -8   30.68    1.97 
   2  -3   8   29.84    1.85 
   2  -3   8   30.23    1.87 
   2  -3   8   30.59    1.94 
  -2  -3  -8   31.76    1.86 
  -2  -3  -8   31.95    1.93 
  -2  -3  -8   32.22    1.88 
   2  -3   8   29.96    1.86 
  -2   3  -8   34.50    1.84 
   2   3   8   35.69    1.89 
   2   3   8   34.36    1.94 
  -2   3  -8   34.54    1.88 
  -2   3  -8   34.45    1.91 
  -2   3  -8   33.55    2.02 
   2   3   8   33.86    1.87 
  -3  -3  -8   10.42    0.89 
  -3  -3  -8   11.53    0.80 
  -3  -3  -8   11.05    0.79 
   3  -3   8   11.10    0.76 
   3  -3   8   10.67    0.91 
  -3  -3  -8   10.95    0.84 
   3  -3   8   11.05    0.76 
   3  -3   8   10.67    0.79 
  -3   3  -8   12.71    0.75 
   3   3   8   12.91    0.88 
  -3   3  -8   12.75    0.84 
  -3   3  -8   12.51    0.95 
   3   3   8   12.75    0.78 
   3   3   8   12.72    0.81 
  -3   3  -8   12.74    0.79 
   4  -3   8   12.59    0.85 
  -4  -3  -8   12.41    0.84 
   4  -3   8   11.96    0.91 
  -4  -3  -8   12.03    0.87 
   4  -3   8   12.56    1.02 
   4  -3   8   11.77    0.88 
  -4  -3  -8   11.87    0.91 
  -4  -3  -8   12.92    0.94 
   4  -3   8   12.40    0.87 
  -4   3  -8   14.56    0.92 
   4   3   8   14.32    1.00 
  -4   3  -8   14.34    0.96 
  -4   3  -8   14.42    0.86 
   4   3   8   14.06    0.91 
   4   3   8   14.18    0.86 
   4   3   8   13.72    0.95 
   5  -3   8   25.46    1.74 
   5  -3   8   27.43    1.57 
  -5  -3  -8   26.95    1.57 
   5  -3   8   27.75    1.55 
   5  -3   8   27.09    1.63 
  -5  -3  -8   27.66    1.63 
  -5  -3  -8   28.11    1.64 
   5   3   8   22.35    1.54 
  -5   3  -8   23.61    1.68 
   5   3   8   24.74    1.54 
  -5   3  -8   24.91    1.63 
  -5   3  -8   23.64    1.53 
   5   3   8   24.20    1.57 
   6  -3   8    4.57    0.49 
   6  -3   8    4.72    0.64 
  -6  -3  -8    4.28    0.57 
  -6  -3  -8    4.66    0.52 
  -6  -3  -8    4.40    0.68 
   6   3   8    3.95    0.51 
   6   3   8    4.11    0.74 
  -6   3  -8    3.83    0.53 
  -6   3  -8    4.45    0.71 
   6   3   8    4.07    0.53 
  -7  -4   8   18.83    1.25 
  -7  -4   8   17.70    1.33 
  -7   4   8   17.52    1.26 
  -7   4   8   17.53    1.28 
  -7   4   8   18.45    1.32 
   6  -4  -8    0.21    0.20 
  -6  -4   8    0.23    0.28 
  -6  -4   8    0.17    0.19 
   6  -4  -8    0.26    0.18 
  -6  -4   8    0.12    0.29 
  -6  -4   8    0.16    0.30 
   6  -4  -8    0.23    0.30 
  -6  -4   8    0.27    0.15 
  -6   4   8    1.00    0.31 
  -6   4   8    0.40    0.26 
  -6   4   8    0.92    0.35 
  -6   4   8    0.76    0.31 
  -5  -4   8   76.77    4.20 
  -5  -4   8   79.02    4.30 
   5  -4  -8   76.73    4.21 
   5  -4  -8   76.88    4.22 
   5  -4  -8   76.26    4.30 
  -5  -4   8   77.08    4.19 
  -5  -4   8   75.69    4.33 
  -5  -4   8   74.28    4.29 
  -5   4   8   75.88    4.31 
  -5   4   8   77.16    4.33 
  -5   4   8   76.12    4.29 
  -5   4   8   75.75    4.20 
  -5   4   8   75.32    4.25 
  -5   4   8   74.68    4.36 
  -5   4   8   78.17    4.42 
  -4  -4   8    5.42    0.54 
   4  -4  -8    4.82    0.39 
   4  -4  -8    4.79    0.41 
   4  -4  -8    4.48    0.37 
  -4  -4   8    4.50    0.33 
  -4  -4   8    4.61    0.31 
   4  -4  -8    4.73    0.37 
  -4  -4   8    4.48    0.46 
  -4  -4   8    4.68    0.50 
  -4  -4   8    4.58    0.47 
   4  -4  -8    4.75    0.52 
  -3  -4   8   11.27    0.83 
   3  -4  -8   10.80    0.68 
  -3  -4   8    9.79    0.76 
  -3  -4   8   10.97    0.63 
   3  -4  -8   11.32    0.66 
   3  -4  -8   11.55    0.76 
   3  -4  -8   11.47    0.69 
  -3   4   8   10.31    0.75 
  -3   4   8   10.81    0.81 
  -3   4   8    9.37    0.78 
  -3   4   8    9.93    0.75 
  -3   4   8   10.15    0.73 
  -2  -4   8   66.29    3.59 
   2  -4  -8   65.87    3.62 
   2  -4  -8   60.59    3.63 
  -2  -4   8   65.27    3.65 
  -2  -4   8   66.55    3.78 
  -2  -4   8   65.37    3.59 
   2  -4  -8   65.79    3.67 
   2  -4  -8   62.18    3.72 
  -2  -4   8   66.40    3.61 
   2  -4  -8   66.13    3.63 
  -2   4   8   65.23    3.67 
  -2   4   8   61.81    3.71 
   2   4  -8   67.94    3.61 
   2   4  -8   65.08    3.58 
  -2   4   8   65.50    3.68 
  -2   4   8   69.91    3.75 
  -2   4   8   65.47    3.67 
  -1  -4   8    2.93    0.32 
  -1  -4   8    2.56    0.30 
   1  -4  -8    2.48    0.28 
   1  -4  -8    2.79    0.44 
   1  -4  -8    2.24    0.43 
   1  -4  -8    3.02    0.27 
   1  -4  -8    2.68    0.31 
  -1  -4   8    2.62    0.25 
  -1  -4   8    2.78    0.26 
  -1   4   8    3.20    0.33 
   1   4  -8    3.51    0.25 
  -1   4   8    3.71    0.37 
   1   4  -8    3.64    0.50 
  -1   4   8    3.48    0.37 
  -1   4   8    3.61    0.35 
   0  -4  -8   31.69    1.93 
   0  -4  -8   31.19    1.84 
   0  -4   8   31.27    1.84 
   0  -4  -8   30.30    1.85 
   0  -4   8   30.35    1.88 
   0  -4  -8   32.14    1.85 
   0  -4  -8   30.72    1.96 
   0  -4   8   30.08    1.82 
   0   4  -8   35.09    1.86 
   0   4  -8   33.66    1.84 
   0   4   8   33.83    1.87 
   0   4  -8   36.14    2.03 
   0   4   8   33.60    1.91 
   0   4   8   34.47    1.89 
   1  -4   8   63.35    3.76 
  -1  -4  -8   63.86    3.79 
   1  -4   8   62.91    3.76 
  -1  -4  -8   62.63    3.77 
   1  -4   8   63.47    3.83 
  -1  -4  -8   67.54    3.86 
  -1  -4  -8   62.33    3.87 
   1  -4   8   62.94    3.78 
  -1   4  -8   75.90    3.81 
   1   4   8   75.23    3.78 
   1   4   8   74.62    3.81 
  -1   4  -8   73.54    3.73 
   1   4   8   78.32    3.86 
  -1   4  -8   60.01    4.17 
   1   4   8   72.34    3.80 
   2  -4   8   12.96    0.95 
  -2  -4  -8   13.00    0.98 
  -2  -4  -8   13.11    0.95 
   2  -4   8   12.83    0.87 
  -2  -4  -8   13.51    0.90 
   2  -4   8   13.00    0.85 
   2   4   8   14.80    0.91 
  -2   4  -8   14.43    0.83 
  -2   4  -8   14.63    0.87 
  -2   4  -8   13.90    1.03 
   2   4   8   14.47    0.85 
  -2   4  -8   14.50    0.92 
   2   4   8   14.43    0.88 
   3  -4   8   34.05    2.16 
  -3  -4  -8   35.88    2.09 
   3  -4   8   35.04    2.08 
  -3  -4  -8   36.67    2.15 
  -3  -4  -8   35.71    2.06 
  -3  -4  -8   37.12    2.10 
  -3  -4  -8   34.44    2.18 
   3  -4   8   35.78    2.06 
   3  -4   8   35.24    2.05 
   3   4   8   35.75    2.07 
  -3   4  -8   35.96    2.08 
  -3   4  -8   36.33    2.04 
   3   4   8   36.78    2.16 
  -3   4  -8   35.81    2.22 
   3   4   8   36.92    2.09 
  -3   4  -8   37.11    2.12 
   4  -4   8   37.31    2.23 
  -4  -4  -8   39.84    2.28 
   4  -4   8   39.42    2.19 
  -4  -4  -8   38.82    2.22 
  -4  -4  -8   41.43    2.26 
   4  -4   8   38.99    2.34 
   4  -4   8   39.91    2.20 
   4   4   8   36.86    2.29 
  -4   4  -8   35.97    2.22 
   4   4   8   37.57    2.22 
   4   4   8   36.34    2.19 
  -4   4  -8   36.79    2.26 
  -4   4  -8   35.81    2.18 
   5  -4   8    1.67    0.27 
  -5  -4  -8    2.10    0.40 
  -5  -4  -8    2.10    0.39 
   5  -4   8    1.98    0.54 
   5  -4   8    2.23    0.40 
  -5  -4  -8    1.93    0.40 
   5  -4   8    1.72    0.31 
   5   4   8    1.68    0.29 
   5   4   8    1.54    0.33 
  -5   4  -8    1.60    0.37 
   5   4   8    1.61    0.35 
  -5   4  -8    1.65    0.29 
   6   4   8    2.47    0.52 
   6   4   8    1.90    0.36 
  -6   4  -8    2.29    0.37 
  -6   4  -8    2.64    0.49 
  -7  -5   8    9.52    0.93 
  -7  -5   8    9.54    1.03 
  -7   5   8   13.98    1.34 
  -7   5   8   12.44    1.02 
  -6  -5   8   32.04    1.83 
   6  -5  -8   32.61    1.87 
  -6  -5   8   32.02    1.95 
  -6  -5   8   32.52    2.02 
   6  -5  -8   33.19    1.86 
  -6  -5   8   32.33    1.97 
  -6   5   8   33.25    2.05 
  -6   5   8   31.53    1.98 
  -6   5   8   32.53    2.01 
  -5  -5   8    2.95    0.50 
   5  -5  -8    3.08    0.35 
  -5  -5   8    2.75    0.50 
   5  -5  -8    2.91    0.38 
   5  -5  -8    3.46    0.45 
  -5  -5   8    2.81    0.26 
  -5  -5   8    2.94    0.46 
  -5  -5   8    2.92    0.23 
  -5   5   8    2.31    0.28 
  -5   5   8    2.76    0.41 
  -5   5   8    2.72    0.45 
  -5   5   8    2.80    0.59 
  -5   5   8    2.46    0.41 
  -5   5   8    2.31    0.49 
  -4  -5   8   18.73    1.21 
  -4  -5   8   18.67    1.21 
  -4  -5   8   18.42    1.05 
   4  -5  -8   19.02    1.23 
  -4  -5   8   18.81    1.17 
   4  -5  -8   18.98    1.12 
  -4  -5   8   18.33    1.06 
   4  -5  -8   18.92    1.14 
  -4  -5   8   19.50    1.30 
   4  -5  -8   18.53    1.14 
   4  -5  -8   18.53    1.13 
  -4   5   8   18.35    1.13 
  -4   5   8   19.21    1.20 
  -4   5   8   18.99    1.22 
  -4   5   8   19.35    1.13 
  -4   5   8   18.68    1.22 
  -4   5   8   19.85    1.29 
  -4   5   8   18.79    1.27 
   3  -5  -8   35.10    2.11 
   3  -5  -8   35.67    2.11 
   3  -5  -8   35.23    2.16 
   3  -5  -8   36.04    2.09 
  -3  -5   8   35.54    2.24 
  -3  -5   8   35.21    2.16 
  -3  -5   8   31.63    2.16 
  -3  -5   8   35.95    2.05 
  -3   5   8   39.79    2.17 
  -3   5   8   42.61    2.24 
  -3   5   8   40.32    2.18 
  -3   5   8   39.21    2.15 
  -3   5   8   39.54    2.24 
   2  -5  -8    1.87    0.25 
  -2  -5   8    1.92    0.20 
   2  -5  -8    1.95    0.31 
   2  -5  -8    1.91    0.30 
  -2  -5   8    2.09    0.34 
  -2  -5   8    2.40    0.19 
  -2  -5   8    2.27    0.39 
   2  -5  -8    1.89    0.25 
  -2  -5   8    1.97    0.22 
   2   5  -8    1.88    0.20 
  -2   5   8    1.31    0.28 
  -2   5   8    1.67    0.28 
  -2   5   8    1.67    0.38 
  -2   5   8    1.64    0.25 
   1  -5  -8   95.80    5.42 
  -1  -5   8   99.10    5.32 
   1  -5  -8   92.96    5.33 
   1  -5  -8   96.06    5.33 
  -1  -5   8   94.24    5.29 
   1  -5  -8   92.74    5.32 
  -1  -5   8   92.85    5.32 
  -1  -5   8   83.66    5.30 
   1  -5  -8   92.97    5.44 
  -1   5   8   96.49    5.38 
  -1   5   8  101.37    5.38 
  -1   5   8   99.51    5.36 
  -1   5   8  101.56    5.36 
   1   5  -8  104.63    5.31 
   1   5  -8   99.55    5.29 
  -1   5   8  101.65    5.38 
   0  -5   8   24.00    1.52 
   0  -5   8   23.75    1.47 
   0  -5  -8   24.24    1.48 
   0  -5   8   23.95    1.46 
   0  -5   8   25.35    1.48 
   0  -5  -8   24.04    1.59 
   0  -5  -8   24.45    1.51 
   0  -5  -8   24.14    1.60 
   0   5  -8   28.75    1.51 
   0   5   8   27.14    1.52 
   0   5   8   27.28    1.53 
   0   5   8   27.92    1.58 
   0   5   8   27.10    1.55 
   0   5   8   28.52    1.60 
   0   5  -8   27.09    1.48 
   1  -5   8    7.92    0.54 
   1  -5   8    7.90    0.54 
  -1  -5  -8    7.74    0.67 
  -1  -5  -8    8.01    0.58 
   1  -5   8    8.20    0.53 
   1  -5   8    7.59    0.63 
  -1  -5  -8    8.16    0.68 
  -1  -5  -8    8.30    0.56 
  -1   5  -8    8.09    0.58 
   1   5   8    8.11    0.57 
  -1   5  -8    7.70    0.72 
   1   5   8    7.76    0.59 
   1   5   8    8.22    0.62 
   1   5   8    7.52    0.63 
   2  -5   8   22.66    1.40 
  -2  -5  -8   23.79    1.45 
   2  -5   8   21.85    1.50 
  -2  -5  -8   23.92    1.52 
  -2  -5  -8   22.80    1.51 
  -2  -5  -8   22.30    1.40 
   2  -5   8   22.85    1.40 
   2   5   8   25.64    1.41 
  -2   5  -8   24.27    1.37 
   2   5   8   25.31    1.50 
  -2   5  -8   24.90    1.59 
  -2   5  -8   25.85    1.47 
   2   5   8   25.60    1.47 
   2   5   8   25.61    1.44 
   3  -5   8   25.47    1.65 
   3  -5   8   24.65    1.52 
  -3  -5  -8   25.75    1.53 
  -3  -5  -8   26.70    1.57 
  -3  -5  -8   25.97    1.62 
  -3  -5  -8   23.17    1.73 
   3  -5   8   24.73    1.52 
   3  -5   8   24.94    1.54 
   3   5   8   27.32    1.63 
   3   5   8   27.10    1.50 
  -3   5  -8   26.27    1.50 
  -3   5  -8   28.01    1.72 
  -3   5  -8   27.32    1.60 
   3   5   8   27.62    1.58 
  -3   5  -8   25.53    1.55 
   3   5   8   25.43    1.59 
   3   5   8   25.15    1.54 
   4  -5   8   14.03    0.88 
   4  -5   8   14.92    0.94 
   4  -5   8   14.74    0.88 
  -4  -5  -8   14.94    0.97 
   4  -5   8   14.37    1.07 
  -4  -5  -8   14.47    0.92 
  -4  -5  -8   14.61    0.98 
  -4   5  -8   10.56    1.04 
  -4   5  -8   10.86    0.96 
   4   5   8   11.13    0.94 
  -4   5  -8   10.88    0.85 
   5  -5   8   23.35    1.56 
   5  -5   8   24.26    1.76 
  -5  -5  -8   23.72    1.52 
  -5  -5  -8   24.59    1.59 
   5  -5   8   24.44    1.49 
  -5  -5  -8   24.40    1.60 
   5  -5   8   23.45    1.51 
   5   5   8   25.10    1.51 
   5   5   8   25.54    1.50 
   5   5   8   25.79    1.57 
  -5   5  -8   25.37    1.49 
  -5   5  -8   25.32    1.63 
   6  -5   8    0.12    0.35 
  -6  -5  -8    0.22    0.39 
   6   5   8    0.70    0.34 
  -6   5  -8    1.17    0.48 
  -6   5  -8    0.81    0.31 
  -6  -6   8    3.24    0.54 
  -6  -6   8    3.39    0.58 
   6  -6  -8    3.60    0.51 
  -6  -6   8    3.57    0.52 
  -6   6   8    4.74    0.61 
  -6   6   8    4.62    0.63 
  -5  -6   8   42.04    2.64 
  -5  -6   8   43.00    2.63 
   5  -6  -8   41.91    2.65 
  -5  -6   8   42.68    2.59 
   5  -6  -8   42.42    2.56 
  -5   6   8   47.93    2.63 
  -5   6   8   46.69    2.72 
  -5   6   8   47.53    2.65 
  -5   6   8   46.05    2.84 
  -5   6   8   47.04    2.67 
  -5   6   8   47.26    2.50 
  -4  -6   8    1.26    0.35 
   4  -6  -8    1.52    0.26 
  -4  -6   8    1.60    0.34 
   4  -6  -8    1.32    0.22 
  -4  -6   8    1.53    0.30 
  -4  -6   8    1.67    0.28 
   4  -6  -8    1.78    0.36 
   4  -6  -8    1.51    0.28 
  -4   6   8    0.84    0.33 
  -3  -6   8    1.05    0.22 
  -3  -6   8    1.20    0.17 
   3  -6  -8    0.95    0.19 
   3  -6  -8    1.09    0.20 
   3  -6  -8    1.01    0.22 
  -3  -6   8    1.54    0.30 
  -3  -6   8    1.22    0.25 
  -3  -6   8    1.38    0.34 
   3  -6  -8    1.24    0.33 
   2  -6  -8   64.21    3.76 
  -2  -6   8   67.53    3.90 
   2  -6  -8   68.87    3.77 
   2  -6  -8   65.84    3.81 
  -2  -6   8   65.43    3.70 
  -2   6   8   68.07    3.80 
  -2   6   8   67.67    3.88 
  -2   6   8   69.04    3.80 
  -2   6   8   70.68    3.83 
  -1  -6   8    5.17    0.40 
   1  -6  -8    4.79    0.46 
   1  -6  -8    4.95    0.55 
   1  -6  -8    5.22    0.47 
  -1  -6   8    5.33    0.39 
  -1  -6   8    5.55    0.42 
   1  -6  -8    5.60    0.60 
   1   6  -8    6.74    0.39 
  -1   6   8    6.81    0.52 
  -1   6   8    6.40    0.53 
  -1   6   8    6.92    0.58 
   1   6  -8    6.28    0.68 
  -1   6   8    7.25    0.52 
   0  -6   8   62.76    3.46 
   0  -6  -8   61.32    3.58 
   0  -6   8   63.88    3.40 
   0  -6   8   61.82    3.40 
   0  -6  -8   62.52    3.53 
   0  -6   8   62.56    3.40 
   0  -6  -8   63.14    3.44 
   0  -6  -8   65.42    3.44 
   0   6   8   59.25    3.47 
   0   6   8   60.81    3.50 
   0   6  -8   52.87    3.44 
   0   6  -8   60.05    3.59 
   0   6   8   60.51    3.46 
   0   6   8   62.73    3.44 
  -1  -6  -8   34.21    2.24 
   1  -6   8   35.05    2.14 
  -1  -6  -8   36.53    2.18 
  -1  -6  -8   34.85    2.15 
  -1  -6  -8   35.63    2.26 
  -1  -6  -8   35.37    2.16 
   1  -6   8   35.88    2.13 
   1  -6   8   34.99    2.21 
   1  -6   8   35.30    2.14 
   1   6   8   41.79    2.25 
   1   6   8   42.43    2.23 
   1   6   8   42.57    2.17 
  -1   6  -8   41.64    2.19 
   1   6   8   41.56    2.19 
  -1   6  -8   40.31    2.33 
   1   6   8   38.86    2.21 
   2  -6   8    4.15    0.39 
  -2  -6  -8    3.82    0.35 
  -2  -6  -8    3.95    0.52 
  -2  -6  -8    4.06    0.46 
   2  -6   8    4.38    0.54 
  -2  -6  -8    4.17    0.52 
   2  -6   8    3.78    0.36 
   2  -6   8    4.22    0.38 
   2   6   8    3.73    0.45 
  -2   6  -8    3.91    0.46 
   2   6   8    4.48    0.50 
  -2   6  -8    3.81    0.30 
   2   6   8    3.77    0.39 
  -2   6  -8    3.59    0.57 
   2   6   8    3.34    0.41 
   2   6   8    3.61    0.43 
   3  -6   8   27.10    1.57 
   3  -6   8   26.73    1.41 
  -3  -6  -8   27.29    1.47 
  -3  -6  -8   21.12    1.81 
   3  -6   8   26.75    1.40 
   3  -6   8   26.56    1.40 
  -3   6  -8   20.47    1.55 
  -3   6  -8   20.53    1.45 
  -3   6  -8   21.25    1.35 
   3   6   8   21.03    1.35 
   3   6   8   21.46    1.44 
   3   6   8   20.59    1.70 
   3   6   8   20.85    1.40 
  -4  -6  -8   10.42    0.80 
  -4  -6  -8    9.51    0.71 
   4  -6   8    9.49    0.67 
   4  -6   8    9.69    0.97 
   4  -6   8    9.51    0.65 
  -4  -6  -8    9.95    0.85 
  -4  -6  -8   10.45    0.82 
   4  -6   8    9.91    0.73 
   4   6   8    7.17    0.77 
  -4   6  -8    7.35    0.80 
   4   6   8    7.24    0.64 
  -4   6  -8    7.39    0.85 
   4   6   8    7.13    0.61 
   4   6   8    6.85    0.68 
  -5  -6  -8    0.51    0.32 
   5  -6   8    0.49    0.23 
  -5  -6  -8    0.54    0.26 
   5  -6   8    0.25    0.60 
   5  -6   8    0.35    0.26 
   5   6   8    0.63    0.40 
   5   6   8    0.42    0.30 
  -5   6  -8    0.50    0.42 
  -5   6  -8    0.45    0.27 
   5   6   8    0.54    0.23 
  -5   6  -8    0.71    0.41 
   6  -7  -8   15.67    1.05 
  -6  -7   8   15.07    1.09 
  -6  -7   8   16.06    1.18 
  -6   7   8   14.55    1.24 
  -6   7   8   14.12    1.14 
  -5  -7   8    0.63    0.31 
  -5  -7   8    0.80    0.34 
   5  -7  -8    0.29    0.23 
   5  -7  -8    0.78    0.42 
   5  -7  -8    0.67    0.28 
  -5   7   8    0.43    0.26 
  -5   7   8    0.34    0.32 
  -5   7   8    0.22    0.36 
  -5   7   8    0.36    0.31 
   4  -7  -8   40.78    2.44 
   4  -7  -8   41.26    2.35 
   4  -7  -8   38.80    2.31 
  -4  -7   8   38.23    2.49 
  -4  -7   8   40.52    2.37 
  -4  -7   8   40.57    2.34 
  -4   7   8   42.05    2.50 
  -4   7   8   41.87    2.44 
  -4   7   8   40.93    2.40 
  -4   7   8   40.41    2.43 
  -4   7   8   41.28    2.39 
  -4   7   8   41.23    2.32 
   3  -7  -8   32.17    1.90 
   3  -7  -8   31.73    1.87 
  -3  -7   8   32.43    1.90 
   3  -7  -8   31.88    1.90 
   3  -7  -8   33.57    1.99 
  -3  -7   8   31.66    1.97 
  -3  -7   8   32.59    1.90 
   3  -7  -8   31.85    1.88 
  -3  -7   8   32.85    1.81 
  -3  -7   8   31.73    2.04 
  -3   7   8   33.45    1.94 
  -3   7   8   35.64    2.00 
  -3   7   8   32.64    1.95 
  -3   7   8   32.85    1.98 
  -3   7   8   32.20    2.04 
  -3   7   8   32.86    1.91 
   2  -7  -8    8.21    0.60 
   2  -7  -8    7.93    0.59 
  -2  -7   8    7.53    0.64 
  -2  -7   8    8.23    0.74 
  -2  -7   8    8.05    0.58 
   2  -7  -8    7.83    0.70 
   2  -7  -8    8.22    0.56 
  -2  -7   8    8.14    0.50 
  -2   7   8    7.73    0.61 
  -2   7   8    8.06    0.64 
  -2   7   8    7.64    0.68 
  -2   7   8    7.57    0.63 
  -2   7   8    7.28    0.64 
  -2   7   8    8.25    0.76 
   1  -7  -8   22.36    1.32 
  -1  -7   8   21.91    1.26 
  -1  -7   8   20.73    1.28 
   1  -7  -8   22.04    1.32 
  -1  -7   8   21.93    1.24 
   1  -7  -8   20.88    1.45 
   1  -7  -8   22.13    1.39 
  -1  -7   8   22.46    1.26 
   1  -7  -8   21.86    1.29 
  -1   7   8   21.65    1.33 
   1   7  -8   22.86    1.26 
  -1   7   8   22.51    1.34 
   1   7  -8   20.45    1.48 
  -1   7   8   22.20    1.37 
  -1   7   8   21.85    1.34 
  -1   7   8   21.96    1.38 
  -1   7   8   21.84    1.44 
   0  -7   8   25.77    1.43 
   0  -7   8   25.25    1.44 
   0  -7  -8   24.88    1.60 
   0  -7  -8   24.46    1.46 
   0  -7  -8   25.10    1.49 
   0  -7  -8   25.48    1.48 
   0  -7   8   24.67    1.50 
   0  -7  -8   24.43    1.56 
   0  -7   8   24.41    1.42 
   0   7  -8   24.12    1.65 
   0   7   8   25.87    1.55 
   0   7   8   24.43    1.48 
   0   7   8   25.67    1.52 
   0   7   8   25.34    1.51 
   0   7   8   25.18    1.55 
   0   7  -8   25.05    1.44 
   1  -7   8    1.42    0.31 
  -1  -7  -8    1.51    0.34 
  -1  -7  -8    1.49    0.25 
   1  -7   8    1.13    0.19 
  -1  -7  -8    1.62    0.25 
  -1  -7  -8    1.34    0.35 
  -1  -7  -8    1.34    0.27 
   1  -7   8    1.44    0.26 
  -1   7  -8    1.67    0.26 
   1   7   8    1.76    0.32 
  -1   7  -8    1.90    0.34 
   1   7   8    1.96    0.28 
  -1   7  -8    1.99    0.51 
   1   7   8    1.92    0.27 
   1   7   8    1.80    0.38 
   1   7   8    2.05    0.31 
   2  -7   8   39.59    2.25 
   2  -7   8   40.07    2.25 
   2  -7   8   40.16    2.38 
  -2  -7  -8   41.52    2.31 
  -2  -7  -8   40.39    2.39 
  -2  -7  -8   39.54    2.36 
   2  -7   8   39.33    2.23 
   2   7   8   38.76    2.52 
  -2   7  -8   36.83    2.42 
   2   7   8   40.31    2.30 
   2   7   8   39.15    2.24 
   2   7   8   38.38    2.35 
  -2   7  -8   39.43    2.31 
   2   7   8   40.77    2.33 
  -3  -7  -8    5.76    0.61 
   3  -7   8    4.90    0.47 
  -3  -7  -8    5.03    0.61 
  -3  -7  -8    5.42    0.64 
   3  -7   8    5.24    0.45 
   3  -7   8    4.91    0.47 
   3  -7   8    4.96    0.75 
  -3   7  -8    4.43    0.68 
   3   7   8    4.31    0.63 
   3   7   8    4.22    0.51 
   3   7   8    4.56    0.44 
  -3   7  -8    4.81    0.42 
  -3   7  -8    4.69    0.62 
   4  -7   8    9.51    1.08 
   4  -7   8   10.50    0.74 
   4  -7   8   10.16    0.73 
  -4  -7  -8    9.83    0.87 
  -4  -7  -8   10.20    0.92 
  -4  -7  -8    9.83    0.90 
  -4   7  -8    9.43    0.97 
   4   7   8    9.86    0.68 
  -4   7  -8   10.30    0.92 
   4   7   8    9.39    0.77 
   4   7   8    9.76    0.89 
   5  -7   8    2.43    0.36 
  -5  -7  -8    3.02    0.49 
  -5  -7  -8    2.55    0.40 
   5  -7   8    3.09    0.51 
  -5   7  -8    2.61    0.58 
   5   7   8    2.63    0.41 
   5   7   8    2.77    0.52 
  -5   7  -8    2.59    0.55 
  -5  -8   8   33.46    2.04 
   5  -8  -8   33.31    2.14 
   5  -8  -8   33.85    2.00 
  -5  -8   8   34.41    2.00 
  -5   8   8   32.64    2.16 
  -5   8   8   32.87    2.08 
   4  -8  -8    8.58    0.71 
  -4  -8   8    9.08    0.73 
  -4  -8   8    9.09    0.71 
   4  -8  -8    8.70    0.93 
  -4   8   8    8.65    0.79 
  -4   8   8    8.69    0.87 
  -4   8   8    8.89    0.69 
  -4   8   8    7.93    0.85 
  -4   8   8    8.19    0.73 
  -4   8   8    9.16    0.84 
   3  -8  -8   22.03    1.38 
  -3  -8   8   22.42    1.55 
   3  -8  -8   21.95    1.35 
  -3  -8   8   22.17    1.27 
  -3  -8   8   23.10    1.37 
   3  -8  -8   23.24    1.51 
   3  -8  -8   22.55    1.39 
  -3  -8   8   22.28    1.36 
  -3   8   8   23.44    1.55 
  -3   8   8   22.16    1.39 
  -3   8   8   22.96    1.46 
  -3   8   8   22.69    1.42 
  -3   8   8   22.97    1.48 
  -3   8   8   21.52    1.43 
  -2  -8   8   43.26    2.31 
  -2  -8   8   42.57    2.33 
   2  -8  -8   43.26    2.46 
  -2  -8   8   42.20    2.30 
   2  -8  -8   40.50    2.38 
   2  -8  -8   43.48    2.38 
  -2   8   8   38.84    2.41 
  -2   8   8   39.95    2.40 
  -2   8   8   39.41    2.52 
  -2   8   8   40.31    2.40 
  -2   8   8   41.51    2.45 
  -2   8   8   39.75    2.39 
   1  -8  -8   11.54    0.79 
   1  -8  -8   12.48    0.78 
  -1  -8   8   12.10    0.70 
  -1  -8   8   12.12    0.73 
  -1  -8   8   12.11    0.68 
  -1  -8   8   12.03    0.70 
   1  -8  -8   12.11    0.88 
  -1  -8   8   12.06    0.67 
   1   8  -8   10.32    0.68 
  -1   8   8   10.62    0.83 
  -1   8   8    9.55    1.03 
  -1   8   8   10.37    0.80 
   1   8  -8   10.22    0.68 
  -1   8   8    9.79    0.84 
  -1   8   8    9.99    0.93 
   1   8  -8    9.99    0.97 
  -1   8   8   10.18    0.79 
   0  -8  -8   14.92    0.88 
   0  -8   8   14.40    0.80 
   0  -8  -8   14.27    1.03 
   0  -8  -8   14.67    0.90 
   0  -8   8   14.27    0.89 
   0  -8   8   14.41    0.82 
   0   8   8   12.39    0.87 
   0   8  -8   11.62    1.05 
   0   8   8   11.80    0.93 
   0   8   8   12.95    0.99 
   0   8   8   12.94    0.91 
   0   8  -8   11.60    0.80 
   0   8   8   11.97    0.93 
   0   8   8   12.11    0.89 
  -1  -8  -8   19.76    1.41 
   1  -8   8   19.74    1.24 
  -1  -8  -8   20.23    1.35 
  -1  -8  -8   20.62    1.31 
   1  -8   8   19.68    1.22 
  -1  -8  -8   20.95    1.28 
   1  -8   8   20.08    1.34 
  -1   8  -8   21.89    1.29 
   1   8   8   21.22    1.36 
   1   8   8   21.52    1.31 
  -1   8  -8   20.52    1.45 
   1   8   8   21.84    1.37 
   1   8   8   22.53    1.53 
   1   8   8   21.86    1.26 
   2  -8   8    8.16    0.59 
  -2  -8  -8    8.42    0.72 
  -2  -8  -8    8.34    0.63 
   2  -8   8    7.76    0.53 
   2  -8   8    7.84    0.81 
  -2  -8  -8    8.14    0.74 
   2  -8   8    8.28    0.61 
  -2  -8  -8    7.88    0.79 
   2   8   8    8.46    0.72 
   2   8   8    8.60    0.68 
  -2   8  -8    8.59    0.72 
   2   8   8    8.15    0.78 
   2   8   8    8.33    0.61 
  -2   8  -8    8.64    0.84 
   3  -8   8   19.32    1.23 
  -3  -8  -8   20.68    1.35 
  -3  -8  -8   19.05    1.35 
  -3  -8  -8   19.68    1.36 
   3  -8   8   19.90    1.62 
   3  -8   8   18.65    1.22 
  -3   8  -8   19.95    1.45 
   3   8   8   19.86    1.19 
   3   8   8   20.40    1.28 
  -3   8  -8   20.44    1.34 
   3   8   8   19.54    1.33 
   3   8   8   22.02    1.37 
   4  -8   8    1.60    0.29 
  -4  -8  -8    1.75    0.47 
  -4  -8  -8    2.05    0.41 
   4  -8   8    1.75    0.30 
  -4   8  -8    1.37    0.49 
  -4   8  -8    0.96    0.48 
   4   8   8    0.94    0.47 
   4   8   8    0.80    0.33 
  -4  -9   8   19.95    1.26 
   4  -9  -8   20.99    1.59 
  -4  -9   8   20.16    1.26 
   4  -9  -8   20.17    1.28 
  -4   9   8   18.94    1.26 
  -4   9   8   19.61    1.37 
  -4   9   8   18.37    1.45 
  -4   9   8   18.74    1.29 
   3  -9  -8   17.26    1.28 
   3  -9  -8   17.29    1.10 
  -3  -9   8   17.39    0.96 
  -3  -9   8   17.39    1.08 
  -3  -9   8   17.58    1.03 
  -3  -9   8   16.63    1.50 
  -3   9   8   15.10    1.27 
  -3   9   8   15.05    1.15 
  -3   9   8   15.33    1.12 
  -3   9   8   14.94    1.18 
  -2  -9   8    2.07    0.30 
   2  -9  -8    1.80    0.33 
  -2  -9   8    2.12    0.30 
   2  -9  -8    1.74    0.31 
   2  -9  -8    2.09    0.46 
  -2   9   8    2.21    0.38 
  -2   9   8    2.68    0.41 
  -2   9   8    2.23    0.35 
  -2   9   8    2.83    0.54 
   1  -9  -8   41.71    2.49 
   1  -9  -8   43.56    2.57 
   1  -9  -8   45.79    2.50 
  -1  -9   8   43.63    2.42 
  -1  -9   8   42.13    2.42 
  -1  -9   8   44.41    2.39 
  -1   9   8   42.63    2.52 
  -1   9   8   41.80    2.54 
  -1   9   8   43.15    2.65 
  -1   9   8   42.36    2.49 
   1   9  -8   43.46    2.41 
   0  -9  -8   22.87    1.34 
   0  -9   8   22.82    1.23 
   0  -9  -8   22.94    1.31 
   0  -9   8   22.44    1.32 
   0  -9  -8   23.07    1.42 
   0  -9   8   19.97    1.32 
   0   9  -8   19.06    1.49 
   0   9   8   19.31    1.47 
   0   9   8   20.30    1.34 
   0   9   8   19.43    1.30 
   0   9   8   19.58    1.38 
   1  -9   8    2.19    0.30 
  -1  -9  -8    2.07    0.44 
  -1  -9  -8    2.00    0.49 
   1  -9   8    1.93    0.28 
  -1  -9  -8    2.30    0.38 
  -1  -9  -8    2.54    0.38 
   1   9   8    2.97    0.49 
  -1   9  -8    2.37    0.50 
   1   9   8    2.37    0.40 
   1   9   8    2.63    0.43 
   1   9   8    2.42    0.35 
   2  -9   8   24.70    1.53 
   2  -9   8   25.89    1.56 
  -2  -9  -8   25.79    1.71 
  -2  -9  -8   26.29    1.64 
  -2  -9  -8   25.79    1.57 
  -2  -9  -8   25.29    1.63 
  -2   9  -8   26.41    1.77 
   2   9   8   26.90    1.53 
   2   9   8   25.60    1.67 
   2   9   8   27.00    1.61 
   2   9   8   27.17    1.69 
  -3  -9  -8    5.50    0.70 
   3  -9   8    5.62    0.49 
  -3  -9  -8    5.14    0.70 
   3  -9   8    5.24    0.54 
   3   9   8    4.64    0.80 
   3   9   8    4.93    0.62 
  -3   9  -8    5.34    0.83 
   3   9   8    5.31    0.63 
   3 -10  -8    2.63    0.54 
   3 -10  -8    2.67    0.39 
  -3 -10   8    3.03    0.51 
  -3  10   8    2.51    0.47 
  -3  10   8    1.61    0.48 
  -3  10   8    2.19    0.40 
  -3  10   8    2.61    0.47 
   2 -10  -8   25.29    1.66 
   2 -10  -8   25.83    1.52 
  -2 -10   8   24.41    1.41 
   2 -10  -8   26.44    1.72 
  -2  10   8   23.18    1.56 
  -2  10   8   22.89    1.55 
  -2  10   8   22.94    1.54 
  -2  10   8   23.88    1.73 
  -1 -10   8    6.44    0.43 
   1 -10  -8    5.98    0.68 
  -1 -10   8    6.37    0.52 
   1 -10  -8    6.45    0.81 
   1 -10  -8    6.67    0.59 
  -1  10   8    5.61    0.65 
  -1  10   8    5.52    0.69 
  -1  10   8    5.91    0.65 
  -1  10   8    5.25    0.87 
   0 -10   8   26.48    1.63 
   0 -10  -8   26.59    1.77 
   0 -10  -8   26.31    1.67 
   0 -10  -8   25.04    1.71 
   0 -10   8   26.16    1.59 
   0  10   8   30.52    1.74 
   0  10   8   31.16    1.92 
   0  10   8   29.14    1.78 
   0  10  -8   28.17    1.89 
   0  10   8   29.93    1.68 
   1 -10   8   24.62    1.39 
  -1 -10  -8   25.61    1.60 
   1 -10   8   24.59    1.35 
  -1 -10  -8   24.42    1.54 
  -1 -10  -8   25.27    1.42 
   1  10   8   20.04    1.50 
   1  10   8   21.13    1.45 
  -1  10  -8   20.73    1.62 
   1  10   8   20.43    1.37 
   1  10   8   21.25    1.64 
  -2 -10  -8    5.90    0.74 
   2 -10   8    5.91    0.59 
  -2 -10  -8    6.40    0.58 
   2 -10   8    6.02    0.50 
   2  10   8    5.66    0.69 
   2  10   8    6.52    0.69 
  -2  10  -8    5.74    0.90 
   2  10   8    6.33    0.95 
   1 -11  -8   24.37    1.68 
  -1 -11   8   23.29    1.35 
   1 -11  -8   26.00    1.63 
  -1 -11   8   23.48    1.42 
  -1  11   8   23.72    1.62 
  -1  11   8   23.24    1.53 
  -1  11   8   23.50    1.79 
  -1  11   8   23.04    1.56 
   0 -11   8    4.64    0.39 
   0 -11   8    4.87    0.54 
   0 -11  -8    5.11    0.79 
   0  11   8    2.95    0.55 
   0  11   8    3.25    0.49 
   0  11   8    2.98    0.68 
  -7   0   9    1.45    0.42 
  -7   0   9    1.17    0.39 
  -7   0   9    1.18    0.35 
  -7   0   9    1.01    0.28 
  -7   0   9    1.36    0.34 
  -6   0   9   15.05    0.99 
   6   0  -9   14.88    1.01 
  -6   0   9   15.67    1.11 
  -6   0   9   15.05    1.07 
  -6   0   9   14.92    0.95 
  -6   0   9   14.26    1.00 
  -6   0   9   14.59    0.94 
  -6   0   9   15.43    1.02 
  -5   0   9   16.20    1.10 
   5   0  -9   16.26    1.00 
  -5   0   9   16.64    1.01 
  -5   0   9   16.46    1.06 
   5   0  -9   15.49    0.97 
  -5   0   9   16.11    1.02 
  -5   0   9   16.58    0.98 
  -4   0   9   65.47    3.61 
  -4   0   9   64.14    3.65 
   4   0  -9   63.92    3.57 
  -4   0   9   64.60    3.66 
  -4   0   9   63.69    3.58 
  -4   0   9   63.11    3.60 
   4   0  -9   65.79    3.60 
  -4   0   9   66.94    3.78 
  -3   0   9   59.56    3.35 
  -3   0   9   61.34    3.40 
   3   0  -9   61.09    3.35 
  -3   0   9   61.61    3.37 
  -3   0   9   56.96    3.43 
  -2   0   9    0.10    0.13 
   2   0  -9    0.13    0.27 
  -2   0   9    0.24    0.16 
  -2   0   9    0.19    0.13 
  -2   0   9    0.19    0.15 
  -2   0   9    0.20    0.21 
   2   0  -9   -0.01    0.17 
  -1   0   9   18.36    1.05 
   1   0  -9   18.21    1.00 
  -1   0   9   18.46    1.07 
   1   0  -9   18.43    1.01 
   1   0  -9   18.24    1.10 
  -1   0   9   17.61    1.09 
  -1   0   9   14.95    1.11 
  -1   0   9   15.94    1.08 
   0   0   9    9.48    0.68 
   0   0  -9    9.48    0.68 
   0   0   9    9.75    0.65 
   0   0  -9    8.92    0.61 
   0   0  -9    9.25    0.59 
   0   0   9    9.59    0.62 
   0   0  -9   10.13    0.60 
  -1   0  -9   64.01    3.58 
   1   0   9   62.84    3.60 
  -1   0  -9   64.87    3.61 
  -1   0  -9   63.24    3.71 
   1   0   9   64.80    3.63 
  -1   0  -9   64.16    3.55 
   2   0   9   59.90    3.37 
  -2   0  -9   59.52    3.30 
   2   0   9   58.20    3.29 
  -2   0  -9   55.73    3.42 
  -2   0  -9   59.84    3.34 
  -2   0  -9   59.99    3.27 
   2   0   9   58.17    3.32 
   2   0   9   57.57    3.28 
   3   0   9    4.95    0.42 
  -3   0  -9    4.72    0.47 
   3   0   9    4.36    0.49 
  -3   0  -9    5.13    0.54 
   3   0   9    4.74    0.46 
   3   0   9    4.99    0.62 
  -3   0  -9    4.85    0.61 
  -4   0  -9    6.91    0.59 
   4   0   9    7.98    0.81 
   4   0   9    6.99    0.56 
  -4   0  -9    6.92    0.65 
   4   0   9    6.75    0.64 
  -4   0  -9    7.24    0.69 
  -4   0  -9    7.32    0.56 
   4   0   9    7.06    0.62 
   5   0   9   29.39    1.68 
  -5   0  -9   28.28    1.78 
  -5   0  -9   27.02    1.78 
  -5   0  -9   27.29    1.69 
   5   0   9   28.52    1.72 
   6   0   9    5.85    0.77 
   6   0   9    6.10    0.59 
  -6   0  -9    5.51    0.61 
  -6   0  -9    5.62    0.76 
  -7  -1   9   22.19    1.42 
  -7  -1   9   22.99    1.52 
  -7  -1   9   22.70    1.55 
  -7  -1   9   21.38    1.38 
  -7   1   9   24.41    1.53 
  -7   1   9   23.17    1.55 
  -7   1   9   22.18    1.48 
  -6  -1   9    2.18    0.39 
  -6  -1   9    2.09    0.40 
  -6  -1   9    2.29    0.42 
  -6  -1   9    2.14    0.36 
  -6  -1   9    2.09    0.34 
  -6  -1   9    2.20    0.34 
  -6   1   9    3.23    0.44 
  -6   1   9    2.36    0.47 
  -6   1   9    2.57    0.38 
  -6   1   9    2.76    0.44 
  -6   1   9    2.32    0.35 
   6   1  -9    2.29    0.32 
  -5  -1   9   18.78    1.14 
  -5  -1   9   18.05    1.18 
  -5  -1   9   19.10    1.08 
   5  -1  -9   18.66    1.13 
  -5  -1   9   18.08    1.10 
  -5  -1   9   18.53    1.06 
  -5  -1   9   17.66    1.11 
  -5   1   9   17.66    1.08 
   5   1  -9   17.45    1.06 
  -5   1   9   17.48    1.16 
  -5   1   9   17.74    1.13 
  -5   1   9   17.59    1.12 
  -5   1   9   17.52    1.18 
   5   1  -9   17.57    1.03 
  -4  -1   9   44.24    2.44 
   4  -1  -9   45.13    2.44 
  -4  -1   9   44.93    2.51 
   4  -1  -9   44.24    2.46 
  -4  -1   9   44.40    2.42 
  -4  -1   9   44.76    2.44 
  -4  -1   9   38.42    2.51 
  -4   1   9   42.63    2.52 
  -4   1   9   42.77    2.43 
  -4   1   9   42.93    2.47 
  -4   1   9   44.69    2.62 
  -4   1   9   42.84    2.46 
  -4   1   9   42.36    2.51 
   4   1  -9   42.65    2.43 
  -3   1   9    5.63    0.51 
  -3   1   9    5.79    0.46 
  -3   1   9    5.56    0.51 
   3   1  -9    5.92    0.43 
  -3   1   9    5.86    0.48 
  -2  -1   9   45.70    2.48 
   2  -1  -9   45.20    2.45 
   2  -1  -9   44.82    2.55 
   2  -1  -9   46.23    2.45 
  -2  -1   9   45.08    2.51 
  -2  -1   9   44.10    2.52 
  -2  -1   9   44.38    2.49 
  -2   1   9   42.69    2.52 
  -2   1   9   46.20    2.64 
  -2   1   9   42.60    2.49 
  -2   1   9   44.07    2.51 
   2   1  -9   44.11    2.47 
   2   1  -9   41.83    2.68 
  -2   1   9   42.22    2.53 
   2   1  -9   45.58    2.52 
   1  -1  -9    8.52    0.54 
  -1  -1   9    7.86    0.60 
  -1  -1   9    8.13    0.55 
  -1  -1   9    7.74    0.58 
   1  -1  -9    8.38    0.75 
   1  -1  -9    8.33    0.53 
  -1  -1   9    8.11    0.59 
  -1  -1   9    8.16    0.56 
   1  -1  -9    7.76    0.55 
   1  -1  -9    8.38    0.64 
   1   1  -9   10.31    0.80 
  -1   1   9   10.50    0.61 
   0  -1   9    5.30    0.53 
   0  -1  -9    5.76    0.44 
   0  -1  -9    5.26    0.45 
   0  -1  -9    5.55    0.44 
   0  -1   9    5.97    0.49 
   0  -1   9    5.80    0.46 
   0  -1   9    5.82    0.45 
   0  -1  -9    6.02    0.54 
   0  -1  -9    5.43    0.62 
   0   1   9    7.16    0.50 
   0   1  -9    7.58    0.43 
   0   1   9    7.17    0.54 
   0   1   9    7.49    0.50 
   0   1   9    7.29    0.48 
   0   1   9    6.92    0.57 
   0   1  -9    6.89    0.66 
   0   1  -9    7.62    0.53 
   0   1  -9    7.32    0.42 
   1  -1   9   73.33    4.12 
   1  -1   9   75.35    4.15 
  -1  -1  -9   70.99    4.13 
  -1  -1  -9   74.64    4.18 
   1  -1   9   74.18    4.19 
  -1  -1  -9   69.84    4.27 
   1  -1   9   73.64    4.12 
  -1  -1  -9   75.58    4.11 
   1   1   9   75.83    4.21 
  -1   1  -9   76.97    4.28 
   1   1   9   68.90    4.24 
   1   1   9   77.49    4.17 
  -1   1  -9   76.35    4.14 
  -1   1  -9   73.45    4.11 
  -1   1  -9   75.85    4.17 
   1   1   9   76.19    4.13 
   2  -1   9   11.14    0.70 
   2  -1   9   11.25    0.70 
   2  -1   9   11.56    0.83 
  -2  -1  -9   11.08    0.87 
  -2  -1  -9   11.34    0.79 
  -2  -1  -9   11.37    0.69 
   2  -1   9   11.65    0.74 
  -2  -1  -9   11.57    0.73 
   2   1   9    8.40    0.74 
   2   1   9    9.65    0.69 
  -2   1  -9    9.72    0.70 
  -2   1  -9   10.12    0.86 
   2   1   9    9.60    0.73 
  -2   1  -9    9.82    0.76 
  -2   1  -9    9.98    0.67 
   2   1   9    9.98    0.81 
   3  -1   9    5.33    0.45 
  -3  -1  -9    4.96    0.60 
  -3  -1  -9    5.64    0.52 
  -3  -1  -9    4.98    0.63 
   3  -1   9    4.92    0.53 
   3  -1   9    5.31    0.48 
   3  -1   9    5.83    0.66 
  -3   1  -9    5.50    0.50 
   3   1   9    5.85    0.50 
  -3   1  -9    5.88    0.57 
   3   1   9    5.60    0.51 
  -3   1  -9    5.44    0.45 
  -3   1  -9    5.34    0.64 
   3   1   9    6.04    0.63 
   3   1   9    5.37    0.46 
  -4  -1  -9   21.78    1.37 
   4  -1   9   22.41    1.34 
   4  -1   9   21.18    1.30 
   4  -1   9   21.27    1.39 
  -4  -1  -9   21.65    1.40 
   4  -1   9   21.68    1.49 
  -4  -1  -9   21.44    1.33 
   4   1   9   22.05    1.49 
  -4   1  -9   21.43    1.37 
  -4   1  -9   21.44    1.49 
   4   1   9   21.43    1.34 
  -4   1  -9   21.22    1.33 
  -4   1  -9   21.26    1.31 
   4   1   9   21.82    1.31 
  -4   1  -9   21.46    1.40 
   5  -1   9    1.67    0.28 
  -5  -1  -9    2.00    0.33 
  -5  -1  -9    1.10    0.39 
  -5  -1  -9    1.83    0.41 
   5  -1   9    1.56    0.34 
  -5   1  -9    1.61    0.31 
   5   1   9    1.85    0.34 
   5   1   9    2.11    0.31 
  -5   1  -9    1.92    0.41 
  -6  -1  -9   18.59    1.21 
   6  -1   9   19.03    1.31 
   6  -1   9   19.41    1.19 
  -6  -1  -9   19.14    1.32 
  -6   1  -9   17.51    1.21 
  -6   1  -9   16.63    1.31 
   6   1   9   17.54    1.19 
   6   1   9   17.83    1.29 
  -7  -2   9    7.89    0.61 
  -7  -2   9    8.92    0.87 
  -7  -2   9    8.35    0.91 
  -7   2   9    9.89    0.86 
  -7   2   9    9.33    0.84 
  -7   2   9   10.06    0.89 
  -6  -2   9   28.62    1.74 
  -6  -2   9   27.91    1.55 
  -6  -2   9   29.25    1.70 
  -6  -2   9   29.48    1.64 
  -6  -2   9   27.63    1.54 
  -6  -2   9   28.02    1.59 
  -6  -2   9   29.28    1.53 
  -6   2   9   23.51    1.58 
  -6   2   9   24.92    1.69 
  -6   2   9   24.01    1.63 
  -6   2   9   22.82    1.66 
  -5  -2   9    1.97    0.34 
  -5  -2   9    2.29    0.36 
  -5  -2   9    2.14    0.29 
   5  -2  -9    2.75    0.44 
  -5  -2   9    2.21    0.29 
  -5  -2   9    2.36    0.39 
  -5  -2   9    2.13    0.32 
  -5   2   9    3.33    0.44 
  -5   2   9    3.30    0.34 
  -5   2   9    2.94    0.44 
  -5   2   9    2.99    0.45 
  -5   2   9    3.35    0.62 
  -5   2   9    3.21    0.48 
   4   2  -9    5.67    0.39 
  -4   2   9    5.61    0.51 
  -4   2   9    5.29    0.56 
  -4   2   9    5.56    0.60 
  -4   2   9    5.86    0.54 
  -4   2   9    5.43    0.50 
  -3  -2   9   66.37    3.42 
   3  -2  -9   66.84    3.39 
   3  -2  -9   66.31    3.38 
  -3  -2   9   64.55    3.41 
  -3  -2   9   66.49    3.48 
   3  -2  -9   63.39    3.45 
  -3  -2   9   63.92    3.44 
   3   2  -9   58.21    3.40 
  -3   2   9   57.24    3.49 
  -3   2   9   59.00    3.46 
  -3   2   9   59.16    3.48 
   3   2  -9   58.98    3.39 
  -3   2   9   53.41    3.59 
  -3   2   9   56.90    3.45 
  -2  -2   9    6.85    0.47 
   2  -2  -9    7.07    0.47 
  -2  -2   9    6.77    0.47 
   2  -2  -9    6.75    0.60 
   2  -2  -9    7.03    0.45 
  -2  -2   9    6.86    0.51 
  -2  -2   9    6.89    0.53 
  -2   2   9    7.12    0.63 
  -2   2   9    6.77    0.55 
  -2   2   9    6.95    0.51 
   2   2  -9    6.37    0.71 
  -2   2   9    6.98    0.53 
   2   2  -9    6.95    0.51 
  -2   2   9    6.92    0.55 
   2   2  -9    7.18    0.45 
  -1  -2   9   53.20    3.07 
  -1  -2   9   53.28    3.08 
   1  -2  -9   53.39    3.16 
   1  -2  -9   50.72    3.24 
   1  -2  -9   56.30    3.08 
  -1  -2   9   55.42    3.11 
   1  -2  -9   52.37    3.07 
  -1  -2   9   51.65    3.11 
   1  -2  -9   51.79    3.09 
  -1  -2   9   52.96    3.11 
  -1   2   9   59.49    3.15 
  -1   2   9   54.64    3.16 
  -1   2   9   58.95    3.13 
   1   2  -9   61.83    3.11 
   1   2  -9   61.09    3.12 
   1   2  -9   57.96    3.29 
  -1   2   9   56.67    3.11 
   0  -2  -9   39.88    2.23 
   0  -2   9   39.37    2.14 
   0  -2  -9   38.72    2.15 
   0  -2   9   38.90    2.14 
   0  -2  -9   40.52    2.14 
   0  -2  -9   41.56    2.14 
   0  -2  -9   39.27    2.31 
   0  -2   9   39.14    2.20 
   0  -2   9   42.21    2.18 
   0   2   9   35.63    2.20 
   0   2   9   36.70    2.18 
   0   2  -9   36.46    2.17 
   0   2   9   33.69    2.19 
   0   2  -9   37.29    2.09 
   0   2   9   35.01    2.27 
   0   2   9   36.82    2.16 
   0   2  -9   36.01    2.09 
   0   2  -9   35.22    2.31 
  -1  -2  -9    3.09    0.31 
   1  -2   9    3.02    0.35 
  -1  -2  -9    3.02    0.33 
   1  -2   9    2.75    0.32 
   1  -2   9    3.13    0.32 
   1  -2   9    3.15    0.45 
  -1  -2  -9    3.45    0.44 
   1   2   9    3.80    0.43 
  -1   2  -9    3.91    0.40 
   1   2   9    3.84    0.38 
  -1   2  -9    3.59    0.29 
  -1   2  -9    4.02    0.52 
   1   2   9    3.78    0.37 
   1   2   9    3.68    0.35 
   1   2   9    3.90    0.35 
  -2  -2  -9   52.87    3.10 
  -2  -2  -9   53.57    3.24 
   2  -2   9   50.91    3.12 
   2  -2   9   53.61    3.10 
   2  -2   9   52.21    3.09 
  -2  -2  -9   53.23    3.17 
   2  -2   9   52.34    3.20 
  -2  -2  -9   51.87    3.12 
   2   2   9   55.30    3.26 
   2   2   9   58.91    3.11 
  -2   2  -9   58.41    3.16 
  -2   2  -9   56.85    3.12 
  -2   2  -9   56.21    3.27 
   2   2   9   57.74    3.16 
   2   2   9   59.69    3.20 
  -2   2  -9   60.49    3.08 
  -3  -2  -9    8.33    0.72 
  -3  -2  -9    8.15    0.61 
   3  -2   9    8.36    0.64 
  -3  -2  -9    8.10    0.79 
   3  -2   9    8.21    0.80 
  -3  -2  -9    8.46    0.68 
   3  -2   9    8.14    0.61 
   3  -2   9    7.55    0.68 
   3   2   9    9.13    0.68 
   3   2   9    9.79    0.65 
  -3   2  -9    9.49    0.67 
   3   2   9    9.95    0.78 
  -3   2  -9    9.62    0.73 
  -3   2  -9    9.49    0.82 
   3   2   9    9.18    0.67 
  -3   2  -9    9.69    0.62 
   4  -2   9    2.86    0.48 
   4   2   9    1.47    0.26 
   4   2   9    1.87    0.41 
  -4   2  -9    1.66    0.36 
  -4   2  -9    1.69    0.27 
  -4   2  -9    1.77    0.29 
  -4   2  -9    1.41    0.38 
   4   2   9    1.62    0.30 
  -4   2  -9    1.48    0.30 
  -5  -2  -9   32.29    1.93 
   5  -2   9   32.81    1.93 
  -5  -2  -9   32.60    2.02 
  -5  -2  -9   32.20    1.99 
   5  -2   9   33.49    1.90 
   5  -2   9   32.76    2.22 
   5   2   9   31.59    1.90 
   5   2   9   33.13    1.97 
  -5   2  -9   31.39    2.00 
   5   2   9   31.27    1.94 
  -5   2  -9   31.13    1.91 
  -6  -2  -9   11.70    0.96 
   6  -2   9   12.58    0.97 
  -6  -2  -9   11.98    0.91 
   6   2   9   11.60    1.01 
  -6   2  -9   10.15    0.86 
   6   2   9   11.04    0.86 
  -6   2  -9    9.98    1.00 
  -7  -3   9    9.04    0.92 
  -7  -3   9    9.37    0.87 
  -7   3   9    7.93    0.83 
  -7   3   9    6.03    1.08 
  -6  -3   9    5.93    0.53 
  -6  -3   9    5.72    0.69 
  -6  -3   9    5.88    0.65 
  -6  -3   9    6.14    0.65 
  -6   3   9    5.83    0.65 
  -6   3   9    6.47    0.67 
  -6   3   9    6.10    0.67 
  -5  -3   9   32.90    1.95 
  -5  -3   9   31.66    1.99 
  -5  -3   9   32.45    1.85 
   5  -3  -9   32.24    1.81 
  -5  -3   9   32.07    1.94 
  -5  -3   9   31.92    1.83 
   5  -3  -9   32.62    1.80 
  -5   3   9   34.51    2.09 
  -5   3   9   33.14    1.93 
  -5   3   9   31.36    1.98 
  -5   3   9   32.99    1.98 
  -5   3   9   33.47    1.95 
  -5   3   9   32.17    1.87 
  -4  -3   9   31.38    1.87 
  -4  -3   9   30.65    1.64 
  -4  -3   9   32.43    1.63 
  -4  -3   9   32.30    1.75 
   4  -3  -9   32.75    1.65 
   4  -3  -9   31.40    1.78 
   4  -3  -9   31.46    1.64 
  -4  -3   9   30.70    1.65 
   4  -3  -9   26.83    1.66 
  -4   3   9   24.45    1.74 
  -4   3   9   24.65    1.71 
  -4   3   9   24.04    1.76 
  -4   3   9   24.88    1.72 
  -3  -3   9    1.04    0.23 
  -3  -3   9    0.96    0.16 
  -3  -3   9    0.83    0.17 
   3  -3  -9    0.91    0.25 
  -3  -3   9    1.15    0.18 
   3  -3  -9    0.99    0.16 
   3  -3  -9    1.04    0.18 
   2  -3  -9   47.67    2.81 
  -2  -3   9   48.30    2.74 
   2  -3  -9   50.85    2.76 
  -2  -3   9   48.73    2.77 
  -2  -3   9   49.95    2.80 
  -2  -3   9   49.32    2.75 
   2  -3  -9   47.13    2.77 
   2  -3  -9   49.56    2.87 
   2  -3  -9   49.03    2.75 
  -2   3   9   51.46    2.82 
   2   3  -9   50.51    2.74 
   2   3  -9   49.34    2.99 
   2   3  -9   45.07    2.83 
  -2   3   9   47.95    2.79 
  -2   3   9   54.01    2.92 
  -2   3   9   52.56    2.83 
  -2   3   9   49.45    2.81 
  -1  -3   9   11.72    0.72 
   1  -3  -9   12.19    0.75 
  -1  -3   9   10.94    0.78 
  -1  -3   9   11.33    0.73 
   1  -3  -9   10.96    0.74 
   1  -3  -9   11.62    0.86 
   1  -3  -9   11.59    0.73 
  -1  -3   9   11.84    0.76 
   1  -3  -9   10.81    0.91 
   1   3  -9   13.23    0.78 
   1   3  -9   12.82    0.97 
  -1   3   9   12.83    0.80 
  -1   3   9   11.20    0.85 
  -1   3   9   12.55    0.85 
  -1   3   9   12.87    0.78 
   1   3  -9   12.65    0.75 
   0  -3   9   17.45    1.04 
   0  -3  -9   17.29    1.01 
   0  -3   9   16.44    1.08 
   0  -3  -9   16.79    1.03 
   0  -3   9   16.36    1.00 
   0  -3  -9   16.33    1.17 
   0  -3  -9   17.67    1.02 
   0  -3  -9   17.53    1.12 
   0  -3   9   16.58    1.00 
   0   3  -9   17.10    1.04 
   0   3   9   16.83    1.04 
   0   3   9   17.32    1.14 
   0   3   9   16.82    1.04 
   0   3  -9   16.35    1.20 
   0   3   9   17.14    1.09 
  -1  -3  -9   67.08    3.64 
  -1  -3  -9   65.80    3.80 
   1  -3   9   67.20    3.64 
   1  -3   9   66.96    3.64 
  -1  -3  -9   67.95    3.73 
  -1  -3  -9   67.01    3.66 
   1  -3   9   69.21    3.67 
   1  -3   9   65.25    3.71 
  -1   3  -9   63.06    3.60 
   1   3   9   64.78    3.65 
  -1   3  -9   63.84    3.81 
   1   3   9   60.91    3.71 
   1   3   9   63.69    3.66 
  -1   3  -9   64.98    3.68 
   1   3   9   63.80    3.67 
  -2  -3  -9    5.86    0.63 
  -2  -3  -9    6.04    0.51 
   2  -3   9    5.95    0.46 
   2  -3   9    5.65    0.61 
   2  -3   9    5.85    0.47 
  -2  -3  -9    6.42    0.58 
   2  -3   9    6.05    0.50 
  -2   3  -9    5.73    0.66 
  -2   3  -9    6.02    0.54 
   2   3   9    5.47    0.57 
  -2   3  -9    5.42    0.46 
   2   3   9    6.07    0.58 
   2   3   9    5.87    0.48 
  -2   3  -9    5.66    0.43 
  -3  -3  -9   45.24    2.60 
  -3  -3  -9   43.87    2.55 
   3  -3   9   44.75    2.66 
   3  -3   9   43.31    2.56 
   3  -3   9   42.86    2.51 
  -3  -3  -9   45.14    2.51 
  -3  -3  -9   43.10    2.66 
   3  -3   9   43.43    2.51 
  -3   3  -9   46.55    2.71 
  -3   3  -9   46.88    2.59 
  -3   3  -9   42.86    2.54 
   3   3   9   40.20    2.62 
  -3   3  -9   44.85    2.50 
   3   3   9   45.69    2.63 
   3   3   9   44.14    2.52 
   3   3   9   44.19    2.61 
  -4  -3  -9   20.15    1.32 
  -4  -3  -9   20.71    1.34 
   4  -3   9   19.78    1.32 
  -4  -3  -9   20.90    1.43 
  -4  -3  -9   20.31    1.27 
   4  -3   9   20.57    1.24 
   4  -3   9   20.37    1.45 
   4  -3   9   20.71    1.26 
  -4   3  -9   19.65    1.34 
  -4   3  -9   19.47    1.23 
   4   3   9   19.79    1.25 
   4   3   9   19.67    1.28 
  -4   3  -9   19.55    1.43 
   5  -3   9    0.05    0.28 
   5  -3   9    0.14    0.44 
  -5  -3  -9   -0.03    0.35 
  -5  -3  -9    0.40    0.23 
  -5  -3  -9    0.19    0.25 
   5  -3   9    0.26    0.19 
   5   3   9    0.30    0.23 
   5   3   9    0.56    0.35 
  -5   3  -9    0.24    0.26 
  -5   3  -9    0.27    0.38 
   5   3   9    0.01    0.30 
  -6  -4   9   25.93    1.63 
  -6  -4   9   25.89    1.51 
  -6  -4   9   26.13    1.63 
  -6  -4   9   26.08    1.69 
  -6   4   9   24.98    1.63 
  -6   4   9   25.93    1.66 
  -6   4   9   26.06    1.69 
  -5  -4   9    7.14    0.44 
  -5  -4   9    7.14    0.68 
  -5  -4   9    8.18    0.66 
   5  -4  -9    6.62    0.70 
   5  -4  -9    7.56    0.50 
  -5  -4   9    6.58    0.68 
  -5  -4   9    6.97    0.48 
  -5   4   9    5.32    0.64 
  -5   4   9    5.55    0.60 
  -5   4   9    5.10    0.73 
  -5   4   9    5.30    0.64 
  -5   4   9    5.83    0.64 
   4  -4  -9    3.81    0.54 
  -4  -4   9    3.75    0.50 
  -4  -4   9    3.92    0.33 
   4  -4  -9    4.24    0.36 
  -4  -4   9    3.56    0.46 
   4  -4  -9    4.53    0.39 
  -4   4   9    5.33    0.87 
   3  -4  -9   40.24    2.15 
   3  -4  -9   38.37    2.17 
  -3  -4   9   41.01    2.36 
   3  -4  -9   40.51    2.24 
  -3  -4   9   39.14    2.13 
  -3  -4   9   39.32    2.21 
   3  -4  -9   40.81    2.17 
  -3  -4   9   38.43    2.12 
  -3  -4   9   40.19    2.12 
  -3   4   9   36.75    2.31 
  -3   4   9   34.92    2.23 
  -3   4   9   35.08    2.24 
  -3   4   9   35.29    2.21 
  -3   4   9   35.55    2.28 
  -2  -4   9   12.18    0.71 
  -2  -4   9   12.37    0.90 
   2  -4  -9   11.95    0.73 
   2  -4  -9   12.45    0.91 
  -2  -4   9   12.01    0.71 
   2  -4  -9   12.35    0.76 
   2  -4  -9   12.26    0.84 
   2  -4  -9   11.34    0.74 
  -2  -4   9   11.55    0.78 
  -2  -4   9   11.74    0.75 
   2   4  -9   10.51    0.97 
  -2   4   9   11.88    0.82 
   2   4  -9   11.38    0.69 
   2   4  -9   11.86    0.73 
  -2   4   9   11.25    0.86 
  -2   4   9   11.35    0.82 
  -2   4   9   11.99    0.82 
  -2   4   9   11.58    0.89 
  -2   4   9   11.58    0.79 
   1  -4  -9   32.64    1.96 
   1  -4  -9   32.72    1.86 
  -1  -4   9   31.39    1.86 
   1  -4  -9   32.27    1.83 
  -1  -4   9   32.52    1.82 
   1  -4  -9   30.58    1.99 
  -1  -4   9   33.77    1.85 
  -1  -4   9   33.44    1.82 
   1  -4  -9   33.89    1.85 
   1   4  -9   30.94    2.04 
  -1   4   9   33.54    1.92 
  -1   4   9   30.71    1.87 
  -1   4   9   31.76    1.88 
  -1   4   9   31.81    1.89 
   0  -4   9   51.52    2.99 
   0  -4  -9   51.81    2.94 
   0  -4   9   53.40    2.95 
   0  -4  -9   50.72    3.08 
   0  -4  -9   52.98    3.04 
   0  -4   9   53.31    2.93 
   0  -4  -9   52.12    2.96 
   0  -4   9   51.30    2.92 
   0  -4  -9   44.18    3.03 
   0   4   9   54.58    2.97 
   0   4  -9   56.39    3.15 
   0   4  -9   55.39    2.96 
   0   4   9   52.79    2.97 
   0   4   9   55.30    3.03 
  -1  -4  -9    8.99    0.76 
  -1  -4  -9    8.95    0.62 
   1  -4   9    8.31    0.62 
   1  -4   9    8.79    0.73 
   1  -4   9    9.18    0.60 
   1  -4   9    9.12    0.64 
  -1  -4  -9    9.04    0.65 
  -1  -4  -9    8.33    0.75 
  -1   4  -9    8.91    0.54 
   1   4   9    9.25    0.65 
   1   4   9    9.04    0.63 
  -1   4  -9    8.74    0.80 
   1   4   9    9.34    0.71 
  -1   4  -9    9.70    0.54 
   1   4   9    9.46    0.70 
  -1   4  -9    9.51    0.67 
   2  -4   9   37.41    2.30 
   2  -4   9   38.34    2.23 
   2  -4   9   38.59    2.20 
  -2  -4  -9   40.11    2.21 
  -2  -4  -9   39.01    2.31 
  -2  -4  -9   39.75    2.24 
  -2  -4  -9   37.61    2.33 
   2  -4   9   37.62    2.20 
  -2   4  -9   38.54    2.25 
   2   4   9   39.70    2.20 
   2   4   9   38.67    2.30 
  -2   4  -9   37.44    2.37 
   2   4   9   41.05    2.27 
   2   4   9   38.03    2.22 
  -2   4  -9   37.36    2.21 
  -3  -4  -9   24.91    1.51 
   3  -4   9   23.41    1.49 
   3  -4   9   24.36    1.60 
   3  -4   9   22.78    1.44 
  -3  -4  -9   23.22    1.60 
   3  -4   9   22.87    1.44 
  -3  -4  -9   22.87    1.54 
   3   4   9   25.28    1.47 
   3   4   9   25.82    1.58 
  -3   4  -9   25.18    1.52 
  -3   4  -9   25.10    1.65 
  -3   4  -9   26.20    1.43 
   4  -4   9    2.98    0.57 
  -4  -4  -9    2.58    0.43 
  -4  -4  -9    3.02    0.54 
   4  -4   9    2.74    0.42 
  -4  -4  -9    2.48    0.60 
  -4  -4  -9    2.68    0.41 
   4  -4   9    2.90    0.38 
   4  -4   9    2.68    0.41 
  -4   4  -9    2.46    0.60 
   4   4   9    2.25    0.33 
   4   4   9    3.11    0.42 
  -4   4  -9    2.42    0.50 
  -4   4  -9    3.87    0.44 
  -5  -4  -9   20.86    1.43 
  -5  -4  -9   20.39    1.34 
   5  -4   9   19.68    1.63 
   5  -4   9   22.03    1.56 
   5  -4   9   21.38    1.31 
   5  -4   9   20.41    1.35 
  -5  -4  -9   20.80    1.47 
   5   4   9   21.19    1.33 
  -5   4  -9   21.33    1.33 
  -5   4  -9   21.57    1.46 
  -5   4  -9   20.83    1.54 
   5   4   9   22.25    1.42 
  -6  -5   9    3.52    0.55 
  -6  -5   9    3.64    0.49 
  -6  -5   9    3.21    0.52 
  -6   5   9    3.18    0.61 
  -6   5   9    2.48    0.44 
  -6   5   9    2.43    0.44 
  -5  -5   9   21.44    1.22 
  -5  -5   9   19.76    1.26 
   5  -5  -9   21.13    1.12 
  -5  -5   9   19.64    1.25 
   5  -5  -9   20.04    1.09 
  -5  -5   9   19.72    1.06 
   5  -5  -9   17.82    1.26 
  -5   5   9   15.79    1.22 
  -5   5   9   15.62    1.18 
  -5   5   9   16.71    1.33 
  -5   5   9   15.36    1.24 
  -5   5   9   15.87    1.08 
  -5   5   9   15.82    1.25 
  -4  -5   9    7.23    0.65 
   4  -5  -9    6.65    0.53 
   4  -5  -9    6.75    0.68 
  -4  -5   9    6.55    0.63 
   4  -5  -9    6.55    0.49 
  -4  -5   9    6.80    0.44 
  -4  -5   9    6.50    0.59 
  -4   5   9    4.70    0.63 
  -3  -5   9   11.51    0.73 
   3  -5  -9   11.48    0.77 
   3  -5  -9   11.01    0.78 
   3  -5  -9   11.73    0.91 
  -3  -5   9   11.72    0.95 
   3  -5  -9   11.78    0.81 
  -3  -5   9   11.07    0.83 
  -3   5   9   13.10    0.95 
  -3   5   9   13.74    0.87 
  -3   5   9   14.66    0.93 
  -3   5   9   14.57    0.98 
  -3   5   9   13.45    0.89 
   2  -5  -9   65.44    3.85 
  -2  -5   9   66.70    3.81 
  -2  -5   9   67.05    3.80 
   2  -5  -9   65.56    3.90 
  -2  -5   9   65.22    3.82 
  -2  -5   9   66.64    3.87 
  -2  -5   9   65.27    4.00 
   2  -5  -9   67.91    3.84 
  -2   5   9   72.29    3.98 
  -2   5   9   73.02    3.93 
  -2   5   9   69.59    3.89 
  -2   5   9   74.84    3.90 
   2   5  -9   75.75    3.82 
  -2   5   9   73.38    3.91 
  -1  -5   9    9.29    0.52 
   1  -5  -9    8.82    0.76 
   1  -5  -9    9.70    0.59 
   1  -5  -9    8.73    0.57 
  -1  -5   9    9.07    0.59 
  -1  -5   9    9.39    0.54 
   1  -5  -9    7.54    0.55 
   1  -5  -9    9.18    0.75 
  -1   5   9    6.46    0.58 
  -1   5   9    6.73    0.64 
   1   5  -9    6.69    0.77 
  -1   5   9    6.46    0.65 
  -1   5   9    6.71    0.61 
  -1   5   9    6.50    0.60 
   0  -5  -9    7.35    0.53 
   0  -5   9    7.08    0.52 
   0  -5  -9    7.09    0.69 
   0  -5  -9    6.98    0.54 
   0  -5   9    6.79    0.47 
   0  -5   9    6.57    0.49 
   0  -5  -9    7.06    0.68 
   0  -5   9    6.45    0.58 
   1  -5   9   32.02    1.87 
  -1  -5  -9   34.04    1.92 
   1  -5   9   31.27    1.79 
   1  -5   9   32.10    1.77 
  -1  -5  -9   33.04    1.79 
  -1  -5  -9   32.42    1.78 
   1  -5   9   29.24    1.81 
  -1  -5  -9   33.00    1.82 
  -1  -5  -9   31.80    1.92 
   1   5   9   29.47    1.91 
  -1   5  -9   28.27    1.95 
   1   5   9   31.48    1.94 
   1   5   9   27.83    1.85 
  -1   5  -9   30.06    1.81 
   1   5   9   28.53    1.81 
   1   5   9   29.34    1.79 
   2  -5   9    4.55    0.41 
   2  -5   9    4.70    0.43 
  -2  -5  -9    4.29    0.59 
  -2  -5  -9    4.60    0.60 
  -2  -5  -9    4.37    0.53 
   2  -5   9    3.79    0.46 
   2  -5   9    4.14    0.60 
  -2  -5  -9    4.64    0.40 
   2   5   9    4.91    0.44 
  -2   5  -9    5.32    0.53 
   2   5   9    4.48    0.52 
   2   5   9    5.25    0.47 
  -2   5  -9    5.32    0.65 
   2   5   9    5.11    0.60 
  -2   5  -9    5.12    0.37 
   3  -5   9   14.61    1.18 
   3  -5   9   14.48    1.00 
  -3  -5  -9   14.98    1.08 
   3  -5   9   13.54    1.04 
  -3  -5  -9   15.22    1.14 
  -3  -5  -9   14.37    1.15 
   3  -5   9   14.22    0.99 
   3   5   9   18.54    1.01 
  -3   5  -9   17.49    1.24 
  -3   5  -9   17.67    1.11 
   3   5   9   17.95    1.05 
  -3   5  -9   17.10    0.97 
   4  -5   9   17.02    1.15 
  -4  -5  -9   17.46    1.26 
   4  -5   9   17.09    1.38 
  -4  -5  -9   17.14    1.33 
   4  -5   9   16.83    1.14 
   4  -5   9   16.78    1.22 
  -4  -5  -9   17.58    1.26 
  -4   5  -9   19.12    1.38 
   4   5   9   20.25    1.19 
  -4   5  -9   19.38    1.48 
  -4   5  -9   21.00    1.19 
   4   5   9   16.28    1.30 
   4   5   9   21.75    1.28 
   5  -5   9    0.78    0.63 
  -5  -5  -9    0.30    0.27 
   5  -5   9    0.61    0.30 
   5  -5   9    0.91    0.59 
   5  -5   9    0.60    0.25 
  -5  -5  -9    0.70    0.36 
   5   5   9    0.73    0.43 
  -5   5  -9    0.82    0.45 
  -5   5  -9    0.98    0.46 
   5   5   9    0.60    0.31 
   6  -6  -9   11.80    0.85 
  -6  -6   9   11.36    0.95 
  -6  -6   9   11.14    1.02 
  -6   6   9    8.96    1.04 
  -5  -6   9    0.24    0.29 
   5  -6  -9    0.55    0.26 
  -5  -6   9    0.40    0.34 
  -5   6   9    0.09    0.41 
  -5   6   9    0.15    0.27 
  -5   6   9   -0.11    0.39 
  -5   6   9    0.01    0.28 
  -5   6   9    0.17    0.30 
  -4  -6   9    8.49    0.80 
   4  -6  -9    9.82    0.86 
  -4  -6   9    9.23    0.72 
  -4  -6   9    9.33    0.56 
  -4  -6   9    9.36    0.76 
   4  -6  -9    9.86    0.70 
  -4   6   9    8.58    0.73 
  -4   6   9    8.55    0.68 
  -4   6   9    8.87    0.82 
  -4   6   9    8.65    0.84 
  -4   6   9    9.25    0.78 
  -3  -6   9   19.14    1.16 
   3  -6  -9   19.89    1.24 
   3  -6  -9   18.44    1.34 
  -3  -6   9   18.96    1.31 
  -3  -6   9   18.71    1.47 
  -3  -6   9   18.81    1.25 
  -3  -6   9   18.02    1.27 
  -3   6   9   22.53    1.32 
  -3   6   9   23.08    1.41 
  -3   6   9   22.95    1.40 
  -3   6   9   22.16    1.35 
  -3   6   9   21.67    1.30 
  -2  -6   9    4.69    0.47 
  -2  -6   9    4.84    0.37 
   2  -6  -9    4.62    0.43 
  -2  -6   9    4.85    0.59 
   2  -6  -9    4.77    0.59 
   2  -6  -9    5.10    0.46 
  -2  -6   9    5.07    0.43 
  -2  -6   9    4.72    0.33 
  -2   6   9    4.92    0.49 
  -2   6   9    4.30    0.57 
  -2   6   9    4.11    0.52 
  -2   6   9    4.92    0.57 
  -2   6   9    5.10    0.46 
   1  -6  -9   23.15    1.57 
  -1  -6   9   24.83    1.36 
   1  -6  -9   24.50    1.41 
   1  -6  -9   24.98    1.39 
   1  -6  -9   25.73    1.42 
  -1  -6   9   24.11    1.42 
  -1  -6   9   25.55    1.34 
  -1   6   9   22.62    1.47 
   1   6  -9   23.28    1.36 
  -1   6   9   22.57    1.43 
   1   6  -9   21.84    1.34 
  -1   6   9   23.14    1.44 
   1   6  -9   21.55    1.60 
  -1   6   9   22.74    1.44 
  -1   6   9   23.19    1.48 
   0  -6   9   27.31    1.67 
   0  -6  -9   27.21    1.76 
   0  -6  -9   28.08    1.77 
   0  -6   9   28.49    1.61 
   0  -6   9   27.30    1.60 
   0  -6   9   27.83    1.59 
   0  -6  -9   27.61    1.62 
   0  -6  -9   27.22    1.65 
   0  -6  -9   27.81    1.64 
   0   6   9   29.15    1.68 
   0   6   9   29.81    1.68 
   0   6  -9   28.41    1.83 
   0   6   9   28.25    1.72 
   0   6  -9   28.33    1.60 
   0   6   9   29.81    1.71 
   0   6   9   23.37    1.82 
   1  -6   9    2.82    0.49 
   1  -6   9    2.96    0.38 
   1  -6   9    2.87    0.32 
  -1  -6  -9    3.18    0.42 
  -1  -6  -9    3.09    0.53 
   1  -6   9    2.98    0.35 
  -1  -6  -9    2.71    0.32 
  -1  -6  -9    2.81    0.53 
  -1  -6  -9    3.57    0.38 
   1   6   9    3.81    0.42 
   1   6   9    3.28    0.59 
   2  -6   9   30.05    1.96 
  -2  -6  -9   27.97    2.01 
  -2  -6  -9   32.12    1.97 
  -2  -6  -9   31.17    1.89 
   2  -6   9   30.53    1.84 
   2  -6   9   29.73    1.82 
   2  -6   9   30.01    1.82 
  -2   6  -9   33.80    1.76 
  -2   6  -9   33.39    2.05 
   2   6   9   34.23    1.84 
  -2   6  -9   33.66    1.90 
   2   6   9   31.80    1.94 
   2   6   9   32.83    1.88 
   3  -6   9   10.66    0.83 
   3  -6   9   12.02    1.04 
  -3  -6  -9   10.43    0.95 
  -3  -6  -9   11.35    0.95 
  -3  -6  -9   11.91    0.91 
   3  -6   9   11.12    0.79 
   3  -6   9   10.80    0.78 
  -3   6  -9   12.02    0.92 
  -3   6  -9   11.80    1.03 
   3   6   9   12.05    0.83 
  -3   6  -9   11.82    0.75 
   3   6   9   12.21    0.79 
  -4  -6  -9    1.07    0.43 
   4  -6   9    0.90    0.25 
   4  -6   9    0.96    0.55 
   4  -6   9    0.75    0.26 
  -4  -6  -9    0.87    0.37 
  -4  -6  -9    0.98    0.39 
   4   6   9    1.96    0.42 
   4   6   9    1.33    0.32 
  -4   6  -9    1.81    0.49 
   5  -7  -9    8.13    0.70 
  -5  -7   9    7.87    0.80 
  -5  -7   9    8.30    0.75 
  -5   7   9    7.35    0.72 
  -5   7   9    6.93    0.91 
  -5   7   9    6.91    1.19 
  -5   7   9    6.25    0.76 
  -5   7   9    6.28    0.78 
   4  -7  -9    4.48    0.51 
  -4  -7   9    4.55    0.38 
   4  -7  -9    4.99    0.80 
  -4  -7   9    4.62    0.58 
   4  -7  -9    5.06    0.56 
  -4  -7   9    4.77    0.63 
  -4   7   9    6.12    0.60 
  -4   7   9    5.91    0.71 
  -4   7   9    6.16    0.77 
  -4   7   9    6.15    0.55 
  -4   7   9    6.72    0.67 
  -3  -7   9    5.25    0.56 
   3  -7  -9    5.71    0.57 
   3  -7  -9    5.45    0.52 
   3  -7  -9    5.74    0.77 
  -3  -7   9    5.26    0.43 
  -3  -7   9    5.44    0.59 
  -3   7   9    8.13    0.68 
  -3   7   9    7.71    0.62 
  -3   7   9    7.28    0.73 
  -3   7   9    7.22    0.74 
  -3   7   9    7.54    0.74 
  -3   7   9    7.79    0.63 
   2  -7  -9   35.17    2.03 
  -2  -7   9   38.55    2.04 
   2  -7  -9   35.78    2.12 
   2  -7  -9   35.55    2.01 
  -2  -7   9   36.97    1.96 
  -2  -7   9   36.79    2.03 
   2  -7  -9   38.84    2.05 
  -2  -7   9   37.77    1.99 
  -2   7   9   31.29    2.07 
  -2   7   9   31.87    2.10 
  -2   7   9   32.41    2.06 
  -2   7   9   31.52    2.16 
  -2   7   9   31.24    2.06 
   1  -7  -9    4.21    0.44 
   1  -7  -9    3.58    0.41 
  -1  -7   9    4.23    0.36 
  -1  -7   9    4.54    0.31 
   1  -7  -9    4.55    0.69 
   1  -7  -9    4.71    0.45 
  -1  -7   9    4.37    0.38 
   1  -7  -9    3.55    0.58 
  -1  -7   9    3.98    0.42 
  -1   7   9    3.07    0.52 
   1   7  -9    3.01    0.35 
  -1   7   9    3.02    0.46 
   0  -7  -9    9.01    0.79 
   0  -7   9    8.54    0.59 
   0  -7  -9    9.78    0.65 
   0  -7   9    9.13    0.57 
   0  -7  -9    9.74    0.70 
   0  -7  -9    9.29    0.85 
   0  -7   9    9.04    0.69 
   0  -7   9    9.45    0.60 
   0   7   9    6.79    0.72 
   0   7   9    6.98    0.76 
   0   7   9    6.48    0.68 
  -1  -7  -9   43.77    2.70 
   1  -7   9   42.18    2.53 
  -1  -7  -9   43.42    2.57 
   1  -7   9   41.98    2.54 
   1  -7   9   42.44    2.53 
   1  -7   9   41.88    2.63 
  -1  -7  -9   42.58    2.59 
  -1  -7  -9   42.41    2.66 
   1   7   9   48.85    2.65 
  -1   7  -9   49.22    2.79 
   1   7   9   49.27    2.61 
   1   7   9   47.34    2.70 
   1   7   9   47.87    2.58 
  -1   7  -9   47.40    2.58 
   2  -7   9    1.11    0.21 
   2  -7   9    1.06    0.25 
  -2  -7  -9    1.35    0.38 
   2  -7   9    1.31    0.41 
  -2  -7  -9    0.94    0.30 
  -2  -7  -9    0.99    0.23 
   2  -7   9    1.07    0.24 
  -2  -7  -9    0.95    0.43 
  -2   7  -9    1.15    0.39 
   2   7   9    1.06    0.42 
  -2   7  -9    1.10    0.32 
   2   7   9    1.04    0.26 
   2   7   9    0.62    0.26 
   3  -7   9   17.37    1.19 
  -3  -7  -9   18.36    1.36 
   3  -7   9   17.64    1.18 
  -3  -7  -9   18.44    1.34 
  -3  -7  -9   17.64    1.32 
   3   7   9   20.96    1.20 
   3   7   9   20.90    1.26 
   3   7   9   20.60    1.44 
  -3   7  -9   20.59    1.32 
  -3   7  -9   20.79    1.45 
   4  -7   9   14.16    0.99 
  -4  -7  -9   14.76    1.22 
   4  -7   9   14.51    1.00 
  -4  -7  -9   13.93    1.15 
  -4   7  -9   15.73    1.19 
  -4   7  -9   14.47    1.26 
   4   7   9   16.24    1.19 
   4   7   9   15.11    1.05 
   4  -8  -9    8.47    0.74 
   4  -8  -9    8.40    1.00 
  -4  -8   9    8.66    0.75 
  -4  -8   9    8.44    0.78 
  -4   8   9    7.90    0.82 
  -4   8   9    7.98    0.72 
  -4   8   9    8.06    0.89 
  -4   8   9    8.31    0.75 
  -3  -8   9   28.89    1.69 
   3  -8  -9   29.83    1.70 
  -3  -8   9   28.54    1.58 
   3  -8  -9   28.64    1.84 
  -3  -8   9   29.34    1.69 
  -3   8   9   26.77    1.73 
  -3   8   9   26.40    1.81 
  -3   8   9   27.50    1.85 
  -3   8   9   27.31    1.73 
  -3   8   9   26.83    1.75 
  -2  -8   9    3.75    0.45 
  -2  -8   9    3.60    0.36 
   2  -8  -9    4.04    0.70 
  -2  -8   9    4.07    0.48 
  -2  -8   9    3.56    0.38 
   2  -8  -9    3.67    0.48 
  -2   8   9    3.52    0.49 
  -2   8   9    3.15    0.65 
  -2   8   9    3.63    0.62 
  -2   8   9    3.60    0.57 
  -2   8   9    3.65    0.55 
  -1  -8   9   17.49    1.03 
   1  -8  -9   18.40    1.12 
  -1  -8   9   16.94    1.04 
  -1  -8   9   17.15    1.06 
  -1  -8   9   17.70    1.05 
  -1  -8   9   16.85    1.00 
   1  -8  -9   17.31    1.13 
  -1   8   9   17.43    1.18 
  -1   8   9   17.87    1.16 
  -1   8   9   17.99    1.15 
  -1   8   9   15.36    1.47 
  -1   8   9   16.85    1.28 
   1   8  -9   18.09    1.05 
   1   8  -9   16.38    1.34 
   0  -8  -9    5.69    0.73 
   0  -8   9    5.78    0.42 
   0  -8   9    5.54    0.42 
   0  -8  -9    5.64    0.51 
   0  -8   9    5.85    0.47 
   0  -8   9    5.74    0.56 
   0  -8  -9    5.87    0.60 
   0   8   9    4.56    0.56 
   0   8   9    5.01    0.62 
   0   8   9    5.14    0.73 
   0   8  -9    4.54    0.76 
   0   8   9    5.00    0.56 
  -1  -8  -9    0.10    0.20 
   1  -8   9    0.13    0.20 
  -1  -8  -9    0.09    0.34 
   1  -8   9    0.20    0.16 
  -1  -8  -9    0.18    0.29 
  -1  -8  -9    0.05    0.32 
   1   8   9    0.42    0.28 
   1   8   9    0.16    0.26 
   1   8   9    0.24    0.25 
   1   8   9    0.29    0.33 
  -1   8  -9    0.14    0.23 
  -1   8  -9    0.19    0.38 
  -2  -8  -9   46.04    2.67 
   2  -8   9   43.50    2.47 
  -2  -8  -9   45.53    2.62 
  -2  -8  -9   45.07    2.57 
  -2  -8  -9   44.74    2.51 
   2  -8   9   44.13    2.49 
   2   8   9   41.34    2.48 
   2   8   9   40.92    2.59 
   2   8   9   41.37    2.53 
  -2   8  -9   42.09    2.69 
   2   8   9   42.54    2.59 
   3  -8   9    9.76    0.72 
   3  -8   9   10.95    0.77 
  -3  -8  -9   10.84    0.96 
  -3  -8  -9   10.87    0.93 
  -3   8  -9    9.21    1.02 
   3   8   9    9.31    0.84 
   3   8   9   10.39    0.98 
   3   8   9    9.55    0.83 
   3  -9  -9    7.39    1.01 
   3  -9  -9    8.74    0.71 
  -3  -9   9    7.85    0.70 
  -3   9   9    6.02    0.87 
  -3   9   9    7.76    0.72 
  -3   9   9    6.80    0.76 
  -3   9   9    6.93    0.80 
  -2  -9   9   26.07    1.53 
   2  -9  -9   24.97    1.53 
   2  -9  -9   25.37    1.68 
  -2  -9   9   24.78    1.44 
  -2   9   9   24.33    1.59 
  -2   9   9   24.62    1.58 
  -2   9   9   24.64    1.73 
  -2   9   9   23.22    1.56 
   1  -9  -9    2.16    0.47 
  -1  -9   9    3.03    0.29 
   1  -9  -9    3.22    0.47 
   1  -9  -9    3.33    0.48 
  -1  -9   9    2.74    0.40 
  -1   9   9    4.70    0.59 
   0  -9  -9    7.39    0.84 
   0  -9  -9    7.15    0.63 
   0  -9   9    7.90    0.60 
   0  -9  -9    7.44    0.74 
   0  -9   9    8.01    0.53 
   0  -9  -9    8.35    0.91 
   0   9   9    7.21    0.88 
   0   9  -9    6.91    0.92 
   0   9   9    7.71    0.70 
   0   9   9    7.37    0.76 
   0   9   9    7.41    0.71 
  -1  -9  -9   23.94    1.51 
   1  -9   9   23.66    1.38 
   1  -9   9   23.83    1.34 
  -1  -9  -9   24.09    1.50 
  -1  -9  -9   23.02    1.40 
  -1  -9  -9   23.16    1.59 
   1   9   9   21.17    1.45 
   1   9   9   21.50    1.41 
  -1   9  -9   21.38    1.63 
   1   9   9   21.45    1.56 
   1   9   9   21.31    1.50 
  -2  -9  -9    3.29    0.55 
   2  -9   9    2.74    0.36 
  -2  -9  -9    3.01    0.45 
  -2  -9  -9    2.79    0.70 
   2  -9   9    3.10    0.48 
  -2   9  -9    2.85    0.61 
   2   9   9    2.59    0.44 
   2   9   9    2.36    0.51 
   2   9   9    2.55    0.42 
  -2 -10   9    1.59    0.37 
   2 -10  -9    1.43    0.35 
   2 -10  -9    1.61    0.58 
  -2  10   9    0.85    0.53 
  -2  10   9    0.83    0.46 
  -2  10   9    1.33    0.42 
  -2  10   9    1.33    0.45 
  -1 -10   9   16.73    1.00 
   1 -10  -9   16.74    1.34 
  -1 -10   9   16.82    1.08 
   1 -10  -9   17.04    1.15 
  -1  10   9   18.23    1.23 
  -1  10   9   17.50    1.27 
  -1  10   9   17.96    1.44 
  -1  10   9   17.24    1.22 
   0 -10  -9   12.19    0.87 
   0 -10   9   12.45    0.74 
   0 -10  -9   11.67    1.07 
   0 -10   9   11.92    0.82 
   0  10   9   11.46    1.18 
   0  10   9   10.72    0.99 
   0  10  -9   10.15    1.16 
   0  10   9   11.15    0.94 
   0  10   9   10.62    0.91 
  -1 -10  -9    2.33    0.53 
  -1 -10  -9    1.82    0.48 
   1 -10   9    1.66    0.32 
   1  10   9    1.20    0.63 
   1  10   9    1.05    0.40 
  -1  10  -9    1.07    0.57 
   1  10   9    0.95    0.39 
  -6   0  10    0.41    0.28 
  -6   0  10    0.26    0.34 
  -6   0  10    0.28    0.29 
  -6   0  10    0.10    0.24 
  -6   0  10    0.32    0.31 
  -5   0  10   26.96    1.67 
  -5   0  10   26.31    1.62 
  -5   0  10   26.38    1.55 
  -5   0  10   26.97    1.58 
  -5   0  10   26.26    1.59 
   5   0 -10   26.66    1.57 
  -4   0  10   67.62    3.86 
   4   0 -10   68.39    3.81 
  -4   0  10   69.30    3.88 
  -4   0  10   68.12    3.82 
  -3   0  10   17.11    1.06 
  -3   0  10   18.10    1.08 
  -3   0  10   17.16    1.11 
  -3   0  10   17.19    1.21 
   3   0 -10   17.43    1.02 
  -3   0  10   16.49    1.10 
   3   0 -10   17.52    1.06 
  -2   0  10   76.21    4.22 
   2   0 -10   72.73    4.39 
  -2   0  10   74.34    4.21 
  -2   0  10   75.88    4.34 
  -2   0  10   76.81    4.19 
  -2   0  10   75.14    4.18 
   2   0 -10   75.75    4.23 
   1   0 -10   29.19    1.67 
  -1   0  10   28.33    1.63 
  -1   0  10   27.50    1.65 
  -1   0  10   23.79    1.68 
   1   0 -10   27.74    1.81 
  -1   0  10   27.35    1.60 
  -1   0  10   27.70    1.63 
   1   0 -10   28.08    1.55 
   1   0 -10   28.51    1.55 
   0   0  10    2.11    0.32 
   0   0 -10    1.85    0.41 
   0   0 -10    2.19    0.41 
   0   0  10    2.37    0.30 
   0   0 -10    2.15    0.28 
   0   0  10    2.12    0.33 
   0   0  10    1.94    0.34 
   0   0 -10    2.32    0.26 
   0   0 -10    2.20    0.26 
   0   0  10    1.96    0.30 
  -1   0 -10   63.38    3.55 
  -1   0 -10   65.04    3.51 
  -1   0 -10   62.44    3.60 
   1   0  10   65.35    3.55 
  -1   0 -10   64.22    3.51 
  -1   0 -10   59.55    3.70 
   1   0  10   62.95    3.63 
   1   0  10   62.41    3.54 
   1   0  10   64.24    3.58 
  -2   0 -10    0.95    0.19 
  -2   0 -10    0.91    0.34 
  -2   0 -10    0.89    0.21 
   2   0  10    0.68    0.20 
   2   0  10    0.90    0.23 
  -2   0 -10    1.25    0.32 
   2   0  10    0.93    0.33 
   2   0  10    0.75    0.24 
  -3   0 -10   48.37    2.75 
  -3   0 -10   46.74    2.80 
   3   0  10   48.68    2.76 
   3   0  10   49.58    2.91 
   3   0  10   48.92    2.78 
  -3   0 -10   49.01    2.84 
   3   0  10   47.58    2.86 
  -3   0 -10   49.83    2.95 
  -4   0 -10   29.66    1.85 
   4   0  10   30.02    1.97 
   4   0  10   29.11    1.77 
   4   0  10   29.44    1.74 
  -4   0 -10   29.01    1.94 
  -5   0 -10    1.70    0.50 
   5   0  10    1.64    0.30 
  -5   0 -10    1.48    0.45 
   5   0  10    1.59    0.39 
  -5   0 -10    1.45    0.34 
  -6  -1  10   18.73    1.23 
  -6  -1  10   19.87    1.26 
  -6  -1  10   20.09    1.20 
  -6  -1  10   20.54    1.35 
  -6  -1  10   20.04    1.39 
  -6   1  10   19.77    1.35 
  -6   1  10   19.34    1.30 
  -6   1  10   18.51    1.24 
  -6   1  10   19.89    1.29 
  -5  -1  10    4.64    0.43 
  -5  -1  10    4.43    0.48 
  -5  -1  10    4.67    0.41 
   5  -1 -10    4.81    0.61 
  -5  -1  10    4.44    0.50 
  -5  -1  10    4.17    0.57 
  -5   1  10    4.11    0.52 
  -5   1  10    3.86    0.58 
  -5   1  10    3.76    0.42 
  -5   1  10    3.93    0.47 
  -5   1  10    3.82    0.51 
   5   1 -10    4.11    0.43 
  -4  -1  10   13.52    0.89 
  -4  -1  10   12.75    0.84 
  -4  -1  10   13.03    0.81 
  -4  -1  10   13.23    0.80 
   4  -1 -10   12.88    0.84 
  -4   1  10   11.43    0.87 
  -4   1  10   12.19    0.85 
  -4   1  10   11.62    0.83 
   4   1 -10   11.72    0.74 
   4   1 -10   11.63    0.79 
  -4   1  10   11.77    0.90 
  -3  -1  10   65.82    3.69 
  -3  -1  10   64.80    3.70 
  -3  -1  10   64.44    3.74 
  -3  -1  10   66.98    3.87 
   3  -1 -10   63.13    3.70 
   3  -1 -10   55.80    3.72 
  -3  -1  10   63.09    3.72 
  -3   1  10   66.79    3.76 
  -3   1  10   70.88    3.73 
  -3   1  10   69.01    3.87 
   3   1 -10   68.96    3.68 
  -3   1  10   69.17    3.76 
   3   1 -10   69.87    3.66 
  -3   1  10   68.73    3.71 
  -2  -1  10    1.26    0.20 
   2  -1 -10    1.27    0.18 
  -2  -1  10    1.50    0.25 
   2  -1 -10    1.37    0.29 
   2  -1 -10    1.47    0.20 
   2  -1 -10    1.18    0.38 
  -2  -1  10    1.50    0.31 
  -2  -1  10    1.34    0.26 
  -2   1  10    1.19    0.33 
   2   1 -10    1.04    0.19 
   2   1 -10    0.97    0.37 
  -2   1  10    1.98    0.31 
  -2   1  10    0.76    0.23 
  -2   1  10    1.15    0.21 
  -2   1  10    1.74    0.35 
   2   1 -10    1.27    0.26 
   1  -1 -10   39.64    2.32 
  -1  -1  10   38.24    2.29 
   1  -1 -10   38.02    2.21 
   1  -1 -10   40.58    2.22 
   1  -1 -10   37.48    2.44 
  -1  -1  10   37.81    2.24 
  -1  -1  10   37.70    2.27 
  -1  -1  10   37.17    2.27 
  -1  -1  10   38.24    2.24 
  -1   1  10   40.60    2.28 
  -1   1  10   41.27    2.26 
  -1   1  10   41.88    2.27 
  -1   1  10   40.42    2.30 
  -1   1  10   41.95    2.29 
   1   1 -10   41.77    2.47 
   1   1 -10   42.08    2.30 
   0  -1 -10   53.34    2.99 
   0  -1  10   54.48    3.06 
   0  -1 -10   53.57    2.96 
   0  -1 -10   55.00    2.97 
   0  -1 -10   55.35    3.07 
   0  -1 -10   51.58    3.16 
   0  -1  10   51.93    2.98 
   0  -1  10   53.98    3.02 
   0  -1  10   54.44    2.99 
   0   1 -10   54.46    2.94 
   0   1 -10   52.59    3.03 
   0   1 -10   50.97    2.94 
   0   1  10   54.11    3.01 
   0   1  10   51.18    2.99 
   0   1 -10   52.84    3.17 
   0   1  10   52.12    3.05 
   0   1  10   54.23    3.03 
   0   1  10   53.05    3.00 
   1  -1  10    2.19    0.30 
  -1  -1 -10    2.32    0.31 
   1  -1  10    2.50    0.46 
   1  -1  10    2.03    0.34 
  -1  -1 -10    2.17    0.43 
  -1  -1 -10    1.80    0.47 
  -1  -1 -10    2.33    0.29 
  -1  -1 -10    2.03    0.28 
   1  -1  10    2.31    0.31 
  -1   1 -10    1.36    0.28 
  -1   1 -10    1.97    0.27 
  -1   1 -10    1.65    0.26 
   1   1  10    1.56    0.24 
   1   1  10    1.59    0.26 
  -1   1 -10    1.82    0.26 
   1   1  10    2.10    0.36 
  -1   1 -10    1.60    0.38 
   1   1  10    1.39    0.24 
   2  -1  10   84.67    4.40 
   2  -1  10   81.05    4.44 
  -2  -1 -10   83.55    4.43 
  -2  -1 -10   83.61    4.58 
   2  -1  10   83.89    4.51 
   2  -1  10   84.01    4.40 
  -2  -1 -10   83.54    4.47 
   2   1  10   75.88    4.40 
   2   1  10   75.46    4.44 
  -2   1 -10   76.12    4.44 
   2   1  10   75.36    4.40 
  -2   1 -10   74.16    4.56 
  -2   1 -10   75.51    4.37 
  -2   1 -10   72.35    4.41 
   2   1  10   74.99    4.49 
   3  -1  10   18.55    1.23 
  -3  -1 -10   18.56    1.27 
  -3  -1 -10   18.12    1.39 
   3  -1  10   17.73    1.29 
   3  -1  10   18.71    1.41 
  -3  -1 -10   18.95    1.32 
   3  -1  10   17.42    1.21 
  -3  -1 -10   18.17    1.22 
  -3   1 -10   23.67    1.35 
  -3   1 -10   22.23    1.44 
   3   1  10   22.78    1.43 
   3   1  10   22.91    1.25 
   3   1  10   22.64    1.27 
   4  -1  10    1.74    0.32 
   4  -1  10    1.59    0.26 
  -4  -1 -10    2.07    0.47 
   4  -1  10    2.10    0.54 
  -4  -1 -10    1.24    0.33 
   4   1  10    1.16    0.55 
  -4   1 -10    1.57    0.41 
  -4   1 -10    1.23    0.40 
   4   1  10    1.11    0.32 
   4   1  10    1.32    0.26 
  -5  -1 -10   22.74    1.71 
   5  -1  10   21.91    1.48 
  -5  -1 -10   21.49    1.52 
  -5  -1 -10   21.64    1.60 
   5  -1  10   22.43    1.54 
  -5   1 -10   27.20    1.66 
   5   1  10   27.07    1.52 
  -5   1 -10   26.68    1.54 
  -5   1 -10   26.20    1.74 
   5   1  10   26.99    1.58 
  -6  -2  10    4.54    0.43 
  -6  -2  10    4.76    0.66 
  -6  -2  10    4.81    0.72 
  -6  -2  10    4.62    0.71 
  -6   2  10    4.41    0.63 
  -6   2  10    5.20    0.67 
  -6   2  10    4.08    0.64 
  -5  -2  10   16.58    1.15 
  -5  -2  10   17.61    1.18 
  -5  -2  10   18.13    1.26 
  -5  -2  10   18.36    1.28 
  -5  -2  10   18.50    1.14 
  -5   2  10   21.72    1.26 
  -5   2  10   22.61    1.36 
  -5   2  10   21.50    1.31 
  -5   2  10   20.56    1.30 
  -4  -2  10   12.04    0.79 
  -4  -2  10   12.21    0.69 
   4  -2 -10   11.35    0.90 
  -4  -2  10   11.82    0.70 
  -4   2  10    9.62    1.02 
  -4   2  10    8.52    0.77 
   4   2 -10    8.96    0.61 
  -4   2  10    8.74    0.80 
  -4   2  10    9.09    0.74 
  -4   2  10    9.46    0.74 
  -3  -2  10    9.92    0.65 
  -3  -2  10   10.35    0.73 
  -3  -2  10    9.67    0.68 
  -3  -2  10   10.38    0.67 
   3  -2 -10   10.05    0.59 
   3  -2 -10    9.38    0.70 
   3  -2 -10   10.55    0.61 
  -3   2  10    9.46    0.70 
  -3   2  10    9.81    0.74 
  -3   2  10   10.23    0.84 
  -3   2  10    9.24    0.76 
   3   2 -10    9.69    0.61 
  -3   2  10    9.61    0.75 
   3   2 -10    9.20    0.63 
   2  -2 -10   41.90    2.18 
   2  -2 -10   35.50    2.19 
  -2  -2  10   39.62    2.23 
   2  -2 -10   39.80    2.17 
  -2  -2  10   40.27    2.20 
   2  -2 -10   39.78    2.31 
  -2  -2  10   39.87    2.24 
  -2  -2  10   39.22    2.19 
  -2   2  10   37.85    2.26 
  -2   2  10   39.05    2.24 
   2   2 -10   37.95    2.44 
  -2   2  10   37.57    2.23 
   2   2 -10   39.18    2.18 
  -2   2  10   38.11    2.24 
  -2   2  10   37.40    2.26 
   1  -2 -10   41.78    2.43 
   1  -2 -10   43.40    2.32 
  -1  -2  10   42.03    2.33 
   1  -2 -10   41.96    2.34 
  -1  -2  10   42.66    2.37 
  -1  -2  10   41.34    2.32 
   1  -2 -10   40.35    2.53 
  -1  -2  10   41.96    2.38 
  -1  -2  10   42.62    2.36 
   1  -2 -10   41.51    2.31 
   1   2 -10   40.22    2.32 
  -1   2  10   38.63    2.35 
   1   2 -10   40.47    2.55 
  -1   2  10   40.47    2.37 
  -1   2  10   40.13    2.37 
  -1   2  10   40.39    2.40 
  -1   2  10   40.03    2.36 
   1   2 -10   42.49    2.37 
   0  -2  10   13.92    0.87 
   0  -2  10   13.50    0.90 
   0  -2 -10   13.59    1.06 
   0  -2 -10   13.49    0.87 
   0  -2 -10   14.05    0.86 
   0  -2  10   13.49    0.95 
   0  -2 -10   14.19    0.86 
   0  -2 -10   14.73    0.99 
   0   2  10   14.42    0.92 
   0   2  10   14.37    0.91 
   0   2  10   13.72    0.89 
   0   2 -10   14.67    0.80 
   0   2  10   13.65    0.95 
   0   2 -10   14.26    0.93 
   0   2 -10   13.69    0.79 
   0   2 -10   13.73    1.08 
   0   2  10   14.28    0.91 
   1  -2  10   63.72    3.87 
  -1  -2 -10   66.78    3.89 
   1  -2  10   65.59    3.87 
   1  -2  10   65.62    3.90 
   1  -2  10   67.24    3.96 
  -1  -2 -10   66.08    4.03 
  -1  -2 -10   68.41    3.96 
  -1  -2 -10   66.34    3.86 
   1   2  10   74.73    3.94 
   1   2  10   72.70    3.90 
  -1   2 -10   74.94    3.84 
   1   2  10   69.92    3.96 
   1   2  10   73.39    3.91 
   1   2  10   72.79    3.89 
  -1   2 -10   71.92    3.84 
  -1   2 -10   69.07    3.89 
  -1   2 -10   69.80    4.06 
  -1   2 -10   73.54    3.93 
   2  -2  10    4.55    0.64 
  -2  -2 -10    4.67    0.90 
  -2  -2 -10    4.56    0.48 
   2  -2  10    4.33    0.50 
   2  -2  10    4.27    0.43 
  -2  -2 -10    4.44    0.62 
   2  -2  10    5.00    0.44 
  -2  -2 -10    4.62    0.44 
   2   2  10    6.74    0.53 
  -2   2 -10    6.48    0.49 
  -3  -2 -10    6.41    0.73 
  -3  -2 -10    6.73    0.61 
   3  -2  10    7.23    0.80 
  -3  -2 -10    6.64    0.67 
   3  -2  10    6.37    0.64 
   3  -2  10    6.26    0.52 
   3  -2  10    6.69    0.54 
  -3   2 -10    5.44    0.65 
  -3   2 -10    5.14    0.71 
   3   2  10    5.52    0.58 
   3   2  10    5.59    0.74 
   3   2  10    5.79    0.52 
   4  -2  10   30.14    1.84 
   4  -2  10   31.46    1.87 
  -4  -2 -10   30.94    1.96 
   4  -2  10   28.75    2.05 
  -4  -2 -10   31.17    2.05 
   4   2  10   31.08    1.88 
  -4   2 -10   32.41    1.96 
  -4   2 -10   32.90    2.07 
   4   2  10   32.86    1.86 
   5  -2  10   -0.09    0.33 
   5  -2  10    0.29    0.22 
  -5  -2 -10    0.01    0.38 
  -5  -2 -10    0.34    0.31 
  -5  -2 -10    0.26    0.27 
  -5   2 -10    0.04    0.30 
  -5   2 -10    0.35    0.42 
   5   2  10    0.28    0.38 
   5   2  10    0.17    0.24 
  -5   2 -10    0.19    0.37 
  -6  -3  10   13.10    0.92 
  -6  -3  10   13.59    1.06 
  -6  -3  10   12.83    1.11 
  -6   3  10   13.45    1.06 
  -6   3  10   14.09    1.05 
  -6   3  10   12.83    1.01 
  -5  -3  10    9.01    0.80 
  -5  -3  10    8.91    0.81 
  -5  -3  10    8.97    0.84 
  -5  -3  10    9.07    0.66 
  -5   3  10    9.84    0.78 
  -5   3  10   10.02    0.82 
  -5   3  10    8.88    0.80 
  -4  -3  10   27.92    1.57 
  -4  -3  10   27.12    1.68 
  -4  -3  10   27.02    1.59 
   4  -3 -10   27.93    1.56 
   4  -3 -10   28.63    1.56 
  -4  -3  10   26.72    1.57 
  -4   3  10   27.93    1.67 
  -4   3  10   28.24    1.70 
  -4   3  10   27.57    1.81 
  -4   3  10   28.20    1.72 
  -4   3  10   27.28    1.73 
  -3  -3  10   22.62    1.39 
   3  -3 -10   21.76    1.46 
  -3  -3  10   23.08    1.46 
  -3  -3  10   22.93    1.38 
   3  -3 -10   23.59    1.38 
   3   3 -10   24.95    1.43 
  -3   3  10   24.90    1.46 
   3   3 -10   23.84    1.34 
  -3   3  10   24.26    1.52 
  -3   3  10   25.07    1.59 
  -3   3  10   25.11    1.50 
  -3   3  10   24.84    1.48 
  -2  -3  10    0.52    0.20 
  -2  -3  10    0.65    0.16 
   2  -3 -10    0.68    0.17 
   2  -3 -10    0.44    0.25 
  -2  -3  10    0.45    0.25 
   2  -3 -10    0.60    0.16 
  -2  -3  10    0.56    0.20 
  -2  -3  10    0.72    0.15 
   2  -3 -10    0.48    0.13 
   2  -3 -10    0.68    0.30 
  -2   3  10    0.58    0.47 
   2   3 -10    0.86    0.14 
  -2   3  10    0.73    0.24 
  -2   3  10    0.52    0.20 
   2   3 -10    0.47    0.32 
  -2   3  10    0.38    0.15 
  -2   3  10    1.07    0.25 
  -1  -3  10   28.14    1.58 
  -1  -3  10   26.41    1.60 
   1  -3 -10   27.88    1.56 
   1  -3 -10   26.54    1.56 
   1  -3 -10   27.52    1.68 
   1  -3 -10   26.30    1.75 
   1  -3 -10   27.87    1.55 
  -1  -3  10   27.22    1.54 
  -1  -3  10   27.22    1.54 
  -1   3  10   26.22    1.60 
   1   3 -10   27.23    1.79 
   1   3 -10   25.08    1.53 
  -1   3  10   26.61    1.64 
  -1   3  10   25.86    1.60 
  -1   3  10   26.84    1.59 
   1   3 -10   26.80    1.58 
   0  -3 -10   38.25    2.43 
   0  -3 -10   40.73    2.27 
   0  -3 -10   38.96    2.25 
   0  -3  10   38.57    2.25 
   0  -3 -10   40.52    2.37 
   0  -3 -10   38.49    2.27 
   0  -3  10   41.81    2.29 
   0  -3  10   39.86    2.33 
   0   3  10   40.46    2.30 
   0   3 -10   40.53    2.30 
   0   3  10   40.07    2.29 
   0   3  10   40.34    2.29 
   0   3  10   40.35    2.31 
   0   3 -10   38.78    2.46 
   0   3  10   40.18    2.34 
   1  -3  10    2.07    0.31 
  -1  -3 -10    2.38    0.51 
   1  -3  10    2.22    0.48 
   1  -3  10    2.08    0.38 
  -1  -3 -10    2.21    0.35 
   1  -3  10    2.12    0.30 
  -1  -3 -10    2.05    0.33 
  -1  -3 -10    2.49    0.51 
  -1   3 -10    2.98    0.40 
   1   3  10    2.35    0.39 
  -1   3 -10    2.34    0.25 
   1   3  10    2.64    0.37 
   1   3  10    2.19    0.35 
   1   3  10    2.95    0.35 
  -1   3 -10    2.57    0.51 
  -1   3 -10    2.66    0.25 
   1   3  10    2.50    0.45 
   2  -3  10   24.66    1.36 
  -2  -3 -10   25.18    1.41 
   2  -3  10   24.10    1.41 
   2  -3  10   24.95    1.37 
   2  -3  10   24.46    1.53 
  -2  -3 -10   24.86    1.36 
  -2  -3 -10   25.12    1.55 
  -2  -3 -10   24.85    1.49 
  -2   3 -10   20.59    1.32 
   2   3  10   19.91    1.36 
   2   3  10   20.66    1.48 
  -2   3 -10   20.02    1.54 
  -2   3 -10   20.82    1.42 
   2   3  10   20.68    1.40 
   2   3  10   21.31    1.36 
   3  -3  10   16.12    1.09 
   3  -3  10   16.51    1.33 
   3  -3  10   17.54    1.10 
  -3  -3 -10   16.29    1.28 
  -3  -3 -10   17.43    1.23 
  -3  -3 -10   17.28    1.17 
   3  -3  10   15.99    1.17 
   3   3  10   18.74    1.29 
  -3   3 -10   17.54    1.31 
   3   3  10   18.24    1.16 
  -3   3 -10   17.76    1.08 
  -3   3 -10   19.49    1.22 
   3   3  10   18.50    1.11 
   4  -3  10    1.79    0.29 
  -4  -3 -10    2.50    0.46 
   4  -3  10    2.11    0.34 
   4  -3  10    2.08    0.55 
  -4  -3 -10    2.22    0.51 
  -4  -3 -10    2.03    0.56 
   4  -3  10    2.38    0.59 
   4   3  10    2.47    0.39 
   4   3  10    2.61    0.42 
  -4   3 -10    2.75    0.48 
  -4   3 -10    2.39    0.34 
  -4   3 -10    2.67    0.54 
  -5  -3 -10   33.79    2.16 
  -5  -3 -10   32.96    2.14 
  -5  -3 -10   32.33    2.26 
   5  -3  10   32.21    2.08 
   5   3  10   37.49    2.07 
  -5   3 -10   36.17    2.19 
   5   3  10   37.28    2.13 
  -6  -4  10    2.11    0.46 
  -6  -4  10    1.88    0.48 
  -6   4  10    1.72    0.62 
  -6   4  10    1.90    0.43 
  -6   4  10    1.56    0.42 
  -5  -4  10    7.00    0.57 
   5  -4 -10    7.50    0.57 
  -5  -4  10    7.30    0.79 
  -5  -4  10    7.25    0.79 
  -5  -4  10    7.34    0.73 
  -5   4  10    7.64    0.76 
  -5   4  10    8.28    0.75 
  -5   4  10    8.60    0.72 
  -4  -4  10   26.96    1.69 
   4  -4 -10   26.57    1.72 
  -4  -4  10   27.18    1.72 
  -4  -4  10   26.90    1.59 
   4  -4 -10   28.11    1.59 
   4  -4 -10   28.55    1.61 
  -4   4  10   29.63    1.74 
  -4   4  10   27.20    1.81 
  -4   4  10   28.31    1.70 
  -4   4  10   27.94    1.73 
  -4   4  10   28.43    1.77 
   3  -4 -10   15.63    0.89 
  -3  -4  10   16.17    0.98 
   3  -4 -10   15.83    0.91 
   3  -4 -10   15.95    1.04 
  -3  -4  10   15.62    0.88 
  -3  -4  10   15.99    0.88 
  -3  -4  10   14.97    0.87 
  -3   4  10   12.66    1.01 
  -3   4  10   12.57    1.03 
  -3   4  10   13.34    1.09 
  -3   4  10   12.72    0.99 
  -3   4  10   12.23    0.97 
   2  -4 -10   38.40    2.15 
  -2  -4  10   39.39    2.13 
   2  -4 -10   40.14    2.17 
  -2  -4  10   39.56    2.21 
  -2  -4  10   39.22    2.14 
  -2  -4  10   39.63    2.19 
   2  -4 -10   39.41    2.32 
   2  -4 -10   38.51    2.24 
   2  -4 -10   37.48    2.17 
  -2   4  10   35.63    2.28 
  -2   4  10   37.21    2.23 
   2   4 -10   36.11    2.41 
   2   4 -10   38.48    2.16 
  -2   4  10   37.84    2.25 
  -2   4  10   37.56    2.23 
   2   4 -10   35.36    2.12 
  -2   4  10   37.10    2.21 
   1  -4 -10    9.10    0.78 
   1  -4 -10    8.70    0.58 
   1  -4 -10    8.66    0.56 
  -1  -4  10    8.64    0.59 
  -1  -4  10    8.53    0.55 
  -1  -4  10    8.01    0.61 
  -1  -4  10    8.79    0.53 
   1  -4 -10    8.45    0.80 
  -1   4  10    7.05    0.67 
  -1   4  10    6.86    0.63 
  -1   4  10    6.92    0.63 
   1   4 -10    7.24    0.58 
   1   4 -10    6.70    0.51 
   1   4 -10    7.01    0.80 
  -1   4  10    6.71    0.59 
   0  -4  10   16.95    1.06 
   0  -4  10   16.51    1.15 
   0  -4  10   17.69    1.11 
   0  -4 -10   16.76    1.08 
   0  -4 -10   17.37    1.21 
   0  -4 -10   16.71    1.26 
   0  -4 -10   17.21    1.10 
   0   4 -10   17.44    1.06 
   0   4  10   18.32    1.12 
   0   4  10   19.27    1.15 
   0   4  10   18.90    1.20 
   0   4 -10   19.42    1.13 
   0   4 -10   17.95    1.31 
   0   4  10   19.12    1.13 
   1  -4  10   36.19    2.11 
  -1  -4 -10   35.07    2.27 
   1  -4  10   37.30    2.15 
  -1  -4 -10   36.78    2.12 
  -1  -4 -10   36.42    2.12 
   1  -4  10   35.45    2.22 
  -1  -4 -10   36.13    2.15 
  -1  -4 -10   36.80    2.24 
   1  -4  10   35.35    2.11 
   1   4  10   39.35    2.16 
   1   4  10   38.40    2.17 
  -1   4 -10   39.14    2.17 
   1   4  10   38.75    2.14 
  -1   4 -10   36.58    2.32 
   1   4  10   37.68    2.22 
   2  -4  10   11.27    0.82 
   2  -4  10   11.74    0.74 
   2  -4  10   11.28    0.75 
  -2  -4 -10   11.06    0.93 
   2  -4  10   11.24    0.93 
  -2  -4 -10   11.99    0.81 
  -2  -4 -10   12.51    0.92 
   2   4  10   10.15    0.83 
   2   4  10    9.95    0.76 
  -2   4 -10   10.48    0.95 
  -2   4 -10   10.37    0.83 
   2   4  10   10.49    0.76 
   2   4  10    9.80    0.88 
  -3  -4 -10   16.01    1.20 
   3  -4  10   15.90    1.01 
   3  -4  10   15.50    1.10 
   3  -4  10   16.59    1.01 
   3  -4  10   16.21    1.23 
  -3  -4 -10   17.16    1.10 
  -3  -4 -10   16.91    1.16 
   3   4  10   15.01    1.00 
  -3   4 -10   15.63    0.99 
  -3   4 -10   14.54    1.22 
   3   4  10   15.63    1.03 
   3   4  10   14.28    1.08 
  -3   4 -10   14.58    1.11 
  -4  -4 -10   34.61    2.21 
  -4  -4 -10   34.62    2.12 
   4  -4  10   33.28    2.00 
   4  -4  10   32.44    2.26 
   4  -4  10   33.66    2.01 
   4  -4  10   32.50    2.10 
  -4  -4 -10   35.03    2.16 
   4   4  10   36.11    2.09 
  -4   4 -10   34.74    2.00 
  -4   4 -10   35.73    2.13 
   4   4  10   35.64    2.03 
  -4   4 -10   31.16    2.21 
  -5  -5  10    8.99    0.81 
   5  -5 -10    8.98    0.67 
  -5  -5  10    8.33    0.86 
  -5   5  10    9.13    0.79 
  -5   5  10    9.56    0.85 
  -5   5  10    8.33    0.84 
  -4  -5  10   13.94    1.03 
   4  -5 -10   14.88    0.88 
   4  -5 -10   13.47    1.05 
   4  -5 -10   14.78    0.91 
  -4  -5  10   14.60    0.84 
  -4  -5  10   13.46    1.39 
  -4  -5  10   14.14    0.98 
  -4   5  10   13.19    0.99 
  -4   5  10   13.42    1.06 
  -4   5  10   12.76    1.04 
  -4   5  10   13.75    1.02 
  -4   5  10   12.78    1.12 
  -3  -5  10   53.36    2.89 
   3  -5 -10   54.37    2.94 
   3  -5 -10   53.23    2.82 
  -3  -5  10   54.38    2.80 
   3  -5 -10   49.81    2.90 
  -3   5  10   47.25    2.89 
  -3   5  10   48.78    3.00 
  -3   5  10   47.38    2.91 
  -3   5  10   47.98    2.93 
  -3   5  10   46.21    2.97 
   2  -5 -10    2.08    0.28 
  -2  -5  10    2.43    0.38 
  -2  -5  10    2.04    0.35 
   2  -5 -10    1.79    0.37 
  -2  -5  10    1.76    0.24 
  -2  -5  10    2.07    0.28 
  -2  -5  10    1.59    0.34 
  -2   5  10    2.05    0.31 
   2   5 -10    2.54    0.30 
  -2   5  10    2.16    0.36 
  -2   5  10    1.93    0.35 
   2   5 -10    2.15    0.21 
  -2   5  10    1.78    0.37 
   1  -5 -10   16.48    0.96 
   1  -5 -10   15.40    1.11 
   1  -5 -10   15.20    1.13 
  -1  -5  10   15.43    0.89 
   1  -5 -10   15.64    0.93 
  -1  -5  10   15.47    0.92 
   1  -5 -10   15.17    0.93 
  -1  -5  10   14.99    0.95 
  -1  -5  10   15.38    0.87 
   1   5 -10   12.35    0.86 
  -1   5  10   13.40    0.99 
   1   5 -10   12.18    1.13 
  -1   5  10   12.91    1.01 
  -1   5  10   13.40    0.97 
  -1   5  10   12.59    0.95 
   0  -5 -10   39.44    2.48 
   0  -5  10   41.38    2.33 
   0  -5  10   37.63    2.37 
   0  -5 -10   39.43    2.32 
   0  -5 -10   40.41    2.33 
   0  -5 -10   41.01    2.46 
   0  -5  10   35.97    2.32 
   0  -5  10   40.28    2.29 
   0  -5 -10   38.30    2.34 
   0   5 -10   42.86    2.34 
   0   5  10   42.70    2.43 
   0   5 -10   43.34    2.55 
   0   5  10   43.68    2.39 
   0   5  10   43.19    2.36 
   0   5  10   41.94    2.36 
   1  -5  10    4.64    0.40 
  -1  -5 -10    4.70    0.53 
   1  -5  10    4.39    0.48 
  -1  -5 -10    5.03    0.65 
   1  -5  10    4.01    0.61 
  -1  -5 -10    4.64    0.51 
  -1  -5 -10    4.70    0.45 
   1  -5  10    4.72    0.42 
  -1  -5 -10    4.50    0.64 
   1   5  10    4.71    0.50 
   1   5  10    4.81    0.48 
  -1   5 -10    4.82    0.67 
   1   5  10    4.63    0.55 
   1   5  10    4.35    0.57 
  -1   5 -10    4.62    0.52 
  -2  -5 -10   28.56    1.91 
  -2  -5 -10   30.54    1.90 
   2  -5  10   28.37    1.73 
   2  -5  10   28.88    1.74 
   2  -5  10   27.13    1.88 
  -2  -5 -10   28.21    1.80 
   2  -5  10   27.37    1.78 
   2   5  10   32.31    1.76 
   2   5  10   30.67    1.88 
  -2   5 -10   30.79    1.68 
   2   5  10   30.91    1.79 
  -2   5 -10   30.46    1.97 
  -2   5 -10   31.66    1.82 
   2   5  10   32.13    1.83 
  -3  -5 -10   16.85    1.23 
   3  -5  10   17.16    1.29 
   3  -5  10   17.38    1.13 
   3  -5  10   17.27    1.04 
   3  -5  10   16.57    1.02 
  -3  -5 -10   16.93    1.19 
  -3  -5 -10   17.32    1.16 
  -3   5 -10   14.45    1.15 
   3   5  10   15.22    1.05 
  -3   5 -10   14.42    0.98 
   3   5  10   14.49    1.02 
   3   5  10   14.97    1.14 
  -3   5 -10   14.22    1.24 
   4  -5  10    9.13    0.70 
  -4  -5 -10    8.02    0.85 
  -4  -5 -10    9.98    1.20 
   4  -5  10    8.64    0.72 
  -4  -5 -10    9.17    0.98 
   4   5  10    8.83    0.76 
  -4   5 -10    8.69    0.96 
   4   5  10    9.59    0.91 
   4   5  10    9.50    0.73 
  -4   5 -10    8.84    0.93 
  -5  -6  10   14.51    1.12 
  -5  -6  10   14.72    1.06 
   5  -6 -10   15.11    0.96 
  -5   6  10   11.56    1.07 
  -5   6  10   12.33    1.03 
  -4  -6  10   23.82    1.60 
  -4  -6  10   24.65    1.44 
  -4  -6  10   23.47    1.56 
   4  -6 -10   24.84    1.52 
   4  -6 -10   22.90    1.48 
  -4   6  10   26.29    1.67 
  -4   6  10   25.84    1.68 
  -4   6  10   26.84    1.55 
  -4   6  10   25.57    1.59 
  -4   6  10   25.99    1.63 
  -4   6  10   26.41    1.74 
  -3  -6  10    0.25    0.30 
  -3  -6  10    0.25    0.25 
   3  -6 -10    0.42    0.39 
  -3  -6  10    0.30    0.17 
   3  -6 -10    0.18    0.24 
   3  -6 -10    0.15    0.21 
  -3   6  10    0.19    0.24 
  -3   6  10    0.29    0.33 
  -3   6  10    0.41    0.46 
  -3   6  10    0.27    0.30 
  -3   6  10    0.22    0.26 
  -2  -6  10   34.33    1.89 
   2  -6 -10   33.34    2.04 
   2  -6 -10   33.32    1.92 
   2  -6 -10   35.29    1.95 
  -2  -6  10   33.72    1.88 
  -2  -6  10   34.84    1.87 
  -2  -6  10   33.87    1.96 
  -2  -6  10   34.79    1.93 
   2   6 -10   32.63    1.87 
  -2   6  10   32.42    1.99 
  -2   6  10   31.49    2.08 
  -2   6  10   32.50    2.01 
  -2   6  10   31.65    2.03 
  -1  -6  10   18.84    1.08 
  -1  -6  10   19.14    1.12 
   1  -6 -10   18.46    1.18 
   1  -6 -10   18.20    1.10 
   1  -6 -10   18.99    1.14 
   1  -6 -10   19.43    1.32 
  -1   6  10   17.42    1.17 
  -1   6  10   17.09    1.23 
   1   6 -10   15.91    1.35 
  -1   6  10   17.31    1.19 
   1   6 -10   17.96    1.09 
  -1   6  10   17.06    1.22 
   0  -6  10   19.76    1.16 
   0  -6 -10   20.34    1.40 
   0  -6  10   19.76    1.18 
   0  -6  10   19.87    1.27 
   0  -6 -10   20.59    1.24 
   0  -6 -10   21.39    1.40 
   0  -6 -10   20.03    1.22 
   0  -6  10   20.48    1.21 
   0   6  10   19.44    1.25 
   0   6 -10   18.90    1.44 
   0   6  10   18.92    1.33 
   0   6 -10   17.98    1.21 
   0   6  10   19.21    1.25 
   0   6  10   18.77    1.29 
  -1  -6 -10   35.89    2.25 
   1  -6  10   36.53    2.20 
  -1  -6 -10   38.03    2.11 
   1  -6  10   36.55    2.10 
  -1  -6 -10   37.57    2.26 
  -1  -6 -10   36.67    2.14 
   1  -6  10   37.00    2.07 
   1  -6  10   35.73    2.08 
   1   6  10   37.45    2.18 
   1   6  10   33.97    2.20 
   1   6  10   35.72    2.13 
  -1   6 -10   36.34    2.32 
   1   6  10   35.12    2.12 
  -1   6 -10   36.11    2.13 
  -2  -6 -10    5.18    0.68 
   2  -6  10    5.02    0.47 
  -2  -6 -10    5.16    0.72 
   2  -6  10    4.99    0.59 
   2  -6  10    5.26    0.51 
  -2  -6 -10    4.69    0.70 
  -2  -6 -10    5.07    0.50 
  -2   6 -10    6.67    0.66 
   2   6  10    6.48    0.57 
   2   6  10    7.21    0.70 
  -3  -6 -10   11.86    1.07 
   3  -6  10   11.96    0.86 
  -3  -6 -10   11.90    1.06 
  -3  -6 -10   11.42    1.03 
   3  -6  10   11.52    0.84 
   3   6  10   14.05    0.89 
  -3   6 -10   13.30    1.12 
  -3   6 -10   13.28    1.03 
   3   6  10   13.26    1.04 
   3   6  10   12.39    0.91 
   4  -6  10   22.55    1.36 
   4  -6  10   21.28    1.36 
  -4  -6 -10   21.80    1.48 
  -4  -6 -10   20.92    1.55 
  -4   6 -10   20.45    1.58 
   4   6  10   19.73    1.30 
   4   6  10   20.55    1.48 
  -4   6 -10   18.99    1.47 
   4   6  10   19.37    1.36 
  -4  -7  10    4.51    0.61 
   4  -7 -10    4.18    0.57 
  -4  -7  10    3.83    0.66 
  -4   7  10    3.34    0.47 
  -4   7  10    3.50    0.68 
  -4   7  10    3.59    0.55 
  -4   7  10    3.36    0.65 
  -4   7  10    3.85    0.77 
  -4   7  10    3.29    0.57 
  -3  -7  10   20.78    1.32 
  -3  -7  10   20.17    1.34 
   3  -7 -10   20.87    1.31 
  -3  -7  10   20.74    1.21 
   3  -7 -10   20.15    1.49 
  -3   7  10   20.75    1.35 
  -3   7  10   21.88    1.40 
  -3   7  10   19.75    1.46 
  -3   7  10   20.91    1.36 
  -3   7  10   21.45    1.46 
   2  -7 -10    3.57    0.48 
  -2  -7  10    3.44    0.51 
   2  -7 -10    3.97    0.55 
  -2  -7  10    3.99    0.48 
  -2  -7  10    4.04    0.39 
  -2  -7  10    3.71    0.28 
  -2  -7  10    3.65    0.44 
  -2   7  10    3.47    0.58 
  -2   7  10    3.07    0.49 
  -2   7  10    2.86    0.51 
  -1  -7  10   15.17    0.97 
   1  -7 -10   14.95    1.15 
  -1  -7  10   14.69    0.94 
  -1  -7  10   14.83    0.99 
   1  -7 -10   15.08    1.23 
   1  -7 -10   15.44    1.01 
  -1  -7  10   14.85    0.90 
   1   7 -10   14.75    1.26 
  -1   7  10   14.81    1.15 
  -1   7  10   16.66    1.08 
  -1   7  10   16.31    1.15 
  -1   7  10   15.38    1.04 
  -1   7  10   15.63    1.18 
   0  -7  10   52.55    3.05 
   0  -7 -10   50.10    3.31 
   0  -7  10   52.55    3.18 
   0  -7 -10   57.62    3.10 
   0  -7 -10   52.93    3.18 
   0  -7 -10   56.21    3.26 
   0  -7  10   55.11    3.04 
   0   7 -10   55.34    3.33 
   0   7  10   55.67    3.14 
   0   7  10   56.99    3.18 
   0   7  10   54.68    3.12 
  -1  -7 -10    2.71    0.42 
  -1  -7 -10    2.59    0.40 
   1  -7  10    2.97    0.33 
   1  -7  10    2.61    0.40 
  -1  -7 -10    2.88    0.66 
  -1  -7 -10    3.60    0.67 
   1   7  10    2.47    0.38 
   1   7  10    2.01    0.43 
  -1   7 -10    2.21    0.52 
   1   7  10    1.83    0.34 
   2  -7  10   19.55    1.29 
  -2  -7 -10   21.02    1.48 
   2  -7  10   20.21    1.27 
  -2  -7 -10   20.44    1.41 
  -2  -7 -10   20.03    1.30 
  -2  -7 -10   21.23    1.48 
   2   7  10   21.49    1.35 
  -2   7 -10   20.87    1.54 
   2   7  10   21.89    1.32 
   2   7  10   23.14    1.45 
   3  -7  10   12.00    0.91 
   3  -7  10   12.80    0.90 
  -3  -7 -10   12.53    1.13 
  -3  -7 -10   12.39    1.12 
   3   7  10   14.69    0.96 
  -3   7 -10   13.60    1.21 
   3   7  10   13.40    0.98 
   3   7  10   15.17    1.14 
   3  -8 -10    2.46    0.59 
   3  -8 -10    2.14    0.38 
  -3  -8  10    2.15    0.40 
  -3  -8  10    2.55    0.49 
  -3   8  10    2.45    0.49 
  -3   8  10    3.11    0.52 
  -3   8  10    2.56    0.48 
  -3   8  10    2.71    0.54 
   2  -8 -10   11.04    1.50 
  -2  -8  10   10.63    0.70 
  -2  -8  10   11.00    0.82 
   2  -8 -10   11.09    0.82 
  -2  -8  10   11.20    0.81 
  -2   8  10    9.56    0.83 
  -2   8  10   10.05    0.91 
  -2   8  10    8.96    0.97 
  -2   8  10    9.94    0.89 
  -1  -8  10    8.28    0.80 
  -1  -8  10    7.03    0.71 
   1  -8 -10    7.89    0.91 
  -1  -8  10    7.94    0.57 
   1  -8 -10    8.06    0.71 
  -1   8  10   10.37    0.77 
   1   8 -10    9.55    1.04 
  -1   8  10    9.93    0.92 
  -1   8  10    9.58    0.81 
  -1   8  10   10.90    0.86 
   0  -8  10    2.29    0.30 
   0  -8 -10    2.06    0.50 
   0  -8  10    2.48    0.41 
   0  -8 -10    2.07    0.32 
  -1  -8 -10   59.41    3.32 
   1  -8  10   56.50    3.28 
   1  -8  10   58.56    3.26 
  -1  -8 -10   60.21    3.47 
  -1  -8 -10   60.58    3.50 
   1   8  10   56.33    3.41 
  -1   8 -10   55.96    3.53 
   1   8  10   59.13    3.41 
   1   8  10   57.36    3.32 
   1   8  10   59.12    3.36 
  -2  -8 -10    1.77    0.51 
  -2  -8 -10    1.49    0.49 
   2  -8  10    1.45    0.31 
  -2  -8 -10    1.43    0.30 
   2  -8  10    1.92    0.34 
   2   8  10    2.06    0.40 
  -2   8 -10    1.98    0.56 
   2   8  10    1.66    0.50 
   2   8  10    1.96    0.38 
   2   8  10    1.38    0.39 
   2  -9 -10    1.82    0.58 
   2  -9 -10    1.60    0.36 
  -2  -9  10    1.50    0.37 
  -2   9  10    2.45    0.49 
  -2   9  10    1.82    0.49 
  -2   9  10    1.55    0.55 
  -1  -9  10   14.29    0.97 
   1  -9 -10   14.06    1.26 
  -1  -9  10   14.46    0.89 
   1  -9 -10   14.74    1.05 
  -1   9  10   16.48    1.12 
  -1   9  10   15.80    1.14 
  -1   9  10   14.97    1.17 
  -1   9  10   16.00    1.31 
   0  -9 -10   14.93    1.29 
   0  -9 -10   16.00    1.35 
   0  -9  10   15.89    1.03 
   0  -9  10   15.25    0.95 
   0  -9 -10   15.64    1.06 
   0   9  10   16.22    1.15 
   0   9  10   15.06    1.32 
   0   9 -10   15.16    1.39 
   0   9  10   16.55    1.21 
   0   9  10   15.90    1.12 
  -6   0  11   23.88    1.54 
  -5   0  11    1.71    0.35 
  -5   0  11    1.84    0.41 
  -5   0  11    1.90    0.35 
  -4   0  11   14.77    1.02 
  -4   0  11   14.46    0.97 
  -4   0  11   15.23    1.05 
  -3   0  11   22.90    1.40 
  -3   0  11   22.19    1.34 
  -3   0  11   21.27    1.39 
  -3   0  11   21.98    1.36 
   3   0 -11   22.64    1.34 
  -2   0  11    0.43    0.20 
  -2   0  11    0.27    0.21 
   2   0 -11    0.28    0.37 
  -2   0  11    0.35    0.23 
  -2   0  11    0.33    0.19 
   2   0 -11    0.40    0.27 
  -2   0  11    0.34    0.18 
   1   0 -11   25.91    1.75 
  -1   0  11   24.88    1.58 
   1   0 -11   26.92    1.44 
   1   0 -11   26.62    1.59 
  -1   0  11   25.47    1.54 
   1   0 -11   25.53    1.44 
  -1   0  11   25.80    1.52 
  -1   0  11   25.06    1.51 
  -1   0  11   25.03    1.54 
   0   0 -11   45.46    2.87 
   0   0 -11   46.00    2.67 
   0   0 -11   47.65    2.75 
   0   0  11   46.99    2.70 
   0   0  11   48.20    2.77 
   0   0 -11   49.07    2.63 
   0   0  11   45.96    2.68 
   0   0  11   47.85    2.68 
   0   0  11   47.92    2.72 
  -1   0 -11    0.04    0.16 
   1   0  11    0.07    0.19 
  -1   0 -11    0.26    0.18 
   1   0  11   -0.02    0.17 
  -1   0 -11    0.12    0.27 
   1   0  11    0.16    0.19 
  -1   0 -11    0.04    0.27 
   1   0  11    0.22    0.33 
  -2   0 -11   13.65    1.00 
   2   0  11   13.43    0.90 
   2   0  11   13.69    1.10 
   2   0  11   13.45    0.89 
  -2   0 -11   12.97    1.08 
  -3   0 -11   14.22    1.03 
   3   0  11   14.43    0.95 
  -3   0 -11   14.86    1.09 
   3   0  11   14.65    0.99 
  -3   0 -11   14.04    1.17 
   3   0  11   14.02    1.23 
   4   0  11    4.17    0.49 
  -4   0 -11    4.65    0.74 
   4   0  11    4.40    0.60 
  -4   0 -11    4.40    0.69 
  -5  -1  11   24.60    1.66 
  -5  -1  11   23.88    1.57 
  -5  -1  11   23.17    1.57 
  -5   1  11   28.72    1.68 
  -5   1  11   27.21    1.65 
  -5   1  11   28.84    1.62 
  -4  -1  11   28.68    1.57 
  -4  -1  11   27.62    1.60 
  -4  -1  11   27.97    1.64 
  -4   1  11   24.15    1.63 
   4   1 -11   24.93    1.61 
  -4   1  11   26.26    1.66 
  -4   1  11   24.25    1.58 
  -3  -1  11    8.33    0.63 
  -3  -1  11    7.90    0.64 
   3  -1 -11    8.19    0.65 
  -3  -1  11    8.47    0.67 
  -3  -1  11    8.47    0.61 
  -3   1  11    7.41    0.76 
   3   1 -11    7.44    0.60 
  -3   1  11    7.74    0.63 
  -3   1  11    7.87    0.68 
  -3   1  11    6.93    0.66 
   2  -1 -11   30.07    1.89 
   2  -1 -11   31.76    1.73 
   2  -1 -11   30.97    1.72 
  -2  -1  11   30.99    1.85 
  -2  -1  11   30.49    1.84 
  -2  -1  11   30.39    1.80 
  -2  -1  11   31.25    1.80 
  -2  -1  11   31.24    1.83 
   2   1 -11   30.50    2.06 
  -2   1  11   31.09    1.86 
   2   1 -11   32.50    1.87 
  -2   1  11   32.42    1.83 
  -2   1  11   31.61    1.82 
  -2   1  11   30.10    1.85 
  -1  -1  11    8.47    0.66 
  -1  -1  11    8.42    0.64 
   1  -1 -11    8.56    0.61 
   1  -1 -11    8.22    0.77 
   1  -1 -11    8.80    0.62 
  -1  -1  11    8.43    0.69 
  -1  -1  11    8.78    0.69 
   1  -1 -11    8.29    0.89 
  -1  -1  11    8.81    0.75 
  -1   1  11   11.56    0.72 
  -1   1  11   11.08    0.76 
  -1   1  11   11.55    0.74 
  -1   1  11   11.42    0.70 
   1   1 -11   11.33    0.76 
  -1   1  11   11.56    0.70 
   0  -1  11   12.65    0.86 
   0  -1  11   12.80    0.89 
   0  -1 -11   12.99    0.84 
   0  -1  11   13.33    0.99 
   0  -1 -11   12.85    1.07 
   0  -1 -11   13.30    1.00 
   0  -1 -11   13.49    0.84 
   0  -1  11   13.57    0.87 
   0  -1  11   12.88    0.91 
   0   1 -11   13.97    1.11 
   0   1  11   14.08    0.89 
   0   1  11   13.58    0.97 
   0   1 -11   14.18    0.80 
   0   1  11   13.67    0.90 
   0   1  11   13.56    0.89 
   0   1 -11   14.06    0.96 
   0   1  11   14.18    0.95 
   0   1 -11   13.93    0.80 
  -1  -1 -11   35.66    2.13 
   1  -1  11   36.62    2.27 
   1  -1  11   35.79    2.19 
   1  -1  11   36.10    2.15 
  -1  -1 -11   36.82    2.24 
   1  -1  11   35.04    2.14 
  -1  -1 -11   33.46    2.21 
  -1  -1 -11   34.41    2.32 
  -1   1 -11   38.74    2.11 
  -1   1 -11   40.87    2.11 
   1   1  11   39.85    2.16 
   1   1  11   40.22    2.28 
  -1   1 -11   37.05    2.35 
   1   1  11   39.04    2.17 
   1   1  11   39.06    2.17 
  -1   1 -11   39.21    2.23 
   2  -1  11   34.98    1.90 
   2  -1  11   35.92    2.08 
  -2  -1 -11   35.35    2.02 
  -2  -1 -11   36.21    2.11 
  -2  -1 -11   35.48    1.89 
   2  -1  11   34.57    1.90 
  -2   1 -11   29.34    1.96 
   2   1  11   29.21    1.89 
  -2   1 -11   28.78    1.86 
   2   1  11   31.19    2.05 
  -2   1 -11   28.85    2.07 
   2   1  11   28.96    1.90 
  -3  -1 -11    6.33    0.80 
  -3  -1 -11    6.22    0.77 
   3  -1  11    6.88    0.95 
   3  -1  11    6.62    0.58 
   3  -1  11    6.85    0.62 
   3   1  11    6.88    0.65 
  -3   1 -11    8.12    0.75 
   3   1  11    7.82    0.60 
  -3   1 -11    7.83    0.84 
  -3   1 -11    7.48    0.62 
   3   1  11    8.08    0.95 
   4  -1  11   17.53    1.18 
  -4  -1 -11   18.59    1.31 
  -4  -1 -11   17.95    1.38 
   4  -1  11   18.93    1.14 
   4   1  11   16.55    1.14 
  -4   1 -11   17.18    1.37 
  -4   1 -11   18.06    1.30 
   4   1  11   16.78    1.20 
  -5  -2  11    5.71    0.73 
  -5  -2  11    6.14    0.70 
  -5  -2  11    6.14    0.59 
  -5  -2  11    5.58    0.51 
  -5   2  11    4.95    0.64 
  -5   2  11    4.74    0.65 
  -5   2  11    4.19    0.64 
  -4  -2  11   14.46    1.09 
  -4  -2  11   12.46    0.96 
  -4  -2  11   12.58    0.89 
  -4   2  11   13.69    0.96 
   4   2 -11   14.00    0.84 
  -4   2  11   13.76    1.00 
  -4   2  11   13.66    1.01 
   3  -2 -11   49.14    2.52 
  -3  -2  11   45.02    2.62 
  -3  -2  11   46.43    2.62 
  -3  -2  11   48.52    2.61 
  -3  -2  11   49.36    2.66 
  -3   2  11   43.16    2.62 
  -3   2  11   45.26    2.65 
   3   2 -11   43.84    2.57 
  -3   2  11   43.14    2.68 
  -3   2  11   43.25    2.66 
   2  -2 -11    3.12    0.58 
  -2  -2  11    3.11    0.43 
  -2  -2  11    2.97    0.40 
  -2  -2  11    3.13    0.33 
  -2  -2  11    3.01    0.44 
   2  -2 -11    3.18    0.31 
   2  -2 -11    3.04    0.33 
  -2  -2  11    3.26    0.41 
   2  -2 -11    2.56    0.38 
   2   2 -11    3.41    0.46 
  -2   2  11    3.06    0.46 
   2   2 -11    2.74    0.63 
  -2   2  11    3.65    0.43 
  -2   2  11    3.40    0.49 
  -1  -2  11   37.74    2.16 
  -1  -2  11   37.09    2.19 
  -1  -2  11   36.49    2.22 
  -1  -2  11   37.00    2.19 
   1  -2 -11   36.72    2.38 
  -1  -2  11   37.14    2.15 
   1  -2 -11   37.37    2.13 
   1  -2 -11   39.63    2.14 
   1  -2 -11   38.09    2.28 
   1   2 -11   38.79    2.21 
  -1   2  11   38.34    2.21 
  -1   2  11   38.09    2.19 
  -1   2  11   37.71    2.24 
   1   2 -11   38.17    2.41 
  -1   2  11   39.22    2.20 
   0  -2  11   26.27    1.72 
   0  -2  11   26.45    1.67 
   0  -2  11   26.10    1.62 
   0  -2 -11   26.01    1.61 
   0  -2 -11   25.42    1.74 
   0  -2  11   25.93    1.63 
   0  -2 -11   25.28    1.82 
   0  -2 -11   26.85    1.62 
   0   2  11   30.64    1.67 
   0   2 -11   30.03    1.70 
   0   2  11   30.29    1.67 
   0   2 -11   31.28    1.89 
   0   2  11   30.86    1.68 
   0   2  11   31.15    1.75 
   1  -2  11   17.79    1.17 
  -1  -2 -11   17.42    1.31 
   1  -2  11   17.42    1.10 
   1  -2  11   17.16    1.11 
  -1  -2 -11   17.96    1.10 
  -1  -2 -11   18.76    1.25 
   1  -2  11   17.60    1.26 
  -1   2 -11   17.78    1.19 
  -1   2 -11   18.92    1.06 
   1   2  11   18.08    1.13 
   1   2  11   18.12    1.15 
  -1   2 -11   18.07    1.32 
   1   2  11   18.62    1.26 
   1   2  11   18.64    1.14 
  -1   2 -11   18.09    1.06 
   2  -2  11   11.78    0.89 
   2  -2  11   12.35    1.04 
  -2  -2 -11   11.52    0.79 
   2  -2  11   11.79    0.80 
  -2  -2 -11   12.19    0.95 
   2  -2  11   12.32    0.80 
  -2  -2 -11   12.55    1.02 
  -2   2 -11   11.09    0.89 
  -2   2 -11   11.04    0.77 
   2   2  11   11.20    1.02 
   2   2  11   10.89    0.80 
  -2   2 -11   11.19    1.00 
   2   2  11   11.86    0.85 
   3  -2  11    7.01    0.96 
  -3  -2 -11    7.03    0.86 
   3  -2  11    6.87    0.63 
  -3  -2 -11    7.67    0.82 
   3  -2  11    7.10    0.64 
  -3   2 -11    8.65    0.88 
   3   2  11    9.06    0.65 
   3   2  11    9.65    1.00 
  -3   2 -11    9.46    0.82 
   3   2  11    9.14    0.75 
  -3   2 -11    8.51    0.66 
   4  -2  11    3.45    0.46 
  -4  -2 -11    3.21    0.52 
  -4  -2 -11    3.29    0.74 
   4  -2  11    3.52    0.55 
   4  -2  11    3.30    0.74 
   4   2  11    3.77    0.46 
  -4   2 -11    3.83    0.70 
  -4   2 -11    3.69    0.72 
   4   2  11    4.17    0.64 
  -5  -3  11   29.96    1.80 
  -5  -3  11   27.65    1.67 
  -5  -3  11   27.60    1.84 
  -5  -3  11   28.43    1.81 
  -5   3  11   27.85    1.80 
  -5   3  11   26.90    1.80 
  -5   3  11   29.67    1.79 
  -4  -3  11   19.71    1.21 
  -4  -3  11   20.75    1.24 
  -4  -3  11   20.73    1.34 
  -4  -3  11   22.28    1.22 
  -4   3  11   19.62    1.37 
  -4   3  11   20.25    1.32 
  -4   3  11   19.80    1.38 
  -3  -3  11    0.12    0.23 
  -3  -3  11    0.28    0.21 
   3  -3 -11    0.11    0.18 
  -3  -3  11    0.18    0.19 
   3  -3 -11    0.17    0.30 
  -3  -3  11    0.24    0.23 
  -3   3  11    0.38    0.27 
  -3   3  11    0.26    0.24 
  -3   3  11    0.24    0.25 
  -3   3  11    0.25    0.34 
   3   3 -11    0.40    0.18 
  -2  -3  11   27.25    1.71 
  -2  -3  11   27.55    1.72 
   2  -3 -11   30.93    1.67 
  -2  -3  11   28.60    1.66 
  -2  -3  11   27.09    1.68 
   2  -3 -11   27.78    1.65 
  -2  -3  11   28.79    1.71 
   2  -3 -11   28.33    1.83 
   2  -3 -11   28.01    1.76 
   2   3 -11   29.06    1.97 
  -2   3  11   30.74    1.79 
  -2   3  11   29.75    1.73 
  -2   3  11   30.16    1.74 
  -2   3  11   30.58    1.76 
  -1  -3  11   44.78    2.53 
   1  -3 -11   43.51    2.70 
  -1  -3  11   45.04    2.51 
   1  -3 -11   47.04    2.47 
  -1  -3  11   45.04    2.51 
   1  -3 -11   45.42    2.46 
  -1  -3  11   45.28    2.46 
  -1  -3  11   44.77    2.46 
   1  -3 -11   47.04    2.62 
  -1   3  11   39.74    2.50 
  -1   3  11   41.26    2.52 
  -1   3  11   40.36    2.55 
   1   3 -11   42.77    2.51 
  -1   3  11   41.45    2.51 
   1   3 -11   40.12    2.71 
   0  -3  11   17.89    1.09 
   0  -3 -11   17.71    1.32 
   0  -3  11   18.88    1.15 
   0  -3 -11   18.40    1.25 
   0  -3 -11   18.68    1.09 
   0  -3  11   17.82    1.20 
   0  -3  11   18.38    1.08 
   0   3  11   16.91    1.20 
   0   3  11   17.32    1.13 
   0   3  11   16.94    1.12 
   0   3  11   17.44    1.14 
   0   3 -11   16.56    1.31 
   0   3 -11   17.27    1.15 
   1  -3  11   16.80    1.04 
   1  -3  11   17.28    1.11 
  -1  -3 -11   16.94    1.04 
   1  -3  11   16.49    1.19 
  -1  -3 -11   16.43    1.21 
  -1  -3 -11   16.06    1.04 
   1  -3  11   16.04    1.02 
  -1  -3 -11   17.17    1.26 
   1   3  11   16.90    1.07 
  -1   3 -11   16.46    1.11 
   1   3  11   15.52    1.17 
  -1   3 -11   16.82    1.27 
  -1   3 -11   15.96    0.95 
  -1   3 -11   16.57    0.95 
   1   3  11   17.34    1.07 
   1   3  11   16.41    1.09 
  -2  -3 -11    1.45    0.42 
   2  -3  11    1.08    0.23 
   2  -3  11    1.12    0.33 
   2  -3  11    1.23    0.44 
  -2  -3 -11    1.62    0.44 
   2  -3  11    1.05    0.25 
   2   3  11    1.21    0.28 
  -2   3 -11    1.30    0.42 
  -2   3 -11    1.13    0.35 
  -2   3 -11    1.26    0.23 
   2   3  11    1.09    0.32 
   2   3  11    1.89    0.49 
   2   3  11    1.30    0.27 
   3  -3  11   10.40    0.82 
  -3  -3 -11   10.59    1.04 
   3  -3  11   11.23    1.24 
   3  -3  11   11.27    0.84 
  -3  -3 -11   11.15    0.99 
   3   3  11   14.40    0.96 
   3   3  11   13.80    0.86 
  -3   3 -11   12.23    1.30 
  -3   3 -11   12.81    1.06 
  -4  -3 -11    8.18    0.97 
   4  -3  11    8.03    0.81 
   4  -3  11    9.08    0.74 
  -4  -3 -11    8.61    0.93 
  -5  -4  11   10.09    0.88 
  -5  -4  11    9.18    0.95 
  -5   4  11    8.41    0.87 
  -5   4  11    9.06    0.86 
  -5   4  11    9.87    0.92 
   4  -4 -11   21.46    1.18 
  -4  -4  11   21.19    1.31 
  -4  -4  11   20.45    1.19 
  -4   4  11   18.33    1.32 
  -4   4  11   17.47    1.29 
  -4   4  11   18.51    1.35 
   3  -4 -11   10.38    0.69 
  -3  -4  11   10.28    0.70 
  -3  -4  11   11.00    0.80 
  -3  -4  11   10.62    0.69 
   3  -4 -11   10.87    0.71 
  -3  -4  11    9.71    0.67 
  -3   4  11    9.57    0.86 
  -3   4  11   10.37    0.86 
  -3   4  11   10.15    0.89 
  -3   4  11    9.41    0.79 
  -2  -4  11    3.09    0.43 
  -2  -4  11    3.06    0.36 
   2  -4 -11    3.30    0.54 
   2  -4 -11    2.99    0.41 
  -2  -4  11    2.67    0.43 
   2  -4 -11    2.82    0.37 
   2  -4 -11    2.97    0.45 
  -2  -4  11    3.15    0.31 
   2   4 -11    2.70    0.39 
  -2   4  11    2.30    0.50 
  -2   4  11    2.79    0.45 
  -2   4  11    2.67    0.40 
  -2   4  11    2.59    0.44 
  -2   4  11    2.03    0.37 
   1  -4 -11   30.25    1.65 
  -1  -4  11   27.61    1.69 
   1  -4 -11   28.92    1.82 
  -1  -4  11   27.94    1.67 
  -1  -4  11   27.53    1.60 
  -1  -4  11   27.52    1.62 
  -1  -4  11   28.71    1.67 
   1  -4 -11   27.14    1.86 
  -1   4  11   28.04    1.76 
  -1   4  11   28.85    1.71 
   1   4 -11   26.92    1.89 
  -1   4  11   27.65    1.70 
  -1   4  11   26.17    1.68 
   0  -4  11   28.29    1.63 
   0  -4 -11   28.66    1.88 
   0  -4 -11   30.67    1.67 
   0  -4  11   27.88    1.65 
   0  -4 -11   28.16    1.66 
   0  -4  11   29.19    1.70 
   0  -4 -11   29.40    1.83 
   0  -4  11   29.02    1.76 
   0   4  11   27.38    1.69 
   0   4  11   27.95    1.77 
   0   4  11   27.52    1.70 
   0   4 -11   27.38    1.70 
   0   4  11   28.29    1.72 
   0   4 -11   26.64    1.88 
  -1  -4 -11    0.83    0.38 
   1  -4  11    0.95    0.40 
   1  -4  11    0.75    0.30 
  -1  -4 -11    1.08    0.40 
   1  -4  11    0.94    0.21 
   1  -4  11    0.93    0.22 
  -1  -4 -11    0.89    0.24 
   1   4  11    0.65    0.32 
   1   4  11    0.98    0.28 
  -1   4 -11    1.18    0.41 
   1   4  11    0.93    0.29 
  -1   4 -11    1.13    0.31 
   1   4  11    0.78    0.24 
  -2  -4 -11   21.81    1.63 
  -2  -4 -11   22.65    1.44 
   2  -4  11   21.82    1.52 
  -2  -4 -11   23.54    1.62 
   2  -4  11   22.52    1.43 
   2  -4  11   22.68    1.44 
  -2   4 -11   25.47    1.68 
   2   4  11   26.32    1.53 
   2   4  11   24.99    1.48 
  -2   4 -11   25.69    1.55 
   2   4  11   26.09    1.47 
   3  -4  11   13.54    1.04 
   3  -4  11   13.67    1.04 
  -3  -4 -11   14.66    1.28 
  -3  -4 -11   14.33    1.24 
   3  -4  11   14.23    1.21 
   3   4  11   18.57    1.20 
  -3   4 -11   18.22    1.33 
  -3   4 -11   18.87    1.25 
   3   4  11   18.88    1.10 
   3   4  11   19.19    1.11 
  -4  -5  11    3.11    0.41 
  -4  -5  11    3.47    0.51 
   4  -5 -11    3.28    0.49 
  -4  -5  11    2.86    0.44 
  -4   5  11    3.10    0.44 
  -4   5  11    2.53    0.47 
  -4   5  11    3.07    0.52 
  -3  -5  11    0.86    0.22 
  -3  -5  11    1.09    0.31 
   3  -5 -11    1.04    0.27 
  -3   5  11    1.35    0.32 
  -3   5  11    1.65    0.44 
  -3   5  11    0.98    0.34 
  -3   5  11    1.91    0.41 
  -2  -5  11   16.42    0.98 
  -2  -5  11   16.95    1.08 
  -2  -5  11   15.30    1.04 
   2  -5 -11   15.48    1.03 
  -2  -5  11   16.14    1.07 
   2  -5 -11   16.45    1.20 
   2  -5 -11   17.14    1.06 
  -2  -5  11   16.00    1.01 
  -2   5  11   16.50    1.19 
   2   5 -11   17.58    0.97 
  -2   5  11   16.57    1.11 
  -2   5  11   16.95    1.21 
  -2   5  11   17.22    1.17 
   1  -5 -11   16.38    1.32 
  -1  -5  11   16.84    1.03 
  -1  -5  11   17.05    1.01 
  -1  -5  11   17.25    1.09 
   1  -5 -11   16.87    1.06 
   1  -5 -11   17.30    1.27 
   1  -5 -11   16.67    1.07 
  -1  -5  11   16.47    1.21 
  -1   5  11   16.86    1.23 
   1   5 -11   15.87    1.33 
  -1   5  11   17.12    1.16 
  -1   5  11   17.05    1.14 
  -1   5  11   16.52    1.11 
   0  -5 -11   15.48    1.19 
   0  -5 -11   15.42    0.99 
   0  -5  11   14.44    0.96 
   0  -5 -11   15.28    1.23 
   0  -5  11   14.63    0.93 
   0  -5  11   15.18    1.02 
   0   5  11   15.23    1.13 
   0   5  11   15.26    1.07 
   0   5  11   14.57    1.01 
   0   5  11   16.14    1.05 
   0   5 -11   15.88    1.25 
  -1  -5 -11   29.50    1.93 
   1  -5  11   29.70    1.80 
  -1  -5 -11   29.99    1.97 
   1  -5  11   29.37    1.73 
   1  -5  11   29.60    1.76 
  -1  -5 -11   30.83    1.77 
   1   5  11   30.69    1.81 
   1   5  11   31.31    1.81 
  -1   5 -11   27.13    1.80 
  -1   5 -11   29.83    2.01 
   1   5  11   31.72    1.85 
   1   5  11   30.08    1.90 
  -2  -5 -11    1.04    0.44 
   2  -5  11    0.82    0.21 
  -2  -5 -11    0.92    0.26 
  -2  -5 -11    1.32    0.45 
   2  -5  11    0.47    0.37 
   2  -5  11    0.79    0.26 
  -2   5 -11    0.98    0.39 
   2   5  11    0.68    0.35 
   2   5  11    0.83    0.31 
   2   5  11    0.98    0.27 
  -2   5 -11    0.68    0.41 
   3  -5  11    6.33    0.62 
  -3  -5 -11    6.05    0.89 
   3  -5  11    6.82    0.60 
  -3  -5 -11    6.42    0.89 
  -3   5 -11    6.99    0.87 
   3   5  11    7.71    0.85 
   3   5  11    8.09    0.66 
   3   5  11    7.57    0.67 
  -4  -6  11   18.45    1.31 
   4  -6 -11   18.21    1.23 
  -4  -6  11   17.11    1.36 
  -4   6  11   20.29    1.33 
  -4   6  11   22.08    1.48 
  -4   6  11   19.56    1.38 
   3  -6 -11    7.18    0.66 
  -3  -6  11    7.94    0.69 
   3  -6 -11    7.20    0.64 
  -3  -6  11    7.14    0.69 
  -3  -6  11    7.38    0.57 
  -2  -6  11    2.22    0.37 
  -2  -6  11    2.16    0.34 
  -2  -6  11    2.13    0.34 
   2  -6 -11    1.74    0.48 
  -2  -6  11    1.96    0.27 
   2  -6 -11    1.80    0.33 
  -2   6  11    2.12    0.41 
  -2   6  11    2.06    0.45 
  -2   6  11    2.26    0.36 
  -2   6  11    2.17    0.46 
  -1  -6  11   28.93    1.63 
   1  -6 -11   28.27    1.80 
  -1  -6  11   28.43    1.59 
  -1  -6  11   28.91    1.67 
   1  -6 -11   30.25    1.68 
   1  -6 -11   28.26    1.86 
  -1   6  11   28.02    1.77 
  -1   6  11   26.50    1.70 
  -1   6  11   27.01    1.74 
   1   6 -11   25.67    1.92 
  -1   6  11   25.93    1.79 
   0  -6 -11   28.03    1.81 
   0  -6  11   27.72    1.52 
   0  -6  11   29.21    1.61 
   0  -6  11   28.04    1.56 
   0  -6 -11   29.50    1.81 
   0  -6 -11   28.05    1.59 
   0   6 -11   22.94    1.81 
   0   6  11   23.20    1.60 
   0   6  11   23.21    1.62 
   0   6  11   24.26    2.09 
   0   6  11   23.44    1.65 
  -1  -6 -11    8.54    0.68 
   1  -6  11    8.68    0.67 
   1  -6  11    9.07    0.61 
  -1  -6 -11    8.48    0.94 
  -1  -6 -11    8.26    0.93 
   1   6  11    8.66    0.84 
   1   6  11    8.66    0.76 
  -1   6 -11    7.79    0.93 
   1   6  11    7.43    0.68 
  -2  -6 -11   19.95    1.53 
  -2  -6 -11   20.12    1.55 
  -2  -6 -11   20.11    1.34 
   2  -6  11   19.96    1.30 
   2  -6  11   19.88    1.33 
   2   6  11   23.52    1.39 
   2   6  11   23.90    1.47 
  -2   6 -11   23.10    1.60 
   2   6  11   22.88    1.39 
   3  -7 -11    6.31    0.68 
  -3  -7  11    6.74    0.78 
  -3  -7  11    6.49    0.71 
  -3   7  11    6.40    0.82 
  -3   7  11    7.06    0.79 
  -2  -7  11   47.12    2.71 
   2  -7 -11   47.74    2.97 
   2  -7 -11   47.26    2.70 
  -2  -7  11   42.25    2.66 
  -2   7  11   48.91    2.78 
  -2   7  11   46.36    2.86 
  -2   7  11   47.76    2.75 
   1  -7 -11    0.80    0.29 
  -1  -7  11    0.78    0.25 
   1  -7 -11    0.71    0.48 
   1  -7 -11    0.77    0.51 
  -1  -7  11    0.64    0.17 
  -1   7  11    0.38    0.37 
   1   7 -11    0.02    0.45 
  -1   7  11    0.18    0.39 
  -1   7  11    0.15    0.44 
   0  -7 -11    8.15    0.98 
   0  -7 -11    8.77    0.71 
   0  -7 -11    8.82    0.99 
   0  -7  11    8.43    0.59 
   0  -7  11    7.92    0.67 
   0   7  11    9.42    0.92 
   0   7 -11    8.42    1.01 
   0   7  11    8.11    0.73 
   0   7  11    8.71    0.83 
  -1  -7 -11   14.33    1.21 
   1  -7  11   13.29    0.93 
   1  -7  11   13.20    0.87 
  -1  -7 -11   14.59    1.23 
  -1  -7 -11   13.62    0.95 
  -1   7 -11   13.40    1.24 
   1   7  11   14.39    1.15 
   1   7  11   14.33    1.04 
   1   7  11   13.05    1.00 
  -4   0  12   19.82    1.30 
  -4   0  12   19.35    1.24 
  -4   0  12   18.23    1.28 
  -3   0  12    8.33    0.72 
  -3   0  12    8.19    0.68 
  -3   0  12    7.87    0.72 
  -2   0  12   33.90    1.99 
  -2   0  12   33.99    2.03 
   2   0 -12   34.20    2.07 
  -2   0  12   33.77    1.98 
  -1   0  12   14.11    1.05 
  -1   0  12   13.85    0.90 
   1   0 -12   12.98    1.16 
  -1   0  12   13.84    0.91 
   1   0 -12   13.74    1.02 
  -1   0  12   13.72    0.94 
   0   0 -12    4.82    0.42 
   0   0  12    4.73    0.47 
   0   0 -12    4.57    0.71 
   0   0  12    4.96    0.49 
   0   0  12    4.36    0.72 
   0   0  12    4.78    0.48 
   0   0 -12    4.72    0.54 
   0   0 -12    4.79    0.69 
   1   0  12    6.51    0.58 
   1   0  12    7.18    0.89 
  -1   0 -12    6.60    0.55 
   1   0  12    6.65    0.59 
  -1   0 -12    6.99    0.83 
   1   0  12    6.59    0.58 
  -1   0 -12    6.95    0.75 
  -1   0 -12    7.27    0.55 
   2   0  12   18.38    1.45 
  -2   0 -12   18.69    1.32 
  -2   0 -12   18.05    1.17 
  -2   0 -12   18.59    1.15 
   2   0  12   19.31    1.20 
  -2   0 -12   17.74    1.39 
   2   0  12   18.45    1.18 
  -3   0 -12   14.88    1.24 
  -3   0 -12   15.63    1.23 
   3   0  12   15.03    1.05 
   3   0  12   14.89    1.02 
  -4  -1  12    5.73    0.62 
  -4  -1  12    5.38    0.62 
  -4  -1  12    6.25    0.64 
  -4   1  12    6.11    0.69 
  -4   1  12    5.91    0.65 
  -4   1  12    5.52    0.67 
  -3  -1  12   31.50    1.76 
  -3  -1  12   31.55    1.70 
  -3  -1  12   30.53    1.74 
  -3   1  12   26.12    1.75 
  -3   1  12   25.62    1.71 
  -3   1  12   25.12    1.75 
  -2  -1  12    1.16    0.26 
  -2  -1  12    1.23    0.24 
  -2  -1  12    1.33    0.31 
   2  -1 -12    1.70    0.42 
  -2   1  12    1.84    0.31 
  -2   1  12    2.08    0.31 
   2   1 -12    0.83    0.32 
   1  -1 -12   26.40    1.60 
  -1  -1  12   28.40    1.69 
   1  -1 -12   25.03    1.73 
  -1  -1  12   25.98    1.46 
   1  -1 -12   27.02    1.39 
   1  -1 -12   26.37    1.41 
  -1  -1  12   25.62    1.45 
  -1  -1  12   25.72    1.49 
   1   1 -12   20.80    1.51 
  -1   1  12   21.76    1.48 
   1   1 -12   21.42    1.69 
  -1   1  12   21.91    1.46 
  -1   1  12   21.57    1.45 
  -1   1  12   20.33    1.64 
   0  -1 -12   22.60    1.48 
   0  -1  12   21.76    1.37 
   0  -1  12   23.13    1.35 
   0  -1 -12   22.36    1.31 
   0  -1  12   22.42    1.48 
   0  -1 -12   23.31    1.32 
   0  -1  12   22.43    1.35 
   0  -1 -12   21.82    1.59 
   0   1  12   21.83    1.50 
   0   1 -12   22.97    1.46 
   0   1 -12   21.77    1.59 
   0   1 -12   21.59    1.26 
   0   1  12   21.80    1.38 
   0   1  12   21.28    1.35 
   0   1  12   21.83    1.36 
  -1  -1 -12    2.08    0.51 
  -1  -1 -12    1.93    0.43 
   1  -1  12    1.42    0.26 
  -1  -1 -12    1.62    0.27 
   1  -1  12    1.50    0.28 
   1  -1  12    1.84    0.49 
  -1   1 -12    1.60    0.47 
   1   1  12    1.38    0.27 
  -1   1 -12    1.62    0.24 
  -1   1 -12    1.68    0.40 
   1   1  12    1.78    0.51 
   1   1  12    1.41    0.29 
   1   1  12    1.54    0.30 
  -1   1 -12    1.87    0.40 
  -2  -1 -12   33.70    1.96 
  -2  -1 -12   32.64    2.20 
  -2  -1 -12   32.93    2.10 
   2  -1  12   32.85    1.98 
  -2  -1 -12   34.11    1.98 
   2  -1  12   32.41    1.97 
   2   1  12   34.31    2.20 
   2   1  12   34.06    2.01 
  -2   1 -12   33.78    2.20 
  -2   1 -12   34.61    2.26 
   2   1  12   33.85    1.98 
  -2   1 -12   34.64    1.94 
   3  -1  12   11.97    0.84 
  -3  -1 -12   11.81    1.09 
  -3  -1 -12   13.51    1.08 
   3  -1  12   12.03    0.88 
  -3   1 -12   10.55    1.04 
   3   1  12    9.90    0.92 
   3   1  12   10.62    0.91 
  -3   1 -12   10.92    1.17 
  -4  -2  12    3.15    0.55 
  -4  -2  12    3.56    0.54 
  -4  -2  12    2.99    0.50 
  -4   2  12    5.04    0.63 
  -3  -2  12    0.46    0.26 
  -3  -2  12    0.64    0.25 
  -3  -2  12    0.41    0.26 
  -3   2  12    0.18    0.28 
  -3   2  12    0.46    0.27 
  -3   2  12    0.31    0.29 
   2  -2 -12   31.47    1.65 
  -2  -2  12   29.93    1.76 
  -2  -2  12   30.64    1.71 
  -2  -2  12   30.50    1.69 
   2  -2 -12   31.34    1.87 
  -2   2  12   26.34    1.74 
  -2   2  12   25.65    1.74 
  -2   2  12   25.82    1.76 
   1  -2 -12   14.94    1.25 
  -1  -2  12   14.77    0.97 
   1  -2 -12   15.35    0.94 
   1  -2 -12   15.13    1.15 
  -1  -2  12   15.00    0.95 
   1  -2 -12   15.11    0.93 
  -1  -2  12   15.63    1.01 
  -1   2  12   14.92    1.10 
  -1   2  12   14.98    1.01 
  -1   2  12   15.41    1.04 
  -1   2  12   15.09    1.01 
   1   2 -12   14.52    1.25 
   0  -2 -12    6.63    0.58 
   0  -2  12    7.42    0.58 
   0  -2 -12    7.85    0.82 
   0  -2  12    6.77    0.60 
   0  -2 -12    7.53    0.88 
   0  -2  12    7.71    0.62 
   0   2 -12    7.76    0.85 
   0   2  12    8.00    0.66 
   0   2  12    7.96    0.65 
   0   2  12    7.97    0.81 
   0   2 -12    8.50    0.75 
   0   2  12    8.18    0.64 
  -1  -2 -12   37.33    2.19 
  -1  -2 -12   38.20    2.02 
  -1  -2 -12   36.37    2.02 
  -1  -2 -12   35.37    2.26 
   1  -2  12   37.96    2.03 
   1  -2  12   36.95    2.03 
   1   2  12   32.79    2.19 
  -1   2 -12   33.15    1.96 
   1   2  12   31.58    2.05 
   1   2  12   33.04    2.05 
   1   2  12   32.18    2.04 
  -1   2 -12   33.78    2.11 
  -1   2 -12   33.41    2.27 
   2  -2  12   11.74    0.84 
  -2  -2 -12   12.48    0.85 
  -2  -2 -12   12.55    1.08 
   2  -2  12   12.02    0.85 
  -2  -2 -12   11.44    1.09 
   2   2  12   11.83    0.87 
  -2   2 -12   12.04    1.01 
  -2   2 -12   11.60    1.07 
   2   2  12   11.88    0.91 
   2   2  12   11.80    0.85 
  -2   2 -12   12.79    0.81 
   2   2  12   13.57    1.21 
   3  -2  12    8.52    0.71 
  -3  -2 -12    8.74    0.94 
   3  -2  12    8.98    0.75 
  -3  -2 -12    8.71    0.97 
  -3   2 -12    7.83    0.90 
   3   2  12    7.16    0.81 
  -4  -3  12    6.10    0.56 
  -4  -3  12    7.00    0.65 
  -4  -3  12    6.81    0.72 
  -4   3  12    7.30    0.79 
  -4   3  12    7.48    0.74 
  -4   3  12    7.08    0.75 
  -3  -3  12   22.82    1.40 
  -3  -3  12   23.51    1.38 
  -3  -3  12   23.84    1.46 
  -3   3  12   22.84    1.46 
  -3   3  12   22.24    1.50 
  -3   3  12   21.66    1.51 
   2  -3 -12    2.46    0.40 
  -2  -3  12    2.47    0.34 
  -2  -3  12    2.23    0.32 
  -2  -3  12    2.99    0.43 
   2  -3 -12    2.87    0.53 
  -2   3  12    2.36    0.38 
  -2   3  12    2.46    0.37 
  -2   3  12    2.69    0.38 
   1  -3 -12   15.88    0.97 
  -1  -3  12   15.64    0.98 
   1  -3 -12   15.47    1.28 
   1  -3 -12   17.17    1.23 
  -1  -3  12   15.31    0.95 
  -1  -3  12   15.77    1.02 
  -1  -3  12   17.41    1.15 
   1   3 -12   13.57    1.25 
  -1   3  12   14.30    1.02 
  -1   3  12   14.94    1.06 
  -1   3  12   13.54    1.12 
  -1   3  12   14.25    1.04 
   0  -3  12   17.17    0.99 
   0  -3  12   17.46    1.11 
   0  -3 -12   17.24    1.22 
   0  -3 -12   16.78    1.29 
   0  -3 -12   16.65    1.01 
   0  -3 -12   17.44    1.02 
   0  -3  12   17.26    1.01 
   0   3  12   13.54    1.05 
   0   3 -12   13.11    1.23 
   0   3  12   14.03    1.03 
   0   3  12   13.64    1.05 
   0   3  12   13.34    1.15 
  -1  -3 -12    0.29    0.40 
  -1  -3 -12    0.24    0.24 
   1  -3  12    0.21    0.18 
   1  -3  12   -0.02    0.22 
  -1  -3 -12    0.41    0.42 
   1   3  12    0.22    0.38 
   1   3  12    0.23    0.25 
   1   3  12    0.28    0.26 
  -1   3 -12    0.29    0.36 
  -1   3 -12    0.63    0.41 
   1   3  12    0.45    0.24 
   2  -3  12   21.31    1.24 
  -2  -3 -12   22.94    1.48 
  -2  -3 -12   22.53    1.26 
  -2  -3 -12   21.69    1.51 
   2  -3  12   21.91    1.26 
   2   3  12   16.78    1.27 
   2   3  12   17.49    1.31 
  -2   3 -12   16.94    1.36 
   2   3  12   16.98    1.25 
  -3  -4  12    0.34    0.23 
  -3  -4  12    0.45    0.24 
  -3  -4  12    0.49    0.29 
   3  -4 -12    0.46    0.43 
  -3   4  12   -0.02    0.35 
  -3   4  12    0.37    0.32 
  -3   4  12   -0.10    0.30 
   2  -4 -12   37.02    2.40 
  -2  -4  12   37.25    2.14 
  -2  -4  12   36.78    2.12 
  -2  -4  12   37.91    2.20 
   2  -4 -12   40.87    2.22 
  -2   4  12   36.44    2.24 
  -2   4  12   37.47    2.22 
  -2   4  12   35.59    2.29 
  -2   4  12   36.79    2.23 
  -1  -4  12    5.54    0.64 
  -1  -4  12    5.71    0.54 
  -1  -4  12    5.99    0.53 
   1  -4 -12    6.01    0.56 
   1  -4 -12    6.36    0.56 
   1  -4 -12    5.94    0.87 
   1  -4 -12    6.25    0.86 
  -1  -4  12    6.20    0.46 
  -1   4  12    4.76    0.61 
   1   4 -12    4.26    0.80 
  -1   4  12    4.36    0.74 
  -1   4  12    4.88    0.64 
   0  -4  12    2.96    0.34 
   0  -4 -12    3.15    0.48 
   0  -4 -12    3.42    0.76 
   0  -4  12    3.25    0.56 
   0  -4  12    2.83    0.43 
   0  -4 -12    3.06    0.55 
   0   4 -12    2.36    0.56 
   0   4  12    2.09    0.40 
   0   4  12    1.90    0.34 
   0   4  12    2.19    0.39 
   0   4  12    2.31    0.51 
   1  -4  12   26.20    1.56 
  -1  -4 -12   27.08    1.57 
   1  -4  12   25.85    1.64 
  -1  -4 -12   26.44    1.82 
   1  -4  12   26.79    1.53 
  -1  -4 -12   27.34    1.77 
  -1   4 -12   24.06    1.80 
   1   4  12   25.45    1.89 
   1   4  12   25.63    1.61 
   1   4  12   24.80    1.58 
   1   4  12   24.35    1.62 
   2  -4  12    6.22    0.59 
   2  -4  12    6.63    0.61 
  -2  -4 -12    7.01    0.62 
  -2  -4 -12    6.35    0.89 
  -2  -4 -12    7.30    0.92 
  -2   4 -12    5.44    0.83 
   2   4  12    5.08    0.74 
   2   4  12    5.84    0.82 
   2   4  12    5.32    0.65 
   3  -5 -12   20.43    1.23 
  -3  -5  12   19.99    1.19 
  -3  -5  12   20.41    1.30 
  -3   5  12   17.30    1.30 
  -3   5  12   17.11    1.35 
   2  -5 -12    4.49    0.57 
  -2  -5  12    4.52    0.54 
  -2  -5  12    4.71    0.51 
  -2  -5  12    4.50    0.42 
   2  -5 -12    4.66    0.79 
  -2  -5  12    3.66    0.62 
  -2   5  12    5.01    0.66 
  -2   5  12    4.76    0.60 
  -2   5  12    4.81    0.73 
  -1  -5  12   12.01    0.97 
  -1  -5  12   12.58    0.83 
   1  -5 -12   12.99    1.18 
  -1  -5  12   12.39    0.92 
  -1  -5  12   12.56    0.87 
   1  -5 -12   13.57    0.93 
  -1   5  12   14.13    1.02 
  -1   5  12   12.35    1.14 
   1   5 -12   13.52    1.21 
  -1   5  12   13.90    0.95 
  -1   5  12   14.06    1.03 
   0  -5  12    9.05    1.12 
   0  -5  12    7.63    0.61 
   0  -5 -12    7.15    0.99 
   0  -5 -12    7.99    0.99 
   0  -5 -12    7.86    0.71 
   0  -5  12    6.81    0.67 
   0   5  12   10.55    0.73 
   0   5  12   10.69    0.84 
   0   5  12   10.40    0.82 
   0   5  12   10.16    1.22 
   1  -5  12    0.38    0.27 
   1  -5  12    0.58    0.21 
  -1  -5 -12    0.55    0.28 
  -1  -5 -12    0.46    0.46 
  -1  -5 -12    0.51    0.48 
   1   5  12    0.34    0.36 
  -1   5 -12    0.56    0.43 
   1   5  12    0.74    0.35 
   1   5  12    0.55    0.27 
  -2  -6  12   11.47    0.82 
  -1  -6  12    6.46    0.49 
   1  -6 -12    6.60    0.67 
   1  -6 -12    6.44    1.00 
  -1  -6  12    6.27    0.59 
  -1  -6  12    6.28    0.62 
  -1   6  12    5.39    0.81 
  -1   6  12    5.35    0.80 
   1   6 -12    5.43    0.91 
   0  -6 -12    2.15    0.63 
   0  -6 -12    1.98    0.35 
   0  -6  12    2.04    0.33 
   0  -6 -12    1.89    0.58 
   0  -6  12    1.91    0.39 
   0   6  12    0.94    0.40 
   0   6 -12    1.02    0.50 
   0   6  12    1.00    0.43 
  -3   0  13   36.34    2.26 
  -3   0  13   38.19    2.22 
  -2   0  13    0.90    0.31 
  -2   0  13    1.50    0.28 
  -2   0  13    0.92    0.30 
  -1   0  13    9.45    0.76 
  -1   0  13    8.96    0.70 
   1   0 -13    9.44    1.02 
  -1   0  13    9.86    0.76 
   0   0  13    6.06    0.57 
   0   0  13    6.46    0.61 
   0   0 -13    6.74    0.87 
   0   0  13    6.30    0.61 
   1   0  13    2.46    0.37 
   1   0  13    2.30    0.35 
  -1   0 -13    2.99    0.73 
   1   0  13    2.40    0.35 
  -3  -1  13    1.61    0.39 
  -3  -1  13    1.77    0.36 
  -3   1  13    1.34    0.37 
  -3   1  13    1.26    0.39 
  -2  -1  13   16.98    1.16 
  -2  -1  13   17.36    1.22 
  -2  -1  13   16.34    1.19 
  -2   1  13   20.91    1.21 
  -2   1  13   20.03    1.24 
  -2   1  13   19.63    1.26 
  -1  -1  13    7.88    0.71 
  -1  -1  13    7.71    0.70 
  -1  -1  13    7.77    0.65 
   1  -1 -13    7.80    0.99 
  -1   1  13   10.58    0.76 
   1   1 -13   10.03    1.03 
  -1   1  13   11.21    0.78 
   0  -1  13    1.35    0.26 
   0  -1  13    1.27    0.28 
   0  -1 -13    1.35    0.48 
   0  -1  13    1.20    0.30 
   0  -1 -13    1.26    0.49 
   0   1  13    1.31    0.31 
   0   1  13    1.47    0.33 
   0   1 -13    1.28    0.47 
   0   1  13    1.36    0.30 
   1  -1  13   18.98    1.22 
  -1  -1 -13   19.17    1.49 
  -1  -1 -13   19.64    1.18 
   1  -1  13   18.96    1.26 
   1  -1  13   19.00    1.21 
  -1  -1 -13   18.88    1.44 
   1   1  13   18.09    1.21 
  -1   1 -13   17.74    1.70 
   1   1  13   18.22    1.22 
   1   1  13   16.88    1.19 
  -2  -2  13    0.75    0.29 
  -2  -2  13    0.99    0.36 
  -2   2  13    1.74    0.37 
  -2   2  13    1.67    0.36 
  -2   2  13    1.49    0.36 
   1  -2 -13    5.47    0.93 
  -1  -2  13    4.54    0.54 
  -1  -2  13    4.20    0.52 
   1  -2 -13    4.16    0.86 
  -1  -2  13    4.74    0.46 
  -1   2  13    5.10    0.59 
  -1   2  13    4.95    0.55 
   1   2 -13    4.41    0.80 
  -1   2  13    4.53    0.59 
   0  -2 -13   32.75    1.89 
   0  -2  13   30.99    1.92 
   0  -2 -13   31.52    2.09 
   0  -2 -13   32.54    2.21 
   0  -2  13   29.75    1.94 
   0  -2  13   30.51    1.92 
   0   2  13   33.38    1.95 
   0   2 -13   33.20    2.28 
   0   2  13   34.91    1.96 
   0   2  13   35.42    1.98 
  -1  -2 -13    2.94    0.39 
  -1  -2 -13    4.31    0.87 
   1  -2  13    3.20    0.41 
  -1  -2 -13    3.26    0.81 
   1   2  13    4.08    0.56 
   1   2  13    3.54    0.55 
  -2  -3  13    9.66    0.76 
  -2  -3  13    9.52    0.74 
  -2   3  13    8.97    0.83 
  -2   3  13    8.44    0.79 
   1  -3 -13   12.09    0.93 
   1  -3 -13   10.71    1.18 
   1  -3 -13   10.19    1.20 
  -1  -3  13   10.79    0.97 
  -1  -3  13   11.01    0.87 
  -1   3  13   14.44    0.98 
  -1   3  13   13.91    0.94 
  -1   3  13   13.38    0.93 
   0  -3  13    1.20    0.31 
   0  -3 -13    1.36    0.57 
   0  -3 -13    1.35    0.56 
   0  -3 -13    0.98    0.31 
   0   3  13    0.77    0.35 
   0   3  13    0.39    0.34 
   0   0   0    0.00    0.00 
;
_shelx_hkl_checksum              36223
loop_
_space_group_symop_operation_xyz
'x, y, z'
'-x, y+1/2, -z'
loop_
_atom_site_label
_atom_site_type_symbol
_atom_site_fract_x
_atom_site_fract_y
_atom_site_fract_z
_atom_site_U_iso_or_equiv
_atom_site_adp_type
_atom_site_occupancy
_atom_site_site_symmetry_order
_atom_site_calc_flag
_atom_site_refinement_flags_posn
_atom_site_refinement_flags_adp
Se1 Se 0.17903(2) 0.35085(3) 0.23392(2) 0.01871(5) Uani 1 1 d . .
O1 O 0.41746(13) 0.34862(17) 0.52116(10) 0.01607(19) Uani 1 1 d . .
O2 O 0.66635(18) 0.47584(14) 0.48587(14) 0.0230(3) Uani 1 1 d . .
C1 C 0.4955(3) 0.46538(17) 0.49853(17) 0.0170(3) Uani 1 1 d . .
C2 C 0.3432(2) 0.56868(17) 0.49455(19) 0.0193(3) Uani 1 1 d . .
H2A H 0.3254 0.6090 0.4052 0.023 Uiso 1 1 calc R U
H2B H 0.3803 0.6361 0.5616 0.023 Uiso 1 1 calc R U
C3 C 0.1572(2) 0.50074(16) 0.52643(18) 0.0162(3) Uani 1 1 d . .
H3A H 0.0489 0.5199 0.4577 0.019 Uiso 1 1 calc R U
H3B H 0.1194 0.5280 0.6145 0.019 Uiso 1 1 calc R U
C4 C 0.20798(18) 0.3553(2) 0.52700(13) 0.0136(2) Uani 1 1 d . .
C5 C 0.1602(2) 0.28661(15) 0.65324(16) 0.0137(3) Uani 1 1 d . .
C6 C -0.0287(2) 0.29462(18) 0.69151(17) 0.0175(3) Uani 1 1 d . .
H6 H -0.1244 0.3442 0.6404 0.021 Uiso 1 1 calc R U
C7 C -0.0760(2) 0.22948(19) 0.80499(18) 0.0206(3) Uani 1 1 d . .
H7 H -0.2045 0.2344 0.8307 0.025 Uiso 1 1 calc R U
C8 C 0.0628(3) 0.15761(18) 0.88054(18) 0.0215(4) Uani 1 1 d . .
H8 H 0.0296 0.1138 0.9580 0.026 Uiso 1 1 calc R U
C9 C 0.2501(3) 0.14982(18) 0.84285(18) 0.0204(4) Uani 1 1 d . .
H9 H 0.3459 0.1009 0.8947 0.024 Uiso 1 1 calc R U
C10 C 0.2979(2) 0.21367(17) 0.72897(18) 0.0171(3) Uani 1 1 d . .
H10 H 0.4262 0.2072 0.7029 0.021 Uiso 1 1 calc R U
C11 C 0.1113(2) 0.28328(17) 0.40595(17) 0.0168(3) Uani 1 1 d . .
H11A H -0.0316 0.2877 0.4079 0.020 Uiso 1 1 calc R U
H11B H 0.1496 0.1916 0.4129 0.020 Uiso 1 1 calc R U
C12 C 0.3701(2) 0.22536(18) 0.19691(16) 0.0181(3) Uani 1 1 d . .
C13 C 0.5531(3) 0.26678(19) 0.16719(19) 0.0225(4) Uani 1 1 d . .
H13 H 0.5851 0.3556 0.1717 0.027 Uiso 1 1 calc R U
C14 C 0.6891(3) 0.1773(2) 0.13077(19) 0.0270(4) Uani 1 1 d . .
H14 H 0.8132 0.2057 0.1095 0.032 Uiso 1 1 calc R U
C15 C 0.6449(3) 0.0483(2) 0.12543(19) 0.0265(4) Uani 1 1 d . .
H15 H 0.7381 -0.0120 0.1004 0.032 Uiso 1 1 calc R U
C16 C 0.4627(3) 0.00610(19) 0.15682(18) 0.0241(4) Uani 1 1 d . .
H16 H 0.4327 -0.0831 0.1546 0.029 Uiso 1 1 calc R U
C17 C 0.3256(3) 0.09461(18) 0.19128(18) 0.0198(3) Uani 1 1 d . .
H17 H 0.2010 0.0660 0.2111 0.024 Uiso 1 1 calc R U
loop_
_atom_site_aniso_label
_atom_site_aniso_U_11
_atom_site_aniso_U_22
_atom_site_aniso_U_33
_atom_site_aniso_U_23
_atom_site_aniso_U_13
_atom_site_aniso_U_12
Se1 0.02229(8) 0.01895(8) 0.01489(8) 0.00260(8) 0.00171(5) 0.00066(8)
O1 0.0116(4) 0.0158(5) 0.0212(5) 0.0028(7) 0.0032(3) 0.0002(7)
O2 0.0128(6) 0.0283(7) 0.0279(7) 0.0084(6) 0.0013(5) -0.0016(5)
C1 0.0159(7) 0.0186(8) 0.0157(7) 0.0037(6) -0.0021(6) -0.0024(6)
C2 0.0163(8) 0.0152(8) 0.0261(9) 0.0033(7) -0.0002(6) -0.0026(6)
C3 0.0135(7) 0.0134(7) 0.0214(8) 0.0006(6) 0.0008(6) 0.0009(6)
C4 0.0102(5) 0.0140(6) 0.0166(6) -0.0002(9) 0.0015(4) 0.0003(8)
C5 0.0150(7) 0.0123(7) 0.0138(7) -0.0019(6) 0.0011(6) -0.0016(6)
C6 0.0141(7) 0.0200(7) 0.0179(8) 0.0006(6) -0.0001(6) 0.0008(6)
C7 0.0158(7) 0.0276(9) 0.0186(8) -0.0002(7) 0.0035(6) -0.0017(7)
C8 0.0249(9) 0.0252(9) 0.0145(8) 0.0016(7) 0.0031(7) -0.0020(7)
C9 0.0240(9) 0.0214(9) 0.0154(8) 0.0027(7) 0.0003(7) 0.0052(7)
C10 0.0157(7) 0.0187(8) 0.0172(7) -0.0007(7) 0.0031(6) 0.0032(6)
C11 0.0172(8) 0.0170(8) 0.0164(8) -0.0003(6) 0.0031(6) -0.0035(6)
C12 0.0197(8) 0.0220(8) 0.0124(7) 0.0013(6) 0.0007(6) 0.0003(7)
C13 0.0228(8) 0.0256(9) 0.0192(8) 0.0002(7) 0.0027(7) -0.0064(7)
C14 0.0198(8) 0.0406(11) 0.0210(9) 0.0008(8) 0.0046(7) -0.0017(8)
C15 0.0265(10) 0.0347(11) 0.0183(9) 0.0006(8) 0.0023(7) 0.0093(8)
C16 0.0311(10) 0.0227(9) 0.0179(8) 0.0024(7) -0.0008(7) 0.0016(7)
C17 0.0214(8) 0.0223(9) 0.0151(8) 0.0032(6) -0.0003(6) -0.0027(7)
loop_
_atom_type_symbol
_atom_type_description
_atom_type_scat_dispersion_real
_atom_type_scat_dispersion_imag
_atom_type_scat_source
C C 0.0033 0.0016 'International Tables Vol C Tables 4.2.6.8 and 6.1.1.4'
H H 0.0000 0.0000 'International Tables Vol C Tables 4.2.6.8 and 6.1.1.4'
O O 0.0106 0.0060 'International Tables Vol C Tables 4.2.6.8 and 6.1.1.4'
Se Se -0.0929 2.2259 'International Tables Vol C Tables 4.2.6.8 and 6.1.1.4'
loop_
_geom_angle_atom_site_label_1
_geom_angle_atom_site_label_2
_geom_angle_atom_site_label_3
_geom_angle
C12 Se1 C11 98.87(7)
C1 O1 C4 112.12(17)
O2 C1 O1 120.52(16)
O2 C1 C2 128.61(16)
O1 C1 C2 110.86(14)
C1 C2 C3 105.36(14)
C1 C2 H2A 110.7
C3 C2 H2A 110.7
C1 C2 H2B 110.7
C3 C2 H2B 110.7
H2A C2 H2B 108.8
C2 C3 C4 104.89(13)
C2 C3 H3A 110.8
C4 C3 H3A 110.8
C2 C3 H3B 110.8
C4 C3 H3B 110.8
H3A C3 H3B 108.8
O1 C4 C5 107.88(13)
O1 C4 C11 107.73(13)
C5 C4 C11 108.86(16)
O1 C4 C3 105.77(17)
C5 C4 C3 113.17(14)
C11 C4 C3 113.13(14)
C10 C5 C6 119.36(15)
C10 C5 C4 121.61(14)
C6 C5 C4 119.00(14)
C7 C6 C5 119.66(16)
C7 C6 H6 120.2
C5 C6 H6 120.2
C8 C7 C6 120.60(16)
C8 C7 H7 119.7
C6 C7 H7 119.7
C7 C8 C9 119.78(17)
C7 C8 H8 120.1
C9 C8 H8 120.1
C8 C9 C10 119.96(17)
C8 C9 H9 120.0
C10 C9 H9 120.0
C5 C10 C9 120.64(16)
C5 C10 H10 119.7
C9 C10 H10 119.7
C4 C11 Se1 113.89(12)
C4 C11 H11A 108.8
Se1 C11 H11A 108.8
C4 C11 H11B 108.8
Se1 C11 H11B 108.8
H11A C11 H11B 107.7
C17 C12 C13 119.58(17)
C17 C12 Se1 121.20(13)
C13 C12 Se1 119.10(14)
C12 C13 C14 119.81(18)
C12 C13 H13 120.1
C14 C13 H13 120.1
C15 C14 C13 120.50(18)
C15 C14 H14 119.7
C13 C14 H14 119.7
C14 C15 C16 119.94(19)
C14 C15 H15 120.0
C16 C15 H15 120.0
C17 C16 C15 119.93(18)
C17 C16 H16 120.0
C15 C16 H16 120.0
C16 C17 C12 120.23(17)
C16 C17 H17 119.9
C12 C17 H17 119.9
loop_
_geom_bond_atom_site_label_1
_geom_bond_atom_site_label_2
_geom_bond_distance
Se1 C12 1.9180(18)
Se1 C11 1.9672(17)
O1 C1 1.356(2)
O1 C4 1.4555(15)
O2 C1 1.204(2)
C1 C2 1.501(2)
C2 C3 1.527(2)
C2 H2A 0.9900
C2 H2B 0.9900
C3 C4 1.552(3)
C3 H3A 0.9900
C3 H3B 0.9900
C4 C5 1.522(2)
C4 C11 1.529(2)
C5 C10 1.387(2)
C5 C6 1.398(2)
C6 C7 1.394(2)
C6 H6 0.9500
C7 C8 1.385(3)
C7 H7 0.9500
C8 C9 1.385(3)
C8 H8 0.9500
C9 C10 1.392(2)
C9 H9 0.9500
C10 H10 0.9500
C11 H11A 0.9900
C11 H11B 0.9900
C12 C17 1.394(3)
C12 C13 1.394(2)
C13 C14 1.396(3)
C13 H13 0.9500
C14 C15 1.375(3)
C14 H14 0.9500
C15 C16 1.397(3)
C15 H15 0.9500
C16 C17 1.388(3)
C16 H16 0.9500
C17 H17 0.9500
loop_
_geom_torsion_atom_site_label_1
_geom_torsion_atom_site_label_2
_geom_torsion_atom_site_label_3
_geom_torsion_atom_site_label_4
_geom_torsion
C4 O1 C1 O2 -177.20(15)
C4 O1 C1 C2 3.48(18)
O2 C1 C2 C3 -176.01(18)
O1 C1 C2 C3 3.24(19)
C1 C2 C3 C4 -8.03(18)
C1 O1 C4 C5 -129.96(16)
C1 O1 C4 C11 112.67(17)
C1 O1 C4 C3 -8.58(15)
C2 C3 C4 O1 9.99(16)
C2 C3 C4 C5 127.88(14)
C2 C3 C4 C11 -107.70(15)
O1 C4 C5 C10 -10.4(2)
C11 C4 C5 C10 106.27(17)
C3 C4 C5 C10 -127.03(16)
O1 C4 C5 C6 171.37(16)
C11 C4 C5 C6 -72.0(2)
C3 C4 C5 C6 54.72(19)
C10 C5 C6 C7 0.1(3)
C4 C5 C6 C7 178.35(17)
C5 C6 C7 C8 0.4(3)
C6 C7 C8 C9 -0.3(3)
C7 C8 C9 C10 -0.3(3)
C6 C5 C10 C9 -0.6(3)
C4 C5 C10 C9 -178.88(18)
C8 C9 C10 C5 0.8(3)
O1 C4 C11 Se1 -57.90(19)
C5 C4 C11 Se1 -174.63(11)
C3 C4 C11 Se1 58.64(15)
C17 C12 C13 C14 0.7(3)
Se1 C12 C13 C14 -175.47(14)
C12 C13 C14 C15 -0.7(3)
C13 C14 C15 C16 -0.1(3)
C14 C15 C16 C17 1.0(3)
C15 C16 C17 C12 -1.1(3)
C13 C12 C17 C16 0.3(3)
Se1 C12 C17 C16 176.30(13)
