#------------------------------------------------------------------------------
#$Date: 2019-11-24 13:56:51 +0200 (Sun, 24 Nov 2019) $
#$Revision: 238072 $
#$URL: file:///home/coder/svn-repositories/cod/cif/1/55/47/1554711.cif $
#------------------------------------------------------------------------------
#
# This file is available in the Crystallography Open Database (COD),
# http://www.crystallography.net/
#
# All data on this site have been placed in the public domain by the
# contributors.
#
data_1554711
loop_
_publ_author_name
'Bar\/l\'og, Maciej'
'Kulai, Ihor'
'Ji, Xiaozhou'
'Bhuvanesh, Nattamai'
'Dey, Somnath'
'Sliwinski, Eric Pierre'
'Bazzi, Hassan S.'
'Fang, Lei'
'Al-Hashimi, Mohammed'
_publ_section_title
;
 Synthesis, characterization and crystal structures of novel fluorinated
 di(thiazolyl)benzene derivatives
;
_journal_issue                   6
_journal_name_full               'Organic Chemistry Frontiers'
_journal_page_first              780
_journal_paper_doi               10.1039/C9QO00044E
_journal_volume                  6
_journal_year                    2019
_chemical_formula_moiety         '1.4(C8.54 H4.27 F0.71 N1.42 S1.42)'
_chemical_formula_sum            'C12 H6 F N2 S2'
_chemical_formula_weight         261.31
_space_group_crystal_system      monoclinic
_space_group_IT_number           14
_space_group_name_Hall           '-P 2yn'
_space_group_name_H-M_alt        'P 1 21/n 1'
_atom_sites_solution_hydrogens   geom
_atom_sites_solution_primary     direct
_audit_creation_date             2017-08-18
_audit_creation_method
;
Olex2 1.2-beta
(compiled 2017.03.28 svn.r3405 for OlexSys, GUI svn.r5335)
;
_audit_update_record
;
2018-07-19 deposited with the CCDC.
2019-01-30 downloaded from the CCDC.
;
_cell_angle_alpha                90
_cell_angle_beta                 95.890(4)
_cell_angle_gamma                90
_cell_formula_units_Z            2
_cell_length_a                   5.9315(6)
_cell_length_b                   4.9497(5)
_cell_length_c                   18.794(2)
_cell_measurement_reflns_used    3497
_cell_measurement_temperature    100.0
_cell_measurement_theta_max      25.701
_cell_measurement_theta_min      3.272
_cell_volume                     548.86(10)
_computing_cell_refinement       'SAINT v8.37A (Bruker, 2015)'
_computing_data_reduction        'SAINT v8.37A (Bruker, 2015)'
_computing_molecular_graphics    'Olex2 (Dolomanov et al., 2009)'
_computing_publication_material  'Olex2 (Dolomanov et al., 2009)'
_computing_structure_refinement  'ShelXL (Sheldrick, 2015)'
_computing_structure_solution    'ShelXT (Sheldrick, 2015)'
_diffrn_ambient_temperature      100.0
_diffrn_detector                 'Bruker APEX2 area detector'
_diffrn_detector_area_resol_mean 7.9
_diffrn_detector_type            'CCD area detector'
_diffrn_measured_fraction_theta_full 0.964
_diffrn_measured_fraction_theta_max 0.964
_diffrn_measurement_device       'three-circle diffractometer'
_diffrn_measurement_device_type  'Bruker APEX-II CCD'
_diffrn_measurement_method       '\f and \w scans'
_diffrn_radiation_monochromator  'mirror optics'
_diffrn_radiation_probe          x-ray
_diffrn_radiation_type           MoK\a
_diffrn_radiation_wavelength     0.71073
_diffrn_reflns_av_R_equivalents  0.0586
_diffrn_reflns_av_unetI/netI     0.0268
_diffrn_reflns_Laue_measured_fraction_full 0.964
_diffrn_reflns_Laue_measured_fraction_max 0.964
_diffrn_reflns_limit_h_max       6
_diffrn_reflns_limit_h_min       -6
_diffrn_reflns_limit_k_max       5
_diffrn_reflns_limit_k_min       0
_diffrn_reflns_limit_l_max       20
_diffrn_reflns_limit_l_min       0
_diffrn_reflns_number            1289
_diffrn_reflns_point_group_measured_fraction_full 0.964
_diffrn_reflns_point_group_measured_fraction_max 0.964
_diffrn_reflns_theta_full        22.487
_diffrn_reflns_theta_max         22.487
_diffrn_reflns_theta_min         2.179
_diffrn_source                   'microfocus sealed X-ray tube'
_diffrn_source_type              'Incoatec I\ms'
_diffrn_standards_number         0
_exptl_absorpt_coefficient_mu    0.472
_exptl_absorpt_correction_T_max  0.745
_exptl_absorpt_correction_T_min  0.558
_exptl_absorpt_correction_type   multi-scan
_exptl_absorpt_process_details
;
 TWINABS-2012/1 (Bruker,2012) was used for absorption correction.
 
For component 1:
 wR2(int) was 0.1439 before and 0.0601 after correction.
 The Ratio of minimum to maximum transmission not present.
 The \l/2 correction factor is Not present
 
For component 2:
 wR2(int) was 0.1654 before and 0.0805 after correction.
 The Ratio of minimum to maximum transmission is 0.76.
 The \l/2 correction factor is Not present

Final HKLF 4 output contains 10163 reflections, Rint = 0.0586
 (7686 with I > 3sig(I), Rint = 0.0567)
;
_exptl_crystal_colour            yellow
_exptl_crystal_colour_primary    yellow
_exptl_crystal_density_diffrn    1.581
_exptl_crystal_description       block
_exptl_crystal_F_000             266
_exptl_crystal_size_max          0.222
_exptl_crystal_size_mid          0.135
_exptl_crystal_size_min          0.094
_refine_diff_density_max         0.352
_refine_diff_density_min         -0.333
_refine_diff_density_rms         0.090
_refine_ls_extinction_coef       0.031(8)
_refine_ls_extinction_expression Fc^*^=kFc[1+0.001xFc^2^\l^3^/sin(2\q)]^-1/4^
_refine_ls_extinction_method     'SHELXL-2017/1 (Sheldrick 2017)'
_refine_ls_goodness_of_fit_ref   1.174
_refine_ls_hydrogen_treatment    constr
_refine_ls_matrix_type           full
_refine_ls_number_parameters     130
_refine_ls_number_reflns         1289
_refine_ls_number_restraints     468
_refine_ls_restrained_S_all      1.037
_refine_ls_R_factor_all          0.0928
_refine_ls_R_factor_gt           0.0818
_refine_ls_shift/su_max          0.000
_refine_ls_shift/su_mean         0.000
_refine_ls_structure_factor_coef Fsqd
_refine_ls_weighting_details
'w=1/[\s^2^(Fo^2^)+(0.0262P)^2^+1.6061P] where P=(Fo^2^+2Fc^2^)/3'
_refine_ls_weighting_scheme      calc
_refine_ls_wR_factor_gt          0.1515
_refine_ls_wR_factor_ref         0.1590
_reflns_Friedel_coverage         0.000
_reflns_number_gt                1156
_reflns_number_total             1289
_reflns_threshold_expression     'I > 2\s(I)'
_cod_data_source_file            c9qo00044e2.cif
_cod_data_source_block           4
_cod_original_cell_volume        548.85(10)
_cod_database_code               1554711
_shelx_shelxl_version_number     2017/1
_shelx_space_group_comment
;
The symmetry employed for this shelxl refinement is uniquely defined
by the following loop, which should always be used as a source of
symmetry information in preference to the above space-group names.
They are only intended as comments.
;
_shelx_estimated_absorpt_t_max   0.957
_shelx_estimated_absorpt_t_min   0.902
_olex2_refinement_description
;
1. Twinned data refinement
 Scales: 0.860(3)
 0.140(3)
2. Fixed Uiso
 At 1.2 times of:
  All C(H) groups
3. Restrained distances
 C3-C1_$1 \\sim C2_$1-C1_$1 \\sim C3_$1-C2_$1 \\sim C3_$1-C1 \\sim C2-C1 \\sim
C3-C2 \\sim C3A-C1A_$1
 \\sim C2A_$1-C1A_$1 \\sim C3A_$1-C2A_$1 \\sim C3A_$1-C1A \\sim C2A-C1A \\sim
C3A-C2A
 with sigma of 0.005
4. Uiso/Uaniso restraints and constraints
C1 \\sim C2 \\sim C3 \\sim C4 \\sim C5 \\sim C6 \\sim F3 \\sim N2 \\sim S1
\\sim C1A \\sim C2A \\sim C3A \\sim C4A \\sim C5A \\sim C6A \\sim F3A \\sim N2A
\\sim S1A: within 2A with sigma of 0.005 and sigma for terminal atoms of 0.01
Uanis(N2) = Uanis(N2A)
Uanis(S1A) = Uanis(S1)
Uanis(F3) = Uanis(F3A)
Uanis(C2) = Uanis(C2A)
Uanis(C1) = Uanis(C1A)
Uanis(C3) = Uanis(C3A)
5. Rigid body (RIGU) restrains
 C1, C2, C3, C4, C5, C6, F3, N2, S1, C1A, C2A, C3A, C4A, C5A, C6A, F3A, N2A, S1A
 with sigma for 1-2 distances of 0.005 and sigma for 1-3 distances of 0.005
6. Same fragment restrains
{C1, C2, C3, C4, C5, C6, F3, N2, S1} sigma for 1-2: 0.005, 1-3: 0.04
as
{C1A, C2A, C3A, C4A, C5A, C6A, F3A, N2A, S1A}
7. Others
 Sof(C1A)=Sof(H1A)=Sof(C2A)=Sof(C3A)=Sof(C4A)=Sof(C5A)=Sof(H5A)=Sof(C6A)=
 Sof(H6A)=Sof(N2A)=Sof(S1A)=1-FVAR(1)
 Sof(F3A)=0.5*(1-FVAR(2))
 Sof(F3)=0.5*FVAR(2)
 Sof(C1)=Sof(H1)=Sof(C2)=Sof(C3)=Sof(C4)=Sof(C5)=Sof(H5)=Sof(C6)=Sof(H6)=
 Sof(N2)=Sof(S1)=FVAR(1)
8.a Aromatic/amide H refined with riding coordinates:
 C1(H1), C5(H5), C6(H6), C1A(H1A), C5A(H5A), C6A(H6A)
;
_shelx_res_file
;
TITL 4_a.res in P2(1)/n
    4.res
    created by SHELXL-2017/1 at 15:40:38 on 18-Aug-2017
REM Old TITL 4 in P21/n #14
REM SHELXT solution in P2(1)/n
REM R1 0.206, Rweak 0.016, Alpha 0.035, Orientation as input
REM Formula found by SHELXT: C5 N2 F3 S
CELL 0.71073 5.9315 4.9497 18.7935 90 95.89 90
ZERR 2 0.0006 0.0005 0.002 0 0.004 0
LATT 1
SYMM 0.5-X,0.5+Y,0.5-Z
SFAC C H F N S
UNIT 24 12 2 4 4
EQIV $1 1-X,2-Y,1-Z
SADI 0.005 C3 C1_$1 C2_$1 C1_$1 C3_$1 C2_$1 C3_$1 C1 C2 C1 C3 C2 C3A C1A_$1 =
 C2A_$1 C1A_$1 C3A_$1 C2A_$1 C3A_$1 C1A C2A C1A C3A C2A
SIMU 0.005 0.01 2 C1 C2 C3 C4 C5 C6 F3 N2 S1 C1A C2A C3A C4A C5A C6A F3A N2A =
 S1A
RIGU 0.005 0.005 C1 C2 C3 C4 C5 C6 F3 N2 S1 C1A C2A C3A C4A C5A C6A F3A N2A S1A
EADP N2 N2A
EADP S1A S1
EADP F3 F3A
EADP C2 C2A
EADP C1 C1A
EADP C3 C3A

L.S. 10
PLAN  20
SIZE 0.094 0.135 0.222
TEMP -173.15
BOND $H
MORE -1
CONF
fmap 2
ACTA
OMIT -1 45
OMIT 2 2 3
REM <olex2.extras>
REM <HklSrc "%.\\LFB_XJ_170810_Q_FIR_0m_5.hkl">
REM </olex2.extras>

WGHT    0.026200    1.606100
EXTI    0.031039
BASF   0.13988
FVAR       1.42493   0.71181
PART 1
C1    1    0.697837    1.137231    0.505775    21.00000    0.04075    0.03815 =
         0.03415    0.00033    0.00228    0.00631
AFIX  43
H1    2    0.838160    1.231150    0.511939    21.00000   -1.20000
AFIX   0
C2    1    0.656549    0.942055    0.556316    21.00000    0.04031    0.03730 =
         0.03084   -0.00150   -0.00014    0.00758
C3    1    0.454447    0.796682    0.553415    21.00000    0.04011    0.03380 =
         0.03030   -0.00404    0.00363    0.00735
C4    1    0.405204    0.593313    0.606137    21.00000    0.03855    0.03512 =
         0.03350   -0.00367    0.00292    0.00431
C5    1    0.407635    0.280664    0.704845    21.00000    0.04059    0.03857 =
         0.03660    0.00058    0.00137    0.00058
AFIX  43
H5    2    0.432230    0.169950    0.746204    21.00000   -1.20000
AFIX   0
C6    1    0.218425    0.284634    0.659870    21.00000    0.04192    0.03911 =
         0.03880    0.00135    0.00092   -0.00164
AFIX  43
H6    2    0.098664    0.162685    0.666481    21.00000   -1.20000
AFIX   0
F3    3    0.802317    0.906507    0.613834    20.50000    0.03323    0.04439 =
         0.03717   -0.00106    0.00031    0.00504
N2    4    0.195919    0.470510    0.602267    21.00000    0.04289    0.03577 =
         0.03881    0.00158    0.00145    0.00091
S1    5    0.596663    0.501951    0.677184    21.00000    0.04137    0.04252 =
         0.04331    0.00363    0.00102    0.00149

SAME 0.005 0.04 C1 > S1
PART 0
PART 2
C1A   1    0.720131    1.152589    0.498682   -21.00000    0.04075    0.03815 =
         0.03415    0.00033    0.00228    0.00631
AFIX  43
H1A   2    0.855917    1.252566    0.496403   -21.00000   -1.20000
AFIX   0
C2A   1    0.682537    0.960646    0.550463   -21.00000    0.04031    0.03730 =
         0.03084   -0.00150   -0.00014    0.00758
C3A   1    0.475159    0.826661    0.549276   -21.00000    0.04011    0.03380 =
         0.03030   -0.00404    0.00363    0.00735
C4A   1    0.462235    0.633632    0.607550   -21.00000    0.04079    0.03644 =
         0.03653   -0.00165    0.00379    0.00373
C5A   1    0.327919    0.280533    0.686639   -21.00000    0.04212    0.03933 =
         0.04004    0.00274    0.00144    0.00142
AFIX  43
H5A   2    0.252836    0.148781    0.712412   -21.00000   -1.20000
AFIX   0
C6A   1    0.534520    0.382332    0.703915   -21.00000    0.04300    0.03899 =
         0.03959    0.00355    0.00173    0.00077
AFIX  43
H6A   2    0.625559    0.309159    0.743835   -21.00000   -1.20000
AFIX   0
F3A   3    0.834204    0.851574    0.598637   -20.50000    0.03323    0.04439 =
         0.03717   -0.00106    0.00031    0.00504
N2A   4    0.623152    0.595631    0.664893   -21.00000    0.04289    0.03577 =
         0.03881    0.00158    0.00145    0.00091
S1A   5    0.227155    0.433703    0.609612   -21.00000    0.04137    0.04252 =
         0.04331    0.00363    0.00102    0.00149
HKLF 5




REM  4_a.res in P2(1)/n
REM R1 =  0.0818 for    1156 Fo > 4sig(Fo)  and  0.0928 for all    1289 data
REM    130 parameters refined using    468 restraints

END

WGHT      0.0262      1.6062

REM Highest difference peak  0.352,  deepest hole -0.333,  1-sigma level  0.090
Q1    1   0.0728  0.6405  0.5619  11.00000  0.05    0.35
Q2    1   0.5304  0.8941  0.5589  11.00000  0.05    0.34
Q3    1   0.9425  1.1614  0.4852  11.00000  0.05    0.28
Q4    1   0.1172 -0.1142  0.6950  11.00000  0.05    0.27
Q5    1   0.3340  0.6016  0.6364  11.00000  0.05    0.27
Q6    1   0.4542  0.4977  0.7046  11.00000  0.05    0.26
Q7    1   0.3662  0.5362  0.6078  11.00000  0.05    0.26
Q8    1   0.5348  0.5014  0.6251  11.00000  0.05    0.25
Q9    1   0.4257  0.1275  0.8011  11.00000  0.05    0.25
Q10   1   0.2712  0.3118  0.7031  11.00000  0.05    0.25
Q11   1   0.7209  1.0844  0.5214  11.00000  0.05    0.24
Q12   1   0.1192  0.6033  0.6229  11.00000  0.05    0.24
Q13   1   0.9990  0.8340  0.6440  11.00000  0.05    0.24
Q14   1   0.5499  0.3048  0.7791  11.00000  0.05    0.24
Q15   1   0.3162  0.3460  0.6316  11.00000  0.05    0.24
Q16   1   0.2859 -0.0894  0.7161  11.00000  0.05    0.24
Q17   1   0.5480  0.5186  0.7823  11.00000  0.05    0.24
Q18   1  -0.0516  0.3940  0.6994  11.00000  0.05    0.24
Q19   1   0.6707  0.0825  0.7781  11.00000  0.05    0.23
Q20   1  -0.1343  0.2051  0.6633  11.00000  0.05    0.23
;
_shelx_res_checksum              81644
_shelx_hkl_file
;
   1   0   0 -0.0194 0.09989   1
   1   0   0 -0.0120 0.04945   2
   2   0   0 137.959 2.48444   2
   2   0   0 867.686 10.7632   1
   3   0   0 -0.0935 0.26690   2
   3   0   0 9.59747 3.28208   1
   2   0   6 36.2947 5.47017  -2
   3   0   0 36.2947 5.47017   1
   3   0   8 151.963 4.59120  -2
   4   0   0 151.963 4.59120   1
   5   0   0 1.60170 0.76626   2
   5   0   0 -0.2607 1.15343   1
   6   0   0 102.347 6.41197   1
   6   0   0 50.0497 6.30543   2
   0   1   0 -0.0146 0.35811  -2
   0   1   0 -0.0146 0.35811   1
   1   1   0 266.854 2.82015   2
   1   1   0 1508.87 13.8171   1
   2   1   0 151.397 1.99427   1
   2   1   0 24.1624 0.70913   2
   3   1   0 117.357 2.83038   1
   3   1   0 14.4895 1.24282   2
   2   1   6 136.940 5.63903  -2
   3   1   0 136.940 5.63903   1
   3   1   8 38.0709 2.34552  -2
   4   1   0 38.0709 2.34552   1
   5   1   0 132.841 2.41884   2
   5   1   0 978.128 10.8491   1
   6   1   0 22.4831 2.21383   2
   6   1   0 196.080 5.00540   1
   0   2   0 1356.29 16.6993  -2
   0   2   0 1356.29 16.6993   1
   1   2   0 190.316 3.06012   1
   1   2   0 34.2359 1.06972   2
   2   2   0 155.650 2.39227   1
   2   2   0 24.3527 0.79432   2
   3   2   0 225.541 7.39770   1
   3   2   0 33.4773 2.83049   2
   2   2   6 266.529 11.6997  -2
   3   2   0 266.529 11.6997   1
   3   2   8 224.905 5.87634  -2
   4   2   0 224.905 5.87634   1
   5   2   0 33.4716 3.46939   1
   5   2   0 16.6219 4.01896   2
   6   2   0 38.2725 6.56366   1
   6   2   0 17.4267 5.41518   2
   0   3   0 4.52255 1.54108  -2
   0   3   0 4.52255 1.54108   1
   1   3   0 208.422 3.87356   1
   1   3   0 36.6272 1.60125   2
   2   3   0 25.5649 1.21458   2
   2   3   0 138.818 3.04797   1
   3   3   0 10.6634 2.58071   2
   2   3   6 -1.2496 8.53265  -2
   3   3   0 -1.2496 8.53265   1
   3   3   8 38.5281 7.64007  -2
   4   3   0 38.5281 7.64007   1
   5   3   0 90.4428 5.90810   1
   5   3   0 28.3369 4.20068   2
   6   3   0 55.6328 12.7597   1
   6   3   0 28.1047 8.06323   2
   0   4   0 168.447 5.85607  -2
   0   4   0 168.447 5.85607   1
   1   4   0 26.3450 3.00747   1
   1   4   0 5.32564 0.69486   2
   2   4   0 2.59736 0.68351   1
   2   4   0 10.0593 3.55341   2
   3   4   0 118.287 11.3270   1
   3   4   8 89.0856 14.3889  -2
   4   4   0 89.0856 14.3889   1
   5   4   0 -0.4681 0.73746   2
   5   4   0 -2.1164 2.08984   1
   0   5   0 -1.5510 12.4272  -2
   0   5   0 -1.5510 12.4272   1
   1   5   0 28.9775 4.98997   2
   1   5   2 11.6574 14.5207  -2
   1   5   0 11.6574 14.5207   1
   1   5   0 0.33744 1.39233   1
   2   5   0 49.5971 7.86890   1
   2   5   0 0.62672 0.68740   2
   4   5   0 47.2928 10.9173   1
   4   5   0 50.6837 15.5563   2
   0   6   0 15.7932 12.6734  -2
   0   6   0 15.7932 12.6734   1
  -5   0   1 467.954 9.00084   1
  -5   0   1 63.4813 2.61925   2
  -4   0   1 14.7792 3.57693   1
  -4   0   1 2.91074 0.55239   2
   2   0   7 1084.14 27.7902  -2
  -3   0   1 1084.14 27.7902   1
  -2   0   1 -0.1839 0.22844   1
  -2   0   1 0.38583 0.13802   2
  -1   0   1 2870.08 32.7947   1
  -1   0   1 517.155 5.45827   2
   1   0   1 1136.66 13.3058   2
   1   0   1 7104.40 79.7418   1
   1   0   1 7980.09 160.158  -2
   1   0   1 7980.09 160.158   1
   2   0   1 0.52555 0.15823   2
   2   0   1 -0.2753 0.25463   1
   3   0   1 307.330 5.19776   1
   3   0   1 41.5091 1.39585   2
   3   0   7 70.5842 3.57557  -2
   4   0   1 70.5842 3.57557   1
   4   0   9 44.5199 4.78748  -2
   5   0   1 44.5199 4.78748   1
   6   0   1 31.8568 7.32191   1
   6   0   1 4.25085 1.77236   2
   7   0   1 49.8218 13.9705   1
  -5   1   1 11.8609 1.76582   2
  -5   1   1 72.9273 2.99479   1
  -4   1   1 13.8110 3.25961   1
  -4   1   1 1.72707 0.36931   2
   2   1   7 253.656 5.68720  -2
  -3   1   1 253.656 5.68720   1
   2   1   6 256.276 13.0516  -2
   2   1   7 256.276 13.0516  -2
  -3   1   1 256.276 13.0516   1
  -2   1   1 341.877 3.15419   2
  -2   1   1 2067.34 17.3771   1
  -1   1   1 64.5294 1.10406   1
  -1   1   1 11.8750 0.46746   2
   0   1   1 59.8381 0.96708   2
   0   1   1 327.354 3.61313   1
   1   1   1 37.5741 1.87016   1
   1   1   1 46.4120 1.78482  -2
   1   1   1 46.4120 1.78482   1
   1   1   1 9.29166 0.94558   2
   2   1   1 788.202 7.57240   1
   2   1   1 130.170 2.18446   2
   3   1   1 147.868 2.33997   1
   3   1   1 20.8995 0.85129   2
   3   1   7 43.2548 2.67363  -2
   4   1   1 43.2548 2.67363   1
   4   1   9 54.8783 5.97867  -2
   5   1   1 54.8783 5.97867   1
   6   1   1 159.500 6.28682   1
   6   1   1 31.8974 4.08411   2
   7   1   1 22.1114 6.70315   2
   7   1   1 3.91864 2.27742   1
   4   2  12 58.7834 10.2001  -2
  -6   2   1 58.7834 10.2001   1
  -5   2   1 87.1671 3.44343   1
  -5   2   1 16.8784 2.30130   2
  -4   2   1 13.5109 1.27576   1
  -4   2   1 13.3180 1.87729   2
   2   2   7 476.324 8.42541  -2
  -3   2   1 476.324 8.42541   1
  -2   2   1 209.860 2.97639   1
  -2   2   1 36.6585 0.98142   2
  -1   2   1 999.830 9.94215   1
  -1   2   1 183.661 2.60766   2
   0   2   1 473.546 6.23985   1
   0   2   1 88.9370 1.80381   2
   1   2   1 588.407 8.15048  -2
   1   2   1 588.407 8.15048   1
   2   2   1 34.3749 1.39422   2
   2   2   1 204.084 3.33144   1
   3   2   1 1308.78 12.2465   1
   3   2   1 203.635 3.31868   2
   3   2   7 161.679 3.74280  -2
   4   2   1 161.679 3.74280   1
   5   2   1 152.760 9.35750   1
   4   2   9 158.821 6.54647  -2
   5   2   1 158.821 6.54647   1
   6   2   1 29.6544 10.8934   1
   6   2   1 -0.4883 0.66356   2
   4   3  12 44.2706 21.5738  -2
  -6   3   1 44.2706 21.5738   1
  -6   3   1 0.76980 1.29071   2
  -5   3   1 8.05580 1.09046   1
  -4   3   1 100.708 3.22195   1
  -4   3   1 18.5936 3.76096   2
   2   3   7 33.0334 8.06123  -2
  -3   3   1 33.0334 8.06123   1
  -2   3   1 298.907 4.54519   1
  -2   3   1 53.2043 1.51332   2
  -1   3   1 15.6992 2.47999   1
  -1   3   1 0.97446 0.46963   2
   0   3   1 735.577 8.31008   1
   0   3   1 137.681 2.75048   2
   1   3   1 635.808 7.61936  -2
   1   3   1 635.808 7.61936   1
   2   3   1 77.1167 1.73623   2
   2   3   1 454.633 6.07265   1
   3   3   1 18.8138 2.12248   2
   3   3   1 118.264 3.63898   1
   3   3   7 45.8756 5.28329  -2
   4   3   1 45.8756 5.28329   1
   4   3   9 73.0163 11.4961  -2
   5   3   1 73.0163 11.4961   1
   6   3   1 2.34782 1.93135   1
  -5   4   1 18.8014 3.66369   1
  -5   4   1 18.8403 12.8687   2
  -4   4   1 55.0810 7.14782   1
  -4   4   1 2.73542 0.75361   2
  -2   4   1 310.038 6.08839   1
  -2   4   1 49.4664 2.61792   2
  -1   4   1 1.47519 1.26514   1
  -1   4   1 8.33963 1.70210   2
   0   4   1 8.43382 0.73723   1
   0   4   1 13.9812 4.18686   2
   1   4   1 4.38637 3.60309  -2
   1   4   1 4.38637 3.60309   1
   2   4   1 10.2713 1.53142   2
   2   4   1 13.1187 1.70003   1
   3   4   1 130.633 4.66906   1
   3   4   1 25.8593 2.49671   2
   3   4   7 3.03259 8.72499  -2
   4   4   1 3.03259 8.72499   1
   4   4   9 -13.150 13.7488  -2
   5   4   1 -13.150 13.7488   1
  -4   5   1 61.7798 12.5032   1
  -4   5   1 12.0917 2.83331   2
  -2   5   1 45.8804 16.5538   2
  -2   5   1 1.48074 2.38728   1
  -1   5   1 26.9447 4.49637   2
  -1   5   1 134.472 6.94841   1
   0   5   1 9.69156 2.41903   2
   0   5   1 3.57397 2.36982   1
   1   5   1 213.857 15.4776  -2
   1   5   1 213.857 15.4776   1
   2   5   1 135.849 6.74027   1
   2   5   1 24.2636 3.69548   2
   3   5   1 27.5759 6.05296   2
   3   5   1 69.1849 8.73884   1
   0   6   1 52.3063 16.8387   2
   0   6   1 48.7413 13.2422   1
   0   6   1 168.719 25.0438  -2
   0   6   1 168.719 25.0438   1
  -7   0   2 -3.1248 4.02102   2
  -7   0   2 33.5729 15.0078   1
   3   0  11 24.5038 3.87128  -2
  -5   0   2 24.5038 3.87128   1
  -5   0   2 -0.0537 0.51372   2
  -4   0   2 40.9890 2.70254   1
  -4   0   2 10.3325 2.78194   2
  -3   0   2 0.12102 0.22312   2
  -3   0   2 9.07307 2.53617   1
   1   0   5 152.816 3.97272  -2
  -2   0   2 152.816 3.97272   1
  -1   0   2 0.10173 0.11649   1
  -1   0   2 -0.0137 0.05687   2
   0   0   2 4.21516 0.65397   2
   1   0   2 -0.1676 0.11580   1
   1   0   2 -0.0711 0.06350   2
   2   0   2 2978.43 35.5152   1
   2   0   2 459.894 7.81142   2
   3   0   2 -0.3482 0.78835   1
   3   0   2 -0.1775 0.16898   2
   4   0   2 76.8476 2.18157   2
   4   0   2 516.482 8.12712   1
   4   0   8 48.0675 6.16414  -2
   5   0   2 48.0675 6.16414   1
   7   0   2 -0.5911 1.82627   1
   7   0   2 40.4409 11.1204   2
  -7   1   2 1.13733 1.71204   1
  -7   1   2 26.6074 7.90837   2
   3   1  11 17.2645 2.91327  -2
  -5   1   2 17.2645 2.91327   1
  -5   1   2 9.43100 5.51263   2
  -4   1   2 0.15989 0.23136   2
  -4   1   2 12.4381 3.53650   1
  -3   1   2 426.341 4.03482   2
  -3   1   2 2779.58 22.9849   1
   1   1   5 1701.28 17.9614  -2
  -2   1   2 1701.28 17.9614   1
  -2   1   2 1718.85 57.7442   1
  -1   1   2 1474.16 11.4239   2
  -1   1   2 7755.92 59.4326   1
   0   1   2 2.79193 0.33522   1
   0   1   2 1.54289 0.21407   2
   1   1   2 0.34988 0.12492   2
   1   1   2 3.83171 0.77384   1
   2   1   2 12.8393 3.19492   1
   2   1   2 7.13424 4.28863   2
   2   1   2 -1.7827 2.59060  -2
   2   1   2 -1.7827 2.59060   1
   3   1   2 52.4575 1.14653   2
   3   1   2 354.117 4.31335   1
   4   1   2 13.3785 1.33548   2
   4   1   2 79.7542 2.28436   1
   7   1   2 95.2050 11.4330   1
   7   1   2 21.2428 11.6531   2
   4   2  13 70.7284 16.3588  -2
  -6   2   2 70.7284 16.3588   1
   3   2  11 6.54231 3.77726  -2
  -5   2   2 6.54231 3.77726   1
  -5   2   2 -0.2269 0.61339   1
  -4   2   2 98.2507 2.70216   1
  -4   2   2 18.0628 1.73425   2
  -3   2   2 68.2361 1.81343   1
  -3   2   2 11.4604 0.97689   2
   1   2   5 422.948 6.33064  -2
  -2   2   2 422.948 6.33064   1
  -2   2   2 326.445 10.3514   1
  -1   2   2 24.3080 1.27588   1
  -1   2   2 7.27557 0.85177   2
   0   2   2 1.45788 0.21786   2
   0   2   2 17.0010 1.24723   1
   1   2   2 216.676 3.00273   1
   1   2   2 39.1196 1.12902   2
   2   2   2 504.498 9.90581   2
   2   2   2 3097.04 54.7990   1
   2   2   2 3605.78 52.7350  -2
   2   2   2 3605.78 52.7350   1
   2   2   3 3264.07 93.8563  -2
   2   2   2 3264.07 93.8563   1
   3   2   2 69.1167 2.01369   2
   3   2   2 429.875 6.64350   1
   4   2   2 2.52311 0.33947   2
   4   2   2 21.0253 7.40597   1
   4   2   8 111.509 12.9822  -2
   5   2   2 111.509 12.9822   1
   4   3  13 28.6677 19.0266  -2
  -6   3   2 28.6677 19.0266   1
   3   3  11 55.0441 7.74423  -2
  -5   3   2 55.0441 7.74423   1
  -4   3   2 275.413 5.06073   1
  -4   3   2 37.4313 2.20337   2
  -3   3   2 84.0302 1.88921   2
  -3   3   2 515.244 7.09260   1
   1   3   5 109.183 3.64042  -2
  -2   3   2 109.183 3.64042   1
  -1   3   2 1.61692 0.22087   2
  -1   3   2 11.9399 1.76642   1
   0   3   2 48.8169 1.77820   2
   0   3   2 254.693 4.32425   1
   1   3   2 70.9583 2.55015   1
   1   3   2 14.5751 1.29626   2
   2   3   2 24.6630 4.51503  -2
   2   3   2 24.6630 4.51503   1
   2   3   3 -5.4828 9.46359  -2
   2   3   2 -5.4828 9.46359  -2
   2   3   2 -5.4828 9.46359   1
   3   3   2 16.0086 2.00572   2
   3   3   2 81.5754 2.70152   1
   4   3   2 14.8279 3.56386   2
   4   3   2 29.9908 4.18323   1
   4   3   8 80.0395 8.75205  -2
   5   3   2 80.0395 8.75205   1
   3   4  11 -8.2285 12.7583  -2
  -5   4   2 -8.2285 12.7583   1
  -4   4   2 23.8145 3.22691   1
  -4   4   2 1.83342 0.65364   2
  -3   4   2 -0.1870 0.43371   2
  -3   4   2 4.57635 1.14494   1
   1   4   5 285.915 13.5128  -2
  -2   4   2 285.915 13.5128   1
  -1   4   2 25.9415 2.02155   2
  -1   4   2 148.965 4.45924   1
   0   4   2 43.2411 2.31408   2
   0   4   2 239.351 5.14927   1
   1   4   2 36.7725 3.29587   1
   1   4   2 0.95043 0.46557   2
   3   4   2 32.3256 3.70084   1
   3   4   2 13.0741 2.31133   2
   4   4   2 18.7320 5.97649   2
   4   4   2 6.42314 0.88066   1
  -4   5   2 6.41895 6.04385   1
  -4   5   2 1.62080 1.45600   2
  -3   5   2 33.4881 9.45619   2
  -3   5   2 62.2957 7.51254   1
  -1   5   2 18.0388 10.0372   2
  -1   5   2 37.5615 10.4931   1
   0   5   2 67.4336 6.60920   1
   0   5   2 28.4248 8.93899   2
   1   5   2 200.764 7.79773   1
   1   5   2 43.5339 5.76508   2
   3   5   2 79.3880 8.88887   1
   3   5   2 44.2696 7.11784   2
   0   6   2 31.3751 9.48175   2
   0   6   2 45.3390 22.8075   1
  -7   0   3 4.33389 2.48938   1
  -7   0   3 -0.1743 1.11407   2
  -6   0   3 1.11247 1.15713   2
  -6   0   3 21.8703 11.0446   1
   3   0  12 433.961 8.34280  -2
  -5   0   3 433.961 8.34280   1
   2   0  10 34.5597 3.81963  -2
  -4   0   3 34.5597 3.81963   1
  -4   0   3 9.11618 3.10721   2
  -3   0   3 53.2406 1.51362   2
  -3   0   3 326.277 5.60493   1
  -2   0   3 -0.0160 0.14736   2
  -2   0   3 7.17012 3.50022   1
   0   0   4 2915.31 31.3575  -2
  -1   0   3 2915.31 31.3575   1
   0   0   3 -0.0023 0.05457   2
   0   0   3 1.88266 0.30557   1
   1   0   3 83.9741 1.40712   2
   1   0   3 523.990 6.25743   1
   2   0   3 0.15766 0.12110   2
   3   0   4 38.9412 3.67126  -2
   3   0   3 38.9412 3.67126   1
   4   0   3 0.28507 0.27876   2
   5   0   3 350.006 6.44287   2
   5   0   3 2542.46 40.2448   1
   7   0   3 1.40542 1.10542   2
   7   0   3 4.45967 1.99359   1
  -7   1   3 5.70896 2.11163   2
  -6   1   3 356.392 7.56234   1
  -6   1   3 45.0367 2.65456   2
   3   1  12 52.3117 2.34377  -2
  -5   1   3 52.3117 2.34377   1
  -4   1   3 0.09384 0.33212   2
   2   1  10 4.80493 3.18896  -2
  -4   1   3 4.80493 3.18896   1
  -3   1   3 0.64919 0.15653   2
  -3   1   3 2.18704 0.62652   1
  -2   1   3 12.8990 0.64211   2
  -2   1   3 69.9287 1.69860   1
   0   1   4 9125.36 80.8935  -2
  -1   1   3 9125.36 80.8935   1
  -1   1   3 8870.46 229.677   1
   0   1   3 9999.99 75.2374   1
   0   1   3 2096.61 16.5340   2
   1   1   3 152.523 1.91525   1
   1   1   3 25.4873 0.57824   2
   2   1   3 64.7113 2.11375   1
   2   1   3 11.0843 0.74087   2
   3   1   4 260.857 3.64745  -2
   3   1   3 260.857 3.64745   1
   4   1   3 785.015 8.43069   1
   4   1   3 110.611 2.00410   2
   5   1   3 38.5049 3.29627   1
   5   1   3 18.7166 3.55760   2
  -6   2   3 30.8621 5.45291   2
  -6   2   3 137.066 6.36166   1
   3   2  12 143.083 6.06313  -2
  -5   2   3 143.083 6.06313   1
  -4   2   3 20.2534 10.5018   1
  -4   2   3 12.1994 2.63603   2
   2   2  10 71.0732 3.46748  -2
  -4   2   3 71.0732 3.46748   1
  -3   2   3 2.23919 0.36207   2
  -3   2   3 5.86257 0.51823   1
  -2   2   3 344.001 4.66146   1
  -2   2   3 59.7377 1.21880   2
   0   2   4 1730.98 17.4734  -2
  -1   2   3 1730.98 17.4734   1
   0   2   3 97.2494 1.68047   2
   0   2   3 523.923 5.52513   1
   1   2   3 59.8546 1.67719   1
   1   2   3 9.34042 0.85266   2
   2   2   3 78.0841 1.87614   2
   2   2   3 433.223 5.75896   1
   3   2   4 38.6187 4.35694  -2
   3   2   3 38.6187 4.35694   1
   4   2   3 12.6743 2.49405   2
   4   2   3 73.4939 3.74210   1
   5   2   3 27.7290 3.44386   2
   5   2   3 242.452 7.46482   1
  -6   3   3 10.5652 2.20170   2
  -6   3   3 82.4234 13.1427   1
   3   3  12 86.8938 5.88323  -2
  -5   3   3 86.8938 5.88323   1
  -4   3   3 13.8038 2.97295   2
   2   3  10 121.649 5.08460  -2
  -4   3   3 121.649 5.08460   1
  -3   3   3 202.028 4.55444   1
  -3   3   3 30.3867 1.49774   2
  -2   3   3 11.5458 1.40785   2
  -2   3   3 103.667 2.58026   1
   0   3   4 32.9595 2.01721  -2
  -1   3   3 32.9595 2.01721   1
   0   3   3 10.7700 1.80819   2
   0   3   3 46.3135 2.01703   1
   1   3   3 6.71795 1.05302   2
   1   3   3 11.3606 1.27861   1
   2   3   3 6.96166 2.25816   1
   2   3   3 26.1907 10.9183   2
   3   3   4 22.6338 5.87654  -2
   3   3   3 22.6338 5.87654   1
   4   3   3 268.595 6.93840   1
   4   3   3 36.1993 3.12405   2
   5   3   3 19.8870 7.49585   2
   5   3   3 32.2979 19.1285   1
   3   4  12 26.1976 14.2381  -2
  -5   4   3 26.1976 14.2381   1
   2   4  10 1.95481 9.72131  -2
  -4   4   3 1.95481 9.72131   1
  -4   4   3 29.3583 7.63912   1
  -4   4   3 0.06382 1.16487   2
  -3   4   3 89.2352 4.53931   1
  -3   4   3 15.5695 2.42981   2
  -2   4   3 45.8251 2.15598   2
  -2   4   3 287.121 5.46042   1
   0   4   4 232.339 5.76323  -2
  -1   4   3 232.339 5.76323   1
   0   4   3 104.090 3.73881   1
   0   4   3 22.1662 2.59816   2
   1   4   3 51.5602 3.30260   1
   1   4   3 14.6013 2.93080   2
   2   4   3 136.483 7.37434   1
   3   4   4 42.7225 8.43576  -2
   3   4   3 42.7225 8.43576   1
   4   4   3 1.19927 1.16345   2
   4   4   3 2.06341 0.92364   1
   5   4   3 58.6609 13.7383   1
   5   4   3 7.03860 2.68714   2
  -3   5   3 26.1406 6.32370   2
  -3   5   3 48.5303 7.46871   1
  -2   5   3 1.08785 0.70659   2
  -2   5   3 0.40474 1.09725   1
   0   5   4 7.70787 8.61646  -2
  -1   5   3 7.70787 8.61646   1
   0   5   3 31.3328 3.73396   2
   0   5   3 186.121 7.27878   1
   1   5   3 5.65318 1.95051   2
   1   5   3 13.9950 2.80950   1
   2   5   3 29.5667 11.3005   1
   3   5   4 151.635 22.1462  -2
   3   5   3 151.635 22.1462   1
  -6   0   4 40.6572 6.46898   1
  -6   0   4 18.4151 4.79764   2
  -5   0   4 -1.2935 1.45909   1
  -5   0   4 -0.4625 0.45792   2
   2   0  11 942.883 14.3679  -2
  -4   0   4 942.883 14.3679   1
  -3   0   4 9.20391 5.25544   1
  -3   0   4 6.50459 1.21220   2
  -2   0   4 8.98604 0.79207   2
  -2   0   4 53.1499 1.77165   1
  -1   0   4 2.61492 1.01927   2
  -1   0   4 3.85132 1.19084   1
  -1   0   3 2826.70 30.0249  -2
   0   0   4 2826.70 30.0249   1
   1   0   4 1.99610 0.48176   1
   1   0   4 0.00708 0.09844   2
   2   0   4 340.658 4.74514   2
   2   0   4 2203.19 23.4111   1
   3   0   3 6.42039 2.36391  -2
   3   0   4 6.42039 2.36391   1
   4   0   5 709.617 14.7627  -2
   4   0   4 709.617 14.7627   1
   5   0   4 19.1596 3.84748   2
   5   0   4 24.4654 5.24844   1
   6   0   4 -0.2357 1.26273   2
   6   0   4 6.51911 3.71071   1
  -6   1   4 2.52979 1.68857   1
  -6   1   4 14.1542 5.86046   2
  -5   1   4 73.9592 3.09281   1
  -5   1   4 14.2186 1.85394   2
   2   1  11 3.74846 2.22025  -2
  -4   1   4 3.74846 2.22025   1
  -3   1   4 299.060 3.65183   1
  -3   1   4 47.4569 1.15137   2
  -2   1   4 18.8437 1.10557   1
  -2   1   4 4.45329 0.63000   2
  -1   1   4 7130.58 48.9366   1
  -1   1   4 1320.55 9.99411   2
  -1   1   3 5764.65 41.8789  -2
   0   1   4 5764.65 41.8789   1
   1   1   4 1144.82 9.46118   1
   1   1   4 193.335 2.01867   2
   2   1   4 111.130 1.41944   2
   2   1   4 714.520 7.22928   1
   3   1   3 783.053 9.42467  -2
   3   1   4 783.053 9.42467   1
   4   1   5 71.4037 2.76381  -2
   4   1   4 71.4037 2.76381   1
   5   1   4 4.96039 0.85355   1
   5   1   4 1.62007 0.44451   2
   6   1   4 0.26232 0.57709   2
   6   1   4 41.8865 16.6023   1
  -6   2   4 226.675 8.32831   1
  -6   2   4 24.4822 3.34185   2
  -5   2   4 4.15968 1.14358   2
  -5   2   4 3.42479 1.23199   1
   2   2  11 259.897 5.71604  -2
  -4   2   4 259.897 5.71604   1
  -3   2   4 77.4078 2.62931   1
  -3   2   4 12.1466 1.10310   2
  -2   2   4 149.417 2.68919   1
  -2   2   4 26.0352 0.90507   2
  -1   2   4 129.721 2.28636   1
  -1   2   4 24.0324 0.94267   2
  -1   2   3 1880.85 16.2592  -2
   0   2   4 1880.85 16.2592   1
   1   2   4 101.843 2.07597   1
   1   2   4 16.4205 0.83611   2
   2   2   4 85.1931 1.68841   2
   2   2   4 511.023 7.01803   1
   3   2   3 18.3490 4.23053  -2
   3   2   4 18.3490 4.23053   1
   4   2   5 406.749 9.36754  -2
   4   2   4 406.749 9.36754   1
   5   2   4 -0.1327 3.45052   1
   5   2   4 20.5843 5.00740   2
   6   2   4 42.1771 7.61555   1
   6   2   4 1.41537 1.78564   2
  -6   3   4 0.50962 0.80551   2
  -6   3   4 18.8989 4.86472   1
  -5   3   4 14.3667 2.77535   2
  -5   3   4 39.5063 5.05719   1
   2   3  11 25.4658 3.50578  -2
  -4   3   4 25.4658 3.50578   1
  -3   3   4 62.5002 2.00919   2
  -3   3   4 379.434 7.22425   1
  -2   3   4 22.8525 1.75326   1
  -2   3   4 1.66997 0.25600   2
  -1   3   4 72.0593 1.74569   2
  -1   3   4 407.232 5.42259   1
  -1   3   3 102.383 2.85361  -2
   0   3   4 102.383 2.85361   1
   1   3   4 136.925 2.65143   2
   1   3   4 760.766 8.57677   1
   2   3   4 78.6354 2.32977   1
   2   3   4 14.4192 1.04083   2
   3   3   3 119.382 8.78348  -2
   3   3   4 119.382 8.78348   1
   4   3   5 12.7140 6.39660  -2
   4   3   4 12.7140 6.39660   1
   5   3   4 125.752 6.85069   1
   5   3   4 33.9458 7.77923   2
  -5   4   4 8.50327 2.24265   2
  -5   4   4 43.1421 10.9767   1
   2   4  11 80.6407 7.34180  -2
  -4   4   4 80.6407 7.34180   1
  -3   4   4 19.4469 8.98390   2
  -2   4   4 6.82925 1.64539   2
  -2   4   4 0.50799 0.44742   1
  -1   4   4 73.2194 3.50729   1
  -1   4   4 15.3437 2.39339   2
  -1   4   3 62.1069 3.52936  -2
   0   4   4 62.1069 3.52936   1
   1   4   4 43.7656 3.07780   1
   1   4   4 18.8831 3.54158   2
   2   4   4 23.2943 1.88819   2
   2   4   4 123.127 3.80100   1
   3   4   4 112.411 7.08000   1
   3   4   3 96.2105 7.38303  -2
   3   4   4 96.2105 7.38303   1
   4   4   5 -14.839 19.6348  -2
   4   4   4 -14.839 19.6348   1
   5   4   4 26.5404 7.90427   2
   5   4   4 19.7707 3.92725   1
  -3   5   4 31.2879 10.7518   1
  -3   5   4 43.4297 14.4789   2
  -2   5   4 6.55418 1.29956   2
  -2   5   4 40.5119 7.03468   1
  -1   5   4 33.5237 7.02777   1
  -1   5   4 25.0782 5.35159   2
  -1   5   3 56.5030 16.0215  -2
   0   5   4 56.5030 16.0215   1
   1   5   4 -0.1984 0.98898   2
   2   5   4 39.8418 8.64571   1
   2   5   4 11.6753 3.25172   2
   3   5   3 49.6784 18.8445  -2
   3   5   4 49.6784 18.8445   1
  -6   0   5 19.2368 7.01731   2
   3   0  15 40.8570 12.1158  -2
  -6   0   5 40.8570 12.1158   1
  -5   0   5 0.13760 0.73045   2
  -5   0   5 0.39607 1.37541   1
  -4   0   5 1.67580 0.47674   1
  -4   0   5 0.70064 0.26826   2
   1   0   9 5002.06 99.5936  -2
   1   0  10 5002.06 99.5936  -2
  -3   0   5 5002.06 99.5936   1
   1   0   9 5061.26 160.691  -2
  -3   0   5 5061.26 160.691   1
  -2   0   5 1.80259 0.41648   1
  -2   0   5 -0.0262 0.13963   2
  -1   0   5 579.974 6.87130   2
  -1   0   5 3286.62 32.5287   1
   0   0   5 0.48936 0.15102   1
   0   0   5 2.72370 0.94591   2
  -2   0   2 805.883 10.1432  -2
   1   0   5 805.883 10.1432   1
   2   0   5 8.67181 2.19174   1
   2   0   5 0.64662 0.33675   2
   3   0   5 0.21976 0.33045   2
   4   0   4 115.517 4.57412  -2
   4   0   5 115.517 4.57412   1
   6   0   5 13.2039 8.34336   2
   6   0   5 34.3486 12.3019   1
   3   1  15 1.17087 7.23479  -2
  -6   1   5 1.17087 7.23479   1
  -6   1   5 -0.6208 1.11008   1
  -6   1   5 0.38544 0.59218   2
  -5   1   5 0.50901 0.47562   1
  -5   1   5 5.38969 1.28754   2
  -4   1   5 29.2238 1.27597   2
  -4   1   5 197.901 3.39680   1
   1   1  10 553.099 20.4209  -2
   1   1   9 553.099 20.4209  -2
  -3   1   5 553.099 20.4209   1
  -2   1   5 10.9001 0.59573   2
  -2   1   5 73.5225 1.45764   1
  -1   1   5 83.0573 1.29568   2
  -1   1   5 481.601 5.00620   1
   0   1   5 30.8106 0.95409   1
   0   1   5 9.12597 0.47119   2
  -2   1   2 320.560 3.85645  -2
   1   1   5 320.560 3.85645   1
   2   1   5 3538.16 28.6614   1
   2   1   5 560.045 5.08876   2
   3   1   5 718.138 7.57760   1
   3   1   5 110.115 1.74234   2
   4   1   4 410.452 5.75400  -2
   4   1   5 410.452 5.75400   1
   6   1   5 40.0631 6.53710   1
   6   1   5 0.81241 0.73914   2
   3   2  15 20.9478 11.2994  -2
  -6   2   5 20.9478 11.2994   1
  -6   2   5 0.40636 1.21146   2
  -5   2   5 2.27823 1.01305   2
  -5   2   5 -0.1919 0.95577   1
  -4   2   5 28.7841 2.61309   1
  -4   2   5 7.07457 1.36000   2
   1   2   9 290.153 13.1577  -2
   1   2  10 290.153 13.1577  -2
  -3   2   5 290.153 13.1577   1
  -2   2   5 915.272 9.69573   1
  -2   2   5 154.506 2.14281   2
  -1   2   5 10.7247 0.79843   2
  -1   2   5 58.3386 1.76862   1
   0   2   5 30.9069 0.92420   2
   0   2   5 167.237 2.82070   1
  -2   2   2 563.669 6.67076  -2
   1   2   5 563.669 6.67076   1
   1   2   5 100.052 3.68348   2
   2   2   5 1.17777 0.51387   2
   2   2   5 14.8009 2.53637   1
   3   2   5 15.7174 1.67936   1
   3   2   5 6.49764 1.46487   2
   4   2   4 94.6423 4.50327  -2
   4   2   5 94.6423 4.50327   1
   6   2   5 1.65895 1.65935   1
   6   2   5 30.2604 12.9616   2
  -6   3   5 0.84675 1.66925   2
  -6   3   5 3.65212 5.12724   1
   3   3  15 -1.9009 16.8352  -2
  -6   3   5 -1.9009 16.8352   1
  -5   3   5 17.6580 5.00813   2
  -5   3   5 33.9892 5.48395   1
  -4   3   5 30.4227 2.62463   2
  -4   3   5 229.964 5.16718   1
   1   3   9 392.086 17.9456  -2
   1   3  10 392.086 17.9456  -2
  -3   3   5 392.086 17.9456   1
  -2   3   5 5.54602 0.72148   2
  -2   3   5 63.0977 1.86923   1
  -1   3   5 327.419 4.48388   1
  -1   3   5 59.4800 1.63441   2
   0   3   5 16.2327 1.27099   2
   0   3   5 66.0515 2.28228   1
  -2   3   2 576.227 9.54251  -2
   1   3   5 576.227 9.54251   1
   2   3   5 96.6212 1.73858   2
   2   3   5 632.832 7.08839   1
   3   3   5 4.74760 0.95853   2
   3   3   5 46.8944 4.20561   1
   4   3   4 10.5312 7.88117  -2
   4   3   5 10.5312 7.88117   1
   5   3   6 6.72714 15.5474  -2
   5   3   5 6.72714 15.5474   1
  -5   4   5 157.797 9.31024   1
  -5   4   5 31.2476 6.23047   2
  -4   4   5 84.9313 5.37401   1
  -4   4   5 16.2560 4.98911   2
  -2   4   5 0.68172 0.43345   2
  -2   4   5 1.68593 1.19391   1
  -1   4   5 99.1625 3.68815   1
  -1   4   5 21.6140 2.17649   2
   0   4   5 0.47103 0.67008   1
   0   4   5 9.68301 1.95881   2
  -2   4   2 234.520 13.6158  -2
   1   4   5 234.520 13.6158   1
   2   4   5 20.5394 2.34353   2
   2   4   5 109.053 3.82723   1
   3   4   5 131.120 6.91180   1
   3   4   5 26.9764 2.93556   2
   4   4   4 3.93710 10.0530  -2
   4   4   5 3.93710 10.0530   1
  -2   5   5 -0.7242 0.68982   2
  -2   5   5 -1.4438 1.24970   1
  -1   5   5 0.77276 1.13557   2
  -1   5   5 9.91106 2.00336   1
   0   5   5 34.7725 4.92211   2
   0   5   5 158.540 7.95259   1
   2   5   5 0.79738 0.72196   2
   2   5   5 37.2008 6.90242   1
   3   5   5 23.9922 7.94804   2
  -7   0   6 41.3312 12.1888   2
  -7   0   6 47.5523 10.7276   1
   3   0  16 206.361 11.3261  -2
  -6   0   6 206.361 11.3261   1
  -5   0   6 10.0998 6.37571   2
   2   0  14 11.5006 4.64190  -2
  -5   0   6 11.5006 4.64190   1
  -5   0   6 -0.4905 0.78845   1
  -4   0   6 213.054 5.02021   1
  -4   0   6 33.8232 1.73668   2
  -3   0   6 -0.0987 0.21249   2
  -3   0   6 11.6955 3.59989   1
   0   0   8 301.240 5.37230  -2
  -2   0   6 301.240 5.37230   1
  -1   0   6 0.15051 0.15539   1
  -1   0   6 0.80707 0.25967   2
   0   0   6 129.723 2.03656   2
   0   0   6 816.361 9.24062   1
   1   0   6 2.48938 0.60343   1
   1   0   6 0.02535 0.31177   2
   2   0   6 30.6057 1.90396   2
   2   0   6 190.709 6.78345   1
   3   0   6 3.26301 0.68392   1
   3   0   6 0.05482 0.36465   2
   4   0   6 158.611 4.41289   1
   4   0   6 30.7622 2.18107   2
  -7   1   6 47.7515 8.99138   1
  -7   1   6 41.8420 9.90314   2
   3   1  16 58.3202 5.02423  -2
  -6   1   6 58.3202 5.02423   1
  -5   1   6 23.7461 6.11952   2
   2   1  14 12.2279 4.63565  -2
  -5   1   6 12.2279 4.63565   1
  -5   1   6 26.1947 10.0130   1
  -4   1   6 3.47654 0.82078   1
  -4   1   6 1.44539 0.68976   2
  -3   1   6 9.92924 0.96119   2
  -3   1   6 33.8389 1.65622   1
   0   1   8 74.3360 1.57677  -2
  -2   1   6 74.3360 1.57677   1
  -1   1   6 608.221 5.72268   2
  -1   1   6 3468.89 28.8185   1
   0   1   6 43.4869 1.10226   1
   0   1   6 9.10485 0.43971   2
   1   1   6 3.10004 0.38211   1
   1   1   6 2.66115 0.41535   2
   2   1   6 9.51258 1.09461   2
   2   1   6 50.5920 4.06378   1
  -3   1   1 250.220 14.3990  -2
   2   1   7 250.220 14.3990  -1
   2   1   6 250.220 14.3990   1
   3   1   0 90.3385 2.56176  -2
   2   1   6 90.3385 2.56176   1
  -3   1   1 264.542 16.1641  -2
   2   1   6 264.542 16.1641  -1
   2   1   7 264.542 16.1641   1
   3   1   6 115.659 2.61390   1
   3   1   6 20.3973 0.94154   2
   4   1   6 23.8888 1.38480   2
   4   1   6 187.697 4.43142   1
   6   1   6 30.2665 10.8934   2
   3   2  16 110.399 11.0548  -2
  -6   2   6 110.399 11.0548   1
  -5   2   6 0.76383 0.55389   2
  -5   2   6 0.88328 1.95587   1
   2   2  14 2.67137 7.34618  -2
  -5   2   6 2.67137 7.34618   1
  -4   2   6 17.6402 2.98868   1
  -4   2   6 8.55673 1.12695   2
  -3   2   6 2.44898 0.27707   2
  -3   2   6 18.7352 6.29984   1
   0   2   8 3017.33 26.7735  -2
  -2   2   6 3017.33 26.7735   1
  -1   2   6 458.108 4.28810   2
  -1   2   6 2590.45 20.9581   1
   0   2   6 2.14796 0.35144   2
   0   2   6 13.1868 1.69375   1
   1   2   6 7.68890 0.88121   2
   1   2   6 31.5110 1.50118   1
   3   2   0 70.8026 6.84012  -2
   2   2   6 70.8026 6.84012   1
   2   2   6 28.8116 2.91524   1
   3   2   0 151.590 11.3286  -2
  -3   2   1 151.590 11.3286  -2
   2   2   6 151.590 11.3286   1
   2   2   6 7.93153 2.23199   2
   3   2   6 79.8716 3.14794   1
   3   2   6 11.4591 2.00731   2
   4   2   6 78.0432 2.83579   2
   4   2   6 543.611 9.70905   1
   6   2   6 2.00345 2.17994   2
  -5   3   6 -0.7120 0.64094   2
   2   3  14 25.8808 6.42658  -2
  -5   3   6 25.8808 6.42658   1
  -4   3   6 0.57926 0.44217   2
  -4   3   6 0.79133 1.07174   1
  -3   3   6 165.614 4.09036   1
  -3   3   6 20.2561 1.72229   2
   0   3   8 207.510 4.79711  -2
  -2   3   6 207.510 4.79711   1
  -1   3   6 100.030 2.05067   2
  -1   3   6 562.625 6.87161   1
   0   3   6 16.7429 2.57421   1
   0   3   6 9.66045 2.20302   2
   1   3   6 151.890 3.69670   1
   1   3   6 21.0686 1.69448   2
   2   3   6 42.1854 3.38329   1
   3   3   0 22.9770 4.19030  -2
   2   3   6 22.9770 4.19030   1
   3   3   6 261.150 6.81605   1
   3   3   6 33.3064 2.36791   2
   4   3   6 -0.0513 0.43634   2
   4   3   6 24.3475 7.12613   1
   5   3   5 12.7988 16.3812  -2
   5   3   6 12.7988 16.3812   1
  -5   4   6 2.15848 2.99011   2
   2   4  14 75.9775 30.6600  -2
  -5   4   6 75.9775 30.6600   1
  -4   4   6 42.0145 5.45439   1
  -4   4   6 0.46886 0.70090   2
  -3   4   6 2.90395 1.15425   1
  -3   4   6 9.15837 2.09334   2
   0   4   8 79.4014 7.33650  -2
  -2   4   6 79.4014 7.33650   1
  -1   4   6 20.2464 3.52228   2
  -1   4   6 63.3671 3.33634   1
   0   4   6 153.357 4.17268   1
   0   4   6 36.3482 2.86231   2
   1   4   6 37.7918 6.77847   1
   1   4   6 12.5800 6.28316   2
   3   4   0 174.784 17.2035  -2
   2   4   6 174.784 17.2035   1
   3   4   6 331.937 9.24259   1
   3   4   6 50.4237 2.93780   2
   4   4   6 86.5973 7.82668   1
   4   4   6 -0.4050 0.60424   2
  -3   5   6 35.5988 16.6040   2
   0   5   8 80.5958 14.8061  -2
  -2   5   6 80.5958 14.8061   1
  -1   5   6 2.15102 1.63884   2
  -1   5   6 69.0944 6.49318   1
   0   5   6 55.9147 5.94457   1
   0   5   6 21.0008 6.47703   2
   1   5   6 4.76673 3.03910   2
   1   5   6 134.769 17.2514   1
   3   5   6 8.86115 1.43342   1
   3   5   6 35.0089 7.54931   2
  -7   0   7 124.107 9.97493   1
  -7   0   7 36.2677 14.2425   2
  -6   0   7 -0.2588 0.72796   2
  -6   0   7 -0.5475 1.08220   1
   2   0  15 7.74352 4.80735  -2
  -5   0   7 7.74352 4.80735   1
  -4   0   7 -0.3543 0.73193   1
  -4   0   7 0.75911 0.33598   2
  -3   0   7 54.7080 1.67392   2
  -3   0   7 342.421 6.06391   1
  -2   0   7 2.23517 0.71791   1
  -2   0   7 0.40332 0.32212   2
  -1   0   7 261.731 4.99160  -2
  -1   0   7 261.731 4.99160   1
   0   0   7 1.38697 0.28724   2
   0   0   7 0.21380 0.19040   1
   1   0   7 739.273 9.64497   2
   1   0   7 4492.96 44.8502   1
  -3   0   1 167.184 5.86548  -2
   2   0   7 167.184 5.86548   1
   4   0   1 500.261 8.57202  -2
   3   0   7 500.261 8.57202   1
   4   0   7 25.1414 4.78535   1
   4   0   7 24.3697 2.93318   2
   5   0   7 27.6381 7.63857   1
   5   0   7 1.93265 1.51960   2
  -6   1   7 97.0712 4.88350   1
  -6   1   7 3.16499 2.11260   2
   2   1  15 28.5413 3.03216  -2
  -5   1   7 28.5413 3.03216   1
  -4   1   7 131.456 3.12415   2
  -4   1   7 896.557 10.0750   1
   1   1  13 932.222 44.2375  -2
  -4   1   7 932.222 44.2375   1
  -3   1   7 13.0342 1.86944   1
  -3   1   7 6.06345 1.04957   2
  -2   1   7 343.581 3.60948   1
  -2   1   7 58.0923 1.08478   2
  -1   1   7 282.973 3.70311  -2
  -1   1   7 282.973 3.70311   1
   0   1   7 11.5240 0.85252   1
   0   1   7 2.17119 0.34916   2
   1   1   7 5.34150 0.49024   2
   1   1   7 32.7317 1.15918   1
  -3   1   1 159.953 3.36832  -2
   2   1   7 159.953 3.36832   1
  -3   1   1 264.542 16.1641  -2
   2   1   6 264.542 16.1641  -1
   2   1   7 264.542 16.1641   1
  -3   1   1 250.220 14.3990  -2
   2   1   7 250.220 14.3990  -1
   2   1   6 250.220 14.3990   1
   4   1   1 5.15523 1.60127  -2
   3   1   7 5.15523 1.60127   1
   4   1   7 1264.88 14.0460   1
   4   1   7 178.447 2.86876   2
   5   1   7 14.2579 2.07536   2
   5   1   7 62.7576 3.81845   1
  -6   2   7 -0.7981 0.75361   2
  -6   2   7 0.04199 1.54424   1
   2   2  15 5.23555 6.24354  -2
  -5   2   7 5.23555 6.24354   1
  -4   2   7 18.8367 1.86150   2
   1   2  13 169.196 9.32536  -2
  -4   2   7 169.196 9.32536   1
  -4   2   7 138.026 6.18073   1
  -3   2   7 358.891 4.95488   1
  -3   2   7 60.7724 1.51050   2
  -2   2   7 155.958 2.22518   2
  -2   2   7 940.444 9.50927   1
   0   2   9 1016.43 34.2090  -2
  -2   2   7 1016.43 34.2090   1
  -1   2   7 4115.86 33.9451  -2
  -1   2   7 4115.86 33.9451   1
   0   2   7 3.35177 0.44215   2
   0   2   7 14.0370 1.97137   1
   1   2   7 181.216 2.60472   2
   1   2   7 1121.27 9.93761   1
  -3   2   1 305.481 6.96993  -2
   2   2   7 305.481 6.96993   1
   2   2   7 230.365 13.4966   1
   4   2   1 217.379 5.67221  -2
   3   2   7 217.379 5.67221   1
   4   2   7 23.5949 5.46161   1
   4   2   7 9.45281 1.91375   2
   5   2   7 45.7171 5.99151   1
   5   2   7 0.50566 0.43821   2
  -6   3   7 60.1039 8.40256   1
   2   3  15 14.2434 5.31809  -2
  -5   3   7 14.2434 5.31809   1
  -4   3   7 37.4789 7.25273   1
   1   3  13 32.8984 9.31498  -2
  -4   3   7 32.8984 9.31498   1
  -4   3   7 20.9883 7.70303   2
  -3   3   7 61.4281 3.67763   1
  -3   3   7 13.9608 1.92362   2
  -2   3   7 7.04677 0.97830   2
  -2   3   7 34.0172 2.71094   1
  -1   3   7 4.23136 1.96292  -2
  -1   3   7 4.23136 1.96292   1
   0   3   7 44.0361 2.28764   1
   0   3   7 13.5329 1.38785   2
   1   3   7 16.0639 1.55547   2
   1   3   7 79.8499 2.54620   1
  -3   3   1 239.550 6.48100  -2
   2   3   7 239.550 6.48100   1
   4   3   1 4.55605 13.5737  -2
   3   3   7 4.55605 13.5737   1
   3   3   7 0.45349 0.83504   2
   3   3   7 -1.4304 2.21853   1
   4   3   7 118.841 5.81290   1
   4   3   7 22.4188 4.71049   2
   5   3   7 43.0190 10.1654   1
   5   3   7 26.0056 7.52044   2
   2   4  15 27.0438 13.7693  -2
  -5   4   7 27.0438 13.7693   1
  -4   4   7 25.3266 5.79834   2
  -4   4   7 46.6126 19.7841   1
   1   4  13 62.2491 18.1449  -2
  -4   4   7 62.2491 18.1449   1
  -3   4   7 26.1408 3.66432   2
  -3   4   7 76.5060 4.75469   1
  -2   4   7 30.7054 2.55813   2
  -2   4   7 165.241 5.36617   1
   0   4   9 176.232 18.0433  -2
  -2   4   7 176.232 18.0433   1
  -1   4   7 16.4339 3.99370  -2
  -1   4   7 16.4339 3.99370   1
   0   4   7 218.479 5.27570   1
   0   4   7 33.1330 2.24935   2
   1   4   7 129.003 4.20334   1
   1   4   7 21.3341 2.15924   2
  -3   4   1 26.0468 12.5285  -2
   2   4   7 26.0468 12.5285   1
   4   4   1 13.2148 12.5479  -2
   3   4   7 13.2148 12.5479   1
   4   4   7 0.12191 0.86097   2
   4   4   7 43.8847 8.05254   1
  -3   5   7 43.6944 9.11838   1
  -2   5   7 13.5105 9.44217   2
  -2   5   7 36.0498 9.50467   1
  -1   5   7 4.45023 10.2074  -2
  -1   5   7 4.45023 10.2074   1
   0   5   7 28.0883 10.9951   1
   0   5   7 4.85209 2.06756   2
   1   5   7 -0.9529 1.03511   1
   1   5   7 21.7803 8.23714   2
   3   5   7 26.8249 7.40271   2
   3   5   7 2.16265 1.81419   1
   4   5   0 9.46448 15.0632  -2
   3   5   7 9.46448 15.0632   1
   3   0  19 -4.4312 18.5872  -2
  -7   0   8 -4.4312 18.5872   1
  -7   0   8 37.4703 14.5075   2
  -6   0   8 -0.4231 0.79095   2
  -6   0   8 1.43191 1.51412   1
  -5   0   8 0.67628 1.07776   1
   1   0  13 746.104 31.4141  -2
   1   0  14 746.104 31.4141  -2
  -4   0   8 746.104 31.4141   1
   1   0  14 758.473 29.7296  -2
  -4   0   8 758.473 29.7296   1
   1   0  14 827.761 37.4137  -2
   1   0  13 827.761 37.4137  -2
  -4   0   8 827.761 37.4137   1
  -3   0   8 -0.3354 0.26134   2
  -3   0   8 15.2818 6.26407   1
  -2   0   8 8.57652 1.43296   1
  -2   0   8 2.88810 0.43665   2
  -1   0   8 -0.0677 0.16096   2
  -1   0   8 6.89086 2.41912   1
  -2   0   6 551.493 8.37082  -2
   0   0   8 551.493 8.37082   1
   1   0   8 0.00085 0.25905   1
   1   0   8 0.05957 0.25794   2
   2   0   8 705.328 8.97787   2
   2   0   8 4639.92 47.2118   1
   4   0   0 28.2469 2.76799  -2
   3   0   8 28.2469 2.76799   1
   5   0   2 140.863 8.90048  -2
   4   0   8 140.863 8.90048   1
   5   0   8 32.1631 18.0356   1
   5   0   8 11.5877 7.25739   2
   6   0   8 25.4161 6.71227   2
   6   0   8 113.093 9.02011   1
  -6   1   8 1.40495 0.81930   2
  -6   1   8 46.2825 9.73840   1
  -5   1   8 25.6731 1.89787   2
  -5   1   8 150.253 4.29107   1
   1   1  14 243.371 6.83181  -2
  -4   1   8 243.371 6.83181   1
   1   1  13 269.854 9.95985  -2
   1   1  14 269.854 9.95985  -2
  -4   1   8 269.854 9.95985   1
   1   1  14 251.384 15.7144  -2
   1   1  13 251.384 15.7144  -2
  -4   1   8 251.384 15.7144   1
  -3   1   8 37.6773 1.17112   2
  -3   1   8 239.487 3.53026   1
  -2   1   8 678.806 6.85641   1
  -2   1   8 111.801 1.57780   2
  -1   1   8 57.3364 1.26007   2
  -1   1   8 346.114 4.12438   1
  -2   1   6 16.4873 1.01499  -2
   0   1   8 16.4873 1.01499   1
   1   1   8 1889.63 14.5877   1
   1   1   8 298.761 3.11641   2
   2   1   8 1.00606 0.37578   2
   2   1   8 9.44254 1.23234   1
   4   1   0 32.5020 1.86150  -2
   3   1   8 32.5020 1.86150   1
   5   1   2 72.3076 6.60697  -2
   4   1   8 72.3076 6.60697   1
   5   1   8 27.2921 5.73307   1
   5   1   8 0.01870 0.45630   2
   6   1   8 20.4312 6.74029   2
   6   1   8 45.8718 11.0929   1
  -6   2   8 31.1973 12.2163   1
  -5   2   8 -0.1067 0.49195   2
  -5   2   8 27.8170 7.75649   1
   1   2  14 697.343 31.7630  -2
   1   2  13 697.343 31.7630  -2
  -4   2   8 697.343 31.7630   1
   1   2  14 688.658 20.0539  -2
  -4   2   8 688.658 20.0539   1
   1   2  13 710.944 19.6800  -2
   1   2  14 710.944 19.6800  -2
  -4   2   8 710.944 19.6800   1
  -3   2   8 41.7126 1.38784   2
  -3   2   8 249.858 3.99987   1
  -2   2   8 2.42679 0.20881   2
  -2   2   8 1.34489 0.50359   1
  -1   2   8 282.978 4.22152   1
  -1   2   8 46.8696 1.45053   2
  -1   2   8 356.159 17.3388  -2
  -1   2   8 356.159 17.3388   1
  -2   2   6 583.877 6.51749  -2
   0   2   8 583.877 6.51749   1
   1   2   8 1.44278 0.37623   2
   1   2   8 1.11607 0.29324   1
   2   2   8 124.297 2.45989   1
   2   2   8 18.9759 1.28886   2
   4   2   0 124.380 4.28274  -2
   3   2   8 124.380 4.28274   1
   5   2   2 40.5786 7.87310  -2
   4   2   8 40.5786 7.87310   1
   5   2   8 -0.0996 0.59665   2
   6   2   8 79.1007 8.64095   1
   6   2   8 22.5260 14.5090   2
  -5   3   8 55.9455 5.45913   1
  -5   3   8 8.39614 1.77944   2
   1   3  14 29.2862 6.76750  -2
  -4   3   8 29.2862 6.76750   1
   1   3  13 33.8262 9.17536  -2
   1   3  14 33.8262 9.17536  -2
  -4   3   8 33.8262 9.17536   1
  -3   3   8 28.0853 2.98785   1
  -3   3   8 15.8287 2.74511   2
  -2   3   8 2.75602 0.78723   1
  -2   3   8 10.8881 2.52148   2
  -1   3   8 20.7971 3.11865   1
  -1   3   8 28.3746 6.34672  -2
  -1   3   8 28.3746 6.34672   1
  -1   3   8 7.45212 1.49285   2
  -2   3   6 53.3597 2.68843  -2
   0   3   8 53.3597 2.68843   1
   1   3   8 98.1020 2.31798   2
   1   3   8 588.857 7.10413   1
   2   3   8 638.136 7.91571   1
   2   3   8 92.7430 2.72061   2
   4   3   0 0.06863 9.30059  -2
   3   3   8 0.06863 9.30059   1
   5   3   2 152.433 13.2671  -2
   4   3   8 152.433 13.2671   1
   5   3   8 87.5496 8.99234   1
   5   3   8 25.7639 6.79949   2
  -5   4   8 3.27631 2.56289   1
  -5   4   8 32.3857 9.73837   2
   1   4  14 151.117 25.2613  -2
  -4   4   9 151.117 25.2613  -1
  -4   4   8 151.117 25.2613   1
  -3   4   8 66.2593 6.80614   1
  -3   4   8 6.59985 2.97662   2
  -2   4   8 10.6611 2.57133   2
  -2   4   8 22.1952 6.73143   1
  -1   4   8 77.5092 4.77667   1
  -1   4   8 17.1870 3.71675   2
  -1   4   8 69.4025 8.35015  -2
  -1   4   8 69.4025 8.35015   1
  -2   4   6 509.188 10.1371  -2
   0   4   8 509.188 10.1371   1
   1   4   8 2.17263 0.77443   2
   1   4   8 20.8472 3.64086   1
   2   4   8 22.5754 5.49317   1
   2   4   8 10.6687 2.47916   2
   4   4   0 42.0318 10.0388  -2
   3   4   8 42.0318 10.0388   1
  -3   5   8 35.7622 9.20238   2
  -3   5   8 110.076 9.12442   1
  -2   5   8 0.74048 1.93088   2
  -2   5   8 1.21991 2.14484   1
  -1   5   8 16.1038 9.52992   2
  -1   5   8 64.2434 10.3016  -2
  -1   5   8 64.2434 10.3016   1
  -1   5   8 34.1312 11.2401   1
  -2   5   6 44.5694 12.5430  -2
   0   5   8 44.5694 12.5430   1
   1   5   8 38.0165 8.01172   1
   1   5   8 10.3746 2.97237   2
   2   5   8 1.94310 1.99777   2
   2   5   8 73.9585 9.76065   1
  -6   0   9 1.12187 1.54350   1
   2   0  18 65.8067 8.77979  -2
  -6   0   9 65.8067 8.77979   1
  -6   0   9 24.7199 10.1703   2
  -5   0   9 0.19315 2.26958   2
  -5   0   9 1.02123 0.99612   1
  -4   0   9 12.0073 4.31745   2
  -4   0   9 15.7467 4.11370   1
   0   0  12 73.6774 8.57028  -2
  -3   0   9 73.6774 8.57028   1
   0   0  12 76.3040 11.1813  -2
   0   0  13 76.3040 11.1813  -2
  -3   0   9 76.3040 11.1813   1
   0   0  13 88.3127 10.6183  -2
   0   0  12 88.3127 10.6183  -2
  -3   0   9 88.3127 10.6183   1
  -2   0   9 4.63334 0.86911   2
  -2   0   9 8.81831 3.38164   1
  -1   0   9 99.7238 2.09158   2
  -1   0   9 671.823 8.46243   1
   0   0   9 -0.0193 0.18689   2
   0   0   9 -0.1617 0.25218   1
  -3   0   5 2150.24 71.7244  -2
   1   0   9 2150.24 71.7244   1
   1   0   9 1306.06 43.6487   1
   2   0   9 15.1993 3.16373   1
   2   0   9 8.31569 1.90014   2
   3   0   9 91.5297 2.56111   2
   3   0   9 656.855 9.66332   1
   5   0   1 2.17242 4.59526  -2
   4   0   9 2.17242 4.59526   1
   6   0   9 3.26033 3.35296   2
   6   0   9 22.0934 13.8432   1
  -6   1   9 35.9521 8.07997   1
  -6   1   9 -0.4271 2.62410   2
   2   1  18 6.22409 23.5554  -2
  -6   1   9 6.22409 23.5554   1
  -5   1   9 31.0890 4.41379   1
  -5   1   9 16.0133 4.09528   2
  -4   1   9 20.9466 1.52657   2
  -4   1   9 124.502 3.11512   1
   0   1  12 99.5753 6.43120  -2
   0   1  13 99.5753 6.43120  -2
  -3   1   9 99.5753 6.43120   1
   0   1  12 39.8632 4.29193  -2
  -3   1   9 39.8632 4.29193   1
   0   1  13 62.4714 4.95045  -2
   0   1  12 62.4714 4.95045  -2
  -3   1   9 62.4714 4.95045   1
  -2   1   9 390.608 4.72246   1
  -2   1   9 61.6909 1.15671   2
  -1   1   9 380.888 4.54111   1
  -1   1   9 61.9415 1.35219   2
   0   1   9 16.9619 1.10180   1
   0   1   9 4.67349 0.69763   2
  -3   1   5 1881.29 62.4493  -2
   1   1   9 1881.29 62.4493  -1
   1   1  10 1881.29 62.4493   1
  -3   1   5 73.2925 7.72192  -2
   1   1   9 73.2925 7.72192   1
   2   1   9 41.5247 1.82666   1
   2   1   9 8.13082 1.02370   2
   3   1   9 5.59372 0.68041   2
   3   1   9 5.72081 0.60372   1
   5   1   1 166.028 5.29611  -2
   4   1   9 166.028 5.29611   1
   5   1   9 3.12566 3.60111   1
   6   1   9 20.9071 5.52982   2
   6   1   9 23.0600 4.62566   1
  -6   2   9 -2.5611 4.10451   1
   2   2  18 33.9717 10.8093  -2
  -6   2   9 33.9717 10.8093   1
  -6   2   9 -0.1409 0.82726   2
  -5   2   9 19.7616 4.75584   2
  -5   2   9 1.05098 1.54931   1
  -4   2   9 188.340 4.78209   1
  -4   2   9 27.0359 2.02649   2
   0   2  13 60.4711 15.4744  -2
   0   2  12 60.4711 15.4744  -2
  -3   2   9 60.4711 15.4744   1
   0   2  12 39.1321 7.98716  -2
  -3   2   9 39.1321 7.98716   1
   0   2  12 79.2583 5.55992  -2
   0   2  13 79.2583 5.55992  -2
  -3   2   9 79.2583 5.55992   1
  -2   2   9 2.59027 0.54286   1
  -2   2   9 8.37780 1.39900   2
  -1   2   9 525.771 6.17619   1
  -1   2   9 86.4147 1.82701   2
   0   2   9 30.0736 1.67634   1
   0   2   9 19.6468 1.22284   2
  -3   2   4 201.391 12.6415  -2
   1   2   9 201.391 12.6415   1
  -3   2   5 210.377 13.4048  -2
   1   2   9 210.377 13.4048   1
   2   2   9 0.26782 0.47444   2
   2   2   9 9.23586 1.02079   1
   3   2   9 1208.74 14.2880   1
   3   2   9 167.718 3.14422   2
   5   2   1 191.902 8.41491  -2
   4   2   9 191.902 8.41491   1
  -5   3   9 4.30663 1.37747   2
  -5   3   9 12.6495 4.51504   1
  -4   3   9 17.2137 4.47057   1
  -4   3   9 0.83993 1.80787   2
  -2   3   9 1510.44 15.3051   1
  -2   3   9 245.946 3.53207   2
  -1   3   9 78.7199 2.57278   1
  -1   3   9 16.1425 1.33955   2
   0   3   9 0.45171 0.60546   2
   0   3   9 7.03819 2.06423   1
  -2   3   7 9.95037 10.5235  -2
   0   3   9 9.95037 10.5235   1
  -3   3   5 99.6098 11.2390  -2
   1   3   9 99.6098 11.2390   1
   2   3   9 163.113 3.67855   1
   2   3   9 23.1972 1.80164   2
   3   3   9 154.923 6.27043   1
   3   3   9 23.6611 2.12998   2
   5   3   1 179.422 19.5342  -2
   4   3   9 179.422 19.5342   1
  -4   4   9 8.05991 2.15111   1
  -4   4   9 25.4132 12.0083   2
   1   4  14 151.117 25.2613  -2
  -4   4   9 151.117 25.2613  -1
  -4   4   8 151.117 25.2613   1
   0   4  12 96.9532 25.3136  -2
   0   4  13 96.9532 25.3136  -2
  -3   4   9 96.9532 25.3136   1
  -2   4   9 23.0041 7.00627   1
  -2   4   9 3.88141 1.19616   2
  -1   4   9 221.347 5.67020   1
  -1   4   9 39.8662 2.30982   2
   0   4   9 -0.0223 0.24392   2
  -2   4   7 46.9729 11.3597  -2
   0   4   9 46.9729 11.3597   1
   0   4   9 25.4714 12.0502   1
   2   4   9 2.79676 1.60170   1
   2   4   9 4.46939 1.95987   2
   3   4   9 51.1122 7.69769   1
   3   4   9 19.3447 5.62671   2
   5   4   1 21.5992 21.1947  -2
   4   4   9 21.5992 21.1947   1
   0   5  12 25.6462 13.9035  -2
  -3   5   9 25.6462 13.9035   1
  -2   5   9 27.4879 13.2970   1
  -2   5   9 2.82260 2.47311   2
  -1   5   9 3.10196 1.28738   2
  -1   5   9 45.3471 10.6501   1
   0   5   9 41.8012 19.6203   1
  -2   5   7 -18.751 20.0144  -2
   0   5   9 -18.751 20.0144   1
   0   5   9 2.16884 3.54938   2
   2   5   9 -0.6834 0.91347   2
   2   5   9 0.18725 1.31159   1
   2   0  19 13.9818 10.1009  -2
  -6   0  10 13.9818 10.1009   1
  -5   0  10 27.1075 13.3555   1
   1   0  17 29.8852 10.5367  -2
  -5   0  10 29.8852 10.5367   1
  -4   0  10 26.9588 2.24304   2
  -4   0  10 165.029 4.70750   1
  -3   0  10 2.30435 0.84003   2
  -3   0  10 1.94509 0.41610   1
  -1   0  11 2405.36 25.8268  -2
  -2   0  10 2405.36 25.8268   1
  -1   0  10 9.33319 1.94628   1
  -1   0  10 5.62684 1.36693   2
   0   0  10 188.248 3.10875   2
   0   0  10 1215.69 14.0757   1
   1   0  10 34.8038 5.07588   1
  -3   0   5 772.420 25.6861  -2
   1   0  10 772.420 25.6861   1
   2   0  10 183.192 8.42977   1
  -4   0   3 220.357 6.13024  -2
   2   0  10 220.357 6.13024   1
   2   0  10 36.7060 3.43278   2
   3   0  10 3.67015 1.04068   2
   3   0  10 29.9726 14.9753   1
   4   0  10 12.2819 2.83955   2
   4   0  10 93.4615 4.93145   1
   6   0  10 134.795 10.6859   1
   6   0  10 34.7193 9.97173   2
   2   1  19 20.3159 9.27665  -2
  -6   1  10 20.3159 9.27665   1
   1   1  17 118.492 8.65373  -2
  -5   1  10 118.492 8.65373   1
  -5   1  10 86.9098 9.07805   1
  -5   1  10 17.1341 2.89186   2
  -4   1  10 76.4747 2.80974   1
  -4   1  10 18.8466 1.82645   2
  -3   1  10 154.104 2.85279   1
  -3   1  10 24.9117 1.58282   2
  -1   1  11 9.42820 1.72712  -2
  -2   1  10 9.42820 1.72712   1
  -1   1  10 88.6917 2.12436   1
  -1   1  10 14.1328 0.94068   2
   0   1  10 0.78971 0.14161   2
   0   1  10 1.27427 0.24740   1
  -3   1   5 1881.29 62.4493  -2
   1   1   9 1881.29 62.4493  -1
   1   1  10 1881.29 62.4493   1
   1   1  10 1867.16 59.7174   1
  -4   1   3 18.0683 2.55247  -2
   2   1  10 18.0683 2.55247   1
   2   1  10 18.9097 3.11288   1
   2   1  10 6.39400 2.16115   2
   3   1  10 42.5953 1.43646   2
   3   1  10 287.211 4.69629   1
   4   1  10 21.5666 1.79441   2
   4   1  10 87.9413 2.84352   1
   6   1  10 23.6756 5.35540   1
   6   1  10 13.7533 3.41593   2
   2   2  19 1.15197 13.8485  -2
  -6   2  10 1.15197 13.8485   1
  -5   2  10 18.8366 8.59445   1
   1   2  17 83.2494 12.7381  -2
  -5   2  10 83.2494 12.7381   1
  -5   2  10 18.8609 3.80480   2
  -4   2  10 -0.6894 0.55327   2
  -4   2  10 18.7701 7.72756   1
  -3   2  10 11.9661 1.67182   2
  -3   2  10 69.3204 5.69555   1
  -1   2  11 507.177 7.04374  -2
  -2   2  10 507.177 7.04374   1
  -1   2  10 18.6283 2.28010   1
  -1   2  10 11.4468 1.50133   2
   0   2  10 187.202 3.04785   1
   0   2  10 33.6260 1.22507   2
  -3   2   5 232.414 12.7612  -2
   1   2  10 232.414 12.7612   1
   1   2  10 158.131 11.4821   1
  -4   2   3 278.630 7.63193  -2
   2   2  10 278.630 7.63193   1
   2   2  10 263.625 8.04399   1
   3   2  10 26.2634 1.63584   2
   3   2  10 191.081 5.38073   1
   4   2  10 29.0302 2.81792   2
   4   2  10 266.312 7.81599   1
  -5   3  10 8.17228 1.77629   2
   1   3  17 -3.2933 13.4387  -2
  -5   3  10 -3.2933 13.4387   1
  -5   3  10 -4.1025 4.16336   1
  -4   3  10 34.6896 4.59574   1
  -4   3  10 12.8653 4.27276   2
  -3   3  10 210.025 11.5839   1
  -3   3  10 32.2072 2.62044   2
  -1   3  11 761.871 17.3832  -2
  -2   3  10 761.871 17.3832   1
  -1   3  10 64.1039 1.61310   2
  -1   3  10 388.672 5.48248   1
   0   3  10 27.1240 2.48778   1
   0   3  10 5.73519 0.94407   2
   1   3  10 20.2706 8.60489   1
  -4   3   3 211.725 8.18301  -2
   2   3  10 211.725 8.18301   1
   2   3  10 205.413 9.26385   1
   3   3  10 45.0597 4.98165   1
   3   3  10 3.62790 1.39022   2
   4   3  10 38.7940 7.34172   1
   4   3  10 8.36105 2.38379   2
   6   3   2 16.6446 15.6659  -2
   5   3  10 16.6446 15.6659   1
  -4   4  10 12.5979 3.47859   2
  -4   4  10 76.9420 7.26088   1
  -3   4  10 -1.4314 3.36225   1
  -3   4  10 41.6901 13.2365   2
  -1   4  11 22.9369 11.0633  -2
  -2   4  10 22.9369 11.0633   1
  -1   4  10 25.3083 4.56324   1
  -1   4  10 12.8071 2.89956   2
   0   4  10 37.1356 4.38433   1
   0   4  10 14.0384 7.55550   2
   1   4  10 39.4130 11.9748   1
   2   4  10 109.405 9.22831   1
  -4   4   3 127.176 19.5207  -2
   2   4  10 127.176 19.5207   1
   2   4  10 26.7453 3.17988   2
   3   4  10 11.5165 3.26291   2
   3   4  10 51.0603 7.38601   1
   4   4  10 -1.4426 1.02241   2
   4   4  10 14.2017 3.15099   1
  -1   5  11 8.15156 14.1846  -2
  -2   5  10 8.15156 14.1846   1
  -1   5  10 6.43691 1.84344   2
  -1   5  10 1.80784 1.24754   1
   0   5  10 36.5964 10.6114   1
   0   5  10 7.59651 1.82203   2
  -4   5   3 18.3615 15.3705  -2
   2   5  10 18.3615 15.3705   1
  -6   0  11 0.78115 1.41538   1
  -6   0  11 3.41848 1.87419   2
   1   0  18 204.083 9.09536  -2
  -5   0  11 204.083 9.09536   1
   0   0  16 28.1632 6.35265  -2
  -4   0  11 28.1632 6.35265   1
  -4   0  11 27.4577 8.18220   1
  -4   0  11 3.69763 1.45189   2
  -3   0  11 309.351 5.56130   1
  -3   0  11 50.2497 1.96148   2
  -1   0  12 7.47915 2.97396  -2
  -2   0  11 7.47915 2.97396   1
  -2   0  11 1.70281 0.72506   2
  -2   0  11 0.67756 0.47261   1
  -2   0  10 514.728 7.41954  -2
  -1   0  11 514.728 7.41954   1
   0   0  11 -0.0398 0.32184   1
   0   0  11 4.80865 0.89169   2
   1   0  11 106.709 2.54221   2
   1   0  11 667.823 9.20724   1
  -4   0   4 146.035 3.55055  -2
   2   0  11 146.035 3.55055   1
  -5   0   2 84.0138 6.46959  -2
   3   0  11 84.0138 6.46959   1
   3   0  11 74.4834 10.7943   1
   4   0  11 1.00600 1.18933   1
   4   0  11 0.79937 0.49498   2
   5   0  11 232.292 7.65902   1
   5   0  11 42.5171 6.10611   2
  -6   1  11 5.03540 1.41824   2
  -6   1  11 3.81957 2.27326   1
   1   1  18 35.2146 5.30350  -2
  -5   1  11 35.2146 5.30350   1
  -4   1  11 737.080 9.63796   1
  -4   1  11 103.239 2.43126   2
  -3   1  11 13.1114 1.90005   2
  -3   1  11 16.2981 2.62148   1
  -2   1  11 13.5757 2.73557   1
  -1   1  12 3.17443 3.49490  -2
  -2   1  11 3.17443 3.49490   1
  -2   1  11 3.11517 1.02896   2
  -2   1  10 75.8066 2.24049  -2
  -1   1  11 75.8066 2.24049   1
   0   1  11 1614.49 13.0572   1
   0   1  11 254.670 2.77671   2
   1   1  11 189.929 2.97664   1
   1   1  11 31.0701 0.99383   2
  -4   1   4 80.0590 2.99050  -2
   2   1  11 80.0590 2.99050   1
  -5   1   2 49.4712 4.06110  -2
   3   1  11 49.4712 4.06110   1
   3   1  11 77.4315 10.1157   1
   4   1  11 25.6281 4.88484   1
   4   1  11 1.48306 0.37314   2
   5   1  11 24.4149 5.35158   1
   5   1  11 3.45825 3.01703   2
  -6   2  11 1.28108 0.80339   2
   1   2  18 258.229 7.55477  -2
  -5   2  11 258.229 7.55477   1
  -4   2  11 33.9792 3.26145   1
   0   2  16 30.8056 11.4620  -2
  -4   2  11 30.8056 11.4620   1
  -4   2  11 6.80650 1.04560   2
  -3   2  11 73.1972 3.10896   1
  -3   2  11 18.1887 2.21282   2
  -1   2  12 26.5289 4.18679  -2
  -2   2  11 26.5289 4.18679   1
  -2   2  11 13.9362 2.90297   1
  -2   2  11 14.8357 5.96558   2
  -2   2  10 102.724 2.77980  -2
  -1   2  11 102.724 2.77980   1
   0   2  11 20.5979 2.38339   1
   0   2  11 10.0733 1.43210   2
   1   2  11 200.828 3.30769   2
   1   2  11 1274.15 11.2701   1
  -4   2   4 160.271 4.79883  -2
   2   2  11 160.271 4.79883   1
  -5   2   2 25.1951 14.1205  -2
   3   2  11 25.1951 14.1205   1
   4   2  11 104.474 6.05631   1
   4   2  11 19.2816 3.32718   2
   5   2  11 27.5998 4.69039   2
   5   2  11 132.151 7.26554   1
  -4   3  11 25.8121 3.53427   2
  -4   3  11 147.413 6.93765   1
  -3   3  11 16.1813 2.67021   2
  -3   3  11 29.0233 5.79269   1
  -2   3  11 23.1838 5.09180   1
  -1   3  12 48.3325 8.91866  -2
  -2   3  11 48.3325 8.91866   1
  -2   3  11 24.1635 8.41902   2
  -2   3  10 242.515 5.12590  -2
  -1   3  11 242.515 5.12590   1
   0   3  11 376.283 5.58846   1
   0   3  11 52.9085 2.08738   2
   1   3  11 2.48600 0.76162   2
   1   3  11 3.26591 0.61664   1
  -4   3   4 143.646 7.34114  -2
   2   3  11 143.646 7.34114   1
  -5   3   2 72.7592 14.6982  -2
   3   3  11 72.7592 14.6982   1
   4   3  11 24.2698 15.2053   1
   4   3  11 45.3446 18.2255   2
  -4   4  11 132.563 11.4946   1
  -4   4  11 34.0914 11.0556   2
  -3   4  11 0.39980 1.90482   1
  -3   4  11 39.8641 14.6124   2
  -2   4  11 0.38612 3.94070   2
  -2   4  10 3.54369 5.06471  -2
  -1   4  11 3.54369 5.06471   1
   0   4  11 0.37344 1.46067   2
   0   4  11 34.2839 5.69463   1
   1   4  11 19.1129 3.09323   2
   1   4  11 88.4955 4.60900   1
  -4   4   4 83.4469 12.7230  -2
   2   4  11 83.4469 12.7230   1
  -5   4   2 7.81617 20.6735  -2
   3   4  11 7.81617 20.6735   1
  -2   5  11 71.6019 23.5105   1
  -2   5  11 62.6123 17.8383   2
  -2   5  10 25.7612 10.1029  -2
  -1   5  11 25.7612 10.1029   1
   0   5  11 133.547 10.3796   1
   0   5  11 34.6638 7.79797   2
   1   5  11 8.49775 1.76021   1
   1   5  11 25.9410 9.20063   2
  -6   0  12 45.4109 17.5787   1
  -6   0  12 20.7864 12.2919   2
  -5   0  12 14.4829 8.04480   1
  -5   0  12 2.90221 0.76041   2
   0   0  17 2.97848 10.7098  -2
  -4   0  13 2.97848 10.7098  -1
  -4   0  12 2.97848 10.7098   1
  -3   0  12 -0.1548 0.51502   1
  -3   0  12 0.83463 1.56917   2
  -2   0  12 2.20001 0.43160   2
  -2   0  12 34.6215 2.49621   1
  -1   0  12 14.3647 4.23180   1
  -2   0  11 7.66125 5.17823  -2
  -1   0  12 7.66125 5.17823   1
  -1   0  12 10.8892 4.18226   2
  -3   0   9 51.4132 6.57240  -2
   0   0  12 51.4132 6.57240   1
   1   0  12 0.04013 0.44409   1
   1   0  12 2.69786 0.69956   2
   2   0  12 96.8825 3.56127   1
   2   0  12 17.1170 1.68934   2
  -5   0   3 56.1402 3.98959  -2
   3   0  12 56.1402 3.98959   1
   5   0  12 1.80887 0.72971   2
  -6   1  12 4.68487 0.81720   2
  -6   1  12 14.2139 3.65007   1
  -5   1  12 34.7235 2.92504   2
  -5   1  12 172.436 5.64743   1
   0   1  16 143.210 8.88652  -2
   0   1  17 143.210 8.88652  -2
  -4   1  12 143.210 8.88652   1
  -3   1  12 31.2490 1.56291   2
  -3   1  12 152.315 3.51545   1
  -2   1  12 18.2346 2.28682   1
  -2   1  12 1.68774 0.27796   2
  -1   1  12 -0.0746 0.25513   2
  -2   1  11 16.2859 3.33368  -2
  -1   1  12 16.2859 3.33368   1
  -1   1  12 5.01215 0.87741   1
  -3   1   9 57.0683 3.76963  -2
   0   1  12 57.0683 3.76963   1
   0   1  12 35.1387 4.65272   1
   1   1  12 437.230 5.09475   1
   1   1  12 65.7316 1.40178   2
   2   1  12 33.7497 2.42460   1
   2   1  12 8.38997 1.53327   2
  -5   1   3 319.504 6.11408  -2
   3   1  12 319.504 6.11408   1
   4   1  12 -1.8094 1.87137   2
   4   1  12 0.40986 1.13070   1
   5   1  12 26.7726 15.1853   1
   5   1  12 32.9344 9.45026   2
  -6   2  12 47.4354 11.8639   1
  -6   2  12 33.7641 8.76013   2
  -5   2  12 25.1157 6.23040   1
  -5   2  12 21.3033 4.39958   2
   0   2  17 89.8091 24.0034  -2
   0   2  16 89.8091 24.0034  -2
  -4   2  12 89.8091 24.0034   1
   0   2  16 141.328 21.2773  -2
   0   2  17 141.328 21.2773  -2
  -4   2  12 141.328 21.2773   1
  -3   2  12 0.21498 0.35040   2
  -3   2  12 5.97687 1.08484   1
  -2   2  12 115.132 2.53508   2
  -2   2  12 707.875 8.26781   1
  -1   2  12 21.5349 4.59247   1
  -2   2  11 21.6290 3.85664  -2
  -1   2  12 21.6290 3.85664   1
  -1   2  12 5.46520 2.18152   2
  -3   2   9 59.3586 9.60692  -2
   0   2  12 59.3586 9.60692   1
   1   2  12 541.620 6.17800   1
   1   2  12 85.3010 2.03179   2
   2   2  12 12.4431 3.24236   2
   2   2  12 27.5282 2.82201   1
  -5   2   3 151.957 6.75272  -2
   3   2  12 151.957 6.75272   1
   4   2  12 69.9163 14.6438   1
   5   2  12 0.03002 1.14127   1
   5   2  12 20.0140 9.29609   2
  -5   3  12 -1.0802 1.39139   2
  -5   3  12 -0.5366 2.92549   1
   0   3  16 194.482 26.8334  -2
   0   3  17 194.482 26.8334  -2
  -4   3  12 194.482 26.8334   1
  -3   3  12 30.2191 5.16012   1
  -3   3  12 0.31047 0.50361   2
  -2   3  12 51.6359 4.57760   1
  -2   3  12 21.5582 3.69594   2
  -1   3  12 42.3358 3.91902   2
  -1   3  12 220.121 10.4167   1
  -2   3  11 257.750 9.90864  -2
  -1   3  12 257.750 9.90864   1
  -3   3   9 95.2721 9.25394  -2
   0   3  12 95.2721 9.25394   1
   1   3  12 0.83368 0.68191   1
   1   3  12 0.27923 0.91351   2
   2   3  12 23.5755 2.09661   2
   2   3  12 152.431 4.38947   1
  -5   3   3 488.162 13.7980  -2
   3   3  12 488.162 13.7980   1
   0   4  16 18.1315 32.8538  -2
   0   4  17 18.1315 32.8538  -2
  -4   4  12 18.1315 32.8538   1
  -3   4  12 39.6146 5.35363   2
  -3   4  12 268.141 10.2210   1
  -2   4  12 169.047 6.00743   1
  -2   4  12 25.2551 4.12330   2
  -2   4  11 33.6963 11.8578  -2
  -1   4  12 33.6963 11.8578   1
  -1   4  12 1.39799 2.99288   1
  -1   4  12 12.8476 5.92245   2
   1   4  12 39.2448 7.20179   1
   1   4  12 10.6528 3.63789   2
   2   4  12 15.0662 9.18120   2
   2   4  12 46.6393 6.74676   1
  -5   4   3 25.9648 14.1366  -2
   3   4  12 25.9648 14.1366   1
  -1   5  12 144.304 17.4098   1
  -1   5  12 52.7887 10.5249   2
  -2   5  11 127.333 21.9867  -2
  -1   5  12 127.333 21.9867   1
  -3   5   9 24.6982 16.0174  -2
   0   5  12 24.6982 16.0174   1
   1   5  12 0.67654 1.78756   2
   1   5  12 0.25379 1.52932   1
   1   0  21 6.16194 24.7188  -2
  -6   0  13 6.16194 24.7188   1
  -6   0  13 -0.8296 1.17261   2
  -6   0  13 -1.9862 2.20342   1
  -5   0  13 25.7534 3.62476   2
  -5   0  13 194.047 7.02994   1
   0   0  17 2.97848 10.7098  -2
  -4   0  13 2.97848 10.7098  -1
  -4   0  12 2.97848 10.7098   1
  -4   0  13 -0.1199 1.70050   1
  -1   0  15 209.409 7.72336  -2
  -3   0  13 209.409 7.72336   1
  -2   0  13 0.04952 0.48679   1
  -2   0  13 0.23408 0.32197   2
  -1   0  13 254.310 4.86087   1
  -1   0  13 41.2693 1.64346   2
   0   0  13 -0.8007 1.57632   1
   1   0  13 187.241 7.39726   1
   1   0  13 33.9811 6.95150   2
   2   0  13 0.68724 0.62600   1
   2   0  13 5.16789 0.99485   2
   3   0  13 114.322 3.43697   2
   3   0  13 784.717 14.3681   1
   5   0  13 50.1119 9.26607   1
   5   0  13 8.66268 3.00273   2
  -6   1  13 -0.0248 1.14282   2
   1   1  21 11.1757 13.1690  -2
  -6   1  13 11.1757 13.1690   1
  -5   1  13 44.7461 5.04677   1
  -5   1  13 14.3754 3.21546   2
  -4   1  13 15.2217 7.63942   2
  -4   1  13 18.0723 4.40777   1
  -1   1  15 39.0638 4.28067  -2
  -3   1  13 39.0638 4.28067   1
  -2   1  13 638.904 7.24962   1
  -2   1  13 99.9399 2.19190   2
  -1   1  13 64.4202 1.96611   1
  -1   1  13 7.95675 0.97640   2
  -3   1   9 307.639 13.0264  -2
   0   1  13 307.639 13.0264   1
   0   1  13 329.904 8.08272   1
  -3   1  10 339.607 15.1821  -2
   0   1  13 339.607 15.1821   1
   0   1  13 57.4961 3.23834   2
   1   1  13 90.3160 10.1063   1
   1   1  13 22.9745 3.10071   2
  -4   1   7 234.741 6.78383  -2
   1   1  13 234.741 6.78383   1
   2   1  13 414.598 5.61401   1
   2   1  13 59.7923 1.61670   2
   3   1  13 3.57559 0.88007   2
   3   1  13 5.41670 0.68038   1
   5   1  13 -0.1135 1.62100   1
   5   1  13 1.05266 0.57551   2
  -5   2  13 42.9226 8.97470   1
  -5   2  13 7.83209 2.08320   2
  -4   2  13 22.5225 13.6932   1
  -4   2  13 -1.6073 2.07213   2
  -1   2  15 45.2522 6.92100  -2
  -3   2  13 45.2522 6.92100   1
  -2   2  13 2.20830 0.61235   2
  -2   2  13 41.6538 3.15022   1
  -1   2  13 0.80075 0.83785   2
  -1   2  13 1.93611 1.31855   1
   0   2  13 17.0215 4.20097   2
   0   2  13 160.925 14.0182   1
   1   2  13 20.5937 4.52636   1
  -4   2   7 60.5081 7.21705  -2
   1   2  13 60.5081 7.21705   1
   2   2  13 115.831 3.65835   1
   2   2  13 17.5198 2.23848   2
   3   2  13 134.022 5.15039   1
   3   2  13 20.4753 1.96957   2
   5   2  13 12.2679 3.79365   2
   5   2  13 48.5931 12.3018   1
  -5   3  13 1.78551 2.38980   1
  -5   3  13 10.8332 4.43552   2
  -4   3  13 21.6081 9.20964   2
  -4   3  13 42.3443 7.72801   1
  -1   3  15 72.2721 12.6595  -2
  -3   3  13 72.2721 12.6595   1
  -2   3  13 225.216 7.15006   1
  -2   3  13 48.8406 3.82478   2
  -1   3  13 19.0448 2.61241   2
  -1   3  13 137.414 5.58542   1
   0   3  13 51.0491 8.46443   1
   0   3  13 25.4555 7.10677   2
   1   3  13 33.1399 10.8577   1
  -4   3   7 42.5853 14.9110  -2
   1   3  13 42.5853 14.9110   1
   2   3  13 35.4105 2.40151   2
   2   3  13 274.641 5.43459   1
   3   3  13 152.635 7.23093   1
   3   3  13 25.8176 4.11519   2
  -6   3   2 41.0345 15.8651  -2
   4   3  13 41.0345 15.8651   1
  -6   3   1 11.7092 24.5914  -2
  -6   3   2 11.7092 24.5914  -2
   4   3  13 11.7092 24.5914   1
  -1   4  15 336.318 23.6268  -2
  -3   4  13 336.318 23.6268   1
  -2   4  13 32.5720 6.09889   2
  -2   4  13 54.8331 6.88609   1
  -1   4  13 -0.5583 0.83106   1
  -1   4  13 0.35096 1.52352   2
   1   4  13 3.60332 1.79057   1
  -4   4   7 19.1192 18.9739  -2
   1   4  13 19.1192 18.9739   1
   2   4  13 -0.3605 1.33487   2
   2   4  13 40.1115 10.4005   1
   3   4  13 4.95778 3.07968   2
   3   4  13 70.3767 9.50936   1
   1   0  22 90.3680 16.8923  -2
  -6   0  14 90.3680 16.8923   1
  -5   0  14 38.2036 8.95938   1
   0   0  20 30.1572 20.3575  -2
  -5   0  14 30.1572 20.3575   1
  -5   0  14 28.6140 9.11763   2
  -4   0  14 28.8805 3.12136   2
  -4   0  14 100.631 5.05918   1
  -1   0  16 15.1307 5.15191  -2
  -3   0  14 15.1307 5.15191   1
  -2   0  14 110.311 4.63717  -2
  -2   0  14 110.311 4.63717   1
  -1   0  14 0.34351 0.34470   2
  -1   0  14 0.50977 0.42087   1
   0   0  14 1261.51 15.5416   1
   0   0  14 184.549 4.03404   2
  -4   0   8 120.486 5.96899  -2
   1   0  14 120.486 5.96899   1
  -5   0   6 19.3938 6.96430  -2
   2   0  14 19.3938 6.96430   1
   2   0  14 49.6712 9.40227   1
   2   0  14 1.11759 0.39210   2
   3   0  14 5.33762 2.29769   1
   3   0  14 21.2581 5.82304   2
   4   0  14 29.3894 6.02494   1
   4   0  14 3.98606 1.50461   2
  -6   1  14 62.3952 5.23001   2
  -6   1  14 55.8418 14.4802   1
  -5   1  14 30.8661 3.99355   2
  -5   1  14 73.8386 5.84232   1
   0   1  20 77.4225 20.5132  -2
  -5   1  14 77.4225 20.5132   1
  -4   1  14 75.5063 3.69178   1
  -4   1  14 13.4239 2.09556   2
  -3   1  14 39.3403 7.21703   1
  -3   1  14 10.7243 3.82093   2
  -1   1  16 86.3750 6.59979  -2
  -3   1  14 86.3750 6.59979   1
  -2   1  14 16.2397 3.01765  -2
  -2   1  14 16.2397 3.01765   1
  -1   1  14 25.7155 1.72182   2
  -1   1  14 140.380 2.84648   1
   0   1  14 105.092 2.49970   1
   0   1  14 15.7446 1.23348   2
  -4   1   8 611.001 12.2196  -2
   1   1  14 611.001 12.2196   1
   2   1  14 50.1141 5.64720   1
  -5   1   6 53.3897 5.40663  -2
   2   1  14 53.3897 5.40663   1
   2   1  14 15.8213 7.15075   2
   3   1  14 2.92313 0.70081   1
   3   1  14 3.48157 1.10000   2
   4   1  14 1.78032 0.90809   1
   4   1  14 16.6292 4.51366   2
   7   1   0 370.964 32.0167  -2
  -7   1   1 370.964 32.0167  -2
   5   1  14 370.964 32.0167   1
  -5   2  14 2.74304 2.99185   1
   0   2  20 -12.418 26.6031  -2
  -5   2  14 -12.418 26.6031   1
  -5   2  14 26.4740 11.9385   2
  -4   2  14 3.95722 2.45157   2
  -4   2  14 42.9123 6.37031   1
  -3   2  14 29.2565 9.33090   1
  -1   2  16 22.6340 9.45679  -2
  -3   2  14 22.6340 9.45679   1
  -3   2  14 1.87823 2.01020   2
  -2   2  14 41.2798 6.10317  -2
  -2   2  14 41.2798 6.10317   1
  -1   2  14 38.3130 3.11454   1
  -1   2  14 6.20976 1.01843   2
   0   2  14 136.709 3.80648   2
   0   2  14 875.085 9.40716   1
  -4   2   8 304.971 7.34582  -2
   1   2  14 304.971 7.34582   1
   2   2  14 81.8049 5.69415   1
  -5   2   6 68.2575 6.86445  -2
   2   2  14 68.2575 6.86445   1
   2   2  14 30.1278 8.50526   2
   3   2  14 6.22130 1.13452   2
   3   2  14 26.5261 6.94325   1
   4   2  14 8.23533 1.81009   2
   4   2  14 82.3804 7.53095   1
  -4   3  14 0.69399 1.01007   2
  -4   3  14 64.2390 7.05397   1
  -3   3  14 1.67117 3.30987   1
  -3   3  14 3.55780 2.60638   2
  -1   3  16 46.3398 21.0833  -2
  -3   3  14 46.3398 21.0833   1
  -2   3  14 5.83801 6.52279  -2
  -2   3  14 5.83801 6.52279   1
  -1   3  14 4.03100 1.09108   1
  -1   3  14 6.53432 2.05265   2
   0   3  14 19.2644 2.78356   1
   0   3  14 20.0042 6.21703   2
  -4   3   8 179.184 13.1129  -2
   1   3  14 179.184 13.1129   1
   2   3  14 26.9467 14.4526   1
  -5   3   6 72.6184 17.8168  -2
   2   3  14 72.6184 17.8168   1
   3   3  14 2.97431 3.25850   1
   3   3  14 -0.4710 0.77128   2
  -3   4  14 37.8375 20.3136   1
  -3   4  14 3.50278 3.56030   2
  -2   4  14 16.5613 11.0652  -2
  -2   4  14 16.5613 11.0652   1
  -1   4  14 33.2502 9.96095   1
  -1   4  14 11.7902 3.00263   2
   0   4  14 58.4302 5.84503   1
   0   4  14 27.9234 5.39485   2
  -4   4   8 89.9351 15.5724  -2
   1   4  14 89.9351 15.5724   1
  -5   4   6 17.3151 22.1806  -2
   2   4  14 17.3151 22.1806   1
   2   4  14 -0.3949 1.88051   1
   0   0  21 416.099 21.2314  -2
  -5   0  15 416.099 21.2314   1
  -4   0  15 21.2144 3.94956   2
  -4   0  15 21.3120 10.8162   1
  -3   0  15 286.299 6.73464   1
  -3   0  15 40.3752 3.24991   2
  -2   0  15 13.9122 4.36018  -2
  -2   0  15 13.9122 4.36018   1
  -3   0  13 73.5040 4.74346  -2
  -1   0  15 73.5040 4.74346   1
   0   0  15 0.25948 0.82937   1
   0   0  15 -0.5083 0.56691   2
   1   0  15 44.7189 3.65143   1
   1   0  15 5.29366 2.14835   2
  -5   0   7 -5.4119 5.46404  -2
   2   0  15 -5.4119 5.46404   1
   3   0  15 8.86579 3.70936   1
   4   0  15 0.84793 1.78985   1
   4   0  15 -0.2199 0.69102   2
   0   1  21 21.0107 17.6775  -2
  -5   1  15 21.0107 17.6775   1
  -4   1  15 2.26459 0.97025   2
  -4   1  15 5.73211 2.32431   1
  -3   1  15 32.9527 2.52767   2
  -3   1  15 177.329 4.85469   1
  -2   1  15 2.22709 5.09609  -2
  -2   1  15 2.22709 5.09609   1
  -2   1  15 19.4650 10.0325   1
  -2   1  15 5.73460 3.87899   2
  -3   1  13 3.16401 3.89314  -2
  -1   1  15 3.16401 3.89314   1
   0   1  15 104.807 2.23406   2
   0   1  15 688.844 8.29119   1
   1   1  15 36.4891 1.61482   2
   1   1  15 279.685 4.61724   1
  -5   1   7 263.658 5.35254  -2
   2   1  15 263.658 5.35254   1
   3   1  15 36.1945 6.06329   1
   3   1  15 -0.2225 0.49145   2
  -6   1   5 28.7656 6.97817  -2
   3   1  15 28.7656 6.97817   1
   4   1  15 53.4298 5.69447   1
   4   1  15 18.4530 4.20291   2
   0   2  20 111.498 16.9123  -2
   0   2  21 111.498 16.9123  -2
  -5   2  15 111.498 16.9123   1
  -4   2  15 1.41044 0.72953   2
  -4   2  15 31.9886 8.46815   1
  -3   2  15 166.190 5.27297   1
  -3   2  15 23.5985 2.92275   2
  -2   2  15 163.632 10.5074  -2
  -2   2  15 163.632 10.5074   1
  -3   2  13 240.751 10.6428  -2
  -1   2  15 240.751 10.6428   1
   0   2  15 80.2889 3.20800   1
   0   2  15 15.4173 2.84593   2
   1   2  15 9.67771 1.90711   1
   1   2  15 0.27708 1.06445   2
  -5   2   7 3.81061 4.50385  -2
   2   2  15 3.81061 4.50385   1
   3   2  15 119.542 8.94670   1
  -6   2   5 32.6328 14.0691  -2
   3   2  15 32.6328 14.0691   1
   4   2  15 40.9939 11.2429   1
   4   2  15 -0.5355 0.83964   2
  -4   3  15 27.6334 10.9092   2
  -4   3  15 0.85656 2.21054   1
  -3   3  15 1.91387 1.34976   1
  -2   3  15 39.0007 6.99315  -2
  -2   3  15 39.0007 6.99315   1
  -3   3  13 -1.2607 11.1877  -2
  -1   3  15 -1.2607 11.1877   1
   0   3  15 54.1426 3.85522   1
   0   3  15 25.2436 3.48060   2
   1   3  15 36.2759 4.79580   1
   1   3  15 15.6724 3.59572   2
  -5   3   7 -1.1256 10.1469  -2
   2   3  15 -1.1256 10.1469   1
   3   3  15 83.8322 12.4508   1
   3   3  15 0.58941 3.49939   2
  -3   4  15 31.5778 8.52614   2
  -3   4  15 53.5655 8.68312   1
  -2   4  15 49.6337 12.8379  -2
  -2   4  15 49.6337 12.8379   1
  -2   4  15 10.9127 4.56936   1
  -2   4  15 2.96283 3.40775   2
  -3   4  13 83.0079 16.4013  -2
  -1   4  15 83.0079 16.4013   1
   0   4  15 0.68326 1.07564   1
   0   4  15 30.6138 14.3692   2
   1   4  15 37.1840 6.80684   1
   1   4  15 7.72402 2.84254   2
  -5   4   7 71.9500 15.8912  -2
   2   4  15 71.9500 15.8912   1
  -5   0  16 -2.2657 2.52208   2
  -5   0  16 19.1307 9.56668   1
  -3   0  16 0.32622 0.68175   2
  -3   0  16 -0.6242 0.98723   1
  -2   0  16 105.301 4.71976   1
  -2   0  16 38.0983 5.63339   2
  -1   0  16 0.83325 1.54701   2
  -3   0  14 27.9163 5.63934  -2
  -1   0  16 27.9163 5.63934   1
  -4   0  12 134.829 12.4680  -2
   0   0  16 134.829 12.4680   1
   1   0  16 4.13148 0.82637   2
   1   0  16 0.83926 1.10460   1
   2   0  16 224.477 7.14784   1
   2   0  16 30.8298 3.10617   2
  -6   0   6 44.8911 7.38893  -2
   3   0  16 44.8911 7.38893   1
   4   0  16 34.3588 10.9711   1
   4   0  16 1.02437 2.79036   2
  -5   1  16 0.51264 2.57779   1
  -3   1  16 182.923 5.02410   1
  -3   1  16 31.5744 2.63569   2
  -2   1  16 96.1137 3.96805   1
  -2   1  16 17.0846 2.03366   2
  -1   1  16 2.49901 1.20074   2
  -3   1  14 67.7733 7.25600  -2
  -1   1  16 67.7733 7.25600   1
  -1   1  16 82.6601 7.47211   1
   0   1  16 204.125 9.18270   1
   1   1  16 3.73919 0.84620   2
   1   1  16 31.9788 3.35151   1
   2   1  16 3.40233 0.92274   2
   2   1  16 26.1926 3.73446   1
  -6   1   6 127.855 7.39344  -2
   3   1  16 127.855 7.39344   1
  -6   1   6 279.483 23.0740  -2
  -6   1   5 279.483 23.0740  -2
   3   1  16 279.483 23.0740   1
   4   1  16 5.89777 1.88849   2
   4   1  16 27.0575 5.18593   1
  -5   2  16 1.25961 3.55606   1
  -5   2  16 -0.0448 3.32428   2
  -3   2  16 3.91682 1.41699   2
  -3   2  16 7.77328 4.05649   1
  -2   2  16 137.178 4.81937   1
  -2   2  16 25.1352 2.42994   2
  -1   2  16 0.36699 2.16585   2
  -1   2  16 41.5007 10.7413   1
  -3   2  14 14.8660 9.35384  -2
  -1   2  16 14.8660 9.35384   1
   0   2  16 39.0101 6.23058   1
   1   2  16 5.40430 1.09461   2
   1   2  16 22.2247 7.61265   1
   2   2  16 119.249 4.22112   1
   2   2  16 16.3456 4.43307   2
  -6   2   5 45.3213 12.6002  -2
  -6   2   6 45.3213 12.6002  -2
   3   2  16 45.3213 12.6002   1
  -6   2   6 30.9382 13.9351  -2
   3   2  16 30.9382 13.9351   1
   4   2  16 0.59169 0.94354   2
   4   2  16 13.8875 1.71622   1
  -1   3  19 7.82400 19.3523  -2
  -4   3  16 7.82400 19.3523   1
  -3   3  16 83.0611 7.56866   1
  -3   3  16 24.9762 8.12118   2
  -2   3  16 32.2121 6.85727   1
  -1   3  16 5.05188 2.71092   2
  -3   3  14 79.8436 10.9864  -2
  -1   3  16 79.8436 10.9864   1
  -1   3  16 62.0074 17.4635   1
  -4   3  12 99.5863 21.9938  -2
   0   3  16 99.5863 21.9938   1
   1   3  16 41.8277 4.50916   1
   1   3  16 16.6788 6.28291   2
   2   3  16 1.17627 1.44866   2
   2   3  16 14.4825 3.07906   1
  -6   3   6 76.8013 17.8855  -2
   3   3  16 76.8013 17.8855   1
  -6   3   6 32.4013 23.5635  -2
  -6   3   5 32.4013 23.5635  -2
   3   3  16 32.4013 23.5635   1
  -2   4  16 42.1700 8.16095   1
  -2   4  16 11.2866 2.63439   2
  -1   4  16 7.36322 4.29389   1
   1   4  16 52.1378 9.34615   1
   1   4  16 8.14694 3.26615   2
  -5   0  17 0.06018 1.18880   2
  -5   0  17 -0.9719 3.85272   1
  -4   0  17 2.26821 2.82303   1
  -2   0  18 18.5758 6.18913  -2
  -3   0  17 18.5758 6.18913   1
  -2   0  17 0.03843 0.65751   2
  -2   0  17 20.3090 6.80619   1
  -1   0  17 103.347 3.37165   2
  -1   0  17 751.764 14.4166   1
  -4   0  13 -0.4201 11.9566  -2
   0   0  17 -0.4201 11.9566   1
  -5   0  10 28.7684 8.31315  -2
   1   0  17 28.7684 8.31315   1
   1   0  17 31.6793 8.74958   1
   1   0  17 25.5833 10.4754   2
   2   0  17 11.0854 2.76347   1
   2   0  17 16.5801 5.59473   2
   3   0  17 8.09287 2.58533   2
   3   0  17 38.7225 7.38413   1
  -5   1  17 -0.8238 0.98572   2
  -5   1  17 42.0624 19.2620   1
  -4   1  17 40.7313 5.39689   2
  -4   1  17 3.83729 3.28931   1
  -2   1  18 47.0997 6.01046  -2
  -3   1  17 47.0997 6.01046   1
  -2   1  17 4.64569 0.81358   1
  -2   1  17 4.35860 0.78756   2
  -1   1  17 21.5270 3.72772   1
  -1   1  17 10.6597 2.41895   2
  -4   1  12 74.2785 10.4950  -2
   0   1  17 74.2785 10.4950   1
   1   1  17 114.695 6.30529   1
  -5   1  10 136.420 7.99200  -2
   1   1  17 136.420 7.99200   1
   1   1  17 36.0481 4.45049   2
   2   1  17 40.5866 3.88090   1
   2   1  17 9.01333 1.96813   2
   3   1  17 2.00451 1.55106   2
   3   1  17 19.8921 2.72059   1
  -7   1   4 128.478 26.9226  -2
  -7   1   5 128.478 26.9226  -2
   4   1  17 128.478 26.9226   1
  -4   2  17 -2.5069 3.11783   2
  -4   2  17 -0.2853 4.13577   1
  -2   2  18 42.7053 7.41455  -2
  -3   2  17 42.7053 7.41455   1
  -2   2  17 66.0361 5.93946   1
  -2   2  17 13.2149 2.03456   2
  -1   2  17 161.539 5.60834   1
  -1   2  17 26.1813 2.34310   2
   1   2  17 73.2242 5.60233   1
   1   2  17 2.66777 1.95728   2
  -5   2  10 85.6630 13.0317  -2
   1   2  17 85.6630 13.0317   1
   2   2  17 0.93812 1.22998   2
   2   2  17 42.9073 8.64801   1
   3   2  17 0.43362 1.77730   2
   3   2  17 30.7965 7.74365   1
  -2   3  17 4.37445 1.23629   2
  -2   3  17 60.9123 6.29827   1
  -1   3  17 0.80634 2.02341   2
  -1   3  17 65.7254 6.75685   1
   0   3  17 308.189 25.4237   1
  -5   3  10 -10.387 13.9549  -2
   1   3  17 -10.387 13.9549   1
   1   3  17 2.86645 1.36017   1
   1   3  17 -0.8897 3.16597   2
   2   3  17 8.55437 1.54115   1
   2   3  17 -1.9185 1.81128   2
  -1   4  17 72.7896 9.47401   1
  -1   4  17 27.8397 8.26138   2
   0   4  17 -6.0222 6.09520   1
  -5   0  18 29.6656 17.6493   2
  -4   0  18 177.352 9.47618   1
  -4   0  18 17.6919 3.96640   2
  -2   0  19 -6.2846 14.4229  -2
  -3   0  18 -6.2846 14.4229   1
  -3   0  17 36.5982 5.62235  -2
  -2   0  18 36.5982 5.62235   1
  -1   0  18 -0.2528 0.78347   1
  -1   0  18 7.64530 1.72414   2
   0   0  18 1148.04 18.9200   1
   0   0  18 181.699 4.85047   2
  -5   0  11 21.2762 7.31867  -2
   1   0  18 21.2762 7.31867   1
   2   0  18 414.883 13.6333   1
  -6   0   9 413.380 21.7612  -2
   2   0  18 413.380 21.7612   1
   2   0  18 58.0539 5.98286   2
   3   0  18 -2.0873 1.52137   1
   3   0  18 -1.2736 0.73302   2
  -4   1  18 29.3172 13.7925   2
  -4   1  18 40.4134 11.5370   1
  -2   1  19 121.042 9.99736  -2
  -3   1  18 121.042 9.99736   1
  -3   1  18 132.611 15.7737   1
  -3   1  17 69.2314 6.12981  -2
  -2   1  18 69.2314 6.12981   1
  -1   1  18 120.876 4.00293   1
  -1   1  18 18.1916 4.36078   2
   0   1  18 4.98507 1.36011   1
   0   1  18 7.17406 1.53314   2
  -5   1  11 96.3976 6.66430  -2
   1   1  18 96.3976 6.66430   1
   2   1  18 8.63566 3.75944   2
   2   1  18 50.5125 4.89665   1
  -6   1   9 43.3098 9.26928  -2
   2   1  18 43.3098 9.26928   1
   3   1  18 27.4013 7.63641   2
   3   1  18 34.2156 6.72148   1
  -4   2  18 0.77139 2.20544   1
  -2   2  19 86.1134 11.2621  -2
  -3   2  18 86.1134 11.2621   1
  -3   2  17 21.1695 8.30076  -2
  -2   2  18 21.1695 8.30076   1
  -1   2  18 3.91103 1.20086   1
  -1   2  18 -0.7580 0.89731   2
   0   2  18 17.8162 4.49209   2
   0   2  18 71.2194 4.45114   1
  -5   2  11 61.1481 8.65648  -2
   1   2  18 61.1481 8.65648   1
   2   2  18 28.5086 8.34521   2
   2   2  18 118.501 6.31183   1
   3   2  18 3.71220 1.45044   1
   3   2  18 3.09549 2.67836   2
  -2   3  19 0.05795 18.9120  -2
  -3   3  18 0.05795 18.9120   1
  -3   3  17 27.4525 12.9462  -2
  -2   3  18 27.4525 12.9462   1
  -1   3  18 113.318 6.96837   1
   0   3  18 32.1015 11.7722   1
   0   3  18 -0.0323 1.58312   2
  -5   3  11 15.6238 13.3505  -2
   1   3  18 15.6238 13.3505   1
   2   3  18 -1.7062 1.89936   2
   2   3  18 34.5762 18.5327   1
  -4   0  19 26.7369 18.5061   1
  -4   0  19 0.90270 1.18356   2
  -3   0  19 32.1020 4.85498   2
  -3   0  19 166.988 8.65400   1
  -3   0  18 15.9252 13.4407  -2
  -2   0  19 15.9252 13.4407   1
   0   0  19 18.7102 3.43707   2
   0   0  19 24.5386 5.61842   1
   1   0  19 40.0062 7.35287   1
  -6   0  10 -1.6433 7.13895  -2
   2   0  19 -1.6433 7.13895   1
   3   0  19 38.5449 12.3528   1
   3   0  19 16.0740 8.11556   2
  -4   1  19 65.4590 10.7438   1
  -4   1  19 1.15159 0.88603   2
  -3   1  19 46.2003 7.11982   1
  -3   1  19 0.18376 0.72605   2
  -3   1  18 24.4621 7.93531  -2
  -2   1  19 24.4621 7.93531   1
  -2   1  19 20.4345 12.2785   2
   0   1  19 30.1392 4.97335   1
   0   1  19 1.82974 1.10093   2
   1   1  19 0.19778 0.44315   2
   1   1  19 29.0459 5.76536   1
  -6   1  10 60.2907 6.70981  -2
   2   1  19 60.2907 6.70981   1
   3   1  19 29.6198 8.02778   2
   3   1  19 17.2656 4.18341   1
  -3   2  19 38.3820 15.8761   2
  -3   2  19 40.8496 17.5095   1
  -3   2  18 77.6761 9.54184  -2
  -2   2  19 77.6761 9.54184   1
  -1   2  19 3.38281 3.18528   1
   0   2  19 1.55496 1.20152   1
   0   2  19 2.70741 1.82854   2
   1   2  19 179.089 5.80819   1
   1   2  19 23.4825 4.18858   2
  -6   2  10 26.3774 15.0744  -2
   2   2  19 26.3774 15.0744   1
  -6   2  10 60.3495 14.6712  -2
  -6   2   9 60.3495 14.6712  -2
   2   2  19 60.3495 14.6712   1
  -3   3  18 1.93369 11.9936  -2
  -2   3  19 1.93369 11.9936   1
  -4   3  16 56.4961 17.4755  -2
  -1   3  19 56.4961 17.4755   1
   0   3  19 -0.9905 1.73726   2
   0   3  19 29.9374 13.1620   1
   1   3  19 23.9488 5.57358   1
   1   3  19 30.0757 12.7909   2
  -2   0  22 17.7186 12.2255  -2
  -4   0  20 17.7186 12.2255   1
  -3   0  20 0.48979 1.23582   2
  -3   0  20 -1.8876 2.78467   1
  -2   0  20 57.0582 7.94391   1
  -2   0  20 24.4480 12.5139   2
   0   0  20 154.613 8.54055   1
   0   0  20 31.0607 12.1350   2
  -5   0  14 171.755 17.2785  -2
   0   0  20 171.755 17.2785   1
   1   0  20 1.32755 1.97137   1
   1   0  20 12.6817 6.37566   2
   2   0  20 0.74261 0.74582   2
   2   0  20 35.6540 9.97501   1
  -3   1  20 60.2114 7.56667   1
  -3   1  20 20.5029 5.43329   2
  -2   1  20 5.12383 0.98602   2
  -2   1  20 45.3594 5.92154   1
   0   1  20 21.5334 7.21109   1
  -5   1  14 45.9821 10.6723  -2
   0   1  20 45.9821 10.6723   1
   1   1  20 0.78403 1.21419   1
   1   1  20 -0.5107 1.37293   2
   2   1  20 9.00815 2.12593   2
  -3   2  20 29.0773 17.0166   2
  -2   2  20 67.4415 7.06044   1
  -2   2  20 23.9816 5.68834   2
   0   2  20 73.7013 11.8629   1
  -5   2  14 75.5256 21.0151  -2
   0   2  20 75.5256 21.0151   1
   1   2  20 32.2290 7.95551   1
   1   2  20 0.40196 1.80610   2
  -3   0  21 82.2209 12.3881  -2
  -3   0  21 82.2209 12.3881   1
  -2   0  21 0.15910 1.35348   2
  -2   0  21 -0.9236 1.52903   1
  -1   0  21 44.0610 7.80913   1
  -1   0  21 2.88077 2.93943   2
  -5   0  15 68.8730 7.98813  -2
   0   0  21 68.8730 7.98813   1
   1   0  21 168.469 9.17506   1
   1   0  21 28.3515 7.19705   2
   2   0  21 -2.0492 1.49945   1
   2   0  21 1.52167 3.66569   2
  -3   1  21 3.81961 10.2761  -2
  -3   1  21 3.81961 10.2761   1
  -2   1  21 95.4135 6.15024   1
  -2   1  21 26.8199 5.26587   2
  -1   1  21 44.3630 6.93028   1
  -1   1  21 27.0474 13.8893   2
  -5   1  15 25.9494 10.6228  -2
   0   1  21 25.9494 10.6228   1
   1   1  21 0.46942 1.08784   1
  -6   1  13 -16.113 22.7287  -2
   1   1  21 -16.113 22.7287   1
  -6   1  14 112.950 19.4885  -2
   1   1  21 112.950 19.4885   1
  -2   2  21 -1.3536 1.86562   2
  -2   2  21 0.85284 2.14679   1
  -1   2  21 12.1990 3.45084   2
  -1   2  21 48.1910 7.27409   1
  -5   2  15 9.40686 20.3867  -2
   0   2  21 9.40686 20.3867   1
  -4   0  20 17.3266 14.7519  -2
  -2   0  22 17.3266 14.7519   1
  -1   0  22 1.25401 3.04395   2
  -1   0  22 1.78592 1.46532   1
   0   0  22 2.74306 2.32234   1
  -6   0  14 18.7535 9.08018  -2
   1   0  22 18.7535 9.08018   1
  -2   1  22 0.71035 1.33810   2
  -2   1  22 1.07340 5.16971   1
  -1   1  22 24.7549 6.98419   2
  -1   1  22 87.3394 6.66179   1
   0   1  22 0.06952 1.90768   2
   0   1  22 48.2513 17.9128   1
   0   0   0    0.00    0.00   0
;
_shelx_hkl_checksum              81650
_olex2_submission_special_instructions 'No special instructions were received'
loop_
_space_group_symop_operation_xyz
'x, y, z'
'-x+1/2, y+1/2, -z+1/2'
'-x, -y, -z'
'x-1/2, -y-1/2, z-1/2'
loop_
_atom_site_label
_atom_site_type_symbol
_atom_site_fract_x
_atom_site_fract_y
_atom_site_fract_z
_atom_site_U_iso_or_equiv
_atom_site_adp_type
_atom_site_occupancy
_atom_site_site_symmetry_order
_atom_site_calc_flag
_atom_site_refinement_flags_posn
_atom_site_refinement_flags_adp
_atom_site_refinement_flags_occupancy
_atom_site_disorder_assembly
_atom_site_disorder_group
C1 C 0.698(2) 1.137(4) 0.5058(8) 0.0378(17) Uani 0.712(5) 1 d D U P A 1
H1 H 0.838160 1.231150 0.511939 0.045 Uiso 0.712(5) 1 calc R . P A 1
C2 C 0.6565(19) 0.942(4) 0.5563(8) 0.0364(14) Uani 0.712(5) 1 d D U P A 1
C3 C 0.454(2) 0.797(4) 0.5534(8) 0.0347(13) Uani 0.712(5) 1 d D U P A 1
C4 C 0.4052(18) 0.593(2) 0.6061(6) 0.0358(15) Uani 0.712(5) 1 d D U P A 1
C5 C 0.4076(15) 0.281(2) 0.7048(5) 0.0388(18) Uani 0.712(5) 1 d D U P A 1
H5 H 0.432230 0.169950 0.746204 0.047 Uiso 0.712(5) 1 calc R . P A 1
C6 C 0.2184(16) 0.2846(19) 0.6599(5) 0.0402(18) Uani 0.712(5) 1 d D U P A 1
H6 H 0.098664 0.162685 0.666481 0.048 Uiso 0.712(5) 1 calc R . P A 1
F3 F 0.802(2) 0.907(3) 0.6138(6) 0.038(3) Uani 0.356(2) 1 d D U P A 1
N2 N 0.196(2) 0.471(3) 0.6023(7) 0.0393(16) Uani 0.712(5) 1 d D U P A 1
S1 S 0.5967(5) 0.5020(6) 0.67718(15) 0.0426(9) Uani 0.712(5) 1 d D U P A 1
C1A C 0.720(5) 1.153(10) 0.499(2) 0.0378(17) Uani 0.288(5) 1 d D U P A 2
H1A H 0.855917 1.252566 0.496403 0.045 Uiso 0.288(5) 1 calc R . P A 2
C2A C 0.683(4) 0.961(9) 0.550(2) 0.0364(14) Uani 0.288(5) 1 d D U P A 2
C3A C 0.475(5) 0.827(9) 0.549(2) 0.0347(13) Uani 0.288(5) 1 d D U P A 2
C4A C 0.462(4) 0.634(5) 0.6076(13) 0.0379(18) Uani 0.288(5) 1 d D U P A 2
C5A C 0.328(4) 0.281(5) 0.6866(10) 0.041(2) Uani 0.288(5) 1 d D U P A 2
H5A H 0.252836 0.148781 0.712412 0.049 Uiso 0.288(5) 1 calc R . P A 2
C6A C 0.535(3) 0.382(4) 0.7039(12) 0.041(2) Uani 0.288(5) 1 d D U P A 2
H6A H 0.625559 0.309159 0.743835 0.049 Uiso 0.288(5) 1 calc R . P A 2
F3A F 0.834(5) 0.852(8) 0.5986(16) 0.038(3) Uani 0.144(2) 1 d D U P A 2
N2A N 0.623(4) 0.596(5) 0.6649(12) 0.0393(16) Uani 0.288(5) 1 d D U P A 2
S1A S 0.2272(17) 0.434(2) 0.6096(6) 0.0426(9) Uani 0.288(5) 1 d D U P A 2
loop_
_atom_site_aniso_label
_atom_site_aniso_U_11
_atom_site_aniso_U_22
_atom_site_aniso_U_33
_atom_site_aniso_U_23
_atom_site_aniso_U_13
_atom_site_aniso_U_12
C1 0.041(3) 0.038(3) 0.034(3) 0.000(3) 0.002(3) 0.006(3)
C2 0.040(3) 0.037(3) 0.031(3) -0.001(2) 0.000(2) 0.008(2)
C3 0.040(3) 0.034(3) 0.030(2) -0.004(2) 0.004(2) 0.007(2)
C4 0.039(3) 0.035(3) 0.034(3) -0.004(2) 0.003(3) 0.004(3)
C5 0.041(4) 0.039(3) 0.037(3) 0.001(3) 0.001(3) 0.001(3)
C6 0.042(3) 0.039(3) 0.039(3) 0.001(3) 0.001(3) -0.002(3)
F3 0.033(4) 0.044(5) 0.037(5) -0.001(4) 0.000(4) 0.005(4)
N2 0.043(3) 0.036(3) 0.039(3) 0.002(2) 0.001(2) 0.001(2)
S1 0.0414(14) 0.0425(17) 0.0433(15) 0.0036(12) 0.0010(10) 0.0015(12)
C1A 0.041(3) 0.038(3) 0.034(3) 0.000(3) 0.002(3) 0.006(3)
C2A 0.040(3) 0.037(3) 0.031(3) -0.001(2) 0.000(2) 0.008(2)
C3A 0.040(3) 0.034(3) 0.030(2) -0.004(2) 0.004(2) 0.007(2)
C4A 0.041(3) 0.036(3) 0.037(3) -0.002(3) 0.004(3) 0.004(3)
C5A 0.042(4) 0.039(3) 0.040(3) 0.003(3) 0.001(3) 0.001(3)
C6A 0.043(4) 0.039(4) 0.040(4) 0.004(4) 0.002(4) 0.001(4)
F3A 0.033(4) 0.044(5) 0.037(5) -0.001(4) 0.000(4) 0.005(4)
N2A 0.043(3) 0.036(3) 0.039(3) 0.002(2) 0.001(2) 0.001(2)
S1A 0.0414(14) 0.0425(17) 0.0433(15) 0.0036(12) 0.0010(10) 0.0015(12)
loop_
_atom_type_symbol
_atom_type_description
_atom_type_scat_dispersion_real
_atom_type_scat_dispersion_imag
_atom_type_scat_source
C C 0.0033 0.0016 'International Tables Vol C Tables 4.2.6.8 and 6.1.1.4'
H H 0.0000 0.0000 'International Tables Vol C Tables 4.2.6.8 and 6.1.1.4'
F F 0.0171 0.0103 'International Tables Vol C Tables 4.2.6.8 and 6.1.1.4'
N N 0.0061 0.0033 'International Tables Vol C Tables 4.2.6.8 and 6.1.1.4'
S S 0.1246 0.1234 'International Tables Vol C Tables 4.2.6.8 and 6.1.1.4'
loop_
_geom_angle_atom_site_label_1
_geom_angle_atom_site_label_2
_geom_angle_atom_site_label_3
_geom_angle
_geom_angle_site_symmetry_1
_geom_angle_site_symmetry_3
C2 C1 H1 118.0 . .
C2 C1 C3 124.1(10) . 3_676
C3 C1 H1 118.0 3_676 .
C1 C2 C3 122.8(9) . .
F3 C2 C1 120.2(11) . .
F3 C2 C3 116.7(9) . .
C1 C3 C4 122.8(9) 3_676 .
C2 C3 C1 113.1(7) . 3_676
C2 C3 C4 124.0(8) . .
C3 C4 S1 123.0(7) . .
N2 C4 C3 120.6(9) . .
N2 C4 S1 116.4(7) . .
C6 C5 H5 125.1 . .
C6 C5 S1 109.7(7) . .
S1 C5 H5 125.1 . .
C5 C6 H6 120.0 . .
C5 C6 N2 120.1(9) . .
N2 C6 H6 120.0 . .
C4 N2 C6 103.4(9) . .
C5 S1 C4 90.2(4) . .
C2A C1A H1A 125.7 . .
C2A C1A C3A 109(2) . 3_676
C3A C1A H1A 125.7 3_676 .
C1A C2A C3A 121(2) . .
F3A C2A C1A 128(2) . .
F3A C2A C3A 111(2) . .
C1A C3A C4A 115(2) 3_676 .
C2A C3A C4A 114.4(17) . .
C3A C4A S1A 120.0(15) . .
N2A C4A C3A 126.2(16) . .
N2A C4A S1A 113.8(13) . .
C6A C5A H5A 127.0 . .
C6A C5A S1A 105.9(14) . .
S1A C5A H5A 127.0 . .
C5A C6A H6A 118.8 . .
C5A C6A N2A 122.4(18) . .
N2A C6A H6A 118.8 . .
C4A N2A C6A 104.0(15) . .
C5A S1A C4A 93.5(11) . .
loop_
_geom_bond_atom_site_label_1
_geom_bond_atom_site_label_2
_geom_bond_distance
_geom_bond_site_symmetry_2
C1 H1 0.9500 .
C1 C2 1.394(5) .
C1 C3 1.398(5) 3_676
C2 C3 1.394(5) .
C2 F3 1.325(10) .
C3 C4 1.463(9) .
C4 N2 1.377(15) .
C4 S1 1.722(10) .
C5 H5 0.9500 .
C5 C6 1.334(13) .
C5 S1 1.687(9) .
C6 H6 0.9500 .
C6 N2 1.417(15) .
C1A H1A 0.9500 .
C1A C2A 1.394(5) .
C1A C3A 1.397(5) 3_676
C2A C3A 1.396(5) .
C2A F3A 1.324(11) .
C3A C4A 1.461(11) .
C4A N2A 1.377(16) .
C4A S1A 1.714(12) .
C5A H5A 0.9500 .
C5A C6A 1.334(15) .
C5A S1A 1.688(10) .
C6A H6A 0.9500 .
C6A N2A 1.417(16) .
loop_
_geom_torsion_atom_site_label_1
_geom_torsion_atom_site_label_2
_geom_torsion_atom_site_label_3
_geom_torsion_atom_site_label_4
_geom_torsion
_geom_torsion_site_symmetry_1
_geom_torsion_site_symmetry_4
C1 C2 C3 C1 1(3) . 3_676
C1 C2 C3 C4 -179.2(19) . .
C1 C3 C4 N2 -5(3) 3_676 .
C1 C3 C4 S1 177.4(19) 3_676 .
C2 C3 C4 N2 175.8(18) . .
C2 C3 C4 S1 -2(3) . .
C3 C1 C2 C3 -2(4) 3_676 .
C3 C1 C2 F3 -175(2) 3_676 .
C3 C4 N2 C6 178.1(14) . .
C3 C4 S1 C5 179.9(14) . .
C5 C6 N2 C4 5.1(15) . .
C6 C5 S1 C4 1.0(8) . .
F3 C2 C3 C1 175(2) . 3_676
F3 C2 C3 C4 -6(3) . .
N2 C4 S1 C5 2.0(11) . .
S1 C4 N2 C6 -4.0(14) . .
S1 C5 C6 N2 -3.9(13) . .
C1A C2A C3A C1A 1(10) . 3_676
C1A C2A C3A C4A -179(5) . .
C1A C3A C4A N2A -173(5) 3_676 .
C1A C3A C4A S1A 5(6) 3_676 .
C2A C3A C4A N2A 7(6) . .
C2A C3A C4A S1A -175(3) . .
C3A C1A C2A C3A -1(8) 3_676 .
C3A C1A C2A F3A 169(6) 3_676 .
C3A C4A N2A C6A -178(4) . .
C3A C4A S1A C5A -179(3) . .
C5A C6A N2A C4A -6(4) . .
C6A C5A S1A C4A -2(2) . .
F3A C2A C3A C1A -170(7) . 3_676
F3A C2A C3A C4A 10(6) . .
N2A C4A S1A C5A -1(3) . .
S1A C4A N2A C6A 4(3) . .
S1A C5A C6A N2A 6(3) . .
loop_
_twin_individual_id
_twin_individual_mass_fraction_refined
1 0.860(3)
2 0.140(3)
