#------------------------------------------------------------------------------
#$Date: 2019-11-24 13:36:12 +0200 (Sun, 24 Nov 2019) $
#$Revision: 238028 $
#$URL: file:///home/coder/svn-repositories/cod/cif/1/55/46/1554654.cif $
#------------------------------------------------------------------------------
#
# This file is available in the Crystallography Open Database (COD),
# http://www.crystallography.net/
#
# All data on this site have been placed in the public domain by the
# contributors.
#
data_1554654
loop_
_publ_author_name
'Zhang, Haoke'
'Liu, Junkai'
'Du, Lili'
'Ma, Chao'
'Leung, Nelson L. C.'
'Niu, Yingli'
'Qin, Anjun'
'Sun, Jingzhi'
'Peng, Qian'
'Sung, Herman H. Y.'
'Williams, Ian D.'
'Kwok, Ryan T. K.'
'Lam, Jacky W. Y.'
'Wong, Kam Sing'
'Phillips, David Lee'
'Tang, Ben Zhong'
_publ_section_title
;
 Drawing a clear mechanistic picture for the aggregation-induced emission
 process
;
_journal_issue                   6
_journal_name_full               'Materials Chemistry Frontiers'
_journal_page_first              1143
_journal_paper_doi               10.1039/C9QM00156E
_journal_volume                  3
_journal_year                    2019
_chemical_formula_moiety         'C20 H24'
_chemical_formula_sum            'C20 H24'
_chemical_formula_weight         264.39
_chemical_name_systematic        d-DPE
_space_group_crystal_system      triclinic
_space_group_IT_number           2
_space_group_name_Hall           '-P 1'
_space_group_name_H-M_alt        'P -1'
_atom_sites_solution_hydrogens   geom
_atom_sites_solution_primary     direct
_audit_creation_date             2016-04-15
_audit_creation_method
;
Olex2 1.2
(compiled 2016.02.19 svn.r3266 for OlexSys, GUI svn.r5155)
;
_audit_update_record
;
2016-05-24 deposited with the CCDC.	2019-04-17 downloaded from the CCDC.
;
_cell_angle_alpha                96.215(15)
_cell_angle_beta                 96.738(11)
_cell_angle_gamma                91.369(13)
_cell_formula_units_Z            1
_cell_length_a                   4.7535(5)
_cell_length_b                   6.1267(13)
_cell_length_c                   13.209(2)
_cell_measurement_reflns_used    926
_cell_measurement_temperature    100.01(1)
_cell_measurement_theta_max      28.9870
_cell_measurement_theta_min      4.3230
_cell_volume                     379.53(11)
_computing_cell_refinement
;
CrysAlisPro, Agilent Technologies,
Version 1.171.37.35 (release 13-08-2014 CrysAlis171 .NET)
(compiled Aug 13 2014,18:06:01)
;
_computing_data_collection
;
CrysAlisPro, Agilent Technologies,
Version 1.171.37.35 (release 13-08-2014 CrysAlis171 .NET)
(compiled Aug 13 2014,18:06:01)
;
_computing_data_reduction
;
CrysAlisPro, Agilent Technologies,
Version 1.171.37.35 (release 13-08-2014 CrysAlis171 .NET)
(compiled Aug 13 2014,18:06:01)
;
_computing_molecular_graphics    'Olex2 (Dolomanov et al., 2009)'
_computing_publication_material  'Olex2 (Dolomanov et al., 2009)'
_computing_structure_refinement  'ShelXL (Sheldrick, 2015)'
_computing_structure_solution    'ShelXS (Sheldrick, 2008)'
_diffrn_ambient_environment      air
_diffrn_ambient_temperature      100.01(1)
_diffrn_detector                 'CCD plate'
_diffrn_detector_area_resol_mean 10.3587
_diffrn_detector_type            Atlas
_diffrn_measured_fraction_theta_full 0.943
_diffrn_measured_fraction_theta_max 0.943
_diffrn_measurement_details
;
#__ type_ start__ end____ width___ exp.time_
  1 omega    6.00   82.30   0.7000   35.0000
omega____ theta____ kappa____ phi______ frames
    -       15.8574   57.0000 -120.0000 109

#__ type_ start__ end____ width___ exp.time_
  2 omega  -43.00   48.00   0.7000   35.0000
omega____ theta____ kappa____ phi______ frames
    -       15.8574  -57.0000  -30.0000 130

#__ type_ start__ end____ width___ exp.time_
  3 omega  -57.00   47.30   0.7000   35.0000
omega____ theta____ kappa____ phi______ frames
    -       15.8574  -57.0000   90.0000 149
;
_diffrn_measurement_device       'kappa diffractometer'
_diffrn_measurement_device_type  'SuperNova, Dual, Mo at zero, Atlas'
_diffrn_measurement_method       '\w scans'
_diffrn_orient_matrix_UB_11      -0.0738826000
_diffrn_orient_matrix_UB_12      -0.0507969000
_diffrn_orient_matrix_UB_13      -0.0467002000
_diffrn_orient_matrix_UB_21      0.0004439000
_diffrn_orient_matrix_UB_22      -0.1022504000
_diffrn_orient_matrix_UB_23      0.0205744000
_diffrn_orient_matrix_UB_31      -0.1309511000
_diffrn_orient_matrix_UB_32      0.0233541000
_diffrn_orient_matrix_UB_33      0.0188798000
_diffrn_radiation_monochromator  mirror
_diffrn_radiation_probe          x-ray
_diffrn_radiation_type           MoK\a
_diffrn_radiation_wavelength     0.71073
_diffrn_reflns_av_R_equivalents  0.0337
_diffrn_reflns_av_unetI/netI     0.0622
_diffrn_reflns_limit_h_max       5
_diffrn_reflns_limit_h_min       -5
_diffrn_reflns_limit_k_max       6
_diffrn_reflns_limit_k_min       -7
_diffrn_reflns_limit_l_max       16
_diffrn_reflns_limit_l_min       -16
_diffrn_reflns_number            2089
_diffrn_reflns_theta_full        25.000
_diffrn_reflns_theta_max         25.998
_diffrn_reflns_theta_min         3.532
_diffrn_source                   'SuperNova (Mo) X-ray Source'
_diffrn_source_current           0.80
_diffrn_source_power             0.040
_diffrn_source_target            Mo
_diffrn_source_voltage           50
_exptl_absorpt_coefficient_mu    0.065
_exptl_absorpt_correction_T_max  1.00000
_exptl_absorpt_correction_T_min  0.86527
_exptl_absorpt_correction_type   multi-scan
_exptl_absorpt_process_details
;
CrysAlisPro, Agilent Technologies,
Version 1.171.37.35 (release 13-08-2014 CrysAlis171 .NET)
(compiled Aug 13 2014,18:06:01)
Empirical absorption correction using spherical harmonics,
 implemented in SCALE3 ABSPACK scaling algorithm.
;
_exptl_crystal_colour            colourless
_exptl_crystal_colour_primary    colourless
_exptl_crystal_density_diffrn    1.157
_exptl_crystal_density_method    'not measured'
_exptl_crystal_description       needle
_exptl_crystal_F_000             144
_exptl_crystal_preparation       Luminescent
_exptl_crystal_recrystallization_method 'Vapour deposition'
_exptl_crystal_size_max          0.25
_exptl_crystal_size_mid          0.06
_exptl_crystal_size_min          0.03
_refine_diff_density_max         0.188
_refine_diff_density_min         -0.192
_refine_diff_density_rms         0.045
_refine_ls_extinction_method     none
_refine_ls_goodness_of_fit_ref   1.002
_refine_ls_hydrogen_treatment    constr
_refine_ls_matrix_type           full
_refine_ls_number_parameters     94
_refine_ls_number_reflns         1410
_refine_ls_number_restraints     0
_refine_ls_restrained_S_all      1.002
_refine_ls_R_factor_all          0.0868
_refine_ls_R_factor_gt           0.0581
_refine_ls_shift/su_max          0.000
_refine_ls_shift/su_mean         0.000
_refine_ls_structure_factor_coef Fsqd
_refine_ls_weighting_details
'w=1/[\s^2^(Fo^2^)+(0.0680P)^2^] where P=(Fo^2^+2Fc^2^)/3'
_refine_ls_weighting_scheme      calc
_refine_ls_wR_factor_gt          0.1305
_refine_ls_wR_factor_ref         0.1498
_reflns_Friedel_coverage         0.000
_reflns_number_gt                978
_reflns_number_total             1410
_reflns_threshold_expression     'I > 2\s(I)'
_cod_data_source_file            c9qm00156e2.cif
_cod_data_source_block           haoke5molt
_cod_original_cell_volume        379.54(11)
_cod_database_code               1554654
_chemical_oxdiff_formula         'ph2 Me6 C2 H2'
_shelx_space_group_comment
;
The symmetry employed for this shelxl refinement is uniquely defined
by the following loop, which should always be used as a source of
symmetry information in preference to the above space-group names.
They are only intended as comments.
;
_reflns_odcompleteness_completeness 98.92
_reflns_odcompleteness_iscentric 1
_reflns_odcompleteness_theta     27.04
_olex2_refinement_description
;
1. Fixed Uiso
 At 1.2 times of:
  All C(H) groups
 At 1.5 times of:
  All C(H,H,H) groups
2.a Aromatic/amide H refined with riding coordinates:
 C3(H3), C6(H6), C10(H10)
2.b Idealised Me refined as rotating group:
 C7(H7A,H7B,H7C), C8(H8A,H8B,H8C), C9(H9A,H9B,H9C)
;
_shelx_res_file
;
    haoke5molt.res created by SHELXL-2014/7

TITL haoke5MoLT in P-1 #2
REM reset to P-1 #2
CELL 0.71073 4.753536 6.126676 13.209328 96.2155 96.738 91.3687
ZERR 1 0.000487 0.001314 0.002002 0.015 0.0108 0.0134
LATT 1
SFAC C H
UNIT 20 24

L.S. 4
PLAN  20
TEMP -173
BOND
fmap 2
acta 50
OMIT 0 52
OMIT -1 -2 4
OMIT -1 -2 11
OMIT 0 -2 13
OMIT 0 4 6
OMIT -1 4 6
OMIT -1 4 4
OMIT 1 -4 7
OMIT -1 -2 13
OMIT 0 -6 7
OMIT 1 -6 8
OMIT 0 -6 5
OMIT 0 -4 7
OMIT -1 -4 11
OMIT 0 0 7
OMIT 1 -4 14
OMIT -1 2 4
OMIT -1 4 5
OMIT -1 -2 6
OMIT 0 -2 14
OMIT 1 -4 1
OMIT 0 0 6
OMIT 0 6 1
OMIT 0 -2 11
OMIT 0 -2 12
OMIT 0 -2 5
OMIT 1 -4 8
OMIT 3 0 3
OMIT 0 3 3
OMIT 0 6 8
OMIT 0 0 8
OMIT 3 1 12
OMIT 1 -4 3
OMIT 0 6 6
OMIT 1 2 3
OMIT 3 -3 6
OMIT 0 -2 9
OMIT 0 2 6
OMIT 0 0 13
OMIT 0 2 1
OMIT 0 -6 6
OMIT 0 0 5
OMIT 0 -4 2
OMIT 1 -2 14
OMIT -1 -4 4
OMIT 0 2 0
OMIT 0 -1 14
OMIT 3 0 0
OMIT 0 0 3
OMIT 4 0 0
OMIT 2 0 3
OMIT -1 -4 1
OMIT 0 -4 4
OMIT 0 0 4
OMIT 0 -2 15
OMIT -1 6 6
OMIT 1 0 9
OMIT 1 2 2
OMIT 0 -2 3
OMIT 1 -4 9
OMIT -1 3 0
OMIT 0 2 2
OMIT -1 -2 2
OMIT -1 1 3
OMIT 0 0 14
OMIT -2 4 6
OMIT 4 0 4
OMIT -1 -4 5
OMIT 0 4 8
OMIT 0 -2 4
OMIT 0 2 4
OMIT 1 6 2
OMIT -1 1 1
OMIT -1 -2 10
OMIT 0 -4 14
OMIT -4 -4 6
REM <olex2.extras>
REM <HklSrc "%.\\haoke5MoLT.hkl">
REM </olex2.extras>

WGHT    0.068000
FVAR       7.45716
C1    1    0.495701    0.112934    0.368563    11.00000    0.01461    0.01734 =
         0.01564    0.00096    0.00033   -0.00147
C2    1    0.394462    0.303178    0.327454    11.00000    0.01308    0.01577 =
         0.01972   -0.00043   -0.00149   -0.00111
C3    1    0.478601    0.349531    0.233950    11.00000    0.01693    0.01474 =
         0.01896    0.00561   -0.00285   -0.00108
AFIX  43
H3    2    0.414600    0.479561    0.206908    11.00000   -1.20000
AFIX   0
C4    1    0.651087    0.215059    0.178564    11.00000    0.01547    0.02121 =
         0.01640    0.00153    0.00056   -0.00368
C5    1    0.746827    0.022172    0.218627    11.00000    0.01331    0.01828 =
         0.01634    0.00012    0.00069   -0.00177
C6    1    0.666195   -0.023763    0.311903    11.00000    0.01707    0.01273 =
         0.02112    0.00280    0.00013    0.00162
AFIX  43
H6    2    0.729797   -0.154280    0.338574    11.00000   -1.20000
AFIX   0
C7    1    0.203796    0.455600    0.382235    11.00000    0.02084    0.01608 =
         0.02183    0.00085    0.00008    0.00342
AFIX 137
H7A   2    0.187709    0.591481    0.349405    11.00000   -1.50000
H7B   2    0.283982    0.490114    0.454163    11.00000   -1.50000
H7C   2    0.015545    0.384455    0.378808    11.00000   -1.50000
AFIX   0
C8    1    0.735963    0.273818    0.078888    11.00000    0.02753    0.02199 =
         0.01816    0.00330    0.00216   -0.00199
AFIX 137
H8A   2    0.650427    0.411893    0.062917    11.00000   -1.50000
H8B   2    0.670099    0.156684    0.024102    11.00000   -1.50000
H8C   2    0.942859    0.291296    0.084471    11.00000   -1.50000
AFIX   0
C9    1    0.932116   -0.129718    0.161878    11.00000    0.02223    0.02111 =
         0.01982    0.00135    0.00269    0.00108
AFIX 137
H9A   2    1.116936   -0.056216    0.160769    11.00000   -1.50000
H9B   2    0.842490   -0.169373    0.091393    11.00000   -1.50000
H9C   2    0.958065   -0.262871    0.196370    11.00000   -1.50000
AFIX   0
C10   1    0.422566    0.058619    0.468258    11.00000    0.01770    0.01487 =
         0.02019    0.00101    0.00457   -0.00113
AFIX  43
H10   2    0.249896    0.111788    0.489158    11.00000   -1.20000
AFIX   0
HKLF 4

REM  haoke5MoLT in P-1 #2
REM R1 =  0.0581 for     978 Fo > 4sig(Fo)  and  0.0868 for all    1410 data
REM     94 parameters refined using      0 restraints

END

WGHT      0.0553      0.0000

REM Highest difference peak  0.188,  deepest hole -0.192,  1-sigma level  0.045
Q1    1   0.6522  0.0732  0.3566  11.00000  0.05    0.19
Q2    1   0.3915  0.3034  0.2723  11.00000  0.05    0.18
Q3    1   0.3998  0.0462  0.4027  11.00000  0.05    0.17
Q4    1   0.7493  0.0351  0.2775  11.00000  0.05    0.17
Q5    1   0.4832  0.2540  0.1817  11.00000  0.05    0.16
Q6    1   0.4504  0.0877  0.4103  11.00000  0.05    0.16
Q7    1   0.4748  0.0005  0.3170  11.00000  0.05    0.16
Q8    1   0.3285  0.5380  0.1299  11.00000  0.05    0.15
Q9    1   0.6447 -0.0454  0.2456  11.00000  0.05    0.15
Q10   1   0.4572  0.1940  0.3540  11.00000  0.05    0.14
Q11   1   0.8141  0.1846  0.2186  11.00000  0.05    0.14
Q12   1   0.7012 -0.0021  0.2682  11.00000  0.05    0.14
Q13   1   0.6713  0.2161  0.1232  11.00000  0.05    0.13
Q14   1   1.1202 -0.1219  0.1814  11.00000  0.05    0.13
Q15   1   0.5980  0.0579  0.1627  11.00000  0.05    0.13
Q16   1   0.8665 -0.2719  0.0744  11.00000  0.05    0.13
Q17   1   0.0437  0.4839  0.2430  11.00000  0.05    0.13
Q18   1   1.0928 -0.2398  0.2044  11.00000  0.05    0.13
Q19   1   1.3188 -0.1956  0.1795  11.00000  0.05    0.12
Q20   1   0.1438  0.0849  0.4633  11.00000  0.05    0.12
;
_shelx_res_checksum              55110
_shelx_hkl_file
;
   0   0   3 1096.08 80.3559   3
   0   0   4 10666.2 286.274   3
   0   0   5 4295.12 203.774   3
   0   0   6 14199.5 410.491   3
   0   0   7 38733.8 737.531   3
   0   0   8 3525.78 241.316   3
   0   0   9 128.497 54.3972   3
   0   0  10 73.0767 40.1764   3
   0   0  11 301.398 89.0494   3
   0   0  12 298.030 100.775   3
   0   0  13 15672.2 691.714   3
   0   0 -13 15161.5 787.471   2
   0   0 -14 1467.28 257.604   2
   0   0  14 1544.70 228.206   3
   0   0 -15 1099.31 234.276   2
   0   0  15 1056.14 199.150   3
   0   0 -16 45.5074 57.0797   2
   0   0  16 490.131 146.860   3
   0   0 -17 7.25870 56.8509   2
   0   0  17 28.8787 42.5873   3
   0   0 -18-30.3969 52.6243   2
   0  -1  17 1280.14 233.068   3
   0   1 -17 1147.98 274.523   2
   0  -1  16 239.989 98.6350   3
   0  -1  15 499.984 135.847   3
   0  -1  14 94.0397 56.3591   3
   0  -1  13 1602.95 214.403   3
   0  -1  12 710.924 137.081   3
   0  -1  11 10.2476 29.0421   3
   0  -1  10 525.263 103.929   3
   0  -1   9 28.1577 27.5028   3
   0  -1   8 15984.2 493.978   3
   0  -1   7 143.906 41.6582   3
   0  -1   6 37170.6 666.211   3
   0  -1   5 34.2880 24.5287   3
   0  -1   4 8940.81 285.924   3
   0  -1   3 2466.34 136.330   3
   0  -1   2 7204.27 225.011   3
   0  -1   1 36424.9 522.847   3
   0  -1  -1 57428.6 397.661   2
   0  -1  -2-57.8178 42.3538   1
   0  -1  -2-0.62268 7.64106   2
   0  -1  -3 19478.4 855.950   1
   0  -1  -3 22179.4 342.111   2
   0  -1  -4 27.0100 17.8059   2
   0  -1  -5 4720.34 232.963   2
   0   1   6 938.028 116.274   3
   0  -1  -6 962.494 118.476   2
   0   1   7 125.910 50.7375   3
   0  -1  -7 118.241 50.8626   2
   0  -1  -8 1299.34 159.657   2
   0   1   8 1383.35 163.634   3
   0   1   9 258.427 76.1651   3
   0  -1  -9 341.881 88.7574   2
   0   1  10 617.470 124.101   3
   0  -1 -10 580.776 125.764   2
   0   1  11 100.018 57.1256   3
   0  -1 -11 12.6664 35.0926   2
   0   1  12 29.4729 32.0081   3
   0  -1 -12 3.09156 37.2310   2
   0  -1 -13 36.9122 45.7774   2
   0  -1 -14 72.2317 55.5446   2
   0  -1 -15-15.1049 32.4455   2
   0  -1 -16 557.372 154.187   2
   0  -2  17 44.4231 48.7510   3
   0  -2  16 416.142 130.063   3
   0  -2  15 498.268 154.251   3
   0  -2  14 3275.14 325.947   3
   0  -2  13 7622.91 468.756   3
   0  -2  12 4365.46 337.076   3
   0  -2  11 1904.80 212.350   3
   0  -2  10 630.220 115.731   3
   0  -2   9 4132.51 293.043   3
   0  -2   8 936.133 130.816   3
   0  -2   7 612.334 100.100   3
   0  -2   6 152.504 51.2772   3
   0  -2   5 5819.47 289.989   3
   0  -2   4 175.422 54.6619   3
   0  -2   3 3638.43 236.290   3
   0  -2   2 4984.57 271.712   3
   0  -2   1 80234.9 1073.81   1
   0  -2   0 17091.7 912.792   1
   0   2   0 31875.5 425.548   2
   0  -2  -1 5202.02 314.710   1
   0   2   1 4671.34 162.970   2
   0  -2  -2 4784.16 341.746   1
   0  -2  -2 4335.48 153.241   2
   0   2   2 4295.69 157.568   2
   0   2   3 295.086 43.2305   2
   0  -2  -3 230.445 88.7781   1
   0  -2  -3 269.780 40.8584   2
   0  -2  -4 8441.86 247.484   2
   0  -2  -4 9469.36 641.903   1
   0   2   4 9393.42 290.145   2
   0  -2  -5 178.304 43.2064   2
   0  -2  -5 135.616 86.1854   1
   0  -2  -6 383.731 163.555   1
   0  -2  -6 287.746 60.0034   2
   0  -2  -7 409.551 76.5196   2
   0  -2  -7 768.420 239.718   1
   0  -2  -8 6147.48 748.849   1
   0  -2  -8 5289.63 282.072   2
   0  -2  -9 384.737 81.6521   2
   0  -2  -9 584.660 257.141   1
   0  -2 -10 2454.77 545.307   1
   0  -2 -10 3026.72 243.465   2
   0  -2 -11 6302.33 374.710   2
   0  -2 -11 7243.34 1000.97   1
   0  -2 -12 14596.2 1479.02   1
   0  -2 -12 14232.8 596.432   2
   0  -2 -13 5191.54 913.729   1
   0  -2 -13 4537.35 353.926   2
   0  -2 -14 591.936 138.945   2
   0  -2 -14 449.562 281.488   1
   0  -2 -15 174.516 180.523   1
   0  -2 -16-49.7754 115.804   1
   0  -3  17 137.303 79.6061   3
   0  -3  16 893.051 190.491   3
   0  -3  15 412.005 125.402   3
   0  -3  14 2.12544 17.1768   3
   0  -3  13 61.9328 42.5466   3
   0  -3  12 143.184 65.2172   3
   0  -3  11 49.7655 22.3491   3
   0  -3  10-0.31023 28.7256   3
   0  -3   9 35222.9 913.516   3
   0  -3   8 5475.97 351.854   3
   0  -3   7 10468.2 472.100   3
   0  -3   6 116.878 56.9512   3
   0  -3   5 635.472 117.385   3
   0  -3   4 2125.59 214.124   3
   0  -3   3 4463.02 308.423   3
   0  -3   2 39458.2 923.442   1
   0  -3   1 1070.69 153.537   1
   0   3   0 4339.16 201.096   2
   0  -3   0 4446.43 332.213   1
   0   3   1 56.6898 23.3008   2
   0  -3  -1 58.0196 53.7545   1
   0   3   2 1713.93 121.613   2
   0  -3  -2 1456.29 207.270   1
   0  -3  -3 1054.32 89.0181   2
   0  -3  -3 1296.14 226.860   1
   0   3   3 1253.28 115.643   2
   0   3   4 21856.8 446.446   2
   0  -3  -4 20903.6 929.169   1
   0  -3  -4 22039.0 423.445   2
   0   3   5 13071.8 393.612   2
   0  -3  -5 13491.1 349.794   2
   0  -3  -5 13370.8 799.063   1
   0  -3  -6 6084.18 254.073   2
   0  -3  -6 5141.00 552.179   1
   0  -3  -7 455.020 75.5209   2
   0  -3  -7 652.127 212.467   1
   0  -3  -8 16.4351 22.6844   2
   0  -3  -8 4.33255 51.2221   1
   0  -3  -9 565.112 225.523   1
   0  -3  -9 366.162 75.3055   2
   0  -3 -10 412.284 85.7316   2
   0  -3 -10 563.779 240.715   1
   0  -3 -11 18017.5 1423.54   1
   0  -3 -11 17697.2 595.530   2
   0  -3 -12 237.429 168.728   1
   0  -3 -12 270.019 80.2970   2
   0  -3 -13 5350.33 839.883   1
   0  -3 -14 318.077 213.926   1
   0  -3 -15 716.613 333.289   1
   0  -4  16 447.550 136.846   3
   0  -4  15 5017.65 439.912   3
   0  -4  14 603.303 148.126   3
   0  -4  13 78.7986 53.8741   3
   0  -4  12 1137.42 200.413   3
   0  -4  11 914.443 168.915   3
   0  -4  10 5798.11 423.961   3
   0  -4   9 2368.86 263.164   3
   0  -4   8 23979.8 813.491   3
   0  -4   7 1933.29 250.217   3
   0  -4   6 1370.13 194.328   3
   0  -4   5 515.730 118.957   3
   0  -4   4 2041.16 241.654   3
   0  -4   3 204.281 81.4003   3
   0  -4   2 838.389 168.807   1
   0  -4   1 3168.84 309.130   1
   0   4  -1 2442.08 179.810   2
   0  -4   0 1168.97 196.382   1
   0   4   0 1157.72 127.319   2
   0   4   1 209.699 50.4616   2
   0  -4  -1 117.634 71.6140   1
   0  -4  -2 623.155 189.514   1
   0   4   2 341.750 82.9492   2
   0  -4  -3 300.891 117.226   1
   0   4   3 122.263 51.7137   2
   0   4   4 546.275 86.8371   2
   0  -4  -4 1043.66 225.405   1
   0  -4  -5 4995.86 206.973   2
   0   4   5 5482.29 261.024   2
   0  -4  -5 5550.45 525.359   1
   0  -4  -6 10095.1 338.657   2
   0   4   6 11532.9 440.344   2
   0  -4  -7 2083.80 368.121   1
   0  -4  -7 1459.01 130.910   2
   0  -4  -8 4956.14 594.785   1
   0  -4  -8 2997.97 199.600   2
   0  -4  -9 400.279 74.4743   2
   0  -4  -9 884.230 262.206   1
   0  -4 -10 1410.18 358.655   1
   0  -4 -11 123.569 116.140   1
   0  -4 -12 853.899 301.402   1
   0  -4 -13 3208.93 620.561   1
   0  -4 -14 559.371 260.981   1
   0  -5  15 97.1414 68.0619   3
   0  -5  14 102.171 67.1110   3
   0  -5  13 50.9457 40.2240   3
   0  -5  12 339.818 121.048   3
   0  -5  11 106.018 64.5778   3
   0  -5  10 1216.26 208.284   3
   0  -5   9 171.653 81.2718   3
   0  -5   8 475.354 130.144   3
   0  -5   7 1494.09 226.391   3
   0  -5   6-16.7836 28.8147   3
   0  -5   5 323.311 107.325   3
   0  -5   4 5.79019 40.2468   3
   0  -5   3 1036.36 201.078   3
   0  -5   2 46.5029 69.6021   1
   0  -5   1 1485.53 235.269   1
   0  -5   0 885.341 190.618   1
   0  -5  -1-1.21395 37.5867   1
   0   5   2 3461.10 229.570   2
   0  -5  -2 3437.62 400.526   1
   0  -5  -3 6681.02 574.098   1
   0   5   3 6288.15 302.275   2
   0   5   4 7072.17 316.896   2
   0  -5  -4 6735.79 593.041   1
   0  -5  -5 695.562 202.422   1
   0  -5  -6 218.258 115.707   1
   0  -5  -7-71.6455 70.3738   1
   0  -5  -8 440.696 179.349   1
   0  -5  -9 53.8404 73.9178   1
   0  -5 -10 6477.59 756.341   1
   0  -5 -11 484.032 215.718   1
   0  -5 -12 133.048 122.223   1
   0  -6  13 543.474 158.039   3
   0  -6  12 214.103 98.7860   3
   0  -6  11 4097.13 422.389   3
   0  -6  10 83.6419 63.8219   3
   0  -6   9 3450.90 375.645   3
   0  -6   8 230.121 116.306   3
   0  -6   7 4877.55 449.538   3
   0  -6   6 1227.70 258.597   3
   0  -6   5 6545.98 536.204   3
   0  -6   4 4507.18 449.296   3
   0  -6   3 1687.10 281.176   3
   0  -6   2 469.518 152.026   1
   0  -6   2 517.110 157.062   3
   0  -6   1 234.761 115.020   1
   0  -6   0 889.580 245.838   1
   0  -6  -1 2186.95 334.747   1
   0  -6  -2 17122.1 969.305   1
   0  -6  -3 3051.45 419.190   1
   0  -6  -4 14112.5 954.964   1
   0  -6  -5 860.006 254.626   1
   0  -6  -6 1990.79 390.038   1
   0  -6  -7 590.506 208.612   1
   0  -6  -8 2268.25 427.107   1
   0  -6  -9 304.348 160.491   1
   0  -7  10 515.851 161.932   3
   0  -7   9 141.213 83.4986   3
   0  -7   8 378.044 141.282   3
   0  -7   7 76.7422 65.8855   3
   0  -7   6 252.179 120.020   3
   0  -7   5-33.7331 51.8726   3
   0  -7   4 5616.34 548.835   3
   0  -7   3 934.813 228.284   3
   0  -7   2-26.4524 52.3284   3
   0  -7   1 480.069 172.458   3
   0  -7   1 759.767 209.592   1
   0  -7   0 421.868 157.349   1
   0  -7  -1 160.591 113.446   1
   0  -7  -2 49.2283 63.3516   1
   0  -7  -3 2362.88 390.534   1
   0  -7  -4 14.5902 49.4361   1
   0  -7  -5 401.263 173.309   1
   0  -7  -6 7.90551 43.0393   1
   1  -7  -5 43.0054 74.9888   1
   1  -7  -4 73.6901 84.7271   1
   1  -7  -3 600.592 210.657   1
   1  -7  -2-14.2256 48.4270   1
   1  -7  -1 1102.21 262.205   1
   1  -7   0 3728.20 480.586   1
   1  -7   1 191.517 108.149   1
   1  -7   2 29.9907 78.1018   3
   1  -7   2 161.241 118.337   1
   1  -7   3-8.88821 63.3892   3
   1  -7   4-68.2970 66.8228   3
   1  -7   5 129.222 86.4931   3
   1  -7   6 228.785 107.677   3
   1  -7   7 197.572 109.246   3
   1  -7   8 2.87844 26.5036   3
   1  -7   9 257.155 109.442   3
   1  -7  10 479.010 148.375   3
   1  -6  -9-22.5348 56.1204   1
   1  -6  -8 216.134 131.632   1
   1  -6  -7-5.30372 44.2758   1
   1  -6  -6 1103.37 302.301   1
   1  -6  -5 341.810 176.662   1
   1  -6  -4 320.955 166.571   1
   1  -6  -3 238.351 178.996   1
   1  -6  -2 7950.38 680.288   1
   1  -6  -1 1203.74 255.755   1
   1  -6   0 1106.27 239.719   1
   1  -6   1 851.461 203.059   1
   1  -6   2 623.908 173.555   1
   1  -6   3 93.5702 95.2053   3
   1  -6   4 681.226 181.242   3
   1  -6   5 9250.07 626.015   3
   1  -6   6 555.248 161.497   3
   1  -6   7 1955.55 288.146   3
   1  -6   8 2644.17 354.794   3
   1  -6   9 351.748 116.116   3
   1  -6  10 277.735 105.043   3
   1  -6  11 1238.56 224.199   3
   1  -6  12 536.127 150.473   3
   1  -6  13 199.200 93.1116   3
   1  -5 -11-175.981 140.580   1
   1  -5 -10 1341.18 364.033   1
   1  -5  -9 321.153 171.750   1
   1  -5  -8 1431.76 344.421   1
   1  -5  -7 295.968 148.975   1
   1  -5  -6 447.161 171.368   1
   1  -5  -5 299.596 139.852   1
   1  -5  -4 434.788 159.608   1
  -1   5   3 16589.7 344.368   2
   1  -5  -3 14523.6 853.257   1
   1  -5  -2 2848.36 373.517   1
  -1   5   2 2894.38 162.662   2
   1  -5  -1 31385.4 1183.66   1
  -1   5   1 30441.8 585.671   2
   1  -5   0 47.2319 60.5686   1
  -1   5   0 62.2937 28.3197   2
   1  -5   1 31.0373 56.9602   1
   1  -5   2 84.5677 66.9004   1
   1  -5   3 630.816 160.999   1
   1  -5   3 393.344 120.436   3
   1  -5   4 448.458 127.252   3
   1  -5   5 1644.73 236.084   3
   1  -5   6 1575.71 229.726   3
   1  -5   7 14.4845 26.6896   3
   1  -5   8 1497.35 219.884   3
   1  -5   9 94.2615 57.3724   3
   1  -5  10 2130.83 263.553   3
   1  -5  11-18.2559 30.5240   3
   1  -5  12 5236.83 430.867   3
   1  -5  13 56.8822 48.1438   3
   1  -5  14 82.6452 58.4874   3
   1  -5  15-4.78237 19.0872   3
   1  -4 -13 393.757 228.981   1
   1  -4 -12 1649.04 478.571   1
   1  -4 -11 104.561 114.816   1
   1  -4 -10 687.426 263.865   1
   1  -4  -9 9279.71 914.983   1
   1  -4  -8 90.4846 120.649   1
   1  -4  -7 977.173 256.093   1
   1  -4  -6 12251.7 905.648   1
   1  -4  -5 3011.40 419.456   1
   1  -4  -4 5297.84 510.233   1
   1  -4  -3 4129.91 422.517   1
  -1   4   3 3789.20 121.087   2
   1  -4  -2 5999.23 483.477   1
  -1   4   2 6577.44 201.572   2
  -1   4   1 2966.31 153.056   2
   1  -4  -1 3769.48 373.430   1
   1  -4   0 270.821 115.085   1
   1  -4   1 3430.09 337.341   1
   1  -4   2 4360.44 357.102   1
   1  -4   3 972.594 252.202   1
   1  -4   3 1566.70 220.910   3
   1  -4   4 3103.74 289.157   3
   1  -4   5 73.9658 68.5324   3
   1  -4   6 411.337 98.7793   3
   1  -4   7 3067.10 285.085   3
   1  -4   8 2612.29 259.631   3
   1  -4   9 3049.60 285.468   3
   1  -4  10 181.271 81.3543   3
   1  -4  11 118.420 58.9429   3
   1  -4  12 30.2428 33.1434   3
   1  -4  13 409.033 116.198   3
   1  -4  14 2128.26 290.191   3
   1  -4  15 133.835 69.6398   3
   1  -4  16 1496.14 248.703   3
   1  -3 -15 133.755 158.826   1
   1  -3 -14 55.3211 115.467   1
   1  -3 -13 104.622 175.990   1
   1  -3 -12 47.1727 101.427   1
   1  -3 -11 1944.37 488.109   1
   1  -3 -10 329.516 58.0646   2
   1  -3 -10 79.9799 105.431   1
   1  -3  -9 149.585 129.606   1
   1  -3  -9 10.7458 11.3635   2
   1  -3  -8 53.6840 55.9148   1
   1  -3  -8 25.8831 11.8353   2
   1  -3  -7 449.135 199.977   1
   1  -3  -7 236.704 26.1419   2
   1  -3  -6 1254.68 294.299   1
   1  -3  -5 148.904 93.7608   1
   1  -3  -4 11392.5 724.162   1
   1  -3  -3 148.962 73.4411   1
   1  -3  -2 8027.69 518.783   1
  -1   3   2 8580.93 170.709   2
   1  -3  -1 7.86709 40.5119   1
   1  -3   0 23.8397 24.5982   1
   1  -3   1 703.462 126.092   1
   1  -3   2 2923.81 250.978   1
   1  -3   3 3132.40 254.094   3
   1  -3   4 322.608 82.6196   3
   1  -3   5 1738.02 178.255   3
   1  -3   6 313.433 79.7779   3
   1  -3   7 2106.33 202.826   3
   1  -3   8 95.5785 41.9163   3
   1  -3   9 22272.0 688.246   3
   1  -3  10 4219.50 308.874   3
   1  -3  11 11442.9 525.754   3
   1  -3  12 1235.67 177.066   3
   1  -3  13 634.772 128.764   3
   1  -3  14 126.426 68.0509   3
   1  -3  15 127.784 74.1789   3
   1  -3  16 3211.78 346.520   3
   1  -3  17 139.718 75.7956   3
   1  -2 -16 257.402 249.300   1
   1  -2 -15 1797.25 606.859   1
   1  -2 -14 843.164 410.393   1
   1  -2 -13 25.3603 41.1310   2
   1  -2 -13 425.625 278.519   1
   1  -2 -12 6099.51 353.430   2
   1  -2 -12 5258.33 932.786   1
   1  -2 -11-86.7326 123.433   1
   1  -2 -11 72.7663 45.2955   2
   1  -2 -10 32378.2 2101.38   1
   1  -2 -10 36724.2 759.367   2
   1  -2  -9 1259.08 379.860   1
   1  -2  -9 1016.45 116.781   2
   1  -2  -8 820.154 309.257   1
   1  -2  -8 1255.98 117.361   2
   1  -2  -7 105.460 107.921   1
   1  -2  -7 28.6582 19.9899   2
   1  -2  -6 1473.01 89.0119   2
   1  -2  -6 1393.03 436.774   1
   1  -2  -5 7734.66 709.497   1
   1  -2  -5 8237.01 154.422   2
   1  -2  -4 29896.5 1389.80   1
   1  -2  -3 58409.7 1563.81   1
   1  -2  -2 2315.91 274.514   1
   1  -2  -1 3703.58 289.811   1
   1  -2   0 117.812 55.1975   1
   1  -2   1 263.710 63.5422   1
   1  -2   2 3551.32 230.044   1
  -1   2  -2 3242.01 241.531   1
   1  -2   3 62037.0 883.626   3
  -1   2  -3 63913.8 1010.58   1
   1  -2   4 6205.89 271.512   3
  -1   2  -4 6993.73 341.187   1
  -1   2  -5 1692.70 172.639   3
   1  -2   5 2167.65 169.508   3
   1  -2   6 464.251 83.3309   3
  -1   2  -6 481.110 97.6295   3
   1  -2   7 18.0425 22.6880   3
  -1   2  -8 3590.67 285.570   3
   1  -2   8 3859.01 247.976   3
   1  -2   9 2709.16 216.298   3
   1  -2  10 27247.9 714.587   3
   1  -2  11 174.647 73.9261   3
   1  -2  12 272.882 81.7341   3
   1  -2  13 49.8309 49.3004   3
   1  -2  14 1103.43 183.778   3
   1  -2  15-1.50359 18.2037   3
  -1   2 -15 159.089 108.226   2
  -1   2 -16 79.5166 93.1798   2
   1  -2  16-26.7886 36.3321   3
   1  -2  17 264.546 107.727   3
   1  -1 -15 38.7873 34.3108   2
  -1   1  15-26.5447 38.3303   3
  -1   1  14 284.324 108.511   3
   1  -1 -14 249.255 98.7851   2
  -1   1  13 734.534 159.619   3
  -1   1  12 2601.62 288.339   3
  -1   1  11 13362.8 618.544   3
  -1   1  10 5446.43 372.753   3
  -1   1   9 6761.23 392.433   3
  -1   1   8 10.7130 23.2900   3
  -1   1   7 9286.22 402.103   3
  -1   1   6 59.0766 37.5183   3
  -1   1   5 83.7489 38.0210   3
  -1   1   4 141.628 39.0346   3
  -1   1   3 118.421 37.2917   3
   1  -1  -3 128.729 19.7747   2
  -1   1   2 583.733 36.8232   2
   1  -1  -2 630.033 40.8251   2
   1  -1  -2 442.380 127.481   1
  -1   1   1 195.239 25.9737   2
   1  -1  -1 204.732 28.3632   2
   1  -1  -1 256.815 77.0285   1
   1  -1   0 5957.11 246.008   1
  -1   1   0 5810.45 180.145   2
  -1   1  -1 42.4487 25.8162   2
   1  -1   1 33.1360 21.3365   1
  -1   1  -2 35400.8 664.620   2
   1  -1   2 36629.8 441.041   3
  -1   1  -2 37456.6 545.092   1
  -1   1  -3 1790.35 117.517   3
   1  -1   3 1831.73 101.367   3
   1  -1   4 5528.23 193.368   3
  -1   1  -4 5311.85 214.906   3
   1  -1   5 42.1262 18.4102   3
  -1   1  -5 42.5935 21.3553   3
   1  -1   6 2328.98 151.707   3
  -1   1  -6 2554.34 174.820   3
  -1   1  -7 17.1469 17.8045   3
   1  -1   7 2.16119 8.75541   3
   1  -1   8 1188.98 128.140   3
   1  -1   9 110.296 38.8275   3
   1  -1  10 74.6940 40.2862   3
  -1   1 -11 430.259 131.607   2
   1  -1  11 517.660 106.251   3
  -1   1 -12 135.262 86.3071   2
   1  -1  12 127.020 56.0077   3
   1  -1  13 1417.95 197.189   3
  -1   1 -13 1444.15 267.899   2
  -1   1 -14 104.445 78.1144   2
   1  -1  14 6.18020 28.1218   3
   1  -1  15 217.817 86.2807   3
  -1   1 -15 215.534 119.297   2
  -1   1 -16-41.1616 104.397   2
   1  -1  16-82.7309 58.5886   3
   1  -1  17 206.139 100.365   3
  -1   0  17 1438.19 271.128   3
   1   0 -17 1027.99 245.495   2
  -1   0  16 242.587 102.693   3
  -1   0  15 1169.08 215.283   3
  -1   0  14-39.2154 39.9975   3
  -1   0  13 351.976 116.082   3
  -1   0  12 460.347 118.380   3
  -1   0  11 1332.40 205.695   3
  -1   0  10 16.4129 19.2322   3
  -1   0   9 749.637 124.552   3
  -1   0   8 106.147 45.8806   3
  -1   0   7 1221.17 138.793   3
  -1   0   6 2718.83 199.598   3
  -1   0   5 16.8691 17.7678   3
  -1   0   4 12350.0 334.290   3
  -1   0   3 298.008 46.9605   3
  -1   0   2 29623.4 385.960   3
  -1   0   2 28034.3 379.341   2
  -1   0   1 18.6586 8.08233   3
  -1   0   1 20.3008 11.5416   2
   1   0  -1 16.6879 9.38393   3
  -1   0   0 54861.3 578.776   2
  -1   0  -1 70064.8 731.124   2
  -1   0  -2 80215.1 851.783   2
  -1   0  -2 79414.6 420.865   3
  -1   0  -3 16372.1 435.839   2
   1   0   3 16388.9 271.352   3
  -1   0  -3 16244.4 252.846   3
  -1   0  -4 1678.41 167.018   2
   1   0   4 1640.81 101.769   3
  -1   0  -4 1738.41 100.762   3
  -1   0  -5 2121.94 130.313   3
   1   0   5 2216.13 135.666   3
  -1   0  -5 2457.51 230.537   2
  -1   0  -6-9.89384 11.8716   3
  -1   0  -6 6.68651 33.8841   2
   1   0   6 6.69559 12.7421   3
   1   0   7 11867.6 384.345   3
  -1   0  -7 11936.0 381.624   3
  -1   0  -7 12095.0 585.933   2
  -1   0  -8 9.41974 62.9687   2
   1   0   8 26.2054 23.3567   3
   1   0   9 25790.1 676.022   3
  -1   0  -9 27798.1 903.927   2
  -1   0 -10 308.802 106.191   2
   1   0  10 205.834 64.9295   3
  -1   0 -11 429.397 129.451   2
   1   0  11 400.509 97.2298   3
  -1   0 -12 159.542 72.0233   2
   1   0  12 120.378 56.2684   3
   1   0  13 520.903 135.073   3
  -1   0 -13 329.186 125.211   2
   1   0  14 3291.67 324.202   3
  -1   0 -14 3125.56 375.859   2
   1   0  15 914.370 177.057   3
  -1   0 -15 770.864 196.890   2
  -1   0 -16 1028.06 224.518   2
  -1   0 -17 159.037 95.1114   2
  -1  -1  17 488.583 150.411   3
  -1  -1  16 51.2486 62.2938   3
  -1  -1  15 72.4687 54.7831   3
  -1  -1  14 764.286 162.142   3
  -1  -1  13 527.574 128.452   3
  -1  -1  12 9508.78 518.315   3
  -1  -1  11 68.8130 45.9709   3
  -1  -1  10 379.256 90.5933   3
  -1  -1   9 210.225 62.5759   3
  -1  -1   8 270.977 69.7632   3
  -1  -1   7 2872.51 212.418   3
  -1  -1   6 30347.1 655.695   3
  -1  -1   5 21632.2 515.451   3
  -1  -1   4 8562.70 304.979   3
  -1  -1   3 2906.57 166.054   3
  -1  -1   2 32.2061 22.2772   3
  -1  -1   1 17776.3 383.806   3
  -1  -1   1 17526.5 375.650   2
  -1  -1   0 1959.63 120.337   1
  -1  -1   0 1624.64 116.304   2
   1   1   0 1727.01 122.749   1
   1   1   1 412644. 2190.00   1
  -1  -1  -1 429517. 1967.65   1
   1   1   2 10410.3 494.608   1
  -1  -1  -2 10637.5 324.966   2
  -1  -1  -2 10325.1 366.414   1
  -1  -1  -3 40848.6 729.854   2
  -1  -1  -3 35408.2 908.685   1
  -1  -1  -4 303.421 64.4375   2
  -1  -1  -4 293.188 52.0540   3
  -1  -1  -4 282.821 103.468   1
  -1  -1  -5 2274.88 342.145   1
  -1  -1  -5 2596.47 163.168   3
   1   1   5 2596.07 220.722   2
  -1  -1  -5 2571.75 194.853   2
  -1  -1  -6 865.258 120.744   2
  -1  -1  -6 709.863 211.424   1
  -1  -1  -6 964.965 107.691   3
  -1  -1  -7 1823.21 185.082   2
  -1  -1  -8 5269.79 336.215   2
  -1  -1  -9 178.248 70.1143   2
  -1  -1 -10 330.567 96.0354   2
  -1  -1 -11 6.14692 33.8791   2
  -1  -1 -12 343.774 105.957   2
  -1  -1 -13 63.6147 62.9278   2
  -1  -1 -14 5709.36 471.329   2
  -1  -1 -15 1003.20 202.665   2
  -1  -1 -15 324.039 239.954   1
  -1  -1 -16 595.803 340.295   1
  -1  -1 -16 383.528 128.698   2
  -1  -1 -17-39.5843 47.9247   2
  -1  -1 -17 182.188 198.626   1
  -1  -2  17 74.0817 59.7333   3
  -1  -2  16 870.604 192.896   3
  -1  -2  15 307.368 115.935   3
  -1  -2  14 532.927 142.252   3
  -1  -2  13 3087.27 305.999   3
  -1  -2  12 355.406 101.079   3
  -1  -2  11 13503.4 660.183   3
  -1  -2  10 472.642 111.730   3
  -1  -2   9 806.836 138.423   3
  -1  -2   8-3.42777 15.7712   3
  -1  -2   7 4484.84 290.785   3
  -1  -2   6 2400.15 215.421   3
  -1  -2   5 39491.2 795.496   3
  -1  -2   4 7648.27 396.578   3
  -1  -2   3 5659.18 292.127   3
  -1  -2   2 3023.29 218.690   3
  -1  -2   1 95.1973 30.8136   2
   1   2  -1 120.372 44.1353   1
  -1  -2   1 108.153 46.6196   3
  -1  -2   0 137.823 53.3107   1
  -1  -2   0 28.2313 19.9692   2
   1   2   0 48.5866 39.0940   1
  -1  -2  -1 3703.22 252.533   1
  -1  -2  -1 2798.82 176.905   2
   1   2   1 3385.51 278.511   1
  -1  -2  -2 29110.2 751.732   1
  -1  -2  -2 24565.4 559.019   2
   1   2   2 28248.5 622.307   2
   1   2   2 26615.2 966.397   1
  -1  -2  -3 451.686 104.610   2
   1   2   3 669.427 107.904   2
   1   2   3 332.352 174.145   1
  -1  -2  -4 2541.75 293.513   1
  -1  -2  -4 2352.70 180.918   2
   1   2   4 2578.38 199.140   2
   1   2   5 608.495 109.849   2
  -1  -2  -5 456.522 84.5020   2
  -1  -2  -5 419.973 157.170   1
  -1  -2  -6 18.7792 28.3770   1
  -1  -2  -6 53.1426 33.9083   2
  -1  -2  -7 1793.09 206.539   2
  -1  -2  -7 2911.97 423.994   1
  -1  -2  -8 2063.52 380.148   1
  -1  -2  -8 1312.31 176.335   2
  -1  -2  -9 9307.88 502.197   2
  -1  -2  -9 21470.1 1391.12   1
  -1  -2 -10 460.860 110.081   2
  -1  -2 -10 563.327 229.170   1
  -1  -2 -11 108.138 57.1282   2
  -1  -2 -11 477.827 223.860   1
  -1  -2 -12 243.276 174.939   1
  -1  -2 -12 144.947 72.5118   2
  -1  -2 -13 1912.76 262.495   2
  -1  -2 -13 1916.76 508.774   1
  -1  -2 -14 43.4704 51.2887   2
  -1  -2 -14 17.9117 61.2319   1
  -1  -2 -15 113.302 92.1539   2
  -1  -2 -15-119.283 139.569   1
  -1  -2 -16 279.472 217.850   1
  -1  -3  16-37.4975 43.5227   3
  -1  -3  15 612.992 154.469   3
  -1  -3  14-60.9756 48.0674   3
  -1  -3  13 691.496 154.299   3
  -1  -3  12 35.5004 36.3679   3
  -1  -3  11 881.228 160.776   3
  -1  -3  10 530.739 122.326   3
  -1  -3   9 255.692 90.0751   3
  -1  -3   8 4670.34 338.701   3
  -1  -3   7 2541.19 242.723   3
  -1  -3   6 1065.74 155.599   3
  -1  -3   5 60.6115 45.3791   3
  -1  -3   4 254.118 72.5597   3
  -1  -3   3-40.4448 35.1743   3
  -1  -3   2 2473.83 238.555   3
   1   3  -1 978.211 121.730   2
   1   3  -1 1005.80 168.225   1
  -1  -3   1 1065.64 156.309   1
  -1  -3   0 30494.9 829.874   1
   1   3   0 30483.9 942.833   1
   1   3   0 31478.2 677.327   2
  -1  -3  -1 3352.26 206.172   2
  -1  -3  -1 3446.13 294.969   1
   1   3   1 3718.82 364.055   1
   1   3   1 3841.15 241.211   2
   1   3   2 75.3752 33.7052   2
   1   3   2 122.147 54.6568   1
  -1  -3  -2 100.274 38.3918   2
  -1  -3  -2 26.4843 20.4173   1
  -1  -3  -3 2388.38 184.229   2
  -1  -3  -3 2039.98 248.013   1
   1   3   3 2567.93 214.269   2
   1   3   3 1904.34 334.877   1
  -1  -3  -4 202.365 82.9909   1
  -1  -3  -4 236.634 60.0718   2
  -1  -3  -5 5923.67 314.300   2
  -1  -3  -5 6005.41 491.921   1
  -1  -3  -6 146.123 56.5516   2
  -1  -3  -6 115.539 71.9626   1
  -1  -3  -7 954.647 228.847   1
  -1  -3  -7 1283.08 156.434   2
  -1  -3  -8 133.318 62.2124   2
  -1  -3  -8 21.3505 44.0420   1
  -1  -3  -9 1672.56 197.321   2
  -1  -3  -9 1473.66 333.467   1
  -1  -3 -10 219.055 83.7809   2
  -1  -3 -10 151.166 115.291   1
  -1  -3 -11 1306.87 345.380   1
  -1  -3 -11 1564.75 209.908   2
  -1  -3 -12 3858.98 341.606   2
  -1  -3 -12 3500.42 611.329   1
  -1  -3 -13 10551.3 581.624   2
  -1  -3 -13 10502.5 1089.45   1
  -1  -3 -14 5160.23 803.531   1
  -1  -3 -15 572.089 277.126   1
  -1  -4  15 1260.30 231.743   3
  -1  -4  14 1844.17 274.588   3
  -1  -4  13 253.546 98.5545   3
  -1  -4  12 182.880 81.2204   3
  -1  -4  11 2065.75 281.248   3
  -1  -4  10 69.3192 54.0145   3
  -1  -4   9 63.8172 54.7727   3
  -1  -4   8 29909.0 935.510   3
  -1  -4   7 7203.52 453.750   3
  -1  -4   6 12730.8 603.593   3
  -1  -4   5 739.750 156.418   3
  -1  -4   4 1781.42 239.880   3
  -1  -4   3 3154.43 313.409   3
  -1  -4   2 1327.24 204.849   3
  -1  -4   1 9103.48 521.412   1
  -1  -4   0 316.040 187.391   1
  -1  -4  -1 4869.46 395.285   1
  -1  -4  -2 160.486 97.9105   1
  -1  -4  -2 75.6149 64.9336   2
  -1  -4  -3 486.475 133.266   1
  -1  -4  -3 373.663 74.9436   2
  -1  -4  -4 107.988 73.9243   1
  -1  -4  -4 97.6504 41.3249   2
  -1  -4  -5 7106.04 358.641   2
  -1  -4  -5 7040.77 557.811   1
  -1  -4  -6 7560.88 610.531   1
  -1  -4  -6 7722.39 383.185   2
  -1  -4  -7 2691.34 386.550   1
  -1  -4  -7 2992.79 246.570   2
  -1  -4  -8 285.737 134.625   1
  -1  -4  -8 218.405 70.9698   2
  -1  -4  -9 27.1321 52.5579   1
  -1  -4  -9 30.3369 29.0299   2
  -1  -4 -10 114.521 96.7576   1
  -1  -4 -10 116.589 55.4172   2
  -1  -4 -11 532.276 211.216   1
  -1  -4 -12 5550.90 708.802   1
  -1  -4 -13-36.2165 61.4664   1
  -1  -4 -14 2569.81 528.811   1
  -1  -5  14 5459.19 499.712   3
  -1  -5  13 570.054 161.374   3
  -1  -5  12 56.1090 59.2867   3
  -1  -5  11 1092.13 212.936   3
  -1  -5  10 512.286 136.580   3
  -1  -5   9 2194.43 283.302   3
  -1  -5   8 872.061 178.107   3
  -1  -5   7 13531.5 688.285   3
  -1  -5   6 56.6829 54.3156   3
  -1  -5   5-38.0855 53.2794   3
  -1  -5   4 273.760 96.6359   3
  -1  -5   3 478.186 138.998   3
  -1  -5   2 124.972 83.6462   3
  -1  -5   1 46.8670 77.8096   1
  -1  -5   0 442.725 133.970   1
  -1  -5  -1 559.005 152.841   1
  -1  -5  -2 626.861 162.411   1
  -1  -5  -3 79.3586 85.3455   1
  -1  -5  -4 534.298 164.511   1
  -1  -5  -5 96.8313 74.6970   1
  -1  -5  -5 32.5511 31.9903   2
  -1  -5  -6 947.607 134.603   2
  -1  -5  -6 996.875 239.420   1
  -1  -5  -7 63.0037 66.7064   1
  -1  -5  -7 110.470 56.4575   2
  -1  -5  -8 325.352 130.371   1
  -1  -5  -9 197.981 136.882   1
  -1  -5 -10 405.069 174.546   1
  -1  -5 -11 981.204 289.816   1
  -1  -5 -12 239.992 147.237   1
  -1  -6  12 57.8707 58.0531   3
  -1  -6  11 155.177 86.0241   3
  -1  -6  10 198.086 101.946   3
  -1  -6   9 2268.55 314.299   3
  -1  -6   8 1107.44 216.026   3
  -1  -6   7 43.7583 46.4247   3
  -1  -6   6 1378.62 249.801   3
  -1  -6   5 523.444 196.567   3
  -1  -6   4 199.126 106.320   3
  -1  -6   3 24.8703 74.5583   3
  -1  -6   2 139.542 101.423   3
  -1  -6   1 194.604 97.7337   1
  -1  -6   1 112.423 96.0230   3
  -1  -6   0 588.404 177.834   1
  -1  -6  -1 573.406 182.411   1
  -1  -6  -2 1123.13 361.651   1
  -1  -6  -3 2372.75 359.707   1
  -1  -6  -4 5683.67 576.090   1
  -1  -6  -5 9761.63 785.459   1
  -1  -6  -6 599.478 203.054   1
  -1  -6  -7 406.556 168.573   1
  -1  -6  -8 255.191 137.317   1
  -1  -6  -9 779.888 244.779   1
  -1  -7   9-49.3671 54.7738   3
  -1  -7   8 2681.21 372.839   3
  -1  -7   7 132.315 83.7571   3
  -1  -7   6 197.134 85.4070   3
  -1  -7   5 84.5577 73.7043   3
  -1  -7   4 927.579 229.252   3
  -1  -7   3 5178.02 547.531   3
  -1  -7   2 1062.51 253.505   3
  -1  -7   1 758.201 217.932   3
  -1  -7   0 16.6090 45.1395   3
  -1  -7   0 99.7230 78.1215   1
  -1  -7  -1 372.902 154.647   1
  -1  -7  -2 44.3498 58.9654   1
  -1  -7  -3 6710.30 647.873   1
  -1  -7  -4 1976.76 355.680   1
  -1  -7  -5 7126.02 705.792   1
  -1  -7  -6 1035.50 272.754   1
   2  -7  -5 2713.53 474.783   1
   2  -7  -4 1336.91 319.410   1
   2  -7  -3 145.162 104.547   1
   2  -7  -2 781.592 228.112   1
   2  -7  -1 11.2596 43.1665   1
   2  -7   0 2913.36 422.777   1
   2  -7   1 248.966 137.501   1
   2  -7   2 3070.80 414.935   3
   2  -7   2 3562.99 458.836   1
   2  -7   3 334.031 148.038   3
   2  -7   4 522.438 172.009   3
   2  -7   5 6.96680 31.9487   3
   2  -7   6 485.423 156.502   3
   2  -7   7 4222.58 431.405   3
   2  -7   8 1663.47 265.073   3
   2  -7   9 4672.67 449.341   3
   2  -6  -8 786.786 259.254   1
   2  -6  -7-54.1258 77.0358   1
   2  -6  -6 137.732 105.620   1
   2  -6  -5 9.88770 41.7212   1
   2  -6  -4 85.1634 105.210   1
   2  -6  -3 136.068 126.292   1
   2  -6  -2 979.544 241.756   1
   2  -6  -1 391.803 144.378   1
   2  -6   0 474.292 163.405   1
   2  -6   1 2335.07 339.057   1
   2  -6   2 18.0342 40.7564   1
   2  -6   3 177.092 79.8517   3
   2  -6   4 47.6441 27.7815   3
   2  -6   5 59.5836 54.6117   3
   2  -6   6 196.282 89.9097   3
   2  -6   7 299.838 103.433   3
   2  -6   8 114.304 66.1776   3
   2  -6   9-31.2635 38.8602   3
   2  -6  10 263.980 97.6970   3
   2  -6  11 350.889 119.706   3
   2  -5 -11-160.035 141.779   1
   2  -5 -10 52.3918 92.3705   1
   2  -5  -9 789.620 272.797   1
   2  -5  -8 181.752 126.173   1
   2  -5  -7 24.3195 59.7995   1
   2  -5  -6-4.33653 42.8459   1
   2  -5  -5 48.3077 59.5461   1
   2  -5  -4-22.8137 46.5640   1
   2  -5  -3 11.3163 38.0158   1
  -2   5   2 131.212 26.0802   2
   2  -5  -2 93.6833 75.5154   1
  -2   5   1 13671.1 387.393   2
   2  -5  -1 15546.9 852.054   1
   2  -5   0 3934.64 407.829   1
  -2   5   0 3704.34 251.116   2
   2  -5   1 4811.30 433.055   1
   2  -5   2 1503.13 238.833   1
   2  -5   3 608.648 150.045   3
   2  -5   3 608.538 154.793   1
   2  -5   4 137.155 79.8719   3
   2  -5   5 569.455 137.281   3
   2  -5   6 9753.45 539.595   3
   2  -5   7 9.18049 23.1961   3
   2  -5   8 1789.86 225.915   3
   2  -5   9 61.5827 45.0451   3
   2  -5  10 34.9647 35.0813   3
   2  -5  11 265.693 90.1347   3
   2  -5  12 1541.60 218.313   3
   2  -4 -13 4808.47 843.490   1
   2  -4 -12 19.1920 82.2250   1
   2  -4 -11 516.622 260.443   1
   2  -4 -10-45.8421 91.3653   1
   2  -4  -9 1064.87 328.989   1
   2  -4  -8 624.172 237.565   1
   2  -4  -7 2477.79 442.489   1
   2  -4  -6 285.889 118.918   1
   2  -4  -5 650.237 214.808   1
   2  -4  -4 904.528 242.246   1
   2  -4  -3 370.137 141.241   1
   2  -4  -2 11601.3 683.895   1
  -2   4   2 12739.1 269.368   2
   2  -4  -1 1604.04 247.798   1
  -2   4   1 1827.76 131.352   2
  -2   4   0 41051.1 767.868   2
   2  -4   0 44027.3 1246.20   1
   2  -4   1 118.101 72.5806   1
  -2   4  -1 264.885 91.5824   2
   2  -4   2-7.13293 38.7931   1
   2  -4   3 308.837 112.506   3
   2  -4   3 235.042 123.389   1
   2  -4   4 575.073 123.181   3
   2  -4   5 22.2901 31.9757   3
   2  -4   6 431.125 106.709   3
   2  -4   7 1147.93 160.623   3
   2  -4   8 56.6081 37.3723   3
   2  -4   9 1317.57 175.678   3
   2  -4  10 62.6987 38.7033   3
   2  -4  11 413.600 100.379   3
   2  -4  12 17.3059 24.6830   3
  -2   4 -12 62.4468 48.3242   2
   2  -4  13 4373.49 346.252   3
  -2   4 -13 4378.08 537.623   2
   2  -3 -14-51.8916 99.5119   1
   2  -3 -13 301.699 231.426   1
   2  -3 -12 33.4526 92.5850   1
   2  -3 -11 415.989 242.772   1
   2  -3 -10 249.054 175.595   1
   2  -3  -9 269.375 176.404   1
   2  -3  -8 9152.45 957.719   1
   2  -3  -7 157.384 122.893   1
   2  -3  -6 1119.20 290.871   1
   2  -3  -5 74.1619 65.0149   1
   2  -3  -4 627.228 177.542   1
   2  -3  -3-13.0411 48.0543   1
  -2   3   2 1657.27 95.2769   2
   2  -3  -2 1845.18 255.858   1
   2  -3  -1 2664.27 278.614   1
  -2   3   1 2893.44 158.436   2
   2  -3   0 797.556 144.743   1
  -2   3   0 680.988 90.3686   2
   2  -3   1 102.808 50.8048   1
  -2   3  -1 97.0799 43.6722   2
   2  -3   2 383.583 93.2610   1
  -2   3  -2 297.580 81.1565   2
  -2   3  -3 5169.92 350.056   2
   2  -3   3 5423.29 310.868   3
   2  -3   4 19.7332 28.9570   3
  -2   3  -4 23.0048 47.3511   2
   2  -3   5 888.206 118.876   3
   2  -3   6 22.2435 17.6123   3
  -2   3  -6 14.0309 46.1255   1
   2  -3   7 173.125 50.7470   3
   2  -3   8 107.866 45.8733   3
  -2   3  -8 64.1334 55.0526   2
  -2   3  -9 172.809 105.003   2
   2  -3   9 443.078 103.561   3
   2  -3  10 2552.90 221.306   3
  -2   3 -10 2391.16 340.812   2
  -2   3 -11 850.220 215.792   2
   2  -3  11 713.111 123.564   3
   2  -3  12 612.803 119.391   3
  -2   3 -12 687.396 202.799   2
   2  -3  13 38.4778 34.4337   3
  -2   3 -13 37.6112 56.9416   2
  -2   3 -14 555.112 189.753   2
   2  -2 -15 724.671 406.449   1
   2  -2 -14 94.7770 263.433   1
   2  -2 -13-156.209 190.934   1
   2  -2 -12 402.353 271.217   1
   2  -2 -11-1.99896 67.8639   1
   2  -2 -10 2758.56 651.545   1
   2  -2  -9 2325.32 567.545   1
   2  -2  -9 2672.24 152.209   2
   2  -2  -8 230.518 172.849   1
   2  -2  -8 603.714 65.2575   2
   2  -2  -7 235.299 36.9612   2
   2  -2  -7 120.081 121.569   1
   2  -2  -6 220.952 141.371   1
   2  -2  -6 408.105 43.3430   2
   2  -2  -5 2038.88 391.256   1
   2  -2  -5 2007.94 90.4774   2
   2  -2  -4 73.2173 17.8457   2
   2  -2  -4 128.024 91.0975   1
   2  -2  -4 76.9627 38.8198   3
   2  -2  -3 19225.3 499.809   3
  -2   2   3 18024.6 297.014   2
   2  -2  -3 17883.4 340.288   2
   2  -2  -3 18097.8 916.528   1
  -2   2   2 1164.30 90.9445   2
   2  -2  -2 1355.94 126.902   3
   2  -2  -2 1122.33 191.555   1
  -2   2   1 24643.7 484.216   2
   2  -2  -1 22622.0 738.115   1
  -2   2   0 95.2149 39.2056   2
   2  -2   0 53.3476 29.1711   1
  -2   2   0 114.896 71.0377   1
  -2   2  -1 191.215 54.0326   2
   2  -2   1 294.654 72.0435   1
  -2   2  -1 285.904 103.481   1
  -2   2  -2 300.171 78.9009   1
  -2   2  -2 270.645 66.1801   2
   2  -2   2 303.873 60.4975   3
   2  -2   2 381.823 74.9299   1
  -2   2  -3 3090.49 276.085   2
  -2   2  -3 3742.89 285.774   1
   2  -2   3 2947.69 169.325   3
  -2   2  -4 5962.41 376.973   2
  -2   2  -4 6622.81 355.781   1
   2  -2   4 5857.21 229.238   3
  -2   2  -5 354.006 91.7989   1
  -2   2  -5 441.502 157.471   2
   2  -2   5 408.272 62.0648   3
   2  -2   6 1543.10 125.633   3
  -2   2  -6 1570.29 171.841   1
  -2   2  -6 1417.68 204.196   2
  -2   2  -7 216.014 73.1413   1
   2  -2   7 122.996 38.6652   3
  -2   2  -7 191.262 69.0520   3
  -2   2  -7 235.403 96.6860   2
  -2   2  -8 1645.50 246.955   2
   2  -2   8 1715.34 145.972   3
   2  -2   9 19.5859 17.1418   3
  -2   2  -9-13.9019 40.7026   2
  -2   2 -10 13212.3 748.696   2
   2  -2  10 14027.6 487.727   3
  -2   2 -11 4289.60 442.221   2
   2  -2  11 5101.58 315.484   3
  -2   2 -12 12232.3 783.971   2
   2  -2  12 12074.6 514.847   3
   2  -2  13 1703.03 204.407   3
  -2   2 -13 1708.49 301.000   2
  -2   2 -14 373.995 140.734   2
   2  -2  14 280.210 88.7495   3
  -2   2 -15 21.7188 48.6345   2
  -2   1  16 1285.65 254.459   3
  -2   1  15 414.445 134.899   3
  -2   1  14 125.549 86.9924   3
  -2   1  13 394.687 120.559   3
  -2   1  12 66.8231 64.6213   3
  -2   1  11 6133.19 434.650   3
  -2   1  10 11.6648 23.1026   3
  -2   1   9 47858.3 1085.07   3
   2  -1  -8 2469.48 161.439   2
  -2   1   8 2469.78 236.321   3
   2  -1  -7 4252.85 210.643   2
  -2   1   7 4152.45 285.542   3
  -2   1   6 168.505 55.4053   3
   2  -1  -6 226.336 45.2218   2
  -2   1   5 2824.56 206.223   3
   2  -1  -5 2818.65 155.186   2
   2  -1  -5 2713.01 187.730   3
   2  -1  -4 6381.02 232.409   2
  -2   1   4 6544.01 287.008   3
   2  -1  -4 6535.84 270.971   3
  -2   1   3 10098.9 280.909   2
   2  -1  -3 10368.9 294.193   2
  -2   1   3 10035.4 327.852   3
   2  -1  -3 10408.7 313.791   3
   2  -1  -2 39457.0 1264.88   1
  -2   1   2 41805.0 602.954   2
   2  -1  -2 43093.4 637.127   2
   2  -1  -2 41678.2 573.026   3
   2  -1  -1 1029.55 155.111   1
  -2   1   1 971.609 97.8140   2
   2  -1  -1 962.395 99.0214   2
   2  -1  -1 977.206 77.2108   3
  -2   1   0 691.188 88.7649   2
   2  -1   0 542.921 82.9159   2
   2  -1   0 666.771 53.4044   3
   2  -1   0 656.523 88.6870   1
  -2   1  -1 14.1082 22.0693   2
   2  -1   1 11.7085 23.4126   2
  -2   1  -1-24.6118 46.2647   1
   2  -1   1-10.4411 16.7798   1
   2  -1   1 6.61100 5.96190   3
  -2   1  -2 54.6364 37.2730   2
  -2   1  -2 25.6500 18.8972   1
   2  -1   2 123.929 60.3644   2
  -2   1  -3 1222.15 145.741   2
  -2   1  -3 1330.86 104.329   1
   2  -1   3 1188.44 53.8511   3
  -2   1  -4 28273.6 501.234   1
   2  -1   4 27912.9 332.501   3
  -2   1  -4 27581.1 731.935   2
  -2   1  -5 6000.56 362.981   2
   2  -1   5 6087.29 187.982   3
  -2   1  -5 5953.27 231.298   3
  -2   1  -6 1649.32 204.126   2
   2  -1   6 1705.63 115.495   3
  -2   1  -6 1614.35 128.482   3
  -2   1  -7 197.320 52.4072   3
   2  -1   7 187.572 44.4618   3
  -2   1  -7 113.300 61.1033   2
  -2   1  -8 24.9584 21.7623   3
  -2   1  -8 30.9670 45.5529   2
   2  -1   8-4.30424 10.1430   3
   2  -1   9 990.534 120.096   3
  -2   1  -9 954.987 186.521   2
  -2   1 -10 821.825 180.395   2
   2  -1  10 869.373 121.101   3
   2  -1  11 14103.1 525.348   3
  -2   1 -11 14521.2 764.207   2
  -2   1 -12 76.8393 55.8594   2
   2  -1  12 120.148 50.6205   3
  -2   1 -13 220.369 101.875   2
   2  -1  13 245.865 78.8257   3
  -2   1 -14 10.1386 38.0516   2
   2  -1  14 28.5705 34.8529   3
  -2   1 -15 328.043 141.802   2
  -2   0  16 297.187 116.135   3
  -2   0  15 3304.02 389.624   3
  -2   0  14-74.2152 55.0969   3
  -2   0  13 397.399 133.722   3
  -2   0  12 337.152 100.711   3
  -2   0  11 1130.52 181.527   3
  -2   0  10 5710.27 382.120   3
  -2   0   9 2002.24 216.434   3
  -2   0   8 9313.08 435.613   3
  -2   0   7 55.2256 33.0953   3
   2   0  -7 48.7674 23.1748   2
   2   0  -6 7454.80 304.687   2
  -2   0   6 6960.63 327.547   3
   2   0  -6 7535.67 338.426   3
  -2   0   5 27.2795 12.4202   3
   2   0  -5 23.3545 23.2067   3
   2   0  -5 41.0321 21.8877   2
   2   0  -4 631.856 85.7030   2
   2   0  -4 673.618 87.9439   3
  -2   0   4 724.784 88.9828   3
  -2   0   3 988.388 99.9189   2
   2   0  -3 1078.95 112.095   2
  -2   0   3 1086.91 99.2960   3
   2   0  -3 1038.09 100.616   3
  -2   0   2 223.523 50.4101   2
   2   0  -2 254.173 55.6543   2
   2   0  -2 275.250 46.5277   3
  -2   0   2 263.931 43.0503   3
   2   0  -1 1560.67 95.1923   3
  -2   0   1 1558.98 139.859   2
   2   0  -1 1665.88 142.121   2
  -2   0   1 1607.62 88.9600   3
  -2   0   0 440.236 77.2416   2
  -2   0   0 380.999 33.8220   3
   2   0   0 429.838 43.4725   3
  -2   0  -1 2901.87 199.873   2
  -2   0  -2 511.557 94.8421   2
  -2   0  -3 335.405 82.5222   2
  -2   0  -3 290.845 26.8539   3
  -2   0  -4 159.545 62.1639   2
  -2   0  -4 53.8710 39.6715   1
  -2   0  -4 158.628 26.6206   3
  -2   0  -5 1661.24 184.547   2
  -2   0  -5 1835.42 107.644   3
  -2   0  -6 73.0828 25.3146   3
  -2   0  -6 64.1915 41.7963   2
  -2   0  -7 1268.25 178.238   2
  -2   0  -7 1382.06 121.365   3
  -2   0  -8 32.1518 24.1617   3
  -2   0  -8 12.6751 28.2098   2
  -2   0  -9 1683.61 226.906   2
  -2   0 -10 1545.03 230.172   2
  -2   0 -11 150.455 82.5261   2
  -2   0 -12 186.526 91.1447   2
  -2   0 -13-60.9845 57.3347   2
  -2   0 -14 1007.98 214.366   2
  -2   0 -15 24.1230 47.0440   2
  -2  -1  16 310.449 115.194   3
  -2  -1  15-20.4394 35.5370   3
  -2  -1  14 149.227 75.4557   3
  -2  -1  13-25.5639 33.9581   3
  -2  -1  12 445.248 117.821   3
  -2  -1  11 818.396 148.629   3
  -2  -1  10 3482.06 294.620   3
  -2  -1   9 41.5914 31.5338   3
  -2  -1   8 228.485 68.1408   3
  -2  -1   7 13.4158 15.7127   3
   2   1  -6 354.083 80.2474   3
  -2  -1   6 448.430 84.5863   3
   2   1  -6 348.181 72.5888   2
   2   1  -5 6426.56 312.289   2
  -2  -1   5 6233.40 298.005   3
   2   1  -5 6335.61 317.312   3
  -2  -1   4 245.384 56.0687   3
   2   1  -4 181.676 50.3006   3
   2   1  -4 222.900 60.9540   2
  -2  -1   3 43.2853 26.3657   3
   2   1  -3 55.8052 28.3951   3
  -2  -1   3 63.2831 28.3832   2
  -2  -1   2 17.3146 13.8227   3
   2   1  -2 20.1054 23.2478   3
  -2  -1   2 46.5240 33.4012   2
  -2  -1   1 8792.51 276.483   3
  -2  -1   1 8826.44 352.113   2
   2   1  -1 8336.03 315.589   3
  -2  -1   0 25.7730 16.5533   3
   2   1   0-13.1876 14.6314   1
  -2  -1   0 28.8498 25.4828   2
   2   1   1 28923.9 555.921   1
  -2  -1  -1 29995.9 680.595   2
  -2  -1  -1 28604.9 507.800   3
   2   1   2 34287.3 840.988   1
  -2  -1  -2 35656.0 760.704   2
  -2  -1  -2 34520.7 503.356   1
  -2  -1  -3 38216.1 819.600   2
  -2  -1  -3 38893.7 635.984   1
  -2  -1  -4 17147.6 586.119   2
  -2  -1  -4 16226.6 359.666   3
  -2  -1  -4 15803.8 504.815   1
  -2  -1  -5 1226.54 106.086   3
  -2  -1  -5 1415.12 186.525   2
  -2  -1  -5 1146.66 167.036   1
  -2  -1  -6 221.911 48.8389   3
  -2  -1  -6 202.341 91.3911   1
  -2  -1  -6 264.513 81.4419   2
  -2  -1  -7-7.23477 21.2532   2
  -2  -1  -7-60.3206 56.6841   1
  -2  -1  -7 26.2665 19.6046   3
  -2  -1  -8 3691.32 468.297   1
  -2  -1  -8 4190.74 345.112   2
  -2  -1  -9 64.2562 74.6078   1
  -2  -1  -9 69.7278 54.8196   2
  -2  -1 -10 10784.1 942.488   1
  -2  -1 -10 12127.6 632.359   2
  -2  -1 -11 421.681 127.712   2
  -2  -1 -11 350.605 182.842   1
  -2  -1 -12 259.432 164.740   1
  -2  -1 -12 101.197 71.6387   2
  -2  -1 -13 196.589 159.530   1
  -2  -1 -13 232.657 99.7634   2
  -2  -1 -14 133.971 87.2612   2
  -2  -1 -14 348.011 211.461   1
  -2  -1 -15 2321.75 342.157   2
  -2  -2  16 1445.60 257.944   3
  -2  -2  15 123.453 74.1371   3
  -2  -2  14 180.571 81.9233   3
  -2  -2  13 777.207 163.191   3
  -2  -2  12 365.560 106.270   3
  -2  -2  11 6685.03 439.163   3
  -2  -2  10 35.3026 48.3175   3
  -2  -2   9 1425.69 190.219   3
  -2  -2   8 213.868 75.6387   3
  -2  -2   7 484.764 101.398   3
  -2  -2   6 1492.53 170.976   3
  -2  -2   5 19479.3 592.910   3
  -2  -2   4 19665.3 574.801   3
   2   2  -4 20241.4 659.883   3
  -2  -2   3 4687.88 272.196   3
   2   2  -3 4869.43 321.391   3
  -2  -2   2 424.417 85.4631   3
  -2  -2   2 272.496 65.2254   2
   2   2  -2 473.521 97.2595   1
  -2  -2   1 32.4669 17.8111   3
   2   2  -1 16.4148 27.3918   1
  -2  -2   1 40.6436 28.1007   2
  -2  -2   0 5580.82 306.048   2
   2   2   0 6153.97 340.537   1
  -2  -2   0 5290.83 300.178   3
   2   2   1 444.893 101.266   1
  -2  -2  -1 465.255 89.4728   2
  -2  -2  -1 497.473 89.1917   1
  -2  -2  -2 74243.0 1174.27   2
  -2  -2  -2 72213.4 1062.21   1
   2   2   2 74593.3 1520.02   1
   2   2   3 5064.41 469.893   1
  -2  -2  -3 5318.41 320.176   2
  -2  -2  -3 5285.13 319.868   1
  -2  -2  -4 14582.4 547.201   2
  -2  -2  -4 13893.6 548.115   1
  -2  -2  -5-11.9190 40.8585   2
  -2  -2  -5-28.0227 31.4848   1
  -2  -2  -6 1225.35 168.194   2
  -2  -2  -6 1118.79 192.489   1
  -2  -2  -7 380.349 101.976   2
  -2  -2  -7 420.189 129.976   1
  -2  -2  -8 63.8986 37.2784   2
  -2  -2  -8 90.4522 69.1907   1
  -2  -2  -9 454.761 126.389   2
  -2  -2  -9 405.398 159.858   1
  -2  -2 -10 9.62140 41.8279   2
  -2  -2 -10 84.4365 79.3177   1
  -2  -2 -11 656.964 164.000   2
  -2  -2 -11 4117.54 554.135   1
  -2  -2 -12 29.6930 68.9577   2
  -2  -2 -12 553.916 220.610   1
  -2  -2 -13 238.374 110.210   2
  -2  -2 -13 411.907 218.555   1
  -2  -2 -14-61.0061 59.1397   2
  -2  -2 -14 33.8820 76.3984   1
  -2  -2 -15 1771.28 302.443   2
  -2  -3  15 420.365 132.993   3
  -2  -3  14 420.212 126.090   3
  -2  -3  13 341.125 109.705   3
  -2  -3  12 75.9395 52.8070   3
  -2  -3  11 38.6213 30.0070   3
  -2  -3  10 784.490 154.289   3
  -2  -3   9 102.894 55.0583   3
  -2  -3   8 95.2532 53.2724   3
  -2  -3   7 3.53790 19.0630   3
  -2  -3   6 577.080 118.948   3
  -2  -3   5 98.8642 59.5893   3
  -2  -3   4 7302.67 405.338   3
  -2  -3   3 258.736 74.9975   3
   2   3  -2 1589.77 210.578   1
  -2  -3   2 1491.37 188.087   3
  -2  -3   1 695.615 129.773   3
  -2  -3   1 498.845 93.9944   2
   2   3  -1 564.621 128.362   1
  -2  -3   0 380.234 99.9091   3
  -2  -3   0 337.813 79.8203   2
   2   3   0 402.929 112.625   1
   2   3   1 1690.11 240.825   1
  -2  -3  -1 1727.75 184.881   2
  -2  -3  -1 1527.96 189.301   1
  -2  -3  -2 44.6874 30.7803   1
   2   3   2-19.3376 43.6021   1
  -2  -3  -2 91.8262 48.7785   2
  -2  -3  -3 3425.63 267.420   2
  -2  -3  -3 3278.87 296.918   1
   2   3   3 3142.29 423.042   1
  -2  -3  -4 161.261 64.3407   2
  -2  -3  -4-40.1013 40.3580   1
   2   3   4 101.792 95.3440   1
  -2  -3  -5 245.727 89.6077   1
  -2  -3  -5 193.531 69.6071   2
  -2  -3  -6 218.707 93.7623   1
  -2  -3  -6 225.632 77.3244   2
  -2  -3  -7 42.5888 45.2091   2
  -2  -3  -7 98.1156 65.7669   1
  -2  -3  -8 120.975 57.5574   2
  -2  -3  -8 114.032 75.5356   1
  -2  -3  -9 171.166 75.8223   2
  -2  -3  -9 125.731 84.8478   1
  -2  -3 -10 279.290 97.4449   2
  -2  -3 -10 367.430 150.557   1
  -2  -3 -11 451.587 127.994   2
  -2  -3 -11 452.691 174.398   1
  -2  -3 -12 100.717 71.6345   2
  -2  -3 -12-168.148 114.153   1
  -2  -3 -13 59.0080 55.2830   2
  -2  -3 -13 172.604 117.303   1
  -2  -3 -14 3414.30 385.933   2
  -2  -4  14 535.921 154.180   3
  -2  -4  13 6.53623 26.0902   3
  -2  -4  12 210.664 91.4172   3
  -2  -4  11 61.5226 49.8856   3
  -2  -4  10 408.969 122.510   3
  -2  -4   9 523.125 136.422   3
  -2  -4   8 216.947 91.5346   3
  -2  -4   7 4675.29 382.610   3
  -2  -4   6 4137.98 356.280   3
  -2  -4   5 6235.98 429.480   3
  -2  -4   4 337.535 107.085   3
  -2  -4   3-17.6132 36.0329   3
  -2  -4   2 298.642 133.584   3
  -2  -4   1 1752.66 241.744   3
  -2  -4   0 346.647 115.573   3
  -2  -4   0 404.620 122.273   1
  -2  -4   0 326.883 81.7982   2
  -2  -4  -1 11509.6 487.736   2
  -2  -4  -1 12550.3 616.892   1
  -2  -4  -2 3021.13 261.427   2
  -2  -4  -2 2644.64 290.987   1
  -2  -4  -3 47.4776 45.2278   1
  -2  -4  -3 22.4671 27.0301   2
  -2  -4  -4 1093.62 166.966   2
  -2  -4  -4 1386.91 228.529   1
  -2  -4  -5-24.9652 39.2573   1
  -2  -4  -5 6.58131 23.1291   2
  -2  -4  -6 2557.98 260.639   2
  -2  -4  -6 2250.29 315.925   1
  -2  -4  -7 227.249 104.038   1
  -2  -4  -7 114.329 57.1697   2
  -2  -4  -8 2690.39 287.798   2
  -2  -4  -8 2489.81 360.819   1
  -2  -4  -9 114.343 83.2885   1
  -2  -4  -9 69.0855 50.5734   2
  -2  -4 -10 674.473 202.275   1
  -2  -4 -10 963.038 185.022   2
  -2  -4 -11 428.866 169.702   1
  -2  -4 -11 141.782 73.0209   2
  -2  -4 -12 868.691 252.152   1
  -2  -5  13 3411.71 398.621   3
  -2  -5  12 249.065 105.945   3
  -2  -5  11 108.843 69.6385   3
  -2  -5  10 13.6640 29.4396   3
  -2  -5   9 279.242 103.152   3
  -2  -5   8 66.8220 53.1861   3
  -2  -5   7 19281.1 849.376   3
  -2  -5   6 6539.33 493.558   3
  -2  -5   5 10771.1 636.078   3
  -2  -5   4 522.505 142.169   3
  -2  -5   3 418.732 132.299   3
  -2  -5   2 1980.65 280.975   3
  -2  -5   1 231.532 89.6347   3
  -2  -5   0 1467.05 242.165   1
  -2  -5   0 1334.55 239.706   3
  -2  -5  -1-36.1532 43.6129   1
  -2  -5  -2 2529.39 241.532   2
  -2  -5  -2 2663.49 325.852   1
  -2  -5  -3 5.31558 29.4415   1
  -2  -5  -3 48.2526 36.1070   2
  -2  -5  -4 185.819 102.281   1
  -2  -5  -4 186.468 72.2447   2
  -2  -5  -5 3.39474 51.1663   1
  -2  -5  -5 37.2373 35.2035   2
  -2  -5  -6 3038.40 296.097   2
  -2  -5  -6 2770.89 382.739   1
  -2  -5  -7 3973.22 344.257   2
  -2  -5  -7 4309.15 492.762   1
  -2  -5  -8 1505.79 217.707   2
  -2  -5  -8 1313.19 287.930   1
  -2  -5  -9 180.465 137.917   1
  -2  -5 -10 34.7871 54.8426   1
  -2  -5 -11-75.6619 75.7224   1
  -2  -6  11 74.8923 65.0056   3
  -2  -6  10 829.080 208.223   3
  -2  -6   9 77.7032 62.5846   3
  -2  -6   8 242.566 104.837   3
  -2  -6   7 155.448 84.3491   3
  -2  -6   6 4623.40 454.046   3
  -2  -6   5 125.450 77.4422   3
  -2  -6   4 269.683 114.829   3
  -2  -6   3 139.516 84.7143   3
  -2  -6   2 308.052 123.405   3
  -2  -6   1 86.4558 79.5220   3
  -2  -6   0 322.505 129.697   3
  -2  -6  -1 53.2761 80.3667   1
  -2  -6  -2 256.536 114.644   1
  -2  -6  -3 802.566 209.748   1
  -2  -6  -4 34.6326 52.5017   1
  -2  -6  -5 933.996 229.704   1
  -2  -6  -6 31.0265 51.6802   1
  -2  -6  -7-65.6209 70.2230   1
  -2  -6  -8 93.6744 84.4876   1
  -2  -6  -9 148.383 107.398   1
  -2  -7   7 1689.14 296.593   3
  -2  -7   6 24.6073 40.2929   3
  -2  -7   5 578.515 176.152   3
  -2  -7   4-44.5843 59.7989   3
  -2  -7   3 115.196 84.8081   3
  -2  -7   2 36.6369 54.0760   3
  -2  -7   1 671.965 194.329   3
  -2  -7   0 57.1520 54.3986   3
  -2  -7  -1 597.538 190.671   3
  -2  -7  -2 296.803 136.702   1
  -2  -7  -3 69.3243 69.8093   1
  -2  -7  -4 1246.79 281.246   1
  -2  -7  -5 3204.10 456.744   1
   3  -7  -3 103.137 94.0193   1
   3  -7  -2 379.096 161.205   1
   3  -7  -1 125.958 96.4461   1
   3  -7   0 305.382 138.218   1
   3  -7   1 649.884 204.039   1
   3  -7   2 370.349 140.303   3
   3  -7   3 82.0183 69.2781   3
   3  -7   4 18.9193 42.2267   3
   3  -6  -7 216.629 138.403   1
   3  -6  -6 449.747 187.194   1
   3  -6  -5 1349.87 321.040   1
   3  -6  -4 1661.98 340.515   1
   3  -6  -3 1779.34 349.086   1
   3  -6  -2 306.752 143.413   1
   3  -6  -1 1269.33 268.494   1
   3  -6   0-25.2703 75.0718   1
   3  -6   1 2202.58 324.719   1
   3  -6   2 424.335 152.169   1
   3  -6   2 227.799 114.330   3
   3  -6   3 4817.04 446.287   3
   3  -6   4 436.077 129.861   3
  -3   6  -4 427.632 122.440   2
   3  -6   5 183.507 82.1358   3
  -3   6  -5 285.806 106.655   2
  -3   6  -6 154.339 84.2376   2
  -3   6  -7 280.529 118.304   2
  -3   6  -8 1909.45 316.446   2
  -3   6  -9 1136.43 252.644   2
  -3   6 -10 3666.44 480.233   2
   3  -5 -10 428.037 216.526   1
   3  -5  -9 694.809 244.823   1
   3  -5  -8 60.0596 85.2207   1
   3  -5  -7 1487.24 344.889   1
   3  -5  -6 174.248 113.967   1
   3  -5  -5 137.774 98.1384   1
   3  -5  -4-21.7163 44.3978   1
   3  -5  -3 56.0261 99.4794   1
   3  -5  -2-81.6217 72.8392   1
   3  -5  -1 974.592 214.517   1
  -3   5   0 1677.13 165.575   2
   3  -5   0 1606.84 260.000   1
   3  -5   1 105.135 72.7271   1
  -3   5  -1 21.6346 24.0654   2
   3  -5   2 467.645 134.600   1
  -3   5  -2 492.132 107.174   2
   3  -5   3-47.2466 43.9012   3
  -3   5  -3 34.7691 21.5686   2
   3  -5   4 430.787 114.997   3
  -3   5  -4 607.837 143.274   2
   3  -5   5 34.6816 33.5163   3
  -3   5  -5 100.536 64.6692   2
   3  -5   6-44.7017 36.3339   3
  -3   5  -6-14.8479 26.0557   2
  -3   5  -7 235.044 104.197   2
  -3   5  -8 1792.27 300.285   2
  -3   5  -9 140.087 88.7810   2
  -3   5 -10 95.2811 112.063   2
  -3   5 -11 93.3968 79.2655   2
   3  -4 -12 443.821 262.321   1
   3  -4 -11 397.462 225.380   1
   3  -4 -10 109.513 122.687   1
   3  -4  -9 102.818 112.754   1
   3  -4  -8 760.865 277.136   1
   3  -4  -7 239.760 153.458   1
   3  -4  -6 35.3544 59.9890   1
   3  -4  -5 94.7526 81.9563   1
   3  -4  -4 47.6533 53.5265   1
  -3   4   3 13.0610 7.97284   2
   3  -4  -3 54.5787 57.6063   1
   3  -4  -2 190.497 88.6982   1
  -3   4   2 224.136 46.0337   2
  -3   4   1 125.075 40.2463   2
   3  -4  -1 113.802 68.7035   1
  -3   4   0 19530.6 574.097   2
   3  -4   0 18143.5 791.230   1
   3  -4   1 7344.98 472.829   1
  -3   4  -1 7241.16 377.552   2
   3  -4   2 7963.20 479.648   1
  -3   4  -2 7753.46 413.582   2
  -3   4  -3 1475.60 195.045   2
   3  -4   3 1621.33 195.860   3
   3  -4   4 321.489 84.5202   3
  -3   4  -4 414.632 109.776   2
   3  -4   5 126.577 49.6758   3
  -3   4  -5 210.224 93.3581   2
   3  -4   6 239.129 66.5748   3
  -3   4  -6 123.163 73.7173   2
  -3   4  -7 6858.80 531.091   2
   3  -4   7 6978.49 350.638   3
  -3   4  -8 52.4447 85.5926   2
  -3   4  -9 2051.04 316.521   2
  -3   4 -10-25.0353 60.5845   2
  -3   4 -11 326.802 133.521   2
  -3   4 -12 180.623 105.092   2
   3  -3 -13 1463.66 491.456   1
   3  -3 -12 6160.79 991.800   1
   3  -3 -11 457.750 260.975   1
   3  -3 -10 143.350 172.554   1
   3  -3  -9 69.6381 99.6538   1
   3  -3  -8 360.042 195.927   1
   3  -3  -7 839.726 278.608   1
   3  -3  -6 3681.48 539.108   1
   3  -3  -5 1176.69 281.178   1
   3  -3  -4 982.285 227.694   1
   3  -3  -3 264.064 107.383   1
  -3   3   3 515.568 66.9967   2
   3  -3  -2 157.979 76.2248   1
   3  -3  -2 225.380 60.3175   3
  -3   3   2 193.475 48.4200   2
  -3   3   1 7887.40 331.457   2
   3  -3  -1 7256.86 338.145   3
   3  -3  -1 7331.80 467.363   1
   3  -3   0 872.194 153.580   1
  -3   3   0 982.519 139.444   2
   3  -3   0 850.954 109.786   3
   3  -3   1 33731.4 866.332   1
  -3   3  -1 34951.0 822.182   2
   3  -3   2 344.864 88.4532   1
  -3   3  -2 413.238 102.350   2
  -3   3  -2 292.886 123.874   1
   3  -3   2 362.119 83.0084   3
  -3   3  -3-14.2102 28.0799   2
   3  -3   3-17.3315 28.6161   3
  -3   3  -3-37.2019 46.0369   1
   3  -3   4 163.555 42.5190   3
  -3   3  -4 210.721 74.9251   2
  -3   3  -4 93.5224 59.7270   1
   3  -3   5 423.269 66.4105   3
  -3   3  -5 338.806 107.648   2
   3  -3   6 316.733 60.8599   3
  -3   3  -6 235.602 95.8531   2
   3  -3   7 71.8734 27.2082   3
  -3   3  -7 91.6971 58.4466   2
  -3   3  -8 545.250 155.257   2
   3  -3   8 651.698 87.7099   3
  -3   3  -9 129.439 78.5743   2
  -3   3 -10 599.953 172.584   2
  -3   3 -11-5.35225 44.1712   2
  -3   3 -12-5.33148 58.0259   2
   3  -2 -14-123.063 180.576   1
   3  -2 -13-87.3117 162.146   1
   3  -2 -12 280.661 241.763   1
   3  -2 -11 579.376 321.919   1
   3  -2 -10 371.891 248.923   1
   3  -2  -9 1082.07 394.653   1
   3  -2  -8 203.752 148.665   1
   3  -2  -7 5244.87 758.092   1
   3  -2  -7 5828.10 259.595   2
   3  -2  -6-0.74040 41.4934   1
   3  -2  -6 59.2249 31.2752   2
   3  -2  -5 892.640 98.7005   2
   3  -2  -5 792.373 244.978   1
   3  -2  -4 89.2916 36.9533   3
   3  -2  -4 41.4856 77.8791   1
   3  -2  -4 78.3675 31.2776   2
  -3   2   4 114.189 35.0539   2
  -3   2   3 818.889 98.0991   2
   3  -2  -3 821.576 106.232   2
   3  -2  -3 747.351 100.628   3
   3  -2  -3 808.587 190.723   1
   3  -2  -2 52.3758 27.6247   3
   3  -2  -2 42.8960 29.8965   1
   3  -2  -2 48.0442 32.7049   2
  -3   2   2 56.5589 31.3068   2
   3  -2  -1 40.9300 21.1683   3
   3  -2  -1 12.0614 17.9494   1
  -3   2   1 24.4227 19.0108   2
   3  -2  -1 47.3933 44.8844   2
  -3   2   0 110.940 44.3579   2
   3  -2   0 72.9296 35.3581   1
   3  -2   0 89.4603 26.8426   3
  -3   2  -1 154.627 60.9853   2
   3  -2   1 151.521 44.8174   1
   3  -2   1 116.284 29.3868   3
  -3   2  -2 381.109 97.0477   2
   3  -2   2 240.028 42.8211   3
  -3   2  -2 290.731 105.711   1
   3  -2   2 250.992 36.6760   3
  -3   2  -3 159.661 70.0457   1
  -3   2  -3 191.734 70.6676   2
   3  -2   3 165.645 28.4216   3
  -3   2  -4 3799.76 313.944   2
   3  -2   4 3622.55 114.834   3
  -3   2  -4 3444.46 266.344   1
  -3   2  -5 81.1705 41.0572   1
   3  -2   5 22.5161 10.8037   3
  -3   2  -5 43.7046 42.5559   2
   3  -2   6 96.9874 23.1588   3
  -3   2  -6 108.540 73.2914   2
  -3   2  -6 58.8343 42.2317   1
  -3   2  -7 23.6528 40.6251   2
  -3   2  -7-6.81385 23.4409   1
   3  -2   7 14.5105 12.5554   3
  -3   2  -8 132.582 78.6488   2
   3  -2   8 184.596 40.7506   3
  -3   2  -9 220.318 97.7849   2
  -3   2 -10 13.7352 48.3796   2
  -3   2 -11 2365.86 335.375   2
  -3   2 -12 944.692 225.238   2
  -3   2 -13 2744.47 384.479   2
  -3   1  15 1.18819 23.0338   3
  -3   1  14 58.7581 66.6659   3
  -3   1  13 365.876 132.053   3
  -3   1  12 61.4629 48.9474   3
  -3   1  11 583.432 137.496   3
  -3   1  10 76.9279 59.4899   3
   3  -1  -9 5874.98 311.798   2
  -3   1   9 6002.95 406.363   3
   3  -1  -8 8135.17 364.608   2
  -3   1   8 7792.62 441.467   3
   3  -1  -7 2966.01 211.621   2
  -3   1   7 3139.97 261.996   3
   3  -1  -6 1607.44 154.561   2
  -3   1   6 1657.88 178.227   3
   3  -1  -5 403.732 76.3866   2
   3  -1  -5 448.453 83.7379   3
  -3   1   5 583.807 97.8494   3
  -3   1   4 892.042 107.680   2
   3  -1  -4 1016.42 124.201   2
  -3   1   4 892.192 113.318   3
   3  -1  -4 963.979 112.842   3
   3  -1  -3 108.470 34.9763   3
   3  -1  -3 116.541 44.0662   2
   3  -1  -3 102.816 87.5877   1
  -3   1   3 54.7691 28.9137   2
  -3   1   2 19234.9 540.992   2
   3  -1  -2 19207.8 560.741   2
   3  -1  -2 18841.8 408.535   3
   3  -1  -2 18671.4 836.793   1
  -3   1   1 1553.84 164.049   2
   3  -1  -1 1288.28 150.696   2
   3  -1  -1 1306.93 94.8623   3
   3  -1  -1 1395.13 176.642   1
  -3   1   0 15961.4 530.944   2
   3  -1   0 15568.2 550.525   2
   3  -1   0 15748.3 404.810   1
   3  -1   0 15215.5 263.238   3
  -3   1  -1 152.135 54.3443   2
   3  -1   1 87.0964 23.4005   1
  -3   1  -2 353.175 95.2796   2
  -3   1  -3 95.4808 52.9916   2
  -3   1  -4 1705.48 211.415   2
  -3   1  -5 5324.50 383.766   2
  -3   1  -6 408.983 111.605   2
  -3   1  -6 393.430 61.7012   1
  -3   1  -7 1843.67 145.980   1
  -3   1  -7 1734.97 241.437   2
  -3   1  -8 109.747 70.4765   2
  -3   1  -9 1201.45 212.259   2
  -3   1 -10 4.56328 29.3940   2
  -3   1 -11 7628.11 585.765   2
  -3   1 -12 4395.97 459.382   2
  -3   1 -13 8835.26 681.780   2
  -3   0  15 2258.91 323.263   3
  -3   0  14 1765.20 269.881   3
  -3   0  13 271.733 100.452   3
  -3   0  12 381.342 124.094   3
  -3   0  11-4.97728 44.3527   3
  -3   0  10 3948.44 336.259   3
  -3   0   9 13.0846 22.6974   3
  -3   0   8 43245.8 982.251   3
  -3   0   7 3457.17 264.620   3
   3   0  -6 4369.24 288.884   2
  -3   0   6 4096.45 268.662   3
  -3   0   5 395.473 77.8078   3
   3   0  -5 438.313 84.7573   3
   3   0  -5 455.990 90.6051   2
  -3   0   4 1720.85 159.009   2
   3   0  -4 2069.57 191.076   2
  -3   0   4 2012.80 160.833   3
   3   0  -4 1853.49 160.827   3
  -3   0   3 1349.90 151.056   2
   3   0  -3 1181.17 144.718   2
  -3   0   3 1280.52 117.236   3
   3   0  -3 1344.74 125.841   3
  -3   0   2 1304.11 150.522   2
   3   0  -2 1509.88 172.312   2
  -3   0   2 1233.68 102.573   3
   3   0  -2 1289.83 113.096   3
  -3   0   1 9213.14 417.401   2
  -3   0   1 9349.81 241.057   3
   3   0  -1 9467.88 279.783   3
   3   0   0 475.309 46.4326   1
  -3   0   0 1010.45 147.362   2
  -3   0   0 585.045 49.8477   3
   3   0   0 697.569 83.2949   1
  -3   0  -1-2.25945 19.7659   2
  -3   0  -2 26.7265 24.5782   2
  -3   0  -3 851.798 148.530   2
  -3   0  -4 639.177 132.042   2
  -3   0  -5 12995.1 644.341   2
  -3   0  -6 3076.42 161.151   1
  -3   0  -6 3719.24 134.732   3
  -3   0  -7 871.385 171.922   2
  -3   0  -7 796.641 77.1180   3
  -3   0  -7 711.190 119.656   1
  -3   0  -8 77.3983 52.4542   1
  -3   0  -8-1.74771 29.3861   2
  -3   0  -9 229.278 110.879   2
  -3   0  -9 107.278 69.2784   1
  -3   0 -10 171.560 77.4473   2
  -3   0 -11 211.996 109.242   2
  -3   0 -12 5090.13 493.377   2
  -3   0 -13 276.241 119.121   2
  -3  -1  15 395.474 143.028   3
  -3  -1  14 3117.59 358.184   3
  -3  -1  13 23.4275 33.0534   3
  -3  -1  12 410.476 119.191   3
  -3  -1  11 270.580 90.6261   3
  -3  -1  10 192.258 71.2413   3
  -3  -1   9 933.345 153.451   3
  -3  -1   8 587.799 113.849   3
  -3  -1   7 5009.43 310.660   3
  -3  -1   6-2.22671 10.8198   3
  -3  -1   5 2992.01 218.146   3
   3   1  -5 3115.92 244.290   3
  -3  -1   4 39.2104 25.2078   3
   3   1  -4 36.6397 28.9794   3
  -3  -1   4 38.1954 27.3668   2
  -3  -1   3 1213.77 152.452   2
  -3  -1   3 1200.63 121.522   3
   3   1  -3 1104.86 137.232   3
  -3  -1   2 680.766 118.021   2
  -3  -1   2 677.741 85.6734   3
   3   1  -2 661.903 107.966   3
  -3  -1   1 8.05078 14.2625   3
   3   1  -1 18.5517 25.1953   1
  -3  -1   1-18.7711 23.5273   2
  -3  -1   0 1500.33 180.073   2
   3   1   0 1580.60 127.385   1
  -3  -1   0 1630.18 114.155   3
  -3  -1  -1 460.432 56.3120   3
   3   1   1 389.698 67.1023   1
  -3  -1  -1 505.921 107.462   2
  -3  -1  -2 1231.76 175.346   2
  -3  -1  -2 1084.36 84.3018   3
  -3  -1  -3 343.043 95.6803   2
  -3  -1  -3 299.075 48.8240   3
  -3  -1  -3 306.866 41.9995   3
  -3  -1  -4 2402.07 251.881   2
  -3  -1  -4 2327.40 118.077   3
  -3  -1  -5 29.5858 15.3895   3
  -3  -1  -5-4.02816 20.2285   2
  -3  -1  -5-1.49107 9.62789   1
  -3  -1  -6 1.21163 7.19059   3
  -3  -1  -6-13.6136 36.2643   2
  -3  -1  -7 4.54482 10.2269   3
  -3  -1  -7 8.00952 29.7441   2
  -3  -1  -7-18.7686 28.0951   1
  -3  -1  -8 1095.27 200.178   2
  -3  -1  -8 987.716 159.939   1
  -3  -1  -9 59.2425 54.1296   2
  -3  -1  -9 16.8849 29.3616   1
  -3  -1 -10 2429.77 340.942   2
  -3  -1 -11 3119.05 397.743   2
  -3  -1 -12 2778.68 429.759   2
  -3  -1 -13 123.833 89.3123   2
  -3  -2  15 80.0272 61.5449   3
  -3  -2  14-62.4011 53.1037   3
  -3  -2  13 30.7083 20.4463   3
  -3  -2  12 58.5168 46.0762   3
  -3  -2  11 506.972 124.485   3
  -3  -2  10 1204.73 186.329   3
  -3  -2   9 5511.13 384.154   3
  -3  -2   8 446.377 106.781   3
  -3  -2   7 31.0257 31.7137   3
  -3  -2   6 398.997 91.8339   3
  -3  -2   5 103.423 46.0197   3
  -3  -2   4 5152.14 307.424   3
   3   2  -3 128.541 62.0108   1
  -3  -2   3 119.624 41.8546   3
  -3  -2   3 74.9366 34.7593   2
  -3  -2   2 1769.16 200.286   2
   3   2  -2 1796.60 190.992   1
  -3  -2   2 1639.15 161.197   3
  -3  -2   1 18.1790 24.5082   3
   3   2  -1-19.9988 33.4842   1
  -3  -2   1 16.5015 24.0427   2
  -3  -2   0 2040.59 219.543   2
   3   2   0 2282.89 212.619   1
  -3  -2   0 2459.87 195.842   3
  -3  -2  -1 29.8839 23.9663   3
   3   2   1-18.9033 25.3661   1
  -3  -2  -1-22.1041 26.7212   2
  -3  -2  -2 8728.83 478.149   2
  -3  -2  -2 8709.61 380.052   3
   3   2   2 8724.90 535.859   1
  -3  -2  -3 16973.9 674.278   2
  -3  -2  -3 15741.7 532.584   3
  -3  -2  -4 18689.1 729.285   2
  -3  -2  -4 18771.5 521.112   1
  -3  -2  -5 13082.7 629.903   2
  -3  -2  -5 13046.2 469.562   1
  -3  -2  -5 12323.9 402.568   3
  -3  -2  -6 732.558 152.023   2
  -3  -2  -6 1304.46 167.993   1
  -3  -2  -7 24.8901 40.6094   2
  -3  -2  -7 74.5298 44.3766   1
  -3  -2  -8 56.1480 45.9054   2
  -3  -2  -8 19.7240 26.6517   1
  -3  -2  -9 1665.76 251.555   2
  -3  -2  -9 1698.91 242.457   1
  -3  -2 -10 115.020 67.9165   2
  -3  -2 -11 5415.56 484.474   2
  -3  -2 -12 363.380 130.654   2
  -3  -2 -13-17.8661 41.9169   2
  -3  -3  14 0.84486 18.4075   3
  -3  -3  13 264.648 104.052   3
  -3  -3  12 944.657 186.699   3
  -3  -3  11 307.632 102.810   3
  -3  -3  10 3915.00 361.448   3
  -3  -3   9 70.2227 41.1760   3
  -3  -3   8 1180.35 185.899   3
  -3  -3   7 39.4973 37.0413   3
  -3  -3   6 424.289 106.857   3
  -3  -3   5 408.593 102.684   3
  -3  -3   4 8990.76 458.766   3
  -3  -3   3 11509.3 513.112   3
  -3  -3   2 1697.43 197.555   2
  -3  -3   2 2110.89 219.089   3
  -3  -3   1 111.621 44.6941   3
   3   3  -1 130.986 64.7232   1
  -3  -3   1 134.484 55.5380   2
  -3  -3   0 50.8005 36.7977   3
  -3  -3   0 71.4560 52.9727   2
   3   3   0-100.681 59.3981   1
   3   3   1 958.411 187.542   1
  -3  -3  -1 1086.34 171.316   2
  -3  -3  -1 1105.69 166.058   3
  -3  -3  -2 130.114 66.3472   3
  -3  -3  -2 70.0229 36.1022   2
   3   3   2 121.911 82.3175   1
   3   3   3 20893.3 1146.44   1
  -3  -3  -3 21213.0 785.805   2
  -3  -3  -3 20399.3 683.198   1
  -3  -3  -4 2654.09 284.294   2
  -3  -3  -4 2535.94 243.960   1
  -3  -3  -5 5442.32 424.754   2
  -3  -3  -5 5479.39 374.203   1
  -3  -3  -6 67.8857 47.6851   1
  -3  -3  -6 127.153 66.3001   2
  -3  -3  -7 896.897 176.309   1
  -3  -3  -7 744.678 162.869   2
  -3  -3  -8 198.117 81.8887   2
  -3  -3  -8 276.587 100.064   1
  -3  -3  -9 224.700 92.5163   2
  -3  -3 -10 57.3833 52.7615   2
  -3  -3 -11 32.2631 42.6442   2
  -3  -3 -12 450.413 144.535   2
  -3  -4  13 390.091 133.614   3
  -3  -4  12 305.404 105.958   3
  -3  -4  11 107.141 64.9782   3
  -3  -4  10 22.9327 18.9347   3
  -3  -4   9 403.542 122.228   3
  -3  -4   8 81.5994 61.4683   3
  -3  -4   7 5.25294 19.5473   3
  -3  -4   6-45.9734 41.0585   3
  -3  -4   5 31.9516 44.0690   3
  -3  -4   4 58.0386 44.0518   3
  -3  -4   3 1537.02 215.810   3
  -3  -4   2 186.724 85.1280   3
  -3  -4   1 561.338 135.017   3
  -3  -4   1 433.154 107.796   2
  -3  -4   0 276.074 93.5345   3
  -3  -4   0 264.045 87.6848   2
  -3  -4  -1 240.134 93.1206   3
  -3  -4  -1 157.347 68.3220   2
  -3  -4  -2 2138.88 257.876   2
  -3  -4  -2 1926.57 260.381   3
  -3  -4  -3 184.327 85.2031   1
  -3  -4  -3 112.167 62.7933   2
  -3  -4  -4 186.885 75.4797   1
  -3  -4  -4 179.829 73.6958   2
  -3  -4  -5 149.357 71.6860   1
  -3  -4  -5 40.3761 42.3183   2
  -3  -4  -6 27.4764 35.9782   1
  -3  -4  -6 11.8324 25.4760   2
  -3  -4  -7 147.158 81.5662   1
  -3  -4  -7-25.4594 36.0444   2
  -3  -4  -8 137.741 65.7180   2
  -3  -4  -9 54.0844 50.7869   2
  -3  -4 -10 49.7465 51.1524   2
  -3  -4 -11 72.6752 61.7555   2
  -3  -5  12-13.1584 28.0835   3
  -3  -5  11 7.45873 25.5786   3
  -3  -5  10 42.8763 61.6480   3
  -3  -5   9 326.300 116.961   3
  -3  -5   8 323.984 118.272   3
  -3  -5   7 140.544 78.9562   3
  -3  -5   6 4444.96 411.595   3
  -3  -5   5 3496.74 365.206   3
  -3  -5   4 9410.91 592.968   3
  -3  -5   3 217.846 94.7656   3
  -3  -5   2-84.6911 60.5894   3
  -3  -5   1 85.6184 78.5739   3
  -3  -5   0 760.251 181.624   3
  -3  -5  -1 240.472 106.219   3
  -3  -5  -1 169.024 70.8919   2
  -3  -5  -2 5771.50 416.905   2
  -3  -5  -2 5762.38 504.312   3
  -3  -5  -3 2196.55 267.240   2
  -3  -5  -3 2536.40 321.156   1
  -3  -5  -4 142.559 76.7593   1
  -3  -5  -4 107.170 63.4418   2
  -3  -5  -5 439.843 136.159   1
  -3  -5  -5 361.031 114.553   2
  -3  -5  -6-44.7707 48.1957   1
  -3  -5  -6 25.9500 37.3061   2
  -3  -5  -7 1064.55 206.942   2
  -3  -5  -8 13.4804 30.6072   2
  -3  -5  -9 2697.92 340.317   2
  -3  -6   9 22.8057 38.4907   3
  -3  -6   8 454.588 144.975   3
  -3  -6   7-26.0756 40.9152   3
  -3  -6   6 8462.61 622.811   3
  -3  -6   5 4982.78 475.452   3
  -3  -6   4 6511.91 545.975   3
  -3  -6   3 971.019 210.989   3
  -3  -6   2 233.027 124.213   3
  -3  -6   1 1086.86 231.718   3
  -3  -6   0 31.6101 46.0709   3
  -3  -6  -1 46.7670 40.5589   3
  -3  -6  -2 147.690 93.9405   3
  -3  -6  -3 794.699 208.229   3
  -3  -6  -4 144.188 87.9075   1
  -3  -6  -4 54.3825 45.1588   2
  -3  -6  -5 19.9260 39.3251   1
  -3  -6  -5 46.1082 41.3979   2
  -3  -6  -6 115.008 66.5573   2
  -3  -7   4 152.941 93.2802   3
  -3  -7   3 269.177 122.928   3
  -3  -7   2 56.7717 64.6173   3
  -3  -7   1 73.6456 74.0140   3
  -3  -7   0-0.24761 79.8496   3
  -3  -7  -1 99.0594 82.7857   3
  -3  -7  -2 30.5511 56.9413   3
   4  -6  -6 327.694 180.272   1
   4  -6  -5-89.0463 89.4406   1
   4  -6  -4-0.30062 40.2652   1
   4  -6  -3 6884.54 667.924   1
   4  -6  -2 156.459 101.262   1
   4  -6  -1 911.000 225.126   1
   4  -6   0 116.157 81.5432   1
   4  -5  -9 10682.6 1038.42   1
   4  -5  -8 265.780 158.385   1
   4  -5  -7 105.618 111.224   1
   4  -5  -6 195.264 122.132   1
   4  -5  -5 591.486 194.601   1
   4  -5  -4 464.695 171.841   1
   4  -5  -3 971.089 234.712   1
   4  -5  -2 1171.06 245.363   1
   4  -5  -1 34.8238 68.6211   1
   4  -5   0 1638.97 256.951   1
   4  -5   1 104.049 72.3318   1
  -4   5  -3 289.064 99.6759   2
  -4   5  -4 4354.45 391.369   2
  -4   5  -5 554.404 144.692   2
  -4   5  -6 101.298 67.6171   2
  -4   5  -7 170.573 90.0144   2
  -4   5  -8-16.4760 36.4414   2
  -4   5  -9 394.039 144.507   2
   4  -4 -11 548.447 271.103   1
   4  -4 -10 1402.59 398.476   1
   4  -4  -9 78.7479 108.863   1
   4  -4  -8 45.8321 76.0265   1
   4  -4  -7-12.7355 52.3975   1
   4  -4  -6 1949.41 376.851   1
   4  -4  -5 11.9414 39.6487   1
   4  -4  -4 530.427 165.699   1
   4  -4  -3 268.576 113.364   1
   4  -4  -2-45.1118 50.7105   1
  -4   4   1 43.4312 30.6186   2
   4  -4  -1-51.6343 51.1101   1
  -4   4   0 572.584 111.350   2
   4  -4   0 570.739 142.600   1
   4  -4   1 2871.06 285.889   1
  -4   4  -1 3084.73 276.350   2
  -4   4  -2 192.888 82.2460   2
  -4   4  -3 97.7280 52.4045   2
  -4   4  -4 167.772 76.7574   2
  -4   4  -5 783.661 173.101   2
  -4   4  -6 136.097 75.4113   2
  -4   4  -7 6.25187 28.8699   2
  -4   4  -8 419.790 139.670   2
  -4   4  -9 2670.85 369.154   2
  -4   4 -10 503.741 164.205   2
   4  -3 -12 3661.43 780.296   1
   4  -3 -11 615.255 314.451   1
   4  -3 -10 1900.33 499.300   1
   4  -3  -9-60.1840 99.1793   1
   4  -3  -8 91.6871 109.738   1
   4  -3  -7 254.273 153.823   1
   4  -3  -6 263.317 151.663   1
   4  -3  -5 560.348 182.180   1
   4  -3  -4-50.9244 58.9584   1
  -4   3   4 16.8093 15.8394   2
   4  -3  -3 240.322 103.862   1
  -4   3   3 231.410 60.4816   2
   4  -3  -2-1.11391 35.3069   1
  -4   3   2 7.79531 16.2215   2
   4  -3  -1 384.434 107.182   1
  -4   3   1 489.879 103.492   2
  -4   3   0 102.354 55.8695   2
   4  -3   0 105.265 55.4407   1
   4  -3   1 15930.3 556.925   1
  -4   3  -1 16725.8 649.145   2
  -4   3  -2 9467.41 522.751   2
  -4   3  -3 9659.91 569.625   2
  -4   3  -4 2038.40 264.732   2
  -4   3  -5 203.217 92.0258   2
  -4   3  -6 79.6840 58.1381   2
  -4   3  -7 48.9031 49.2597   2
  -4   3  -8 3248.89 388.075   2
  -4   3  -9 27.9860 42.6667   2
  -4   3 -10 1920.88 320.107   2
   4  -2 -13 612.610 417.203   1
   4  -2 -12 577.785 337.543   1
   4  -2 -11 5048.03 941.801   1
   4  -2 -10-44.9027 101.933   1
   4  -2  -9 130.099 127.129   1
   4  -2  -8 49.7628 94.1192   1
   4  -2  -7 209.446 148.139   1
   4  -2  -6 895.138 269.084   1
   4  -2  -5 5754.67 642.276   1
  -4   2   4 2312.28 199.572   2
   4  -2  -4 2240.00 350.299   1
   4  -2  -3 297.026 107.411   1
  -4   2   3 494.844 95.3614   2
   4  -2  -2 58.7532 67.0557   1
   4  -2  -2 33.0074 20.9740   3
  -4   2   2 62.9703 37.0828   2
   4  -2  -1 216.810 67.7514   1
  -4   2   1 189.490 68.5402   2
  -4   2   0 2886.37 263.789   2
   4  -2   0 2861.09 205.148   1
  -4   2  -1 296.388 89.5226   2
  -4   2  -2 18671.0 721.811   2
  -4   2  -3 677.692 144.168   2
  -4   2  -4 55.0141 42.8092   2
  -4   2  -5 250.652 100.458   2
  -4   2  -6 514.632 141.549   2
  -4   2  -7 57.2957 52.6694   2
  -4   2  -8 58.9988 52.8568   2
  -4   2  -9 292.384 124.128   2
  -4   2 -10 69.2991 63.4579   2
  -4   2 -11 83.7484 73.2477   2
  -4   1  14 57.2055 56.2469   3
  -4   1  13 11.1498 29.9624   3
  -4   1  12 229.834 95.5345   3
  -4   1  11 63.8784 43.9744   3
  -4   1  10 194.591 84.1911   3
  -4   1   9 63.1397 45.3557   3
  -4   1   8 1166.49 178.546   3
  -4   1   7-24.6149 29.6867   3
  -4   1   6 977.664 145.379   3
   4  -1  -5-149.656 122.737   1
  -4   1   5 48.8897 30.0914   2
   4  -1  -4 72.8087 34.7006   3
   4  -1  -4 130.811 85.9801   1
  -4   1   4 122.048 50.5021   2
   4  -1  -3 114.755 38.8222   3
   4  -1  -3 142.131 77.1855   1
  -4   1   3 112.806 54.6628   2
  -4   1   2 851.305 138.214   2
   4  -1  -2 768.868 149.413   1
   4  -1  -2 821.069 91.4865   3
   4  -1  -1 242.628 42.9248   3
  -4   1   1 206.743 71.6945   2
   4  -1  -1 228.639 58.7943   1
  -4   1   0 1473.22 195.957   2
   4  -1   0 1233.28 72.3057   1
  -4   1  -1 965.014 163.775   2
  -4   1  -2 65.2351 45.4974   2
  -4   1  -3 154.918 73.3976   2
  -4   1  -4 40.9353 35.7686   2
  -4   1  -5 2364.33 294.499   2
  -4   1  -6 57.7543 47.5901   2
  -4   1  -7-230.913 102.455   2
  -4   1  -8-40.4118 49.1645   2
  -4   1  -9 177.667 95.1078   2
  -4   1 -10 314.823 136.010   2
  -4   1 -11 135.111 89.4427   2
  -4   0  14 438.008 134.947   3
  -4   0  13-67.4954 56.1488   3
  -4   0  12 144.811 73.7572   3
  -4   0  11 82.8347 55.1400   3
  -4   0  10 710.811 148.791   3
  -4   0   9 179.793 71.2804   3
  -4   0   8 5175.55 361.201   3
  -4   0   7 12210.2 523.145   3
  -4   0   6 6035.14 344.130   3
  -4   0   5 3569.01 271.821   2
  -4   0   5 3877.73 257.683   3
   4   0  -4 325.789 75.6918   3
  -4   0   4 325.291 85.8426   2
  -4   0   4 316.576 70.6592   3
   4   0  -3 47.3065 24.9776   3
  -4   0   3 57.5648 41.7273   2
  -4   0   3 79.3292 35.8633   3
   4   0  -2 38.0517 23.1069   3
  -4   0   2 10.4201 32.3348   2
  -4   0   2 41.9075 24.0299   3
  -4   0   1 9114.75 482.777   2
   4   0  -1 7285.26 354.120   1
  -4   0   0 1973.15 240.543   2
  -4   0  -1 10517.2 548.473   2
  -4   0  -2 364.672 105.718   2
  -4   0  -3 286.881 89.9385   2
  -4   0  -4 553.925 143.633   2
  -4   0  -5 348.456 113.768   2
  -4   0  -6 4950.59 430.280   2
  -4   0  -7 448.962 135.592   2
  -4   0  -8 2386.83 322.989   2
  -4   0  -9 108.880 75.6497   2
  -4   0 -10 669.251 188.018   2
  -4   0 -11 25.1550 50.8068   2
  -4  -1  14 2613.95 345.711   3
  -4  -1  13 3211.81 363.327   3
  -4  -1  12 306.182 106.940   3
  -4  -1  11-10.8104 46.7276   3
  -4  -1  10 9.31484 21.9500   3
  -4  -1   9 1415.90 200.565   3
  -4  -1   8 63.1108 41.9111   3
  -4  -1   7 28609.1 801.756   3
  -4  -1   6 3948.46 280.216   3
  -4  -1   5 2531.60 210.576   3
  -4  -1   4 407.475 79.0119   3
   4   1  -4 383.737 97.6671   3
  -4  -1   4 355.864 91.6606   2
  -4  -1   3 1056.45 169.784   2
  -4  -1   3 1058.93 117.405   3
   4   1  -3 1167.53 160.909   3
  -4  -1   2 262.495 53.9968   3
   4   1  -2 232.931 64.4784   1
  -4  -1   2 242.243 86.4503   2
  -4  -1   1 95.1715 29.6691   3
   4   1  -1 86.7863 32.0554   1
  -4  -1   1 82.3427 44.8890   2
  -4  -1   0 1350.68 201.025   2
  -4  -1   0 1251.18 90.5500   3
  -4  -1  -1 2.66362 4.72064   3
  -4  -1  -1-13.3978 30.7068   2
  -4  -1  -2 111.840 53.3655   2
  -4  -1  -3 54.8988 44.8901   2
  -4  -1  -4 170.013 76.2677   2
  -4  -1  -5 82.5630 54.9557   2
  -4  -1  -6 4882.56 432.288   2
  -4  -1  -7 2329.51 312.471   2
  -4  -1  -8 392.007 134.986   2
  -4  -1  -9 97.8151 65.8734   2
  -4  -1 -10 73.6301 84.7882   2
  -4  -1 -11-102.109 80.7114   2
  -4  -2  14 314.058 117.228   3
  -4  -2  13 2469.08 320.561   3
  -4  -2  12 50.9501 46.9526   3
  -4  -2  11 465.252 126.043   3
  -4  -2  10 225.829 84.1513   3
  -4  -2   9 42.0833 23.4785   3
  -4  -2   8 33.1938 31.5553   3
  -4  -2   7 105.126 51.6150   3
  -4  -2   6 1889.84 207.272   3
  -4  -2   5 37.6453 31.4400   3
  -4  -2   4 946.116 159.718   2
  -4  -2   4 1042.47 141.878   3
  -4  -2   3 296.065 73.2554   3
  -4  -2   3 245.415 81.9486   2
  -4  -2   2 95.7454 42.0621   3
  -4  -2   2 86.0977 51.6642   2
  -4  -2   1 430.475 80.5853   3
  -4  -2   1 399.103 111.801   2
  -4  -2   0 10.3688 14.4736   3
  -4  -2   0 30.3792 35.0458   2
  -4  -2  -1 686.497 90.3700   3
  -4  -2  -1 526.747 136.888   2
  -4  -2  -2 154.634 43.6023   3
  -4  -2  -2 222.875 94.1127   2
  -4  -2  -3 262.936 56.8273   3
  -4  -2  -3 359.994 112.198   2
  -4  -2  -4 37.4262 52.2639   2
  -4  -2  -5 5171.64 450.239   2
  -4  -2  -6 114.432 69.5494   2
  -4  -2  -7 550.463 151.762   2
  -4  -2  -8 149.882 83.9294   2
  -4  -2  -9 299.486 119.577   2
  -4  -2 -10 159.682 90.1136   2
  -4  -3  13 154.401 81.4302   3
  -4  -3  12 22.4026 33.9159   3
  -4  -3  11 21.0745 32.5867   3
  -4  -3  10 486.058 125.648   3
  -4  -3   9 1070.68 188.290   3
  -4  -3   8 5265.27 404.120   3
  -4  -3   7 1344.88 197.646   3
  -4  -3   6 45.4387 37.1550   3
  -4  -3   5 647.026 129.765   3
  -4  -3   4-1.01554 30.7025   3
  -4  -3   3 2815.10 286.750   2
  -4  -3   3 3345.79 280.646   3
  -4  -3   2-28.3361 26.7000   3
  -4  -3   2 49.1335 42.0345   2
  -4  -3   1 1890.03 247.869   2
  -4  -3   1 2145.82 214.624   3
  -4  -3   0 28.6529 26.9494   3
  -4  -3   0 54.7809 44.9933   2
  -4  -3  -1 787.044 163.524   2
  -4  -3  -1 819.326 130.641   3
  -4  -3  -2 90.9756 47.8847   3
  -4  -3  -2 85.8322 58.0943   2
  -4  -3  -3 2240.46 290.395   2
  -4  -3  -3 2322.86 226.398   3
  -4  -3  -4 7643.98 546.184   2
  -4  -3  -5 8811.13 599.741   2
  -4  -3  -6 9829.61 654.109   2
  -4  -3  -7 646.167 172.725   2
  -4  -3  -8 18.8811 36.9116   2
  -4  -3  -9-33.4259 45.7317   2
  -4  -4  12 189.551 92.0179   3
  -4  -4  11 935.771 198.752   3
  -4  -4  10 206.986 90.8729   3
  -4  -4   9 1436.36 233.558   3
  -4  -4   8 48.1029 44.0176   3
  -4  -4   7 1185.00 206.161   3
  -4  -4   6 553.693 187.224   3
  -4  -4   5 189.403 82.4095   3
  -4  -4   4 77.5886 47.4594   3
  -4  -4   3 2891.27 293.215   3
  -4  -4   2 5992.46 444.212   2
  -4  -4   2 6828.09 444.846   3
  -4  -4   1 900.392 168.940   2
  -4  -4   1 1060.29 177.268   3
  -4  -4   0 39.4545 38.5153   3
  -4  -4   0 115.759 64.3416   2
  -4  -4  -1-16.7444 52.7163   3
  -4  -4  -1 32.5884 44.2604   2
  -4  -4  -2 413.013 120.879   3
  -4  -4  -2 338.079 114.757   2
  -4  -4  -3-78.0883 50.2715   3
  -4  -4  -3 48.2222 48.0587   2
  -4  -4  -4 5493.63 485.736   2
  -4  -4  -5 1536.39 259.241   2
  -4  -4  -6 1761.17 279.892   2
  -4  -4  -7-54.1482 54.5521   2
  -4  -4  -8 317.069 124.486   2
  -4  -5  10 54.2115 50.9306   3
  -4  -5   9-25.3360 37.0818   3
  -4  -5   8 59.0072 53.4282   3
  -4  -5   7-43.0684 45.1662   3
  -4  -5   6 155.894 79.6213   3
  -4  -5   5-4.27488 24.4553   3
  -4  -5   4 682.752 157.614   3
  -4  -5   3 112.791 66.5133   3
  -4  -5   2 101.960 63.0364   3
  -4  -5   1 243.869 95.4801   3
  -4  -5   0 144.695 82.7030   3
  -4  -5   0 204.638 87.3700   2
  -4  -5  -1 128.355 71.8707   3
  -4  -5  -1 93.3288 59.4779   2
  -4  -5  -2 77.2274 59.2210   3
  -4  -5  -2 145.782 92.0090   2
  -4  -5  -3 1926.76 280.500   2
  -4  -5  -4 195.610 93.4104   2
  -4  -5  -5 151.091 85.4477   2
  -4  -6   7 391.360 135.363   3
  -4  -6   6 115.745 75.6204   3
  -4  -6   5 2294.36 323.924   3
  -4  -6   4 1976.62 300.526   3
  -4  -6   3 7982.55 605.359   3
  -4  -6   2 345.364 125.649   3
  -4  -6   1-26.3044 43.4374   3
  -4  -6   0-21.1483 40.1399   3
  -4  -6  -1 507.260 157.263   3
   5  -4  -8 9904.05 936.483   1
  -5   4  -2 61.7400 49.4261   2
  -5   4  -3 192.159 86.6158   2
  -5   4  -4 188.023 89.1572   2
  -5   4  -5 2467.55 338.366   2
  -5   4  -6 335.577 138.861   2
  -5   4  -7-62.7471 66.2246   2
   5  -3 -11 395.660 242.644   1
   5  -3 -10-224.196 176.826   1
   5  -3  -9 334.200 193.999   1
   5  -3  -8 321.998 178.709   1
   5  -3  -7 28.3648 65.8201   1
   5  -3  -6-81.5720 82.7127   1
  -5   3   2 140.084 59.8909   2
  -5   3   1 73.5755 47.5768   2
  -5   3   0 136.556 61.7964   2
  -5   3  -1 201.423 82.4993   2
  -5   3  -2 3158.82 334.640   2
  -5   3  -3 261.644 95.1175   2
  -5   3  -4 1945.87 280.899   2
  -5   3  -5 76.6561 61.7137   2
  -5   3  -6 917.471 210.772   2
  -5   3  -7-81.8313 70.7693   2
   5  -2 -12 184.532 195.531   1
   5  -2 -11 3235.74 723.997   1
   5  -2 -10 638.173 306.557   1
   5  -2  -9 3314.20 647.325   1
   5  -2  -8 178.703 176.727   1
   5  -2  -7-29.0310 60.8524   1
   5  -2  -6-137.704 105.721   1
  -5   2   5 136.305 54.6023   2
  -5   2   4 1907.47 211.074   2
  -5   2   3-24.0764 29.7039   2
  -5   2   2 555.237 126.290   2
  -5   2   1 5.08658 35.3797   2
  -5   2   0 547.748 132.759   2
  -5   2  -1 95.3806 59.2817   2
  -5   2  -2 10405.5 616.950   2
  -5   2  -3 7810.60 548.108   2
  -5   2  -4 7533.85 554.692   2
  -5   2  -5 1941.65 292.296   2
  -5   2  -6 79.7318 63.6002   2
  -5   2  -7 93.9018 81.3280   2
  -5   2  -8 211.131 113.523   2
   5  -1 -12 577.558 357.739   1
   5  -1 -11 476.102 307.338   1
   5  -1 -10 2527.74 655.144   1
   5  -1  -9-303.183 221.693   1
   5  -1  -8 340.633 219.341   1
   5  -1  -7-21.9375 72.7643   1
   5  -1  -6-124.028 112.907   1
  -5   1   5 641.414 121.647   2
  -5   1   4 5542.98 387.570   2
  -5   1   3 2827.20 287.268   2
  -5   1   2 251.372 89.9881   2
  -5   1   1 11.9388 24.6190   2
  -5   1   0 88.4021 58.1598   2
  -5   1  -1 463.042 128.132   2
  -5   1  -2 172.449 80.3355   2
  -5   1  -3 8479.42 582.326   2
  -5   1  -4 639.312 168.314   2
  -5   1  -5 35.5998 63.2989   2
  -5   1  -6 256.553 110.939   2
  -5   1  -7 351.607 130.922   2
  -5   1  -8-124.067 82.9303   2
  -5   0  13 265.327 115.214   3
  -5   0  12 115.288 70.2613   3
  -5   0  11 267.977 104.253   3
  -5   0  10-23.8541 33.7111   3
  -5   0   9 295.794 99.7339   3
  -5   0   8-76.7363 48.4076   3
  -5   0   7 780.105 140.119   3
  -5   0   6-19.9758 25.0067   3
  -5   0   5 192.979 72.4613   2
  -5   0   5 173.515 55.6429   3
  -5   0   4 11.3306 23.2327   2
  -5   0   3-17.7292 28.4075   2
  -5   0   2 62.4238 48.6237   2
  -5   0   1 580.085 143.553   2
  -5   0   0 140.075 79.4936   2
  -5   0  -1 1570.85 243.006   2
  -5   0  -2 3040.06 351.797   2
  -5   0  -3 237.320 99.0594   2
  -5   0  -4-60.9938 54.7599   2
  -5   0  -5 119.843 88.5702   2
  -5   0  -6 714.074 176.077   2
  -5   0  -7 258.831 114.101   2
  -5  -1  13 1216.60 240.683   3
  -5  -1  12-19.1531 32.4780   3
  -5  -1  11 1.54786 19.2917   3
  -5  -1  10 8.30683 24.4505   3
  -5  -1   9 422.139 115.139   3
  -5  -1   8 62.2674 42.9917   3
  -5  -1   7 3149.90 280.436   3
  -5  -1   6 11201.1 497.123   3
  -5  -1   5 5595.70 327.882   3
  -5  -1   4 5209.55 398.658   2
  -5  -1   4 6061.38 314.587   3
  -5  -1   3 360.938 109.380   2
  -5  -1   2 17.4750 30.2408   2
  -5  -1   1 28.7403 47.1610   2
  -5  -1   0 2986.72 336.763   2
  -5  -1  -1 575.087 152.370   2
  -5  -1  -2 6171.58 503.459   2
  -5  -1  -3 625.932 166.569   2
  -5  -1  -4-58.5872 54.9964   2
  -5  -1  -5 333.356 124.844   2
  -5  -1  -6 38.8601 48.0474   2
  -5  -1  -7 2981.11 396.404   2
  -5  -2  12 4172.77 419.644   3
  -5  -2  11 378.021 120.154   3
  -5  -2  10-41.9712 41.2509   3
  -5  -2   9 61.9915 45.9687   3
  -5  -2   8 695.279 142.253   3
  -5  -2   7 31.9971 30.7165   3
  -5  -2   6 11676.7 522.155   3
  -5  -2   5 3006.21 249.107   3
  -5  -2   4 2101.90 265.737   2
  -5  -2   4 1874.22 187.334   3
  -5  -2   3 101.037 64.1673   2
  -5  -2   2 484.956 140.084   2
  -5  -2   1 323.875 116.549   2
  -5  -2   0 35.0514 41.6044   2
  -5  -2  -1 60.8311 53.8167   2
  -5  -2  -2 79.2973 61.7564   2
  -5  -2  -3 323.366 118.667   2
  -5  -2  -4-21.1218 39.4669   2
  -5  -2  -5 324.142 127.032   2
  -5  -2  -6 63.7441 73.7304   2
  -5  -3  11 21.9340 31.2567   3
  -5  -3  10 14.8523 28.7629   3
  -5  -3   9 188.315 79.9509   3
  -5  -3   8-34.3940 35.8892   3
  -5  -3   7 683.594 141.301   3
  -5  -3   6-41.0142 36.3002   3
  -5  -3   5 346.424 94.5672   3
  -5  -3   4 163.824 63.3774   3
  -5  -3   3 182.860 81.2132   2
  -5  -3   2 266.728 98.8931   2
  -5  -3   1 52.1604 48.8501   2
  -5  -3   0 135.083 77.6286   2
  -5  -3  -1-25.1478 39.9473   2
  -5  -3  -2 188.944 97.8457   2
  -5  -3  -3 87.3234 67.7163   2
  -5  -3  -4-103.588 72.3442   2
  -5  -4  10-100.275 67.9406   3
  -5  -4   9 465.157 134.937   3
  -5  -4   8 329.489 105.201   3
  -5  -4   7 3247.61 342.485   3
  -5  -4   6 2013.91 263.253   3
  -5  -4   5-21.6419 30.5862   3
  -5  -4   2 1583.93 254.813   2
  -5  -4   1 165.774 81.4199   2
  -5  -4   0 2101.63 302.423   2
  -5  -4  -1-65.8110 58.2007   2
  -5  -5   7 69.1354 56.3649   3
  -6   3  -3 256.471 110.907   2
  -6   2   1 70.4684 54.7598   2
  -6   2   0 104.305 66.4946   2
  -6   2  -1 176.755 87.9265   2
  -6   2  -2-5.39933 24.9774   2
  -6   2  -3 1948.02 312.162   2
  -6   2  -4 411.807 136.102   2
  -6   1   5 43.3017 41.3112   2
  -6   1   4 68.1430 50.0301   2
  -6   1   3 2477.15 305.927   2
  -6   1   2-6.32360 33.8015   2
  -6   1   1 922.327 197.068   2
  -6   1   0 35.8574 43.4209   2
  -6   1  -1 315.111 121.590   2
  -6   1  -2-36.7779 48.0186   2
  -6   1  -3 5026.41 506.406   2
  -6   0   5-27.9726 34.8842   2
  -6   0   4 129.002 68.6863   2
  -6   0   3 2571.83 319.710   2
  -6   0   2 2402.97 321.488   2
  -6   0   1 56.5918 52.4544   2
  -6   0   0 61.5982 56.3519   2
  -6   0  -1 44.4077 50.0971   2
  -6   0  -2-54.7189 56.7541   2
  -6  -1   4 1385.93 222.994   2
  -6  -1   3 285.051 108.777   2
  -6  -1   2 307.572 117.374   2
  -6  -1   1-37.6762 47.6080   2
  -6  -1   0 130.614 81.9647   2
  -6  -1  -1-3.49729 25.7490   2
  -6  -2   4 3099.04 362.462   2
  -6  -2   3 5328.12 465.844   2
   0   0   0    0.00    0.00   0
TITL haoke5MoLT in P-1
REM P-1 (#2 in standard setting)
CELL 0.71073   4.753536   6.126676  13.209328  96.2155  96.7380  91.3687
ZERR    1.00   0.000487   0.001314   0.002002   0.0150   0.0108   0.0134
LATT  1
SFAC C H
UNIT 20.00 30.00
TREF
HKLF 4
END
;
_shelx_hkl_checksum              37728
_shelx_shelxl_version_number     2014/7
_olex2_date_sample_data_collection 2016-04-12
_olex2_submission_special_instructions 'No special instructions were received'
loop_
_space_group_symop_operation_xyz
'x, y, z'
'-x, -y, -z'
loop_
_atom_site_label
_atom_site_type_symbol
_atom_site_fract_x
_atom_site_fract_y
_atom_site_fract_z
_atom_site_U_iso_or_equiv
_atom_site_adp_type
_atom_site_occupancy
_atom_site_site_symmetry_order
_atom_site_calc_flag
_atom_site_refinement_flags_posn
C1 C 0.4957(3) 0.1129(3) 0.36856(13) 0.0161(4) Uani 1 1 d .
C2 C 0.3945(3) 0.3032(3) 0.32745(13) 0.0167(4) Uani 1 1 d .
C3 C 0.4786(3) 0.3495(3) 0.23395(13) 0.0170(4) Uani 1 1 d .
H3 H 0.4146 0.4796 0.2069 0.020 Uiso 1 1 calc R
C4 C 0.6511(3) 0.2151(3) 0.17856(13) 0.0179(4) Uani 1 1 d .
C5 C 0.7468(3) 0.0222(3) 0.21863(13) 0.0162(4) Uani 1 1 d .
C6 C 0.6662(3) -0.0238(3) 0.31190(13) 0.0171(4) Uani 1 1 d .
H6 H 0.7298 -0.1543 0.3386 0.020 Uiso 1 1 calc R
C7 C 0.2038(3) 0.4556(3) 0.38224(13) 0.0198(5) Uani 1 1 d .
H7A H 0.1877 0.5915 0.3494 0.030 Uiso 1 1 calc GR
H7B H 0.2840 0.4901 0.4542 0.030 Uiso 1 1 calc GR
H7C H 0.0155 0.3845 0.3788 0.030 Uiso 1 1 calc GR
C8 C 0.7360(3) 0.2738(3) 0.07889(13) 0.0226(5) Uani 1 1 d .
H8A H 0.6504 0.4119 0.0629 0.034 Uiso 1 1 calc GR
H8B H 0.6701 0.1567 0.0241 0.034 Uiso 1 1 calc GR
H8C H 0.9429 0.2913 0.0845 0.034 Uiso 1 1 calc GR
C9 C 0.9321(3) -0.1297(3) 0.16188(13) 0.0211(5) Uani 1 1 d .
H9A H 1.1169 -0.0562 0.1608 0.032 Uiso 1 1 calc GR
H9B H 0.8425 -0.1694 0.0914 0.032 Uiso 1 1 calc GR
H9C H 0.9581 -0.2629 0.1964 0.032 Uiso 1 1 calc GR
C10 C 0.4226(3) 0.0586(3) 0.46826(13) 0.0175(4) Uani 1 1 d .
H10 H 0.2499 0.1118 0.4892 0.021 Uiso 1 1 calc R
loop_
_atom_site_aniso_label
_atom_site_aniso_U_11
_atom_site_aniso_U_22
_atom_site_aniso_U_33
_atom_site_aniso_U_23
_atom_site_aniso_U_13
_atom_site_aniso_U_12
C1 0.0146(8) 0.0173(10) 0.0156(9) 0.0010(7) 0.0003(6) -0.0015(6)
C2 0.0131(7) 0.0158(10) 0.0197(9) -0.0004(8) -0.0015(6) -0.0011(6)
C3 0.0169(8) 0.0147(10) 0.0190(9) 0.0056(8) -0.0028(7) -0.0011(6)
C4 0.0155(8) 0.0212(10) 0.0164(9) 0.0015(8) 0.0006(6) -0.0037(6)
C5 0.0133(7) 0.0183(10) 0.0163(9) 0.0001(7) 0.0007(6) -0.0018(6)
C6 0.0171(8) 0.0127(10) 0.0211(10) 0.0028(8) 0.0001(7) 0.0016(6)
C7 0.0208(8) 0.0161(10) 0.0218(10) 0.0008(8) 0.0001(7) 0.0034(7)
C8 0.0275(9) 0.0220(11) 0.0182(10) 0.0033(8) 0.0022(7) -0.0020(7)
C9 0.0222(8) 0.0211(11) 0.0198(10) 0.0013(8) 0.0027(7) 0.0011(7)
C10 0.0177(8) 0.0149(10) 0.0202(10) 0.0010(8) 0.0046(7) -0.0011(6)
loop_
_atom_type_symbol
_atom_type_description
_atom_type_scat_dispersion_real
_atom_type_scat_dispersion_imag
_atom_type_scat_source
C C 0.0033 0.0016 'International Tables Vol C Tables 4.2.6.8 and 6.1.1.4'
H H 0.0000 0.0000 'International Tables Vol C Tables 4.2.6.8 and 6.1.1.4'
loop_
_geom_angle_atom_site_label_1
_geom_angle_atom_site_label_2
_geom_angle_atom_site_label_3
_geom_angle
_geom_angle_site_symmetry_1
C2 C1 C10 120.86(15) .
C6 C1 C2 118.37(16) .
C6 C1 C10 120.77(16) .
C1 C2 C7 121.68(16) .
C3 C2 C1 118.16(15) .
C3 C2 C7 120.16(16) .
C4 C3 C2 123.30(16) .
C3 C4 C5 118.47(16) .
C3 C4 C8 120.96(16) .
C5 C4 C8 120.57(16) .
C4 C5 C9 120.78(16) .
C6 C5 C4 118.52(16) .
C6 C5 C9 120.70(16) .
C5 C6 C1 123.14(16) .
C10 C10 C1 125.63(18) 2_656
loop_
_geom_bond_atom_site_label_1
_geom_bond_atom_site_label_2
_geom_bond_distance
_geom_bond_site_symmetry_2
C1 C2 1.410(2) .
C1 C6 1.399(2) .
C1 C10 1.471(2) .
C2 C3 1.397(2) .
C2 C7 1.505(2) .
C3 C4 1.389(2) .
C4 C5 1.410(2) .
C4 C8 1.499(2) .
C5 C6 1.387(2) .
C5 C9 1.499(2) .
C10 C10 1.331(3) 2_656
