#------------------------------------------------------------------------------
#$Date: 2019-11-24 08:49:10 +0200 (Sun, 24 Nov 2019) $
#$Revision: 237366 $
#$URL: file:///home/coder/svn-repositories/cod/cif/1/55/45/1554577.cif $
#------------------------------------------------------------------------------
#
# This file is available in the Crystallography Open Database (COD),
# http://www.crystallography.net/
#
# All data on this site have been placed in the public domain by the
# contributors.
#
data_1554577
loop_
_publ_author_name
'Chen, Mu-Wang'
'Deng, Zhihong'
'Yang, Qin'
'Huang, Jian'
'Peng, Yiyuan'
_publ_section_title
;
 Enantioselective synthesis of trifluoromethylated dihydroquinoxalinones
 via palladium-catalyzed hydrogenation
;
_journal_issue                   6
_journal_name_full               'Organic Chemistry Frontiers'
_journal_page_first              746
_journal_paper_doi               10.1039/C8QO01361F
_journal_volume                  6
_journal_year                    2019
_chemical_absolute_configuration unk
_chemical_formula_sum            'C9 H9 F3 N2'
_chemical_formula_weight         202.18
_space_group_crystal_system      monoclinic
_space_group_IT_number           4
_space_group_name_Hall           'P 2yb'
_space_group_name_H-M_alt        'P 1 21 1'
_atom_sites_solution_hydrogens   mixed
_audit_creation_method           SHELXL-2013
_audit_update_record
;
2018-11-19 deposited with the CCDC.
2019-01-30 downloaded from the CCDC.
;
_cell_angle_alpha                90
_cell_angle_beta                 104.17(4)
_cell_angle_gamma                90
_cell_formula_units_Z            2
_cell_length_a                   5.799(3)
_cell_length_b                   7.486(4)
_cell_length_c                   10.479(6)
_cell_measurement_reflns_used    1544
_cell_measurement_temperature    293(2)
_cell_measurement_theta_max      140.293
_cell_measurement_theta_min      8.703
_cell_volume                     441.1(4)
_computing_cell_refinement       'Bruker SAINT'
_computing_data_collection       'Bruker APEX2'
_computing_data_reduction        'Bruker SAINT'
_computing_molecular_graphics    'Bruker SHELXTL'
_computing_publication_material  'Bruker SHELXTL'
_computing_structure_refinement  'SHELXL-2013 (Sheldrick, 2013)'
_computing_structure_solution    'SHELXS-97 (Sheldrick 2008)'
_diffrn_ambient_temperature      293(2)
_diffrn_measured_fraction_theta_full 0.910
_diffrn_measured_fraction_theta_max 0.952
_diffrn_measurement_device_type  'Bruker APEX-II CCD'
_diffrn_measurement_method       '\f and \w scans'
_diffrn_radiation_type           CuK\a
_diffrn_radiation_wavelength     1.54178
_diffrn_reflns_av_R_equivalents  0.0935
_diffrn_reflns_av_unetI/netI     0.1383
_diffrn_reflns_Laue_measured_fraction_full 0.910
_diffrn_reflns_Laue_measured_fraction_max 0.952
_diffrn_reflns_limit_h_max       6
_diffrn_reflns_limit_h_min       -6
_diffrn_reflns_limit_k_max       8
_diffrn_reflns_limit_k_min       -8
_diffrn_reflns_limit_l_max       12
_diffrn_reflns_limit_l_min       -12
_diffrn_reflns_number            3146
_diffrn_reflns_point_group_measured_fraction_full 0.917
_diffrn_reflns_point_group_measured_fraction_max 0.961
_diffrn_reflns_theta_full        67.679
_diffrn_reflns_theta_max         65.432
_diffrn_reflns_theta_min         4.351
_exptl_absorpt_coefficient_mu    1.204
_exptl_absorpt_correction_T_max  0.7533
_exptl_absorpt_correction_T_min  0.5366
_exptl_absorpt_correction_type   multi-scan
_exptl_absorpt_process_details   sadabs
_exptl_crystal_colour            colorless
_exptl_crystal_density_diffrn    1.522
_exptl_crystal_description       prismatic
_exptl_crystal_F_000             208
_exptl_crystal_size_max          0.17
_exptl_crystal_size_mid          0.15
_exptl_crystal_size_min          0.10
_refine_diff_density_max         0.392
_refine_diff_density_min         -0.345
_refine_diff_density_rms         0.099
_refine_ls_abs_structure_details
; 
 Refined as an inversion twin. 
;
_refine_ls_abs_structure_Flack   -0.3(8)
_refine_ls_extinction_coef       0.4(2)
_refine_ls_extinction_expression Fc^*^=kFc[1+0.001xFc^2^\l^3^/sin(2\q)]^-1/4^
_refine_ls_extinction_method     SHELXL
_refine_ls_goodness_of_fit_ref   1.398
_refine_ls_hydrogen_treatment    constr
_refine_ls_matrix_type           full
_refine_ls_number_parameters     129
_refine_ls_number_reflns         1387
_refine_ls_number_restraints     1
_refine_ls_restrained_S_all      1.397
_refine_ls_R_factor_all          0.2357
_refine_ls_R_factor_gt           0.0964
_refine_ls_shift/su_max          0.001
_refine_ls_shift/su_mean         0.000
_refine_ls_structure_factor_coef Fsqd
_refine_ls_weighting_details
'w=1/[\s^2^(Fo^2^)+(0.2000P)^2^] where P=(Fo^2^+2Fc^2^)/3'
_refine_ls_weighting_scheme      calc
_refine_ls_wR_factor_gt          0.2635
_refine_ls_wR_factor_ref         0.3757
_reflns_Friedel_coverage         0.862
_reflns_Friedel_fraction_full    0.925
_reflns_Friedel_fraction_max     0.971
_reflns_number_gt                807
_reflns_number_total             1387
_reflns_threshold_expression     'I > 2\s(I)'
_cod_data_source_file            c8qo01361f2.cif
_cod_data_source_block           d8v18757
_cod_original_sg_symbol_H-M      'P 21'
_cod_database_code               1554577
_shelx_space_group_comment
; 
The symmetry employed for this shelxl refinement is uniquely defined 
by the following loop, which should always be used as a source of 
symmetry information in preference to the above space-group names. 
They are only intended as comments. 
;
_shelxl_version_number           2013-4
_shelx_res_file
; 
TITL d8v18757   P21 
CELL  1.54178    5.7990    7.4860   10.4790    90.000   104.170    90.000 
ZERR  2           0.0030    0.0040    0.0060     0.000     0.040     0.000 
LATT -1 
SYMM             - X ,    0.50000 + Y ,            - Z 
SFAC C  H  F  N 
UNIT 18 18 6 4 
OMIT  -3.00 131.00 
L.S. 8 
ACTA 
BOND $H 
FMAP 2 
PLAN 0 
CONF 
TWIN 
WGHT    0.200000 
EXTI    0.396427 
BASF  -0.29100 
FVAR       1.69540 
C1    1    0.100825    0.695084    0.466550    11.00000    0.05279    0.05063 = 
         0.11408   -0.00712    0.01562    0.00027 
C2    1    0.093133    0.655953    0.598147    11.00000    0.07229    0.06104 = 
         0.08743   -0.00807    0.02829   -0.00698 
AFIX  43 
H2    2   -0.040715    0.602755    0.615713    11.00000   -1.20000 
AFIX   0 
C3    1    0.286460    0.697818    0.699372    11.00000    0.08204    0.06678 = 
         0.11163   -0.00216    0.01850    0.00890 
AFIX  43 
H3    2    0.282118    0.673191    0.785741    11.00000   -1.20000 
AFIX   0 
C4    1    0.484163    0.774917    0.674589    11.00000    0.06713    0.07668 = 
         0.09468   -0.00990    0.00528   -0.00520 
AFIX  43 
H4    2    0.612825    0.802360    0.744233    11.00000   -1.20000 
AFIX   0 
C5    1    0.495495    0.812856    0.546693    11.00000    0.05975    0.06459 = 
         0.10194   -0.00657    0.01818   -0.00501 
AFIX  43 
H5    2    0.630931    0.865521    0.530687    11.00000   -1.20000 
AFIX   0 
C6    1    0.305947    0.772279    0.444052    11.00000    0.06200    0.05454 = 
         0.08138    0.00436    0.01947   -0.00089 
C7    1   -0.038483    0.633148    0.234542    11.00000    0.06044    0.07408 = 
         0.11042   -0.01620    0.00656    0.00267 
AFIX  23 
H7A   2   -0.183706    0.624595    0.165274    11.00000   -1.20000 
H7B   2    0.048193    0.521807    0.237396    11.00000   -1.20000 
AFIX   0 
C8    1    0.113086    0.788414    0.206577    11.00000    0.07253    0.06483 = 
         0.10108   -0.00220    0.01352    0.00474 
AFIX  13 
H8    2    0.021188    0.899384    0.199625    11.00000   -1.20000 
AFIX   0 
C9    1    0.186673    0.757236    0.079685    11.00000    0.09065    0.08130 = 
         0.10307   -0.00134    0.04080    0.00237 
F1    3    0.329382    0.891508    0.057753    11.00000    0.15074    0.11796 = 
         0.09603    0.01659    0.04872   -0.00995 
F2    3    0.003264    0.755763   -0.022054    11.00000    0.12295    0.15212 = 
         0.09109    0.00461    0.00033    0.01262 
F3    3    0.310094    0.610371    0.079728    11.00000    0.12840    0.10041 = 
         0.12499   -0.00796    0.05537    0.01630 
N1    4   -0.095242    0.664524    0.360373    11.00000    0.05847    0.08188 = 
         0.09398   -0.01608    0.01969   -0.00671 
AFIX   3 
H1    2   -0.213941    0.623474    0.373923    11.00000   -1.20000 
AFIX   0 
N2    4    0.323492    0.803312    0.314452    11.00000    0.06913    0.08547 = 
         0.09540    0.01067    0.02357   -0.01881 
AFIX   3 
H2A   2    0.395092    0.902711    0.309552    11.00000   -1.20000 
AFIX   0 
HKLF 4 1 -1.0000  0.0000  0.0000  0.0000  1.0000  0.0000  0.0000  0.0000 -1.0000 
  
REM  d8v18757   P21 
REM R1 =  0.0964 for     807 Fo > 4sig(Fo)  and  0.2357 for all    1387 data 
REM    129 parameters refined using      1 restraints 
  
END 
  
WGHT      0.2000      0.0000 
  
REM Highest difference peak  0.392,  deepest hole -0.345,  1-sigma level  0.099 
Q1    1   0.1572  0.7780  0.1543  11.00000  0.05    0.39 
Q2    1   0.1200  0.6145  0.5258  11.00000  0.05    0.35 
Q3    1   0.1637  0.7607  0.4385  11.00000  0.05    0.31 
Q4    1   0.1367  0.7008  0.2776  11.00000  0.05    0.31 
Q5    1   0.5001  0.9041  0.2001  11.00000  0.05    0.31 
Q6    1  -0.1197  1.0350  0.2193  11.00000  0.05    0.30 
Q7    1   0.6936  0.8805  0.4271  11.00000  0.05    0.30 
Q8    1   0.1229  0.7329  0.4238  11.00000  0.05    0.30 
Q9    1   0.4175  0.6821 -0.0489  11.00000  0.05    0.29 
Q10   1  -0.1290  0.5167  0.3641  11.00000  0.05    0.29 
Q11   1  -0.0952  0.5194  0.5218  11.00000  0.05    0.29 
Q12   1   0.2860  0.6609  0.6344  11.00000  0.05    0.29 
Q13   1  -0.0701  0.7219  0.1773  11.00000  0.05    0.28 
Q14   1   0.1341  0.7306  0.6665  11.00000  0.05    0.28 
Q15   1   0.0875  0.6679  0.4066  11.00000  0.05    0.28 
Q16   1  -0.3403  0.7906  0.3158  11.00000  0.05    0.28 
Q17   1   0.2483  0.6223  0.2403  11.00000  0.05    0.28 
Q18   1   0.6674  0.8353  0.8177  11.00000  0.05    0.27 
Q19   1   0.1188  0.3980  0.3348  11.00000  0.05    0.27 
Q20   1   0.5484  0.6738  0.8540  11.00000  0.05    0.27 
;
_shelx_res_checksum              7991
_shelx_hkl_file
; 
  -2   0   0   67.46    3.78 
  -2   0   0   66.59    3.87 
  -2   0   0   70.69    3.90 
  -3   0   0  457.17   24.96 
  -3   0   0  466.64   25.14 
  -3   0   0  454.28   25.17 
  -4   0   0    0.46    0.19 
  -4   0   0    0.99    0.34 
  -5   0   0  325.83   19.36 
  -5   0   0  356.93   19.77 
  -5   0   0  350.56   19.18 
  -6   0   0    4.96    0.80 
  -6   0   0    4.16    0.61 
  -6   1   0   26.84    2.14 
  -6   1   0    5.39   23.56 
  -5   1   0   18.97    1.80 
  -5   1   0   17.72    1.42 
  -5   1   0   -2.24   25.58 
  -5   1   0   16.50    1.53 
  -4   1   0  111.31    6.45 
  -4   1   0  111.50    6.56 
  -3   1   0   57.60    3.40 
  -3   1   0   54.24    3.36 
  -2   1   0  265.31   14.51 
   0   1   0    0.33    0.09 
   0  -1   0    0.41    0.06 
  -2  -1   0  270.60   14.97 
  -2  -1   0  272.66   15.02 
  -2  -1   0  279.23   15.04 
  -3  -1   0   55.14    3.21 
  -3  -1   0   51.78    3.16 
  -3  -1   0   51.19    3.07 
  -4  -1   0  110.41    6.45 
  -4  -1   0  111.21    6.52 
  -5  -1   0   18.48    1.78 
  -5  -1   0   15.04    1.50 
  -5  -1   0   17.17    1.38 
  -5  -1   0    4.32    5.53 
  -6  -1   0   37.37    2.82 
  -6  -1   0   39.10    2.64 
  -6   2   0   37.31    2.50 
  -6   2   0    7.92   19.28 
  -6   2   0   38.34    2.73 
  -5   2   0   14.77   20.71 
  -4   2   0   15.14    1.09 
  -4   2   0   10.70    1.14 
  -3   2   0    7.39    0.72 
  -2   2   0  162.59    9.01 
  -2   2   0  164.48    9.08 
   2   2   0  158.85    9.21 
  -2  -2   0  165.34    9.19 
  -2  -2   0  173.86    9.24 
  -2  -2   0  165.04    9.17 
   3   2   0    7.89    0.76 
  -3  -2   0    8.16    0.75 
  -3  -2   0    8.25    0.72 
  -3  -2   0    8.01    0.68 
   4   2   0   16.90    1.52 
  -4  -2   0   19.01    1.37 
  -4  -2   0   15.99    1.23 
  -4  -2   0   15.61    1.36 
  -6   3   0    0.89    0.36 
  -6   3   0    1.10    0.35 
  -5   3   0    1.18    0.36 
  -5   3   0    1.94    0.57 
  -4   3   0  -22.90   15.33 
  -3   3   0   45.68    2.90 
  -2   3   0  203.57   11.08 
  -2   3   0  195.15   10.93 
  -1   3   0  125.12    6.69 
  -1   3   0  111.96    6.57 
   1  -3   0  123.26    6.60 
   0   3   0    0.02    0.11 
   0  -3   0    0.01    0.04 
   1   3   0  127.21    7.16 
  -1  -3   0  130.86    7.08 
  -1  -3   0  124.69    7.11 
   2   3   0  192.81   10.78 
  -2  -3   0  196.46   10.72 
  -2  -3   0  189.41   10.69 
   3   3   0   41.35    2.80 
  -3  -3   0   42.74    2.69 
  -3  -3   0   45.46    2.71 
  -4  -3   0    5.29    0.84 
  -4  -3   0    3.77    0.87 
  -4  -3   0   -2.07    5.03 
  -4  -3   0    5.54    0.65 
  -5  -3   0   -1.09    4.33 
  -5  -3   0    0.55    0.37 
  -5  -3   0    0.56    0.34 
   6   3   0   -1.16    2.59 
  -6  -3   0   -1.29    2.51 
  -6  -3   0    0.91    0.38 
  -6   4   0   -7.70   10.44 
  -6   4   0   17.86    1.34 
  -5   4   0  -34.25   16.92 
  -5   4   0    0.03    0.26 
  -5   4   0    0.25    0.31 
  -4   4   0   43.02    2.81 
  -4   4   0   45.44   33.79 
  -4   4   0   37.82    2.97 
  -3   4   0   49.13    3.15 
  -2   4   0   13.30    1.04 
  -1   4   0  384.46   19.95 
   1  -4   0  343.37   19.83 
   0   4   0   28.95    1.83 
   1   4   0  386.08   20.53 
  -1  -4   0  404.10   20.51 
  -1  -4   0  330.59   20.35 
   2   4   0   10.56    0.95 
  -2  -4   0    8.35    0.76 
  -2  -4   0   10.43    0.84 
   3   4   0   48.63    3.16 
  -3  -4   0   46.61    2.94 
  -3  -4   0   46.55    3.03 
  -4  -4   0    7.19   12.42 
  -5  -4   0    0.27    0.26 
  -5  -4   0   -2.02    2.24 
  -5  -4   0    0.22    0.28 
  -5   5   0    4.96    0.59 
  -5   5   0    3.60    0.58 
  -5   5   0    7.79   13.75 
  -4   5   0   -1.67   23.50 
  -3   5   0  -12.90   18.39 
  -2   5   0   23.59    1.71 
  -1   5   0   35.99    2.29 
  -1  -5   0   34.45    2.23 
   2   5   0   23.74    1.75 
  -2  -5   0   24.15    1.68 
  -2  -5   0   21.39    1.55 
   3   5   0    6.11   11.09 
  -3  -5   0   -0.21    3.12 
  -3  -5   0    8.06   11.92 
  -3  -5   0    4.33    0.87 
  -3  -5   0    3.37    0.84 
  -3  -5   0    4.00    0.55 
   4   5   0   -8.24    9.44 
  -4  -5   0    1.68    0.52 
  -4  -5   0    2.02    4.46 
  -4  -5   0    2.03    0.62 
  -4  -5   0    4.76    8.77 
   5   5   0    2.86    6.31 
  -5  -5   0   -2.97    2.56 
  -5   6   0   13.03    0.93 
  -5   6   0    6.87   17.13 
   5  -6   0   10.49    1.19 
  -4   6   0   13.99   22.75 
  -4   6   0    6.08    0.75 
   4  -6   0    6.59    1.13 
  -3   6   0  -16.69   17.19 
  -2   6   0   25.06    2.06 
  -2   6   0   29.11   33.63 
  -2   6   0   29.83    1.85 
  -2   6   0   23.76    2.13 
   2  -6   0   27.94    2.67 
  -1   6   0   17.96    1.33 
  -1   6   0   15.58    1.64 
   1  -6   0   21.84    2.09 
   0   6   0   97.14    5.75 
   0  -6   0   91.11    6.15 
   1   6   0   21.01    1.53 
  -1  -6   0   20.36    2.01 
  -1  -6   0   26.60    2.88 
  -1  -6   0   17.33   10.65 
   2   6   0   -2.30    7.84 
  -2  -6   0    3.35    5.18 
  -2  -6   0    5.89   11.32 
   3   6   0    0.65    8.70 
  -3  -6   0   -2.05    2.91 
  -3  -6   0   -4.26    7.26 
   4   6   0   -4.46    6.41 
  -4  -6   0    0.39    2.89 
   5   6   0    8.21    7.57 
   5   6   0    0.74    3.06 
  -5  -6   0    5.77    0.63 
  -4   7   0   -3.19   15.00 
  -4   7   0    0.46    0.19 
   4  -7   0    0.94    0.43 
  -3   7   0   12.85   21.02 
  -3   7   0    3.40    0.54 
  -2   7   0    8.14    0.75 
  -2   7   0    8.59    0.99 
   2  -7   0    7.63    1.18 
  -1   7   0   10.11    1.10 
  -1   7   0   10.27    0.89 
   1  -7   0    8.08    1.28 
   1  -7   0    9.59    1.24 
   0   7   0    0.10    0.25 
   0   7   0   -9.90   13.54 
   0  -7   0   -0.07    0.29 
   1   7   0    9.70    0.86 
   1   7   0   -0.15    7.95 
  -1  -7   0   10.83    1.25 
  -1  -7   0    8.48    1.12 
   2   7   0   -7.15    6.43 
   3   7   0   -4.63    5.01 
   3   7   0   -0.50    3.09 
  -3  -7   0    1.14    2.89 
   4   7   0    0.01    2.71 
   4   7   0    0.54    5.10 
  -4  -7   0    0.13    2.02 
  -3   8   0    2.87    0.39 
   3  -8   0    3.48    0.60 
  -2   8   0    1.79    0.39 
  -2   8   0    1.31    0.26 
   2  -8   0    0.68    0.37 
   2  -8   0    1.67    0.55 
  -1   8   0    2.23    0.37 
   1  -8   0    1.89    0.61 
   0   8   0   31.60    1.85 
   0  -8   0   22.79    2.09 
   1   8   0    1.60    0.32 
   1   8   0    1.05    6.55 
  -1  -8   0    1.06    0.40 
  -1  -8   0    2.51    0.62 
   2   8   0   -3.19    5.38 
   2   8   0    0.67    0.24 
   3   8   0    1.46    4.32 
  -3  -8   0    1.51    0.42 
  -1   9   0    4.74    0.42 
   0   9   0    0.07    0.08 
   0  -9   0   -0.17    0.18 
   0  -9  -1    0.52    0.22 
   0   9   1    0.34    0.11 
   1  -9  -1    2.97    0.50 
  -1   9   1    3.05    0.32 
   3   8   1    1.73    3.68 
  -2  -8  -1    5.34    0.69 
   2   8   1    4.88    8.73 
   2   8   1    4.39    0.48 
   1   8   1    4.45    7.33 
   0  -8  -1   33.92    2.45 
   0   8   1   28.06    1.98 
   1  -8  -1    2.70    0.70 
  -1   8   1    2.53    0.37 
   2  -8  -1    1.22    0.46 
  -2   8   1    0.78    0.23 
  -2   8   1    1.06    0.34 
   3  -8  -1    8.45    0.96 
  -3   8   1    7.57    0.69 
  -4  -7  -1    6.46    0.66 
   4   7   1    5.45    5.83 
  -3  -7  -1    0.52    3.16 
   3   7   1   -0.71    6.30 
   3   7   1    0.43    3.61 
  -2  -7  -1    3.32    4.00 
  -2  -7  -1    0.67    0.44 
  -2  -7  -1    0.31    0.35 
   2   7   1    0.14    6.41 
   2   7   1    2.87    4.51 
   2   7   1    0.17    0.20 
  -1  -7  -1   18.06    1.74 
  -1  -7  -1   17.08    1.72 
   1   7   1   20.83    1.41 
   1   7   1    6.17   10.40 
   0  -7  -1   22.49    1.98 
   0  -7  -1   23.99    2.29 
   0   7   1   20.05    1.54 
   0   7   1   13.79   12.11 
   1  -7  -1   26.90    2.60 
   1  -7  -1   34.63    2.67 
  -1   7   1   32.41    2.33 
  -1   7   1   28.53    2.04 
   2  -7  -1   24.22    2.20 
  -2   7   1   12.39   19.81 
  -2   7   1   26.49    1.76 
  -2   7   1   24.96    1.97 
  -3   7   1   22.44   14.86 
   4  -7  -1    0.02    0.38 
  -4   7   1  -11.33   15.14 
  -4   7   1    0.15    0.17 
  -4  -6  -1    1.17    4.99 
   4   6   1    2.45    9.24 
   4   6   1    1.46    3.50 
  -3  -6  -1    1.48    4.67 
   3   6   1   -0.84    8.42 
  -2  -6  -1  -11.59    7.90 
   2   6   1    0.27    7.97 
  -1  -6  -1   -7.51    6.61 
  -1  -6  -1    0.52    0.32 
  -1  -6  -1    0.02    0.63 
   1   6   1    0.18    0.19 
   1   6   1    2.49   11.94 
   0  -6  -1  131.26    6.93 
   0  -6  -1  103.65    7.38 
   0   6   1  113.03    7.02 
   0   6   1  127.11    6.85 
   1  -6  -1  254.05   15.12 
  -1   6   1  258.26   14.27 
   2  -6  -1   33.49    2.93 
  -2   6   1  -14.73   21.55 
  -2   6   1   35.34    2.22 
  -2   6   1   31.98    2.54 
  -2   6   1   33.62    2.49 
   3  -6  -1    6.84    1.21 
  -3   6   1   -0.86   26.46 
  -3   6   1    9.32    0.91 
  -3   6   1    8.35    0.96 
  -3   6   1    9.25    1.00 
  -4   6   1  -12.64   17.05 
   5  -6  -1    3.04    0.59 
  -5   6   1    1.96   13.49 
  -5   6   1    3.91    0.48 
  -5  -5  -1    1.04    0.36 
  -5  -5  -1    1.08    0.34 
  -5  -5  -1    1.36    3.67 
   5   5   1    1.72    4.07 
  -4  -5  -1   15.02    1.45 
  -4  -5  -1   11.30    1.33 
   4   5   1   11.65    8.96 
   3   5   1    3.70   12.61 
  -2  -5  -1    4.50    0.56 
   2   5   1    2.78    0.96 
  -1  -5  -1   18.45    1.43 
   1   5   1   21.59    1.45 
   0   5   1   95.71    5.45 
  -1   5   1    3.70    0.44 
  -3   5   1   -9.42   15.88 
  -4   5   1    1.22    0.39 
  -4   5   1    0.84    0.34 
  -5   5   1  -11.16   12.54 
  -6  -4  -1    4.88    0.57 
  -5  -4  -1   -0.69    3.44 
   5   4   1    0.36    3.57 
  -3  -4  -1  140.05    8.27 
  -3  -4  -1  147.43    8.21 
  -2  -4  -1    9.94    0.83 
  -2  -4  -1    8.25    0.73 
   2   4   1    9.17    0.86 
  -1  -4  -1  265.76   14.12 
  -1  -4  -1  244.59   13.99 
   0  -4  -1   49.29    2.93 
   0   4   1   49.76    2.89 
  -2   4   1  613.85   33.48 
  -3   4   1    1.97    0.44 
  -4   4   1  -29.77   15.45 
  -5   4   1   15.06   24.20 
  -5   4   1   20.30    1.70 
  -5   4   1   18.40    1.54 
  -6   4   1   20.75    1.50 
  -6   4   1   -0.63   17.28 
  -6  -3  -1    1.11    0.35 
   6   3   1   -1.19    2.03 
  -5  -3  -1    2.20    6.76 
  -5  -3  -1    0.59    0.37 
  -5  -3  -1    0.46    0.31 
  -4  -3  -1  233.94   13.35 
  -4  -3  -1  235.17   12.80 
  -4  -3  -1  210.46   13.06 
  -3  -3  -1   86.22    4.94 
  -3  -3  -1   83.92    4.98 
  -3  -3  -1   71.54    4.97 
   3   3   1   94.05    5.10 
  -2  -3  -1  102.06    6.33 
  -2  -3  -1  111.44    6.18 
   2   3   1  111.70    6.21 
  -1  -3  -1  204.33   10.76 
  -1  -3  -1  181.68   10.82 
   1   3   1  200.58   10.82 
   0  -3  -1  181.82   10.01 
  -3   3   1   38.21    2.42 
  -4   3   1    9.07    1.11 
  -4   3   1    9.41    0.92 
  -4   3   1   35.85   33.43 
  -4   3   1    7.93    0.94 
  -5   3   1    4.43    0.66 
  -5   3   1    4.13    0.73 
  -5   3   1    2.18   21.90 
  -6   3   1    7.51    0.89 
  -6   3   1    9.62    0.88 
  -6   3   1   10.74   19.30 
  -6  -2  -1   16.24    1.33 
  -6  -2  -1   16.28    1.46 
  -5  -2  -1  199.22   11.89 
  -5  -2  -1  220.18   11.78 
  -5  -2  -1  198.62   12.18 
  -4  -2  -1  257.76   14.52 
  -4  -2  -1  253.23   14.35 
  -3  -2  -1   76.75    4.51 
  -3  -2  -1   78.31    4.54 
  -3  -2  -1   75.10    4.43 
   3   2   1   74.91    4.55 
  -2  -2  -1   70.26    3.95 
  -2  -2  -1   67.95    3.91 
  -2  -2  -1   70.70    3.97 
   2   2   1   63.95    3.93 
  -1  -2  -1  389.49   22.63 
   1   2   1  442.88   22.69 
   2  -2  -1  263.58   13.89 
  -2   2   1  248.53   13.96 
  -2   2   1  255.85   14.04 
  -3   2   1   53.35    3.18 
  -3   2   1   56.03    3.30 
  -4   2   1    5.01    0.62 
  -5   2   1  -16.61   16.07 
  -6   2   1   24.83    2.07 
  -6   2   1   37.36   23.46 
  -6   2   1   27.45    1.93 
  -6  -1  -1    4.62    0.74 
  -6  -1  -1    5.68    0.70 
  -5  -1  -1    6.91    1.44 
  -4  -1  -1  204.28   11.22 
  -4  -1  -1  190.67   11.70 
  -3  -1  -1   64.73    4.03 
  -3  -1  -1   69.18    4.02 
  -3  -1  -1   69.10    4.05 
  -2  -1  -1  181.00   10.28 
  -2  -1  -1  183.31   10.22 
  -2  -1  -1  194.15   10.31 
   2  -1  -1  265.64   14.15 
  -2   1   1  257.05   14.22 
  -2   1   1  256.69   14.14 
  -2   1   1  262.28   14.26 
   3  -1  -1  218.13   12.12 
  -3   1   1  213.97   12.32 
  -3   1   1  235.11   12.29 
  -4   1   1   43.29    2.65 
  -4   1   1   40.87    2.72 
  -5   1   1   68.54   39.51 
  -6   1   1   -5.49   16.11 
  -6   0  -1   -5.90   13.10 
  -5   0  -1  398.52   23.39 
  -5   0  -1  438.81   23.31 
  -5   0  -1  419.51   23.71 
  -4   0  -1   14.78    1.33 
  -4   0  -1   13.69    1.16 
  -3   0  -1  579.30   31.84 
  -3   0  -1  591.85   31.59 
  -3   0  -1  574.45   31.79 
  -2   0  -1   27.96    1.66 
  -2   0  -1   28.97    1.78 
  -2   0  -1   29.62    1.77 
  -1   0  -1   37.27    2.18 
  -1   0  -1   38.14    2.13 
  -1   0  -1   39.64    2.20 
   0   0  -1   31.19    1.87 
   0   0  -1   34.89    1.88 
   0   0   1   37.59    1.89 
   0   0   1   32.58    1.88 
  -3   0   1  222.44   12.25 
  -3   0   1  220.28   12.08 
  -3   0   1  219.59   12.22 
  -4   0   1   29.56    2.04 
  -5   0   1  -55.76   26.18 
  -6   0   1    0.86    0.46 
  -6   1  -1    5.43    0.66 
  -6   1  -1   16.38   20.34 
  -5   1  -1   41.01   36.44 
  -4   1  -1  192.18   11.28 
  -4   1  -1  203.14   11.19 
  -3   1  -1   71.17    4.27 
  -3   1  -1   71.89    4.20 
  -2   1  -1  200.04   10.96 
  -2   1  -1  196.11   10.92 
  -2  -1   1  272.85   15.03 
  -2  -1   1  276.16   14.99 
  -3  -1   1  227.85   12.51 
  -3  -1   1  230.28   12.59 
  -3  -1   1  223.81   12.61 
   4   1  -1   47.18    2.98 
  -4  -1   1   43.31    2.85 
  -4  -1   1   41.43    2.78 
  -4  -1   1   45.67    2.70 
  -5  -1   1    3.61    4.17 
  -6  -1   1   14.90    1.54 
  -6  -1   1   17.85    1.47 
  -6   2  -1   24.75   23.99 
  -6   2  -1   12.03    1.23 
  -6   2  -1   15.72    1.16 
  -5   2  -1  201.92   11.71 
  -5   2  -1  207.30   12.04 
  -4   2  -1  254.31   13.27 
  -4   2  -1  217.53   13.65 
  -3   2  -1   77.59    4.53 
  -2   2  -1   72.24    4.10 
  -2   2  -1   68.63    4.02 
  -1   2  -1  392.18   21.59 
   1  -2   1  405.97   21.60 
   2   2  -1  247.06   13.94 
  -2  -2   1  262.80   13.95 
  -2  -2   1  248.47   13.89 
  -2  -2   1  253.87   13.89 
   3   2  -1   53.32    3.28 
  -3  -2   1   52.68    3.19 
  -3  -2   1   54.09    3.17 
  -3  -2   1   52.61    3.23 
  -4  -2   1    4.63    0.57 
  -4  -2   1    4.29    0.55 
  -5  -2   1   56.70    3.99 
  -5  -2   1   62.18    3.76 
  -5  -2   1   61.18    4.27 
  -6   3  -1    1.69    0.33 
  -6   3  -1    0.70   13.89 
  -6   3  -1    0.99    0.28 
  -5   3  -1    0.64    0.30 
  -5   3  -1   -0.10   13.34 
  -5   3  -1    0.95    0.36 
  -4   3  -1  212.72   12.66 
  -4   3  -1  232.76   13.06 
  -3   3  -1  100.52    5.74 
  -3   3  -1   92.12    5.53 
  -2   3  -1  127.46    7.11 
  -2   3  -1  122.09    6.97 
  -1   3  -1  204.32   11.03 
  -1   3  -1  201.05   11.13 
   1  -3   1  198.78   10.98 
   0   3  -1  181.55   10.13 
   0   3  -1  187.87   10.22 
   0  -3   1  185.05   10.15 
   3   3  -1   36.98    2.55 
  -3  -3   1   38.27    2.42 
  -3  -3   1   40.25    2.45 
  -4  -3   1    9.22    1.07 
  -4  -3   1    9.61    1.20 
  -4  -3   1    1.24    4.50 
  -4  -3   1    9.95    0.90 
  -5  -3   1    5.16    0.81 
  -5  -3   1    1.17    3.60 
  -5  -3   1    3.87    0.76 
  -5  -3   1    4.57    0.64 
  -6  -3   1    5.74    0.80 
  -5   4  -1  -25.50   10.15 
  -4   4  -1  183.04    9.90 
  -4   4  -1  146.24    9.43 
  -3   4  -1  157.09    9.10 
  -2   4  -1   10.15    0.91 
  -1   4  -1  291.81   16.51 
   1  -4   1  307.42   16.36 
   0   4  -1   51.02    2.97 
   0   4  -1   46.49    2.83 
   0  -4   1   50.31    2.89 
   2   4  -1  619.40   32.67 
  -2  -4   1  605.36   32.55 
  -2  -4   1  561.22   32.46 
  -3  -4   1    3.60    0.54 
  -3  -4   1    2.41    0.44 
  -4  -4   1   10.15    1.32 
  -4  -4   1   -0.54    3.91 
  -4  -4   1    3.51   11.57 
  -4  -4   1    9.46    1.17 
  -4  -4   1   10.50    0.94 
   5   4  -1   -8.35    8.50 
  -5  -4   1    1.57    3.36 
  -5  -4   1   -8.33   10.29 
  -6  -4   1   25.50    1.95 
  -5   5  -1   20.94   22.36 
  -4   5  -1   -2.31   19.08 
  -3   5  -1   51.89    3.70 
  -3   5  -1   65.52    4.10 
  -3   5  -1    4.96   29.28 
  -1   5  -1   20.12    1.48 
   0   5  -1   93.84    5.39 
   0  -5   1   90.14    5.28 
   1   5  -1    3.06    0.58 
   1   5  -1    2.61    0.39 
  -2  -5   1  458.63   25.71 
   3   5  -1   13.17    1.47 
  -3  -5   1    8.12    9.79 
  -3  -5   1   18.67    1.66 
   4   5  -1  -10.26    7.97 
  -4  -5   1   -3.57    3.06 
  -4  -5   1    3.63    8.60 
   5   5  -1   -3.91    6.31 
  -5  -5   1    0.16    1.73 
  -5   6  -1    4.78    0.52 
   5  -6   1    4.58    0.75 
  -4   6  -1  -20.60   19.66 
  -3   6  -1   13.93    1.30 
  -3   6  -1   17.26    1.51 
  -3   6  -1    3.82   20.11 
   3  -6   1   12.77    1.77 
  -2   6  -1    2.32    0.61 
  -2   6  -1   -1.52   26.03 
  -2   6  -1    2.46    0.42 
  -2   6  -1    2.44    0.58 
   2  -6   1    2.38    0.83 
   1  -6   1    0.27    0.71 
   0   6  -1  108.36    6.91 
   0   6  -1  140.71    6.80 
   0  -6   1  101.30    7.27 
   1   6  -1  260.32   14.74 
  -1  -6   1  269.47   15.52 
   3   6  -1    3.21    8.12 
  -3  -6   1    3.82    4.94 
  -3  -6   1   -2.78    5.08 
   4   6  -1    1.81    8.87 
  -4  -6   1   -0.14    2.05 
  -4  -6   1   -3.07    9.33 
   5   6  -1   -2.07    4.38 
   5   6  -1    1.31    3.22 
  -5  -6   1    0.11    2.71 
  -4   7  -1    4.77    0.49 
  -4   7  -1    9.24   15.35 
   4  -7   1    4.01    0.69 
   4  -7   1    4.50    0.74 
  -3   7  -1   18.36    1.42 
   3  -7   1   18.60    1.88 
  -2   7  -1    0.25    0.26 
  -2   7  -1   -0.09    0.30 
   2  -7   1    0.84    0.56 
   2  -7   1    0.59    0.50 
  -1   7  -1   15.70    1.15 
  -1   7  -1   16.84    1.39 
   1  -7   1   11.54    1.53 
   1  -7   1   12.77    1.60 
   0   7  -1   -1.53   24.34 
   0   7  -1   20.02    1.54 
   0  -7   1   20.32    2.15 
   0  -7   1   27.05    2.27 
   1   7  -1   34.28    2.33 
  -1  -7   1   39.77    2.99 
  -1  -7   1   36.31    2.79 
  -1  -7   1   11.07   12.30 
  -2  -7   1    2.11   10.23 
   3   7  -1    2.36    0.36 
   3   7  -1    2.03    6.40 
  -3  -7   1   -0.86    6.34 
  -3  -7   1    2.48    0.58 
  -3  -7   1    0.63    2.23 
   4   7  -1   -2.72    4.44 
   4   7  -1    0.45    2.70 
  -4  -7   1    0.04    1.57 
  -4  -7   1    0.22    0.19 
  -4  -7   1    0.33    0.24 
  -3   8  -1   -0.03    0.14 
   3  -8   1   -0.04    0.20 
   3  -8   1    0.00    0.28 
  -2   8  -1    4.75    0.78 
  -2   8  -1    3.32    0.39 
   2  -8   1    2.79    1.02 
  -1   8  -1    0.01    0.14 
   1  -8   1   -0.02    0.35 
   1  -8   1   -0.03    0.27 
   0  -8   1   33.91    2.44 
   0  -8   1   29.38    2.45 
   1   8  -1    2.38    0.33 
   1   8  -1    0.22    7.24 
  -1  -8   1    2.79    0.62 
  -1  -8   1    2.11    0.59 
   2   8  -1    1.26    7.11 
   2   8  -1    0.87    0.23 
  -2  -8   1    1.27    0.39 
  -2  -8   1    1.12    0.45 
   3   8  -1   -2.21    4.10 
   3   8  -1    7.21    0.58 
  -3  -8   1    6.89    0.74 
   0   9  -1    0.31    0.11 
   0  -9   1    0.03    0.17 
   1   9  -1    2.46    0.29 
   0  -9  -2    0.08    0.21 
   0   9   2    0.04    0.09 
  -2  -8  -2   45.00    2.84 
   2   8   2   40.87    2.55 
  -1  -8  -2    4.69    0.64 
   1   8   2    2.43    6.33 
   1   8   2    4.06    0.47 
   0   8   2   -1.53    6.47 
   1  -8  -2    0.26    0.38 
  -1   8   2    0.47    0.19 
   2  -8  -2   21.48    1.82 
  -2   8   2   21.46    1.55 
  -2   8   2   19.71    1.47 
   3  -8  -2   20.33    1.65 
  -3   8   2   20.10    1.38 
  -4  -7  -2    0.63    0.28 
  -1  -7  -2   22.73    1.96 
   1   7   2   21.95    1.56 
   1   7   2    2.15    9.35 
   0  -7  -2   11.15    1.32 
   0   7   2   10.77    0.93 
   0   7   2    1.09    9.33 
   1  -7  -2    9.87    1.40 
  -1   7   2   10.92    1.13 
  -1   7   2    9.78    0.89 
  -2   7   2   28.52    1.85 
  -2   7   2    6.90   26.38 
  -2   7   2   24.76    1.98 
  -3   7   2    7.56   18.65 
  -3   7   2    9.44    0.80 
  -4   7   2    8.49    0.76 
  -4   7   2   11.08   14.30 
  -4  -6  -2   -1.01    3.16 
   4   6   2    2.96    7.53 
   4   6   2    4.47    5.65 
  -1  -6  -2   17.15    1.69 
   1   6   2   -0.89    9.04 
   1   6   2   14.65    1.18 
   0   6   2    3.08   10.09 
   1  -6  -2   19.09    2.05 
  -1   6   2    7.82   30.61 
  -1   6   2  -13.18   26.40 
  -2   6   2  -29.46   31.91 
  -3   6   2   20.90   20.29 
  -3   6   2   11.26    0.99 
  -3   6   2   12.83    1.19 
  -3   6   2   11.65    1.16 
   4  -6  -2    2.81    0.75 
  -4   6   2    2.31   17.94 
  -4   6   2    2.84    0.48 
  -5   6   2   12.11   19.00 
  -5  -5  -2    0.98    0.29 
  -5  -5  -2   -1.44    1.34 
  -5  -5  -2    1.31    0.30 
   5   5   2    0.96    2.31 
  -4  -5  -2    0.43    0.35 
  -4  -5  -2    1.03    0.36 
  -4  -5  -2    0.01    4.54 
   4   5   2   -1.68    1.91 
   4   5   2   10.05    8.21 
  -2  -5  -2   -8.75    8.68 
  -2  -5  -2   -4.40    3.56 
   2   5   2   -2.21    8.15 
  -1  -5  -2    0.85    0.24 
   0  -5  -2   16.14    1.21 
   1  -5  -2   13.36    1.00 
  -3   5   2  -12.00   23.53 
  -4   5   2    5.37    0.74 
  -4   5   2    5.44    0.73 
  -5   5   2   -1.39   12.73 
  -5   5   2    7.22    0.76 
  -5  -4  -2    1.07    4.06 
  -5  -4  -2    1.96    0.44 
  -5  -4  -2    1.71    0.47 
   5   4   2   -2.09    3.64 
  -3  -4  -2  -13.53    9.08 
  -3  -4  -2    2.39    4.68 
   3   4   2  -18.24   11.28 
  -2  -4  -2    7.30    0.69 
  -2  -4  -2    6.18    0.62 
   2   4   2    6.42    0.76 
  -1  -4  -2  550.02   30.09 
   0  -4  -2    3.93    0.41 
   0   4   2    3.82    0.34 
   1  -4  -2  253.48   13.83 
  -1   4   2  248.48   13.71 
  -2   4   2  212.44   11.72 
  -4   4   2  -29.65   18.12 
  -5   4   2  -30.88   20.49 
  -6   4   2    8.16   13.80 
  -6   4   2    5.36    0.68 
   6   3   2    1.72    2.18 
  -5  -3  -2    0.17    4.03 
  -5  -3  -2    0.63    0.39 
  -4  -3  -2   19.71    1.81 
  -4  -3  -2   21.64    1.65 
  -4  -3  -2   22.87    1.98 
  -3  -3  -2  622.81   33.16 
  -3  -3  -2  597.71   33.13 
  -3  -3  -2  599.43   33.15 
   3   3   2  599.36   33.20 
  -2  -3  -2  157.43    8.39 
  -2  -3  -2  138.13    8.33 
   2   3   2  150.48    8.37 
  -1  -3  -2  132.29    7.64 
  -1  -3  -2  142.57    7.61 
   1   3   2  134.26    7.59 
   0  -3  -2  212.59   11.49 
   0   3   2  204.59   11.37 
   1  -3  -2  196.88   10.77 
  -1   3   2  195.17   10.70 
   2  -3  -2  758.50   40.57 
  -2   3   2  737.43   40.62 
  -3   3   2  355.34   19.53 
  -4   3   2   68.36    3.98 
  -4   3   2   12.12   21.19 
  -4   3   2   61.50    4.04 
  -5   3   2   -7.47   11.03 
  -6   3   2    8.29   19.39 
  -6  -2  -2    0.29    0.21 
  -6  -2  -2   -0.02    0.18 
  -5  -2  -2    2.36    0.64 
  -5  -2  -2    3.38    0.58 
  -5  -2  -2   -0.86    3.72 
   5   2   2    1.80    2.72 
  -4  -2  -2  214.79   12.66 
  -4  -2  -2  216.37   12.72 
  -3  -2  -2   45.86    2.89 
  -3  -2  -2   46.85    2.91 
  -3  -2  -2   44.50    2.80 
  -2  -2  -2   35.72    2.25 
  -2  -2  -2   35.23    2.22 
  -2  -2  -2   38.46    2.27 
  -1  -2  -2  461.45   24.68 
  -1  -2  -2  459.70   24.68 
   1   2   2  439.40   24.65 
   0  -2  -2  179.14   10.84 
   0   2   2  216.67   10.79 
  -3   2   2   79.51    4.52 
  -3   2   2   80.70    4.63 
  -4   2   2   13.05    1.08 
  -4   2   2   12.08    0.94 
  -5   2   2   -8.29   29.50 
  -6   2   2   -8.68   17.82 
  -6  -1  -2    6.42    0.82 
  -6  -1  -2    5.35    0.84 
  -5  -1  -2   25.09   25.43 
  -4  -1  -2   85.04    5.36 
  -4  -1  -2  101.30    6.52 
  -4  -1  -2   82.52    6.49 
  -3  -1  -2  150.72    8.30 
  -3  -1  -2  149.69    8.46 
  -3  -1  -2  145.59    8.46 
  -2  -1  -2   67.22    3.89 
  -2  -1  -2   70.50    3.97 
  -2  -1  -2   67.55    3.96 
  -1  -1  -2   27.57    1.53 
  -1  -1  -2   23.15    1.51 
  -1  -1  -2   25.46    1.51 
   2  -1  -2  437.78   23.78 
   3  -1  -2  356.79   18.69 
  -3   1   2  325.89   18.64 
  -3   1   2  343.45   18.81 
  -3   1   2  344.77   18.75 
  -4   1   2    3.36    0.64 
  -4   1   2    2.73    0.38 
  -5   1   2  -11.05   29.53 
  -6   1   2   11.02   23.48 
  -7   1   2    2.22    0.44 
  -6   0  -2    9.05   19.66 
  -5   0  -2    3.75    0.62 
  -5   0  -2    0.65   27.47 
  -4   0  -2    0.74    0.33 
  -3   0  -2   13.98    1.10 
  -3   0  -2   12.51    1.04 
  -2   0  -2  140.88    7.78 
  -2   0  -2  139.94    7.62 
  -2   0  -2  135.27    7.76 
  -2   0   2  228.62   12.45 
  -2   0   2  230.83   12.40 
  -2   0   2  221.46   12.42 
  -3   0   2  212.90   12.01 
  -3   0   2  222.66   12.15 
  -3   0   2  222.03   12.11 
  -4   0   2   12.88    1.07 
  -4   0   2   12.59    1.02 
  -5   0   2    0.29    0.31 
  -5   0   2    0.26    0.32 
  -5   0   2    0.06    0.20 
  -6   0   2    0.43    0.38 
  -6   0   2    0.12    0.22 
  -7   0   2    5.08    0.70 
  -6   1  -2  -11.57   10.91 
  -5   1  -2   15.17   25.94 
  -4   1  -2   91.39    5.58 
  -4   1  -2   79.66    5.13 
  -3   1  -2  145.47    8.27 
  -2   1  -2   61.43    3.76 
  -2   1  -2   64.62    3.67 
  -1   1  -2   26.84    1.63 
  -1   1  -2   28.19    1.54 
  -1   1  -2   27.10    1.65 
   2   1  -2  393.36   21.48 
   3   1  -2  336.96   19.53 
  -3  -1   2  359.58   19.51 
  -3  -1   2  368.48   19.43 
  -3  -1   2  355.17   19.48 
   4   1  -2    3.57    0.57 
  -4  -1   2    3.89    0.52 
  -4  -1   2    2.99    0.45 
  -5  -1   2    2.14    5.42 
  -5  -1   2    4.24    0.76 
  -5  -1   2    4.06    0.57 
  -5  -1   2    5.52    0.80 
  -6  -1   2    0.16    0.37 
  -6  -1   2    0.13    0.32 
  -7  -1   2    0.71    0.30 
  -6   2  -2   12.52   15.50 
  -5   2  -2   -3.10   24.13 
  -4   2  -2  181.12   11.70 
  -4   2  -2  235.77   12.94 
  -3   2  -2   45.28    2.82 
  -3   2  -2   44.50    2.92 
  -2   2  -2   39.82    2.49 
  -2   2  -2   40.16    2.43 
  -1   2  -2  434.51   24.21 
  -1   2  -2  460.09   24.35 
   0   2  -2  176.74    9.82 
   0   2  -2  170.81    9.77 
   0  -2   2  186.60    9.75 
   3   2  -2   82.07    4.81 
  -3  -2   2   80.19    4.68 
  -3  -2   2   81.41    4.70 
   4   2  -2   13.73    1.48 
  -4  -2   2   13.34    1.07 
  -4  -2   2   13.80    1.10 
  -5  -2   2   16.19    1.56 
  -5  -2   2   16.67    1.35 
  -5  -2   2   18.33    1.76 
  -6  -2   2   15.15    1.32 
  -6  -2   2   14.15    1.47 
  -6   3  -2    3.52   11.75 
  -5   3  -2   -3.24   18.00 
  -4   3  -2   19.84    1.69 
  -4   3  -2   24.27    1.72 
  -4   3  -2   23.07    2.03 
  -4   3  -2   37.18   35.98 
  -3   3  -2  649.25   35.72 
  -2   3  -2  168.38    9.60 
  -2   3  -2  171.01    9.47 
  -1   3  -2  136.26    7.65 
  -1   3  -2  142.83    7.75 
   1  -3   2  134.05    7.51 
   0   3  -2  192.73   11.12 
   0   3  -2  202.87   11.20 
   0  -3   2  211.26   11.11 
  -1  -3   2  186.89   10.28 
  -1  -3   2  186.76   10.32 
   2   3  -2  753.98   41.15 
   3   3  -2  373.13   21.20 
  -3  -3   2  387.88   21.03 
  -3  -3   2  385.94   21.04 
  -4  -3   2   71.13    4.25 
  -4  -3   2   72.75    4.87 
  -4  -3   2   66.84    4.57 
  -5  -3   2   -5.85   21.77 
  -5  -3   2    0.13    3.07 
  -6  -3   2    1.58    0.38 
  -6  -3   2    1.21    0.42 
  -6  -3   2    0.28    2.30 
  -5   4  -2  -12.81   10.85 
  -4   4  -2  192.02   10.95 
  -4   4  -2  179.30   10.59 
  -3   4  -2  -10.17   19.74 
  -2   4  -2    8.63    0.83 
  -2   4  -2    6.66    0.66 
  -1   4  -2  580.05   32.03 
  -1   4  -2  591.07   31.90 
   0   4  -2    3.84    0.45 
   0   4  -2    3.27    0.37 
   0  -4   2    3.26    0.36 
   1   4  -2  240.84   14.08 
  -1  -4   2  255.28   14.01 
  -1  -4   2  265.09   14.14 
   2   4  -2  213.72   11.87 
  -2  -4   2  208.27   11.66 
  -2  -4   2  208.39   11.73 
   3   4  -2    0.60    0.59 
  -4  -4   2   19.15    1.36 
  -4  -4   2   -3.27    9.41 
  -4  -4   2   18.48    1.70 
  -4  -4   2   15.48    1.73 
   5   4  -2  -20.37   13.54 
  -5  -4   2  -12.23    8.87 
  -5  -4   2   -0.53    4.57 
  -6  -4   2    8.49    0.79 
  -6  -4   2    6.99    0.87 
  -5   5  -2   -0.04   12.47 
  -5   5  -2    0.84    0.27 
   5  -5   2    0.46    0.40 
  -4   5  -2  -33.94   17.24 
  -3   5  -2  196.90   12.16 
  -3   5  -2  219.08   11.90 
  -2   5  -2   13.04    1.47 
  -2   5  -2   10.20    1.25 
  -1   5  -2    0.88    0.32 
   0   5  -2   17.03    1.30 
   0  -5   2   16.70    1.18 
   1   5  -2   13.94    1.15 
   1   5  -2   12.82    0.99 
  -1  -5   2   12.69    1.03 
   2   5  -2  142.43    7.94 
  -2  -5   2  137.11    7.93 
  -2  -5   2  140.80    8.06 
   3   5  -2    4.60    0.63 
  -3  -5   2    9.33    9.53 
  -3  -5   2    6.65    0.88 
  -3  -5   2    4.66    0.97 
  -3  -5   2    6.19    0.68 
  -3  -5   2    6.28    1.02 
  -3  -5   2   -0.47    4.34 
  -4  -5   2   -2.55    5.90 
  -4  -5   2   -9.66    6.41 
   5   5  -2   -3.24    7.14 
  -5  -5   2    1.28    7.90 
  -5  -5   2    0.75    4.31 
  -4   6  -2    1.80   20.89 
  -4   6  -2   18.22    1.71 
  -4   6  -2   17.30    1.47 
   4  -6   2   20.55    2.06 
  -3   6  -2   55.61    3.60 
  -3   6  -2   10.96   21.27 
  -3   6  -2   59.60    3.89 
  -2   6  -2   62.29    3.84 
  -2   6  -2   70.97    4.47 
  -2   6  -2   61.09    4.10 
   2  -6   2   64.63    4.96 
  -1   6  -2   15.53    1.23 
  -1   6  -2   16.48    1.45 
   1  -6   2   17.47    2.04 
   0   6  -2   22.00    1.79 
   0  -6   2   24.26    2.96 
   0  -6   2   21.98    2.23 
   1   6  -2   33.78    2.39 
  -1  -6   2   36.57    2.46 
  -1  -6   2   41.84    3.13 
   2   6  -2   67.79    4.18 
  -2  -6   2   69.41    4.85 
  -2  -6   2   67.54    4.54 
  -2  -6   2   70.04    4.19 
   3   6  -2   12.03    1.01 
  -3  -6   2   12.09    1.29 
  -3  -6   2   15.40    9.65 
  -3  -6   2   12.38    1.49 
   4   6  -2    4.41    8.08 
  -4  -6   2   -4.06    5.24 
  -4  -6   2    5.56    0.86 
  -4  -6   2    5.36    0.83 
   5   6  -2   -3.88    3.77 
  -5  -6   2    0.38    0.21 
  -5  -6   2   -0.21    1.86 
  -5  -6   2    0.30    0.20 
   4  -7   2    0.43    0.30 
   3  -7   2   20.82    2.05 
   3  -7   2   18.88    1.94 
  -2   7  -2   16.51    1.15 
   2  -7   2   14.76    2.40 
  -1   7  -2   18.88    1.39 
  -1   7  -2   18.71    1.55 
   1  -7   2   20.96    2.08 
   0   7  -2   13.08    1.00 
   0  -7   2   12.50    1.53 
   0  -7   2   10.64    1.39 
   1   7  -2   -1.78    8.55 
  -1  -7   2   -0.52    8.18 
   2   7  -2   26.12    1.77 
  -2  -7   2   23.26    2.18 
  -2  -7   2   27.63    2.10 
  -2  -7   2    8.38    7.50 
   3   7  -2   10.49    0.83 
   3   7  -2   -3.40    6.68 
  -3  -7   2    1.73    8.69 
   4   7  -2   -1.74    5.48 
   2  -8   2   26.01    2.09 
  -1   8  -2    2.68    0.36 
   1  -8   2    3.14    0.63 
   0   8  -2    0.53    0.20 
   0  -8   2    0.67    0.38 
   0  -8   2    0.79    0.38 
   1   8  -2    0.18    0.16 
   1   8  -2    1.54    6.73 
  -1  -8   2    0.76    0.31 
  -1  -8   2    0.42    0.28 
   2   8  -2   16.81    1.13 
   2   8  -2   11.54   12.45 
  -2  -8   2   13.78    1.49 
   3   8  -2    3.22    5.52 
   3   8  -2   13.61    0.89 
  -3  -8   2   13.45    1.15 
   0   9  -2   -0.05    0.09 
   0  -9   2    0.09    0.19 
   0  -9   2    0.06    0.16 
   1   8   3   -1.26    5.43 
   0  -8  -3    2.05    0.49 
   0   8   3    1.40    0.30 
   0   8   3    0.88    8.03 
   1  -8  -3    5.77    0.85 
  -1   8   3    5.07    0.55 
  -2   8   3    1.64    0.35 
   3  -8  -3   13.41    1.10 
  -3   8   3    9.98    0.75 
   3   7   3   -1.80    5.95 
   3   7   3    2.40    3.74 
  -2  -7  -3    9.78    1.09 
   2   7   3   10.51    1.06 
   2   7   3   10.93   10.48 
  -1  -7  -3   28.78    2.33 
   1   7   3   30.55    2.00 
   0  -7  -3   36.38    2.76 
   0   7   3   33.37    2.27 
   1  -7  -3   14.67    1.71 
  -1   7   3   16.17    1.24 
  -1   7   3   16.25    1.42 
   2  -7  -3   23.47    2.31 
  -2   7   3   31.80    2.12 
  -2   7   3   -2.91   20.29 
  -2   7   3   26.06    1.87 
   3  -7  -3    5.55    0.95 
  -3   7   3    7.31   19.01 
  -3   7   3    6.48    0.75 
  -3   7   3    5.25    0.58 
  -4   7   3    6.39   16.76 
  -4   7   3    3.36    0.46 
   4   6   3   -0.30    2.12 
  -3  -6  -3   -2.28    1.64 
   3   6   3    2.17    8.90 
   3   6   3    0.00    4.29 
   2   6   3    0.83    8.55 
   0  -6  -3    1.04    0.53 
   0   6   3    0.64    0.26 
   0   6   3    1.42    9.54 
   1  -6  -3   20.49    2.06 
  -1   6   3   22.60   28.68 
  -1   6   3   -4.23   11.28 
  -2   6   3   -4.11   25.25 
  -3   6   3   -8.15   26.28 
  -4   6   3  -11.29   13.34 
  -5   6   3    0.13   12.59 
   5   5   3   -0.49    1.77 
  -4  -5  -3   -0.63    3.15 
  -4  -5  -3    0.46    0.30 
   4   5   3    2.06    3.98 
   4   5   3    0.54    6.64 
  -3  -5  -3    1.30    5.15 
   3   5   3   -1.55    3.99 
   3   5   3    4.71    9.96 
  -2  -5  -3    2.63    5.65 
   2   5   3   -2.84    8.46 
   2   5   3    1.69    4.23 
  -1  -5  -3    5.11    0.61 
   0  -5  -3   97.47    5.72 
   1  -5  -3   19.46    1.41 
  -3   5   3    3.58   26.70 
  -3   5   3   24.16    1.66 
  -3   5   3   22.13    1.82 
  -4   5   3    9.82    1.00 
  -4   5   3   15.36   21.08 
  -5   5   3    0.39   19.30 
   5   4   3    0.24    2.65 
  -3  -4  -3   -0.66    3.10 
   3   4   3  -11.50    8.64 
   3   4   3    2.67    4.58 
  -2  -4  -3    0.83    0.25 
  -2  -4  -3    0.91    0.25 
  -1  -4  -3    1.21    0.26 
   0  -4  -3    9.73    0.81 
   1  -4  -3   29.43    1.89 
   2  -4  -3  329.27   18.08 
  -4   4   3   39.12   35.71 
  -5   4   3   12.37    1.11 
  -5   4   3   11.25    1.15 
  -5   4   3   22.94   17.40 
  -6   4   3   -6.21   11.84 
  -5  -3  -3    5.63    0.71 
  -5  -3  -3    4.88    0.72 
   5   3   3    1.55    4.64 
  -4  -3  -3    4.00    1.30 
  -4  -3  -3    2.54    4.44 
  -3  -3  -3   79.47    4.83 
  -3  -3  -3   86.73    4.90 
   3   3   3   74.81    4.83 
  -2  -3  -3   21.17    1.60 
  -2  -3  -3   25.84    1.68 
   2   3   3   25.20    1.62 
  -1  -3  -3  122.36    6.85 
  -1  -3  -3  120.02    6.75 
   1   3   3  119.23    6.70 
   0  -3  -3  109.09    6.16 
   1  -3  -3  185.12   10.24 
   2  -3  -3   50.41    2.98 
  -2   3   3   51.87    2.89 
  -4   3   3   34.93   29.97 
  -4   3   3   19.16    1.55 
  -5   3   3   36.69   30.97 
  -5   3   3   18.28    1.75 
  -5   3   3   24.68    1.75 
  -6   3   3   22.03   21.82 
  -5  -2  -3    7.88    0.89 
  -5  -2  -3    5.95    0.83 
   5   2   3    0.92    3.20 
  -4  -2  -3   28.41    2.13 
  -4  -2  -3   27.64    2.19 
  -4  -2  -3   39.85   30.47 
  -4  -2  -3   32.87    2.50 
  -3  -2  -3  124.55    7.25 
  -3  -2  -3  123.76    7.18 
  -3  -2  -3  128.80    7.30 
  -2  -2  -3   86.08    4.87 
  -2  -2  -3   82.15    4.81 
  -2  -2  -3   82.35    4.82 
  -1  -2  -3   28.91    1.92 
  -1  -2  -3   30.56    1.93 
   1   2   3   36.99    1.99 
   0  -2  -3  387.30   21.12 
   1  -2  -3  196.69   10.80 
   2  -2  -3   45.47    2.77 
  -2   2   3   46.21    2.73 
  -2   2   3   52.71    2.71 
   3  -2  -3  114.28    6.35 
  -3   2   3  109.49    6.40 
  -3   2   3  117.62    6.35 
  -4   2   3   23.24    1.64 
  -5   2   3   -3.98   13.07 
  -6   2   3   29.70   21.85 
  -6  -1  -3    0.62    0.24 
  -5  -1  -3  -10.31   22.09 
  -4  -1  -3   11.26    1.28 
  -4  -1  -3   10.65    1.17 
  -4  -1  -3   36.74   30.08 
  -4  -1  -3   12.43    1.12 
   4   1   3    1.75    4.27 
  -3  -1  -3   64.86    3.95 
  -3  -1  -3   62.09    4.08 
  -3  -1  -3   77.98    4.33 
  -1  -1  -3  366.62   19.53 
  -1  -1  -3  349.06   19.54 
   0  -1  -3  294.69   15.69 
   0  -1  -3  267.89   15.65 
   0  -1  -3  293.07   15.60 
   0   1   3  294.86   15.60 
   2  -1  -3  212.48   11.68 
  -2   1   3  223.19   11.65 
  -2   1   3  203.23   11.65 
   3  -1  -3  367.07   21.80 
  -3   1   3  409.04   21.88 
  -3   1   3  423.29   21.83 
  -4   1   3   30.42    1.98 
  -4   1   3   32.39    2.10 
  -5   1   3   16.35    1.65 
  -5   1   3   16.39    1.26 
  -5   1   3   42.43   33.75 
  -5   1   3   17.37    1.48 
  -6   1   3    1.45    0.48 
  -6   1   3    2.28    0.71 
  -7   1   3    2.91    0.40 
  -7   1   3    4.06    0.43 
  -6   0  -3    3.10   14.97 
  -5   0  -3  -45.65   18.11 
  -4   0  -3    0.51    0.38 
  -4   0  -3   -0.08    0.15 
  -3   0  -3  489.41   26.93 
  -3   0  -3  488.78   26.93 
  -2   0  -3  444.28   24.36 
  -2   0  -3  455.33   24.38 
  -2   0  -3  435.22   24.21 
   3   0  -3    1.99    0.38 
  -3   0   3    1.72    0.24 
  -3   0   3    1.32    0.26 
  -3   0   3    1.38    0.24 
   4   0  -3  188.35   10.47 
   4   0  -3  167.18   10.27 
  -4   0   3  187.49   10.38 
  -4   0   3  187.59   10.22 
  -4   0   3  190.63   10.59 
  -5   0   3    5.09    0.70 
  -5   0   3    4.48    0.56 
  -5   0   3    4.23    0.79 
  -6   0   3    3.85    0.83 
  -7   0   3    4.32    0.52 
  -6   1  -3   14.57   14.40 
  -5   1  -3   -0.10   23.20 
  -5   1  -3    2.13    0.47 
  -5   1  -3    1.28    0.45 
  -4   1  -3   12.67    1.50 
  -4   1  -3   12.64    1.20 
  -4   1  -3   13.06    1.36 
  -4   1  -3   11.47   19.44 
  -3   1  -3   78.33    4.75 
  -1   1  -3  328.09   18.80 
  -1   1  -3  340.84   18.70 
  -1   1  -3  363.42   18.83 
   0   1  -3  292.33   16.63 
   0   1  -3  298.49   16.62 
   0   1  -3  310.97   16.60 
   0  -1   3  316.50   16.59 
   2   1  -3  192.41   11.30 
  -2  -1   3  210.70   11.26 
  -2  -1   3  210.62   11.26 
   3   1  -3  422.13   23.51 
  -3  -1   3  433.52   23.43 
  -3  -1   3  445.06   23.41 
  -3  -1   3  412.39   23.45 
   4   1  -3   33.72    2.30 
  -4  -1   3   31.41    2.12 
  -4  -1   3   31.65    2.17 
  -4  -1   3   33.98    2.09 
  -5  -1   3   17.14    1.59 
  -5  -1   3   17.10    1.38 
  -5  -1   3   20.20    1.86 
  -6  -1   3    2.31    0.67 
  -6  -1   3    2.71    0.80 
  -6   2  -3    3.29   13.55 
  -6   2  -3    2.94    0.50 
  -6   2  -3    3.44    0.53 
  -5   2  -3    5.98   25.94 
  -5   2  -3    7.13    1.08 
  -5   2  -3    6.63    0.72 
  -4   2  -3   29.19    2.13 
  -4   2  -3   25.23    2.05 
  -4   2  -3   26.44   20.72 
  -4   2  -3   34.24    2.47 
  -3   2  -3  140.39    7.67 
  -3   2  -3  123.66    7.69 
  -2   2  -3   83.88    5.00 
  -2   2  -3   86.44    4.96 
  -1   2  -3   34.46    1.82 
  -1   2  -3   29.15    1.94 
   0   2  -3  381.19   22.02 
   0   2  -3  403.42   22.05 
   0  -2   3  426.39   21.98 
   1   2  -3  201.28   11.02 
   1   2  -3  192.64   10.95 
  -1  -2   3  210.41   10.95 
  -1  -2   3  191.58   10.92 
   2   2  -3   47.60    2.96 
  -2  -2   3   48.28    2.86 
  -2  -2   3   50.31    2.87 
   3   2  -3  112.29    6.51 
  -3  -2   3  112.37    6.38 
  -3  -2   3  111.68    6.37 
  -4  -2   3   23.95    1.68 
  -4  -2   3   24.11    1.66 
  -5  -2   3    0.71    0.39 
  -5  -2   3   -1.95    3.33 
  -5  -2   3    1.32    0.31 
  -6  -2   3    4.85    0.79 
  -6  -2   3    4.56    4.85 
  -6  -2   3    5.01    0.70 
  -5   3  -3    4.14    0.55 
  -5   3  -3    5.04    0.70 
  -5   3  -3   10.49   25.75 
  -4   3  -3    7.30    1.06 
  -3   3  -3  100.82    5.81 
  -3   3  -3   94.82    5.96 
  -2   3  -3   28.70    1.92 
  -2   3  -3   29.44    2.02 
  -1   3  -3  128.18    7.12 
  -1   3  -3  131.56    7.12 
  -1   3  -3  116.24    6.85 
   0   3  -3  113.20    6.19 
   0   3  -3  113.83    6.25 
   0  -3   3  102.34    6.11 
   1   3  -3  182.63    9.96 
   1   3  -3  172.20    9.86 
  -1  -3   3  183.24    9.86 
  -1  -3   3  173.97    9.83 
   2   3  -3   55.76    3.44 
  -2  -3   3   56.32    3.29 
  -2  -3   3   55.40    3.31 
   3   3  -3   32.78    2.29 
  -3  -3   3   34.01    2.15 
  -3  -3   3   32.04    2.13 
  -4  -3   3   22.29    1.95 
  -4  -3   3   22.81    1.63 
  -4  -3   3   11.05   10.71 
  -4  -3   3   24.04    2.17 
  -5  -3   3   24.82    2.32 
  -5  -3   3   17.99   13.67 
  -5  -3   3   26.16    2.06 
  -5  -3   3   27.89    1.86 
  -6  -3   3    0.42    3.09 
  -6  -3   3    3.32    0.55 
  -6  -3   3    3.07    0.60 
  -5   4  -3   -2.24   11.93 
  -4   4  -3   24.47    2.00 
  -4   4  -3   23.01    1.71 
  -4   4  -3    5.08   26.53 
  -3   4  -3   -3.18   16.64 
  -2   4  -3    3.69    0.87 
  -1   4  -3    2.30    0.36 
  -1   4  -3    3.11    0.45 
   0   4  -3    8.60    0.79 
   0   4  -3    8.74    0.71 
   0  -4   3    8.42    0.67 
   1   4  -3   28.89    1.93 
   1   4  -3   26.70    1.80 
  -1  -4   3   29.06    1.81 
   2   4  -3  315.09   17.02 
   2   4  -3  297.64   16.83 
  -2  -4   3  304.71   16.86 
  -2  -4   3  302.66   16.81 
   3   4  -3    6.16    0.79 
  -3  -4   3    4.14    0.57 
  -3  -4   3    5.65    0.57 
  -4  -4   3    3.98    5.46 
  -4  -4   3   18.05   13.04 
  -5  -4   3   27.49   13.78 
  -5  -4   3   13.76    1.51 
  -5  -4   3   12.24    1.27 
  -6  -4   3    1.33    0.30 
  -6  -4   3    1.32    2.85 
  -5   5  -3  -12.84   11.73 
  -4   5  -3   16.48   20.16 
  -3   5  -3   25.72   25.85 
  -3   5  -3   24.11    1.95 
  -3   5  -3   18.51    1.56 
  -2   5  -3   11.77   25.19 
  -2   5  -3    8.05    1.03 
   2  -5   3    5.88    1.16 
  -1   5  -3    4.98    0.64 
   0   5  -3   92.05    5.31 
   0   5  -3   86.85    5.15 
   1   5  -3   22.49    1.61 
  -1  -5   3   18.99    1.45 
   2   5  -3   62.71    3.81 
  -2  -5   3   64.04    3.88 
  -2  -5   3   62.74    3.80 
   3   5  -3   23.09    1.69 
   3   5  -3   21.13    1.70 
  -3  -5   3   25.83    1.70 
  -3  -5   3   13.05   10.31 
  -3  -5   3   25.16    1.71 
  -3  -5   3   21.83    1.93 
  -3  -5   3   25.81    2.35 
  -4  -5   3    9.62    1.17 
  -4  -5   3   11.86    1.38 
   5   5  -3    7.19    9.49 
  -5  -5   3    6.20    8.69 
  -5  -5   3   -3.11    3.33 
  -5  -5   3    4.96    0.79 
  -4   6  -3    0.34    0.19 
  -4   6  -3    0.62    0.29 
  -4   6  -3   -7.05   12.71 
   4  -6   3    0.42    0.38 
  -3   6  -3    6.87    1.08 
  -3   6  -3    5.26    0.62 
  -3   6  -3   -3.92   15.13 
   3  -6   3    6.62    1.85 
  -2   6  -3   26.30    2.06 
  -2   6  -3   28.12    2.36 
   2  -6   3   35.40    3.02 
  -1   6  -3   47.00    3.18 
  -1   6  -3   54.92    3.07 
   1  -6   3   44.00    3.85 
   0   6  -3    0.37    0.31 
   0   6  -3    0.41    0.20 
   0  -6   3    0.12    0.23 
   0  -6   3    1.08    0.52 
   1   6  -3   28.32    2.03 
  -1  -6   3   28.15    2.39 
  -1  -6   3    6.93   11.30 
  -1  -6   3   34.79    2.77 
  -1  -6   3   31.47    2.11 
   2   6  -3   19.13    1.49 
  -2  -6   3    8.90    8.05 
  -2  -6   3   20.80    1.77 
  -2  -6   3   22.23    2.12 
  -2  -6   3   18.87    1.49 
  -3  -6   3   -5.91    7.22 
  -3  -6   3  -16.57   15.57 
  -4  -6   3    8.93    8.70 
  -4  -6   3   15.21    1.35 
  -4  -6   3   16.29    1.62 
   5   6  -3    0.66    4.86 
  -5  -6   3    0.64    0.29 
  -5  -6   3    0.63    0.29 
  -5  -6   3   -0.66    2.01 
  -5  -6   3   -3.28    4.39 
   3  -7   3    2.67    0.61 
   3  -7   3    3.26    1.04 
  -2   7  -3    6.72    0.67 
   2  -7   3    5.38    0.98 
   2  -7   3    6.17    1.01 
  -1   7  -3   25.83    1.60 
  -1   7  -3   23.70    1.70 
   1  -7   3   20.77    2.01 
   1  -7   3   20.44    2.16 
   0   7  -3   32.30    2.25 
   0  -7   3   35.59    2.66 
   0  -7   3   37.51    3.01 
   1   7  -3   -0.77    9.10 
  -1  -7   3   11.88    1.42 
  -1  -7   3    7.28    8.66 
   2   7  -3   30.94    2.03 
  -2  -7   3   35.00    2.68 
  -2  -7   3   27.94    2.29 
  -2  -7   3   10.72    9.25 
   3   7  -3    0.76    5.42 
   3   7  -3    5.68    0.60 
  -3  -7   3    7.35    0.84 
   4   7  -3   -7.19    4.73 
  -4  -7   3   -1.46    2.56 
   2  -8   3   18.47    1.70 
   2  -8   3   24.55    1.61 
  -1   8  -3    0.81    0.22 
   1  -8   3    0.72    0.38 
   0   8  -3    0.84    0.23 
   0  -8   3    1.16    0.44 
   1   8  -3   -0.27   10.28 
   1   8  -3    5.45    0.53 
  -1  -8   3    5.84    1.18 
  -1  -8   3    5.54    0.83 
   2   8  -3    3.59    0.49 
   2   8  -3    1.33    5.59 
  -2  -8   3    4.27    0.58 
   3   8  -3   10.26    0.79 
  -3  -8   3   10.83    1.03 
  -3  -8   3   13.70    0.91 
   1   8   4   -2.10    4.02 
   0   8   4   -6.92    4.67 
   1  -8  -4    8.61    1.06 
  -1   8   4    7.85    0.70 
  -2   8   4    4.78    0.47 
   3  -8  -4    9.11    0.81 
  -3  -7  -4    0.72    0.31 
   3   7   4    0.27    2.30 
   3   7   4   -1.93    4.23 
  -2  -7  -4   18.64    1.53 
   2   7   4   18.10   10.45 
   1   7   4   10.95    7.45 
   0   7   4    4.69    7.83 
  -1   7   4  -27.82   20.51 
  -1   7   4   18.67   14.78 
   2  -7  -4    4.86    0.94 
  -2   7   4   18.17   31.84 
  -2   7   4    4.58    0.90 
  -2   7   4    5.68    0.95 
   3  -7  -4    2.78    0.71 
  -3   7   4    3.76    0.54 
  -3   7   4    9.02   25.07 
  -3   7   4    3.82    0.46 
   4  -7  -4    0.63    0.36 
  -4   7   4    1.00    0.24 
  -4   7   4    3.02   12.38 
  -4  -6  -4    0.15    0.17 
   4   6   4   -0.20    3.09 
  -3  -6  -4    3.46    0.63 
   3   6   4    0.39    3.31 
   3   6   4    4.19    8.06 
  -2  -6  -4    1.76    0.44 
   2   6   4  -12.57    8.02 
   2   6   4    0.90    3.39 
   1   6   4    4.38    0.76 
   1   6   4    2.08    4.48 
   1   6   4    9.84   11.78 
   0  -6  -4    3.25    0.83 
   0   6   4    5.06   24.79 
   0   6   4    2.95    0.44 
   0   6   4    3.07    7.01 
   1  -6  -4   34.63    3.04 
  -1   6   4   15.52   31.00 
  -1   6   4   39.12    2.72 
  -1   6   4   42.59    2.57 
  -2   6   4   16.50    1.86 
  -2   6   4   13.77    1.17 
  -3   6   4    0.37    0.23 
  -3   6   4  -11.89   25.12 
  -3   6   4    0.56    0.30 
  -4   6   4   24.44   30.06 
  -4   6   4   14.27    1.17 
  -5   6   4    2.56   12.53 
  -5   6   4    2.32    0.38 
  -4  -5  -4    0.53    0.43 
   4   5   4   -0.17    2.60 
   4   5   4   -2.63    7.58 
  -3  -5  -4   -0.21    0.29 
  -3  -5  -4    0.28    3.85 
   3   5   4   -1.83    3.48 
  -2  -5  -4   -0.16    2.79 
   2   5   4    2.93    8.19 
   2   5   4    1.05    4.72 
   0  -5  -4  129.44    7.53 
   1  -5  -4   18.22    1.41 
  -2   5   4  -36.79   22.61 
  -3   5   4   17.54    1.51 
  -3   5   4   17.41    1.34 
  -4   5   4   20.17    1.59 
  -4   5   4    8.33   24.31 
  -5   5   4    2.97   20.09 
   5   4   4   -1.16    1.93 
   4   4   4   -0.84    2.75 
  -3  -4  -4    2.78    5.22 
   3   4   4    0.67    9.72 
   3   4   4   -1.33    5.14 
  -2  -4  -4    1.08    3.64 
   2   4   4   -1.79    4.28 
   2   4   4    1.96    8.88 
  -1  -4  -4  303.82   16.92 
   0  -4  -4   66.51    4.01 
   2  -4  -4   87.55    5.09 
  -3   4   4  -19.07   19.76 
  -4   4   4   28.26   33.36 
  -5   4   4    7.50   22.73 
  -5   4   4    8.92    1.06 
  -6   4   4   -0.68   12.91 
  -4  -3  -4   12.55    1.20 
  -4  -3  -4   18.71   27.82 
   4   3   4    0.37    5.64 
  -3  -3  -4    9.83   24.55 
  -3  -3  -4    1.14    6.04 
   3   3   4   -0.89    4.41 
  -2  -3  -4   15.22    1.18 
  -2  -3  -4   13.07    1.09 
  -1  -3  -4  123.97    7.02 
  -1  -3  -4  120.90    6.89 
   0  -3  -4  825.83   44.95 
   1  -3  -4   64.27    3.76 
   2  -3  -4   22.35    1.47 
  -4   3   4    6.33   27.11 
  -5   3   4  -20.42   17.42 
  -6   3   4  -19.64   12.43 
  -5  -2  -4    2.81    0.54 
  -5  -2  -4  -35.95   12.85 
   5   2   4    1.57    3.28 
  -4  -2  -4   31.30    2.63 
  -4  -2  -4   34.48    2.54 
  -4  -2  -4   34.90    2.76 
  -3  -2  -4   44.21    2.85 
  -3  -2  -4   45.71    2.91 
  -3  -2  -4   41.94    2.80 
  -2  -2  -4   53.02    3.17 
  -2  -2  -4   48.96    3.08 
  -2  -2  -4   53.02    3.19 
  -1  -2  -4  286.02   15.65 
  -1  -2  -4  282.84   15.67 
   0  -2  -4  354.56   18.34 
   0  -2  -4  314.64   18.23 
   1  -2  -4   47.81    2.65 
   1  -2  -4   46.50    2.78 
   2  -2  -4  120.33    6.74 
   3  -2  -4   39.66    2.48 
   3  -2  -4   42.01    2.46 
  -3   2   4   39.77    2.39 
  -5   2   4   -6.41   17.87 
  -6   2   4   30.46    1.98 
  -6   2   4   20.76   29.40 
  -6   2   4   25.26    2.01 
  -5  -1  -4    5.27   17.41 
  -5  -1  -4    0.90    0.29 
  -5  -1  -4    1.43    0.37 
  -4  -1  -4  -33.58   17.35 
   4   1   4    4.74    4.04 
  -3  -1  -4    4.90    0.60 
  -3  -1  -4    4.38    0.60 
  -2  -1  -4   21.11    1.46 
  -2  -1  -4   22.74    1.56 
  -2  -1  -4   22.25    1.51 
  -1  -1  -4  169.73   10.19 
  -1  -1  -4  188.89   10.26 
  -1  -1  -4  196.93   10.26 
   0  -1  -4   53.48    2.97 
   0  -1  -4   52.36    2.85 
   0  -1  -4   48.09    2.93 
   1  -1  -4  681.91   35.84 
   1  -1  -4  639.39   35.72 
   2  -1  -4  533.26   28.68 
   2  -1  -4  520.34   28.64 
   3  -1  -4   18.13    1.35 
   3  -1  -4   21.91    1.35 
  -3   1   4   20.28    1.33 
  -3   1   4   20.99    1.30 
   4  -1  -4   56.08    3.46 
  -4   1   4   56.16    3.39 
  -4   1   4   54.76    3.28 
  -5   1   4    2.54    0.65 
  -5   1   4    3.14    0.59 
  -6   1   4   27.90    1.95 
  -6   1   4   26.09    2.09 
  -7   1   4    1.88    0.28 
  -5   0  -4    4.13   18.91 
  -5   0  -4    6.85    0.83 
  -5   0  -4    6.58    0.69 
  -4   0  -4   21.92    1.70 
  -4   0  -4   23.49    1.83 
  -4   0  -4   22.91    1.95 
  -4   0  -4   42.92   28.42 
  -3   0  -4  159.54    9.49 
  -3   0  -4  172.70    9.57 
  -2   0  -4  616.79   33.13 
  -2   0  -4  594.55   33.08 
  -2   0  -4  604.90   32.95 
  -1   0  -4   17.87    1.18 
  -1   0  -4   18.22    1.21 
  -1   0  -4   17.58    1.14 
   0   0  -4  156.36    8.87 
   0   0  -4  157.51    8.82 
   0   0  -4  168.67    8.86 
   2   0  -4   47.38    2.94 
  -2   0   4   51.57    2.90 
  -2   0   4   51.83    2.94 
   3   0  -4    9.01    0.77 
   3   0  -4    9.25    0.73 
  -3   0   4    9.17    0.71 
  -3   0   4    9.23    0.70 
   4   0  -4   82.10    4.92 
   4   0  -4   78.56    4.77 
  -4   0   4   81.68    4.74 
  -4   0   4   81.79    4.72 
  -4   0   4   83.63    4.82 
  -5   0   4    1.29    0.48 
  -5   0   4    1.17    0.44 
  -6   0   4   42.30    2.87 
  -6   0   4   45.08    3.16 
  -5   1  -4    7.21   24.41 
  -4   1  -4    6.28    0.80 
  -4   1  -4    4.31   27.58 
  -4   1  -4    4.53    0.80 
  -4   1  -4    4.96    0.67 
  -3   1  -4    4.45    0.69 
  -3   1  -4    5.68    0.67 
  -2   1  -4   21.83    1.56 
  -2   1  -4   22.50    1.57 
  -1   1  -4  194.21   10.97 
  -1   1  -4  205.03   10.97 
  -1   1  -4  194.43   10.85 
   0   1  -4   54.57    3.10 
   0   1  -4   52.42    3.14 
   0   1  -4   56.21    3.13 
   0  -1   4   53.75    3.10 
   2   1  -4  559.94   30.56 
   3   1  -4   19.97    1.39 
  -3  -1   4   18.83    1.27 
  -3  -1   4   17.41    1.25 
   4   1  -4   57.79    3.68 
  -4  -1   4   56.26    3.46 
  -4  -1   4   58.08    3.45 
  -5  -1   4    3.53    0.48 
  -5  -1   4    4.00    0.76 
  -5  -1   4    1.80    5.18 
  -5  -1   4    3.84    0.69 
  -6  -1   4   26.61    1.88 
  -6  -1   4   24.40    2.12 
  -7  -1   4    0.90    0.24 
  -5   2  -4   25.99   19.79 
  -4   2  -4   18.67   30.44 
  -4   2  -4   33.08    2.99 
  -4   2  -4   31.50    2.54 
  -3   2  -4   46.44    3.28 
  -3   2  -4   48.40    3.13 
  -2   2  -4   53.00    3.33 
  -2   2  -4   54.86    3.38 
  -1   2  -4  287.50   15.36 
  -1   2  -4  281.55   15.33 
  -1   2  -4  264.58   15.14 
   0   2  -4  362.83   20.71 
   0   2  -4  384.15   20.65 
   0  -2   4  388.15   20.65 
   1   2  -4   51.55    3.06 
   1   2  -4   48.74    2.94 
  -1  -2   4   50.15    2.92 
  -1  -2   4   48.82    2.90 
   2   2  -4  121.66    7.14 
  -2  -2   4  123.83    7.03 
  -2  -2   4  130.22    7.03 
   3   2  -4   45.40    3.11 
  -3  -2   4   45.79    2.77 
  -3  -2   4   45.09    2.77 
   4   2  -4   31.76    2.42 
  -4  -2   4   33.79    2.19 
  -4  -2   4   34.60    2.21 
  -5  -2   4    5.86   11.32 
  -6  -2   4   28.46    2.39 
  -6  -2   4   33.12    2.16 
  -5   3  -4   15.50    1.33 
  -5   3  -4    8.27   16.69 
  -4   3  -4   13.34    1.30 
  -4   3  -4   21.33   30.59 
  -4   3  -4   12.13    1.06 
  -3   3  -4   14.38    1.41 
  -3   3  -4   12.55    1.24 
  -3   3  -4   12.77   25.95 
  -2   3  -4   16.08    1.27 
  -2   3  -4   17.16    1.39 
  -1   3  -4  121.91    6.91 
  -1   3  -4  120.95    6.98 
   0   3  -4  886.92   47.81 
   0   3  -4  869.76   47.75 
   0  -3   4  877.37   47.67 
   1   3  -4   63.85    3.88 
   1   3  -4   65.46    3.82 
  -1  -3   4   65.83    3.79 
   2   3  -4   19.01    1.35 
   2   3  -4   19.25    1.46 
  -2  -3   4   20.08    1.33 
  -2  -3   4   19.37    1.34 
   3   3  -4  210.06   11.85 
  -3  -3   4  206.12   11.65 
  -3  -3   4  208.40   11.62 
  -4  -3   4    2.46    8.12 
  -4  -3   4    1.53    9.28 
  -5  -3   4    4.34    7.17 
  -6  -3   4    1.07    0.40 
  -6  -3   4    0.12    2.07 
  -6  -3   4    1.70    0.53 
  -5   4  -4   -4.27   18.33 
   5  -4   4    0.44    0.33 
  -4   4  -4    7.23    1.26 
  -4   4  -4    9.11    0.84 
  -3   4  -4    7.95    1.00 
  -3   4  -4    8.47    0.99 
  -3   4  -4   17.04   19.55 
  -2   4  -4   28.17    2.24 
  -2   4  -4   26.69    1.91 
  -1   4  -4  309.83   16.81 
  -1   4  -4  292.68   16.66 
   0   4  -4   59.81    3.73 
   0   4  -4   64.13    3.84 
   0  -4   4   65.47    3.68 
   1   4  -4  124.91    7.11 
   1   4  -4  127.79    7.22 
  -1  -4   4  121.58    7.10 
   2   4  -4   91.25    5.52 
   2   4  -4   91.52    5.37 
  -2  -4   4   91.31    5.37 
  -2  -4   4   94.97    5.36 
   3   4  -4   27.03    1.91 
  -3  -4   4   27.12    3.22 
  -3  -4   4   29.29    1.88 
  -3  -4   4    6.58    9.33 
  -4  -4   4   96.58    6.24 
  -4  -4   4   99.03    5.98 
  -4  -4   4  106.70    6.04 
  -4  -4   4  111.82    6.85 
  -6  -4   4    4.33    0.61 
  -6  -4   4    2.92    0.53 
  -6  -4   4    1.17    2.73 
  -4   5  -4   15.98   15.38 
  -3   5  -4    0.21    0.22 
  -3   5  -4  -35.13   12.22 
  -3   5  -4    0.16    0.36 
   3  -5   4    0.29    0.40 
  -2   5  -4   16.44    1.59 
   2  -5   4   14.94    1.95 
  -1   5  -4   30.60    2.07 
  -1   5  -4   30.63    2.46 
   1  -5   4   31.35    2.88 
   0   5  -4  130.46    7.33 
   0   5  -4  126.23    7.46 
   1   5  -4   17.24    1.31 
   1   5  -4   17.42    1.41 
  -1  -5   4   17.89    1.30 
  -2  -5   4   -2.97    7.52 
  -2  -5   4    0.87    3.57 
   3   5  -4   17.09    1.42 
  -3  -5   4   17.12    1.61 
  -3  -5   4   23.36   13.49 
  -3  -5   4   19.41    1.44 
  -3  -5   4   21.24    2.06 
  -3  -5   4    6.18    7.53 
  -3  -5   4   19.71    1.41 
  -5  -5   4   66.93   21.52 
  -4   6  -4   11.88   11.61 
  -3   6  -4  -15.70   19.72 
   3  -6   4    1.26    0.83 
  -2   6  -4    1.99    0.54 
   2  -6   4    1.65    0.71 
   2  -6   4    0.98    0.66 
  -1   6  -4    2.40    0.50 
   0   6  -4    2.78    0.41 
   0  -6   4    2.66    0.83 
   0  -6   4    2.02    0.46 
   0  -6   4    2.90    0.79 
   1   6  -4   44.37    2.65 
  -1  -6   4   38.35    2.86 
  -1  -6   4   34.58    3.14 
  -1  -6   4   43.77    2.71 
   2   6  -4   16.84    1.35 
  -2  -6   4    4.00    6.29 
  -2  -6   4   15.54    1.20 
  -2  -6   4   11.51    1.51 
  -3  -6   4    0.50    0.33 
  -3  -6   4    2.84    5.11 
  -3  -6   4    1.13    0.39 
  -3  -6   4    0.79    0.27 
  -4  -6   4   70.72   27.43 
  -4  -6   4   46.74    8.62 
   5   6  -4    4.93    4.93 
  -5  -6   4   21.83    8.75 
  -5  -6   4    0.13    4.82 
  -5  -6   4    3.08    0.53 
  -5  -6   4    2.18    0.44 
   3  -7   4    0.71    0.35 
   2  -7   4   21.02    2.04 
   1  -7   4    1.78    0.56 
   0   7  -4   -0.03    0.14 
   0  -7   4   -0.17    0.28 
   1   7  -4   16.67    1.16 
  -1  -7   4   12.12    1.51 
  -1  -7   4   -0.72    9.31 
   2   7  -4    3.30    0.66 
   2   7  -4   -4.68    5.85 
  -2  -7   4    2.14    5.01 
  -2  -7   4    2.85    0.91 
   3   7  -4    3.52    0.47 
   3   7  -4   -2.54    6.34 
  -3  -7   4    5.72    0.79 
  -3  -7   4    1.00    4.77 
  -3  -7   4    4.61    0.74 
   4   7  -4    0.28    4.93 
  -4  -7   4   -0.53    2.57 
  -4  -7   4   -1.94    3.98 
  -1   8  -4    0.16    0.15 
   1  -8   4    1.01    0.35 
   0   8  -4    0.92    0.26 
   0  -8   4    1.54    0.43 
   1   8  -4    6.23    0.61 
  -1  -8   4    8.38    0.97 
   2   8  -4    5.01    0.47 
   2   8  -4    1.73    6.20 
  -2  -8   4    4.71    0.69 
   3   8  -4   -2.95    3.48 
   1   8   5   -2.51    3.33 
   0   8   5   -4.32    3.76 
  -1   8   5    4.65    7.25 
  -2   8   5    6.81    0.58 
   2   7   5    1.27    7.38 
   2   7   5   -0.11    2.19 
  -1  -7  -5    5.10    0.71 
   1   7   5    4.79    0.53 
   1   7   5    8.20    7.24 
   0  -7  -5   24.04    1.90 
   0   7   5   23.76    1.65 
  -1   7   5    1.87    7.70 
  -1   7   5  -12.37   19.95 
   2  -7  -5   11.08    1.30 
  -2   7   5   22.25   21.88 
  -2   7   5   14.93    1.08 
  -3   7   5   -3.14   10.99 
   4  -7  -5    0.10    0.29 
  -4   7   5    1.31   11.12 
  -4   7   5    0.43    0.14 
   3   6   5    0.92    3.43 
   3   6   5    7.84    5.20 
   2   6   5    1.52    3.86 
   2   6   5   -5.89    6.18 
  -1  -6  -5   24.00   33.77 
   1   6   5    3.99    8.98 
   1   6   5   11.81   28.58 
   0  -6  -5   16.31    1.52 
   0   6   5    2.93    7.67 
   0   6   5   24.69   35.36 
   0   6   5   14.66    1.18 
   1  -6  -5   28.55    3.01 
  -1   6   5   31.76    2.18 
  -1   6   5    3.06   11.82 
  -2   6   5   -6.43   28.60 
  -2   6   5   -8.49   10.52 
  -3   6   5   17.30    1.26 
  -3   6   5   14.27    1.59 
  -3   6   5    2.32   26.34 
  -4   6   5   -4.52   25.20 
   5  -6  -5    0.89    0.53 
  -5   6   5   -2.86    8.42 
   4   5   5    0.11    1.83 
   3   5   5    1.05    5.15 
   3   5   5    5.31    7.75 
  -2  -5  -5  -12.40   22.79 
   2   5   5    7.21    8.76 
   2   5   5   -1.94    2.88 
   1   5   5  -30.65   15.31 
   1   5   5   -4.09    3.38 
   1   5   5   -2.57    5.41 
   0  -5  -5   13.76    1.48 
   0   5   5    0.27    5.72 
   0   5   5   34.76   39.09 
   1  -5  -5    5.93    1.21 
  -1   5   5   19.67   25.95 
  -1   5   5    5.25    9.29 
  -1   5   5    6.18    0.87 
  -2   5   5    2.06   33.15 
  -2   5   5    7.73   13.03 
  -3   5   5    3.95   26.45 
  -3   5   5   13.06    1.30 
  -3   5   5   12.92    1.09 
  -4   5   5    0.52   17.14 
  -4   5   5    1.94    0.59 
  -5   5   5  -18.75   10.89 
  -4  -4  -5    0.03    0.28 
   4   4   5   -0.19    2.54 
  -3  -4  -5  -23.20   15.79 
   3   4   5   -1.19    8.11 
   3   4   5   -0.12    3.14 
  -2  -4  -5   17.18   21.78 
   2   4   5    3.26    5.39 
   2   4   5  -16.57   23.04 
  -1  -4  -5   24.36    1.80 
   0  -4  -5    2.99    0.44 
   1  -4  -5   12.56    1.04 
   2  -4  -5   44.40    2.82 
  -3   4   5  -11.40   37.59 
  -4   4   5  -20.35   16.82 
  -5   4   5   21.57   26.59 
  -6   4   5  -14.52   12.80 
  -6   4   5    0.18    0.16 
   5   3   5    0.02    1.90 
  -4  -3  -5   36.22   18.78 
  -3  -3  -5   -0.54   25.37 
   3   3   5    1.53    5.43 
  -2  -3  -5    6.06    0.70 
  -2  -3  -5    8.14    0.81 
  -1  -3  -5   27.86    1.94 
  -1  -3  -5   28.61    1.86 
   0  -3  -5   45.36    2.83 
   1  -3  -5    7.57    0.70 
   2  -3  -5   52.00    3.16 
  -4   3   5  -13.94   19.85 
  -5   3   5    5.30   18.60 
  -5   3   5    2.70    0.51 
  -6   3   5   25.13   20.31 
  -5  -2  -5   30.69   15.41 
  -4  -2  -5   -6.06   24.87 
   4   2   5    3.56    3.13 
  -3  -2  -5    9.56   29.13 
  -3  -2  -5    3.26    0.59 
   3   2   5   -2.50    3.55 
  -2  -2  -5    6.64    0.70 
  -2  -2  -5    6.27    0.69 
  -1  -2  -5   45.39    2.71 
  -1  -2  -5   41.24    2.65 
   0  -2  -5   26.78    1.62 
   0  -2  -5   25.36    1.69 
   1  -2  -5  665.80   36.27 
   2  -2  -5  538.42   29.40 
   3  -2  -5   66.91    3.95 
  -5   2   5   32.81   27.34 
  -6   2   5   24.67    1.72 
  -5  -1  -5   -3.42   15.86 
  -4  -1  -5   -3.13   13.39 
   4   1   5   -2.29    2.80 
  -3  -1  -5  -40.94   26.29 
   3   1   5   -4.18    2.02 
  -2  -1  -5    7.44    0.71 
  -2  -1  -5    7.87    0.72 
  -2  -1  -5    7.10    0.85 
  -1  -1  -5  412.89   22.35 
  -1  -1  -5  403.70   22.25 
  -1  -1  -5  405.87   22.32 
   0  -1  -5  101.61    5.62 
   0  -1  -5   98.39    5.47 
   0  -1  -5   97.65    5.58 
   1  -1  -5  229.18   12.73 
   1  -1  -5  234.88   12.79 
   2  -1  -5  954.97   52.76 
   2  -1  -5 1000.00   52.70 
   2  -1  -5  961.27   52.80 
   3  -1  -5    8.65    0.68 
   3  -1  -5    6.82    0.60 
  -3   1   5    7.37    0.60 
  -4   1   5   44.65    2.68 
  -5   1   5    3.51    0.62 
  -6   1   5    0.35    0.35 
  -6   1   5    0.90    0.31 
  -5   0  -5    2.35   12.31 
  -5   0  -5    5.71    0.65 
  -4   0  -5  -15.78   17.39 
  -3   0  -5    1.23   18.03 
  -3   0  -5    1.37    0.45 
  -2   0  -5  262.33   14.66 
  -2   0  -5  293.97   14.84 
  -2   0  -5  240.19   14.97 
  -1   0  -5   41.82    2.63 
  -1   0  -5   46.67    2.69 
  -1   0  -5   44.92    2.72 
   0   0  -5   49.07    3.09 
   0   0  -5   55.95    3.17 
   0   0  -5   57.97    3.16 
   2   0  -5  739.73   37.69 
   2   0  -5  746.69   37.67 
   2   0  -5  589.36   37.61 
   3   0  -5    6.33    0.65 
   3   0  -5    7.35    0.65 
  -3   0   5    6.68    0.60 
  -3   0   5    7.42    0.60 
   4   0  -5   25.77    1.75 
   4   0  -5   24.85    1.83 
  -4   0   5   24.34    1.68 
  -4   0   5   24.94    1.65 
  -5   0   5    0.95    0.28 
  -5   0   5    0.59    0.36 
  -5   0   5    0.89    0.44 
  -6   0   5   70.16    4.64 
  -6   0   5   77.69    4.45 
  -5   1  -5    8.48   15.52 
  -4   1  -5  -10.71   13.93 
  -3   1  -5    4.93   21.53 
  -2   1  -5    9.05    0.83 
  -2   1  -5    7.33    0.78 
  -1   1  -5  430.48   23.99 
  -1   1  -5  434.96   23.88 
  -1   1  -5  448.42   24.02 
   0   1  -5   96.67    5.49 
   0   1  -5   95.52    5.43 
   1   1  -5  250.93   14.15 
   1   1  -5  256.58   14.17 
   1   1  -5  249.31   14.18 
  -1  -1   5  271.68   14.19 
   2   1  -5  973.73   52.45 
   2   1  -5  956.19   52.49 
   3   1  -5    8.00    0.78 
  -3  -1   5    6.74    0.62 
  -3  -1   5    7.18    0.64 
   4   1  -5   30.75    2.60 
  -4  -1   5   34.21    2.27 
  -5  -1   5    1.34    5.06 
  -5  -1   5    4.17    0.76 
  -5  -1   5    4.45    0.56 
  -5  -1   5    3.53    0.73 
  -6  -1   5    0.57    0.36 
  -6  -1   5    0.72    0.31 
  -6  -1   5    2.21    5.16 
  -5   2  -5    0.72    0.27 
  -4   2  -5  -28.68   17.16 
  -3   2  -5   14.90   29.29 
  -2   2  -5    7.72    0.80 
  -2   2  -5    7.64    0.79 
  -1   2  -5   44.69    2.77 
  -1   2  -5   49.18    2.98 
  -1   2  -5   50.58    2.98 
   0   2  -5   26.21    1.70 
   0   2  -5   25.94    1.62 
   0   2  -5   25.72    1.68 
   0  -2   5   24.99    1.60 
   1   2  -5  683.96   38.23 
   1   2  -5  692.80   38.24 
  -1  -2   5  726.88   38.19 
   2   2  -5  569.37   30.46 
   2   2  -5  544.92   30.52 
  -2  -2   5  557.37   30.40 
  -2  -2   5  556.48   30.41 
   3   2  -5   65.56    4.05 
  -3  -2   5   65.09    3.89 
  -3  -2   5   65.35    3.87 
  -4  -2   5   -2.32    2.81 
  -4  -2   5    5.53    9.79 
  -4  -2   5    2.85    0.39 
  -5  -2   5    6.14    9.20 
  -5  -2   5    1.14    5.52 
  -5  -2   5    0.60    0.38 
  -5  -2   5   -0.02    0.19 
  -5  -2   5    0.09    0.29 
  -5   3  -5   10.04   12.22 
  -4   3  -5   19.05   41.01 
  -3   3  -5   22.60   33.47 
  -3   3  -5   16.79    1.43 
  -3   3  -5   14.62    1.43 
  -2   3  -5    8.04    0.83 
  -2   3  -5    8.92    0.94 
  -1   3  -5   27.61    1.94 
   0   3  -5   54.35    3.30 
   0   3  -5   51.92    3.20 
   0   3  -5   58.78    3.85 
   0  -3   5   53.89    3.19 
   1   3  -5    7.78    0.73 
   1   3  -5    8.00    0.83 
  -1  -3   5    8.21    0.69 
   2   3  -5   48.28    3.05 
   2   3  -5   46.47    2.95 
  -2  -3   5   48.24    2.91 
  -2  -3   5   47.15    2.90 
   3   3  -5  122.96    7.08 
   3   3  -5  126.29    8.11 
  -3  -3   5  126.53    7.03 
  -3  -3   5  114.59    7.26 
  -5  -3   5    1.23    0.54 
  -5  -3   5   -1.14    2.45 
  -5  -3   5   -2.56    4.91 
  -6  -3   5   -0.23    2.32 
  -4   4  -5   -1.32   11.24 
  -4   4  -5    0.58    0.29 
  -3   4  -5   13.90   28.66 
  -3   4  -5   13.04    1.30 
  -2   4  -5   17.98    1.39 
  -2   4  -5   15.30    1.52 
  -2   4  -5    5.74   20.53 
  -1   4  -5   26.50    1.81 
  -1   4  -5   24.46    1.88 
   0   4  -5    3.87    0.54 
   0   4  -5    3.22    0.46 
   1   4  -5   11.83    1.06 
   1   4  -5   12.96    1.05 
  -1  -4   5   12.20    0.97 
   2   4  -5   41.85    2.59 
   2   4  -5   34.27    2.69 
  -2  -4   5   42.31    2.79 
   3   4  -5   74.52    5.00 
  -3  -4   5   72.69    5.27 
  -3  -4   5   77.05    4.55 
   4   4  -5    9.78    1.38 
  -4  -4   5   12.74    1.31 
  -4  -4   5   11.21    1.25 
  -4  -4   5    9.20    1.85 
  -4  -4   5  -11.89   10.48 
  -5  -4   5   -1.14    5.65 
  -5  -4   5    3.66    0.69 
  -6  -4   5    1.99    2.91 
  -4   5  -5   -5.23   15.15 
   4  -5   5    0.86    0.40 
  -3   5  -5    4.92   16.08 
  -3   5  -5   10.78    1.07 
   3  -5   5    8.43    1.31 
  -2   5  -5    8.36    1.03 
   2  -5   5    9.72    1.44 
  -1   5  -5   13.41    1.05 
  -1   5  -5   12.56    1.35 
  -1   5  -5   13.83    1.15 
   1  -5   5   12.26    1.63 
   0   5  -5   14.65    1.12 
   0  -5   5   13.68    1.33 
   0  -5   5    9.45    2.24 
   1   5  -5    8.94    0.82 
  -1  -5   5    0.53   10.71 
  -1  -5   5    7.16    0.92 
  -1  -5   5    6.30    1.08 
  -3  -5   5   -3.64    7.11 
  -3  -5   5   -2.10    3.71 
   4   5  -5    3.76    0.50 
  -4  -5   5   -0.49    2.25 
  -4  -5   5    1.46    5.85 
  -4  -5   5    4.99    0.83 
  -4  -5   5    4.19    0.47 
  -5  -5   5   -0.91    7.14 
   3  -6   5    6.01    1.25 
   2  -6   5    9.43    1.80 
  -1   6  -5   27.56    1.72 
   1  -6   5   23.72    2.39 
   0   6  -5   15.08    1.18 
   0  -6   5   14.72    1.26 
   0  -6   5   15.16    1.68 
   1   6  -5   31.32    2.27 
  -1  -6   5   35.50    2.42 
  -1  -6   5   27.68    3.03 
   2   6  -5   21.04    1.46 
  -2  -6   5   17.17    1.40 
  -2  -6   5   17.58    1.84 
   3   6  -5   20.54    1.43 
  -3  -6   5   17.19    1.78 
  -3  -6   5    2.73    7.30 
  -3  -6   5   17.92    1.36 
  -4  -6   5   22.75   10.40 
  -4  -6   5    5.37    0.79 
  -4  -6   5    8.90    8.10 
   5   6  -5   24.03    5.07 
  -5  -6   5   39.25   14.45 
   2  -7   5    1.99    0.65 
   0   7  -5   21.22    1.60 
   0  -7   5   29.17    2.32 
   1   7  -5   12.40    0.98 
  -1  -7   5   12.01    1.61 
  -2  -7   5   10.81    1.27 
  -2  -7   5   -0.47    5.67 
  -2  -7   5   11.55    0.94 
   3   7  -5    1.87    6.10 
   3   7  -5    1.36    0.25 
  -3  -7   5   -0.19    5.15 
  -3  -7   5    2.48    0.58 
   4   7  -5   -0.64    4.34 
  -4  -7   5    1.71    1.85 
  -4  -7   5    3.24    2.83 
   1  -8   5    1.05    0.34 
   0   8  -5    4.96    0.44 
   0  -8   5    6.08    0.76 
   1   8  -5   15.74    1.11 
  -1  -8   5   17.54    1.49 
   2   8  -5    6.48    0.54 
   2   8  -5   -2.26    7.45 
  -1   8   6    4.51    0.45 
   2   7   6    5.28    4.72 
   1   7   6   -0.04    5.95 
   0  -7  -6    4.79   20.38 
   0   7   6    2.25    0.35 
   0   7   6    3.49    7.07 
   0   7   6  -12.33   19.75 
  -1   7   6  -17.65   17.20 
   2  -7  -6   29.07    1.92 
  -2   7   6   22.87    1.70 
  -2   7   6    3.03   17.13 
  -3   7   6    0.63   17.06 
   3   6   6    0.51    6.07 
   3   6   6   -0.04    2.72 
   2   6   6   -1.99    5.45 
   2   6   6   -1.44    2.62 
  -1  -6  -6   19.20   19.81 
   1   6   6    4.21   14.38 
   1   6   6    9.35    7.34 
   0   6   6    2.07    6.70 
   0   6   6   -5.50   21.20 
  -1   6   6    5.37   29.05 
  -1   6   6    6.82    8.08 
  -2   6   6   24.33   44.79 
  -3   6   6   -3.11   25.63 
  -4   6   6   -5.17   16.12 
   3   5   6    0.05    3.18 
   3   5   6    4.38    7.36 
  -2  -5  -6  -13.57   26.09 
   2   5   6    2.94    7.06 
   2   5   6    1.76    3.82 
  -1  -5  -6   -5.30   22.13 
   1   5   6    8.16    6.83 
   1   5   6   -0.16    3.27 
   1   5   6   36.49   24.47 
   1   5   6    7.19    0.67 
   0   5   6   25.48    1.78 
   0   5   6   18.55   28.29 
  -1   5   6  -24.00   22.64 
  -1   5   6   -3.09    9.18 
  -2   5   6   -0.02   31.31 
  -2   5   6    3.83    8.58 
  -3   5   6  195.40    9.96 
  -3   5   6  155.34    9.89 
  -4   5   6  -32.90   24.49 
  -5   5   6    8.79   16.50 
   4   4   6   -1.87    2.65 
  -3  -4  -6   13.10   20.34 
   3   4   6   -1.05    7.32 
   2   4   6    0.63   11.28 
   1   4   6   -4.13    2.86 
   1   4   6    1.55    8.57 
   1   4   6  -16.45   21.31 
   0   4   6   16.55   32.45 
   0   4   6    4.14   10.15 
   1  -4  -6   16.45    1.35 
  -2   4   6   49.89   54.00 
  -4   4   6  -17.25   17.04 
  -5   4   6  -19.35   13.14 
  -6   4   6    5.06   12.10 
   4   3   6    0.69    2.70 
  -3  -3  -6    8.19   23.95 
  -2  -3  -6    6.70   24.31 
   2   3   6    1.61   25.64 
   2   3   6    2.75    5.95 
   2   3   6    4.63   12.40 
  -1  -3  -6    3.83    0.54 
   0  -3  -6   94.09    5.55 
   1  -3  -6  126.57    7.28 
   2  -3  -6  177.84   10.05 
  -3   3   6   14.87   34.26 
  -4   3   6    9.22   35.55 
  -5   3   6    6.82   19.81 
  -6   3   6  -22.36   10.45 
  -4  -2  -6  -11.20    9.50 
   4   2   6   -1.41    2.01 
  -2  -2  -6   17.47   22.46 
  -1  -2  -6   21.48    1.51 
  -1  -2  -6   19.42    1.45 
   0  -2  -6  158.32    8.94 
   1  -2  -6  103.22    5.94 
   2  -2  -6  215.26   12.01 
   3  -2  -6  279.83   15.54 
  -4   2   6   40.34    2.64 
  -4   2   6   36.52   31.70 
  -5   2   6   15.72   19.69 
  -4  -1  -6    3.55   21.47 
   4   1   6   -0.62    2.53 
  -3  -1  -6   24.54   19.14 
  -3  -1  -6   28.24    2.09 
  -2  -1  -6    6.62    0.73 
  -2  -1  -6    5.95    0.72 
  -1  -1  -6  179.11   10.41 
  -1  -1  -6  192.77   10.46 
   0  -1  -6   36.72    2.12 
   0  -1  -6   29.59    2.03 
   1  -1  -6   91.97    5.04 
   1  -1  -6   82.20    4.93 
   2  -1  -6   16.73    1.22 
   2  -1  -6   17.36    1.19 
   3  -1  -6   94.19    5.57 
   3  -1  -6   98.51    5.55 
  -4   1   6    2.61   17.30 
  -5   0  -6  -13.21    9.97 
  -4   0  -6  -18.61   10.42 
  -3   0  -6  -32.34   17.44 
   3   0   6   -2.79    2.09 
  -2   0  -6  181.94   10.29 
  -2   0  -6  177.91   10.22 
  -1   0  -6    9.22    0.75 
  -1   0  -6    8.19    0.77 
  -1   0  -6    8.38    0.74 
   0   0  -6   49.07    3.02 
   0   0  -6   53.28    3.11 
   0   0  -6   53.76    3.10 
   1   0  -6    0.73    0.21 
   1   0  -6    0.90    0.22 
   1   0  -6    1.21    0.24 
   2   0  -6   26.99    1.91 
   2   0  -6   31.31    1.89 
   2   0  -6   31.90    1.97 
   3   0  -6  178.50   11.68 
   3   0  -6  209.38   11.54 
   3   0  -6  212.73   11.59 
  -3   0   6  213.80   11.55 
  -3   0   6  219.74   11.50 
   4   0  -6   10.54    1.08 
   4   0  -6   13.54    1.01 
  -4   0   6   11.81    0.94 
  -5   0   6   -0.23    4.28 
  -5   1  -6   10.36   16.15 
  -4   1  -6  -17.15   10.88 
  -3   1  -6   30.94    2.30 
  -3   1  -6   15.70   33.56 
  -2   1  -6    7.36    0.81 
  -1   1  -6  211.62   11.69 
  -1   1  -6  215.16   11.74 
  -1   1  -6  199.40   11.55 
   0   1  -6   36.31    2.26 
   0   1  -6   38.30    2.32 
   0   1  -6   34.85    2.23 
   1   1  -6   99.44    5.48 
   1   1  -6   88.57    5.39 
   1   1  -6   95.76    5.49 
  -1  -1   6   95.35    5.45 
   2   1  -6   16.66    1.30 
   2   1  -6   20.50    1.64 
   2   1  -6   18.10    1.31 
  -2  -1   6   19.57    1.56 
   3   1  -6  100.05    5.78 
   3   1  -6  103.34    5.77 
   3   1  -6   95.55    5.81 
  -3  -1   6   99.00    5.70 
  -3  -1   6   98.15    5.74 
  -5  -1   6   -5.81    9.59 
  -6  -1   6   -2.87    3.72 
  -5   2  -6   -8.76    7.88 
  -4   2  -6    8.22    0.85 
  -4   2  -6   13.45   14.04 
  -3   2  -6   12.66    1.64 
  -3   2  -6   16.32    1.77 
  -3   2  -6    1.32   19.64 
  -2   2  -6  -22.53   19.57 
  -1   2  -6   23.99    1.74 
  -1   2  -6   24.20    1.72 
   0   2  -6  179.12    9.94 
   0   2  -6  178.48   10.02 
   0   2  -6  177.28   10.04 
   1   2  -6  115.26    6.36 
   1   2  -6  102.68    6.37 
   1   2  -6  113.99    6.38 
  -1  -2   6  110.67    6.33 
   2   2  -6  204.18   11.72 
   2   2  -6  215.97   11.77 
  -2  -2   6  208.65   11.70 
   3   2  -6  304.71   17.33 
   3   2  -6  311.99   17.45 
  -3  -2   6  309.38   17.27 
  -3  -2   6  324.14   17.44 
  -5  -2   6   10.54    8.83 
  -5  -2   6    5.37    0.83 
  -5  -2   6    5.35    6.17 
  -6  -2   6    0.59    2.61 
  -4   3  -6    2.98   15.58 
  -3   3  -6   -7.64   20.07 
  -2   3  -6  -19.71   25.37 
  -1   3  -6    5.97    0.67 
  -1   3  -6    5.11    0.62 
   0   3  -6  104.37    5.95 
   0   3  -6   99.11    5.96 
   1   3  -6  138.57    8.04 
   1   3  -6  134.91    7.96 
   1   3  -6  141.36    8.07 
  -1  -3   6  146.18    7.98 
   2   3  -6  168.83    9.76 
   2   3  -6  174.59    9.71 
  -2  -3   6  168.33    9.62 
  -5  -3   6   -0.56    5.45 
  -5  -3   6    0.75    0.48 
  -5  -3   6   -1.06    2.04 
  -6  -3   6   -0.10    2.17 
  -4   4  -6   -8.72   11.99 
  -4   4  -6    0.19    0.18 
   4  -4   6    0.85    0.40 
  -3   4  -6   10.21   25.62 
  -3   4  -6   19.43    1.59 
   3  -4   6   15.25    1.99 
  -2   4  -6   30.34    2.82 
  -2   4  -6   36.13    2.83 
  -1   4  -6    5.45    0.63 
  -1   4  -6    4.62    0.69 
   1  -4   6    4.57    0.94 
   0   4  -6   83.97    5.00 
   1   4  -6   16.44    1.30 
   1   4  -6   16.91    1.40 
   1   4  -6   16.43    1.30 
  -1  -4   6   14.98    1.43 
  -4  -4   6    1.37    0.49 
  -4  -4   6    0.89    2.85 
  -4  -4   6   -1.98    5.34 
  -5  -4   6    0.72    2.69 
  -5  -4   6    3.25    4.90 
  -6  -4   6    0.04    0.16 
  -6  -4   6   -0.23    1.95 
  -3   5  -6  -13.71   17.92 
  -2   5  -6   28.90    2.23 
   2  -5   6   29.93    2.65 
   1  -5   6    6.01    1.09 
   0   5  -6   28.37    1.95 
   0  -5   6   26.81    2.01 
   0  -5   6   27.62    2.50 
   1   5  -6   21.19    1.45 
  -1  -5   6   14.37    1.69 
  -1  -5   6   -2.93   11.97 
  -1  -5   6   18.67    1.47 
  -4  -5   6    5.17    7.19 
  -4  -5   6    3.04    0.60 
  -4  -5   6    3.09    0.44 
  -5  -5   6   -0.03    2.01 
  -5  -5   6   -3.93    5.67 
   3  -6   6   16.13    1.41 
   2  -6   6    4.66    0.85 
   1  -6   6    1.35    0.77 
   0   6  -6   12.54    1.00 
   0  -6   6   11.32    1.05 
   0  -6   6   11.90    1.44 
   1   6  -6   26.46    2.03 
  -1  -6   6   34.12    2.19 
  -1  -6   6   32.63    2.63 
   2   6  -6  113.13    6.68 
  -2  -6   6  106.16    6.69 
  -2  -6   6  126.67    7.35 
   3   6  -6    6.50    0.67 
  -3  -6   6    3.00    3.00 
  -3  -6   6    7.61    6.22 
  -3  -6   6    5.30    0.80 
  -3  -6   6    6.37    0.64 
  -4  -6   6   -1.41    2.78 
  -4  -6   6    3.37    7.10 
   2  -7   6    1.47    0.42 
   1  -7   6    1.63    0.66 
   0   7  -6    1.72    0.26 
   0  -7   6    1.01    0.41 
   1   7  -6   28.14    1.91 
  -1  -7   6   31.92    2.42 
   2   7  -6   26.86    1.80 
  -2  -7   6   25.87    2.15 
  -2  -7   6   29.17    1.83 
   3   7  -6    5.59    5.56 
  -3  -7   6    2.56    4.58 
  -3  -7   6    5.33    0.71 
   0  -8   6    5.51    0.77 
   1   8  -6    4.42    0.40 
  -1  -8   6    5.03    0.69 
   1   7   7   -3.67    3.44 
   0  -7  -7   12.25   13.56 
   0   7   7   -0.48    5.09 
   0   7   7    2.57    0.35 
   0   7   7   -0.27   18.54 
  -1   7   7   18.99   18.77 
  -2   7   7   -9.79    6.12 
  -2   7   7  -24.42   12.95 
  -3   7   7    3.87   13.22 
   2   6   7    2.73    5.25 
   2   6   7    1.54    2.65 
  -1  -6  -7   -8.57   14.63 
   1   6   7    4.17   23.70 
   1   6   7    2.15    3.20 
   1   6   7    2.72    5.74 
   0   6   7    6.17    6.51 
   0   6   7   -9.71   16.72 
  -1   6   7  -29.09   12.76 
  -1   6   7    4.91    6.41 
  -2   6   7    0.54    0.22 
  -2   6   7  -33.07   18.21 
  -2   6   7    4.90    7.95 
  -3   6   7   11.64   22.05 
  -4   6   7   -4.38   10.71 
   3   5   7    1.62    3.34 
  -2  -5  -7   29.12   20.58 
  -1  -5  -7    7.46   19.84 
   1   5   7   27.41   21.75 
   1   5   7    3.04    5.94 
   1   5   7    2.76    4.17 
   0   5   7    3.93    6.42 
   0   5   7   13.57   27.95 
  -1   5   7    4.42    8.66 
  -1   5   7  -12.56   20.13 
  -2   5   7  -13.07   19.67 
  -2   5   7    5.11    7.47 
  -3   5   7    0.20   20.73 
  -3   5   7    6.95    9.90 
  -4   5   7   12.26   20.79 
  -5   5   7    6.48   16.33 
   3   4   7    0.89    4.64 
  -2  -4  -7   20.80   21.01 
   2   4   7    0.53    8.69 
  -1  -4  -7   14.96   38.75 
   1   4   7   10.17   10.64 
   1   4   7    5.30   26.42 
   0   4   7   12.59   10.61 
   0   4   7  -27.75   28.01 
  -1   4   7   -2.15    3.09 
  -1   4   7   -5.89    9.05 
  -2   4   7   -4.74   21.00 
  -2   4   7    2.81    8.11 
  -4   4   7  -20.61   14.36 
  -5   4   7    5.01   17.70 
  -4  -3  -7   46.01   26.52 
  -3  -3  -7    2.05   22.58 
  -2  -3  -7  -16.50   17.50 
   2   3   7   -4.51    8.89 
   2   3   7    0.40    4.46 
  -1  -3  -7   14.16   36.25 
   1   3   7    4.65   26.71 
   0   3   7   -2.14    4.74 
   0   3   7   -0.41    8.90 
   1  -3  -7   36.64    2.48 
  -2   3   7    8.65   40.10 
  -3   3   7   34.13   37.87 
  -4   3   7   -8.04   21.60 
  -5   3   7   12.36   23.47 
  -4  -2  -7   -2.48   11.35 
   4   2   7   -0.31    2.24 
  -3  -2  -7    1.91   22.85 
   3   2   7   -0.23    2.71 
  -2  -2  -7  -16.07   19.82 
  -1  -2  -7  -22.93   12.26 
   1   2   7  -24.91   25.25 
   1   2   7   -3.18    2.40 
   0  -2  -7   45.56    3.00 
   0  -2  -7   47.91    2.99 
   1  -2  -7   55.93    3.47 
   2  -2  -7  107.56    6.27 
  -3   2   7  -19.28   21.43 
  -4   2   7  -14.70   23.10 
  -5   2   7   28.87   32.22 
  -4  -1  -7    1.77   18.64 
   4   1   7   -2.35    1.74 
   3   1   7   -0.34    2.88 
  -2  -1  -7   25.10   34.53 
  -1  -1  -7    6.12    0.66 
  -1  -1  -7    4.67    0.60 
   0  -1  -7   25.69    1.89 
   0  -1  -7   33.23    2.00 
   1  -1  -7    9.29    0.79 
   1  -1  -7   10.71    0.89 
   2  -1  -7  210.76   11.38 
   2  -1  -7  197.15   11.45 
   3  -1  -7  179.37   10.15 
  -4   0  -7    2.39   11.58 
  -3   0  -7   13.29   24.98 
  -2   0  -7    3.89   31.17 
  -2   0  -7    1.96    0.43 
   2   0   7   -6.02    3.18 
  -1   0  -7  159.19    9.32 
  -1   0  -7  171.42    9.44 
   0   0  -7  144.74    8.13 
   0   0  -7  140.96    8.10 
   1   0  -7   32.82    2.11 
   1   0  -7   30.96    2.06 
   2   0  -7   83.45    4.81 
   2   0  -7   79.27    4.80 
   3   0  -7   69.67    4.32 
   3   0  -7   74.77    4.33 
  -5   0   7   -6.57    3.26 
  -5   0   7    2.10    0.54 
  -5   0   7    0.70    9.59 
  -4   1  -7  -21.91   10.01 
  -3   1  -7   15.44   23.20 
  -2   1  -7    6.59   21.36 
  -1   1  -7    6.81    0.73 
  -1   1  -7    5.81    0.73 
   0   1  -7   28.81    1.92 
   0   1  -7   30.23    2.00 
   0   1  -7   29.10    1.94 
   1   1  -7   11.30    1.01 
   1   1  -7   11.70    1.00 
   1   1  -7   14.17    1.00 
   2   1  -7  192.39   10.89 
   2   1  -7  202.73   10.93 
   2   1  -7  183.31   10.81 
  -2  -1   7  195.06   10.88 
   3   1  -7  160.74    9.96 
   3   1  -7  185.09   10.00 
  -3  -1   7  182.69    9.98 
  -5  -1   7    4.54    9.43 
  -6  -1   7    2.95    3.96 
  -4   2  -7   18.75   14.72 
  -3   2  -7   35.19   31.24 
  -2   2  -7   11.01   26.52 
  -1   2  -7   67.09    4.01 
  -1   2  -7   60.32    3.98 
   0   2  -7   48.88    3.02 
   0   2  -7   49.10    3.12 
   0   2  -7   50.05    3.13 
   1   2  -7   63.59    3.85 
   1   2  -7   63.32    3.80 
   1   2  -7   60.38    3.78 
   2   2  -7   99.06    6.45 
   2   2  -7  113.56    6.46 
   2   2  -7  119.15    6.51 
  -2  -2   7  109.87    6.44 
  -5  -2   7   -1.77    8.50 
  -6  -2   7    1.40    3.10 
  -4   3  -7   16.59   14.80 
  -3   3  -7  -14.35   14.63 
  -2   3  -7  238.34   12.71 
   2  -3   7  205.84   13.11 
  -1   3  -7   49.19    3.21 
   0   3  -7   12.66    1.24 
   0   3  -7   14.50    1.18 
   1   3  -7   37.36    2.52 
   1   3  -7   42.04    2.57 
   1   3  -7   33.79    2.45 
   4   3  -7  148.70    8.01 
  -4  -3   7  123.76    8.18 
  -4  -3   7  138.20    7.88 
  -5  -3   7   -4.90    5.37 
  -5  -3   7    1.97    3.90 
  -6  -3   7    0.39    2.47 
  -6  -3   7    1.76    5.49 
  -3   4  -7   31.67    2.10 
   3  -4   7   29.70    2.65 
  -2   4  -7   -9.34   20.84 
  -1   4  -7    2.82    0.62 
   1  -4   7    1.38    0.70 
   0   4  -7   61.20    3.63 
   0  -4   7   57.96    4.10 
   0  -4   7   52.88    3.62 
   1   4  -7   11.52    1.07 
  -1  -4   7    5.46   12.94 
  -1  -4   7    0.82    4.46 
  -1  -4   7   13.21    1.14 
  -1  -4   7   11.23    1.26 
   2   4  -7   31.41    2.25 
  -2  -4   7   10.08   11.48 
  -2  -4   7   31.97    2.57 
  -2  -4   7   34.80    2.29 
  -3  -4   7    6.94   14.83 
  -3  -4   7   31.70    3.89 
  -4  -4   7    0.25    3.01 
  -4  -4   7   -1.67    6.50 
  -4  -4   7    0.84    0.37 
  -5  -4   7   -4.05    4.45 
   3  -5   7    5.02    0.88 
   2  -5   7   61.52    4.20 
   1  -5   7   12.24    1.42 
   0  -5   7   19.56    1.86 
   0  -5   7   18.25    1.47 
   1   5  -7    1.48    0.42 
  -1  -5   7    1.23    0.47 
  -1  -5   7    1.95    0.40 
  -1  -5   7    2.68    9.71 
  -2  -5   7    4.46    8.29 
  -4  -5   7    0.51    0.23 
  -4  -5   7    0.02    1.80 
  -4  -5   7    3.02    4.38 
  -4  -5   7    0.19    0.23 
  -5  -5   7   -4.37    3.24 
  -5  -5   7   -0.51    1.99 
   2  -6   7    7.77    0.86 
   1  -6   7    8.20    1.03 
   0   6  -7    1.91    0.34 
   0  -6   7    1.68    0.49 
   0  -6   7    2.08    0.38 
   1   6  -7    1.27    0.34 
  -1  -6   7    0.82    0.44 
  -1  -6   7    0.94    0.39 
  -2  -6   7    4.31    6.95 
   3   6  -7    1.36    0.27 
  -3  -6   7    1.79    0.32 
  -3  -6   7    7.10    4.46 
  -3  -6   7    1.29    0.40 
  -4  -6   7    2.06    2.65 
  -4  -6   7   -1.00    3.72 
   1  -7   7   12.60    1.08 
   0   7  -7    2.12    0.36 
   0  -7   7    2.20    0.49 
   1   7  -7    0.09    0.11 
  -1  -7   7    0.08    0.19 
   2   7  -7    2.08    6.13 
  -2  -7   7   -0.12    5.58 
   3   7  -7   -3.47    4.04 
  -3  -7   7   -0.41    3.28 
   1  -7  -8    8.09   12.26 
  -1   7   8    2.68    0.40 
  -1   7   8    4.65    3.93 
  -2   7   8    0.27    0.12 
  -1  -6  -8   11.32   16.28 
   0  -6  -8    9.94   18.95 
   0   6   8    1.04    4.94 
   0   6   8  -15.61   13.64 
  -1   6   8    3.88    0.45 
  -1   6   8    3.81    6.28 
  -1   6   8   -0.42   17.35 
  -2   6   8    2.95    0.40 
  -2   6   8   -2.99   22.50 
  -2   6   8    2.90    5.95 
  -3   6   8  -10.75   11.67 
  -2  -5  -8   13.76   16.44 
  -1  -5  -8   11.91   14.82 
   1   5   8    0.19    5.51 
   1   5   8    8.45   29.63 
   0   5   8   26.93   33.61 
  -1   5   8    5.80    0.65 
  -1   5   8   25.53   32.30 
  -1   5   8    0.65    6.62 
  -2   5   8    1.15    7.78 
  -2   5   8   -9.24   22.05 
  -3   5   8    6.98    0.70 
  -3   5   8   -3.21   25.65 
  -3   5   8    5.79    8.31 
  -4   5   8    6.62    0.62 
  -3  -4  -8    7.13   10.98 
  -2  -4  -8  -19.23   20.81 
   2   4   8    0.13    2.89 
   2   4   8   -1.75    5.47 
  -1  -4  -8   -8.29   14.10 
   1   4   8  -22.96   11.24 
   1   4   8    1.74    4.17 
   1   4   8    4.63    8.51 
   0   4   8   16.51   26.61 
  -1   4   8   12.79    1.43 
  -1   4   8    6.38    8.20 
  -1   4   8   34.04   33.20 
  -2   4   8   10.72   41.80 
  -2   4   8    1.38    7.10 
  -3   4   8    4.69    9.98 
  -3   4   8    6.04   33.15 
  -4   4   8   28.24   25.15 
  -5   4   8   -2.05   15.89 
  -3  -3  -8   -3.64   11.80 
   3   3   8    1.40    2.87 
  -2  -3  -8    2.51   23.69 
   2   3   8   -5.88    7.10 
   2   3   8    0.44    3.09 
  -1  -3  -8  -16.50   18.67 
   1   3   8  -19.34   17.15 
   1   3   8   -1.09    2.87 
   1   3   8    3.56    8.32 
   0   3   8   28.13   37.11 
  -1   3   8   -5.66   19.80 
  -1   3   8    5.85    4.48 
  -1   3   8   -5.10    5.53 
  -2   3   8  -23.47   22.10 
  -2   3   8    3.43    6.91 
  -2   3   8    0.03    4.03 
  -3   3   8   16.79   12.21 
  -4   3   8   -5.71    8.00 
  -4   3   8   -7.38   13.92 
  -5   3   8   14.28   20.11 
  -4  -2  -8   -7.10    9.83 
   4   2   8    0.94    2.70 
  -3  -2  -8    8.97   16.33 
  -2  -2  -8    7.06   27.26 
   2   2   8    3.11    5.27 
  -1  -2  -8  -29.93   12.21 
   1   2   8  -10.06    9.82 
   1   2   8   -0.17    4.69 
   1   2   8  -52.09   17.58 
  -1   2   8   -1.32    2.33 
  -1   2   8    3.14    7.01 
  -1   2   8    7.23   23.61 
  -2   2   8   12.58   30.53 
  -2   2   8    1.92    5.02 
  -3   2   8   -1.11    4.65 
  -3   2   8    1.66    9.40 
  -3   2   8   -9.97   25.99 
  -4   2   8   -2.98    9.35 
  -4   2   8  -41.53   23.13 
  -5   2   8   21.14    1.48 
  -4  -1  -8    0.65    8.90 
  -3  -1  -8  -27.72   10.77 
   3   1   8   -0.38    2.95 
  -2  -1  -8   -4.02   20.59 
   2   1   8   -0.73    3.19 
   1   1   8   40.01   56.27 
   0  -1  -8  -17.08   26.33 
   0   1   8   42.35   53.78 
   1  -1  -8   10.96    1.00 
   1  -1  -8   10.84    0.88 
  -3   1   8    6.71    9.24 
  -3   1   8    1.37    5.71 
  -3   1   8   14.23   34.89 
  -4   1   8   -7.78   14.97 
  -5   1   8    4.61   10.55 
  -4   0  -8  -13.16    6.45 
  -3   0  -8   26.94   22.10 
  -2   0  -8    2.39   27.09 
   0   0  -8  352.35   19.46 
   0   0  -8  348.82   19.43 
   1   0  -8   42.77    2.77 
   1   0  -8   41.96    2.71 
   2   0  -8  124.67    6.92 
   2   0  -8  113.96    6.94 
  -4   0   8    1.89    3.94 
  -4   0   8    2.34   10.07 
  -5   0   8    5.60    8.43 
  -4   1  -8   -7.07    6.29 
  -3   1  -8  -21.43   10.72 
  -2   1  -8   13.55   22.57 
  -2   1  -8   14.93    1.35 
   0   1  -8  488.30   25.87 
   0   1  -8  448.27   25.75 
   1   1  -8   10.07    0.95 
   1   1  -8   10.06    0.94 
  -3  -1   8    0.12    9.12 
  -5  -1   8   -1.35    3.64 
  -6  -1   8   -3.20    2.80 
  -4   2  -8    3.01    7.82 
  -3   2  -8  -14.41   11.35 
  -1   2  -8   14.31   22.46 
   0   2  -8  195.05   10.65 
   0  -2   8  176.43   10.57 
  -1  -2   8  -10.50    9.62 
  -1  -2   8    4.37    5.04 
  -2  -2   8    0.67    2.95 
  -2  -2   8   16.04   11.19 
  -3  -2   8   -6.65    7.86 
  -3  -2   8    0.23    3.32 
  -4  -2   8    3.77    6.95 
  -4  -2   8   -2.49    3.66 
  -5  -2   8   -4.56    5.46 
  -6  -2   8    1.30    2.80 
  -3   3  -8    4.83   16.69 
  -2   3  -8  -38.93   18.05 
  -1   3  -8   68.94    4.34 
  -1  -3   8   -6.45   12.08 
   2   3  -8    3.60    0.60 
  -2  -3   8    3.44    0.62 
  -2  -3   8    1.33    5.91 
  -2  -3   8    2.24    4.66 
   3   3  -8    0.32    0.32 
  -3  -3   8    0.84    0.31 
  -4  -3   8    1.68    3.04 
  -4  -3   8   -2.52    4.89 
  -4  -3   8    2.53    0.43 
  -5  -3   8    0.25    6.23 
  -5  -3   8    3.55    5.52 
  -3   4  -8    3.16    9.51 
   0   4  -8   38.20    2.49 
   0  -4   8   32.84    2.35 
  -1  -4   8    0.43    3.43 
  -1  -4   8   -1.57    9.47 
  -2  -4   8    0.77    8.00 
  -3  -4   8    1.20    2.32 
  -3  -4   8   -1.25    7.10 
  -4  -4   8    2.68    3.59 
  -4  -4   8    2.06    5.22 
  -4  -4   8    1.04    0.28 
  -5  -4   8    0.74    2.83 
  -5  -4   8    0.32    4.10 
   2  -5   8    3.62    0.52 
   1  -5   8    3.29    0.64 
   0  -5   8    1.21    0.44 
   0  -5   8    0.98    0.26 
  -1  -5   8    3.48    0.69 
  -2  -5   8    6.03    0.87 
  -2  -5   8    8.38    0.78 
  -2  -5   8    0.74    3.76 
  -3  -5   8    4.04    4.67 
  -3  -5   8    6.56    0.67 
  -3  -5   8    1.40    2.86 
  -3  -5   8    6.39    0.81 
  -4  -5   8    0.13    3.13 
   1  -6   8    6.77    0.73 
   0   6  -8    4.73    0.45 
   1   6  -8    2.81    0.38 
  -1  -6   8    4.86    0.92 
  -1  -6   8    2.74    0.41 
  -2  -6   8   -8.33    4.94 
  -3  -6   8   -2.46    1.76 
  -3  -6   8   -1.82    3.70 
   1   7  -8    2.23    0.25 
  -1  -7   8    2.27    0.38 
   2   7  -8    0.03    0.14 
  -2  -7   8    0.16    0.17 
   0  -6  -9  -13.61    8.63 
   0   6   9   -0.87    3.45 
   0   6   9  -10.08   14.22 
  -1   6   9   24.55    1.58 
  -1   6   9   21.37   19.89 
  -2   6   9   13.42   19.63 
  -3   6   9    0.38    0.19 
  -1  -5  -9   11.77   17.58 
   0  -5  -9   18.60   26.89 
   0   5   9  -20.19   22.87 
  -1   5   9   -5.49   18.08 
  -2   5   9    1.51   17.97 
  -2   5   9    5.65    5.93 
  -3   5   9    2.72    0.39 
  -3   5   9   -2.99    4.41 
  -3   5   9   11.50   20.02 
  -4   5   9    3.95   16.14 
  -2  -4  -9    4.11   14.11 
   2   4   9   -0.57    2.18 
   2   4   9    4.82    6.38 
  -1  -4  -9   13.03   13.78 
   1   4   9    4.05    6.67 
   0   4   9   31.65   36.47 
   0   4   9   43.08    2.71 
  -1   4   9   -0.77    2.95 
  -1   4   9    3.60   20.32 
  -1   4   9   -1.69    6.50 
  -2   4   9   -3.13    5.13 
  -2   4   9   -2.19   18.80 
  -3   4   9    3.68    0.47 
  -3   4   9    4.79    5.54 
  -3   4   9   11.19   20.59 
  -4   4   9   16.31   18.89 
  -4   4   9   15.63   10.76 
  -5   4   9   -2.05    6.28 
  -3  -3  -9   19.79   13.37 
  -2  -3  -9    6.55   14.15 
   2   3   9    0.22    2.57 
  -1  -3  -9   -0.23   19.50 
   1   3   9   -2.33    2.19 
   1   3   9    1.48    7.27 
   0  -3  -9    4.28   27.47 
   0   3   9   -0.49    6.79 
   0   3   9   27.39   31.29 
  -1   3   9   11.11   20.87 
  -2   3   9   -2.43   21.19 
  -2   3   9    1.18    3.43 
  -2   3   9    9.35    7.47 
  -3   3   9    6.10   29.28 
  -3   3   9   -0.50    7.20 
  -3   3   9    0.53    0.22 
  -4   3   9   -8.37   22.66 
  -4   3   9   -1.51    6.78 
  -5   3   9   12.21    0.91 
  -3  -2  -9  -13.92    9.61 
   3   2   9    0.05    1.46 
  -2  -2  -9   17.29   15.93 
  -1  -2  -9  -28.44   13.46 
   1   2   9    2.75    3.84 
   1   2   9   -2.69    7.08 
   0   2   9  -18.81   23.94 
   0   2   9   -0.10    4.16 
   0   2   9    8.13   13.76 
  -1   2   9    8.40    8.75 
  -1   2   9   -0.20   29.06 
  -1   2   9    0.87    4.03 
  -2   2   9   24.50   26.88 
  -3   2   9    3.08    7.40 
  -3   2   9   20.64   30.22 
  -3   2   9   18.83    1.43 
  -4   2   9    1.97    9.55 
  -4   2   9  -14.94   22.39 
  -5   2   9    7.81    0.68 
   3   1   9   -1.08    1.89 
   2   1   9   -0.60    4.09 
  -1  -1  -9  -30.55   15.16 
   1   1   9   -0.89    3.21 
   0  -1  -9   19.84   31.75 
   0   1   9   31.20   30.04 
  -1   1   9  -17.18   20.69 
  -1   1   9   -4.52    2.42 
  -1   1   9   -5.05    7.47 
  -2   1   9   -8.72   31.25 
  -2   1   9   -7.63    7.16 
  -3   1   9   -7.44   10.90 
  -4   1   9    4.98    0.61 
  -4   1   9    1.53    3.43 
  -4   1   9    8.47    7.39 
  -5   1   9    4.98    0.60 
  -5   1   9    2.79    7.66 
  -3   0  -9   15.29   20.40 
  -2   0  -9  -18.88   23.20 
   2   0   9    0.91    3.48 
  -1   0  -9   -4.65   17.29 
   1   0   9   -0.61    3.21 
   0   0  -9    1.56   24.71 
   0   0   9   -1.84    3.44 
   0   0   9    3.96    8.24 
   1   0  -9  -20.64   17.29 
  -1   0   9   -1.44    3.21 
  -1   0   9    7.34   10.04 
  -1   0   9  -11.47   19.22 
  -3   0   9   -2.03    2.23 
  -3   0   9   -2.03    7.25 
  -4   0   9    8.54    7.39 
  -4   0   9    0.24    3.23 
  -5   0   9   -2.66    6.18 
  -5   0   9    0.86    3.34 
  -5   0   9    0.69    0.25 
  -3   1  -9   13.23   13.09 
  -2   1  -9    7.70   12.23 
   2  -1   9    3.65    3.58 
  -1   1  -9    9.35   23.05 
  -1   1  -9   10.77    1.04 
   0   1  -9   12.00   16.21 
   0  -1   9   -0.71   10.40 
  -1  -1   9   -5.98   10.07 
  -1  -1   9   -2.91    3.38 
  -3  -1   9    3.37   10.90 
  -3  -1   9    2.47    5.30 
  -4  -1   9    1.11    4.47 
  -4  -1   9    2.07    7.38 
  -5  -1   9   -4.39    5.62 
  -5  -1   9    1.29    3.62 
  -3   2  -9   12.35   14.18 
  -2   2  -9  -19.78   12.16 
  -1   2  -9   14.84   18.28 
   0   2  -9  109.12    6.82 
  -1  -2   9    3.84    9.40 
  -1  -2   9    0.61    4.12 
  -2  -2   9    6.42    7.47 
  -2  -2   9    4.55    5.38 
  -3  -2   9   -0.46    3.06 
  -3  -2   9    4.97    7.48 
  -4  -2   9   -1.20    2.34 
  -4  -2   9   -0.77    6.01 
  -3   3  -9  -11.88    6.02 
  -2   3  -9    8.46   18.85 
   2   3  -9    7.11    0.90 
  -2  -3   9    6.43    8.94 
  -2  -3   9    8.40    0.82 
  -2  -3   9    1.32    2.86 
  -3  -3   9   -0.25    6.92 
  -3  -3   9    1.35    4.63 
  -3  -3   9    0.63    0.23 
  -4  -3   9    0.78    2.71 
  -4  -3   9    0.23    5.11 
  -5  -3   9   -2.88    3.92 
   0  -4   9   40.12    2.52 
  -2  -4   9    8.61    8.50 
  -3  -4   9   -0.94    3.26 
  -3  -4   9   -2.70    4.63 
  -4  -4   9    5.74    0.56 
  -4  -4   9    3.92    5.17 
  -5  -4   9    1.16    2.62 
  -5  -4   9   -2.23    4.28 
  -1  -5   9   64.03    3.84 
  -2  -5   9    2.01    3.29 
  -2  -5   9   -5.89    5.38 
  -3  -5   9   -2.96    2.05 
  -3  -5   9   -4.26    4.73 
  -4  -5   9    1.53    2.77 
  -4  -5   9   -3.48    2.98 
   1   6  -9   13.40    0.91 
   2   6  -9    0.28    0.13 
  -2  -6   9    0.61    0.18 
  -3  -6   9    6.11    3.52 
   0  -5 -10    7.28   17.77 
   0   5  10   -3.01    3.65 
   0   5  10    2.10    2.58 
   1  -5 -10   -3.28    9.79 
  -1   5  10   -0.48    3.93 
  -1   5  10  -13.53   11.17 
  -2   5  10   -1.24    3.64 
  -2   5  10    6.80   15.44 
  -3   5  10    5.26    5.60 
  -3   5  10    0.90    3.98 
  -3   5  10    2.47    0.31 
  -1  -4 -10   -1.68   11.10 
   1   4  10    0.16    4.35 
   1   4  10   -1.18    1.70 
   0  -4 -10    9.19   16.94 
   0   4  10    1.92    3.37 
   0   4  10   13.97   28.91 
   0   4  10    2.31    5.08 
   1  -4 -10   -3.91   16.22 
  -1   4  10    4.47    5.24 
  -1   4  10    0.77    2.91 
  -1   4  10    5.79   20.12 
  -2   4  10    1.07    3.56 
  -2   4  10    0.27    4.00 
  -2   4  10    4.31    0.51 
  -2   4  10    6.56   18.07 
  -3   4  10   15.25   23.37 
  -3   4  10    1.08    6.40 
  -4   4  10    3.71    6.16 
  -4   4  10   -5.20    9.81 
  -2  -3 -10   -1.15    7.74 
   2   3  10    1.32    3.30 
  -1  -3 -10    4.41   16.74 
   1   3  10    5.52    6.25 
   0  -3 -10   -0.46   15.14 
   0   3  10   -0.52    4.75 
   0   3  10   -2.50    2.10 
   0   3  10    5.93   22.74 
  -1   3  10    2.75    4.38 
  -1   3  10    5.86   24.97 
  -1   3  10   -3.23    3.71 
  -2   3  10    3.61    9.31 
  -3   3  10   20.07    1.47 
  -3   3  10   14.09   17.56 
  -4   3  10    8.72   15.74 
  -4   3  10   -1.28    5.25 
  -2  -2 -10    3.51   17.45 
   2   2  10    0.70    2.34 
  -1  -2 -10    8.61   15.96 
   1   2  10   11.63    9.44 
   0  -2 -10   -4.21   19.11 
   0   2  10    1.11    3.50 
   0   2  10  -10.63   15.90 
   0   2  10    3.59    7.79 
   1  -2 -10   -6.07   22.13 
  -1   2  10    0.71   18.68 
  -1   2  10    4.11    6.42 
  -1   2  10   -4.09    2.37 
  -2   2  10   12.57   25.53 
  -3   2  10   -6.44    4.87 
  -3   2  10    2.00    0.40 
  -3   2  10   18.82   22.11 
  -3   2  10    0.89    3.07 
  -4   2  10   -1.06    3.85 
  -5   2  10    1.27    0.25 
  -2  -1 -10   14.67   13.91 
   1   1  10    2.84    4.26 
   0  -1 -10  -21.64   12.44 
   0   1  10    5.62    6.70 
   0   1  10   -0.42    3.51 
   1  -1 -10   27.91   20.05 
  -1   1  10  -18.81   17.33 
   2  -1 -10  -12.62   18.34 
  -2   1  10   52.88    3.30 
  -2   1  10   38.37   30.84 
  -3   1  10   -0.79    7.10 
  -3   1  10    0.39    0.25 
  -3   1  10   -1.47    2.76 
  -4   1  10    2.18    4.62 
  -4   1  10   -6.33    5.31 
  -5   1  10    2.79    0.36 
  -2   0 -10    5.16   15.52 
  -1   0 -10   16.89   21.74 
   0   0 -10   20.66   22.04 
   1   0 -10   28.81   22.21 
  -2   0  10    3.54    8.23 
  -2   0  10    0.60    2.95 
  -3   0  10    1.15    3.04 
  -3   0  10   -8.60    6.21 
  -3   0  10    0.90    0.32 
  -4   0  10    1.97    0.41 
  -4   0  10    3.50    5.94 
  -4   0  10    2.12    3.25 
  -5   0  10    1.75    5.05 
  -5   0  10    1.15    2.63 
  -1   1 -10  -25.71   16.47 
   1  -1  10   -2.29    2.40 
   0   1 -10    2.45   17.90 
   0  -1  10    3.32    4.17 
  -1  -1  10   -5.36    8.29 
  -3  -1  10    0.92    0.27 
  -3  -1  10    2.64    3.57 
  -3  -1  10   -7.13    4.63 
  -4  -1  10    3.79    3.33 
  -4  -1  10   -7.32    5.53 
  -5  -1  10   -1.06    2.02 
  -2   2 -10  -20.43   11.03 
   1  -2  10    2.07    3.56 
   0  -2  10    2.59    3.55 
  -2  -2  10    5.78    6.72 
  -2  -2  10   -1.36    2.84 
  -3  -2  10    2.16    0.42 
  -3  -2  10   -0.46    2.67 
  -3  -2  10   10.79    7.99 
  -4  -2  10    0.71    5.33 
  -4  -2  10   -0.72    2.81 
  -5  -2  10    0.15    2.20 
  -5  -2  10   -2.32    2.96 
   0  -3  10    2.11    3.36 
  -1  -3  10    0.04    3.04 
  -1  -3  10   -3.78    7.04 
  -2  -3  10    0.79    3.08 
  -2  -3  10   -4.17    6.43 
  -3  -3  10    0.68    2.76 
  -3  -3  10   -1.33    4.63 
  -4  -3  10    0.51    4.55 
  -4  -3  10   -1.48    2.04 
  -2  -4  10    2.93    0.44 
  -2  -4  10    1.18    2.99 
  -3  -4  10    2.90    3.81 
  -3  -4  10    1.81    0.33 
  -3  -4  10    3.41    5.33 
  -4  -4  10    0.55    1.63 
  -4  -4  10   -0.19    4.26 
  -1  -5  10    1.41    0.24 
  -2  -5  10   -0.95    8.01 
  -3  -5  10    0.89    1.92 
  -3  -5  10   -3.90    2.96 
   0  -4 -11   -2.13   10.96 
   0   4  11    0.37    1.72 
   0   4  11    0.66    4.41 
   1  -4 -11    5.85   13.04 
  -1   4  11    0.30    2.54 
  -1   4  11   -3.32   10.53 
  -1   4  11    0.71    4.44 
  -2   4  11   12.13   13.55 
   3  -4 -11    0.10    7.47 
  -3   4  11    2.14    3.42 
  -3   4  11    3.53    0.38 
  -3   4  11   15.31   12.09 
  -1  -3 -11   -7.95    6.38 
   1   3  11   -1.15    0.88 
   0  -3 -11    4.03   18.30 
   0   3  11    0.97    2.48 
   0   3  11    3.24    5.56 
   1  -3 -11   -0.05   14.07 
  -1   3  11    3.86   12.12 
  -1   3  11   -0.01    2.01 
  -1   3  11   -1.38    4.99 
   2  -3 -11    5.73   11.71 
  -2   3  11   -4.18   10.63 
  -2   3  11    0.72    4.78 
  -2   3  11   -1.09    1.60 
   3  -3 -11    8.57    9.21 
  -3   3  11  -19.21    9.90 
  -3   3  11    0.86    3.71 
  -3   3  11    0.05    0.13 
  -4   3  11   -1.99    4.05 
  -1  -2 -11   -7.50    8.93 
   1   2  11   -2.15    1.47 
   0  -2 -11   15.99   16.64 
   1  -2 -11   -4.21   19.32 
  -1   2  11    6.37   19.31 
  -1   2  11    0.44    2.63 
  -1   2  11    0.03    4.82 
   2  -2 -11   22.68   14.93 
  -2   2  11    2.92    4.30 
  -2   2  11    7.35    0.70 
  -2   2  11   -0.54   17.96 
  -2   2  11   -2.37    4.42 
   3  -2 -11    5.12   13.74 
  -3   2  11   -0.23    2.95 
  -3   2  11   -0.62   13.22 
  -3   2  11    1.74    4.92 
  -4   2  11   -3.28    4.02 
  -1  -1 -11    1.48   18.02 
   1   1  11    0.26    1.94 
   0  -1 -11   -4.92   13.98 
   0   1  11   -9.37    5.71 
   0   1  11   -0.58    1.70 
   1  -1 -11  -22.32   12.98 
  -1   1  11    2.45    0.36 
  -1   1  11    3.65    4.56 
  -1   1  11    1.22    5.02 
   2  -1 -11  -11.16   15.40 
  -2   1  11   -2.00   19.39 
  -2   1  11   -0.11    4.52 
  -2   1  11    1.60    3.02 
  -3   1  11   -1.26    6.21 
  -3   1  11    1.34    3.10 
  -4   1  11    2.71    2.80 
  -4   1  11    1.47    4.37 
  -4   1  11    4.03    0.54 
  -1   0 -11    8.61   14.71 
   0   0 -11    5.94   12.70 
   0   0  11    1.97    3.44 
   1   0 -11   31.69   23.26 
  -1   0  11   10.07    0.87 
  -2   0  11    0.04    4.56 
  -2   0  11    3.69    6.25 
  -3   0  11   -1.81    4.41 
  -3   0  11    1.06    2.57 
  -4   0  11   -1.92    2.12 
  -4   0  11   -1.56    3.67 
  -1   1 -11   27.06   17.54 
   0  -1  11    0.13    2.82 
  -1  -1  11    0.46    2.06 
  -1  -1  11    1.82    0.35 
  -1  -1  11    4.49    6.31 
  -2  -1  11    3.87    4.58 
  -2  -1  11    1.67    4.18 
  -3  -1  11   -0.78    2.39 
  -3  -1  11   -5.54    4.79 
  -4  -1  11    2.17    4.20 
  -4  -1  11    4.52    0.58 
  -4  -1  11    4.17    5.10 
   0  -2  11    0.20    2.70 
  -1  -2  11    2.54    0.39 
  -1  -2  11    3.96    9.78 
  -1  -2  11    1.69    3.21 
  -2  -2  11   -0.66    2.44 
  -2  -2  11    0.94    5.38 
  -3  -2  11   -3.11    3.94 
  -3  -2  11   -1.25    1.60 
  -4  -2  11    0.20    2.25 
  -4  -2  11    5.75    5.88 
  -4  -2  11    3.86    0.42 
  -1  -3  11   -1.47    1.96 
  -2  -3  11    1.55    5.18 
  -2  -3  11   -0.77    2.41 
  -3  -3  11    5.76    5.17 
  -3  -3  11    3.40    4.34 
  -4  -3  11    1.22    2.25 
  -4  -3  11   -1.03    0.95 
  -1  -4  11    1.09    0.18 
  -2  -4  11    0.80    6.20 
  -2  -4  11    0.58    1.92 
  -3  -4  11    1.00    2.05 
  -3  -4  11    1.08    2.98 
  -1   3  12   -0.34    4.02 
   2  -3 -12    2.15   13.55 
  -2   3  12    2.14    0.25 
  -2   3  12    0.44    3.18 
   0  -2 -12   -7.78   10.10 
   0   2  12    0.62    1.54 
   1  -2 -12   -2.93   10.95 
  -1   2  12   -1.32    1.06 
  -1   2  12   -4.62    4.32 
   2  -2 -12  -14.25    7.63 
  -2   2  12   -2.48    2.07 
  -2   2  12   -0.38    1.50 
  -3   2  12   -2.02    3.61 
  -3   2  12   -0.05    1.52 
   0  -1 -12    5.68   11.02 
   1  -1 -12    6.13   12.93 
  -1   1  12    1.91    0.26 
  -1   1  12    3.31    3.59 
  -1   1  12    0.49    2.55 
  -2   1  12    0.35    1.94 
  -2   1  12    1.20    0.25 
  -2   1  12    2.96    4.38 
  -3   1  12    1.43    2.66 
  -3   1  12   -2.29    4.49 
   0   0  12   -0.32    1.59 
  -1   0  12   -0.51    4.32 
  -1   0  12   -1.22    1.21 
  -2   0  12   -0.56    4.68 
  -2   0  12    0.32    0.15 
  -2   0  12    1.39    2.01 
  -3   0  12   -0.26    1.19 
  -3   0  12    0.32    0.13 
  -3   0  12   -2.31    3.73 
  -1  -1  12   -0.42    4.50 
  -1  -1  12   -0.23    1.11 
  -2  -1  12   -2.05    3.75 
  -2  -1  12    0.27    2.80 
  -3  -1  12   -1.45    1.37 
  -3  -1  12    0.32    3.73 
  -1  -2  12    1.58    1.75 
  -2  -2  12    2.41    5.94 
  -2  -2  12    1.99    0.26 
  -2  -2  12    1.30    1.66 
  -3  -2  12   -0.29    1.67 
  -3  -2  12    0.83    3.13 
  -2  -3  12   -0.70    1.90 
   0   0   0    0.00    0.00 
;
_shelx_hkl_checksum              4023
loop_
_space_group_symop_operation_xyz
'x, y, z'
'-x, y+1/2, -z'
loop_
_atom_site_label
_atom_site_type_symbol
_atom_site_fract_x
_atom_site_fract_y
_atom_site_fract_z
_atom_site_U_iso_or_equiv
_atom_site_adp_type
_atom_site_occupancy
_atom_site_site_symmetry_order
_atom_site_calc_flag
_atom_site_refinement_flags_posn
_atom_site_refinement_flags_adp
C1 C 0.1008(14) 0.6951(10) 0.4666(13) 0.073(3) Uani 1 1 d . .
C2 C 0.0931(16) 0.6560(12) 0.5981(13) 0.072(3) Uani 1 1 d . .
H2 H -0.0407 0.6028 0.6157 0.086 Uiso 1 1 calc R U
C3 C 0.2865(17) 0.6978(13) 0.6994(15) 0.088(3) Uani 1 1 d . .
H3 H 0.2821 0.6732 0.7857 0.105 Uiso 1 1 calc R U
C4 C 0.4842(15) 0.7749(14) 0.6746(13) 0.082(3) Uani 1 1 d . .
H4 H 0.6128 0.8024 0.7442 0.098 Uiso 1 1 calc R U
C5 C 0.4955(14) 0.8129(12) 0.5467(12) 0.076(3) Uani 1 1 d . .
H5 H 0.6309 0.8655 0.5307 0.091 Uiso 1 1 calc R U
C6 C 0.3059(13) 0.7723(11) 0.4441(10) 0.066(3) Uani 1 1 d . .
C7 C -0.0385(15) 0.6331(14) 0.2345(14) 0.084(4) Uani 1 1 d . .
H7A H -0.1837 0.6246 0.1653 0.101 Uiso 1 1 calc R U
H7B H 0.0482 0.5218 0.2374 0.101 Uiso 1 1 calc R U
C8 C 0.1131(15) 0.7884(13) 0.2066(12) 0.081(3) Uani 1 1 d . .
H8 H 0.0212 0.8994 0.1996 0.097 Uiso 1 1 calc R U
C9 C 0.1867(19) 0.7572(15) 0.0797(14) 0.089(3) Uani 1 1 d . .
F1 F 0.3294(16) 0.8915(12) 0.0578(7) 0.118(3) Uani 1 1 d . .
F2 F 0.0033(16) 0.7558(13) -0.0221(9) 0.127(3) Uani 1 1 d . .
F3 F 0.3101(13) 0.6104(11) 0.0797(8) 0.114(3) Uani 1 1 d . .
N1 N -0.0952(13) 0.6645(10) 0.3604(10) 0.078(3) Uani 1 1 d . .
H1 H -0.2139 0.6235 0.3739 0.094 Uiso 1 1 d R U
N2 N 0.3235(13) 0.8033(13) 0.3145(10) 0.083(3) Uani 1 1 d . .
H2A H 0.3951 0.9027 0.3096 0.099 Uiso 1 1 d R U
loop_
_atom_site_aniso_label
_atom_site_aniso_U_11
_atom_site_aniso_U_22
_atom_site_aniso_U_33
_atom_site_aniso_U_23
_atom_site_aniso_U_13
_atom_site_aniso_U_12
C1 0.053(4) 0.051(4) 0.114(9) -0.007(4) 0.016(5) 0.000(3)
C2 0.072(5) 0.061(5) 0.087(8) -0.008(5) 0.028(5) -0.007(4)
C3 0.082(6) 0.067(5) 0.112(9) -0.002(6) 0.019(6) 0.009(4)
C4 0.067(5) 0.077(5) 0.095(9) -0.010(6) 0.005(5) -0.005(5)
C5 0.060(5) 0.065(5) 0.102(10) -0.007(5) 0.018(6) -0.005(4)
C6 0.062(5) 0.055(4) 0.081(7) 0.004(4) 0.019(5) -0.001(4)
C7 0.060(4) 0.074(5) 0.110(10) -0.016(6) 0.007(5) 0.003(5)
C8 0.073(5) 0.065(5) 0.101(9) -0.002(5) 0.014(6) 0.005(4)
C9 0.091(6) 0.081(6) 0.103(10) -0.001(6) 0.041(7) 0.002(5)
F1 0.151(6) 0.118(5) 0.096(5) 0.017(5) 0.049(5) -0.010(5)
F2 0.123(5) 0.152(8) 0.091(6) 0.005(5) 0.000(4) 0.013(6)
F3 0.128(6) 0.100(5) 0.125(6) -0.008(4) 0.055(5) 0.016(4)
N1 0.058(4) 0.082(5) 0.094(7) -0.016(5) 0.020(4) -0.007(4)
N2 0.069(4) 0.085(6) 0.095(7) 0.011(5) 0.024(4) -0.019(4)
loop_
_atom_type_symbol
_atom_type_description
_atom_type_scat_dispersion_real
_atom_type_scat_dispersion_imag
_atom_type_scat_source
C C 0.0181 0.0091 'International Tables Vol C Tables 4.2.6.8 and 6.1.1.4'
H H 0.0000 0.0000 'International Tables Vol C Tables 4.2.6.8 and 6.1.1.4'
F F 0.0727 0.0534 'International Tables Vol C Tables 4.2.6.8 and 6.1.1.4'
N N 0.0311 0.0180 'International Tables Vol C Tables 4.2.6.8 and 6.1.1.4'
loop_
_geom_angle_atom_site_label_1
_geom_angle_atom_site_label_2
_geom_angle_atom_site_label_3
_geom_angle
C6 C1 N1 119.6(11)
C6 C1 C2 118.7(9)
N1 C1 C2 121.6(9)
C3 C2 C1 119.2(9)
C3 C2 H2 120.4
C1 C2 H2 120.4
C4 C3 C2 120.9(14)
C4 C3 H3 119.6
C2 C3 H3 119.6
C3 C4 C5 120.8(10)
C3 C4 H4 119.6
C5 C4 H4 119.6
C6 C5 C4 119.6(8)
C6 C5 H5 120.2
C4 C5 H5 120.2
C5 C6 C1 120.9(10)
C5 C6 N2 119.2(8)
C1 C6 N2 119.9(8)
N1 C7 C8 108.6(9)
N1 C7 H7A 110.0
C8 C7 H7A 110.0
N1 C7 H7B 110.0
C8 C7 H7B 110.0
H7A C7 H7B 108.3
N2 C8 C9 109.4(8)
N2 C8 C7 108.8(8)
C9 C8 C7 110.5(9)
N2 C8 H8 109.3
C9 C8 H8 109.3
C7 C8 H8 109.3
F2 C9 F3 109.1(11)
F2 C9 F1 106.0(11)
F3 C9 F1 105.4(7)
F2 C9 C8 111.7(8)
F3 C9 C8 113.6(11)
F1 C9 C8 110.5(10)
C1 N1 C7 115.2(8)
C1 N1 H1 119.3
C7 N1 H1 119.7
C6 N2 C8 119.6(7)
C6 N2 H2A 110.5
C8 N2 H2A 110.3
loop_
_geom_bond_atom_site_label_1
_geom_bond_atom_site_label_2
_geom_bond_distance
C1 C6 1.393(13)
C1 N1 1.401(13)
C1 C2 1.421(17)
C2 C3 1.378(17)
C2 H2 0.9300
C3 C4 1.364(16)
C3 H3 0.9300
C4 C5 1.387(17)
C4 H4 0.9300
C5 C6 1.371(13)
C5 H5 0.9300
C6 N2 1.406(13)
C7 N1 1.454(17)
C7 C8 1.528(14)
C7 H7A 0.9700
C7 H7B 0.9700
C8 N2 1.450(13)
C8 C9 1.511(18)
C8 H8 0.9800
C9 F2 1.309(15)
C9 F3 1.312(14)
C9 F1 1.357(14)
N1 H1 0.7977
N2 H2A 0.8597
loop_
_geom_torsion_atom_site_label_1
_geom_torsion_atom_site_label_2
_geom_torsion_atom_site_label_3
_geom_torsion_atom_site_label_4
_geom_torsion
C6 C1 C2 C3 1.0(14)
N1 C1 C2 C3 -176.4(7)
C1 C2 C3 C4 -0.4(15)
C2 C3 C4 C5 -0.1(16)
C3 C4 C5 C6 -0.1(16)
C4 C5 C6 C1 0.7(15)
C4 C5 C6 N2 -177.0(8)
N1 C1 C6 C5 176.3(8)
C2 C1 C6 C5 -1.1(14)
N1 C1 C6 N2 -6.0(13)
C2 C1 C6 N2 176.5(8)
N1 C7 C8 N2 57.0(10)
N1 C7 C8 C9 177.2(8)
N2 C8 C9 F2 -175.4(8)
C7 C8 C9 F2 64.8(12)
N2 C8 C9 F3 60.6(12)
C7 C8 C9 F3 -59.2(11)
N2 C8 C9 F1 -57.6(11)
C7 C8 C9 F1 -177.5(8)
C6 C1 N1 C7 28.8(12)
C2 C1 N1 C7 -153.8(9)
C8 C7 N1 C1 -54.2(10)
C5 C6 N2 C8 -170.1(8)
C1 C6 N2 C8 12.2(13)
C9 C8 N2 C6 -158.6(9)
C7 C8 N2 C6 -37.7(12)
