#------------------------------------------------------------------------------
#$Date: 2019-11-24 14:48:58 +0200 (Sun, 24 Nov 2019) $
#$Revision: 238231 $
#$URL: file:///home/coder/svn-repositories/cod/cif/1/55/49/1554946.cif $
#------------------------------------------------------------------------------
#
# This file is available in the Crystallography Open Database (COD),
# http://www.crystallography.net/
#
# All data on this site have been placed in the public domain by the
# contributors.
#
data_1554946
loop_
_publ_author_name
'Su, Han'
'Bao, Ming'
'Pei, Chao'
'Hu, Wenhao'
'Qiu, Lihua'
'Xu, Xinfang'
_publ_section_title
;
 Gold-catalyzed dual annulation of azide-tethered alkynes with nitriles:
 expeditious synthesis of oxazolo[4,5-c]quinolines
;
_journal_issue                   14
_journal_name_full               'Organic Chemistry Frontiers'
_journal_page_first              2404
_journal_paper_doi               10.1039/C9QO00568D
_journal_volume                  6
_journal_year                    2019
_chemical_formula_moiety         'C14 H12 N2 O'
_chemical_formula_sum            'C14 H12 N2 O'
_chemical_formula_weight         224.26
_space_group_crystal_system      triclinic
_space_group_IT_number           2
_space_group_name_Hall           '-P 1'
_space_group_name_H-M_alt        'P -1'
_atom_sites_solution_hydrogens   geom
_atom_sites_solution_primary     direct
_audit_creation_date             2019-01-04
_audit_creation_method
;
Olex2 1.2-alpha
(compiled 2018.07.26 svn.r3523 for OlexSys, GUI svn.r5532)
;
_audit_update_record
;
2019-01-03 deposited with the CCDC.	2019-05-20 downloaded from the CCDC.
;
_cell_angle_alpha                85.065(8)
_cell_angle_beta                 81.059(8)
_cell_angle_gamma                68.355(8)
_cell_formula_units_Z            2
_cell_length_a                   7.2536(6)
_cell_length_b                   9.2341(9)
_cell_length_c                   9.3515(10)
_cell_measurement_reflns_used    2866
_cell_measurement_temperature    295.25(10)
_cell_measurement_theta_max      26.7120
_cell_measurement_theta_min      4.4580
_cell_volume                     574.85(10)
_computing_cell_refinement
'CrysAlisPro, Agilent Technologies, Version 1.171.36.32 (release 02-08-2013 CrysAlis171 .NET) (compiled Aug 2 2013,16:46:58)'
_computing_data_collection
'CrysAlisPro, Agilent Technologies, Version 1.171.36.32 (release 02-08-2013 CrysAlis171 .NET) (compiled Aug 2 2013,16:46:58)'
_computing_data_reduction
'CrysAlisPro, Agilent Technologies, Version 1.171.36.32 (release 02-08-2013 CrysAlis171 .NET) (compiled Aug 2 2013,16:46:58)'
_computing_molecular_graphics    'Olex2 (Dolomanov et al., 2009)'
_computing_publication_material  'Olex2 (Dolomanov et al., 2009)'
_computing_structure_refinement  'ShelXL (Sheldrick, 2015)'
_computing_structure_solution    'ShelXS (Sheldrick, 2008)'
_diffrn_ambient_temperature      293(2)
_diffrn_detector_area_resol_mean 10.4471
_diffrn_measured_fraction_theta_full 0.999
_diffrn_measured_fraction_theta_max 0.897
_diffrn_measurement_device_type  'Xcalibur, Atlas, Gemini'
_diffrn_measurement_method       '\w scans'
_diffrn_orient_matrix_UB_11      -0.1019201000
_diffrn_orient_matrix_UB_12      0.0211476000
_diffrn_orient_matrix_UB_13      -0.0093868000
_diffrn_orient_matrix_UB_21      0.0242147000
_diffrn_orient_matrix_UB_22      0.0139071000
_diffrn_orient_matrix_UB_23      -0.0750807000
_diffrn_orient_matrix_UB_31      0.0171709000
_diffrn_orient_matrix_UB_32      -0.0787107000
_diffrn_orient_matrix_UB_33      -0.0132653000
_diffrn_radiation_monochromator  graphite
_diffrn_radiation_type           MoK\a
_diffrn_radiation_wavelength     0.71073
_diffrn_reflns_av_R_equivalents  0.0277
_diffrn_reflns_av_unetI/netI     0.0235
_diffrn_reflns_Laue_measured_fraction_full 0.999
_diffrn_reflns_Laue_measured_fraction_max 0.897
_diffrn_reflns_limit_h_max       9
_diffrn_reflns_limit_h_min       -10
_diffrn_reflns_limit_k_max       12
_diffrn_reflns_limit_k_min       -12
_diffrn_reflns_limit_l_max       13
_diffrn_reflns_limit_l_min       -13
_diffrn_reflns_number            11188
_diffrn_reflns_point_group_measured_fraction_full 0.999
_diffrn_reflns_point_group_measured_fraction_max 0.897
_diffrn_reflns_theta_full        25.242
_diffrn_reflns_theta_max         30.351
_diffrn_reflns_theta_min         3.049
_diffrn_source                   'Enhance (Mo) X-ray Source'
_exptl_absorpt_coefficient_mu    0.084
_exptl_absorpt_correction_T_max  1.00000
_exptl_absorpt_correction_T_min  0.86883
_exptl_absorpt_correction_type   multi-scan
_exptl_absorpt_process_details
'CrysAlisPro, Agilent Technologies, Version 1.171.36.32 (release 02-08-2013 CrysAlis171 .NET) (compiled Aug 2 2013,16:46:58) Empirical absorption correction using spherical harmonics, implemented in SCALE3 ABSPACK scaling algorithm.'
_exptl_crystal_colour            'clear light colourless'
_exptl_crystal_colour_lustre     clear
_exptl_crystal_colour_modifier   light
_exptl_crystal_colour_primary    colourless
_exptl_crystal_density_diffrn    1.296
_exptl_crystal_description       block
_exptl_crystal_F_000             236
_exptl_crystal_size_max          0.2
_exptl_crystal_size_mid          0.15
_exptl_crystal_size_min          0.1
_refine_diff_density_max         0.110
_refine_diff_density_min         -0.185
_refine_diff_density_rms         0.042
_refine_ls_extinction_method     none
_refine_ls_goodness_of_fit_ref   1.016
_refine_ls_hydrogen_treatment    constr
_refine_ls_matrix_type           full
_refine_ls_number_parameters     155
_refine_ls_number_reflns         3111
_refine_ls_number_restraints     0
_refine_ls_restrained_S_all      1.016
_refine_ls_R_factor_all          0.0923
_refine_ls_R_factor_gt           0.0533
_refine_ls_shift/su_max          0.000
_refine_ls_shift/su_mean         0.000
_refine_ls_structure_factor_coef Fsqd
_refine_ls_weighting_details
'w=1/[\s^2^(Fo^2^)+(0.0757P)^2^+0.0485P] where P=(Fo^2^+2Fc^2^)/3'
_refine_ls_weighting_scheme      calc
_refine_ls_wR_factor_gt          0.1358
_refine_ls_wR_factor_ref         0.1669
_reflns_Friedel_coverage         0.000
_reflns_number_gt                1816
_reflns_number_total             3111
_reflns_threshold_expression     'I > 2\s(I)'
_iucr_refine_instructions_details
;

    g190102b.res created by SHELXL-2014/7

TITL g190102b in P-1 #2
REM reset to P-1 #2
CELL 0.71073 7.253596 9.23415 9.351507 85.065 81.0594 68.3553
ZERR 2 0.000619 0.00088 0.000966 0.0081 0.008 0.0084
LATT 1
SFAC C H N O
UNIT 28 24 4 2
 
L.S. 20
PLAN  20
SIZE 0.1 0.15 0.2
TEMP 20(2)
fmap 2
acta
REM <olex2.extras>
REM <HklSrc "%g190102b.hkl">
REM </olex2.extras>
 
WGHT    0.075700    0.048500
FVAR       8.82664
O1    4    0.175025    1.237701    0.480133    11.00000    0.07221    0.05750 =
         0.08599   -0.00022   -0.01320   -0.02408
N1    3    0.324128    1.172017    0.252994    11.00000    0.06957    0.05610 =
         0.08327    0.01107   -0.01377   -0.02369
N2    3    0.393230    0.771383    0.399182    11.00000    0.07937    0.05904 =
         0.06284    0.00691   -0.01027   -0.02702
C1    1    0.237836    1.078689    0.473646    11.00000    0.05525    0.05401 =
         0.07838    0.00018   -0.01759   -0.02062
C2    1    0.216168    0.970809    0.582873    11.00000    0.05877    0.06410 =
         0.06740    0.00161   -0.01700   -0.02742
C3    1    0.121843    1.002730    0.725640    11.00000    0.08427    0.07326 =
         0.07352   -0.00994   -0.00927   -0.03112
AFIX  43
H3    2    0.066804    1.104949    0.756186    11.00000   -1.20000
AFIX   0
C4    1    0.111052    0.884044    0.819183    11.00000    0.10712    0.08813 =
         0.06506   -0.00671   -0.00148   -0.04333
AFIX  43
H4    2    0.047516    0.906124    0.913353    11.00000   -1.20000
AFIX   0
C5    1    0.193235    0.730706    0.776405    11.00000    0.09726    0.08052 =
         0.06578    0.00586   -0.01167   -0.04326
AFIX  43
H5    2    0.184986    0.651105    0.842128    11.00000   -1.20000
AFIX   0
C6    1    0.285879    0.695823    0.638958    11.00000    0.08100    0.06490 =
         0.06427    0.00551   -0.01366   -0.03312
AFIX  43
H6    2    0.340699    0.592429    0.611711    11.00000   -1.20000
AFIX   0
C7    1    0.299774    0.814427    0.537407    11.00000    0.06198    0.06025 =
         0.06251    0.00351   -0.01604   -0.02601
C8    1    0.407675    0.879383    0.300427    11.00000    0.07248    0.05804 =
         0.06806    0.00873   -0.01166   -0.02303
C9    1    0.328660    1.038393    0.336973    11.00000    0.06121    0.05597 =
         0.07249    0.00817   -0.01554   -0.02279
C10   1    0.233561    1.283065    0.341838    11.00000    0.06687    0.06066 =
         0.09103    0.00875   -0.01881   -0.02504
C11   1    0.183269    1.452756    0.313938    11.00000    0.09911    0.05955 =
         0.11421    0.00930   -0.01246   -0.02708
AFIX 137
H11A  2    0.042528    1.506346    0.341730    11.00000   -1.50000
H11B  2    0.217275    1.472599    0.212701    11.00000   -1.50000
H11C  2    0.257408    1.489301    0.369301    11.00000   -1.50000
AFIX   0
C12   1    0.505055    0.834431    0.152539    11.00000    0.10981    0.05942 =
         0.06668    0.01120    0.00027   -0.02430
AFIX  13
H12   2    0.495493    0.921357    0.082528    11.00000   -1.20000
AFIX   0
C13   1    0.691275    0.696654    0.128900    11.00000    0.09540    0.08649 =
         0.08645   -0.00735    0.00304   -0.02379
AFIX  23
H13A  2    0.792430    0.702848    0.050049    11.00000   -1.20000
H13B  2    0.743402    0.636525    0.213581    11.00000   -1.20000
AFIX   0
C14   1    0.508791    0.690331    0.091966    11.00000    0.12997    0.10679 =
         0.06854   -0.00793   -0.00414   -0.06260
AFIX  23
H14A  2    0.446708    0.626361    0.153599    11.00000   -1.20000
H14B  2    0.495744    0.692695   -0.009961    11.00000   -1.20000
AFIX   0
HKLF 4
 
REM  g190102b in P-1 #2
REM R1 =  0.0533 for    1816 Fo > 4sig(Fo)  and  0.0923 for all    3111 data
REM    155 parameters refined using      0 restraints
 
END  
     
WGHT      0.0756      0.0485 

REM Highest difference peak  0.110,  deepest hole -0.185,  1-sigma level  0.042
Q1    1   0.0745  1.4994  0.2245  11.00000  0.05    0.11
Q2    1   0.1101  1.5176  0.4234  11.00000  0.05    0.11
Q3    1   0.0443  0.9175  0.4775  11.00000  0.05    0.10
Q4    1   0.6278  0.9065  0.1170  11.00000  0.05    0.10
Q5    1   0.2132  0.7953  0.3312  11.00000  0.05    0.10
Q6    1   0.3668  1.0585  0.4420  11.00000  0.05    0.10
Q7    1   0.7595  0.7019  0.2172  11.00000  0.05    0.10
Q8    1   0.3479  0.7030  0.1580  11.00000  0.05    0.09
Q9    1  -0.2010  0.9423  0.9877  11.00000  0.05    0.09
Q10   1   0.2955  0.7013  0.3168  11.00000  0.05    0.09
Q11   1   0.4070  0.7853  0.0465  11.00000  0.05    0.09
Q12   1  -0.0277  0.7099  0.8172  11.00000  0.05    0.09
Q13   1   0.6120  1.0832  0.1423  11.00000  0.05    0.09
Q14   1   0.7202  0.7426  0.3174  11.00000  0.05    0.09
Q15   1  -0.1046  0.9201  0.8749  11.00000  0.05    0.09
Q16   1   0.0979  1.1802  0.2237  11.00000  0.05    0.09
Q17   1   0.5193  0.8243  0.5522  11.00000  0.05    0.09
Q18   1   0.1304  0.8043  0.4670  11.00000  0.05    0.09
Q19   1   0.3688  0.9136  0.0587  11.00000  0.05    0.09
Q20   1   0.5254  1.0196  0.3712  11.00000  0.05    0.09

  REM The information below was added by Olex2.
  REM
  REM R1 = 0.0533 for 1816 Fo > 4sig(Fo) and 0.0923 for all 11188 data
  REM n/a parameters refined using n/a restraints
  REM Highest difference peak 0.11, deepest hole -0.19
  REM Mean Shift 0, Max Shift 0.000.

  REM +++ Tabular Listing of Refinement Information +++
  REM R1_all = 0.0923
  REM R1_gt = 0.0533
  REM wR_ref = 0.1669
  REM GOOF = 1.016
  REM Shift_max = 0.000
  REM Shift_mean = 0
  REM Reflections_all = 11188
  REM Reflections_gt = 1816
  REM Parameters = n/a
  REM Hole = -0.19
  REM Peak = 0.11
  REM Flack = n/a

  
;
_cod_data_source_file            c9qo00568d2.cif
_cod_data_source_block           g190102b
_cod_database_code               1554946
_shelx_shelxl_version_number     2014/7
_chemical_oxdiff_formula         'C H O N'
_shelx_space_group_comment
;
The symmetry employed for this shelxl refinement is uniquely defined
by the following loop, which should always be used as a source of
symmetry information in preference to the above space-group names.
They are only intended as comments.
;
_shelx_estimated_absorpt_t_max   0.992
_shelx_estimated_absorpt_t_min   0.983
_reflns_odcompleteness_completeness 99.92
_reflns_odcompleteness_iscentric 1
_reflns_odcompleteness_theta     27.42
_olex2_refinement_description
;
1. Fixed Uiso
 At 1.2 times of:
  All C(H) groups, All C(H,H) groups
 At 1.5 times of:
  All C(H,H,H) groups
2.a Ternary CH refined with riding coordinates:
 C12(H12)
2.b Secondary CH2 refined with riding coordinates:
 C13(H13A,H13B), C14(H14A,H14B)
2.c Aromatic/amide H refined with riding coordinates:
 C3(H3), C4(H4), C5(H5), C6(H6)
2.d Idealised Me refined as rotating group:
 C11(H11A,H11B,H11C)
;
_olex2_submission_special_instructions 'No special instructions were received'
loop_
_space_group_symop_operation_xyz
'x, y, z'
'-x, -y, -z'
loop_
_atom_site_label
_atom_site_type_symbol
_atom_site_fract_x
_atom_site_fract_y
_atom_site_fract_z
_atom_site_U_iso_or_equiv
_atom_site_adp_type
_atom_site_occupancy
_atom_site_site_symmetry_order
_atom_site_calc_flag
_atom_site_refinement_flags_posn
O1 O 0.17502(15) 1.23770(11) 0.48013(12) 0.0715(3) Uani 1 1 d .
N1 N 0.32413(19) 1.17202(14) 0.25299(15) 0.0698(4) Uani 1 1 d .
N2 N 0.39323(19) 0.77138(14) 0.39918(13) 0.0670(4) Uani 1 1 d .
C1 C 0.2378(2) 1.07869(16) 0.47365(18) 0.0614(4) Uani 1 1 d .
C2 C 0.2162(2) 0.97081(17) 0.58287(16) 0.0612(4) Uani 1 1 d .
C3 C 0.1218(3) 1.0027(2) 0.72564(19) 0.0759(5) Uani 1 1 d .
H3 H 0.0668 1.1049 0.7562 0.091 Uiso 1 1 calc R
C4 C 0.1111(3) 0.8840(2) 0.81918(19) 0.0853(5) Uani 1 1 d .
H4 H 0.0475 0.9061 0.9134 0.102 Uiso 1 1 calc R
C5 C 0.1932(3) 0.7307(2) 0.77640(18) 0.0784(5) Uani 1 1 d .
H5 H 0.1850 0.6511 0.8421 0.094 Uiso 1 1 calc R
C6 C 0.2859(2) 0.69582(18) 0.63896(17) 0.0681(4) Uani 1 1 d .
H6 H 0.3407 0.5924 0.6117 0.082 Uiso 1 1 calc R
C7 C 0.2998(2) 0.81443(17) 0.53741(16) 0.0599(4) Uani 1 1 d .
C8 C 0.4077(2) 0.87938(17) 0.30043(17) 0.0668(4) Uani 1 1 d .
C9 C 0.3287(2) 1.03839(16) 0.33697(17) 0.0626(4) Uani 1 1 d .
C10 C 0.2336(2) 1.28306(18) 0.3418(2) 0.0720(4) Uani 1 1 d .
C11 C 0.1833(3) 1.45276(18) 0.3139(2) 0.0924(6) Uani 1 1 d .
H11A H 0.0425 1.5063 0.3417 0.139 Uiso 1 1 calc GR
H11B H 0.2173 1.4726 0.2127 0.139 Uiso 1 1 calc GR
H11C H 0.2574 1.4893 0.3693 0.139 Uiso 1 1 calc GR
C12 C 0.5051(3) 0.83443(19) 0.15254(18) 0.0826(5) Uani 1 1 d .
H12 H 0.4955 0.9214 0.0825 0.099 Uiso 1 1 calc R
C13 C 0.6913(3) 0.6967(2) 0.1289(2) 0.0935(6) Uani 1 1 d .
H13A H 0.7924 0.7028 0.0500 0.112 Uiso 1 1 calc R
H13B H 0.7434 0.6365 0.2136 0.112 Uiso 1 1 calc R
C14 C 0.5088(3) 0.6903(2) 0.0920(2) 0.0968(6) Uani 1 1 d .
H14A H 0.4467 0.6264 0.1536 0.116 Uiso 1 1 calc R
H14B H 0.4957 0.6927 -0.0100 0.116 Uiso 1 1 calc R
loop_
_atom_site_aniso_label
_atom_site_aniso_U_11
_atom_site_aniso_U_22
_atom_site_aniso_U_33
_atom_site_aniso_U_23
_atom_site_aniso_U_13
_atom_site_aniso_U_12
O1 0.0722(7) 0.0575(6) 0.0860(8) -0.0002(5) -0.0132(5) -0.0241(5)
N1 0.0696(8) 0.0561(7) 0.0833(9) 0.0111(6) -0.0138(7) -0.0237(6)
N2 0.0794(8) 0.0590(7) 0.0628(8) 0.0069(6) -0.0103(6) -0.0270(6)
C1 0.0553(8) 0.0540(8) 0.0784(10) 0.0002(7) -0.0176(7) -0.0206(6)
C2 0.0588(8) 0.0641(8) 0.0674(9) 0.0016(7) -0.0170(7) -0.0274(7)
C3 0.0843(11) 0.0733(10) 0.0735(11) -0.0099(8) -0.0093(8) -0.0311(8)
C4 0.1071(13) 0.0881(12) 0.0651(10) -0.0067(9) -0.0015(9) -0.0433(10)
C5 0.0973(12) 0.0805(11) 0.0658(10) 0.0059(8) -0.0117(9) -0.0433(9)
C6 0.0810(10) 0.0649(9) 0.0643(9) 0.0055(7) -0.0137(8) -0.0331(7)
C7 0.0620(8) 0.0603(8) 0.0625(9) 0.0035(6) -0.0160(7) -0.0260(6)
C8 0.0725(9) 0.0580(8) 0.0681(10) 0.0087(7) -0.0117(7) -0.0230(7)
C9 0.0612(8) 0.0560(8) 0.0725(10) 0.0082(7) -0.0155(7) -0.0228(6)
C10 0.0669(9) 0.0607(9) 0.0910(12) 0.0087(8) -0.0188(8) -0.0250(7)
C11 0.0991(13) 0.0595(10) 0.1142(15) 0.0093(9) -0.0125(11) -0.0271(9)
C12 0.1098(13) 0.0594(9) 0.0667(10) 0.0112(7) 0.0003(9) -0.0243(9)
C13 0.0954(13) 0.0865(12) 0.0864(13) -0.0073(10) 0.0030(10) -0.0238(10)
C14 0.1300(17) 0.1068(15) 0.0685(11) -0.0079(10) -0.0041(11) -0.0626(13)
loop_
_atom_type_symbol
_atom_type_description
_atom_type_scat_dispersion_real
_atom_type_scat_dispersion_imag
_atom_type_scat_source
C C 0.0033 0.0016 'International Tables Vol C Tables 4.2.6.8 and 6.1.1.4'
H H 0.0000 0.0000 'International Tables Vol C Tables 4.2.6.8 and 6.1.1.4'
N N 0.0061 0.0033 'International Tables Vol C Tables 4.2.6.8 and 6.1.1.4'
O O 0.0106 0.0060 'International Tables Vol C Tables 4.2.6.8 and 6.1.1.4'
loop_
_geom_angle_atom_site_label_1
_geom_angle_atom_site_label_2
_geom_angle_atom_site_label_3
_geom_angle
C1 O1 C10 103.39(12)
C10 N1 C9 103.45(14)
C8 N2 C7 119.73(13)
O1 C1 C2 128.67(14)
C9 C1 O1 107.86(13)
C9 C1 C2 123.46(13)
C1 C2 C3 127.06(14)
C1 C2 C7 113.37(14)
C3 C2 C7 119.57(14)
C4 C3 C2 119.95(16)
C3 C4 C5 121.05(16)
C6 C5 C4 120.46(16)
C5 C6 C7 120.79(15)
N2 C7 C2 123.93(14)
N2 C7 C6 117.90(13)
C6 C7 C2 118.17(14)
N2 C8 C9 119.97(15)
N2 C8 C12 119.99(14)
C9 C8 C12 120.05(14)
N1 C9 C8 130.65(15)
C1 C9 N1 109.80(13)
C1 C9 C8 119.55(14)
O1 C10 C11 116.20(15)
N1 C10 O1 115.50(14)
N1 C10 C11 128.30(17)
C8 C12 C13 120.27(15)
C8 C12 C14 120.80(15)
C13 C12 C14 58.35(12)
C14 C13 C12 60.95(13)
C13 C14 C12 60.70(13)
loop_
_geom_bond_atom_site_label_1
_geom_bond_atom_site_label_2
_geom_bond_distance
O1 C1 1.3713(16)
O1 C10 1.377(2)
N1 C9 1.3970(19)
N1 C10 1.286(2)
N2 C7 1.380(2)
N2 C8 1.3217(19)
C1 C2 1.397(2)
C1 C9 1.358(2)
C2 C3 1.404(2)
C2 C7 1.419(2)
C3 C4 1.360(2)
C4 C5 1.386(2)
C5 C6 1.360(2)
C6 C7 1.409(2)
C8 C9 1.416(2)
C8 C12 1.471(2)
C10 C11 1.481(2)
C12 C13 1.476(2)
C12 C14 1.480(2)
C13 C14 1.441(3)
loop_
_refln_index_h
_refln_index_k
_refln_index_l
_refln_F_squared_meas
_refln_F_squared_sigma
_refln_scale_group_code
0 0 2 35221 329.333 8
0 0 -2 35934.8 343.1 2
0 0 -3 3345.51 128.832 8
0 0 3 3218.35 122.838 8
0 0 3 3419.64 135.433 2
0 0 -3 3263.91 127.473 2
0 0 -4 1023.11 82.2962 2
0 0 4 1060.25 89.2887 2
0 0 -4 1100.92 88.1332 8
0 0 4 1051.73 81.0405 8
0 0 -5 6121.46 227.869 2
0 0 -5 6032.04 231.951 8
0 0 5 6009.3 216.761 8
0 0 5 6075.47 243.082 2
0 0 6 702.361 94.947 2
0 0 -6 971.048 103.962 8
0 0 -6 990.955 102.152 2
0 0 6 919.342 95.0681 8
0 0 -7 33.448 25.3794 2
0 0 7 36.0459 29.4996 8
0 0 -7 6.74452 24.1443 8
0 0 8 169.796 51.2129 8
0 0 -8 122.033 21.4119 10
0 0 -8 146.885 50.9446 2
0 0 -9 -7.40117 5.45047 10
0 0 9 14.658 18.4838 8
0 0 -9 -6.07537 32.8031 2
0 0 -9 -1.24423 28.3842 7
0 0 -10 -29.5749 26.7718 2
0 0 -10 34.5687 25.328 7
0 0 10 -1.77696 22.1921 8
0 0 11 19.0001 33.7124 8
0 0 -11 16.4775 23.8486 2
0 0 -12 71.895 39.1074 2
0 0 -13 -5.70233 31.4816 2
0 1 -12 273.698 90.2109 2
0 1 -11 -50.4768 42.013 2
0 -1 11 26.3611 27.5289 8
0 -1 10 140.846 50.036 8
0 1 -10 189.678 65.8405 2
0 -1 9 411.968 76.5255 8
0 1 -9 553.335 100.966 2
0 1 -8 6995.34 315.1 8
0 1 -8 7265.9 339.994 2
0 -1 8 7472.74 298.938 8
0 1 -8 6965.76 166.864 10
0 1 -7 10213.3 370.794 2
0 -1 7 9365.64 308.081 8
0 1 -6 347.449 63.2216 2
0 -1 6 461.625 76.9288 2
0 1 -6 442.787 65.7791 8
0 -1 6 453.659 61.5231 8
0 -1 5 4709.92 229.199 2
0 1 -5 4822.59 190.544 8
0 1 -5 5029.83 220.23 2
0 -1 5 4544.05 174.213 8
0 1 -4 245.4 46.4806 2
0 -1 4 237.988 36.1571 8
0 1 -4 231.991 35.3566 8
0 1 -3 48372.2 410.946 8
0 -1 3 47316.3 400.985 8
0 1 -3 46951.5 539.553 2
0 1 -2 88892.3 639.601 2
0 -1 2 89162.2 399.693 8
0 1 -2 90041.8 405.279 8
0 1 -1 1623.23 69.1598 2
0 1 -1 1471.02 58.6689 10
0 -1 -1 120972 511.817 7
0 -1 -2 63545.9 412.8 7
0 -1 -2 62312.7 400.915 10
0 -1 -2 62833.1 447.754 5
0 1 2 63640.6 412.646 2
0 1 2 62936.1 525.179 8
0 -1 -2 64401.2 400.693 2
0 -1 -2 63185.3 390.345 4
0 1 3 4367.87 139.455 2
0 -1 -3 4619.74 129.877 7
0 -1 -3 4582.12 137.521 2
0 1 3 4272.55 161.211 8
0 1 4 29063.6 469.435 8
0 -1 -4 28957 370.783 7
0 -1 -4 28884.5 405.451 2
0 -1 -4 29162.5 495.82 8
0 1 4 28704.1 430.503 2
0 1 5 10355.6 295.478 2
0 1 5 10687.9 318.561 8
0 -1 -5 11052.9 339.853 8
0 -1 -5 10558.6 277.873 2
0 -1 -5 10235.4 246.013 7
0 -1 -6 894.393 64.0414 10
0 1 6 909.22 98.3954 2
0 -1 -6 906.384 81.3991 7
0 -1 -6 677.64 95.0851 8
0 1 6 1003.31 106.766 8
0 -1 -6 987.185 96.2185 2
0 -1 -7 966.801 106.075 2
0 -1 -7 841.711 105.589 1
0 1 7 842.894 106.934 8
0 -1 -7 1003.38 92.4726 7
0 -1 -7 939.956 69.1743 10
0 1 7 623.602 92.9789 2
0 -1 -8 2896.96 170.484 7
0 -1 -8 2785.53 194.585 2
0 1 8 2737.94 204.213 8
0 -1 -8 2585.07 115.178 10
0 -1 -8 2784.68 136.111 4
0 -1 -9 2967.79 218.687 2
0 1 9 2857.63 225.285 8
0 -1 -9 2637.75 111.371 10
0 -1 -9 2996.12 185.446 7
0 -1 -9 2932.45 146.06 4
0 -1 -10 55.5341 25.0169 7
0 1 10 135.234 60.754 8
0 -1 -10 61.5137 40.2684 2
0 1 11 19.1445 32.2031 8
0 -1 -11 39.6484 44.9369 2
0 -1 -12 -54.9885 40.4635 2
0 1 12 7.49311 27.3284 8
0 2 -12 106.214 55.4547 2
0 2 -11 45.148 51.6963 2
0 -2 10 48.2706 34.4615 8
0 2 -10 -8.86456 27.8779 2
0 2 -9 20.8819 38.6416 2
0 -2 9 11.3245 20.5672 8
0 2 -8 4933.37 163.935 10
0 -2 8 5387.24 232.568 8
0 2 -7 2221.41 181.129 2
0 -2 7 2265.6 136.002 8
0 2 -7 2186.35 112.784 10
0 -2 6 521.326 59.8498 8
0 2 -6 485.585 81.5293 2
0 2 -6 502.969 54.725 10
0 2 -6 540.229 64.6997 8
0 -2 5 5781.63 169.811 8
0 2 -5 5932.32 184.704 10
0 2 -5 6103.73 261.564 2
0 2 -4 6518.99 186.199 10
0 2 -4 7058.9 256.104 2
0 -2 4 6472.69 152.943 8
0 2 -4 6754.42 161.497 8
0 2 -3 46197.4 319.376 8
0 -2 3 46514.5 313.163 8
0 -2 3 46566.4 548.174 6
0 2 -3 45431.9 477.834 10
0 -2 2 612.255 55.8677 6
0 2 -2 561.964 58.4412 2
0 2 -2 570.676 51.6486 10
0 -2 1 41.0639 15.0277 6
0 2 -1 27.5941 12.7571 10
0 2 -1 48.2438 16.6993 2
0 2 0 90760.3 528.232 2
0 2 0 90721.1 524.547 8
0 -2 0 89721 565.032 6
0 2 0 91107.7 632.709 10
0 -2 -1 125.653 25.4592 3
0 -2 -1 115.891 24.6927 4
0 2 1 137.122 25.2676 10
0 -2 -1 137.87 24.9544 5
0 2 1 131.247 24.1621 8
0 -2 -1 133.836 25.8851 7
0 2 2 62519.7 522.492 4
0 2 2 62920.2 528.988 10
0 -2 -2 61171.1 557.581 3
0 -2 -2 61881 547.08 10
0 -2 -2 61758.1 533.731 5
0 -2 -2 61237.8 302.26 1
0 2 2 62106.2 606.46 8
0 2 2 61200.7 316.927 9
0 2 2 62102.3 397.837 2
0 -2 -2 61162.8 521.672 4
0 -2 -2 61895.1 521.603 7
0 2 3 8805.11 186.552 2
0 2 3 8914.16 258.133 8
0 2 3 9089.38 212.532 7
0 -2 -3 8800.05 213.432 10
0 -2 -3 8594.37 115.037 9
0 -2 -3 8896.32 211.3 7
0 -2 -3 8659.49 174.722 2
0 -2 -3 8466.65 198.137 4
0 -2 -3 8490.23 165.373 1
0 -2 -3 8727.35 236.684 3
0 -2 -3 8702.75 221.206 5
0 -2 -4 17236.5 294.412 1
0 -2 -4 17565.7 296.348 2
0 2 4 18276.5 406.228 8
0 2 4 17919.1 320.238 2
0 -2 -4 17591.8 304.871 4
0 -2 -4 17637.5 316.261 10
0 -2 -4 18750.9 396.086 3
0 -2 -4 17396.1 184.215 9
0 -2 -4 18441.8 330.817 7
0 -2 -4 18482.1 352.464 5
0 -2 -5 11228.3 304.003 5
0 -2 -5 10807.7 274.572 1
0 -2 -5 10726.9 257.287 10
0 -2 -5 10876.2 250.751 4
0 2 5 11206.9 291.588 2
0 -2 -5 11748.5 382.384 8
0 -2 -5 11065.8 273.716 7
0 2 5 11644.6 354.843 8
0 -2 -5 10822 172.162 9
0 -2 -5 11484.6 274.501 2
0 -2 -6 686.542 69.2422 10
0 -2 -6 798.975 108.745 8
0 -2 -6 674.857 75.4511 2
0 -2 -6 705.655 74.2937 7
0 -2 -6 685.242 80.5808 5
0 2 6 799.411 103.6 8
0 -2 -6 686.463 66.631 4
0 -2 -6 661.712 48.6322 9
0 2 6 838.852 91.4826 2
0 -2 -6 717.88 81.171 1
0 -2 -7 1427.6 122.6 2
0 2 7 972.997 109.674 2
0 -2 -7 1180.23 93.2602 10
0 -2 -7 1322.12 98.7707 4
0 -2 -7 1400.65 113.617 7
0 -2 -7 1277.35 122.314 1
0 2 7 1241.91 137.731 8
0 -2 -7 1345.39 76.9734 9
0 -2 -8 86.463 23.8524 10
0 -2 -8 68.7914 24.8854 4
0 -2 -8 112.845 38.879 7
0 2 8 180.149 64.0641 8
0 -2 -8 75.066 21.2479 9
0 -2 -8 111.906 39.1832 2
0 -2 -9 98.2026 30.7136 4
0 -2 -9 122.724 31.2897 10
0 -2 -9 72.2776 30.1687 2
0 -2 -9 103.361 36.6289 7
0 2 10 138.93 66.0241 8
0 -2 -10 114.074 45.7484 2
0 -2 -10 126.123 48.237 7
0 -2 -11 33.8986 36.4412 2
0 2 11 82.2406 57.848 8
0 2 12 8.75784 27.3963 8
0 3 -11 66.9359 52.7124 2
0 -3 11 27.3472 51.1586 6
0 -3 10 14.7086 41.1324 6
0 3 -10 23.9624 41.8623 2
0 -3 9 49.7389 42.1661 6
0 3 -9 -41.2287 49.1956 2
0 -3 9 26.5058 27.8967 8
0 -3 8 1270.66 149.738 6
0 3 -8 1277.04 98.634 10
0 3 -8 1255.05 160.664 2
0 -3 8 1339.64 101.688 8
0 3 -7 1827.84 167.778 2
0 3 -7 1769.39 118.757 10
0 -3 7 1893.2 108.887 8
0 -3 7 1991.33 174.565 6
0 -3 6 183.442 53.3453 6
0 -3 6 171.291 28.6512 8
0 3 -6 149.533 45.308 2
0 3 -6 138.783 28.8453 8
0 3 -6 143.881 35.8607 10
0 3 -5 1098.62 117.081 2
0 -3 5 1230.21 65.1593 8
0 -3 5 1169.97 115.055 6
0 3 -5 1016.51 61.9668 8
0 3 -5 1243.06 99.6265 10
0 3 -4 20768.7 472.189 2
0 3 -4 19937.7 390.715 10
0 -3 4 21140.8 445.914 6
0 3 -3 54911.7 632.782 10
0 3 -3 54386.4 714.084 2
0 3 -2 1399.11 50.9198 8
0 3 -2 1449.29 101.91 10
0 -3 2 1589.05 102.933 6
0 3 -2 1546.05 49.0376 8
0 3 -2 1500.55 101.194 6
0 3 -2 1459.91 106.53 2
0 -3 1 5074.26 170.346 6
0 3 -1 5125.77 176.599 2
0 3 -1 5104.76 186.084 10
0 3 -1 5196.29 127.965 8
0 3 -1 5196.3 175.487 6
0 -3 0 202.482 33.9328 6
0 3 0 216.678 32.6833 2
0 3 0 220.494 32.1055 8
0 3 0 214.795 38.4592 10
0 3 0 198.431 32.3189 6
0 3 1 341.438 23.8916 1
0 -3 -1 319.06 44.8612 3
0 3 1 409.081 49.2555 6
0 -3 -1 289.741 40.5997 6
0 3 1 367.805 50.1422 10
0 3 1 322.695 44.3068 8
0 -3 -2 330.713 48.2343 4
0 -3 -2 302.102 47.3094 10
0 3 2 307.058 47.2667 7
0 -3 -2 282.439 45.004 7
0 -3 -2 318.288 46.8855 5
0 3 2 297.38 43.9927 6
0 -3 -2 295.73 45.3859 3
0 3 2 317.621 45.4043 4
0 3 2 287.193 30.0528 9
0 3 2 305.308 45.4182 10
0 3 2 276.839 46.8966 8
0 -3 -3 319.782 46.3727 4
0 -3 -3 375.564 51.5092 7
0 -3 -3 411.612 55.1592 5
0 3 3 361.798 37.9191 2
0 3 3 378.456 51.5183 7
0 3 3 366.08 56.9168 8
0 3 3 383.391 30.2595 9
0 -3 -3 362.128 54.3927 3
0 3 3 446.728 52.8236 4
0 -3 -3 357.773 27.6344 1
0 3 3 382.657 53.2217 5
0 -3 -3 421.44 57.6915 10
0 -3 -4 4300.1 189.034 5
0 -3 -4 4127.33 172.815 7
0 -3 -4 4272.47 183.35 10
0 3 4 4319.43 180.682 7
0 -3 -4 4297.95 128.983 1
0 -3 -4 4230.11 200.388 3
0 -3 -4 4289.09 176.588 4
0 3 4 4413.24 215.464 8
0 -3 -5 760.912 76.9103 4
0 3 5 743.854 72.5058 2
0 -3 -5 696.204 81.2106 5
0 3 5 748.077 77.6384 7
0 -3 -5 629.093 35.5314 9
0 -3 -5 723.894 66.4582 1
0 3 5 643.193 91.07 8
0 -3 -5 779.529 82.3611 7
0 -3 -5 624.709 85.1219 3
0 -3 -5 703.095 77.4335 10
0 3 6 900.945 116.823 8
0 -3 -6 865.328 97.7885 5
0 -3 -6 756.604 39.6698 9
0 3 6 744.847 84.3647 2
0 -3 -6 990.124 88.3716 4
0 -3 -6 848.769 88.8647 7
0 -3 -6 913.728 86.1439 1
0 -3 -6 927.596 86.3047 2
0 -3 -6 900.096 106.174 3
0 -3 -6 934.177 91.9257 10
0 3 7 57.7542 24.8875 2
0 -3 -7 37.1139 29.5516 7
0 -3 -7 53.3804 11.6908 9
0 -3 -7 61.9572 26.1521 2
0 -3 -7 18.2471 42.7402 3
0 3 7 26.8104 27.0187 8
0 -3 -7 12.0548 17.9838 4
0 -3 -7 50.3032 18.909 10
0 -3 -7 35.7938 22.5643 1
0 -3 -8 143.235 42.1222 7
0 -3 -8 122.738 38.8001 1
0 -3 -8 185.479 50.0822 2
0 -3 -8 87.6581 27.3284 10
0 -3 -8 104.338 16.9072 9
0 3 8 115.637 40.4137 2
0 -3 -8 72.1574 43.9246 3
0 -3 -8 143.452 38.7216 4
0 3 8 135.044 62.7141 8
0 -3 -9 1158.61 110.285 10
0 -3 -9 1129.7 108.2 4
0 -3 -9 1283.42 128.565 2
0 -3 -9 1183.28 158.412 3
0 3 9 1046.01 147.987 8
0 -3 -9 1217.96 123.823 7
0 -3 -10 19.5224 20.7986 2
0 3 10 -10.8928 42.7229 8
0 -3 -10 -1.0748 18.2023 7
0 -3 -10 39.7868 36.8382 3
0 -3 -11 69.8001 46.4683 2
0 -3 -11 48.3116 41.8458 3
0 3 11 -7.48391 45.3815 8
0 3 12 -62.6675 50.8543 8
0 4 -11 302.337 100.855 2
0 -4 11 238.97 90.1255 6
0 -4 10 113.554 65.3198 6
0 4 -10 157.275 70.233 2
0 4 -9 171.72 67.3715 2
0 -4 9 160.637 60.1231 6
0 -4 8 509.555 101.48 6
0 4 -8 427.955 97.8803 2
0 4 -7 111.201 48.3502 2
0 4 -7 107.407 34.4179 10
0 -4 7 78.2207 30.0654 6
0 -4 6 1281.75 138.888 6
0 4 -6 1358.2 120.07 10
0 4 -6 1296.99 148.768 2
0 4 -5 3946.3 238.448 2
0 -4 5 4574.6 237.07 6
0 4 -5 4427.19 217.027 10
0 -4 4 2737.81 173.218 6
0 4 -4 2617.8 163.617 10
0 4 -4 2547.39 178.576 2
0 4 -3 13142.5 361.336 10
0 4 -3 12691.9 377.01 2
0 -4 3 13671 359.483 6
0 4 -2 3237.49 100.095 8
0 4 -2 3265.91 173.734 2
0 4 -2 3293.82 170.986 6
0 4 -2 3242.62 175.833 10
0 -4 2 3572.02 173.49 6
0 4 -1 24075.8 332.385 8
0 4 -1 23079.9 429.59 6
0 4 -1 22449.7 422.247 2
0 -4 1 24282 433.433 6
0 4 -1 22803.5 459.153 10
0 4 0 25221 479.13 10
0 -4 0 26260.4 433.467 6
0 4 0 25564.9 443.255 6
0 4 0 25838.4 398.127 8
0 4 0 26375.1 412.839 2
0 -4 -1 36308.6 515.905 6
0 4 1 36388.1 533.79 6
0 -4 -1 34840 531.505 3
0 4 1 35099.5 308.303 1
0 4 1 35904.6 574.131 10
0 4 1 35759.9 519.018 8
0 -4 -2 27979 500.502 3
0 4 2 29068.7 378.799 9
0 4 2 29643.2 515.578 10
0 4 2 27594.8 499.997 8
0 -4 -2 27923.1 531.558 8
0 -4 -2 27883.7 520.687 10
0 4 2 29010.4 510.467 4
0 4 2 29411.5 524.344 7
0 4 2 28107.5 487.081 6
0 -4 -3 85.982 31.4676 7
0 4 3 137.284 35.396 5
0 4 3 162.666 43.3315 7
0 4 3 175.487 39.4829 4
0 -4 -3 128.113 36.1116 10
0 -4 -3 186.347 42.8492 5
0 4 3 132.56 35.1058 8
0 4 3 131.313 23.0778 9
0 4 3 136.809 34.9232 6
0 4 3 133.982 24.2788 2
0 -4 -3 118.771 33.4523 3
0 4 4 1248.07 84.2929 2
0 4 4 1328.04 127.469 8
0 4 4 1380.15 115.104 7
0 4 4 1575.3 119.171 4
0 4 4 1289.31 61.9559 9
0 -4 -4 1275.91 112.019 7
0 -4 -4 1316.26 55.9891 1
0 -4 -4 1189.31 114.399 3
0 4 4 1470.33 118.652 5
0 -4 -4 1356.66 119.368 10
0 -4 -4 1417.35 115.441 4
0 -4 -4 1299.7 116.191 5
0 -4 -5 5427.98 232.325 4
0 4 5 5677.01 237.78 7
0 -4 -5 5451.17 239.244 7
0 -4 -5 5210.16 148.346 1
0 4 5 5406.79 194.293 2
0 -4 -5 5640.29 265.985 3
0 -4 -5 5485.73 245.501 5
0 4 5 5841.09 284.943 8
0 -4 -5 5598.82 248.525 10
0 -4 -6 7321.47 274.039 4
0 -4 -6 6872.47 207.434 1
0 4 6 7821.04 353.841 8
0 -4 -6 7088.97 287.162 10
0 4 6 6704.67 266.573 7
0 -4 -6 6970.63 318.775 3
0 -4 -6 6875.92 272.272 7
0 -4 -7 602.489 69.9619 1
0 4 7 827.268 94.2797 2
0 -4 -7 917.616 104.459 7
0 -4 -7 903.957 122.599 3
0 -4 -7 704.232 95.0767 10
0 -4 -7 835.667 96.3111 4
0 4 7 804.329 125.318 8
0 4 8 123.595 61.7027 8
0 -4 -8 84.7966 41.4474 3
0 -4 -8 134.306 47.8812 10
0 -4 -8 79.9876 32.0579 7
0 -4 -8 113.346 36.8035 4
0 4 8 100.507 33.2534 2
0 4 9 6.88262 33.6673 8
0 -4 -9 -18.4831 15.8895 7
0 -4 -9 16.3495 21.6668 10
0 -4 -9 -24.61 41.6948 3
0 -4 -9 -6.05773 19.872 4
0 -4 -10 11.0996 28.2817 3
0 4 10 -50.7212 57.6091 8
0 4 11 -27.9693 39.5066 8
0 -4 -11 -13.8612 33.8089 3
0 -5 10 63.7053 49.7607 6
0 5 -10 73.96 60.7705 2
0 5 -9 212.163 77.4979 2
0 -5 9 146.187 66.9617 6
0 5 -8 109.253 50.4953 2
0 -5 8 167.786 64.5019 6
0 -5 7 4463.35 287.057 6
0 5 -7 4147.21 233.552 10
0 -5 6 4147.23 258.09 6
0 5 -6 3668.55 260.826 2
0 5 -6 3461.57 214.771 10
0 5 -5 44.125 32.0408 10
0 -5 5 29.5537 29.1412 6
0 5 -5 17.3284 30.8352 2
0 5 -4 4620.91 259.754 2
0 5 -4 4559.79 243.364 10
0 -5 4 4617.18 242.346 6
0 5 -3 39.8424 25.7102 2
0 5 -3 131.963 39.8037 10
0 5 -3 119.074 16.226 8
0 5 -3 113.397 15.43 8
0 -5 3 102.095 35.074 6
0 5 -3 147.854 42.5123 6
0 5 -2 52.2001 16.0934 8
0 -5 2 24.649 19.4893 6
0 5 -2 -13.242 28.3971 2
0 5 -2 45.3416 24.1101 6
0 5 -2 10.3809 16.0516 10
0 5 -1 566.946 82.6225 10
0 5 -1 546.785 70.6798 2
0 5 -1 547.141 75.2898 6
0 -5 1 572.232 74.6837 6
0 5 -1 475.225 73.8821 3
0 5 -1 555.547 58.5907 8
0 5 0 1438.05 119.081 6
0 5 0 1120.02 112.184 3
0 5 0 1407.22 104.665 8
0 5 0 1463.99 129.415 10
0 5 0 1479.34 111.081 2
0 -5 0 1482.26 114.949 6
0 5 1 27046.9 496.875 8
0 5 1 29167.6 576.236 10
0 -5 -1 27942.6 509.863 6
0 5 1 28012.5 447.79 2
0 5 1 29092.1 540.301 6
0 5 1 27955.5 318.394 1
0 5 2 3990.65 209.927 8
0 5 2 4263.56 172.853 9
0 5 2 4467.84 224.134 4
0 5 2 4313.57 213.108 6
0 -5 -2 4173.42 214.804 3
0 5 2 4445.03 225.807 3
0 -5 -2 4011.42 225.534 10
0 5 2 4195.38 220.858 10
0 5 2 4143.45 210.814 5
0 5 2 4150.17 224.781 7
0 5 3 1042.68 108.269 5
0 5 3 1132.44 117.674 3
0 5 3 791.486 103.169 7
0 5 3 1079.99 113.67 4
0 -5 -3 1073.66 119.162 10
0 5 3 1008.6 113.416 8
0 5 3 933.554 71.8848 9
0 5 3 744.988 94.6269 6
0 -5 -3 1061.06 112.929 3
0 -5 -4 1351.12 136.674 10
0 -5 -4 1171.46 116.47 7
0 5 4 1255.8 126.398 6
0 5 4 970.453 104.267 4
0 5 4 1418.26 132.631 7
0 5 4 1327.96 125.921 5
0 -5 -4 1190.47 124.506 3
0 5 4 1200.17 129.373 8
0 5 4 1169.23 83.0478 2
0 5 4 1290.95 74.2734 9
0 -5 -5 1345.29 143.076 3
0 5 5 907.755 118.142 8
0 5 5 1199.18 127.008 5
0 -5 -5 821.506 99.9991 7
0 -5 -5 1197.16 138.353 10
0 5 5 1072.5 115.227 7
0 5 5 951.741 79.9258 2
0 5 6 -31.9786 35.415 2
0 5 6 -18.2162 40.3585 7
0 -5 -6 85.884 44.6794 10
0 -5 -6 28.671 32.8138 7
0 5 6 139.344 69.8983 8
0 -5 -6 95.3172 66.8088 3
0 -5 -6 16.1991 12.4642 1
0 5 7 -95.6459 51.3655 8
0 -5 -7 -9.41621 35.9163 7
0 -5 -7 -26.5372 36.9541 10
0 -5 -7 -31.3675 33.9687 3
0 5 7 -0.8685 13.2974 2
0 -5 -7 -8.96008 10.3785 1
0 5 8 403.344 97.7645 8
0 -5 -8 346.781 87.2775 3
0 -5 -8 536.746 96.1469 10
0 -5 -8 438.058 84.6812 7
0 -5 -9 150.115 53.1266 10
0 -5 -9 107.169 55.4463 3
0 5 9 105.182 58.3538 8
0 -5 -9 83.916 38.6443 7
0 -5 -10 180.935 77.9843 3
0 5 10 217.092 88.0358 8
0 5 11 49.6922 63.8265 8
0 -6 10 134.204 68.0992 6
0 -6 9 -5.9416 26.8166 6
0 6 -9 -22.2562 49.6818 2
0 -6 8 -51.3885 54.7204 6
0 6 -8 71.5686 49.6423 2
0 -6 7 937.188 138.17 6
0 6 -7 1173.4 165.464 2
0 -6 6 3665.12 257.167 6
0 6 -6 3675.56 275.708 2
0 6 -5 621.388 109.556 2
0 -6 5 703.326 108.178 6
0 6 -4 185.508 55.288 2
0 -6 4 187.67 50.1849 6
0 6 -3 1200.51 63.2952 8
0 -6 3 1229.4 127.967 6
0 6 -3 1107.38 132.011 2
0 6 -3 1171.14 59.9197 8
0 6 -2 2178.86 112.952 8
0 -6 2 2397.15 176.921 6
0 6 -2 2355.01 177.608 2
0 6 -1 2157.03 128.474 8
0 -6 1 2198.12 162.054 6
0 6 -1 2099.29 163.566 6
0 -6 1 2060.64 177.063 10
0 6 -1 2172.58 157.897 2
0 6 -1 2275.76 181.275 3
0 6 0 216.279 49.2718 2
0 6 0 218.768 47.3843 8
0 -6 0 251.312 53.7954 6
0 6 0 194.92 50.275 3
0 6 0 141.775 37.342 6
0 -6 0 235.252 60.903 10
0 6 1 5148.09 262.263 5
0 -6 -1 5369.39 245.285 6
0 6 1 5082.85 152.271 1
0 6 1 5153.64 267.026 3
0 6 1 4995.6 213.968 2
0 -6 -1 4860.88 270.799 10
0 6 1 4975.39 233.721 8
0 -6 -2 5983.71 278.304 3
0 6 2 6381.91 290.504 6
0 -6 -2 6071.2 301.811 10
0 6 2 6173.82 234.946 9
0 6 2 5174.43 92.9661 1
0 6 2 6011.26 273.979 8
0 6 2 6430.4 289.913 5
0 -6 -3 94.5915 48.6923 10
0 -6 -3 50.5424 37.7764 3
0 6 3 92.7714 37.4345 5
0 6 3 95.7106 27.8509 9
0 6 3 69.1987 38.1428 8
0 -6 -4 511.384 100.397 10
0 6 4 474.815 54.8063 9
0 6 4 371.847 76.7955 8
0 6 4 466.467 82.3796 5
0 6 4 453.807 55.6742 2
0 -6 -4 432.381 82.4897 3
0 -6 -5 1153.44 141.459 10
0 6 5 1187.56 72.8014 9
0 6 5 1068.16 88.4462 2
0 6 5 948.651 131.274 8
0 -6 -5 1247.75 145.987 3
0 6 5 1284.49 137.522 5
0 -6 -6 724.704 119.083 3
0 -6 -6 472.845 83.3643 7
0 -6 -6 704.127 113.188 10
0 6 6 598.469 70.0391 2
0 6 6 510.215 108.83 8
0 6 7 469.846 102.169 8
0 -6 -7 483.936 97.5506 10
0 -6 -7 477.527 100.107 3
0 -6 -7 489.126 92.7373 7
0 6 8 51.4679 47.3036 8
0 -6 -8 80.855 43.2658 10
0 -6 -8 24.6723 21.2985 7
0 -6 -8 79.5418 39.0095 3
0 6 9 13.0477 30.1279 8
0 -6 -9 -22.3247 17.7914 7
0 -6 -9 -2.55583 19.1082 10
0 -6 -9 44.6381 41.7142 3
0 -6 -10 273.512 94.4894 3
0 6 10 196.606 81.6586 8
0 7 -9 -51.5934 50.4808 2
0 -7 9 -11.9282 45.8829 6
0 -7 8 -57.1941 40.9414 6
0 7 -8 -12.5223 34.735 2
0 -7 7 -5.65526 37.0538 6
0 7 -7 38.7449 42.2518 2
0 7 -6 39.3013 42.7716 2
0 -7 6 37.2017 25.9524 6
0 -7 5 -31.1914 41.2875 6
0 7 -5 13.4649 29.5101 2
0 -7 4 154.858 50.2775 6
0 7 -4 181.976 59.6493 2
0 7 -3 854.401 57.6036 8
0 7 -3 890.361 62.1448 8
0 7 -3 851.057 126.752 2
0 -7 3 867.086 119.976 6
0 -7 2 31110.1 676.425 6
0 7 -2 29748.5 466.501 8
0 7 -2 29340.3 684.835 2
0 7 -1 5720.13 232.992 8
0 7 -1 5895.45 287.115 2
0 -7 1 6207.6 339.537 10
0 -7 1 6101.94 288.781 6
0 -7 0 1444.79 138.091 6
0 -7 0 1674.32 176.999 10
0 7 0 1806.52 174.476 5
0 7 0 1437.59 133.719 2
0 7 0 1584.21 133.922 8
0 7 1 -19.9994 28.7517 5
0 7 1 16.7216 24.5345 8
0 -7 -1 -14.5384 34.953 6
0 7 1 0.95917 15.7281 2
0 -7 -1 4.00406 33.2088 10
0 7 1 10.2203 11.2568 1
0 7 2 216.119 61.8577 8
0 -7 -2 157.67 59.3594 10
0 7 2 208.647 62.62 5
0 7 2 146.043 42.2637 2
0 7 2 142.127 42.247 9
0 7 3 1957.27 176.243 5
0 7 3 1681.03 168.298 8
0 -7 -3 1866.4 174.131 3
0 7 3 1701.18 124.656 2
0 7 3 1857.33 132.939 9
0 -7 -3 1605.19 177.199 10
0 7 4 1553.27 167.763 8
0 7 4 1747.52 116.525 9
0 -7 -4 1624.32 174.732 10
0 -7 -4 1642.29 171.158 3
0 7 4 1552.59 109.123 2
0 7 4 1916.41 177.776 5
0 7 5 84.0534 41.9092 5
0 7 5 114.101 30.877 2
0 -7 -5 159.982 56.7032 10
0 -7 -5 127.356 46.9073 3
0 7 5 168.726 69.2092 8
0 7 5 160.569 30.9069 9
0 -7 -6 10.9552 27.727 10
0 -7 -6 23.361 29.2214 3
0 7 6 15.2581 33.5363 8
0 7 6 81.331 45.4851 5
0 -7 -7 52.5148 33.8701 10
0 -7 -7 128.155 60.2715 3
0 7 7 76.5486 62.7507 8
0 -7 -8 42.5163 40.3108 10
0 7 8 -28.701 43.1218 8
0 -7 -8 -23.857 31.6076 3
0 -7 -9 96.8324 60.4917 3
0 7 9 169.941 85.8302 8
0 -7 -9 -46.2936 39.2648 10
0 -8 8 74.8129 53.9617 6
0 8 -8 121.382 69.7806 2
0 8 -7 7.79187 43.1377 2
0 -8 7 -25.8238 47.2489 6
0 -8 6 301.845 86.8695 6
0 8 -6 401.42 105.031 2
0 8 -5 56.5236 37.0966 2
0 -8 5 88.0443 49.5165 6
0 -8 4 493.694 100.267 6
0 8 -4 477.119 108.082 2
0 -8 3 -15.8973 25.4523 6
0 8 -3 29.2747 33.5394 2
0 8 -3 20.7652 9.97626 8
0 8 -2 3081.58 236.297 2
0 8 -2 2979.47 162.614 8
0 -8 2 3186.4 231.842 6
0 8 -1 687.261 90.4325 8
0 8 -1 790.417 115.29 2
0 -8 1 754.699 109.647 6
0 8 0 214.329 45.2609 1
0 8 0 193.035 66.074 5
0 8 0 202.092 54.081 2
0 8 0 268.142 61.57 8
0 -8 0 163.012 62.3579 10
0 -8 0 269.086 61.6512 6
0 8 1 898.084 72.0798 1
0 8 1 856.878 69.1199 1
0 8 1 1003.98 136.901 5
0 8 1 796.085 110.13 8
0 8 1 854.697 105.563 2
0 -8 -1 879.688 136.281 10
0 8 1 762.454 106.288 9
0 -8 -1 815.945 112.965 6
0 8 2 1035 134.778 8
0 -8 -2 1195.27 162.495 10
0 8 2 1130.77 121.734 9
0 8 2 1065.85 113.894 2
0 8 2 1267.45 155.488 5
0 8 3 20.4616 19.4877 9
0 8 3 45.9731 44.4786 8
0 8 3 58.9363 46.9184 5
0 8 3 3.38359 16.6338 2
0 -8 -3 55.4579 50.1863 10
0 8 4 107.32 32.7291 9
0 8 4 18.416 29.6135 8
0 -8 -4 93.9556 52.7248 3
0 8 4 51.1021 27.75 2
0 -8 -4 51.2051 37.2398 10
0 8 4 85.4049 45.1402 5
0 8 5 82.9127 27.2242 9
0 -8 -5 73.203 55.4757 10
0 -8 -5 16.4724 32.7874 3
0 8 5 17.4937 32.9132 8
0 8 5 41.2886 37.3944 5
0 -8 -6 647.599 127.653 3
0 8 6 753.172 127.336 5
0 8 6 582.917 127.146 8
0 -8 -6 737.381 137.555 10
0 -8 -7 644.785 130.338 10
0 8 7 389.668 115.83 8
0 -8 -7 461.825 112.791 3
0 8 8 -51.3021 49.1293 8
0 -8 -8 -96.277 53.9078 10
0 -8 -8 61.5386 43.1867 3
0 -8 -9 -101.657 54.8656 10
0 -9 7 12.8024 31.5586 6
0 9 -7 61.1918 49.5204 2
0 -9 6 -5.90023 32.0994 6
0 9 -6 94.3413 47.6083 2
0 -9 5 366.733 97.351 6
0 9 -5 224.712 85.1234 2
0 9 -4 50.964 38.7305 2
0 -9 4 -5.20134 27.798 6
0 -9 3 203.388 70.8569 6
0 9 -3 106.581 55.6296 2
0 -9 2 273.731 80.6294 6
0 9 -2 310.741 85.2329 2
0 -9 1 74.6364 42.4596 6
0 9 -1 19.6842 25.5368 2
0 9 -1 12.268 18.6638 8
0 9 -1 6.03367 35.6021 5
0 9 0 -6.8264 36.8582 5
0 9 0 -16.5496 29.2965 2
0 9 0 3.76842 13.9633 1
0 -9 0 0.5215 24.7726 6
0 9 0 28.4124 30.5946 8
0 -9 -1 112.137 55.9686 10
0 9 1 104.782 45.5986 8
0 9 1 132.053 58.3614 5
0 9 1 76.1301 33.8958 2
0 9 1 77.2904 32.081 9
0 9 2 24.2759 17.79 2
0 -9 -2 -48.5403 62.4024 10
0 9 2 -2.5776 26.7969 8
0 9 2 25.7171 23.6362 9
0 9 2 83.5398 51.7656 5
0 9 3 -0.44949 15.9843 2
0 -9 -3 -7.37005 32.9152 10
0 9 3 33.7256 39.6593 5
0 9 3 8.15339 22.7649 9
0 9 3 -80.208 45.797 8
0 9 4 7.36746 15.1118 9
0 9 4 2.29223 30.6428 8
0 9 4 -35.0573 30.6667 5
0 -9 -5 -11.4361 32.5915 3
0 9 5 -23.2894 34.4344 8
0 9 5 -60.0007 42.1151 5
0 -9 -5 -1.20391 45.927 10
0 -9 -6 28.082 34.1512 3
0 -9 -6 -18.9577 40.2204 10
0 9 6 36.6479 44.3695 5
0 9 6 -29.7611 37.9374 8
0 9 7 43.4856 42.2962 8
0 -9 -7 92.4125 60.0474 3
0 -9 -7 92.4008 71.6397 10
0 -9 -8 -91.4267 57.309 10
0 -10 6 154.109 80.8491 6
0 -10 5 237.256 83.5777 6
0 10 -5 307.141 102.016 2
0 10 -4 102.705 51.7096 2
0 -10 4 158.856 68.4901 6
0 10 -3 28.2979 36.2067 2
0 -10 3 62.4494 39.577 6
0 10 -2 12.7071 41.5893 5
0 -10 2 179.07 65.3165 6
0 10 -2 114.306 59.2465 2
0 10 -1 244.654 83.8841 2
0 -10 1 301.589 87.6183 6
0 10 -1 219.159 80.8964 5
0 10 0 3.10647 23.6593 2
0 10 0 44.3457 34.2477 9
0 -10 0 -64.6833 53.6795 6
0 10 0 13.6192 22.0095 8
0 10 0 -47.4593 54.892 5
0 10 1 340.57 82.2823 2
0 10 1 286.682 74.5089 8
0 10 1 316.545 93.1212 5
0 10 1 310.65 77.4801 9
0 10 2 97.6381 48.754 8
0 10 2 181.116 60.8807 9
0 10 2 118.402 64.2065 5
0 10 3 -24.384 29.5263 8
0 10 3 57.2311 37.3151 9
0 10 3 -15.2047 34.4639 5
0 10 4 -22.1881 36.7632 8
0 -10 -4 16.3562 41.228 10
0 10 4 42.9245 41.2591 5
0 -10 -5 -68.7064 50.5264 10
0 10 5 39.5658 49.177 5
0 10 5 90.1135 58.3849 8
0 10 6 115.301 70.2246 8
0 -10 -6 16.62 40.6258 10
0 10 6 87.8442 53.4668 5
0 -10 -6 116.624 66.2215 3
0 -10 -7 11.3454 35.5463 10
0 -11 4 119.356 71.3344 6
0 11 -4 138.619 76.5535 2
0 -11 3 86.3754 50.7806 6
0 11 -3 17.2247 29.3304 2
0 -11 2 60.4639 43.5014 6
0 11 -2 170.022 68.54 9
0 11 -2 92.1695 41.249 2
0 11 -1 32.6657 38.4586 2
0 11 -1 107.415 57.6952 5
0 -11 1 88.9632 49.5312 6
0 11 -1 -6.64353 26.9872 9
0 11 0 87.1219 59.2268 5
0 11 0 -19.5402 25.4482 9
0 11 1 25.6722 37.9707 5
0 11 1 -6.95934 23.1709 9
0 11 2 50.5748 35.148 5
0 11 2 31.4021 20.1832 8
0 11 2 108.436 49.1676 9
0 11 3 134.872 70.1616 8
0 11 4 241.697 97.6499 8
0 11 5 -21.0974 64.1317 8
0 -12 1 100.45 64.1853 6
0 12 0 -40.0204 37.8178 9
-1 11 4 156.295 76.5621 8
-1 11 1 11.9504 25.3651 9
-1 11 0 127.148 60.572 9
-1 11 -1 39.8929 45.9802 9
-1 11 -1 8.4379 28.1359 2
-1 11 -2 151.569 76.5743 2
-1 11 -3 114.328 66.3725 2
-1 10 5 -25.0258 38.509 8
-1 10 4 -67.7265 50.6809 8
1 -10 -4 -4.67686 38.5871 10
-1 10 4 4.33628 32.4055 5
-1 10 3 92.0993 70.526 5
-1 10 3 81.3243 42.3857 9
-1 10 3 113.559 58.3371 8
1 -10 -3 53.7071 48.6507 10
1 -10 -2 146.182 81.1863 10
-1 10 2 83.8584 38.8546 8
-1 10 2 182.776 60.757 9
-1 10 2 186.874 73.7898 5
1 -10 -1 107.877 66.3311 10
-1 10 1 67.7035 37.5749 2
-1 10 1 61.4314 42.3369 9
-1 10 1 104.304 59.1649 5
-1 10 1 102.282 48.2689 8
-1 10 0 174.454 63.0776 2
-1 10 0 313.136 101.029 5
-1 10 0 167.038 63.3713 9
1 -10 0 313.738 105.881 10
-1 10 -1 782.812 143.113 2
-1 10 -1 1160.8 171.622 9
1 -10 1 773.118 129.688 6
-1 10 -1 1263.26 191.1 5
-1 10 -2 36.1473 49.9901 2
-1 10 -2 206.986 74.4723 9
1 -10 2 123.803 58.2544 6
-1 10 -2 137.557 68.7548 5
-1 10 -3 24.3217 46.0711 9
-1 10 -3 117.419 66.8336 5
1 -10 3 13.7114 30.143 6
-1 10 -3 55.3939 43.0318 2
-1 10 -4 1.78571 31.1803 9
-1 10 -4 41.568 41.308 2
-1 10 -4 17.9882 45.4193 5
1 -10 4 40.041 42.6167 6
-1 10 -5 1.6783 30.2073 2
1 -10 5 83.2872 69.1769 6
1 -10 6 16.748 38.2355 6
1 -9 -7 60.1277 41.3435 3
1 -9 -7 75.7252 55.6809 10
1 -9 -6 123.64 60.7363 10
-1 9 6 220.948 91.9239 8
-1 9 6 204.56 77.6105 5
1 -9 -6 200.32 83.5315 3
1 -9 -5 -27.9093 51.2707 3
-1 9 5 82.9074 55.6812 8
-1 9 5 120.681 59.9337 5
1 -9 -5 78.5251 54.4884 10
-1 9 4 33.6406 36.7846 5
-1 9 4 18.3146 27.1318 8
-1 9 4 34.8112 25.1875 9
-1 9 3 -14.8231 22.2178 9
-1 9 3 -4.14937 20.2177 2
-1 9 3 7.4062 39.2029 8
-1 9 3 27.1285 26.5864 5
-1 9 2 18.4082 22.7538 9
-1 9 2 19.7397 27.1211 2
-1 9 2 -49.3872 36.7668 8
1 -9 -2 18.0922 35.688 10
-1 9 2 56.8905 47.8608 5
-1 9 1 151.067 58.6712 8
-1 9 1 91.8788 51.2745 2
-1 9 1 244.379 69.9111 9
1 -9 -1 121.795 73.0062 10
-1 9 1 212.367 69.3816 5
1 -9 0 40.2549 30.6906 6
-1 9 0 16.9109 30.9893 5
1 -9 0 114.453 58.4137 10
-1 9 0 101.98 49.4962 9
-1 9 0 24.0571 26.4512 2
-1 9 0 139.553 51.7253 8
-1 9 -1 2.57629 31.2992 2
1 -9 1 60.5354 38.4088 10
-1 9 -1 80.1593 46.3337 9
1 -9 1 13.8321 25.8132 6
-1 9 -1 67.4478 35.1354 8
-1 9 -1 61.7407 29.184 5
1 -9 2 44.5046 39.5516 6
-1 9 -2 50.9702 42.4657 2
-1 9 -2 91.2809 49.1369 9
-1 9 -2 115.887 59.4085 5
1 -9 3 112.321 48.0089 6
-1 9 -3 115.158 62.4343 2
-1 9 -3 145.819 61.1499 9
-1 9 -4 58.7315 49.6401 2
1 -9 4 13.8982 28.3923 6
-1 9 -5 134.146 60.5619 2
1 -9 5 139.689 66.6167 6
1 -9 6 517.596 120.671 6
-1 9 -6 549.715 136.627 2
1 -9 7 60.2209 45.1468 6
1 -8 -9 -13.6237 27.8655 10
1 -8 -8 82.1528 53.0785 10
1 -8 -8 -8.80886 31.0754 3
1 -8 -7 -7.30116 43.0235 3
1 -8 -7 1.61986 21.3253 10
-1 8 7 -52.9549 46.3696 8
1 -8 -6 1.56934 27.1129 10
-1 8 6 29.5406 38.2327 8
1 -8 -6 2.75686 48.1713 3
1 -8 -5 -68.8796 47.2187 3
1 -8 -5 -30.6615 52.7456 10
-1 8 5 -17.1487 31.5148 5
-1 8 5 56.3154 34.6762 8
1 -8 -4 88.1153 39.5746 3
-1 8 4 96.0907 45.4322 8
1 -8 -4 95.4766 46.0255 10
-1 8 4 168.685 48.0948 9
-1 8 4 120.799 57.9288 5
1 -8 -3 884.353 146.103 10
-1 8 3 690.212 118.483 8
-1 8 3 711.144 97.4276 9
-1 8 3 761.885 131.009 5
1 -8 -2 1639.84 196.016 10
-1 8 2 1674.73 159.585 2
-1 8 2 1601.17 176.225 8
-1 8 2 1660.2 156.351 9
-1 8 2 1701.03 187.576 5
1 -8 -1 355.433 94.2559 10
-1 8 1 373.392 77.2806 8
-1 8 1 390.95 81.9563 2
-1 8 1 262.344 73.1683 5
-1 8 1 318.405 74.5746 9
-1 8 1 286.105 30.7376 1
-1 8 0 256.217 67.8611 9
1 -8 0 227.777 73.6189 10
-1 8 0 228.635 69.2077 5
-1 8 0 353.387 79.4544 2
1 -8 0 333.288 73.8897 6
-1 8 0 288.962 68.754 8
-1 8 -1 258.047 59.8856 8
1 -8 1 269.691 83.4219 10
-1 8 -1 233.456 67.6421 9
-1 8 -1 249.983 70.438 2
-1 8 -1 211.116 48.9438 1
1 -8 1 237.26 57.3427 6
-1 8 -1 286.794 76.665 5
-1 8 -2 18.8478 19.2235 8
-1 8 -2 -25.8337 36.0679 2
1 -8 2 30.1128 36.2741 10
-1 8 -2 24.2439 31.2543 9
-1 8 -2 -22.7668 41.3897 5
1 -8 2 23.643 40.1555 6
-1 8 -3 488.281 111.82 2
1 -8 3 507.603 100.876 6
-1 8 -4 248.125 83.0334 2
1 -8 4 239.473 74.7281 6
1 -8 5 7.43861 31.8475 6
-1 8 -5 13.7202 42.1785 2
1 -8 6 43.4835 34.9405 6
-1 8 -6 -104.946 61.2241 2
1 -8 7 -1.23669 27.0697 6
-1 8 -7 -18.0833 46.4415 2
1 -8 8 92.6327 47.258 6
1 -7 -9 42.7778 39.5602 10
1 -7 -9 83.594 48.5634 3
-1 7 8 1.74751 31.3688 8
1 -7 -8 -58.5444 49.7066 3
1 -7 -8 50.0211 55.7523 10
1 -7 -7 270.529 89.5376 10
1 -7 -7 242.383 82.2449 3
-1 7 7 218.903 81.334 8
1 -7 -6 10.2152 45.2392 10
-1 7 6 -60.3476 45.0343 8
1 -7 -6 55.0996 38.586 3
-1 7 5 23.968 29.8771 8
1 -7 -5 116.282 61.5443 10
-1 7 5 74.0752 28.7475 9
1 -7 -5 66.7004 45.7973 3
-1 7 5 43.1191 40.6477 5
-1 7 4 195.198 62.8863 5
-1 7 4 209.42 48.8345 9
1 -7 -4 161.077 58.851 3
-1 7 4 158.82 41.8888 2
-1 7 4 216.708 67.9041 8
1 -7 -4 201.609 76.38 10
1 -7 -3 37.2072 23.6477 3
1 -7 -3 96.0167 52.8291 10
-1 7 3 72.1566 36.9606 5
-1 7 3 61.7835 28.9328 9
-1 7 3 75.4961 33.604 8
-1 7 2 7881.34 316.35 9
1 -7 -2 8517.19 415.42 10
-1 7 2 8301.69 369.717 8
-1 7 2 8667.16 386.259 5
-1 7 1 757.614 51.3894 1
1 -7 -1 903.263 135.014 10
-1 7 1 878.213 114.605 2
-1 7 1 873.199 112.533 9
-1 7 1 839.813 55.4411 1
-1 7 1 916.3 124.839 5
-1 7 1 857.361 113.688 8
1 -7 0 209.012 49.1123 6
-1 7 0 202.448 55.1237 9
-1 7 0 206.246 37.0094 1
-1 7 0 191.486 56.3867 2
1 -7 0 182.029 65.9084 10
-1 7 0 208.739 61.5789 5
-1 7 0 231.99 52.654 8
-1 7 -1 380.478 63.79 8
-1 7 -1 322.113 73.5777 2
-1 7 -1 366.347 59.5835 1
1 -7 1 397.488 90.7898 10
-1 7 -1 441.323 87.1459 9
-1 7 -1 467.78 97.2375 5
1 -7 1 370.23 70.3916 6
1 -7 2 1634.73 156.317 6
1 -7 2 1972.3 200.623 10
-1 7 -2 1719.3 112.94 8
-1 7 -2 1867.4 182.875 2
-1 7 -2 1584.45 141.634 1
-1 7 -3 4847.49 307.198 2
1 -7 3 4932.84 279.594 6
-1 7 -3 4236.1 111.67 8
1 -7 3 4838.29 318.161 10
-1 7 -4 1184.9 160.168 2
1 -7 4 1193.89 143.699 6
-1 7 -5 77.6892 59.6587 2
1 -7 5 162.549 60.7908 6
-1 7 -6 174.333 67.9989 2
1 -7 6 156.294 61.3982 6
-1 7 -7 99.0996 57.3044 2
1 -7 7 19.223 38.3597 6
-1 7 -8 109.205 59.8058 2
1 -7 8 -21.6253 44.0195 6
1 -7 9 -4.15344 43.7284 6
1 -6 -10 92.0681 67.4874 3
1 -6 -9 253.572 96.8028 3
1 -6 -9 226.18 78.7501 10
-1 6 9 246.935 97.9458 8
1 -6 -8 -67.8684 48.0777 3
1 -6 -8 58.841 38.4661 10
-1 6 8 -32.5935 35.7307 8
1 -6 -7 83.4836 54.2943 10
-1 6 7 171.822 71.7703 8
1 -6 -7 134.384 62.1115 3
1 -6 -7 39.2211 30.0494 4
-1 6 6 114.502 51.396 8
1 -6 -6 119.807 45.5806 4
1 -6 -6 131.669 55.9651 3
1 -6 -6 132.348 57.5881 10
1 -6 -5 136.035 52.6018 3
-1 6 5 74.3509 36.3568 5
-1 6 5 98.3904 28.6189 9
-1 6 5 66.0893 25.7348 2
-1 6 5 134.462 58.3817 8
1 -6 -5 31.0445 25.9828 10
1 -6 -4 3254.09 244.816 10
-1 6 4 2895.1 228.734 8
-1 6 4 3043.04 160.473 9
-1 6 4 3351.71 229.352 5
1 -6 -4 3306.06 230.014 3
-1 6 4 2752.89 166.083 2
1 -6 -3 1025.26 123.826 3
-1 6 3 990.748 128.204 8
-1 6 3 928.336 118.792 5
1 -6 -3 1076.14 139.268 10
-1 6 3 1088.11 101.355 9
-1 6 2 684.511 92.91 6
1 -6 -2 906.703 123.675 10
-1 6 2 778.71 107.066 5
1 -6 -2 780.317 103.374 3
-1 6 2 791.889 106.449 8
-1 6 2 764.2 90.5115 9
-1 6 1 182.487 24.6722 1
-1 6 1 238.051 60.9807 3
-1 6 1 150.405 42.8242 6
-1 6 1 158.719 51.6078 5
-1 6 1 206.989 52.4336 9
-1 6 1 167.614 51.4018 8
1 -6 -1 229.172 68.9542 10
-1 6 0 1501.21 145.169 3
-1 6 0 1678.39 142.88 2
-1 6 0 1666.82 132.85 8
-1 6 0 1332.12 91.4325 1
1 -6 0 1621.14 168.207 10
-1 6 0 1726.74 161.928 5
-1 6 0 1217.82 119.659 6
1 -6 0 1841.15 142.091 6
-1 6 0 1921.21 156.591 9
-1 6 -1 925.697 111.063 2
-1 6 -1 1022.9 122.794 3
-1 6 -1 991.394 94.3213 8
-1 6 -1 749.441 80.9278 1
-1 6 -1 879.078 101.562 6
1 -6 1 977.519 106.425 6
1 -6 1 1072.25 133.546 10
-1 6 -1 879.508 115.358 5
1 -6 2 6166.45 275.802 6
1 -6 2 5799.48 310.542 10
-1 6 -2 5724.62 292.795 2
-1 6 -2 5601.24 263.848 6
-1 6 -2 5862.13 189.652 8
-1 6 -3 12922.7 459.947 2
1 -6 3 13210.2 470.465 10
1 -6 3 12861.3 416.321 6
-1 6 -4 539.421 96.0227 2
1 -6 4 440.095 79.4926 6
1 -6 5 169.977 52.8906 6
-1 6 -5 269.803 66.4539 2
1 -6 6 95.2466 39.0099 6
-1 6 -6 80.1567 45.3195 2
-1 6 -7 68.8825 47.6224 2
1 -6 7 110.417 52.0796 6
-1 6 -8 116.723 62.512 2
1 -6 8 -17.2637 37.3132 6
1 -6 9 51.2396 47.5977 6
-1 6 -9 68.8034 38.457 2
1 -6 10 51.5098 50.7266 6
1 -5 -10 10.3624 38.7931 3
-1 5 10 174.826 82.0687 8
1 -5 -9 -10.4878 23.2525 10
1 -5 -9 50.3878 53.4711 3
-1 5 9 37.2334 31.2989 8
1 -5 -9 4.5816 25.8737 4
-1 5 8 -27.0004 27.3161 8
1 -5 -8 -35.1396 35.9896 3
1 -5 -8 -16.5682 21.5792 4
1 -5 -8 -66.073 38.4633 10
1 -5 -7 171.167 64.8315 3
-1 5 7 108.133 47.1134 8
1 -5 -7 193.892 63.484 10
1 -5 -7 171.579 54.2383 4
-1 5 6 3418.94 195.434 2
1 -5 -6 3742.99 233.514 4
-1 5 6 3345.7 261.104 8
1 -5 -6 3656.9 253.088 3
-1 5 6 3359.67 200.262 7
1 -5 -6 3335.84 246.13 10
-1 5 5 22140.8 622.061 8
-1 5 5 20701.2 498.021 7
-1 5 5 20090.1 447.928 2
-1 5 5 21594.5 370.411 9
1 -5 -5 21607.5 559.969 4
1 -5 -5 22512.6 594.723 10
1 -5 -5 22627 584.819 3
1 -5 -4 765.049 105.113 3
-1 5 4 657.87 65.4697 9
-1 5 4 766.102 103.232 7
-1 5 4 745.51 104.261 5
1 -5 -4 715.699 96.3191 10
-1 5 4 717.746 97.7725 6
-1 5 4 732.28 111.846 8
1 -5 -4 622.596 87.4708 4
-1 5 4 466.947 63.1737 2
-1 5 3 145.31 48.3858 8
1 -5 -3 169.359 54.1524 10
-1 5 3 167.087 46.6365 7
-1 5 3 120.359 43.4546 5
1 -5 -3 71.9635 31.559 4
-1 5 3 89.8428 27.7398 6
-1 5 3 175.858 50.2316 3
1 -5 -3 123.823 45.2674 3
-1 5 3 150.553 35.8041 9
-1 5 2 14982.4 427.314 5
-1 5 2 15415.1 399.675 6
-1 5 2 15330.7 420.408 3
-1 5 2 14981.8 431.66 8
1 -5 -2 15455.7 453.069 8
-1 5 2 15177.3 454.059 7
1 -5 -2 15624.9 462.386 10
-1 5 2 15092.8 359.976 9
1 -5 -2 15168.9 416.4 3
-1 5 1 346.3 62.1074 3
-1 5 1 460.713 67.4639 9
-1 5 1 395.376 33.0827 1
-1 5 1 393.985 75.4026 7
-1 5 1 380.495 63.6618 8
-1 5 1 392.479 61.4333 6
1 -5 -1 387.157 65.0594 8
1 -5 0 3222.84 166.868 6
-1 5 0 3271.9 191.208 3
-1 5 0 3081.21 170.014 6
-1 5 0 3151.4 181.844 9
1 -5 0 3051.2 171.07 8
-1 5 0 2470.21 116.168 1
-1 5 0 3107.05 164.945 8
-1 5 -1 6429.37 219.424 1
1 -5 1 6911.99 306.295 10
-1 5 -1 6654.88 216.102 8
1 -5 1 6398.41 241.946 6
-1 5 -1 6403.24 274.898 2
-1 5 -1 7095.43 288.839 3
-1 5 -1 6536.98 254.586 6
-1 5 -1 6693.39 289.121 10
1 -5 2 2439.83 156.411 6
-1 5 -2 2348.58 173.88 2
-1 5 -2 2472.47 161.14 6
-1 5 -2 2296.31 178.989 4
-1 5 -2 2309.81 148.495 1
-1 5 -2 2345.76 104.669 8
-1 5 -2 2288.01 171.074 10
1 -5 2 2246.37 171.755 10
1 -5 3 2645.57 189.853 10
1 -5 3 2665.66 170.717 6
-1 5 -3 2506.43 188.093 2
-1 5 -3 2624.58 182.334 10
-1 5 -4 -33.061 40.8487 2
-1 5 -4 11.9492 14.564 10
1 -5 4 -19.3994 36.4952 6
-1 5 -5 1706.41 175.146 2
1 -5 5 1791.31 159.762 6
-1 5 -5 1600.52 142.889 10
1 -5 6 1607.24 160.422 6
-1 5 -6 1194.31 155.56 2
-1 5 -6 1202.77 123.27 10
1 -5 7 15.7746 44.0401 6
-1 5 -7 -6.55823 44.6041 2
1 -5 8 363.397 89.513 6
-1 5 -8 290.04 79.0566 2
-1 5 -9 -5.82132 37.6049 2
1 -5 9 -20.4955 28.2984 6
-1 5 -10 -17.514 32.1369 2
1 -5 10 16.8239 37.5127 6
-1 4 11 24.0953 35.8128 8
1 -4 -11 -2.13342 34.7893 3
-1 4 10 111.051 71.8674 8
1 -4 -10 38.0235 41.4558 3
1 -4 -9 176.296 58.0583 10
1 -4 -9 117.013 53.6892 3
1 -4 -9 149.724 50.6432 4
-1 4 9 153.825 68.3968 8
1 -4 -8 -15.19 21.7626 7
1 -4 -8 19.133 30.4018 4
1 -4 -8 34.4415 30.1009 10
-1 4 8 37.8087 43.4549 8
1 -4 -8 72.4188 41.6221 3
1 -4 -7 2168.77 148.079 7
1 -4 -7 2195.5 168.773 4
1 -4 -7 1778.13 94.0909 9
-1 4 7 2270.62 214.933 8
-1 4 7 1815.21 156.73 2
1 -4 -7 1921.74 114.396 1
1 -4 -7 2257.22 196.508 3
1 -4 -7 2182.48 180.251 10
-1 4 6 1725.99 172.299 8
1 -4 -6 1878.67 161.008 10
1 -4 -6 1962.58 172.178 3
-1 4 6 1150.96 103.188 7
1 -4 -6 1844.49 150.872 4
1 -4 -6 1268.72 76.7452 1
1 -4 -6 1712.07 95.1268 9
-1 4 6 1826.82 143.066 2
1 -4 -5 17657.8 201.854 1
1 -4 -5 19525.7 509.915 3
-1 4 5 19231.6 430.141 7
-1 4 5 19375.7 547.915 8
1 -4 -5 19625.6 479.292 4
1 -4 -5 19966.2 507.459 10
1 -4 -4 0.78585 24.9146 10
-1 4 4 68.0185 19.8897 9
1 -4 -4 10.1578 26.5115 3
-1 4 4 61.8529 30.3234 7
1 -4 -4 19.3422 27.5912 4
-1 4 4 2.97384 31.7339 5
-1 4 4 115.965 41.4258 8
-1 4 4 43.3734 17.8887 2
1 -4 -3 142.864 44.2016 8
-1 4 3 71.0238 20.7116 9
-1 4 3 96.0338 34.8439 7
1 -4 -3 99.1332 33.7068 3
-1 4 3 90.6373 30.9552 6
1 -4 -3 122.157 40.5759 10
1 -4 -3 76.8303 32.1082 4
1 -4 -3 92.5774 32.9852 5
-1 4 3 168.424 43.5957 4
-1 4 3 115.201 41.0477 8
-1 4 2 148.462 44.4545 8
1 -4 -2 169.403 39.8793 3
-1 4 2 186.635 39.2777 6
1 -4 -2 201.107 45.4541 4
-1 4 2 130.116 32.1391 3
1 -4 -2 142.599 41.0537 5
-1 4 2 195.232 36.2448 9
1 -4 -2 146.38 40.1518 8
-1 4 2 201.919 45.6082 4
-1 4 2 238.151 53.3879 7
-1 4 1 1898.12 63.2039 1
-1 4 1 2189.03 140.445 3
-1 4 1 1999.91 124.874 9
-1 4 1 2004.24 147.116 7
1 -4 -1 2192.42 143.112 8
1 -4 -1 2156.34 148.487 4
1 -4 -1 2098.71 132.439 3
-1 4 1 2036.59 133.236 8
-1 4 1 2087.4 127.93 6
1 -4 0 4760.5 190.581 8
-1 4 0 4954.78 209.312 3
-1 4 0 4708.44 182.137 6
-1 4 0 4861.46 184.318 8
-1 4 0 4609.45 142.545 1
-1 4 0 4596.41 197.328 9
1 -4 0 4637.53 176.92 6
-1 4 -1 1396.54 118.042 10
-1 4 -1 1355.86 109.783 3
1 -4 1 1467.18 103.855 6
-1 4 -1 1304.74 91.8545 1
1 -4 1 1331.1 88.0344 8
-1 4 -1 1322.67 111.315 2
-1 4 -1 1448.39 89.0014 8
-1 4 -1 1396.63 102.018 6
1 -4 2 15642.5 408.653 10
-1 4 -2 15858 408.5 2
-1 4 -2 15302.4 222.83 8
1 -4 2 15908.2 358.709 6
-1 4 -2 16554.2 367.559 6
-1 4 -2 15767.2 400.53 10
-1 4 -3 7885.9 281.974 10
1 -4 3 7707.01 289.324 10
-1 4 -3 7777.61 304.282 2
1 -4 3 8281.03 275.579 6
-1 4 -4 1186.51 110.286 10
1 -4 4 1151.62 109.792 6
-1 4 -4 1100.1 122.812 2
-1 4 -4 1158.02 119.559 4
-1 4 -5 79.1886 42.4145 2
1 -4 5 102.835 47.0791 6
-1 4 -5 84.6739 27.66 10
-1 4 -5 111.703 40.7363 4
1 -4 6 406.972 79.2684 6
-1 4 -6 282.614 76.7841 2
-1 4 -6 259.462 49.6365 10
-1 4 -7 618.204 108.931 2
-1 4 -7 587.525 75.0447 10
1 -4 7 570.719 96.4319 6
-1 4 -8 47.3348 37.1679 2
1 -4 8 64.7347 40.8604 6
1 -4 9 -22.4232 35.8108 6
-1 4 -9 -23.3023 41.1495 2
-1 4 -10 -21.6622 48.4153 2
1 -4 10 18.5668 31.8453 6
1 -4 11 -5.15416 37.6786 6
-1 4 -11 55.7969 31.7883 2
-1 3 11 54.6439 60.3204 8
1 -3 -11 39.1132 40.9531 3
-1 3 10 51.1286 48.5486 8
1 -3 -10 70.2179 26.8472 3
-1 3 9 16.3954 32.7374 8
1 -3 -9 -2.5173 20.0843 4
1 -3 -9 -52.5412 49.1274 3
1 -3 -9 -26.018 21.7097 10
1 -3 -8 312.37 59.3379 1
1 -3 -8 365.939 57.2866 7
1 -3 -8 329.485 64.2305 4
1 -3 -8 388.361 76.3964 10
1 -3 -8 417.094 91.7734 3
-1 3 8 482.281 102.956 8
1 -3 -7 1048.38 74.1661 9
1 -3 -7 1129.58 96.4611 7
1 -3 -7 1201.63 118.883 4
1 -3 -7 1149.45 118.602 10
-1 3 7 1164.7 147.06 8
1 -3 -7 673.773 78.4514 1
1 -3 -7 1098.9 133.318 3
1 -3 -6 70.6861 21.0644 9
1 -3 -6 77.1037 27.2718 10
1 -3 -6 41.3888 22.3908 7
1 -3 -6 2.21671 49.2772 3
-1 3 6 -8.29877 48.1503 8
1 -3 -6 81.9847 26.5204 1
1 -3 -6 50.1526 20.7001 4
-1 3 6 34.7158 19.0969 2
1 -3 -5 235.972 33.9812 9
1 -3 -5 290.427 59.2116 3
1 -3 -5 182.646 36.9644 7
-1 3 5 294.181 54.1084 2
1 -3 -5 301.632 56.3681 4
1 -3 -5 243.622 34.9916 1
-1 3 5 255.803 61.2608 8
-1 3 5 240.88 40.5286 7
1 -3 -5 242.748 50.5441 10
1 -3 -4 289.696 56.5817 10
-1 3 4 270.551 45.3553 7
1 -3 -4 304.252 56.6323 5
-1 3 4 290.249 48.2301 2
1 -3 -4 270.781 29.0733 1
1 -3 -4 321.304 58.3643 3
-1 3 4 310.554 62.3674 8
1 -3 -4 288.759 37.4611 9
1 -3 -4 284.341 53.7264 4
-1 3 4 311.183 39.57 9
-1 3 3 11965.2 281.46 2
1 -3 -3 11974.6 321.061 4
-1 3 3 12137.8 298.669 7
1 -3 -3 11795.6 327.901 5
-1 3 3 11538.3 348.116 8
-1 3 3 12157.5 240.602 9
1 -3 -3 11798.6 313.955 3
1 -3 -3 11527.1 241.449 9
1 -3 -3 12195.8 329.93 10
-1 3 2 11171.8 292.534 7
-1 3 2 11304.1 299.89 4
1 -3 -2 10611.4 276.1 3
1 -3 -2 10789.8 302.712 5
-1 3 2 10936.6 263.367 6
-1 3 2 10973.7 312.762 8
-1 3 2 11064.3 236.932 9
1 -3 -2 11079.2 300.606 4
-1 3 2 11307.8 290.642 3
1 -3 -1 64616.4 722.022 4
-1 3 1 63412.3 701.001 7
-1 3 1 60338.9 320.952 1
-1 3 1 63900 644.01 3
-1 3 1 62012.9 578.129 6
1 -3 -1 62887.8 683.916 8
1 -3 -1 62054.7 625.092 3
-1 3 1 62888.8 671.722 8
-1 3 1 62202.2 597.639 9
-1 3 0 6068.96 183.741 8
-1 3 0 6040.35 198.299 3
-1 3 0 5837.19 198.597 9
-1 3 0 5813.45 171.44 6
1 -3 0 5785.25 183.176 8
1 -3 0 5822.61 212.542 4
-1 3 0 5994.4 144.211 1
1 -3 0 5779.32 166.592 6
1 -3 1 8247.32 209.693 6
-1 3 -1 8418.28 211.477 1
-1 3 -1 8827.57 184.461 8
1 -3 1 8606.59 188.182 8
-1 3 -1 8577.64 215.11 6
-1 3 -1 8347.9 251.178 10
-1 3 -2 7351.65 247.307 4
-1 3 -2 7176.15 230.73 10
1 -3 2 7269.15 214.037 6
-1 3 -2 7337.18 251.493 2
-1 3 -2 6976.61 116.081 8
1 -3 2 7210.08 238.315 10
-1 3 -3 3637.39 164.332 10
1 -3 3 3394.05 162.408 10
-1 3 -3 3781.5 181.545 4
1 -3 3 3637.16 165.564 6
-1 3 -3 3460.49 189.046 2
-1 3 -4 6158.32 271.168 2
-1 3 -4 5933.82 211.312 10
1 -3 4 6053.58 236.522 6
1 -3 5 2813.76 175.801 6
-1 3 -5 3051.54 207.148 2
-1 3 -5 2897.01 145.622 10
1 -3 6 1784.95 151.465 6
-1 3 -6 1904.15 170.963 2
-1 3 -6 1594.49 105.625 10
1 -3 7 41.924 25.9967 6
-1 3 -7 67.5357 18.9181 10
-1 3 -7 63.6022 44.4899 2
1 -3 7 67.2775 15.3834 8
-1 3 -8 2440.51 217.116 2
1 -3 8 2200.73 194.82 6
1 -3 8 2035.1 96.2579 8
-1 3 -9 128.237 50.0948 2
1 -3 9 150.398 58.3988 6
-1 3 -10 171.64 70.0294 2
1 -3 10 116.086 59.988 6
1 -3 11 30.5828 40.064 6
-1 3 -11 4.81534 30.6402 2
-1 2 12 -0.84129 43.1132 8
1 -2 -11 10.5206 34.0966 3
1 -2 -11 85.5798 51.4537 2
-1 2 11 59.8062 47.0701 8
1 -2 -10 30.8762 28.7783 2
-1 2 10 48.7428 47.5551 8
1 -2 -9 37.1392 30.0818 2
1 -2 -9 -5.98434 18.3673 7
-1 2 9 35.7137 26.8202 8
1 -2 -9 53.1218 31.049 4
1 -2 -9 6.07023 23.5194 10
1 -2 -8 674.906 71.4951 7
1 -2 -8 649.935 92.2667 1
1 -2 -8 675.784 85.1279 4
1 -2 -8 808.447 93.4209 10
1 -2 -8 811.4 106.367 2
1 -2 -8 696.004 70.01 9
-1 2 8 768.221 120.459 8
1 -2 -7 9.41763 14.0359 10
-1 2 7 20.2199 31.533 8
1 -2 -7 -18.2863 19.9898 2
1 -2 -7 16.7583 15.9261 7
1 -2 -7 -0.99212 9.38592 9
1 -2 -7 37.5929 25.2594 4
1 -2 -6 2056.83 106.181 9
1 -2 -6 2017.15 110.264 7
1 -2 -6 2072.48 133.527 4
1 -2 -6 2281.75 149.652 2
-1 2 6 2175.4 176.044 8
-1 2 5 34.5151 20.5671 2
1 -2 -5 33.5128 26.7817 8
1 -2 -5 33.9315 22.12 4
1 -2 -5 52.4851 25.6379 5
1 -2 -5 38.0873 15.7342 9
1 -2 -5 32.4506 20.7831 2
-1 2 5 30.8096 29.2536 8
1 -2 -5 24.4346 15.0792 7
1 -2 -4 3925.75 139.387 7
-1 2 4 3839.43 134.261 7
1 -2 -4 4172.76 192.925 5
1 -2 -4 4374.54 198.096 3
1 -2 -4 4226.01 175.16 4
1 -2 -4 3865.22 128.44 9
-1 2 4 3971.29 204.937 8
-1 2 4 4146.99 180.812 2
1 -2 -3 15.6976 13.3565 5
-1 2 3 30.7409 22.0197 8
1 -2 -3 6.91954 11.598 4
-1 2 3 40.5462 13.4332 9
1 -2 -3 22.4892 15.0236 3
-1 2 3 54.4094 17.9081 7
-1 2 3 23.8695 14.3639 2
-1 2 2 1242.75 78.4273 7
-1 2 2 1133.98 92.0604 8
1 -2 -2 1221.59 86.8229 5
1 -2 -2 1186.76 82.1653 3
-1 2 2 1220.12 68.8901 9
1 -2 -2 1174.89 85.0389 4
1 -2 -2 1118.24 41.5519 1
1 -2 -2 1085.2 65.8046 9
-1 2 1 501.014 55.0788 8
1 -2 -1 511.394 48.5691 3
1 -2 -1 486.025 25.9874 1
1 -2 -1 445.181 45.0025 9
-1 2 1 461.378 45.4414 3
-1 2 1 440.572 42.9836 9
1 -2 -1 439.309 50.1943 4
-1 2 1 451.362 25.4958 1
1 -2 -1 480.903 52.7226 5
-1 2 1 435.244 40.4783 6
1 -2 0 25342.5 380.501 4
1 -2 0 25266 275.137 6
-1 2 0 25926.3 287.256 6
-1 2 0 26146.7 337.423 8
1 -2 0 26429.2 336.213 8
-1 2 0 26014.9 265.659 1
-1 2 0 26755.1 331.867 3
-1 2 -1 75.586 18.457 1
-1 2 -1 65.0335 13.506 8
1 -2 1 54.8885 15.8065 6
-1 2 -1 66.8649 15.7013 6
1 -2 1 73.3312 20.4864 4
1 -2 1 85.2727 16.5014 8
1 -2 2 12963.5 263.587 10
1 -2 2 12481.3 245.086 6
-1 2 -2 12521.8 273.998 1
-1 2 -2 12261.1 250.596 10
-1 2 -2 12882.9 300.711 2
-1 2 -2 12599.1 272.641 4
1 -2 3 2901.23 134.749 6
-1 2 -3 3073.98 162.422 2
-1 2 -3 2889.53 119.963 10
1 -2 3 2889.37 123.626 10
-1 2 -3 2973.94 135.191 4
1 -2 4 5019.99 94.1913 8
-1 2 -4 5395.39 162.39 10
-1 2 -5 520.84 49.4794 10
-1 2 -5 506.333 77.8671 2
1 -2 5 529.566 41.1625 8
1 -2 5 466.164 74.4044 2
-1 2 -6 3076.01 204.488 2
-1 2 -6 3083.77 113.146 10
1 -2 6 3014.3 119.093 8
-1 2 -7 40.2624 37.4571 2
1 -2 7 59.6027 21.6896 8
-1 2 -8 12688.8 469.883 2
1 -2 8 12627.4 314.96 8
-1 2 -9 1538.14 176.613 2
1 -2 9 1425.38 116.888 8
-1 2 -10 282.27 87.5089 2
-1 2 -11 128.579 61.7095 2
-1 2 -12 -5.51929 42.6312 2
1 -1 -12 25.042 42.0057 2
-1 1 12 57.4654 52.7381 8
1 -1 -11 21.2208 23.0701 2
-1 1 11 37.7561 44.0189 8
1 -1 -10 41.2936 43.3781 2
-1 1 10 -43.7609 40.192 8
1 -1 -10 16.2921 19.4059 4
1 -1 -9 717.453 108.036 2
1 -1 -9 827.347 82.7439 7
1 -1 -9 662.912 78.7187 10
1 -1 -9 801.434 92.8957 4
-1 1 9 631.919 111.788 8
1 -1 -8 85.0807 26.0063 7
1 -1 -8 178.628 51.8551 2
1 -1 -8 108.159 34.7091 9
-1 1 8 154.043 55.6419 8
-1 1 7 -1.79796 26.9103 8
1 -1 -7 19.1496 13.4775 9
1 -1 -7 2.46094 19.0621 2
1 -1 -7 3.49866 10.2334 7
1 -1 -6 530.031 76.1746 2
-1 1 6 380.158 68.2895 2
1 -1 -6 503.916 58.0185 9
-1 1 6 491.929 80.1296 8
1 -1 -6 503.184 50.93 7
1 -1 -5 5690.14 155.705 7
1 -1 -5 5590.47 175.551 9
1 -1 -5 5758.51 262.114 8
-1 1 5 5798.86 240.086 2
1 -1 -5 6065.37 225.509 2
-1 1 5 5692.96 253.561 8
1 -1 -4 18813.5 293.909 9
1 -1 -4 19295.6 249.82 7
-1 1 4 19435.5 392.711 2
-1 1 4 19700.3 429.334 8
-1 1 3 42967.1 575.586 8
1 -1 -3 42051 505.363 5
1 -1 -3 41130.2 398.923 9
-1 1 3 40991.6 312.191 7
1 -1 -3 42263.9 481.316 2
-1 1 3 41489.4 502.867 2
1 -1 -3 41318.6 326.052 7
-1 1 2 103.519 26.4007 8
-1 1 2 171.356 20.4687 7
-1 1 2 150.919 27.4067 2
1 -1 -2 132.497 21.1542 9
-1 1 2 150.883 22.286 9
1 -1 -2 153.823 26.9904 5
-1 1 1 24361.9 272.8 9
-1 1 1 26049 339.361 8
-1 1 1 25457.5 219.133 1
1 -1 -1 25283.6 280.594 9
1 -1 -1 25451.8 267.679 3
1 -1 -1 25732.8 212.758 1
1 -1 -1 25962.6 320.35 4
1 -1 -1 24815.2 311.425 5
1 -1 0 1576.84 72.9561 5
1 -1 0 1733.65 60.7477 1
1 -1 0 1592.37 76.8773 4
-1 1 0 1912.7 49.0138 6
-1 1 0 1603.81 59.2056 1
1 -1 0 1693.6 76.3087 9
1 -1 0 1712.37 46.8313 6
1 -1 0 1747.1 58.0781 3
-1 1 0 1729.94 73.5288 8
1 -1 1 101653 583.599 1
1 -1 1 100872 589.345 4
1 -1 1 100114 461.296 6
-1 1 -1 101883 442.954 8
1 -1 2 22598.6 191.484 8
-1 1 -2 21686.4 342.505 2
-1 1 -2 22010.5 278.877 4
1 -1 2 22512.5 264.578 10
-1 1 -3 126.031 30.355 2
1 -1 3 178.986 22.7179 10
1 -1 3 166.425 21.8684 8
-1 1 -4 127.337 33.2862 2
1 -1 4 208.304 28.9539 8
1 -1 4 206.237 43.5412 2
1 -1 5 14398.1 391.291 2
-1 1 -5 14431.4 381.837 2
1 -1 6 185.042 37.5531 8
-1 1 -6 210.197 52.4256 2
1 -1 6 182.808 48.1417 2
1 -1 7 68.5183 28.1575 8
-1 1 -7 65.0212 26.9431 2
1 -1 8 4132.53 209.575 8
-1 1 -8 4692.35 271.612 2
1 -1 9 2047.59 156.285 8
-1 1 -9 1864.43 184.855 2
-1 1 -10 -12.3244 28.987 2
1 -1 10 38.0341 29.8802 8
-1 1 -11 60.9864 47.8735 2
-1 1 -12 26.5218 35.2127 2
-1 0 12 138.568 62.7918 8
1 0 -12 47.4209 47.2126 2
-1 0 11 39.5462 33.8725 8
1 0 -11 11.6869 29.952 2
1 0 -10 31.1937 30.4795 2
-1 0 10 64.9522 44.1486 8
-1 0 9 -15.5148 32.0968 8
1 0 -9 -58.2272 50.2538 2
1 0 -9 8.9319 13.4042 7
1 0 -8 627.684 101.259 2
-1 0 8 480.874 90.9301 8
1 0 -8 507.661 61.314 7
1 0 -7 128.319 28.3568 7
1 0 -7 123.624 45.1858 2
-1 0 7 194.927 54.9597 8
1 0 -6 222.367 35.0616 7
1 0 -6 113.546 37.6854 8
1 0 -6 228.466 52.6304 2
-1 0 6 240.249 52.4139 8
-1 0 6 227.195 51.9948 2
1 0 -5 240.881 31.9841 7
1 0 -5 281.2 52.1287 8
-1 0 5 197.759 44.7203 8
-1 0 5 239.842 50.57 2
1 0 -5 234.877 49.7602 2
-1 0 4 77644.8 783.65 8
-1 0 4 78261.1 806.602 2
1 0 -4 77321.2 800.36 8
1 0 -4 76615.8 456.18 7
1 0 -3 12425 138.584 7
-1 0 3 12225.9 279.972 8
1 0 -3 12592.4 269.812 2
1 0 -3 12414.7 291.05 8
-1 0 2 79158.5 625.782 8
1 0 -2 80826.9 586.162 2
1 0 -1 2762.34 86.4518 9
-1 0 1 2795.41 99.316 8
1 0 -1 2806.25 92.4968 2
1 0 -1 2829.99 85.4627 1
1 0 0 46534.6 273.054 5
1 0 1 10410.3 163.076 9
1 0 2 57029.7 482.034 1
-1 0 -2 57248.8 471.034 2
1 0 3 58.1198 19.8411 8
-1 0 -3 107.283 27.138 2
1 0 3 70.4646 21.734 2
-1 0 -4 -5.50635 11.8056 2
1 0 4 4.73216 9.40807 8
1 0 4 4.21504 14.9532 2
1 0 5 816.517 87.1347 2
-1 0 -5 923.183 89.0197 2
1 0 5 731.218 70.509 8
-1 0 -6 3556.63 195.325 2
-1 0 -6 3688.9 211.322 1
1 0 6 3457.1 171.887 8
1 0 7 3762.82 226.812 2
-1 0 -7 3951.37 221.587 2
1 0 7 4014.41 204.343 8
-1 0 -8 3.96469 26.9749 2
1 0 8 61.1572 34.6122 8
-1 0 -9 -5.26239 27.5756 2
1 0 9 20.9649 19.6982 8
1 0 10 17.6408 27.9679 8
-1 0 -10 19.1658 32.4178 7
-1 0 -10 -12.472 34.3135 2
1 0 11 -81.0684 41.7685 8
-1 0 -11 27.824 32.2503 7
-1 0 -11 -9.05559 39.9826 2
-1 0 -12 89.7995 58.2007 2
-1 0 -13 326.112 96.0908 2
1 1 -12 391.48 108.352 2
-1 -1 11 412.084 94.5772 8
1 1 -11 338.308 94.5392 2
-1 -1 10 46.7855 32.2118 8
1 1 -10 32.9027 33.8524 2
1 1 -9 -24.6822 22.8636 7
-1 -1 9 11.122 19.179 8
1 1 -9 2.58324 29.9641 2
-1 -1 8 651.639 98.9446 8
1 1 -8 662.258 106.208 2
-1 -1 7 13.8209 21.1915 8
1 1 -7 29.8507 26.9599 2
1 1 -6 6350.81 272.632 2
-1 -1 6 6032.76 250.82 8
1 1 -6 6292.26 264.336 8
1 1 -5 7368.44 272.732 2
-1 -1 5 7362.67 293.765 2
1 1 -5 7274.96 258.13 8
-1 -1 5 7200.61 248.753 8
-1 -1 4 1890.91 112.443 8
1 1 -4 2232.21 134.801 2
1 1 -4 2008.66 123.618 8
-1 -1 3 7524.75 202.368 8
1 1 -3 8053.82 228.197 2
1 1 -3 7787.38 211.079 8
1 1 -2 19067.2 304.966 2
1 1 -2 18996.5 284.3 8
-1 -1 2 19266.2 282.415 8
1 1 -1 63501.1 342.291 7
-1 -1 1 62125 427.299 6
1 1 -1 62406.1 453.879 2
-1 -1 1 63057.1 445.494 8
1 1 0 7389.98 116.225 2
1 1 1 31376.3 287.767 1
1 1 1 31753.3 222.766 9
-1 -1 -1 32113.4 308.611 7
-1 -1 -2 17981.8 263.94 7
1 1 2 17923.9 173.5 9
-1 -1 -2 18468.5 206.273 2
1 1 2 18603.4 265.803 1
-1 -1 -2 18148.5 166.176 9
-1 -1 -2 18479.9 266.114 3
-1 -1 -2 18481.9 173.764 5
-1 -1 -3 28252.5 332.887 2
1 1 3 28590.3 402.013 8
1 1 3 28839.7 376.857 1
1 1 3 28003.2 333.109 2
-1 -1 -3 29407.1 252.545 9
1 1 3 27901.1 201.68 10
-1 -1 -4 3046.62 145.93 1
1 1 4 3014.92 133.371 2
-1 -1 -4 2994.34 128.196 2
1 1 4 3018.06 145.252 8
-1 -1 -5 51725 681.475 1
1 1 5 51127 625.409 2
1 1 5 52723.3 665.254 8
-1 -1 -5 50464.4 598.767 2
-1 -1 -6 2861.99 83.3617 4
-1 -1 -6 3155.76 168.291 2
1 1 6 3141.25 175.754 2
1 1 6 3156.39 178.451 8
1 1 7 13.514 14.95 8
-1 -1 -7 27.0314 9.79912 4
-1 -1 -7 58.092 30.2729 7
-1 -1 -7 25.2892 24.5607 2
1 1 7 10.2739 17.0076 2
1 1 8 17.514 22.6795 8
-1 -1 -8 16.6594 19.4823 2
-1 -1 -8 4.97262 5.73875 4
-1 -1 -9 226.442 60.2355 2
-1 -1 -9 197.938 55.929 7
1 1 9 296.514 72.3944 8
-1 -1 -9 163.712 23.6534 4
-1 -1 -10 198.553 55.4305 7
-1 -1 -10 165.196 58.7238 2
1 1 10 166.346 53.8021 8
-1 -1 -11 9.56319 25.4368 7
-1 -1 -11 51.9374 34.5909 2
-1 -1 -12 11.0154 32.6783 2
1 1 12 -31.3793 23.9206 8
1 2 -12 -60.5119 66.2109 2
1 2 -11 79.174 48.8341 2
1 2 -10 183.31 72.9279 2
-1 -2 10 262.227 68.4457 8
-1 -2 9 28.4899 25.671 8
1 2 -9 -11.7405 31.5468 2
-1 -2 8 1292.81 126.888 8
1 2 -8 1225.79 145.585 2
1 2 -8 1198.89 131.394 8
-1 -2 7 13997.2 391.031 8
1 2 -7 13926.4 459.349 2
1 2 -7 13055.2 396.897 8
-1 -2 6 538.145 69.3845 8
1 2 -6 523.012 85.2869 2
1 2 -6 569.734 77.3178 8
1 2 -5 8433.81 302.629 2
-1 -2 5 8590.27 253.878 8
1 2 -5 8495.63 263.557 8
-1 -2 4 14247 292.266 8
1 2 -4 14634.2 305.977 8
-1 -2 3 2.25166 7.77957 8
1 2 -3 12.0649 11.5535 8
-1 -2 3 -25.3274 24.6412 6
1 2 -3 27.2036 23.5415 2
1 2 -2 2763.2 125.577 2
1 2 -2 2903.17 107.15 8
-1 -2 2 2850.63 105.086 8
-1 -2 2 2837.27 124.318 6
1 2 -1 40987.6 409.021 2
1 2 -1 41567.9 418.533 7
1 2 -1 41872.9 369.831 8
-1 -2 0 88985.4 605.809 7
-1 -2 0 88178.6 599.44 6
1 2 0 88112.4 466.902 2
1 2 0 89906.4 552.348 1
-1 -2 -1 918.285 62.7958 3
-1 -2 -1 887.269 62.9432 7
-1 -2 -1 906.658 61.5249 6
1 2 1 912.041 51.8794 1
-1 -2 -2 18976.9 311.29 3
-1 -2 -2 19401.7 255.641 5
-1 -2 -2 19248.6 307.476 7
1 2 2 19785.9 277.452 10
1 2 2 19911.8 259.525 1
1 2 2 19106.4 243.294 5
-1 -2 -2 19940.9 268.098 1
-1 -2 -3 1351.71 88.5685 7
1 2 3 1225.24 93.6218 8
1 2 3 1264.95 68.7111 10
1 2 3 1317.83 62.155 4
-1 -2 -3 1298.87 72.5462 10
-1 -2 -3 1332.51 89.5008 3
-1 -2 -3 1272.77 76.7906 1
1 2 3 1282.14 57.3458 2
-1 -2 -3 1263.05 54.7227 2
1 2 3 1325.77 77.0597 1
-1 -2 -3 1215.49 69.6072 5
-1 -2 -4 15885.4 336.839 7
1 2 4 17295.5 386.837 8
-1 -2 -4 16125.9 315.881 1
-1 -2 -4 16397.2 261.241 2
-1 -2 -4 16055.3 256.935 10
1 2 4 15580.7 267.005 2
-1 -2 -4 18125.6 381.301 3
-1 -2 -4 15401.1 278.797 5
-1 -2 -5 13842.1 332.98 7
1 2 5 13666.4 376.788 8
1 2 5 13525.8 298.02 2
-1 -2 -5 14188.6 343.245 1
-1 -2 -5 13681.9 283.497 2
-1 -2 -5 13172.4 211.517 4
-1 -2 -5 13402.2 291.457 5
-1 -2 -5 13754.2 238.856 10
-1 -2 -6 2600.81 98.6581 4
-1 -2 -6 2939.44 150.764 2
1 2 6 2640.42 175.731 8
-1 -2 -6 2738.72 162.5 7
-1 -2 -6 2840.75 170.413 1
-1 -2 -6 2758.21 145.188 5
-1 -2 -6 2746.64 107.652 10
1 2 6 2611.56 151.471 2
-1 -2 -7 21.3324 15.1413 2
-1 -2 -7 9.92718 14.67 7
1 2 7 86.6642 41.1378 8
-1 -2 -7 62.1348 25.8273 1
-1 -2 -7 66 24.1739 5
1 2 7 31.4633 21.3772 2
-1 -2 -7 18.1686 9.5075 4
1 2 8 55.7014 36.1687 2
-1 -2 -8 40.0487 27.4957 2
-1 -2 -8 45.3294 31.1269 7
-1 -2 -8 55.9947 15.2769 4
1 2 8 91.6394 46.0362 8
-1 -2 -9 491.16 82.9074 7
-1 -2 -9 556.157 89.2166 2
1 2 9 496.012 98.4806 8
1 2 10 130.556 57.1964 8
-1 -2 -10 152.057 54.3192 7
-1 -2 -10 165.239 57.1755 2
-1 -2 -11 38.1883 29.8193 7
-1 -2 -11 23.3047 26.3666 2
1 2 11 10.8936 42.5624 8
1 2 12 -81.8788 50.1321 8
-1 -2 -12 -13.1562 47.2668 3
-1 -3 11 19.145 41.741 6
1 3 -11 34.1768 44.1232 2
-1 -3 10 110.351 53.5111 6
1 3 -10 92.5361 52.0209 2
-1 -3 9 932.754 141.226 6
-1 -3 9 948.115 110.699 8
1 3 -9 919.521 139.496 2
-1 -3 8 355.077 61.7271 8
1 3 -8 337.767 77.3587 2
1 3 -8 342.643 66.0167 8
-1 -3 8 377.36 84.3975 6
1 3 -7 19122.4 448.566 8
-1 -3 7 19699.7 548.739 6
1 3 -7 20892.5 579.857 2
-1 -3 7 20231 433.642 8
-1 -3 6 108.516 32.6863 8
-1 -3 6 71.9703 37.9631 6
1 3 -6 29.4487 23.4088 2
1 3 -6 111.963 33.0861 8
-1 -3 5 3668.07 203.829 6
1 3 -5 3652.86 161.635 8
1 3 -5 3647.46 212.115 2
-1 -3 5 3565.59 149.913 8
-1 -3 4 2366.84 150.362 6
1 3 -4 2226.19 151.6 2
1 3 -4 2259.49 113.438 8
-1 -3 4 2436.65 114.648 8
1 3 -3 7888.42 260.931 2
1 3 -3 7999.28 191.814 8
-1 -3 3 8446.95 263.121 6
-1 -3 3 8629.45 191.939 8
-1 -3 2 2161.56 122.879 6
1 3 -2 1911.13 115.55 2
1 3 -2 2120.51 92.2831 8
1 3 -1 46491.4 495.67 2
-1 -3 1 46213.9 533.221 6
-1 -3 0 763.942 69.6572 7
-1 -3 0 722.744 65.2211 6
1 3 0 694.898 67.1341 10
1 3 0 784.672 53.5716 2
1 3 0 834.077 61.025 1
-1 -3 0 798.432 56.0456 2
-1 -3 -1 43543.7 519.483 3
1 3 1 44063.2 393.923 1
-1 -3 -1 43091.1 506.588 6
-1 -3 -1 43845.7 525.384 7
1 3 1 44771.3 525.493 10
-1 -3 -1 44600.5 408.627 1
1 3 1 44529.7 300.385 2
-1 -3 -2 12079.8 285.64 7
1 3 2 12179.1 202.164 1
1 3 2 12546.8 276.954 10
-1 -3 -2 12217.4 207.25 1
-1 -3 -2 11965.3 285.516 3
-1 -3 -2 11749.8 275.057 10
1 3 2 11788.7 248.461 5
-1 -3 -3 1371.11 89.7988 5
1 3 3 1371.66 91.7902 10
-1 -3 -3 1385.55 102.038 7
1 3 3 1335.99 45.8269 2
1 3 3 1421.04 86.3223 4
1 3 3 1389.85 76.3148 1
-1 -3 -3 1427.55 105.582 3
1 3 3 1365.06 85.702 5
-1 -3 -3 1356.15 93.1386 10
-1 -3 -3 1436.34 80.71 1
1 3 3 1460.25 114.14 8
1 3 4 845.962 70.7104 10
1 3 4 779.379 81.9929 7
-1 -3 -4 928.107 92.4178 3
-1 -3 -4 817.395 82.6461 7
-1 -3 -4 799.927 71.8612 5
-1 -3 -4 848.968 49.0058 2
-1 -3 -4 849.521 69.2703 1
1 3 4 837.812 53.9368 2
1 3 4 713.707 60.0042 4
1 3 4 947.737 99.5697 8
-1 -3 -4 886.723 76.268 10
-1 -3 -5 906.922 97.599 3
-1 -3 -5 1007.02 83.2141 10
1 3 5 832.034 68.4706 2
-1 -3 -5 982.013 84.4643 1
-1 -3 -5 1032.86 98.2907 7
-1 -3 -5 997.518 66.9497 2
1 3 5 974.199 110.943 8
-1 -3 -5 934.765 83.4008 5
-1 -3 -6 177.806 42.8962 1
1 3 6 178.75 37.3217 2
-1 -3 -6 144.482 38.1898 7
1 3 6 132.236 43.8037 8
-1 -3 -6 203.199 43.8983 5
-1 -3 -6 131.286 31.777 10
-1 -3 -6 122.73 37.9887 3
-1 -3 -6 117.551 29.6278 2
-1 -3 -7 512.307 82.7986 3
-1 -3 -7 607.81 70.8249 2
1 3 7 685.972 104.88 8
-1 -3 -7 703.669 88.8026 1
-1 -3 -7 547.207 62.4197 10
-1 -3 -7 676.459 87.3701 7
-1 -3 -7 554.776 74.4805 5
1 3 7 448.578 65.5054 2
1 3 8 235.65 53.4106 2
1 3 8 300.518 75.9498 8
-1 -3 -8 277.862 62.4706 7
-1 -3 -8 318.858 73.509 3
-1 -3 -8 262.153 52.8974 2
1 3 9 437.416 99.5726 8
-1 -3 -9 523.446 78.4624 2
-1 -3 -9 390.512 78.319 7
-1 -3 -9 498.363 100.585 3
-1 -3 -10 44.1659 28.3934 2
-1 -3 -10 30.4454 27.8661 7
-1 -3 -10 41.5301 39.2476 3
1 3 10 69.0006 47.3518 8
1 3 11 6.91106 31.0244 8
-1 -3 -11 24.6036 37.752 3
1 3 12 75.0858 49.0757 8
1 3 13 -57.394 48.2171 8
-1 -4 11 -34.5929 44.5607 6
1 4 -11 18.5761 56.8144 2
1 4 -10 79.0869 60.0348 2
-1 -4 10 -18.0684 36.9458 6
1 4 -9 56.315 46.6851 2
-1 -4 9 164.287 59.2191 6
1 4 -8 202.037 65.4222 2
-1 -4 8 366.025 56.991 8
-1 -4 8 269.344 73.8188 6
1 4 -7 566.623 82.9379 10
-1 -4 7 701.343 110.909 6
1 4 -7 593.633 72.956 8
-1 -4 7 670.606 70.403 8
1 4 -7 613.743 107.996 2
-1 -4 6 450.996 82.6056 6
1 4 -6 460.149 74.1946 10
1 4 -6 490.195 59.6159 8
-1 -4 6 546.276 59.6643 8
1 4 -6 416.765 77.2675 2
-1 -4 5 708.974 96.4822 6
1 4 -5 620.532 92.9793 2
1 4 -5 749.236 66.6346 8
1 4 -5 694.656 89.4986 10
1 4 -4 9320.91 329.692 2
-1 -4 4 9780.15 331.499 6
1 4 -4 9801.23 323.489 10
1 4 -4 9494.9 218.651 8
-1 -4 3 12703.3 354.122 6
1 4 -3 12418.4 356.397 10
1 4 -3 11952.4 346.544 2
1 4 -3 12275.2 238.476 8
-1 -4 2 19535.6 414.928 6
-1 -4 2 19197.3 419.06 2
1 4 -2 17980.4 418.909 10
1 4 -2 18408.3 393.603 2
1 4 -2 19447 432.049 7
1 4 -2 19073.7 291.95 8
1 4 -1 6.50341 14.843 2
1 4 -1 -0.25892 17.7702 10
-1 -4 1 5.20695 11.0041 2
-1 -4 0 6240.48 184.774 2
1 4 0 6385.72 235.485 10
-1 -4 0 6481.96 224.092 6
1 4 0 6387.71 183.372 2
1 4 1 67.5043 16.5418 2
-1 -4 -1 79.2455 26.6415 6
-1 -4 -1 63.9435 23.2975 7
-1 -4 -1 37.4818 20.7342 3
1 4 1 60.8446 22.6421 10
1 4 1 69.5589 19.8456 1
1 4 2 40294.5 589.231 10
-1 -4 -2 41350.6 596.784 3
-1 -4 -2 39886.3 593.853 7
1 4 2 40727.4 301.849 2
1 4 2 41341.7 571.795 4
-1 -4 -2 40572.8 607.525 10
1 4 2 42560.7 611.749 8
1 4 2 42316.7 557.032 5
1 4 2 42498.4 400.023 1
-1 -4 -2 40424.5 402.192 1
1 4 3 688.551 72.9171 5
1 4 3 792.634 82.2037 10
1 4 3 689.458 33.0768 2
-1 -4 -3 744.9 81.4239 10
-1 -4 -3 755.839 56.3905 1
1 4 3 758.603 55.042 1
1 4 3 609.14 75.1849 7
-1 -4 -3 729.317 81.8036 3
-1 -4 -3 800.128 85.1554 7
1 4 3 790.404 78.4093 4
1 4 3 778.245 92.0883 8
1 4 4 8220.95 149.139 2
1 4 4 8686.49 269.97 10
1 4 4 8531.05 204.736 1
1 4 4 8998.18 268.14 5
-1 -4 -4 8758.11 284.437 10
-1 -4 -4 8743.96 303.813 3
1 4 4 9105.52 265.309 4
-1 -4 -4 8611.86 209.772 1
-1 -4 -4 8576.78 294.118 7
1 4 4 8755.55 325.428 8
-1 -4 -4 8669.51 271.773 5
1 4 5 77.04 25.7333 4
-1 -4 -5 59.9454 23.053 10
-1 -4 -5 60.5634 24.8782 5
1 4 5 89.3053 30.3516 7
1 4 5 93.8024 21.1563 2
-1 -4 -5 46.1963 16.3834 1
-1 -4 -5 74.6741 28.7483 7
1 4 5 69.3617 33.9558 8
-1 -4 -5 22.1163 24.0889 3
1 4 6 912.062 76.4324 2
-1 -4 -6 910.29 97.4662 10
-1 -4 -6 1072.53 120.899 3
1 4 6 972.551 124.148 8
-1 -4 -6 821.094 101.016 7
-1 -4 -6 864.514 83.5242 1
-1 -4 -6 746.968 89.3844 5
-1 -4 -7 1.24184 14.0341 1
-1 -4 -7 17.6248 18.8092 10
1 4 7 -11.8152 22.1302 8
-1 -4 -7 -21.3719 34.3085 3
-1 -4 -7 -27.0967 34.512 7
-1 -4 -8 1322.03 117.38 10
-1 -4 -8 1391.47 156.634 3
-1 -4 -8 1291.37 139.04 7
-1 -4 -8 1418.85 111.286 2
-1 -4 -8 1195.9 117.55 1
1 4 8 1164.04 109.217 2
1 4 8 1220.44 154.63 8
-1 -4 -9 33.6159 27.8706 2
-1 -4 -9 27.5785 20.1073 7
-1 -4 -9 12.4635 31.7536 3
-1 -4 -10 67.1516 43.6791 7
-1 -4 -10 52.6146 44.7361 3
1 4 10 126.251 58.7018 8
-1 -4 -11 32.4357 45.3759 3
1 4 11 27.8632 36.3958 8
1 4 12 11.9337 32.5344 8
-1 -5 10 184.745 78.3823 6
1 5 -10 217.544 87.8863 2
-1 -5 9 27.2014 44.6731 6
1 5 -9 -2.98384 33.2707 2
-1 -5 8 4.72175 24.5258 6
1 5 -8 14.0906 32.6278 2
-1 -5 7 592.576 107.609 6
1 5 -7 646.27 64.191 8
1 5 -7 705.018 120.002 2
1 5 -6 1332.58 152.577 2
-1 -5 6 1396.04 152.491 6
1 5 -6 1067.09 121.445 10
1 5 -6 1227.6 80.9077 8
1 5 -5 1199.62 127.815 10
-1 -5 5 1383.07 140.376 6
1 5 -5 1297.91 140.019 2
1 5 -5 1354.09 81.7485 8
1 5 -4 447.209 75.7216 10
1 5 -4 372.152 42.329 8
-1 -5 4 518.879 85.2955 6
1 5 -4 351.314 69.026 2
1 5 -3 577.703 85.9492 10
1 5 -3 488.602 77.4276 2
1 5 -3 594.469 86.6607 7
-1 -5 3 572.143 83.0215 6
1 5 -3 507.816 79.2812 6
-1 -5 3 538.908 86.6456 2
1 5 -3 448.179 46.5457 8
1 5 -2 1213.6 116.575 6
1 5 -2 1274.41 124.764 7
-1 -5 2 1032.9 106.072 6
1 5 -2 1082.64 113.662 10
-1 -5 2 840.246 94.8977 2
1 5 -2 1022.53 100.886 2
-1 -5 1 16120.2 381.403 2
1 5 -1 16352.9 416.894 6
-1 -5 1 15843 408.843 6
1 5 -1 15403 358.377 2
1 5 0 8860.31 247.305 2
1 5 0 8570.52 292.797 6
1 5 0 8742.43 311.81 10
-1 -5 0 8326.76 282.55 6
1 5 1 6523.41 187.227 2
-1 -5 -1 6805.77 258.926 6
-1 -5 -1 6200.09 256.755 7
1 5 1 7152.36 280.003 10
1 5 1 6900.99 271.104 6
1 5 1 6540.12 246.952 8
1 5 1 6778.06 189.742 1
1 5 2 2178 155.327 6
1 5 2 2199.59 153.262 4
-1 -5 -2 2000.62 154.191 10
1 5 2 2061.28 93.2061 1
1 5 2 2174.15 145.779 5
-1 -5 -2 1890.89 147.28 7
1 5 2 2142.21 90.218 2
-1 -5 -2 1988.8 149.886 3
1 5 2 2244.14 156.069 10
1 5 2 2159.31 153.241 8
-1 -5 -3 1198.08 118.055 3
1 5 3 1035.18 111.157 7
1 5 3 1116.97 109.984 10
-1 -5 -3 1023.41 109.511 7
1 5 3 1103.25 52.3572 2
1 5 3 1141.45 105.155 5
1 5 3 1207.1 68.2563 1
1 5 3 1237.91 112.839 4
1 5 3 1203.11 118.807 6
-1 -5 -3 1115.74 69.0549 1
-1 -5 -3 1149.09 119.092 10
1 5 3 1085.49 115.045 8
1 5 3 1100.82 55.7591 2
-1 -5 -4 347.237 64.6476 7
1 5 4 366.441 31.1935 2
1 5 4 349.435 66.5978 7
1 5 4 447.364 71.1403 10
1 5 4 290.003 65.3348 8
1 5 4 351.963 28.5457 9
-1 -5 -4 406.608 71.0139 10
-1 -5 -4 398.742 71.1006 3
1 5 4 353.645 59.5898 4
-1 -5 -4 342.988 39.7833 1
1 5 4 385.463 40.9207 1
1 5 4 465.302 71.2244 5
1 5 5 361.635 76.4982 8
1 5 5 277.372 52.787 4
1 5 5 349.461 67.5405 7
1 5 5 221.456 28.5943 2
-1 -5 -5 295.031 62.0943 10
-1 -5 -5 342.59 70.2729 3
-1 -5 -5 341.262 44.0509 1
1 5 5 350.669 61.2809 5
-1 -5 -5 351.091 68.4057 7
-1 -5 -5 278.008 56.477 5
-1 -5 -6 21506.3 576.076 3
-1 -5 -6 21466 537.214 7
1 5 6 22741.6 616.683 8
1 5 6 20234.5 325.562 2
-1 -5 -6 21391.4 528.481 10
1 5 7 3358.07 153.236 2
-1 -5 -7 3552.47 246.351 3
1 5 7 3785.23 270.117 8
-1 -5 -7 2856.85 158.682 1
-1 -5 -7 3805.27 225.531 10
-1 -5 -7 3542.76 234.935 7
-1 -5 -8 277.929 64.3877 10
1 5 8 351.818 88.5652 8
-1 -5 -8 384.619 81.6674 7
-1 -5 -8 312.592 78.9322 3
1 5 9 45.6386 43.562 8
-1 -5 -9 3.44368 33.7422 3
-1 -5 -9 -6.94591 27.5444 7
-1 -5 -10 48.9245 49.3738 3
1 5 10 -9.58552 41.3657 8
-1 -5 -10 -12.6954 26.8492 7
1 5 11 85.4549 58.2535 8
-1 -5 -11 47.4602 62.3405 3
-1 -6 10 404.275 110.756 6
-1 -6 9 -21.3174 44.6387 6
1 6 -9 -29.6821 49.7721 2
-1 -6 8 1.94997 40.584 6
1 6 -8 -1.20541 27.9159 2
-1 -6 7 120.379 51.7531 6
1 6 -7 92.368 46.5167 2
1 6 -6 80.9653 14.929 8
1 6 -6 63.1148 37.0417 2
1 6 -5 541.458 44.1633 8
1 6 -5 521.433 98.5743 2
-1 -6 5 660.066 107.245 6
1 6 -4 2174.82 185.029 2
1 6 -4 2114.31 99.3939 8
1 6 -3 49.3388 17.552 8
-1 -6 3 58.1776 21.4615 6
1 6 -3 2.32169 30.0522 2
-1 -6 2 4154.82 230.928 6
-1 -6 2 4171.75 232.237 2
1 6 -2 4180.89 221.578 2
1 6 -1 9712.03 354.197 6
-1 -6 1 9517.37 343.016 6
1 6 -1 9463.47 280.453 8
1 6 -1 9266.79 312.8 2
1 6 0 2190.6 165.083 6
1 6 0 2272.04 141.102 2
-1 -6 0 2254.79 160.737 6
1 6 0 2309.7 135.524 1
1 6 0 2062.56 143.321 8
-1 -6 -1 1463.04 131.568 6
1 6 1 1670.24 144.56 6
1 6 1 1562.2 105.165 2
1 6 1 1696.63 150.815 4
1 6 1 1477.36 127.868 8
1 6 1 1648.88 101.289 1
1 6 2 83.3717 33.4891 5
-1 -6 -2 31.9203 20.6732 3
1 6 2 86.1329 36.37 8
-1 -6 -2 79.2711 38.7013 7
1 6 2 71.1557 20.4637 1
-1 -6 -2 35.69 27.5183 10
1 6 2 70.3371 28.6029 6
1 6 2 48.1997 24.146 4
1 6 2 83.0084 21.3663 2
1 6 3 11085.6 217.731 2
1 6 3 11909 374.273 5
1 6 3 11109.6 205.107 1
1 6 3 11544.7 387.293 4
-1 -6 -3 11241.7 392.775 3
-1 -6 -3 10620.4 386.111 7
-1 -6 -3 11007.6 400.888 10
1 6 3 10833.6 395.173 8
1 6 4 617.875 51.5362 9
1 6 4 740.849 96.9556 4
-1 -6 -4 667.649 100.77 7
-1 -6 -4 575.716 95.5624 10
-1 -6 -4 635.186 95.9613 3
1 6 4 565.156 42.2459 2
1 6 4 627.373 46.7525 1
1 6 4 615.825 45.7188 2
1 6 4 690.487 95.8646 5
1 6 4 681.345 103.586 8
1 6 5 483.564 78.879 5
-1 -6 -5 434.585 84.2721 3
1 6 5 423.153 90.4588 8
1 6 5 447.782 38.8708 2
-1 -6 -5 393.453 78.0392 7
-1 -6 -5 304.656 36.458 1
1 6 5 473.343 78.7547 4
-1 -6 -5 305.419 60.2065 10
-1 -6 -6 8446.59 369.677 7
-1 -6 -6 8015.45 360.563 10
1 6 6 7200.29 371.687 8
-1 -6 -6 7755.64 370.056 3
1 6 6 7596.33 175.655 2
1 6 7 3949 146.115 2
-1 -6 -7 4257.45 291.633 3
-1 -6 -7 4300.83 274.459 7
-1 -6 -7 4765.2 278.629 10
1 6 7 4181.96 301.378 8
-1 -6 -8 217.582 63.8621 10
-1 -6 -8 318.012 78.3139 7
-1 -6 -8 300.543 86.7275 3
1 6 8 329.142 92.2851 8
-1 -6 -9 31.6132 32.7279 7
1 6 9 -0.94919 28.9143 8
-1 -6 -10 99.7262 53.9987 3
-1 -6 -10 -52.3248 36.7526 7
1 6 10 61.967 49.4634 8
1 7 -9 59.771 47.2157 2
-1 -7 9 52.992 52.2866 6
-1 -7 8 101.519 64.8853 6
1 7 -8 40.7148 29.4445 2
-1 -7 7 15.82 31.1226 6
1 7 -7 -24.8109 44.245 2
1 7 -6 209.019 72.625 2
-1 -7 6 191.803 71.7153 6
-1 -7 5 47.7042 31.9694 6
1 7 -5 13.2206 30.6095 2
1 7 -4 1401.74 80.2908 8
1 7 -4 1479.65 163.008 2
-1 -7 4 1379.09 152.104 6
1 7 -4 1412.04 81.2564 8
-1 -7 3 887.359 118.567 6
1 7 -3 794.544 72.4258 8
1 7 -3 712.93 105.453 2
1 7 -3 657.587 65.1473 8
-1 -7 2 15652.7 500.644 6
1 7 -2 15696.4 364.184 8
1 7 -2 15326.9 461.607 2
1 7 -1 11389 337.249 8
1 7 -1 11666.5 377.639 2
-1 -7 1 12060.1 414.338 6
1 7 0 431.958 72.5379 8
-1 -7 0 450.613 78.3266 6
1 7 0 456.429 70.5738 2
1 7 0 437.822 64.5007 1
1 7 1 412.118 73.5387 8
-1 -7 -1 405.845 70.5525 6
1 7 1 443.139 58.6613 1
1 7 1 438.574 63.7072 2
1 7 1 386.107 78.6669 5
1 7 2 1521.87 90.9518 1
-1 -7 -2 1627.48 169.713 10
1 7 2 1643.93 157.286 5
1 7 2 1448.77 145.46 8
1 7 2 1495.07 104.258 2
-1 -7 -3 175.131 60.1169 3
1 7 3 164.523 31.6383 2
-1 -7 -3 194.884 64.0769 10
1 7 3 181.438 39.9292 9
1 7 3 234.429 62.2629 5
1 7 3 153.934 53.224 8
1 7 3 202.506 27.566 1
1 7 4 507.804 96.613 8
-1 -7 -4 594.24 99.1736 3
1 7 4 583.675 92.0183 5
1 7 4 539.716 46.4317 2
1 7 4 533.603 58.8788 9
-1 -7 -4 428.244 91.92 10
-1 -7 -4 511.862 102.238 7
1 7 4 508.207 47.9534 2
1 7 5 1630.36 76.0421 9
1 7 5 1436.97 68.2795 2
1 7 5 1756.69 166.481 5
1 7 5 1486.95 70.2815 2
-1 -7 -5 1610.5 173.417 3
-1 -7 -5 1670.7 178.156 10
-1 -7 -5 1569.27 168.452 7
1 7 5 1610.14 177.626 8
1 7 6 28.493 8.74389 2
1 7 6 66.9847 33.1373 5
1 7 6 57.9894 41.5364 8
-1 -7 -6 24.8149 31.6957 3
-1 -7 -6 3.79459 33.1703 7
-1 -7 -6 8.95505 33.0868 10
-1 -7 -7 -44.5398 38.1334 7
-1 -7 -7 -13.2476 44.897 10
-1 -7 -7 24.6015 30.9728 3
1 7 7 37.5527 45.0095 8
-1 -7 -8 3.30311 24.1799 7
-1 -7 -8 46.5643 38.6794 3
1 7 8 42.6813 49.4628 8
1 7 9 -17.7385 33.9584 8
-1 -7 -9 -65.3641 43.643 7
-1 -7 -9 -3.82727 46.1814 3
-1 -7 -10 86.482 65.8212 3
1 7 10 -108.258 66.372 8
1 8 -8 43.6682 49.1768 2
-1 -8 8 25.6812 41.8771 6
-1 -8 7 5.39175 32.1445 6
1 8 -7 -14.5877 43.2281 2
-1 -8 6 90.8304 60.4717 6
1 8 -6 93.2915 56.991 2
1 8 -5 286.238 84.5781 2
-1 -8 5 311.691 84.6369 6
1 8 -4 4.32512 27.528 2
-1 -8 4 19.9679 25.1746 6
1 8 -4 14.8294 7.94485 8
1 8 -3 496.934 93.7367 2
1 8 -3 372.753 53.3723 8
-1 -8 3 457.613 94.8333 6
1 8 -3 456.25 56.4521 8
-1 -8 2 2260.45 199.973 6
1 8 -2 2253.93 149.421 8
1 8 -2 2196.07 188.091 2
-1 -8 1 1323.88 149.009 6
1 8 -1 1050.2 109.51 8
1 8 -1 1033.57 122.057 2
-1 -8 0 1365.53 148.069 6
1 8 0 1318.07 128.967 2
1 8 0 1335.72 132.57 8
1 8 0 1317.16 116.14 1
-1 -8 -1 48.3841 33.3879 6
1 8 1 152.987 36.9941 1
1 8 1 75.2427 30.7945 5
1 8 1 149.721 41.5585 2
1 8 1 136.521 41.7992 8
1 8 2 142.31 37.8538 2
1 8 2 152.069 51.4268 8
1 8 2 173.237 32.2475 1
1 8 2 117.433 48.1013 5
1 8 3 6634.98 220.122 2
1 8 3 6728.16 145.813 1
1 8 3 7139.4 275.145 9
1 8 3 6717.43 347.486 8
-1 -8 -3 7067.33 392.008 10
1 8 3 7054.27 349.472 5
1 8 4 1050.2 70.8016 2
1 8 4 1378.55 105.872 9
1 8 4 1316.33 84.7989 2
1 8 4 1191.66 156.96 8
1 8 4 1413.19 160.472 5
-1 -8 -4 1316.45 178.555 10
-1 -8 -4 1295.19 159.683 3
1 8 5 -0.93407 23.7404 8
-1 -8 -5 10.8499 30.4409 3
1 8 5 10.648 7.62311 9
-1 -8 -5 42.3649 47.8336 10
1 8 5 23.4453 28.1411 5
-1 -8 -6 -14.6908 25.3007 3
1 8 6 44.8843 44.1216 8
-1 -8 -6 -24.1276 39.6903 10
1 8 6 -5.41294 19.853 5
-1 -8 -6 14.0365 23.4209 7
-1 -8 -7 43.3961 49.368 3
1 8 7 74.6827 47.3919 8
-1 -8 -7 0.95767 35.3967 7
1 8 8 31.3786 51.2423 8
-1 -8 -8 -7.64795 28.5979 7
-1 -8 -8 66.3674 44.5455 3
1 8 9 41.7813 38.9919 8
-1 -8 -9 -10.3749 34.4469 3
-1 -8 -9 -13.3092 28.5112 7
-1 -9 7 335.993 101.761 6
1 9 -7 300.982 99.6695 2
-1 -9 6 77.9557 33.4059 6
1 9 -6 116.284 55.9953 2
-1 -9 5 230.814 81.8712 6
1 9 -5 248.817 84.3529 2
-1 -9 4 151.291 58.3864 6
1 9 -4 69.0068 53.3533 2
1 9 -3 261.141 78.8052 2
-1 -9 3 310.576 88.7656 6
-1 -9 2 676.21 120.211 6
1 9 -2 769.965 92.7865 8
1 9 -2 630.853 109.175 2
1 9 -1 393.702 75.037 8
1 9 -1 429.523 85.2053 2
-1 -9 1 297.591 76.0198 6
1 9 -1 461.597 82.2456 1
1 9 0 187.531 47.7523 1
1 9 0 174.392 53.6858 8
1 9 0 133.512 51.3469 5
-1 -9 0 131.689 54.467 6
1 9 0 177.352 50.0892 2
1 9 1 299.19 80.0267 5
1 9 1 281.159 64.0553 2
-1 -9 -1 252.038 69.0162 6
1 9 1 279.646 71.2899 8
1 9 1 186.129 39.5051 1
1 9 2 -4.98063 21.4848 2
1 9 2 -1.69296 9.24947 1
1 9 2 -17.2692 36.5704 5
1 9 2 -37.7434 32.0526 8
1 9 3 1030.94 95.6301 2
1 9 3 1184.82 124.029 9
1 9 3 1203.82 156.282 5
1 9 3 1317.41 165.28 8
1 9 4 260.195 81.6579 8
1 9 4 370.774 62.3 9
1 9 4 373.809 94.565 5
-1 -9 -5 -29.5537 60.0925 3
1 9 5 15.7508 23.4119 5
1 9 5 51.086 53.8832 8
1 9 6 -66.583 46.5901 5
-1 -9 -6 -6.01849 35.4675 3
1 9 6 12.1377 30.8006 8
1 9 7 48.6613 45.2704 8
-1 -9 -7 53.2287 51.7359 3
-1 -9 -8 23.299 48.363 3
1 9 8 -6.38678 33.1431 8
-1 -10 6 58.5235 42.236 6
1 10 -6 27.7674 35.8659 2
1 10 -5 544.494 124.816 2
-1 -10 5 536.969 125.694 6
-1 -10 4 223.059 80.8509 6
1 10 -4 182.659 75.1616 2
1 10 -3 156.924 68.2834 2
-1 -10 3 100.389 54.1599 6
1 10 -2 151.812 65.268 2
-1 -10 2 181.576 68.5848 6
1 10 -2 247.242 67.7381 1
1 10 -1 323.496 71.2406 8
-1 -10 1 157.421 62.5014 6
1 10 -1 268.392 74.1057 2
1 10 -1 294.651 68.325 1
-1 -10 0 477.928 102.916 6
1 10 0 463.726 93.0246 2
1 10 0 495.493 115.655 5
1 10 0 433.678 73.1968 1
1 10 0 465.621 91.0368 8
1 10 1 37.5865 30.9624 8
1 10 1 -17.7279 17.8259 2
-1 -10 -1 30.5234 42.2671 6
1 10 1 -9.76982 33.7999 5
1 10 2 162.1 51.8339 9
1 10 2 175.884 65.8415 8
1 10 2 347.861 97.2391 5
1 10 3 27.6661 35.0107 5
1 10 3 127.849 56.6791 8
1 10 3 57.1567 33.113 9
1 10 4 23.834 26.7967 8
1 10 4 21.9594 28.0914 5
1 10 5 19.8367 37.2338 8
1 10 5 49.2385 41.4547 5
1 10 6 -18.3025 37.2255 8
1 10 6 59.7585 31.8496 5
-1 -10 -6 60.6951 36.7396 3
1 10 7 256.325 103.261 8
1 10 7 66.856 62.727 5
1 11 -5 -13.119 42.8786 2
-1 -11 4 85.1727 56.3498 6
1 11 -4 169.512 75.7025 2
-1 -11 3 62.7673 39.8599 6
1 11 -3 -75.9075 49.6993 2
-1 -11 2 15.6327 32.093 6
1 11 -2 -6.54763 27.804 2
1 11 -1 139.119 52.5119 2
1 11 -1 27.3291 50.8524 5
-1 -11 1 62.1997 56.8661 6
-1 -11 0 742.61 140.68 6
1 11 0 797.615 154.134 5
1 11 1 338.591 88.8976 9
1 11 1 405.073 94.2527 8
1 11 1 389.389 103.03 5
1 11 2 -57.7045 41.6811 8
1 11 2 -0.9993 17.6849 9
1 11 3 -18.2044 35.2656 5
1 11 3 37.9613 30.9907 8
1 11 4 -6.95252 28.5416 5
1 11 4 -5.63896 42.2349 8
1 11 5 42.948 48.8587 5
1 11 5 -119.694 64.7812 8
-1 -12 1 103.769 58.085 6
1 12 0 29.562 35.1931 9
1 12 1 21.2767 30.7984 9
1 12 3 52.531 40.6003 8
1 12 4 329.478 108.434 8
-2 10 4 91.1853 71.0093 8
-2 10 3 149.723 72.6198 8
-2 10 2 126.756 54.2767 9
-2 10 1 128.22 61.4649 2
-2 10 1 -4.73062 21.8427 9
-2 10 0 -14.6807 25.2017 2
-2 10 0 117.832 64.777 5
2 -10 0 28.4203 51.6027 10
-2 10 0 23.6066 37.6387 9
-2 10 -1 69.6106 48.5234 9
-2 10 -1 33.3698 35.4021 5
2 -10 1 -15.2233 43.4263 10
-2 10 -1 55.1376 43.6561 2
-2 10 -2 50.7024 56.6857 2
2 -10 2 40.3741 46.3129 10
-2 10 -2 75.9331 54.7623 9
-2 10 -2 80.4213 65.4383 5
-2 10 -3 0.22749 37.3318 2
2 -9 -6 36.8522 40.9127 3
2 -9 -5 26.6365 44.8799 10
-2 9 5 131.587 77.558 8
-2 9 4 37.9235 29.841 8
2 -9 -4 4.44326 30.6717 10
2 -9 -3 -26.9223 38.8206 10
-2 9 3 29.9077 27.891 9
-2 9 3 29.7182 32.3323 2
-2 9 3 36.3412 48.1048 8
-2 9 3 30.6899 31.4461 5
2 -9 -2 36.2723 27.3925 10
-2 9 2 36.4632 31.9122 9
-2 9 2 6.99935 36.326 5
-2 9 2 -9.34354 30.812 2
-2 9 2 -48.0126 41.8923 8
-2 9 1 -9.33842 25.5768 9
2 -9 -1 -64.3437 53.0815 10
-2 9 1 -95.6798 53.4422 5
-2 9 1 1.39593 32.9074 2
-2 9 1 -30.7655 29.0533 8
-2 9 0 96.5504 50.5953 9
-2 9 0 161.357 63.0191 2
2 -9 0 169.433 73.8472 10
-2 9 0 174.605 67.5844 5
-2 9 -1 -21.1348 35.7041 2
-2 9 -1 23.6251 29.0576 5
2 -9 1 51.171 44.2798 10
2 -9 1 100.381 41.671 6
-2 9 -1 138.002 62.7439 9
2 -9 2 143.444 72.7369 10
2 -9 2 137 51.8743 6
-2 9 -2 55.5919 43.488 5
-2 9 -2 171.602 68.3665 9
-2 9 -2 122.58 66.0068 2
-2 9 -3 189.383 87.0366 2
2 -9 3 224.62 67.0593 6
-2 9 -3 111.402 58.018 9
2 -9 3 318.448 103.891 10
-2 9 -3 125.98 60.7716 5
-2 9 -4 5.90296 41.7556 2
2 -9 4 5.67934 30.3878 6
-2 9 -4 -71.2454 51.6293 9
-2 9 -4 53.5274 61.1806 5
2 -9 5 -4.14867 34.3711 6
-2 9 -5 -49.9135 48.8764 2
-2 9 -5 -43.6722 46.0129 5
-2 9 -5 -115.006 64.6648 9
2 -8 -8 11.7165 32.9606 10
2 -8 -8 -14.5466 40.7853 3
2 -8 -7 48.7611 36.123 10
2 -8 -7 18.7889 33.3643 3
-2 8 7 68.9474 52.8198 8
2 -8 -6 251.925 83.7188 3
2 -8 -6 233.955 97.5704 10
-2 8 6 243.077 94.8856 8
-2 8 5 118.399 56.1963 5
2 -8 -5 102.375 66.9935 10
2 -8 -5 18.8278 25.1094 3
-2 8 5 53.7191 54.9063 8
-2 8 4 -13.3302 36.9171 5
2 -8 -4 60.253 52.2892 10
-2 8 4 38.4448 26.8415 9
-2 8 4 17.9333 42.4267 8
-2 8 3 20.5395 24.8908 5
-2 8 3 -21.1111 22.8507 9
-2 8 3 -16.0512 41.4753 8
-2 8 2 -8.64768 20.2257 9
2 -8 -2 78.1534 54.2435 10
-2 8 2 -1.82284 29.9573 8
-2 8 2 34.651 29.0123 5
-2 8 1 -12.7544 33.1756 8
-2 8 1 3.00906 23.5371 2
2 -8 -1 26.6663 38.382 10
-2 8 1 -46.6381 34.6546 9
-2 8 0 27.9601 32.4544 2
2 -8 0 83.3959 52.6411 10
-2 8 0 59.2528 27.3232 8
-2 8 0 139.543 60.1757 9
-2 8 0 60.0312 38.3267 5
-2 8 -1 20.8223 43.7828 9
-2 8 -1 -11.587 31.2421 5
2 -8 1 -55.4106 44.7551 10
2 -8 1 -20.1323 25.9615 6
-2 8 -1 44.2312 28.0587 8
-2 8 -1 -7.1054 28.1879 2
-2 8 -2 89.1598 61.3303 2
2 -8 2 -1.47422 32.5049 6
2 -8 2 18.5846 36.971 10
-2 8 -2 7.61485 39.2428 5
-2 8 -2 23.901 35.7404 9
2 -8 3 7.6786 31.4499 10
-2 8 -3 28.4437 29.2697 9
-2 8 -3 77.6459 50.128 2
2 -8 3 50.2313 33.7409 6
-2 8 -3 71.5831 54.5569 5
-2 8 -4 16.8591 32.7408 2
2 -8 4 15.879 31.5002 6
-2 8 -4 -39.1289 49.3052 5
-2 8 -4 4.25545 30.4711 9
-2 8 -5 -83.3174 57.0702 2
2 -8 5 11.2082 39.4529 6
-2 8 -5 -14.3501 38.207 9
-2 8 -6 31.658 45.2739 2
2 -8 6 97.5081 53.3993 6
-2 8 -7 9.79503 38.9149 2
2 -8 7 16.1059 42.7859 6
2 -8 8 0.19339 26.9181 6
2 -7 -9 55.9365 69.3764 10
-2 7 8 -1.43748 29.0953 8
2 -7 -8 -35.9623 44.9946 3
-2 7 7 15.529 45.4979 8
2 -7 -7 -0.75776 47.7461 3
2 -7 -7 -5.62691 25.8791 10
2 -7 -6 338.524 93.7261 3
2 -7 -6 343.511 101.226 10
-2 7 6 368.569 104.585 8
-2 7 5 389.915 68.9057 9
-2 7 5 361.516 97.838 8
2 -7 -5 372.246 100.483 10
2 -7 -5 509.183 103.883 3
2 -7 -4 131.976 58.3381 10
2 -7 -4 222.833 63.6659 3
-2 7 4 213.506 54.1071 9
-2 7 4 201.617 73.0734 8
-2 7 4 245.168 69.9267 5
2 -7 -3 48.1591 38.9956 3
-2 7 3 9.38607 26.8948 9
-2 7 3 16.3772 32.9608 5
2 -7 -3 -66.7029 46.5907 10
-2 7 3 -24.2462 44.2226 8
2 -7 -2 30.315 35.8941 10
-2 7 2 5.00667 33.5531 5
-2 7 2 -6.45059 23.0002 8
-2 7 2 33.5823 24.0028 9
-2 7 1 792.247 116.909 9
-2 7 1 823.612 117.52 8
-2 7 1 639.04 40.5161 1
2 -7 -1 695.363 129.048 10
-2 7 1 855.215 131.844 5
-2 7 0 1013.15 82.3563 1
-2 7 0 1132.07 145.806 5
2 -7 0 1160.42 168.391 10
-2 7 0 1037.13 131.274 9
-2 7 0 1154.31 128.123 8
-2 7 0 992.076 133.685 2
-2 7 -1 26.243 34.0176 5
-2 7 -1 23.0343 20.4188 8
2 -7 1 -24.5099 32.716 6
-2 7 -1 7.96535 10.5596 1
-2 7 -1 2.93304 27.4626 2
-2 7 -1 56.0747 27.9822 9
2 -7 1 -15.7875 39.1306 10
-2 7 -2 1800.59 125.694 8
-2 7 -2 1640.07 181.755 2
2 -7 2 1687.66 151.073 6
-2 7 -2 1817.14 195.201 5
2 -7 2 1571.63 190.079 10
-2 7 -2 1769.02 187.134 9
-2 7 -3 5012.08 323.852 5
-2 7 -3 4353.93 304.083 9
-2 7 -3 4443.26 307.558 2
2 -7 3 4199.68 316.502 10
2 -7 3 4616.98 266.117 6
2 -7 4 106.158 49.0691 10
-2 7 -4 95.4582 41.7382 9
2 -7 4 227.48 68.9372 6
-2 7 -4 153.873 50.492 2
-2 7 -5 312.973 93.2302 2
2 -7 5 260.045 69.7842 6
-2 7 -5 146.413 49.6627 9
2 -7 6 32.6654 30.78 6
-2 7 -6 51.544 52.8167 2
-2 7 -6 -36.7664 57.0033 9
2 -7 7 70.2078 57.0624 6
-2 7 -7 76.5384 54.1186 2
-2 7 -7 119.009 59.9237 9
-2 7 -8 90.5474 65.9403 2
2 -7 8 70.9889 52.3756 6
-2 7 -8 123.923 68.5789 9
2 -7 9 26.4936 24.3919 6
2 -6 -9 81.0646 63.6298 3
2 -6 -9 95.1704 50.1864 10
2 -6 -9 68.7286 49.0695 4
2 -6 -8 221.034 91.1335 3
2 -6 -8 86.607 45.3733 10
2 -6 -8 135.355 59.7975 4
-2 6 8 71.9232 57.4266 8
-2 6 7 -7.42759 37.427 8
2 -6 -7 3.80785 39.1639 10
2 -6 -7 12.5707 30.1819 3
2 -6 -7 12.7416 32.164 4
2 -6 -6 5.85713 31.0812 3
2 -6 -6 46.4169 34.4992 4
2 -6 -6 52.4388 34.2844 10
-2 6 6 27.5396 34.9893 8
2 -6 -5 -13.0245 29.3922 3
2 -6 -5 -9.55318 27.6157 4
2 -6 -5 7.86911 34.3219 10
-2 6 5 -4.10235 14.4709 9
-2 6 5 -17.3055 47.7236 8
2 -6 -4 639.103 111.23 4
2 -6 -4 610.419 102.027 3
-2 6 4 698.349 114.784 5
-2 6 4 609.065 112.672 8
2 -6 -4 492.968 106.06 10
-2 6 4 682.255 87.7624 9
-2 6 3 743.771 118.157 8
2 -6 -3 627.656 102.687 4
-2 6 3 838.185 99.7057 9
-2 6 3 545.671 82.8464 6
2 -6 -3 734.995 118.616 10
-2 6 3 702.821 108.676 5
2 -6 -3 671.613 103.692 3
2 -6 -2 3007.01 238.673 10
-2 6 2 2750.36 212.867 8
-2 6 2 2406.91 168.373 6
-2 6 2 2642.11 183.222 9
-2 6 2 2573.49 210.291 5
-2 6 1 283.398 66.5289 9
-2 6 1 369.064 69.5981 3
-2 6 1 303.712 32.2113 1
2 -6 -1 293.465 75.1543 10
-2 6 1 279.408 57.079 6
-2 6 1 334.693 74.4263 5
-2 6 1 415.383 80.6558 8
-2 6 0 177.894 56.6147 5
2 -6 0 81.7055 32.7766 8
2 -6 0 146.976 38.7376 6
-2 6 0 116.785 36.136 6
2 -6 0 92.8998 45.8551 10
-2 6 0 126.818 29.9202 1
-2 6 0 160.252 54.8596 9
-2 6 0 64.7574 22.7372 3
-2 6 0 101.097 39.6017 8
-2 6 -1 809.269 106.566 3
-2 6 -1 895.524 118.751 9
-2 6 -1 924.31 124.694 5
-2 6 -1 767.913 104.173 2
-2 6 -1 712.653 90.078 6
-2 6 -1 815.596 86.188 1
2 -6 1 618.46 81.8243 8
-2 6 -1 951.645 99.4385 8
2 -6 1 948.473 100.275 6
2 -6 1 915.9 132.319 10
-2 6 -2 854.892 114.682 2
-2 6 -2 1174.9 117.412 6
-2 6 -2 1005.67 108.121 1
-2 6 -2 1279.63 149.704 5
-2 6 -2 1118.26 138.359 9
-2 6 -2 1001 121.06 3
2 -6 2 1048.74 111.591 6
-2 6 -2 1081.75 90.8806 8
2 -6 2 991.526 138.888 10
-2 6 -3 15888 541.991 2
2 -6 3 15777.3 453.148 6
-2 6 -3 14852.6 517.935 9
2 -6 3 15473 532.571 10
-2 6 -3 14553.1 229.567 8
2 -6 4 2602.17 220.582 10
-2 6 -4 2893.7 241.105 2
-2 6 -4 2844.4 235.309 9
2 -6 4 2690.92 196.024 6
-2 6 -5 -87.5691 72.9415 2
2 -6 5 20.2489 22.9056 6
2 -6 6 30.7583 29.1086 6
-2 6 -6 28.2033 40.7375 2
-2 6 -7 76.2679 51.9067 2
2 -6 7 61.1651 52.3708 6
-2 6 -8 -4.89663 41.7383 2
2 -6 8 15.3671 31.4047 6
2 -6 9 -39.5698 53.1606 6
-2 6 -9 9.02325 44.3719 2
-2 6 -9 23.5539 38.2525 9
2 -6 10 7.835 41.408 6
2 -5 -10 -127.002 66.9621 3
2 -5 -9 218.834 85.8085 3
2 -5 -9 279.935 78.4521 4
2 -5 -9 379.707 95.8273 10
-2 5 9 365.57 109.437 8
2 -5 -8 17.8693 33.5249 3
2 -5 -8 -21.9412 42.3114 10
2 -5 -8 -33.8671 35.51 4
-2 5 8 -28.0207 39.8733 8
2 -5 -7 518.471 107.861 3
2 -5 -7 499.011 98.2548 4
2 -5 -7 362.32 94.1443 10
-2 5 7 436.498 106.472 8
2 -5 -6 459.054 95.7854 3
2 -5 -6 434.918 92.5555 10
-2 5 6 328.718 87.5642 8
2 -5 -6 315.348 79.0202 4
2 -5 -5 296.982 75.3202 3
-2 5 5 196.592 49.4097 7
-2 5 5 217.099 49.891 9
2 -5 -5 232.449 66.6771 10
2 -5 -5 155.61 56.9148 4
-2 5 5 198.638 66.2262 8
2 -5 -4 863.6 115.465 3
-2 5 4 737.473 99.2759 7
2 -5 -4 862.616 117.662 4
2 -5 -4 709.819 109.354 10
-2 5 4 761.491 98.7962 6
-2 5 4 803.179 87.3299 9
-2 5 4 1023.61 126.835 5
-2 5 4 673.539 110.099 8
-2 5 3 60.6933 26.631 6
-2 5 3 99.9498 32.5558 9
2 -5 -3 43.8146 22.2905 3
-2 5 3 111.142 37.8551 5
-2 5 3 46.2419 23.8257 7
2 -5 -3 21.4574 41.0071 4
2 -5 -3 90.3604 43.9747 10
-2 5 3 85.976 47.5803 8
-2 5 2 638.104 97.4003 7
2 -5 -2 714.411 104.923 4
-2 5 2 475.737 69.448 6
-2 5 2 746.328 94.2561 3
-2 5 2 741.075 102.292 5
-2 5 2 623.363 96.1721 8
2 -5 -2 662.827 109.208 10
-2 5 2 621.601 82.5225 9
2 -5 -2 687.901 91.6489 3
-2 5 1 653.753 98.984 7
-2 5 1 653.148 85.805 3
-2 5 1 620.537 87.0002 9
2 -5 -1 606.546 91.7606 8
-2 5 1 640.744 48.2143 1
-2 5 1 436.972 62.4027 6
2 -5 -1 623.269 99.6746 10
2 -5 -1 605.009 95.0065 4
-2 5 1 617.753 90.357 8
-2 5 1 587.511 93.3437 5
-2 5 0 2241.34 116.649 1
-2 5 0 1811.88 126.057 6
2 -5 0 2328.11 191.409 10
-2 5 0 2377.33 181.57 5
-2 5 0 2494.28 175.47 9
-2 5 0 2488.48 163.495 8
-2 5 0 2558.29 166.628 3
2 -5 0 2516.11 142.629 6
2 -5 0 2451.9 165.815 8
2 -5 1 163.088 39.1567 8
-2 5 -1 70.6342 26.0082 6
-2 5 -1 109.017 39.3876 3
2 -5 1 92.6832 25.2958 6
-2 5 -1 92.9552 31.8716 8
-2 5 -1 69.475 28.4639 5
2 -5 1 51.7843 23.6081 10
-2 5 -1 117.155 43.1193 9
-2 5 -1 71.7855 26.4386 1
-2 5 -2 661.041 97.5575 2
2 -5 2 861.92 91.9674 6
-2 5 -2 781.593 70.9225 8
-2 5 -2 562.826 77.282 1
2 -5 2 796.093 109.792 10
-2 5 -2 726.973 102.987 9
-2 5 -2 778.135 106.105 5
-2 5 -2 699.364 91.7917 3
2 -5 2 785.487 73.5888 8
-2 5 -3 681.179 103.101 9
2 -5 3 715.577 88.4476 6
-2 5 -3 667.66 92.1584 1
-2 5 -3 641.417 102.54 2
2 -5 3 722.731 107.163 10
-2 5 -3 619.166 42.8544 8
-2 5 -4 17.299 35.4623 2
2 -5 4 -67.6441 47.5085 6
-2 5 -4 19.948 28.6785 9
2 -5 4 -0.65271 31.1242 10
-2 5 -5 -36.3505 51.0434 2
2 -5 5 17.112 26.7286 10
2 -5 6 378.916 80.1885 6
-2 5 -6 239.104 62.2868 2
-2 5 -7 2234.64 230.469 2
2 -5 7 2191.12 200.275 6
2 -5 8 1757.01 189.145 6
-2 5 -8 2026.09 229.272 2
-2 5 -9 13.9651 32.5581 2
2 -5 9 26.9715 36.3433 6
2 -5 10 149.603 71.7857 6
-2 5 -10 7.87161 43.9813 9
-2 5 -10 -10.9777 52.2737 2
-2 5 -11 87.1765 59.6481 9
2 -4 -10 -31.8216 40.7958 3
-2 4 10 92.5934 75.9059 8
2 -4 -9 183.575 62.4539 4
2 -4 -9 287.943 78.488 10
-2 4 9 266.851 94.0905 8
2 -4 -9 295.335 91.436 3
2 -4 -8 145.974 62.8966 3
-2 4 8 144.138 64.8486 8
2 -4 -8 159.267 55.514 4
2 -4 -8 224.804 65.4119 10
2 -4 -7 342.428 81.1211 3
2 -4 -7 318.386 79.1115 10
2 -4 -7 174.103 55.7378 4
-2 4 7 376.986 94.4926 8
2 -4 -6 71.9218 30.5731 10
2 -4 -6 143.447 23.3681 1
2 -4 -6 208.894 57.0702 3
-2 4 6 107.326 48.3616 8
2 -4 -6 178.468 53.3308 4
-2 4 6 161.527 36.5713 7
2 -4 -6 168.682 38.3338 9
2 -4 -6 159.074 24.458 1
2 -4 -5 6.81429 39.9477 10
2 -4 -5 187.532 63.3657 3
2 -4 -5 162.317 60.8069 4
2 -4 -5 49.3699 25.8875 9
-2 4 5 43.8759 22.0915 7
-2 4 5 -10.7698 32.2214 9
-2 4 5 209.787 77.4664 8
-2 4 4 2995.12 158.46 9
2 -4 -4 3046.92 201.665 4
2 -4 -4 3059.35 194.39 3
-2 4 4 2822.35 169.47 7
-2 4 4 2950.31 221.273 8
-2 4 4 2746.32 175.018 2
2 -4 -4 2546.4 149.459 9
2 -4 -4 2922.77 210.601 10
2 -4 -3 584.559 81.2737 3
-2 4 3 542.932 81.9426 5
2 -4 -3 667.092 96.8718 10
-2 4 3 648.607 96.788 8
-2 4 3 580.386 69.0239 9
2 -4 -3 467.553 63.955 9
2 -4 -3 621.013 92.4257 4
-2 4 3 572.455 72.6002 6
-2 4 3 555.038 76.2 7
2 -4 -2 1112.69 104.348 3
-2 4 2 1354.99 118.914 3
-2 4 2 1256.97 121.915 7
-2 4 2 1164.15 102.35 9
-2 4 2 1336.47 103.153 6
-2 4 2 1111.14 119.587 8
2 -4 -2 1031.64 115.185 10
2 -4 -2 1097.93 117.695 8
2 -4 -2 1082.29 116.531 4
2 -4 -1 4051.94 185.808 3
2 -4 -1 3887.06 219.271 4
-2 4 1 4127.84 188.711 3
-2 4 1 3834.61 203.764 8
2 -4 -1 4038.1 212.776 8
-2 4 1 3939.05 165.779 6
-2 4 1 3954.82 193.01 9
-2 4 0 26337.2 474.169 3
2 -4 0 24730.4 391.039 6
-2 4 0 26320.8 416.045 6
-2 4 0 24907.2 369.34 1
-2 4 0 26291.6 513.624 9
2 -4 0 25802.5 553.844 4
-2 4 0 26017.7 489.811 8
2 -4 0 24948.6 489.216 8
-2 4 0 26186.3 530.04 5
-2 4 -1 3507.61 153.243 6
-2 4 -1 3811.66 214.097 4
-2 4 -1 3387.72 173.079 3
2 -4 1 3234.92 155.579 8
2 -4 1 3201.99 144.706 6
-2 4 -1 3540.82 160.008 8
-2 4 -1 3511.29 197.649 9
-2 4 -1 3566.3 163.34 1
2 -4 1 3381.13 203.379 10
-2 4 -1 3455.26 195.502 5
2 -4 2 119.928 26.4981 8
-2 4 -2 92.5089 30.5276 1
-2 4 -2 99.3474 38.9264 2
2 -4 2 127.475 33.0517 6
-2 4 -2 162.806 44.9287 9
-2 4 -2 105.785 39.9863 4
-2 4 -2 140.495 26.8062 8
2 -4 2 175.966 49.7711 10
2 -4 3 41.5397 11.5682 8
-2 4 -3 55.1543 26.5405 1
-2 4 -3 65.9567 37.3017 2
2 -4 3 61.966 28.6667 6
-2 4 -3 36.5039 22.5767 4
2 -4 3 50.0294 28.0512 10
-2 4 -3 50.2252 26.788 9
-2 4 -4 58.2461 30.6314 2
2 -4 4 58.8503 23.1009 6
2 -4 4 79.3444 32.7525 10
-2 4 -4 81.906 30.0679 4
-2 4 -5 631.561 104.601 2
2 -4 5 590.68 85.7753 10
-2 4 -5 662.363 92.142 4
2 -4 5 801.065 99.7888 6
2 -4 6 1604.99 149.272 6
-2 4 -6 1281.69 130.398 4
-2 4 -6 1359.22 159.881 2
2 -4 7 660.916 106.647 6
-2 4 -7 634.611 124.171 2
2 -4 8 1953.66 190.894 6
-2 4 -8 2097.44 222.489 2
-2 4 -9 -14.8353 46.3563 2
2 -4 9 22.3162 25.7603 6
2 -4 10 1.91705 47.482 6
-2 4 -10 -32.3822 46.1315 2
2 -4 11 27.8528 30.2702 6
-2 4 -11 110.482 53.5473 9
-2 3 11 94.0666 63.1738 8
2 -3 -10 6.76977 33.435 3
2 -3 -10 19.0847 25.951 4
-2 3 10 83.7946 62.6339 8
2 -3 -9 50.1235 29.6866 4
2 -3 -9 17.4871 31.0438 3
2 -3 -9 -26.6892 23.2747 10
-2 3 9 28.9826 41.7028 8
-2 3 8 204.03 79.5558 8
2 -3 -8 189.957 63.54 3
2 -3 -8 107.315 42.1331 4
2 -3 -8 179.523 55.6085 10
2 -3 -7 25.1558 16.8485 9
2 -3 -7 -0.21624 29.8336 10
2 -3 -7 -2.67789 26.9313 3
2 -3 -7 23.2049 20.9121 1
2 -3 -7 36.2497 21.6705 4
-2 3 7 20.1268 35.0382 8
-2 3 6 1989.59 190 8
2 -3 -6 1931.67 167.959 3
2 -3 -6 1647.86 113.744 9
2 -3 -6 1680 156.592 10
2 -3 -6 1663.19 105.981 1
2 -3 -6 2053.47 165.457 4
-2 3 5 5134.85 181.163 7
2 -3 -5 4762.93 246.369 10
-2 3 5 5204.2 250.472 2
-2 3 5 5238.5 296.709 8
2 -3 -5 4659.14 190.265 9
2 -3 -5 5461.58 260.54 4
2 -3 -5 4767.51 157.81 1
2 -3 -5 5009.87 253.714 3
2 -3 -4 8094.32 297.395 3
-2 3 4 8384.05 247.531 7
2 -3 -4 7563.11 239.387 9
-2 3 4 7897.47 246.267 9
-2 3 4 7675.19 330.21 8
2 -3 -4 8584.25 319.717 4
2 -3 -4 7326.29 163.6 1
-2 3 3 207.226 42.9114 7
2 -3 -3 214.064 47.7218 3
-2 3 3 233.54 47.9824 2
2 -3 -3 188.352 22.3547 1
2 -3 -3 207.45 55.4334 4
2 -3 -3 208.252 48.8518 5
2 -3 -3 188.932 38.349 9
-2 3 3 187.067 38.533 9
-2 3 3 194.465 50.9808 8
-2 3 2 37.2681 15.5241 6
-2 3 2 48.7733 27.0289 7
2 -3 -2 23.8265 16.4295 8
2 -3 -2 32.9423 20.7972 3
2 -3 -2 15.1248 12.5862 5
2 -3 -2 33.7423 9.53574 1
-2 3 2 63.7528 25.9797 9
2 -3 -2 57.0382 21.8376 9
2 -3 -2 25.3096 22.2046 4
-2 3 2 13.9101 20.4735 8
2 -3 -1 8541.75 238.596 3
-2 3 1 8537.05 234.502 3
-2 3 1 8895.3 288.725 8
2 -3 -1 8320.48 262.93 9
-2 3 1 8784.46 259.522 9
-2 3 1 8857.79 211.953 6
2 -3 -1 8722.04 285.146 8
2 -3 -1 9104.74 295.804 4
-2 3 1 8277.14 173.852 1
2 -3 -1 8795.58 293.532 5
2 -3 -1 8480.39 169.298 1
-2 3 0 18997.9 341.069 3
-2 3 0 18771.9 376.97 8
-2 3 0 18372.3 289.843 6
2 -3 0 19202.2 283.874 6
2 -3 0 19009.3 426.036 4
2 -3 0 18677 385.3 8
-2 3 0 19005.2 397.191 9
-2 3 -1 7922.79 224.497 3
-2 3 -1 7594.22 215.924 8
-2 3 -1 7543.83 187.859 6
-2 3 -1 7582.93 224.572 1
2 -3 1 7485.45 189.572 6
2 -3 1 7428.49 265.627 4
-2 3 -1 7588.96 256.081 5
2 -3 1 7393.39 216.043 8
2 -3 2 7474.72 210.368 6
-2 3 -2 7938.05 258.657 1
2 -3 2 7432.31 186.23 8
2 -3 2 7320.06 265.944 10
-2 3 -2 7797.99 184.177 8
-2 3 -3 208.683 50.1526 2
2 -3 3 159.956 36.5846 10
-2 3 -3 175.346 42.159 1
-2 3 -3 230.737 47.6145 4
2 -3 3 153.284 20.8746 8
2 -3 3 121.446 32.4867 6
-2 3 -4 13697.1 424.133 2
2 -3 4 12682.1 346.537 10
-2 3 -4 13653.8 409.199 1
-2 3 -4 13542.7 363.452 4
2 -3 4 13798.1 349.388 6
-2 3 -5 3205.95 178.541 4
-2 3 -5 3145.54 212.953 2
2 -3 5 3113.13 166.62 10
2 -3 5 3387.15 193.337 6
-2 3 -6 951.279 128.174 2
2 -3 6 998.629 113.654 6
-2 3 -6 594.178 78.2486 4
-2 3 -7 344.281 59.035 4
-2 3 -7 355.872 85.8487 2
2 -3 7 501.401 87.7659 6
2 -3 8 944.1 131.549 6
-2 3 -8 1112.72 152.969 2
-2 3 -9 369.705 97.0603 2
2 -3 9 394.243 86.8346 6
2 -3 10 99.4544 50.2274 6
-2 3 -10 -45.0211 49.7782 2
-2 3 -11 15.9468 43.0349 2
-2 3 -11 -28.6014 33.6608 9
2 -3 11 -13.656 37.4341 6
2 -2 -11 23.301 36.9788 3
-2 2 11 -58.519 46.9325 8
-2 2 10 -13.1655 40.855 8
2 -2 -10 -0.92723 20.792 4
2 -2 -10 41.7769 41.8464 3
2 -2 -9 89.5496 39.6775 10
-2 2 9 101.738 45.6518 8
2 -2 -9 44.0225 31.561 4
-2 2 8 1389 172.307 8
2 -2 -8 1330.51 135.941 4
2 -2 -7 339.326 54.9204 9
-2 2 7 318.073 83.6178 8
2 -2 -7 334.406 64.8529 4
-2 2 6 88.5093 44.5963 8
2 -2 -6 102.837 30.4177 9
2 -2 -6 36.596 20.8451 4
2 -2 -5 12.2077 15.9606 1
2 -2 -5 53.9265 21.3022 9
-2 2 5 42.8764 25.2444 2
-2 2 5 31.0918 30.9752 8
2 -2 -5 16.3154 18.9895 4
2 -2 -4 386.172 65.3115 5
-2 2 4 383.198 40.0976 7
2 -2 -4 384.746 52.1742 9
2 -2 -4 386.854 62.9624 3
-2 2 4 357.384 60.0362 2
2 -2 -4 388.622 63.4779 4
2 -2 -4 354.182 44.9372 1
-2 2 4 355.59 68.9254 8
-2 2 3 1783.68 142.736 8
-2 2 3 1880.9 128.359 2
-2 2 3 1906.49 98.4145 7
2 -2 -3 1926.23 122.288 3
-2 2 3 1993.53 113.597 9
2 -2 -3 1851.9 88.0709 1
2 -2 -3 1870.14 132.165 5
2 -2 -3 2130.35 137.319 4
2 -2 -3 1837.11 109.477 9
2 -2 -2 2178.48 118.887 9
-2 2 2 2284.23 122.183 9
2 -2 -2 2198.1 115.123 3
2 -2 -2 2270.88 89.4853 1
2 -2 -2 2149.44 134.079 5
-2 2 2 2142.89 143.933 8
2 -2 -2 2174.52 135.101 4
-2 2 1 447.978 53.1334 9
2 -2 -1 426.305 45.3438 3
-2 2 1 485.603 39.9718 6
2 -2 -1 465.269 59.9018 5
2 -2 -1 534.808 43.7486 1
-2 2 1 457.898 42.271 1
-2 2 1 458.885 61.4444 8
2 -2 -1 492.215 64.2299 8
2 -2 -1 457.278 60.5974 4
2 -2 -1 454.732 55.8029 9
-2 2 0 537.995 45.904 3
-2 2 0 595.469 53.714 1
2 -2 0 531.444 59.8367 8
-2 2 0 621.191 40.0096 6
2 -2 0 627.742 53.544 1
2 -2 0 743.205 73.4318 9
2 -2 0 543.397 61.3402 5
-2 2 0 589.657 61.5153 8
2 -2 0 562.947 65.6094 4
-2 2 -1 6619.09 163.341 3
-2 2 -1 6984.13 188.637 8
-2 2 -1 6446 203.929 5
2 -2 1 6583.2 141.695 6
2 -2 1 6586.58 191.633 1
-2 2 -1 6732.84 197.26 1
2 -2 1 6250.78 213.503 4
2 -2 1 6703.8 189.798 8
2 -2 2 136.912 24.4136 8
2 -2 2 147.824 36.3754 4
-2 2 -2 115.796 21.5398 8
2 -2 2 170.781 29.1487 6
-2 2 -2 129.186 29.9955 1
2 -2 2 160.598 33.6469 10
-2 2 -2 145.35 33.4487 4
-2 2 -3 95.8042 31.4614 1
2 -2 3 66.7369 22.6637 6
-2 2 -3 35.1391 19.3449 2
-2 2 -3 78.4939 22.781 4
2 -2 3 78.464 16.519 8
2 -2 4 20685.8 370.78 10
-2 2 -4 21392.2 498.118 2
2 -2 4 20812.6 247.301 8
-2 2 -4 20777.2 393.168 4
2 -2 5 11208 260.901 10
-2 2 -5 11562.7 384.451 2
-2 2 -5 11183.6 286.116 4
2 -2 5 10969.3 188.683 8
2 -2 6 347.949 37.1854 8
-2 2 -6 464.146 84.1277 2
-2 2 -6 401.064 54.6146 4
-2 2 -7 -24.9937 37.2824 2
-2 2 -7 21.4762 14.2424 4
2 -2 7 13.7933 12.0837 8
-2 2 -8 86.6613 26.0159 4
-2 2 -8 -11.9111 39.746 2
2 -2 8 32.8005 18.1659 8
-2 2 -9 124.237 59.465 2
-2 2 -10 1.81096 29.4202 2
-2 2 -11 -85.6428 46.182 9
-2 2 -11 -39.6688 37.7222 2
-2 2 -12 16.855 62.4857 2
2 -1 -12 335.369 106.648 2
-2 1 12 140.248 67.6506 8
2 -1 -11 14.4551 38.1364 2
-2 1 11 -58.2682 45.3161 8
2 -1 -10 12.1338 29.5131 2
-2 1 10 28.8122 39.9801 8
2 -1 -10 12.4083 26.1377 4
2 -1 -9 23.4408 37.8598 2
-2 1 9 34.3562 30.2352 8
-2 1 8 1373.48 166.022 8
2 -1 -8 1363 150.296 2
2 -1 -7 100.461 33.4086 2
2 -1 -7 57.2155 23.029 9
-2 1 7 50.3005 37.3711 8
2 -1 -6 1322.91 124.956 2
2 -1 -6 1121.06 97.547 9
-2 1 6 1152.01 134.404 8
-2 1 5 23.2794 22.3585 2
2 -1 -5 51.6176 27.2878 2
2 -1 -5 17.3979 14.672 9
-2 1 4 10939.4 329.532 2
2 -1 -4 11031.3 322.611 5
-2 1 4 10719 353.616 8
2 -1 -4 10383.4 266.159 9
-2 1 3 28560.2 252.953 7
-2 1 3 30361.7 498.577 2
2 -1 -3 29765.6 488.357 5
2 -1 -3 30371.8 428.223 9
-2 1 3 30956.4 546.397 8
2 -1 -3 29028.8 399.327 1
-2 1 2 342.16 53.9978 8
2 -1 -2 374.649 45.6713 9
-2 1 2 403.769 47.865 9
2 -1 -2 376.464 40.8255 1
-2 1 2 402.053 52.4611 2
-2 1 1 13352.8 266.925 9
2 -1 -1 13076.6 203.447 3
2 -1 -1 12841.1 266.759 9
-2 1 1 13315.7 235.176 1
2 -1 -1 12804.2 270.238 5
2 -1 -1 13489.4 230.633 1
-2 1 1 13163.9 302.23 8
2 -1 0 3506.6 81.9345 3
2 -1 0 3460.73 118.335 1
2 -1 0 3425.77 128.674 5
2 -1 0 3627.33 143.988 9
-2 1 0 3670.8 128.754 1
-2 1 0 3533.94 139.915 8
2 -1 0 3595.21 139.772 4
2 -1 1 12257.3 248.954 8
2 -1 1 12662.6 142.515 6
2 -1 1 12918.7 257.911 1
2 -1 1 12765.8 263.592 4
-2 1 -1 12119.8 254.313 1
-2 1 -1 12729.8 226.891 5
2 -1 1 12634.9 277.399 9
-2 1 -1 12844.3 244.326 8
2 -1 2 3619.6 149.531 1
2 -1 2 3757.22 127.206 8
-2 1 -2 3680.68 155.268 1
2 -1 2 3577.99 134.307 4
-2 1 -2 3649.44 132.193 4
2 -1 3 366.469 42.0309 10
2 -1 3 312.59 49.557 1
-2 1 -3 424.896 60.9134 2
-2 1 -3 368.795 41.9804 4
2 -1 3 332.833 36.4554 8
2 -1 4 817.328 59.2618 10
-2 1 -4 855.076 92.5185 2
-2 1 -4 810.351 83.4368 9
-2 1 -4 883.74 64.2063 4
-2 1 -5 4302.8 220.553 2
2 -1 5 4038.62 117.859 10
2 -1 5 3912.89 146.685 8
-2 1 -5 4328.05 141.389 4
-2 1 -6 2823.38 193.147 2
-2 1 -6 2561.16 106.015 4
2 -1 7 165.116 39.106 8
-2 1 -7 144.643 43.9049 2
-2 1 -7 129.885 22.8495 4
2 -1 8 2754.36 160.933 8
-2 1 -8 3006.66 223.361 2
-2 1 -9 2956.52 237.334 2
2 -1 9 3057.93 182.827 8
-2 1 -10 506.633 108.801 2
-2 1 -10 262.312 65.3411 9
-2 1 -11 -93.9011 44.4011 9
-2 1 -11 -3.36877 35.0292 2
-2 1 -12 -64.046 48.328 2
2 0 -12 83.1313 56.389 2
-2 0 12 29.5178 38.1184 8
2 0 -11 -4.98292 38.1433 2
-2 0 11 9.07194 29.1111 8
2 0 -10 60.3774 39.0701 2
-2 0 10 56.1555 43.5842 8
2 0 -9 18.7277 26.6643 2
-2 0 9 -6.57984 27.7952 8
2 0 -8 1976.41 181.245 2
-2 0 8 2041.17 191.492 8
2 0 -7 3199.87 211.75 2
-2 0 7 3189.48 224.409 8
2 0 -7 2856.93 172.813 9
2 0 -6 3275.34 176.9 9
2 0 -6 3583.24 212.358 2
-2 0 6 3498.48 217.659 8
2 0 -5 237.571 50.7584 2
2 0 -5 239.462 54.775 8
2 0 -5 217.375 43.7345 9
-2 0 5 212.772 50.3531 2
-2 0 5 214.869 51.1476 8
2 0 -4 4386.59 179.088 9
2 0 -4 4640.66 202.424 2
-2 0 4 4681.64 217.879 2
-2 0 4 4524.02 214.151 8
2 0 -4 4784.96 227.772 8
2 0 -3 13096.1 284.495 9
2 0 -3 13326 317.232 2
-2 0 3 13346.2 342.835 8
2 0 -2 511.382 52.6784 9
-2 0 2 502.816 60.5193 8
2 0 -2 498.195 51.2632 1
2 0 -1 10762 218.245 1
-2 0 1 10625.1 254.592 8
-2 0 1 10573.8 223.056 1
2 0 -1 10550.9 229.022 9
2 0 0 157590 733.303 5
2 0 0 161567 845.768 1
-2 0 0 157849 839.156 1
2 0 0 161511 851.991 9
-2 0 0 156498 892.306 8
2 0 1 386828 1346.83 1
2 0 1 378374 1342.12 9
2 0 1 390545 983.293 5
-2 0 -2 5731.36 108.149 5
2 0 2 6227.4 193.021 1
2 0 2 5783.69 174.66 9
2 0 2 5956.75 138.946 4
2 0 2 6056.04 167.314 8
-2 0 -3 23455.2 360.672 9
-2 0 -3 24060.6 399.7 2
2 0 3 24439.2 264.737 4
2 0 3 24727.1 421.507 1
-2 0 -4 4196.6 184.132 2
-2 0 -4 3771.46 157.617 9
2 0 4 3877.91 92.5513 10
-2 0 -5 1237.15 96.6015 9
2 0 5 1144.71 92.1277 8
-2 0 -5 1387.38 116.592 2
2 0 6 58.2041 24.4611 8
-2 0 -6 68.116 30.2891 2
-2 0 -6 61.4915 28.4849 9
2 0 7 23.9071 16.6482 8
-2 0 -7 35.856 25.124 9
-2 0 -8 967.225 121.227 2
-2 0 -8 815.099 96.9651 9
2 0 8 891.671 102.922 8
-2 0 -9 3318.53 236.671 2
-2 0 -9 3110.44 199.473 9
2 0 9 3233.63 207.049 8
-2 0 -10 303.994 66.2147 9
2 0 10 569.107 92.5181 8
-2 0 -10 478.667 98.2374 2
-2 0 -11 -58.3162 54.7648 2
-2 0 -12 78.0639 45.5805 7
-2 0 -12 13.3844 25.7057 2
-2 0 -13 57.501 54.1098 2
2 1 -12 5.61078 30.8625 2
2 1 -11 67.2074 50.0908 2
-2 -1 11 45.0295 46.1303 8
2 1 -10 -20.1155 33.1751 2
-2 -1 10 -7.46475 26.7456 8
2 1 -9 -14.3987 25.7929 2
-2 -1 9 -28.6667 33.0757 8
-2 -1 8 295.851 69.5552 8
2 1 -8 251.941 33.2036 7
2 1 -8 298.763 68.2413 2
2 1 -7 100.62 19.0141 7
-2 -1 7 111.88 44.8349 8
2 1 -7 120.463 44.5959 2
2 1 -6 1133.19 120.873 2
2 1 -6 1049.49 55.5136 7
-2 -1 6 980.88 111.066 8
2 1 -6 999.909 119.321 8
2 1 -5 416.227 31.5893 7
2 1 -5 334.057 63.2898 8
2 1 -5 485.922 75.4309 2
-2 -1 5 514.882 81.4642 2
-2 -1 5 572.505 79.2858 8
2 1 -4 5230.58 221.798 2
-2 -1 4 5346.87 221.902 8
2 1 -4 5389.42 232.002 8
2 1 -3 126.667 32.1393 2
-2 -1 3 114.779 29.6549 8
2 1 -3 98.643 29.8857 8
-2 -1 2 7604.24 223.228 8
2 1 -2 7710.94 218.168 2
2 1 -2 7629.13 218.628 1
-2 -1 2 7316.54 187.659 6
-2 -1 2 7397.4 115.687 7
2 1 -2 7458.74 109.124 7
-2 -1 1 39703.1 312.164 7
2 1 -1 39133 440.331 2
-2 -1 1 39247.8 371.631 6
2 1 -1 39706.3 456.818 1
-2 -1 1 39491.1 472.539 8
2 1 -1 39120.3 443.982 9
-2 -1 0 19544.5 258.464 7
-2 -1 0 19285.5 233.454 6
-2 -1 0 19259.7 304.586 8
2 1 0 19265.2 234.069 6
2 1 0 18397.2 283.74 9
2 1 0 18832.1 298.75 1
2 1 1 971332 1494.38 3
-2 -1 -1 973067 1539.55 3
2 1 1 958842 1924.11 9
2 1 1 993039 2182.1 1
2 1 2 355981 1175.46 9
-2 -1 -2 353740 1091.16 3
2 1 3 586.035 64.3791 1
-2 -1 -3 659.728 51.2 9
2 1 3 552.194 49.778 9
-2 -1 -3 614.134 57.8445 2
2 1 4 372.502 54.572 1
-2 -1 -4 328.324 47.7926 2
-2 -1 -4 394.527 43.044 9
-2 -1 -5 1254.33 81.9357 9
-2 -1 -5 1216.99 99.6186 2
2 1 5 1162.23 101.578 8
-2 -1 -6 712.368 83.4476 2
-2 -1 -6 635.79 90.1699 1
-2 -1 -6 581.378 61.8707 9
2 1 6 748.435 90.4877 8
2 1 7 592.287 85.4095 8
-2 -1 -7 661.054 89.9945 2
-2 -1 -7 540.203 63.7099 9
2 1 7 555.624 83.2117 2
2 1 8 359.924 74.4704 8
-2 -1 -8 435.856 79.5468 2
-2 -1 -8 385.48 58.0164 9
-2 -1 -9 183.287 45.1715 9
-2 -1 -9 335.1 82.8266 7
-2 -1 -9 250.25 63.9773 2
2 1 9 234.865 67.3895 8
2 1 10 577.91 100.842 8
-2 -1 -10 591.152 104.665 7
-2 -1 -10 449.189 68.5618 9
-2 -1 -10 545.012 99.0425 2
-2 -1 -11 15.0927 26.4253 7
-2 -1 -11 0.2784 26.8105 2
2 1 11 -1.90473 32.2471 8
-2 -1 -12 -138.064 57.8157 7
-2 -1 -12 43.4774 37.1889 2
-2 -2 11 80.2199 50.837 6
2 2 -11 122.225 63.7175 2
2 2 -10 69.0744 50.6593 2
-2 -2 10 126.021 54.379 8
-2 -2 9 471.925 91.1698 8
2 2 -9 475.885 102.252 2
-2 -2 8 266.539 64.1327 8
2 2 -8 227.475 65.6976 2
2 2 -7 9352.24 380.374 2
-2 -2 7 7813.3 325.799 8
2 2 -6 17337.4 482.607 2
-2 -2 6 16564.8 434.242 8
2 2 -5 -3.72842 6.865 7
2 2 -5 16.736 26.0869 2
-2 -2 5 -22.7062 27.4117 8
2 2 -5 2.73979 15.0716 8
2 2 -4 6972.53 178.444 7
-2 -2 4 6925.46 249.156 6
2 2 -4 7207.94 266.467 2
-2 -2 4 7419.98 249.823 8
2 2 -4 7227.11 261.864 8
2 2 -3 2099.6 92.0732 7
2 2 -3 2103.21 132.79 2
-2 -2 3 2116.48 124.944 6
-2 -2 3 2188.24 127.031 8
2 2 -3 2067.53 128.064 8
2 2 -2 15463.5 322.401 2
-2 -2 2 15971 310.742 6
2 2 -2 15880.2 248.85 7
-2 -2 2 16806.2 336.449 8
2 2 -2 16105 333.779 8
-2 -2 1 6168.37 158.423 7
2 2 -1 6417.64 159.932 7
-2 -2 1 6432.78 181.128 6
2 2 -1 6306.34 178.82 2
-2 -2 1 6497.73 186.621 8
2 2 -1 6407.9 197.754 1
-2 -2 0 10822.3 221.655 7
2 2 0 10968.6 224.823 7
-2 -2 0 10858.4 223.125 6
2 2 0 10724.8 200.236 2
2 2 0 10636.1 240.425 1
-2 -2 -1 8949.86 196.377 3
2 2 1 8889.49 198.905 3
-2 -2 -1 9017.3 215.486 7
2 2 1 9020.86 214.999 1
-2 -2 -1 8715.17 199.558 6
-2 -2 -1 8820.21 161.261 2
2 2 1 8780.31 182.499 9
-2 -2 -2 26278.8 356.456 3
2 2 2 25931.1 357.254 3
-2 -2 -2 26400.8 396.641 7
2 2 2 26242.2 373.209 1
-2 -2 -2 27209.2 296.433 9
2 2 2 25774.1 218.702 5
2 2 2 26555.3 290.225 9
-2 -2 -3 1156.82 83.3141 3
2 2 3 1161.78 85.8223 1
-2 -2 -3 1174.38 63.6254 2
-2 -2 -3 1173.6 90.3948 7
-2 -2 -3 1267.19 60.7244 9
2 2 3 1104.04 58.5687 9
-2 -2 -4 165.376 23.1256 9
-2 -2 -4 215.651 46.8079 7
-2 -2 -4 172.064 36.7802 3
-2 -2 -4 135.682 34.2248 1
-2 -2 -4 172.597 23.9236 5
2 2 4 149.667 23.7442 10
2 2 4 142.565 33.8653 1
-2 -2 -4 149.199 27.6197 2
-2 -2 -5 7475.71 269.108 7
-2 -2 -5 7221.31 179.994 5
2 2 5 7145.45 138.98 10
-2 -2 -5 7403.67 155.262 9
2 2 5 7661.3 261.904 1
2 2 5 7850.57 284.607 8
-2 -2 -5 7603.62 218.882 2
-2 -2 -6 7506.91 286.538 7
2 2 6 7040.09 295.673 8
2 2 6 7355.18 247.842 2
-2 -2 -6 7602.98 244.326 2
-2 -2 -6 7007.61 164.015 9
-2 -2 -6 7235.79 206.328 5
-2 -2 -7 1.29463 8.14246 9
-2 -2 -7 69.2047 40.3011 7
2 2 7 10.2177 18.866 2
-2 -2 -7 3.91979 9.0896 5
-2 -2 -7 21.3249 19.633 2
2 2 7 12.6061 21.8631 8
2 2 8 263.215 66.0848 8
-2 -2 -8 288.266 38.7439 9
-2 -2 -8 300.531 68.3681 7
2 2 8 302.782 64.6233 2
-2 -2 -8 286.312 60.1766 2
-2 -2 -8 307.919 51.887 5
-2 -2 -9 1345.96 135.763 2
2 2 9 1280.81 149.471 8
-2 -2 -9 1325.37 88.3763 9
-2 -2 -9 1455.9 156.744 7
-2 -2 -10 1269.01 151.542 7
-2 -2 -10 1461.14 151.049 2
2 2 10 1138.67 149.455 8
2 2 11 47.0681 32.7395 8
-2 -2 -11 133.703 57.2337 7
-2 -2 -11 196.781 73.9275 3
-2 -2 -11 140.14 49.856 2
-2 -2 -12 -49.0469 45.6999 3
2 2 12 -19.0804 31.8479 8
-2 -3 11 301.5 95.8262 6
2 3 -11 227.844 80.9863 2
2 3 -10 -20.4489 47.3459 2
-2 -3 10 -22.9766 41.4015 6
-2 -3 10 -33.406 38.5363 8
2 3 -9 96.2907 60.0563 2
-2 -3 9 36.6761 40.8646 6
-2 -3 9 14.7814 20.1001 8
-2 -3 8 117.032 55.269 6
2 3 -8 -13.2674 34.2833 2
-2 -3 8 86.3479 37.8805 8
-2 -3 7 2956.08 220.875 6
2 3 -7 3033.08 226.407 2
-2 -3 7 2898.91 185.842 8
2 3 -7 2802.82 193.024 8
-2 -3 6 866.807 114.844 6
2 3 -6 917.131 120.139 2
-2 -3 6 801.554 92.5725 8
2 3 -6 540.014 81.1059 8
2 3 -5 511.156 63.8867 7
2 3 -5 569.073 84.0352 2
-2 -3 5 503.855 78.8955 6
-2 -3 5 574.697 74.0465 8
2 3 -5 453.82 68.7273 8
2 3 -4 2610.03 138.041 7
-2 -3 4 2536.43 162.086 6
2 3 -4 2724.39 171.706 2
2 3 -4 2882.57 159.927 8
-2 -3 4 3033.21 157.025 8
2 3 -3 6968.25 216.176 7
-2 -3 3 6653.27 241.868 6
2 3 -3 6942.95 250.157 2
-2 -3 3 7286.49 221.701 8
2 3 -3 7327.7 238.819 8
2 3 -2 54118.4 617.495 8
2 3 -2 53385.3 577.586 7
2 3 -2 53914.2 625.701 2
2 3 -1 2343.72 129.664 1
2 3 -1 2258.08 119.221 7
-2 -3 1 2099.06 115.806 7
2 3 -1 2195.67 111.903 2
-2 -3 1 2350.42 123.92 2
2 3 -1 2300.78 120.237 8
-2 -3 1 2170.36 121.128 6
-2 -3 0 -18.9162 23.0234 6
-2 -3 0 9.84634 11.5254 7
2 3 0 7.8856 12.7433 7
-2 -3 0 10.8806 11.8368 2
2 3 0 18.7173 12.5671 1
2 3 0 28.1888 13.2215 2
2 3 1 21049.1 374.568 3
-2 -3 -1 20020.4 356.256 6
2 3 1 21097.6 230.651 2
-2 -3 -1 20786 379.671 7
-2 -3 -1 20879.7 249.908 2
2 3 1 20533.4 337.187 1
2 3 2 16149.3 334.907 3
-2 -3 -2 16092.4 336.314 3
2 3 2 15758 231.436 9
-2 -3 -2 16261.7 154.622 2
-2 -3 -2 16158.4 308.266 1
2 3 2 16453.2 310.652 1
-2 -3 -2 17108 351.606 7
2 3 3 5628.97 204.939 3
-2 -3 -3 5303.32 208.237 7
2 3 3 5483.05 182.344 1
-2 -3 -3 5353.07 201.522 3
-2 -3 -3 5090.36 88.924 2
2 3 3 5249.25 179.915 10
2 3 3 5977.54 121.792 9
-2 -3 -3 5345.84 191.482 1
2 3 3 5330.91 144.251 5
-2 -3 -4 9009.92 278.979 3
-2 -3 -4 8286.83 274.199 7
2 3 4 8065.55 181.998 4
2 3 4 8719.56 252.703 1
2 3 4 8209.62 219.185 10
-2 -3 -4 8333.16 151.104 2
-2 -3 -4 7801.6 197.878 5
-2 -3 -4 8089.56 247.934 1
-2 -3 -5 295.273 51.1208 1
2 3 5 323.364 63.9318 8
2 3 5 334.669 55.9239 1
-2 -3 -5 271.916 51.5526 7
-2 -3 -5 352.403 39.3344 2
-2 -3 -5 274.291 41.1516 5
2 3 5 301.253 40.0178 10
2 3 5 301.303 30.3138 4
-2 -3 -5 323.215 58.774 3
-2 -3 -6 7405.78 296.614 7
-2 -3 -6 7459.02 295.803 3
2 3 6 7160.87 313.053 8
-2 -3 -6 6742.6 204.862 2
-2 -3 -6 7167.29 273.879 1
-2 -3 -6 6793.58 216.075 5
2 3 7 33.7432 21.7396 8
-2 -3 -7 49.0304 19.0588 7
-2 -3 -7 33.5507 31.8217 3
2 3 7 51.0575 23.905 2
-2 -3 -7 50.8991 34.4878 1
-2 -3 -7 44.0466 18.535 5
-2 -3 -7 55.2799 24.2521 2
-2 -3 -8 120.994 42.3701 3
-2 -3 -8 83.4296 38.7476 7
2 3 8 138.239 39.2284 2
2 3 8 120.079 51.3387 8
-2 -3 -8 97.8815 30.3347 2
-2 -3 -8 67.9904 26.1068 5
2 3 9 181.82 62.0713 8
-2 -3 -9 132.813 48.4654 7
-2 -3 -9 202.022 48.1777 2
-2 -3 -9 160.285 57.9577 3
2 3 10 83.3611 47.9053 8
-2 -3 -10 140.149 47.3283 2
-2 -3 -10 73.8765 29.0297 7
-2 -3 -10 133.032 62.2139 3
2 3 11 140.847 61.6598 8
-2 -3 -11 80.8035 40.5531 7
-2 -3 -11 137.197 56.8395 3
2 3 12 12.6973 28.655 8
-2 -3 -12 -31.4172 39.9318 3
2 4 -10 65.4102 53.2844 2
-2 -4 10 -6.49292 38.7439 6
2 4 -9 106.2 61.2059 2
-2 -4 9 33.4345 37.2841 6
-2 -4 9 111.234 46.3288 8
-2 -4 8 179.898 65.438 6
2 4 -8 171.901 66.715 2
-2 -4 8 167.421 50.6212 8
2 4 -7 1770.44 146.501 7
-2 -4 7 2080.69 190.031 6
2 4 -7 1927.93 190.879 2
2 4 -7 1822.92 149.082 8
2 4 -6 4368.51 221.796 7
-2 -4 6 4226.95 254.436 6
2 4 -6 4616.46 267.89 2
-2 -4 6 4730.2 213.071 8
2 4 -6 4220.69 213.531 8
2 4 -5 12.1036 16.4638 7
-2 -4 5 -12.4722 22.8855 6
2 4 -5 1.55266 19.3138 2
-2 -4 5 -6.16816 17.6389 8
2 4 -5 -24.5062 21.9691 8
2 4 -4 2856.92 156.015 8
-2 -4 4 2506.85 171.45 6
2 4 -4 2980.62 174.997 7
2 4 -4 2892.71 184.257 2
-2 -4 4 3006.71 148.343 8
2 4 -3 10084.2 307.065 7
-2 -4 3 9532.68 314.081 6
2 4 -3 9779.65 313.461 2
2 4 -3 10021.1 279.316 8
2 4 -2 50337.5 669.294 7
-2 -4 2 46630.4 657.526 6
2 4 -2 48482.3 634.299 2
-2 -4 2 44644 668.15 2
-2 -4 1 36.8951 21.9407 7
2 4 -1 40.1391 21.1561 7
-2 -4 1 49.9437 25.0399 2
-2 -4 1 21.1115 15.6318 6
2 4 -1 47.1824 19.5819 2
2 4 -1 60.3026 27.9347 1
2 4 0 4034.61 141.3 2
-2 -4 0 4091.7 153.409 2
-2 -4 0 3831.74 176.651 6
-2 -4 0 3954.69 184.262 7
2 4 0 3873.51 167.737 1
-2 -4 -1 55.8799 16.3189 2
-2 -4 -1 55.2076 27.0707 7
-2 -4 -1 80.8945 24.3696 6
-2 -4 -1 59.3384 20.588 1
2 4 1 59.6268 14.5344 2
2 4 1 46.4926 13.6627 1
-2 -4 -2 5632.91 222.854 3
-2 -4 -2 5608.54 226.948 7
-2 -4 -2 5366.11 186.283 1
2 4 2 5416.58 217.834 10
2 4 2 5594.37 185.214 1
-2 -4 -3 3545.18 183.372 3
-2 -4 -3 3651.04 190.385 7
2 4 3 3496.29 145.86 1
2 4 3 3517.16 170.113 10
2 4 3 3392.65 100.176 9
2 4 3 3584.82 146.511 5
-2 -4 -3 3423.83 152.095 1
2 4 4 368.13 68.3555 8
-2 -4 -4 398.471 68.2475 7
2 4 4 340.495 47.569 4
-2 -4 -4 419.012 67.4782 3
2 4 4 245.617 53.3727 7
2 4 4 361.314 48.1773 5
2 4 4 355.614 50.7026 1
2 4 4 353.299 55.3754 10
-2 -4 -4 359.825 52.078 1
-2 -4 -5 5.74623 16.8374 1
2 4 5 -16.5988 33.1861 8
-2 -4 -5 3.52413 4.08437 2
2 4 5 16.7316 18.3847 1
-2 -4 -5 1.59239 20.4752 7
-2 -4 -5 -32.4021 37.3215 3
-2 -4 -5 -4.75747 20.2643 5
2 4 5 10.8027 16.5367 10
2 4 5 -1.20361 8.69038 4
-2 -4 -6 3008.66 175.925 1
-2 -4 -6 3439.66 211.36 7
-2 -4 -6 3296.17 211.36 3
-2 -4 -6 3073.13 109.5 2
2 4 6 3252.63 153.117 10
-2 -4 -6 3028.37 161.529 5
2 4 6 3221.2 223.327 8
-2 -4 -7 2195.94 182.069 3
-2 -4 -7 1928.75 152.658 1
-2 -4 -7 2049.52 107.643 2
-2 -4 -7 2149.54 175.116 7
2 4 7 2304.08 198.204 8
-2 -4 -7 1813.12 131.025 5
2 4 8 431.266 92.0681 8
-2 -4 -8 422.854 79.997 7
-2 -4 -8 423.266 85.7695 3
-2 -4 -8 482.045 61.7805 2
2 4 8 458.018 64.649 2
2 4 9 63.9203 42.0643 8
-2 -4 -9 80.7023 49.9934 7
-2 -4 -9 54.9731 45.3131 3
-2 -4 -9 106.162 33.803 2
2 4 10 114.164 49.6088 8
-2 -4 -10 86.598 42.2758 7
2 4 11 44.6345 38.745 8
-2 -4 -11 18.7507 26.4889 7
-2 -4 -11 18.7146 28.4241 3
2 4 12 -23.2266 36.6018 8
-2 -5 10 590.284 128.44 6
2 5 -10 425.1 111.785 2
-2 -5 9 215.052 74.9636 6
2 5 -9 202.675 74.9969 2
-2 -5 8 38.386 31.5044 6
2 5 -8 66.4943 43.9441 2
2 5 -7 30.6389 15.4105 8
2 5 -7 42.2101 27.0663 2
-2 -5 7 97.9854 43.6776 6
-2 -5 6 351.141 74.8167 6
2 5 -6 324.753 71.9749 2
2 5 -6 343.885 58.6618 8
2 5 -5 152.926 46.3203 7
-2 -5 5 176.928 50.6635 6
2 5 -5 140.582 50.5233 2
2 5 -5 112.133 30.635 8
2 5 -4 4382.85 192.356 8
-2 -5 4 5610.66 274.975 6
2 5 -4 5027.6 259.823 2
2 5 -4 3769.75 221.229 7
2 5 -3 53.358 27.2419 7
-2 -5 3 141.238 45.7107 2
-2 -5 3 86.7678 37.4361 6
2 5 -3 64.2292 28.39 2
2 5 -3 97.5898 29.4593 8
2 5 -2 4923.04 240.796 7
-2 -5 2 6011.59 258.293 6
-2 -5 2 4961.91 236.265 2
2 5 -2 5945.08 239.304 2
2 5 -2 6331.35 221.603 8
-2 -5 1 3307.05 173.346 2
2 5 -1 3243.39 198.785 10
-2 -5 1 3361.53 189.933 6
2 5 -1 3381.15 193.069 7
2 5 -1 3295.08 177.206 1
2 5 -1 3127.88 156.219 2
-2 -5 0 3709.38 198.382 7
-2 -5 0 3475.01 186.702 6
2 5 0 3283.05 141.907 2
2 5 0 3560.61 202.201 10
-2 -5 0 3456.27 155.514 2
2 5 0 3229.61 163.612 1
-2 -5 -1 12682.9 373.013 7
-2 -5 -1 12516.8 352.799 6
2 5 1 12509.8 228.182 2
-2 -5 -1 12448.2 244.453 2
2 5 1 12756.9 301.705 1
2 5 1 12711.8 377.864 10
-2 -5 -2 41530.5 550.612 1
2 5 2 41614.3 526.193 1
-2 -5 -2 42019 656.848 6
2 5 2 40915.7 279.609 2
-2 -5 -2 41598.5 676.894 3
2 5 2 43030.7 679.794 10
-2 -5 -3 8575.49 316.337 7
2 5 3 9477.66 280.612 5
2 5 3 9237.88 242.493 1
2 5 3 9910.62 327.586 10
-2 -5 -3 9369.48 332.762 3
-2 -5 -3 9338.79 257.875 1
2 5 4 1264.83 133.988 8
-2 -5 -4 1264.24 127.921 7
2 5 4 1316.06 130.282 7
-2 -5 -4 1284.76 97.9196 1
2 5 4 1266.15 95.0531 1
-2 -5 -4 1315.73 127.938 3
2 5 4 1314.64 117.336 10
2 5 4 1154.13 50.2836 9
2 5 4 1317.21 110.966 4
2 5 4 1270.96 102.956 5
2 5 5 601.917 80.869 10
2 5 5 551.975 92.7176 8
-2 -5 -5 543.182 87.8111 7
2 5 5 572.105 69.0672 1
-2 -5 -5 622.039 93.8686 3
2 5 5 609.086 74.8854 5
-2 -5 -5 630.893 73.3678 1
2 5 5 425.985 60.1393 4
-2 -5 -6 2951.65 213.056 3
-2 -5 -6 2871.04 207.718 7
-2 -5 -6 2158.06 146.459 1
2 5 6 2452.19 155.933 10
2 5 6 2764.28 218.362 8
-2 -5 -6 2443.79 160.263 5
2 5 6 2393.68 136.237 4
-2 -5 -7 2151.22 196.855 3
-2 -5 -7 2110.06 186.937 7
-2 -5 -7 2096.79 155.095 1
2 5 7 2211.34 207.46 8
-2 -5 -8 25.3646 28.6295 7
-2 -5 -8 10.2379 29.8897 3
2 5 8 -20.8605 52.0939 8
-2 -5 -9 440.142 96.1687 7
-2 -5 -9 351.879 87.1117 3
2 5 9 365.384 90.6383 8
2 5 10 28.0735 40.4115 8
-2 -5 -10 -27.3736 23.2712 7
-2 -5 -10 -5.29477 30.148 3
-2 -5 -11 -1.50371 21.3108 7
-2 -5 -11 27.5309 34.3098 3
2 5 12 79.6382 55.0156 8
-2 -6 9 -40.9461 39.8763 6
2 6 -9 31.3512 40.9714 2
-2 -6 8 362.543 91.9354 6
2 6 -8 387.423 100.018 2
2 6 -7 -23.1026 35.2991 2
-2 -6 7 34.8733 26.6142 6
-2 -6 6 5062.34 309.528 6
2 6 -6 5114.28 312.061 2
2 6 -6 4202.27 194.254 8
2 6 -5 7196.58 353.73 2
2 6 -5 7453.85 252.045 8
-2 -6 4 960.98 123.183 6
2 6 -4 1022.93 123.586 2
2 6 -4 876.246 86.4745 8
-2 -6 3 2267.36 178.946 6
2 6 -3 2087.36 164.873 2
2 6 -2 688.99 76.8327 8
-2 -6 2 662.152 94.5768 6
2 6 -2 688.953 86.6883 2
-2 -6 2 698.269 95.6623 2
2 6 -1 3.92099 15.5036 7
-2 -6 1 4.46098 16.5142 2
-2 -6 1 30.4826 16.2647 6
2 6 -1 13.4473 20.7097 1
2 6 -1 -21.9909 25.5449 2
2 6 0 1079.97 122.289 7
2 6 0 1037.93 101.652 1
-2 -6 0 914.873 105.461 6
2 6 0 931.451 83.94 2
-2 -6 0 1084.21 95.7418 2
-2 -6 -1 1141.87 124.239 7
2 6 1 1034.43 118.268 10
-2 -6 -1 1081.18 114.511 6
2 6 1 894.446 70.7479 2
2 6 1 955.306 89.6866 1
-2 -6 -2 584.751 88.7277 7
-2 -6 -2 744.861 97.9603 6
2 6 2 594.683 44.3717 2
2 6 2 693.926 97.0945 10
2 6 2 675.047 88.5354 5
2 6 2 598.311 67.4373 1
-2 -6 -3 1994.43 124.279 1
-2 -6 -3 1990.95 168.383 7
2 6 3 1435.33 133.626 4
2 6 3 2028.67 168.835 8
2 6 3 2115.59 168.358 10
2 6 3 2061.68 118.598 1
2 6 3 2097.52 153.036 5
-2 -6 -3 2040.63 166.147 3
-2 -6 -4 802.928 108.087 7
-2 -6 -4 845.474 112.659 3
2 6 4 845.073 117.881 8
2 6 4 865.446 79.2129 1
2 6 4 841.914 106.115 10
2 6 4 677.143 90.1114 4
2 6 4 963.583 102.564 5
-2 -6 -4 910.931 83.6437 1
2 6 5 -3.05162 26.2273 8
2 6 5 -9.80637 19.9558 1
-2 -6 -5 -9.89226 32.2542 7
-2 -6 -5 -14.7642 30.994 3
2 6 5 14.9596 19.1299 10
-2 -6 -5 5.23258 14.0876 1
2 6 5 -16.0951 17.8874 4
2 6 5 20.295 21.2048 5
2 6 6 177.829 65.1638 8
-2 -6 -6 66.6233 27.3999 7
-2 -6 -6 235.588 75.0685 3
-2 -6 -6 60.7455 18.2703 1
2 6 6 208.749 52.3354 5
2 6 6 174.97 49.6191 10
2 6 6 177.303 46.0205 4
2 6 7 102.988 53.3869 8
-2 -6 -7 54.9657 54.647 7
-2 -6 -7 102.075 65.419 3
-2 -6 -7 26.403 18.8543 1
2 6 8 202.87 75.6138 8
-2 -6 -8 138.903 67.1644 7
-2 -6 -8 182.953 72.7462 3
-2 -6 -9 363.647 92.4706 7
-2 -6 -9 330.494 98.8641 3
2 6 9 328.056 94.8077 8
2 6 10 30.6083 39.5315 8
-2 -6 -10 -11.4688 48.0698 7
-2 -6 -10 11.0011 35.8104 3
2 6 11 65.2273 42.8924 8
-2 -6 -11 52.9761 41.8065 7
-2 -7 9 331.795 112.296 6
2 7 -9 138.937 67.3711 2
-2 -7 8 26.0995 50.883 6
2 7 -8 -43.3562 49.5386 2
-2 -7 7 6.6407 37.0445 6
2 7 -7 100.027 48.4954 2
2 7 -6 147.24 55.001 2
-2 -7 6 221.084 69.477 6
-2 -7 5 1951.22 192.316 6
2 7 -5 1864.73 190.328 2
2 7 -5 1801.65 120.2 8
2 7 -4 504.454 92.2699 2
-2 -7 4 500.701 94.975 6
2 7 -4 501.944 66.528 8
-2 -7 3 208.632 58.1181 6
2 7 -3 215.887 44.7038 8
2 7 -3 174.294 48.7631 2
-2 -7 2 2336.82 197.655 6
2 7 -2 2158.07 167.245 2
-2 -7 2 2187.82 179.171 2
2 7 -2 1785.75 129.88 8
2 7 -1 9534.7 339.849 1
-2 -7 1 9666.81 382.237 6
2 7 -1 8881.7 311.716 2
-2 -7 1 9237.92 335.337 2
-2 -7 0 1472.68 144.982 6
2 7 0 1607.6 120.254 2
2 7 0 1633.1 134.08 1
-2 -7 -1 532.327 84.4164 6
2 7 1 421.906 53.3193 2
2 7 1 533.589 70.743 1
-2 -7 -2 1907.35 176.873 7
2 7 2 1902.48 125.325 1
-2 -7 -2 2077.05 170.542 6
2 7 2 1942.04 97.3305 2
2 7 2 2153.67 173.741 5
2 7 2 2123.82 178.283 8
-2 -7 -3 2984.01 214.713 3
-2 -7 -3 2717.83 212.264 7
2 7 3 2967.15 221.126 8
2 7 3 3306.69 211.605 5
2 7 3 2838.32 144.35 1
-2 -7 -4 1238.43 143.86 3
-2 -7 -4 1125.26 140.286 7
2 7 4 1171.69 143.417 8
2 7 4 1140.41 89.7679 1
2 7 4 1260.69 129.236 5
2 7 5 129.446 51.9371 8
-2 -7 -5 206.992 63.9228 7
2 7 5 190.244 38.3201 1
-2 -7 -5 263.1 69.1644 3
2 7 5 177.86 19.5056 9
2 7 5 211.626 56.0135 5
2 7 5 169.596 19.3124 9
-2 -7 -5 129.124 29.8236 1
2 7 6 393.142 93.9179 8
-2 -7 -6 442.112 96.3171 7
-2 -7 -6 414.96 87.6444 3
2 7 6 388.231 75.8736 5
-2 -7 -7 146.885 60.2128 3
2 7 7 249.217 78.2643 8
-2 -7 -7 269.891 85.289 7
2 7 8 2.49097 22.0991 8
-2 -7 -8 106.719 54.1803 3
-2 -7 -8 76.342 55.1704 7
2 7 9 108.553 60.3534 8
-2 -7 -9 44.3828 43.9462 7
2 7 10 -11.3597 45.1721 8
-2 -7 -10 78.8626 49.2513 7
-2 -7 -10 57.0767 53.1051 3
-2 -8 8 50.3467 40.1539 6
2 8 -8 -113.237 71.8036 2
-2 -8 7 -22.6355 46.6764 6
2 8 -7 -28.6428 47.0679 2
-2 -8 6 -15.9316 28.7737 6
2 8 -6 19.811 40.3611 2
-2 -8 5 224.632 74.8782 6
2 8 -5 281.357 75.4804 2
2 8 -4 -43.0014 37.4868 2
-2 -8 4 35.6736 28.6982 6
-2 -8 3 662.087 112.925 6
2 8 -3 554.945 76.2114 8
2 8 -3 532.935 96.0385 2
-2 -8 2 31.9523 32.4594 6
2 8 -2 35.1392 25.3205 2
2 8 -1 18533 497.028 2
-2 -8 1 19592.6 574.124 6
2 8 -1 18975.4 507.026 1
2 8 0 8247.85 296.796 2
2 8 0 8513.82 319.623 1
-2 -8 0 8079.19 363.292 6
2 8 0 8746.51 353.888 8
2 8 1 223.457 63.9371 8
2 8 1 219.478 49.5054 1
2 8 1 258.204 47.9471 2
2 8 2 965.401 78.5548 2
2 8 2 896.742 124.815 5
2 8 2 992.041 94.0258 1
2 8 2 873.37 124.594 8
-2 -8 -3 267.698 71.9726 7
2 8 3 279.988 72.8532 8
2 8 3 271.004 30.0625 2
2 8 3 261.813 46.67 1
2 8 3 352.308 78.074 5
2 8 4 14.1505 32.991 8
-2 -8 -4 2.0484 28.4995 3
-2 -8 -4 41.8394 48.187 7
2 8 4 66.4605 33.9741 5
2 8 4 10.4022 12.3373 1
2 8 5 462.262 102.47 8
-2 -8 -5 549.266 107.259 3
-2 -8 -5 453.742 101.477 7
2 8 5 486.809 54.9359 1
2 8 5 510.031 46.2555 9
2 8 5 542.897 96.1602 5
2 8 6 65.3831 41.3671 8
-2 -8 -6 163.094 66.7476 7
2 8 6 102.016 39.0943 5
-2 -8 -6 75.5905 35.471 3
2 8 7 -5.79269 27.4493 8
-2 -8 -7 81.4271 47.8687 3
-2 -8 -7 11.071 28.6605 7
2 8 8 404.062 110.524 8
-2 -8 -8 219.119 77.4704 7
-2 -8 -8 174.278 71.8771 3
-2 -8 -9 -19.1527 32.9289 7
-2 -8 -9 9.4215 29.9667 3
2 8 9 27.2098 35.7187 8
-2 -8 -10 -13.3576 29.6195 7
-2 -9 7 138.503 78.9399 6
2 9 -7 94.4462 66.4054 2
2 9 -6 33.1544 38.2901 2
-2 -9 6 -3.20269 52.9993 6
-2 -9 5 522.778 118.706 6
2 9 -5 407.383 102.056 2
2 9 -4 30.5396 40.938 2
-2 -9 4 22.7011 35.6674 6
2 9 -3 151.619 45.9065 8
-2 -9 3 145.787 62.9699 6
2 9 -3 78.9735 45.9047 2
2 9 -2 -3.15021 16.699 8
2 9 -2 -47.5295 50.5155 1
-2 -9 2 -8.21036 27.1325 6
2 9 -2 22.8451 31.6394 2
-2 -9 1 690.457 116.406 6
2 9 -1 569.538 91.4385 2
2 9 -1 781.013 107.416 1
2 9 -1 621.857 98.3748 8
-2 -9 0 255.617 75.4352 6
2 9 0 415.131 87.2649 8
2 9 0 348.811 67.194 2
2 9 0 348.514 70.0624 1
2 9 1 47.759 38.1495 8
2 9 1 5.96679 16.9137 2
2 9 1 8.30342 33.5023 5
-2 -9 -1 22.9677 26.3582 6
2 9 1 12.2356 17.7838 1
2 9 2 178.441 43.2305 1
2 9 2 127.761 33.4495 2
2 9 2 137.245 55.0936 5
2 9 2 126.849 59.1142 8
2 9 3 393.849 94.8044 8
2 9 3 517.995 101.084 5
2 9 3 336.537 39.1236 2
2 9 3 346.837 50.9176 1
2 9 4 162.796 65.5442 8
2 9 4 132.495 57.8765 5
2 9 4 141.482 40.2247 9
2 9 5 -63.7038 46.6449 8
-2 -9 -5 22.0286 34.8035 3
-2 -9 -5 -3.40615 34.5682 7
2 9 5 41.8481 40.7153 5
2 9 6 60.0364 50.9339 8
-2 -9 -6 36.585 44.3238 3
-2 -9 -6 39.3164 40.0359 7
2 9 6 -0.87255 24.0945 5
2 9 7 381.739 103.326 8
-2 -9 -7 244.044 82.0834 3
-2 -9 -7 323.142 95.456 7
2 9 7 385.758 88.904 5
2 9 8 548.7 133.229 8
-2 -9 -8 516.11 120.385 7
-2 -9 -8 548.019 133.215 3
-2 -9 -9 18.6343 29.4584 7
-2 -10 6 116.017 71.5747 6
2 10 -6 30.3723 45.1444 2
-2 -10 5 7.76226 31.8108 6
2 10 -5 76.9128 51.8499 2
-2 -10 4 315.373 99.2339 6
2 10 -4 210.636 81.6497 2
-2 -10 3 77.6934 64.5853 6
2 10 -3 27.8047 24.4414 1
2 10 -3 21.4862 28.4818 2
2 10 -2 88.1798 40.5133 8
2 10 -2 141 55.2936 1
2 10 -2 175.532 63.0223 2
-2 -10 2 81.8791 43.3029 6
2 10 -1 187.5 58.3714 8
2 10 -1 236.98 62.8628 1
-2 -10 1 228.419 73.3309 6
2 10 -1 356.251 79.0152 2
2 10 0 250.514 62.8151 2
2 10 0 259.46 61.0921 1
-2 -10 0 220.538 68.7422 6
2 10 0 295.88 72.6278 8
-2 -10 -1 -12.1704 26.1057 6
2 10 1 -9.1872 26.1249 2
2 10 1 6.08994 20.7399 1
2 10 1 5.65279 18.3103 8
2 10 1 15.1122 36.4852 5
2 10 2 -9.88439 22.3701 8
2 10 2 4.17765 47.4887 5
2 10 3 -76.143 46.1319 8
2 10 3 21.5733 38.6139 5
2 10 4 51.9804 40.5057 8
2 10 4 82.6558 56.486 5
2 10 5 -33.14 44.6276 8
2 10 5 57.9111 47.5845 5
2 10 6 78.3298 52.1151 8
-2 -10 -6 -80.9825 74.3536 3
2 10 6 -47.0172 36.211 5
2 10 7 15.2966 33.1789 8
-2 -10 -7 63.6749 54.7159 3
2 10 7 19.2173 32.0967 5
2 11 -5 -19.6812 35.5391 2
2 11 -4 321.445 95.7267 1
-2 -11 4 429.9 111.532 6
2 11 -4 261.284 87.3356 2
2 11 -3 -30.9083 41.839 2
-2 -11 3 -119.794 61.8939 6
2 11 -2 157.9 65.5135 1
-2 -11 2 247.701 83.2363 6
2 11 -2 164.683 61.5006 2
-2 -11 1 47.1813 52.3816 6
2 11 -1 -38.1944 32.7947 2
2 11 0 106.429 47.2383 8
2 11 0 80.6893 52.9447 5
-2 -11 0 72.93 50.7838 6
-2 -11 -1 -9.53519 29.4624 6
2 11 1 35.2616 32.7442 8
2 11 1 55.0222 39.8577 5
2 11 2 113.873 53.3056 8
2 11 2 108.612 62.0253 5
2 11 3 291.602 95.1588 8
2 11 3 332.71 92.8806 5
2 11 4 54.9444 57.5411 8
2 11 4 38.7308 40.8486 5
2 11 5 93.9211 65.5161 8
2 11 5 22.141 41.6656 5
2 11 6 155.082 75.7243 8
2 11 6 13.8422 27.5507 5
2 11 7 76.866 43.2297 5
-2 -12 1 -25.152 42.3659 6
-2 -12 0 203.368 82.7745 6
2 12 2 40.6317 35.224 8
2 12 2 66.6773 44.4559 5
2 12 3 47.6054 41.6619 8
2 12 4 180.037 84.7806 8
-3 10 1 16.2939 29.3873 9
-3 10 0 -18.9586 36.2204 2
-3 10 -1 -31.6484 44.6863 2
-3 9 4 -17.766 35.1203 8
-3 9 3 30.1319 24.8076 9
-3 9 3 -76.4419 52.6789 8
-3 9 2 2.25326 20.7477 9
-3 9 2 20.0251 26.9815 2
-3 9 2 62.7283 59.2911 5
-3 9 2 133.373 66.7807 8
-3 9 1 155.543 64.9951 9
-3 9 1 128.385 61.8849 2
3 -9 -1 101.702 66.9573 10
-3 9 1 139.074 63.0105 5
3 -9 0 177.121 80.0934 10
-3 9 0 71.915 45.0068 9
-3 9 0 114.263 56.8953 2
-3 9 0 168.516 68.8413 5
-3 9 -1 74.571 47.4264 2
3 -9 1 -6.57838 47.0682 10
-3 9 -1 3.89226 42.5425 5
-3 9 -1 69.7184 40.8548 9
-3 9 -2 415.429 114.054 2
3 -9 2 434.95 132.514 10
-3 9 -2 376.033 102.845 9
-3 9 -2 628.792 136.279 5
-3 9 -3 212.815 86.7885 5
-3 9 -3 110.857 65.9129 2
3 -9 3 311.251 105.88 10
-3 9 -3 195.621 86.2124 9
-3 9 -4 -16.494 39.0324 2
3 -9 4 -2.47172 29.5511 10
-3 9 -4 28.8327 51.9772 5
-3 9 -5 0.68259 29.8261 5
3 -8 -6 75.3165 55.9657 3
3 -8 -5 106.818 55.8685 3
3 -8 -5 161.902 75.6514 10
-3 8 5 -17.6271 37.5704 8
-3 8 4 -42.5295 39.6115 5
-3 8 4 -74.6154 39.3174 9
3 -8 -4 -35.9521 42.1648 10
-3 8 4 -86.4927 55.1802 8
3 -8 -3 1.11343 26.3328 10
-3 8 3 12.7126 28.0786 9
-3 8 3 -53.0432 48.602 5
-3 8 3 4.77645 29.339 8
3 -8 -2 -10.6022 42.5198 10
-3 8 2 -16.7234 25.6841 9
-3 8 2 -35.1691 48.6848 5
-3 8 2 12.3632 32.9214 8
-3 8 1 130.178 55.9131 9
-3 8 1 77.4298 43.3918 5
-3 8 1 153.151 68.7829 8
3 -8 -1 192.13 78.815 10
-3 8 0 17.9479 42.5194 2
-3 8 0 16.7708 52.8336 5
3 -8 0 44.903 30.7774 10
-3 8 0 -22.4195 23.842 8
-3 8 -1 145.988 63.0552 5
-3 8 -1 116.957 61.3887 2
3 -8 1 67.1452 61.1271 10
-3 8 -1 20.2926 28.3705 9
3 -8 2 -36.34 42.8815 10
-3 8 -2 -9.04175 46.3358 2
-3 8 -2 57.2648 46.7622 9
-3 8 -2 82.865 52.5229 5
-3 8 -3 31.1647 42.3176 2
-3 8 -3 -46.1231 40.874 9
-3 8 -3 -15.696 33.6614 5
3 -8 3 -86.0152 56.3863 10
-3 8 -4 109.797 69.5961 9
-3 8 -4 75.9994 66.2196 2
3 -8 4 75.7156 38.0676 10
-3 8 -4 168.836 74.0268 5
-3 8 -5 -152.714 75.0255 2
3 -8 5 -130.151 66.0385 10
-3 8 -5 -31.7581 45.156 5
-3 8 -5 58.5135 56.2647 9
-3 8 -6 81.985 55.9368 5
-3 8 -7 105.028 58.4636 5
3 -7 -8 -71.9196 52.6395 3
3 -7 -7 -83.0003 56.9403 10
3 -7 -7 20.2994 37.6413 3
3 -7 -7 -28.0366 37.7425 4
3 -7 -6 48.894 36.2076 3
-3 7 6 48.3438 66.92 8
3 -7 -6 -13.0216 42.1191 10
3 -7 -6 -8.40172 32.9428 4
3 -7 -5 70.4489 57.4972 3
3 -7 -5 41.4374 56.8785 10
3 -7 -5 11.5939 36.8908 4
-3 7 5 55.9483 34.8621 9
-3 7 5 83.6798 65.6258 8
-3 7 4 17.372 38.9824 5
3 -7 -4 -24.4358 31.8312 3
-3 7 4 13.9372 19.1398 9
3 -7 -4 -22.7703 42.3459 10
-3 7 4 -35.832 49.0309 8
3 -7 -4 -16.872 46.0006 4
3 -7 -3 37.7164 38.9681 10
-3 7 3 -17.8289 25.2426 9
-3 7 3 14.6038 35.6817 5
-3 7 3 46.4949 40.2615 8
3 -7 -2 614.104 127.734 10
-3 7 2 553.839 109.024 8
-3 7 2 453.504 91.8762 9
-3 7 2 540.882 112.446 5
-3 7 1 1778.81 182.229 9
3 -7 -1 1919.5 224.218 10
-3 7 1 2102.13 214.522 5
-3 7 1 2024.38 195.864 8
-3 7 0 259.505 75.7945 5
3 -7 0 264.154 88.4417 10
-3 7 0 154.641 54.4261 9
-3 7 0 337.293 75.4453 8
-3 7 -1 48.0545 36.3342 2
3 -7 1 -1.45223 32.2268 10
-3 7 -1 -23.5969 34.8844 5
-3 7 -1 -10.5086 29.7134 9
-3 7 -1 23.6526 16.0386 8
-3 7 -2 16.5161 34.6922 2
3 -7 2 32.3748 21.4149 6
-3 7 -2 62.0759 45.3886 9
-3 7 -2 44.9685 30.1256 5
-3 7 -2 25.499 21.7437 8
-3 7 -3 100.442 50.9942 9
-3 7 -3 111.125 57.2425 2
3 -7 3 71.1835 34.181 6
3 -7 3 35.5295 36.641 10
-3 7 -3 81.7407 52.8327 5
-3 7 -4 3.34387 31.5507 2
3 -7 4 37.4462 32.8003 6
-3 7 -4 62.8219 49.4393 9
3 -7 4 -39.213 52.9281 10
-3 7 -4 -37.5019 26.6866 5
-3 7 -5 -41.7136 46.0639 2
-3 7 -5 48.0608 52.0596 9
-3 7 -5 50.3797 48.0642 5
3 -7 5 65.8991 36.4226 6
3 -7 5 -16.1163 60.9981 10
-3 7 -6 -52.7233 46.5364 2
-3 7 -6 68.915 46.2606 9
3 -7 6 38.3267 31.8631 6
-3 7 -7 21.7872 43.4113 2
3 -7 7 66.3619 44.3835 6
3 -6 -9 -0.6632 41.014 3
3 -6 -9 -49.3656 44.2141 10
3 -6 -9 24.5353 29.9754 4
3 -6 -8 97.3678 52.3812 3
3 -6 -8 56.7078 33.6366 10
3 -6 -8 34.9852 39.465 4
3 -6 -7 10.9376 33.9663 3
3 -6 -7 -88.6682 52.6126 4
3 -6 -7 43.5197 47.2592 10
-3 6 7 85.9598 56.4529 8
3 -6 -6 84.2396 47.247 3
3 -6 -6 137.365 65.4665 10
3 -6 -6 33.6348 38.3043 4
-3 6 6 185.374 79.9738 8
3 -6 -5 64.0474 50.3665 3
3 -6 -5 -6.44681 29.4704 10
-3 6 5 51.6084 31.2315 9
3 -6 -5 70.8706 34.6889 4
-3 6 5 56.6637 39.7999 8
3 -6 -4 -15.7993 26.8497 3
-3 6 4 -39.4378 34.4873 9
3 -6 -4 44.99 36.0031 4
-3 6 4 -60.4602 45.2185 8
3 -6 -3 355.973 72.4715 3
-3 6 3 394.417 77.0532 9
3 -6 -3 398.942 99.9429 10
-3 6 3 426.776 92.4883 5
3 -6 -3 393.935 88.7919 4
-3 6 3 310.379 85.0042 8
3 -6 -2 21.1353 33.7139 10
-3 6 2 37.4765 17.8539 6
-3 6 2 36.4797 29.4671 9
-3 6 2 22.6747 29.6013 5
3 -6 -2 92.5572 41.4336 4
-3 6 2 51.6277 49.1644 8
-3 6 1 2044.33 143.277 6
3 -6 -1 2507.1 234.138 10
-3 6 1 2297.02 209.438 5
-3 6 1 2287.1 191.381 9
3 -6 -1 2332.99 215.466 4
-3 6 1 2426.06 206.325 8
-3 6 1 2095.7 99.3292 1
-3 6 0 1833.02 152.87 3
-3 6 0 1700.06 170.093 9
-3 6 0 2167.41 197.952 5
-3 6 0 1597.66 123.458 6
-3 6 0 1913.54 168.394 8
3 -6 0 1978.49 209.333 10
-3 6 0 1670.36 115.421 1
-3 6 -1 -31.3401 30.2026 6
3 -6 1 9.93152 15.5674 8
-3 6 -1 -15.7342 23.9398 1
-3 6 -1 -77.0478 34.3087 3
3 -6 1 6.73278 18.3204 6
3 -6 1 -13.1971 44.5775 10
-3 6 -1 -8.96974 35.6057 9
-3 6 -1 -43.4352 49.4334 5
-3 6 -1 5.24722 18.5759 8
-3 6 -2 -111.372 74.592 2
-3 6 -2 -44.1936 45.8422 5
3 -6 2 11.5835 22.8223 6
-3 6 -2 -20.211 41.2394 9
-3 6 -2 7.04895 12.504 8
-3 6 -3 1237.11 165.219 2
3 -6 3 1249.53 166.376 10
-3 6 -3 1157.44 152.971 5
3 -6 3 1263.9 123.923 6
-3 6 -3 1144.52 81.7766 8
-3 6 -3 1097.96 151.086 9
-3 6 -4 3077.93 255.583 9
3 -6 4 3153.83 208.372 6
3 -6 4 2800.43 245.358 10
-3 6 -4 3264.59 255.179 5
-3 6 -4 2975.86 263.055 2
-3 6 -5 1185.95 169.801 9
3 -6 5 1211.4 136.269 6
3 -6 5 1159.2 155.584 10
-3 6 -5 1070.58 165.123 2
-3 6 -6 58.6258 36.3599 2
3 -6 6 88.3244 36.8962 6
3 -6 6 107.753 45.6821 10
-3 6 -6 87.414 54.427 9
3 -6 7 28.3418 34.4502 6
-3 6 -7 -12.7278 34.0382 2
-3 6 -8 37.5701 33.9794 2
3 -6 8 41.2949 36.6843 6
3 -6 9 -84.6108 51.8033 6
3 -5 -9 44.4902 41.9534 3
3 -5 -9 -11.4163 22.6066 10
3 -5 -9 27.0464 29.1141 4
3 -5 -8 165.391 74.2322 3
3 -5 -8 169.796 67.8658 10
-3 5 8 139.597 86.3107 8
3 -5 -8 148.747 67.4687 4
3 -5 -7 -20.1882 37.7612 3
3 -5 -7 -7.16142 27.7498 4
3 -5 -7 -20.5159 37.5315 10
-3 5 7 16.6318 30.002 8
3 -5 -6 229.004 71.1613 3
3 -5 -6 205.6 69.9282 10
3 -5 -6 170.969 61.1963 4
-3 5 6 186.461 72.8277 8
-3 5 5 757.323 99.0524 9
3 -5 -5 883.35 123.755 3
3 -5 -5 740.631 132.699 10
3 -5 -5 784.949 125.235 4
-3 5 5 779.874 134.734 8
3 -5 -4 751.159 108.14 3
-3 5 4 743.783 99.5478 9
-3 5 4 552.167 81.1914 6
3 -5 -4 769.434 124.351 10
3 -5 -4 814.908 129.579 4
-3 5 4 550.057 113.271 8
3 -5 -3 853.824 105.847 3
-3 5 3 1081.65 147.344 8
-3 5 3 1008.7 124.93 7
-3 5 3 1242.64 143.901 5
-3 5 3 867.869 91.8034 6
3 -5 -3 934.003 134.858 10
-3 5 3 997.709 113.143 9
3 -5 -3 894.575 128.013 4
3 -5 -2 1129.9 117.019 3
-3 5 2 1236.38 128.749 9
-3 5 2 1239.31 146.95 8
-3 5 2 1108.53 99.6286 6
3 -5 -2 1272.37 155.62 10
-3 5 2 1438.95 153.82 5
3 -5 -2 1466.82 161.32 4
-3 5 1 1593 132.754 3
-3 5 1 1836.77 120.305 6
-3 5 1 1922.9 176.244 5
3 -5 -1 1807.22 183.102 10
3 -5 -1 1604.4 167.069 4
-3 5 1 1670.05 95.0618 1
-3 5 1 1820.98 167.183 8
-3 5 1 1748.32 155.849 9
3 -5 0 9.46427 13.4737 8
-3 5 0 30.8683 19.835 1
-3 5 0 -4.2166 12.1424 3
-3 5 0 28.4254 17.2817 6
-3 5 0 11.4587 22.9588 9
3 -5 0 32.4633 37.1775 10
3 -5 0 28.0847 34.0503 4
-3 5 0 69.2343 33.1519 8
-3 5 0 0.42952 28.4426 5
3 -5 1 111.96 35.9642 8
-3 5 -1 111.299 36.4527 3
-3 5 -1 117.114 39.1942 8
-3 5 -1 199.855 56.7421 9
3 -5 1 108.748 33.073 6
3 -5 1 174.4 61.1108 10
-3 5 -1 108.049 30.4077 1
-3 5 -1 118.126 38.2754 5
3 -5 2 36.3677 19.6607 8
-3 5 -2 21.5763 13.6954 3
-3 5 -2 62.1113 27.3098 8
-3 5 -2 32.7671 24.8645 9
3 -5 2 36.9682 21.9321 6
-3 5 -2 73.9967 35.8233 5
3 -5 2 12.9664 27.7418 10
-3 5 -2 82.4077 33.977 1
-3 5 -3 1053.51 113.154 3
3 -5 3 880.683 120.77 10
3 -5 3 1183.37 112.001 6
-3 5 -3 1275.53 144.962 5
-3 5 -3 961.862 127.186 9
-3 5 -3 985.348 141.078 2
-3 5 -3 1069.43 77.4591 8
3 -5 3 709.207 69.0347 8
-3 5 -4 5102.91 323.168 2
-3 5 -4 5438.32 321.347 9
3 -5 4 5560.03 254.519 6
3 -5 4 5280.15 311.276 10
-3 5 -4 5749.77 308.061 5
-3 5 -5 528.576 110.104 2
3 -5 5 453.613 77.382 6
3 -5 5 427.541 90.535 10
-3 5 -5 549.141 109.206 9
3 -5 6 31.0988 32.5401 6
-3 5 -6 7.22281 46.5965 9
-3 5 -6 -9.00053 41.3466 2
3 -5 6 38.8684 26.5267 10
-3 5 -7 2.19487 36.8235 2
3 -5 7 -41.3539 50.2433 6
-3 5 -7 -23.5704 46.3997 9
-3 5 -8 -4.25375 32.3716 2
3 -5 8 14.358 37.3893 6
-3 5 -8 -20.3562 34.9266 9
-3 5 -9 -25.6582 45.8335 9
3 -5 9 -18.466 43.5399 6
-3 5 -9 22.7745 43.5734 2
-3 5 -10 -202.728 84.1826 9
3 -5 10 -21.806 35.3963 6
3 -4 -10 -90.7018 59.0753 3
3 -4 -9 -40.525 42.3727 3
3 -4 -9 48.9485 44.5515 4
3 -4 -9 -42.8625 36.0014 10
-3 4 9 4.44625 32.852 8
3 -4 -8 30.0618 21.9087 10
3 -4 -8 34.0258 35.5278 3
3 -4 -8 18.5423 34.7276 4
-3 4 8 20.9134 33.1513 8
3 -4 -7 81.4296 43.2684 10
3 -4 -7 20.8959 27.7245 3
3 -4 -7 46.482 37.0075 4
-3 4 7 20.9989 29.0787 8
3 -4 -6 2.40015 23.9777 3
3 -4 -6 9.06435 23.2878 10
3 -4 -6 14.3684 29.0466 4
-3 4 6 41.7915 38.55 8
-3 4 5 1902.8 133.604 7
3 -4 -5 2105.48 182.769 3
-3 4 5 2326.78 167.292 9
3 -4 -5 1808.91 68.1719 1
3 -4 -5 2350.91 213.015 10
-3 4 5 2500.11 228.79 8
3 -4 -5 2395.52 204.128 4
-3 4 4 14208.6 388.729 6
3 -4 -4 16255.4 462.389 3
3 -4 -4 17649.7 553.772 10
-3 4 4 15495.3 551.091 8
3 -4 -4 16562.4 526.731 4
-3 4 4 16160.4 435.747 9
3 -4 -3 2711.3 176.003 3
-3 4 3 2374.19 144.061 6
3 -4 -3 2180.34 77.7511 1
3 -4 -3 2874.14 219.353 10
-3 4 3 1753.56 145.873 7
-3 4 3 2507.92 171.754 9
-3 4 3 2351.36 204.44 8
3 -4 -3 2757.07 206.067 4
3 -4 -2 351.159 60.5898 3
-3 4 2 428.784 76.0398 7
-3 4 2 398.113 53.9521 6
3 -4 -2 366.097 37.8731 1
-3 4 2 347.266 63.8944 9
-3 4 2 431.558 79.3565 5
3 -4 -2 301.19 63.0564 4
-3 4 2 342.898 72.862 8
3 -4 -2 409.721 80.4321 10
-3 4 1 1824.11 103.45 6
-3 4 1 1942 161.057 8
3 -4 -1 1943.63 173.02 10
-3 4 1 1760.26 150.952 9
-3 4 1 1739.16 100.787 1
-3 4 1 1852.17 158.511 5
3 -4 -1 1880.46 166.057 4
3 -4 -1 1829.15 158.27 8
-3 4 0 1852.79 119.653 3
-3 4 0 1876.72 120.603 1
-3 4 0 2009.18 157.094 9
-3 4 0 1919.29 100.682 6
3 -4 0 1919.92 169.146 10
-3 4 0 1959.81 156.371 5
-3 4 0 2022.82 153.884 8
3 -4 0 1704.75 158.78 4
3 -4 0 1821.37 146.483 8
-3 4 -1 645.129 70.9998 3
3 -4 1 641.955 59.2624 6
-3 4 -1 658.954 94.1106 9
3 -4 1 741.834 106.034 10
-3 4 -1 515.179 68.2721 1
-3 4 -1 772.754 100.475 5
-3 4 -1 741.731 85.3614 8
3 -4 1 622.345 96.0385 4
3 -4 1 620.51 79.3773 8
-3 4 -2 4499.56 198.047 3
3 -4 2 4087.73 167.507 6
3 -4 2 4348.62 251.002 10
-3 4 -2 4627.35 191.622 8
-3 4 -2 4630.49 239.941 5
-3 4 -2 4333.41 243.893 9
3 -4 2 4082.6 183.026 8
3 -4 3 178.287 33.0064 8
-3 4 -3 159.287 56.2786 2
3 -4 3 136.187 35.9931 6
-3 4 -3 155.962 51.4163 9
-3 4 -3 170.364 52.151 5
3 -4 3 104.231 45.6748 10
-3 4 -4 977.599 132.194 2
3 -4 4 996.174 100.798 6
3 -4 4 748.221 105.293 10
3 -4 4 566.623 44.7355 8
-3 4 -4 842.08 120.614 9
-3 4 -5 81.9117 44.9782 2
3 -4 5 59.444 33.8201 6
3 -4 5 98.4587 40.9033 10
-3 4 -5 18.8179 26.8986 9
-3 4 -6 125.209 53.8082 2
3 -4 6 255.485 61.5106 10
-3 4 -6 271.999 73.5988 9
3 -4 6 240.394 63.7674 6
-3 4 -7 803.491 137.752 2
3 -4 7 681.129 110.503 6
-3 4 -7 650.48 122.32 9
-3 4 -8 177.348 82.4774 2
3 -4 8 207.616 66.4647 6
-3 4 -8 256.816 82.6661 9
-3 4 -9 309.048 99.8835 2
3 -4 9 234.175 76.1731 6
-3 4 -9 200.456 73.533 9
-3 4 -10 10.2206 44.1814 2
-3 4 -10 -20.7822 50.4169 9
3 -4 10 -48.4857 44.418 6
3 -4 11 25.6472 46.4897 6
-3 4 -11 -71.3074 51.8123 9
3 -3 -10 60.1657 47.1156 4
3 -3 -10 19.8551 25.9221 3
-3 3 10 46.8698 46.8101 8
3 -3 -9 4.98612 36.9438 3
3 -3 -9 -33.0962 33.9796 4
3 -3 -9 -40.662 26.2596 10
-3 3 9 62.6701 45.684 8
3 -3 -8 161.038 56.7484 10
3 -3 -8 154.71 59.4491 4
3 -3 -8 167.353 59.9862 3
-3 3 8 181.669 73.1102 8
3 -3 -7 32.733 19.8388 1
3 -3 -7 28.2637 40.243 3
3 -3 -7 22.3103 23.711 10
3 -3 -7 4.05865 23.7093 4
-3 3 7 67.74 40.025 8
3 -3 -6 1441.29 153.539 3
3 -3 -6 1373.57 102.268 1
-3 3 6 1296.4 170.137 8
3 -3 -6 1309.31 147.013 4
-3 3 5 21.2904 15.733 7
3 -3 -5 5.74954 25.5127 9
3 -3 -5 -20.4307 33.5742 3
3 -3 -5 -13.3566 19.6593 1
3 -3 -5 -51.7292 45.1296 4
-3 3 5 28.8614 28.7619 8
3 -3 -4 8033.32 302.957 3
-3 3 4 6687.84 227.565 7
-3 3 4 7843.56 286.875 9
3 -3 -4 7181.52 273.293 9
3 -3 -4 7675.37 203.365 1
-3 3 4 7758.97 363.314 8
3 -3 -4 8816.12 354.537 4
-3 3 3 392.635 61.1989 7
-3 3 3 416.198 66.6758 9
3 -3 -3 370.27 63.2861 9
3 -3 -3 394.246 64.4211 3
-3 3 3 436.386 57.4639 6
3 -3 -3 371.964 42.8506 1
3 -3 -3 498.924 83.5495 4
-3 3 3 417.207 81.2885 8
-3 3 2 1863.38 102.205 1
3 -3 -2 1812.06 121.894 3
3 -3 -2 1807.61 140.721 9
-3 3 2 1757.31 98.7711 6
3 -3 -2 1747.97 94.29 1
-3 3 2 1981.05 150.321 5
-3 3 2 1850.23 160.766 8
3 -3 -2 1997.36 161.073 4
-3 3 2 1900.6 138.616 9
3 -3 -1 3.14339 16.6325 8
3 -3 -1 5.04904 10.4858 3
-3 3 1 40.5879 19.4078 5
3 -3 -1 -5.65906 11.3264 1
3 -3 -1 4.83321 22.3413 5
-3 3 1 14.5883 10.253 1
-3 3 1 3.32646 5.9921 6
3 -3 -1 -3.01399 25.1117 4
3 -3 -1 25.114 19.982 9
-3 3 1 -23.4736 27.6746 9
-3 3 1 -16.1395 21.698 8
3 -3 0 1541.16 134.798 4
-3 3 0 1553.08 92.0102 3
-3 3 0 1541.57 126.867 8
3 -3 0 1540.32 132.132 9
-3 3 0 1455.81 68.5084 6
3 -3 0 1544.89 100.598 1
-3 3 0 1499.35 126.365 9
-3 3 0 1503.85 123.807 5
-3 3 0 1573.07 107.748 1
3 -3 0 1609.95 131.848 8
-3 3 -1 903.844 72.2382 3
3 -3 1 905.084 109.73 10
-3 3 -1 875.236 100.342 9
3 -3 1 900.294 57.4827 6
3 -3 1 808.533 80.9891 1
-3 3 -1 946.527 91.6521 1
-3 3 -1 813.649 86.0684 8
-3 3 -1 938.574 96.2253 5
3 -3 1 936.983 105.622 4
3 -3 1 934.415 93.3062 8
-3 3 -2 348.793 46.5794 3
-3 3 -2 335.146 59.2352 5
3 -3 2 347.514 66.959 10
-3 3 -2 304.705 47.4841 8
3 -3 2 273.185 38.6173 6
-3 3 -2 294.468 62.3673 9
-3 3 -2 317.484 55.3462 1
3 -3 2 295.813 48.6904 8
-3 3 -2 409.866 68.7577 4
3 -3 2 211.02 49.7555 4
-3 3 -3 660.386 94.2045 9
3 -3 3 544.748 60.4158 6
-3 3 -3 412.646 69.7992 1
3 -3 3 642.26 88.0209 10
-3 3 -3 565.058 77.601 5
3 -3 3 563.475 59.6119 8
-3 3 -3 593.807 82.2949 4
-3 3 -4 6930.79 328.633 2
3 -3 4 7299.54 253.019 6
3 -3 4 7199.95 283.683 10
-3 3 -4 6788.2 311.805 9
3 -3 4 6812.96 177.006 8
-3 3 -4 7052.01 276.419 4
3 -3 5 1428.3 123.011 6
3 -3 5 1222.57 116.929 10
-3 3 -5 1137.92 140.342 2
-3 3 -5 1248.96 139.773 9
-3 3 -5 1106.27 111.155 4
-3 3 -6 382.508 83.6884 2
3 -3 6 336.872 62.5844 10
-3 3 -6 419.271 84.0326 9
3 -3 6 408.474 74.3608 6
-3 3 -6 406.511 65.8818 4
-3 3 -7 86.8538 41.4042 2
3 -3 7 61.6423 37.7551 6
-3 3 -7 75.6146 46.389 9
-3 3 -7 112.377 38.7519 4
-3 3 -8 -19.6992 37.378 2
3 -3 8 6.98314 32.0688 6
-3 3 -8 95.6052 51.5721 9
-3 3 -9 3.02417 36.4386 2
-3 3 -9 60.5498 53.4265 9
3 -3 9 -36.9729 42.3158 6
-3 3 -10 29.6059 30.1561 2
3 -3 10 37.0961 35.1642 6
3 -3 11 37.2069 33.4585 6
-3 3 -11 -52.2747 41.2793 9
-3 3 -11 94.503 53.9415 2
3 -2 -10 -26.2491 43.1609 3
-3 2 10 2.54829 43.0627 8
3 -2 -10 77.11 42.8252 4
-3 2 9 13.9617 40.7702 8
3 -2 -9 1.31311 20.468 4
3 -2 -8 -21.8546 28.7328 1
3 -2 -8 -3.35865 26.7307 3
-3 2 8 -23.0648 28.0046 8
3 -2 -8 47.155 38.6663 4
3 -2 -7 305.446 60.1572 1
3 -2 -7 305.196 77.2176 3
-3 2 7 467.255 101.387 8
3 -2 -7 356.617 82.3646 4
3 -2 -6 980.089 122.708 3
3 -2 -6 866.569 95.9855 9
-3 2 6 880.355 134.21 8
3 -2 -6 969.915 120.725 4
3 -2 -6 946.483 96.5646 1
3 -2 -5 138.931 36.9313 9
3 -2 -5 143.669 38.0688 1
3 -2 -5 135.102 31.3326 3
-3 2 5 178.085 58.3627 8
3 -2 -5 94.0022 26.3326 4
-3 2 4 91.2755 21.4605 7
3 -2 -4 114.969 33.3497 9
3 -2 -4 61.6744 23.9862 3
3 -2 -4 94.3657 27.753 1
-3 2 4 73.294 32.9429 8
3 -2 -4 35.2399 28.2353 4
3 -2 -3 -11.2296 18.3766 9
-3 2 3 5.03875 9.92735 7
-3 2 3 38.2245 23.1428 9
3 -2 -3 -6.63343 14.2115 3
3 -2 -3 2.65773 13.5008 1
-3 2 3 -13.9531 18.0075 2
-3 2 3 -17.2932 34.5455 8
3 -2 -3 32.0437 25.1531 4
-3 2 2 1752.53 106.104 1
3 -2 -2 1630.69 102.735 3
-3 2 2 1781 149.069 8
3 -2 -2 1739.32 126.336 9
3 -2 -2 1659.33 97.0906 1
3 -2 -2 1493.22 127.634 5
3 -2 -2 1849.21 152.229 8
3 -2 -2 1810.01 140.356 4
-3 2 2 1747.47 126.681 9
3 -2 -1 5408.96 162.182 3
3 -2 -1 5442.77 225.278 9
3 -2 -1 5009.95 167.864 1
-3 2 1 5068.99 116.342 6
3 -2 -1 5381.34 226.458 5
-3 2 1 5483.24 217.17 5
-3 2 1 5728.14 245.84 8
-3 2 1 5269.84 221.059 9
-3 2 1 5359.8 185.808 1
3 -2 -1 5329.44 232.604 4
-3 2 0 4292.67 175.775 1
-3 2 0 4258.28 184.757 5
3 -2 0 4232.61 165.604 1
3 -2 0 4171.3 194.989 5
3 -2 0 4458.55 207.334 9
-3 2 0 3960.48 192.77 9
-3 2 0 4080.7 196.354 8
3 -2 0 4327.62 205.345 8
3 -2 0 4247.55 205.952 4
-3 2 -1 18975 245.836 3
3 -2 1 19586.6 448.935 9
3 -2 1 18609 180.137 6
3 -2 1 20603.5 393.561 1
-3 2 -1 20307 387.246 5
-3 2 -1 20198.5 403.622 1
-3 2 -1 20104.6 393.18 8
3 -2 1 20083.9 413.285 8
3 -2 1 19251.9 432.25 4
3 -2 2 2852.08 102.788 6
3 -2 2 2926.65 159.919 1
-3 2 -2 3014.21 165.303 1
-3 2 -2 2666.45 140.679 5
-3 2 -2 2770.12 133.575 8
3 -2 2 2780.5 143.36 8
3 -2 2 2757.25 160.485 4
3 -2 3 4144.36 152.518 6
3 -2 3 3924.36 189.664 10
-3 2 -3 3955.31 175.441 5
3 -2 3 4048.59 192.611 4
3 -2 3 4275.74 166.619 8
-3 2 -4 257.512 45.7562 4
-3 2 -4 195.832 54.4084 2
3 -2 4 251.743 48.5541 10
3 -2 4 288.255 48.7372 6
-3 2 -4 274.385 61.6393 9
3 -2 4 255.14 38.7389 8
-3 2 -5 53.661 33.9814 2
3 -2 5 46.9677 20.1464 10
-3 2 -5 55.9262 31.8 9
3 -2 5 33.9163 16.2268 8
-3 2 -5 78.6409 28.6769 4
3 -2 6 12.0859 10.391 8
-3 2 -6 24.2422 22.91 2
-3 2 -6 -8.27118 27.8004 9
3 -2 6 49.0755 23.6591 10
3 -2 6 18.328 8.69047 8
-3 2 -6 21.8497 14.9265 4
-3 2 -7 1238.66 150.716 2
3 -2 7 809.19 69.1824 8
3 -2 7 1007.88 72.9155 8
-3 2 -7 859.745 79.066 4
-3 2 -7 1232.96 142.05 9
3 -2 8 28.6392 17.1912 8
-3 2 -8 -12.4035 36.6868 9
-3 2 -9 2262.64 228.62 2
-3 2 -9 2208.5 208.087 9
-3 2 -10 209.642 81.4885 2
-3 2 -10 145.5 59.2259 9
-3 2 -11 21.746 29.4053 9
-3 2 -11 -87.6228 56.0296 2
-3 2 -12 -27.6652 50.5826 2
-3 1 11 88.3591 60.7821 8
3 -1 -10 8.26782 20.9952 1
-3 1 10 -37.434 41.2409 8
3 -1 -9 78.3942 42.8577 4
3 -1 -9 10.1682 19.2097 1
3 -1 -8 27.0798 20.0838 1
-3 1 8 25.7737 37.3977 8
3 -1 -7 443.832 80.3294 1
-3 1 7 392.99 94.009 8
3 -1 -6 -11.0547 21.5146 1
3 -1 -6 14.4941 15.7264 9
-3 1 6 17.5689 27.035 8
3 -1 -5 306.641 54.8181 9
3 -1 -5 310.655 56.3862 1
-3 1 5 318.387 74.3966 8
3 -1 -4 81.1539 28.6861 1
3 -1 -4 88.4143 28.7895 9
-3 1 4 90.7511 45.48 8
-3 1 3 4048.24 193.809 9
-3 1 3 4282.15 120.925 7
-3 1 3 4529.73 219.95 2
3 -1 -3 4634.77 199.912 9
3 -1 -3 4522.56 216.637 5
-3 1 3 4331.75 233.749 8
3 -1 -3 4348.36 174.981 1
-3 1 2 6156.65 223.904 9
-3 1 2 6394.81 263.796 8
3 -1 -2 6797.22 196.169 3
3 -1 -2 6590.56 244.354 5
3 -1 -2 6574.53 234.158 9
3 -1 -2 6301.89 199.6 1
3 -1 -1 3.1176 12.8456 1
3 -1 -1 13.2743 11.116 3
-3 1 1 23.2651 12.9261 1
-3 1 1 -1.35331 15.5977 8
-3 1 1 2.76892 13.6814 9
3 -1 -1 21.5979 17.6357 9
3 -1 -1 7.3303 12.6611 5
-3 1 0 6545.72 233.6 8
3 -1 0 7095.09 240.885 9
3 -1 0 6538.93 203.871 1
3 -1 0 6472.98 209.179 5
-3 1 0 6881.08 203.159 5
-3 1 0 6729.93 219.328 1
3 -1 0 6993.68 250.676 8
3 -1 0 6840.38 229.891 4
-3 1 -1 1976.59 103.009 5
-3 1 -1 1950.93 124.841 1
3 -1 1 2024.73 119.672 1
3 -1 1 1755.42 105.76 5
3 -1 1 1943.52 129.308 9
3 -1 1 2005.72 131.641 8
3 -1 1 1902.03 122.436 4
-3 1 -1 2146.47 127.192 8
3 -1 2 2719.1 151.083 1
3 -1 2 2594.73 139.436 8
-3 1 -2 2387.84 144.496 1
3 -1 2 2570.58 155.08 9
3 -1 2 2552.77 137.006 4
-3 1 -2 2535.39 112.036 5
3 -1 3 61.007 24.8822 1
-3 1 -3 86.3992 29.311 1
-3 1 -3 79.9817 23.1562 5
3 -1 3 74.2679 20.7219 4
3 -1 3 75.187 25.2849 8
3 -1 4 2435.3 126.02 10
3 -1 4 2616.02 169.434 1
-3 1 -4 2712.76 176.906 1
-3 1 -4 2503.98 161.927 9
3 -1 4 2826.02 141.86 8
-3 1 -4 2733.36 177.423 2
-3 1 -5 291.378 65.2287 2
3 -1 5 307.952 43.7909 10
-3 1 -5 219.557 55.1612 9
3 -1 5 261.787 43.7707 8
3 -1 6 -4.71614 13.8782 8
-3 1 -6 9.62459 27.5427 2
3 -1 6 5.36952 7.43094 10
-3 1 -6 27.2756 16.8048 9
-3 1 -7 1378.31 149.521 2
3 -1 7 1097.77 97.3592 8
-3 1 -7 1321.92 132.719 9
3 -1 8 153.989 38.9482 8
-3 1 -8 98.1864 32.4963 2
-3 1 -8 126.407 47.3812 9
-3 1 -9 3706.18 272.068 2
-3 1 -9 3510.74 240.263 9
3 -1 9 3414.3 188.167 8
-3 1 -10 1615.79 190.56 2
-3 1 -10 1203.45 146.783 9
-3 1 -11 45.8878 29.8932 9
-3 1 -11 -74.4936 63.7172 2
-3 1 -12 -46.5956 44.7371 2
-3 0 11 36.6099 35.1241 8
3 0 -11 27.7868 34.1917 2
-3 0 10 7.7687 33.698 8
3 0 -10 -6.27778 33.9568 2
3 0 -9 36.8782 30.4151 2
-3 0 9 -16.521 40.7626 8
3 0 -8 596.218 105.361 2
-3 0 8 516.699 103.616 8
3 0 -7 570.341 101.478 2
-3 0 7 500.791 102.633 8
3 0 -6 -4.76676 23.6522 2
-3 0 6 47.9057 28.9349 8
3 0 -5 184.947 42.5247 9
3 0 -5 172.626 44.4103 2
-3 0 5 130.714 47.4876 8
3 0 -5 176.468 44.8708 1
-3 0 4 3151.12 196.095 2
3 0 -4 3263.93 178.913 9
-3 0 4 2934.64 197.286 8
3 0 -4 2777.85 158.629 1
-3 0 3 23430.5 515.919 8
3 0 -3 22878.7 428.681 1
3 0 -3 23337.2 448.112 9
-3 0 2 9812.13 310.973 8
-3 0 2 8886.84 197.648 6
3 0 -2 9359.98 274.155 9
-3 0 2 8819.32 265.873 9
3 0 -2 9499.35 259.272 1
-3 0 1 162.457 33.2063 1
-3 0 1 148.543 20.2359 6
3 0 -1 155.362 33.0451 1
3 0 -1 168.48 32.3431 5
3 0 -1 169.952 35.2657 9
-3 0 1 122.267 33.2721 8
3 0 0 7362.94 227.815 9
3 0 0 7592.07 225.648 1
-3 0 0 7392.24 228.374 1
-3 0 0 7560.67 243.351 8
3 0 0 7186.96 193.211 5
3 0 1 2008.66 56.9508 6
3 0 1 2100.46 119.82 1
3 0 1 1803.85 87.4381 5
3 0 1 1948.65 118.121 9
-3 0 -1 2051.99 125.565 1
-3 0 -1 2056.49 116.626 8
3 0 1 2058.72 128.686 8
-3 0 -2 622.147 34.6995 3
3 0 2 675.954 72.081 9
3 0 2 766.388 77.8177 1
-3 0 -2 730.263 47.058 5
3 0 2 735.259 76.7043 8
3 0 2 743.93 65.1657 4
3 0 3 591.706 73.9637 1
3 0 3 492.189 64.5959 9
-3 0 -3 499.115 36.6393 5
-3 0 -3 494.318 60.7841 9
3 0 3 558.754 54.7897 4
3 0 3 528.04 64.4185 8
3 0 4 142.56 41.1018 1
-3 0 -4 186.875 45.3868 2
-3 0 -4 124.28 29.9475 9
3 0 4 174.58 29.1037 4
-3 0 -5 239.89 50.2162 2
3 0 5 131.072 43.3043 1
3 0 5 241.903 32.33 10
-3 0 -5 211.713 45.3732 9
-3 0 -6 1057.37 118.344 2
3 0 6 876.018 44.3971 10
-3 0 -6 954.441 101.439 9
-3 0 -7 1217.4 116.931 9
-3 0 -7 1281.7 136.112 2
3 0 7 1116.68 111.269 8
3 0 8 22.5654 29.9258 8
-3 0 -8 -7.82291 30.4569 2
-3 0 -8 10.0042 19.3373 9
-3 0 -9 786.467 122.091 2
-3 0 -9 637.497 97.1669 9
3 0 9 637.193 91.7811 8
-3 0 -10 998.993 145.431 2
-3 0 -10 642.247 99.2012 9
3 0 10 838.952 112.664 8
-3 0 -11 37.7629 45.7891 2
-3 0 -12 23.1622 62.9413 7
-3 0 -12 -87.6752 51.8753 2
-3 -1 11 163.168 80.4428 8
-3 -1 11 228.361 95.113 6
3 1 -11 226.193 86.5623 2
3 1 -10 111.546 58.5533 2
-3 -1 10 108.477 61.695 8
3 1 -9 3.08969 31.783 2
-3 -1 9 10.7723 33.7696 8
3 1 -8 46.8735 31.8925 2
-3 -1 8 18.5459 21.8028 8
3 1 -7 317.662 73.3669 2
-3 -1 7 217.47 59.0598 8
3 1 -6 107.604 41.4053 2
-3 -1 6 202.462 54.3903 8
3 1 -5 1316.6 128.009 2
3 1 -5 1310.63 118.656 9
-3 -1 5 1410.03 140.345 8
3 1 -4 2102.24 148.908 1
3 1 -4 2423.91 162.031 2
3 1 -4 2188.77 147.264 9
-3 -1 4 2172.75 162.987 8
3 1 -4 2236.83 171.963 8
3 1 -3 15025.9 376.758 2
-3 -1 3 14153.9 314.784 6
3 1 -3 14932 361.063 9
-3 -1 3 14841.7 392.509 8
3 1 -3 15045 369.94 1
-3 -1 2 9485.28 162.667 7
-3 -1 2 9873.31 231.759 6
3 1 -2 10182.9 281.709 9
-3 -1 2 10540.8 309.497 8
3 1 -2 9974.26 283.719 1
-3 -1 1 3338.02 115.547 7
-3 -1 1 3400.78 119.327 6
-3 -1 1 3813.49 177.988 8
3 1 -1 3543.65 159.354 1
3 1 -1 3431.29 158.337 9
-3 -1 1 3482.06 163.167 1
-3 -1 0 26862.2 293.52 6
3 1 0 27398.4 300.587 6
3 1 0 26444.5 417.053 9
-3 -1 0 26926.1 439.097 8
3 1 1 1402.44 53.9566 3
3 1 1 1401.79 72.178 6
3 1 1 1464.98 64.8157 5
3 1 1 1243.01 89.4531 9
-3 -1 -2 208.219 27.3167 3
3 1 2 209.608 37.3611 9
3 1 2 189.226 39.3605 8
-3 -1 -3 3491.51 126.991 3
-3 -1 -3 3604.26 150.732 9
3 1 3 3419.46 155.235 9
-3 -1 -4 6910.05 212.816 3
3 1 4 6447.83 250.02 1
-3 -1 -4 6266.33 202.877 9
-3 -1 -4 6611.85 234.677 2
3 1 4 6387.79 140.235 4
3 1 5 2082.17 153.446 1
-3 -1 -5 2086.71 142.217 2
-3 -1 -5 2056.98 121.864 9
-3 -1 -6 1701.03 139.746 2
-3 -1 -6 1589.93 112.414 9
-3 -1 -7 44.8446 23.4875 9
-3 -1 -7 122.669 42.6351 2
3 1 7 79.0495 38.8341 8
-3 -1 -8 664.464 98.4833 2
-3 -1 -8 614.769 78.7924 9
3 1 8 573.268 92.1935 8
3 1 9 279.038 71.9851 8
-3 -1 -9 187.53 44.7406 9
-3 -1 -9 281.27 74.6451 2
3 1 10 8.74109 31.6004 8
-3 -1 -10 31.4433 27.7408 9
-3 -1 -10 77.838 50.6995 7
-3 -1 -10 68.107 42.524 2
3 1 11 26.6792 38.4237 8
-3 -1 -11 32.0532 42.9077 7
-3 -1 -11 42.4369 23.7791 2
-3 -1 -12 36.2526 23.9553 7
-3 -1 -12 -37.5162 51.1904 2
-3 -2 11 190.215 86.1692 6
3 2 -11 121.352 62.9871 2
-3 -2 11 156.314 69.0163 8
-3 -2 10 425.56 111.219 6
3 2 -10 524.992 118.875 2
-3 -2 10 517.009 108.349 8
3 2 -9 53.33 39.1917 2
-3 -2 9 77.0728 44.659 6
-3 -2 9 55.749 42.1096 8
-3 -2 8 43.8602 35.5274 6
3 2 -8 -7.09002 40.3809 2
-3 -2 8 8.13808 29.6303 8
-3 -2 7 604.332 98.7206 6
3 2 -7 595.145 101.331 2
-3 -2 7 528.374 90.8966 8
-3 -2 6 359.682 72.3541 8
-3 -2 6 375.427 72.6235 6
3 2 -6 355.49 78.6613 2
3 2 -5 1593.78 145.581 2
-3 -2 5 1625.35 138.213 6
-3 -2 5 1710.63 148.916 8
3 2 -4 2195.39 72.7895 7
-3 -2 4 2403.22 163.963 8
3 2 -4 2326.4 163.875 2
-3 -2 4 2431.33 155.064 6
3 2 -4 2250.85 167.795 8
3 2 -3 7846.63 281.723 1
3 2 -3 7609.67 154.173 7
3 2 -3 7363.5 266.884 2
-3 -2 3 7551.49 248.847 6
-3 -2 3 7713.77 279.54 8
3 2 -3 8335.35 302.489 8
-3 -2 2 2542.6 103.593 7
3 2 -2 2584.68 100.044 7
3 2 -2 2625.48 146.783 2
-3 -2 2 2461.47 128.355 6
-3 -2 2 2899.8 163.06 8
3 2 -2 2610.05 162.36 8
3 2 -2 2708.6 156.73 1
-3 -2 1 150.259 29.534 7
3 2 -1 156.844 31.1287 6
3 2 -1 181.39 40.3218 1
-3 -2 1 151.122 30.6263 6
3 2 -1 173.189 36.3358 9
-3 -2 1 181.51 38.4156 8
-3 -2 0 6424.76 191.145 7
-3 -2 0 6688.25 186.373 6
3 2 0 6748.12 191.11 6
-3 -2 0 6699.53 207.047 2
3 2 0 6459.86 207.659 9
3 2 0 6914.71 225.635 1
3 2 1 6.41327 11.6302 3
3 2 1 0.72554 12.7789 1
-3 -2 -1 7.76867 16.3109 7
-3 -2 -1 -13.2222 14.296 6
3 2 1 -11.4995 15.503 6
3 2 1 13.1754 13.7511 9
-3 -2 -2 40.3472 15.6045 3
-3 -2 -2 41.4582 25.3675 7
3 2 2 31.3797 13.7075 3
3 2 2 33.5096 16.8684 6
3 2 2 52.0675 21.8214 1
3 2 2 33.8033 13.4815 9
3 2 3 24.6244 15.1747 9
-3 -2 -3 29.0542 20.4369 9
3 2 3 52.749 25.7405 1
3 2 4 79.3232 22.1916 9
-3 -2 -4 69.8552 26.5912 3
-3 -2 -4 130.884 40.7162 7
-3 -2 -4 88.7034 29.4032 2
3 2 4 53.5414 26.5573 1
-3 -2 -4 68.6769 20.6279 9
-3 -2 -5 472.887 64.4769 3
-3 -2 -5 446.814 71.3927 7
3 2 5 412.182 69.4547 1
-3 -2 -5 473.544 61.3688 2
-3 -2 -5 479.245 33.8943 5
-3 -2 -5 462.641 51.5188 9
-3 -2 -5 573.499 81.2251 1
-3 -2 -6 10402.9 332.444 3
-3 -2 -6 9262.68 343.355 7
3 2 6 8890.01 151.55 10
3 2 6 9394.6 342.012 1
-3 -2 -6 9105.85 186.132 5
-3 -2 -6 10246 307.899 2
-3 -2 -6 8843.37 229.997 9
-3 -2 -7 5775.47 288.298 7
-3 -2 -7 5881.89 251.946 2
-3 -2 -7 5331.06 168.808 5
-3 -2 -7 5385.65 186.342 9
3 2 7 5618.63 287.12 8
3 2 8 53.6941 30.8219 8
-3 -2 -8 83.2822 39.2076 3
-3 -2 -8 30.0803 19.2689 9
-3 -2 -8 29.6351 14.1798 5
-3 -2 -8 -9.58527 16.7523 2
3 2 9 18.3535 26.8131 8
-3 -2 -9 12.278 29.938 7
-3 -2 -9 -12.6682 27.5798 3
-3 -2 -9 18.9412 13.5171 9
-3 -2 -9 29.7691 23.3285 2
3 2 10 144.264 62.1007 8
-3 -2 -10 75.4242 52.85 7
-3 -2 -10 183.058 72.6831 3
-3 -2 -10 32.148 23.5372 2
3 2 11 211.073 73.6228 8
-3 -2 -11 137.015 60.4122 7
-3 -2 -11 132.416 65.691 3
-3 -2 -11 181.672 58.9423 2
-3 -2 -12 6.1106 22.2906 7
-3 -2 -12 25.4578 28.4254 3
3 3 -10 13.5518 34.7844 2
-3 -3 10 8.88636 38.0544 6
-3 -3 10 -25.2548 40.6391 8
-3 -3 9 176.467 69.3428 6
3 3 -9 77.6059 56.2037 2
-3 -3 9 53.9638 35.3137 8
-3 -3 8 312.478 73.1155 8
-3 -3 8 279.591 80.951 6
3 3 -8 263.582 77.0934 2
3 3 -7 353.225 82.7713 2
3 3 -7 374.038 45.6702 7
-3 -3 7 459.45 90.1323 6
-3 -3 7 445.557 82.024 8
-3 -3 6 15357 478.678 6
3 3 -6 15293.6 491.413 2
-3 -3 6 16303 461.108 8
3 3 -5 1736.61 99.4264 7
-3 -3 5 1763.92 153.162 6
3 3 -5 1893.31 162.007 2
-3 -3 5 1830.12 147.332 8
3 3 -5 1789.38 155.609 8
3 3 -4 5343.01 174.538 7
-3 -3 4 6751.09 273.561 6
3 3 -4 6856.23 283.515 2
-3 -3 4 7732.69 295.66 8
3 3 -4 5189.17 252.112 8
3 3 -3 328.988 44.5496 7
3 3 -3 265.561 57.8565 1
-3 -3 3 302.39 54.5774 6
3 3 -3 315.871 58.4045 2
-3 -3 3 362.669 60.6013 8
3 3 -3 390.36 66.4844 8
-3 -3 2 -2.19453 10.5419 7
3 3 -2 25.784 19.037 7
-3 -3 2 -8.12327 14.8127 6
3 3 -2 -6.11745 16.3442 2
3 3 -2 4.35656 18.2362 6
3 3 -2 21.7792 25.5111 1
-3 -3 2 17.0357 19.0218 8
3 3 -2 2.50823 18.9112 8
-3 -3 1 3683.14 152.804 7
3 3 -1 3784.07 155.082 7
-3 -3 1 3649.72 166.232 6
3 3 -1 3730.29 161.476 2
3 3 -1 3840.82 172.908 6
-3 -3 1 3908.24 177.392 2
3 3 -1 3949.6 193.989 8
3 3 -1 4038.45 188.397 1
3 3 0 3.49867 17.7517 1
-3 -3 0 16.1833 13.9759 7
3 3 0 49.6416 19.7373 7
-3 -3 0 21.0037 15.6938 6
3 3 0 30.8907 18.9889 6
-3 -3 0 53.0702 22.7757 2
3 3 1 6.62586 12.7135 3
-3 -3 -1 35.7493 21.3493 7
3 3 1 9.60235 9.09285 7
-3 -3 -1 -5.76837 12.8049 6
3 3 1 3.95001 13.0466 1
3 3 1 -2.39076 11.2081 6
-3 -3 -1 27.2997 13.3183 2
3 3 1 1.55514 13.0808 9
-3 -3 -2 5857.89 199.435 3
3 3 2 6204.16 208.323 3
-3 -3 -2 6348.37 231.039 7
3 3 2 6046.76 217.139 6
-3 -3 -2 5942.17 157.091 2
3 3 2 6101.01 184.811 9
3 3 2 5907.71 217.372 1
-3 -3 -3 7449.14 241.222 3
3 3 3 7098.27 239.483 1
3 3 3 6888.47 229.911 3
-3 -3 -3 7376.28 264.285 7
3 3 3 6866.12 185.001 9
3 3 3 6313.17 238.638 6
3 3 3 6902.83 129.405 5
-3 -3 -3 6231.54 241.529 1
-3 -3 -4 2475.39 146.804 3
-3 -3 -4 1893.61 140.779 1
-3 -3 -4 2412.01 158.081 7
3 3 4 2372.01 149.313 1
3 3 4 2357.3 107.117 9
-3 -3 -4 2480.88 106.696 9
-3 -3 -4 2362.52 105.884 2
3 3 5 181.378 22.1807 4
-3 -3 -5 236.061 39.0799 2
3 3 5 175.428 43.6089 1
-3 -3 -5 239.425 51.4448 3
-3 -3 -5 207.125 51.7971 7
-3 -3 -5 257.031 52.8247 1
3 3 5 180.027 32.1658 10
-3 -3 -5 226.353 30.9228 9
-3 -3 -6 6676.05 278.069 3
-3 -3 -6 6319.5 290.137 7
-3 -3 -6 6385.36 213.629 2
3 3 6 6604.47 282.125 1
-3 -3 -6 6192.75 281.535 1
-3 -3 -6 6277.98 176.554 5
3 3 6 6568.57 179.908 10
-3 -3 -6 6578.13 164.957 9
3 3 6 6758.73 311.061 8
3 3 7 118.696 47.393 8
-3 -3 -7 47.6761 27.8539 7
-3 -3 -7 92.9313 46.5623 3
-3 -3 -7 107.012 23.3196 9
-3 -3 -7 91.783 26.2699 5
-3 -3 -7 136.705 37.1316 2
3 3 8 -14.7075 34.035 8
-3 -3 -8 -12.7243 27.7725 7
-3 -3 -8 -31.4819 41.515 3
-3 -3 -8 -9.11149 20.4393 2
-3 -3 -8 8.62402 10.3596 9
-3 -3 -8 -13.0146 15.9398 5
3 3 9 63.9878 37.1334 8
-3 -3 -9 45.0943 35.3097 7
-3 -3 -9 101.346 47.5211 3
-3 -3 -9 23.8345 17.864 2
3 3 10 527.667 106.265 8
-3 -3 -10 562.501 110.741 7
-3 -3 -10 494.459 99.8836 3
-3 -3 -10 495.951 82.9179 2
3 3 11 53.4019 48.5664 8
-3 -3 -11 -48.1181 39.3584 7
-3 -3 -11 31.477 32.6038 3
3 3 12 0.18516 35.8939 8
-3 -3 -12 8.06396 26.9618 7
-3 -3 -12 -5.66004 31.6768 3
3 4 -10 148.801 78.5037 2
-3 -4 10 5.86757 39.4767 6
-3 -4 9 253.728 84.8359 6
3 4 -9 184.748 77.6939 2
-3 -4 9 253.246 74.5417 8
-3 -4 8 383.18 87.6118 6
3 4 -8 560.39 111.517 2
-3 -4 8 580.559 96.7631 8
3 4 -7 -43.7058 22.4779 7
-3 -4 7 -19.773 26.7351 6
-3 -4 7 6.65209 19.0967 8
3 4 -7 -58.0567 49.9758 2
3 4 -6 9492.08 289.98 7
-3 -4 6 10530.4 409.885 6
3 4 -6 10227.4 409.441 2
-3 -4 6 10790 369.672 8
3 4 -5 870.564 87.1575 7
-3 -4 5 1223.79 130.565 6
3 4 -5 1144.11 133.592 2
-3 -4 5 1284.37 119.059 8
3 4 -5 1279.63 128.577 8
3 4 -4 2551.42 148.204 7
-3 -4 4 2972.19 191.672 6
3 4 -4 2799.36 188.402 2
3 4 -4 2293.98 166.029 8
-3 -4 4 3006.78 172.924 8
3 4 -3 2829.47 156.354 7
-3 -4 3 2785.48 177.523 6
3 4 -3 2816.64 176.466 2
-3 -4 3 2965.06 196.928 2
3 4 -3 3013.38 184.084 8
-3 -4 2 159.825 36.9179 7
3 4 -2 179.743 39.5369 7
3 4 -2 183.184 49.0007 1
-3 -4 2 143.509 40.4284 6
3 4 -2 145.743 44.3205 6
3 4 -2 144.62 41.5222 2
3 4 -2 195.083 48.4512 8
-3 -4 2 120.864 38.905 2
-3 -4 1 1395.43 108.719 7
3 4 -1 1343.16 106.334 7
-3 -4 1 1311.97 111.779 6
3 4 -1 1421.78 104.105 2
-3 -4 1 1460.88 115.515 2
3 4 -1 1531.61 123.879 8
3 4 -1 1419.23 119.331 1
3 4 0 6139.45 238.196 3
-3 -4 0 5982.09 227.267 7
3 4 0 5978.25 231.619 7
-3 -4 0 5766.89 225.277 6
3 4 0 5894.36 188.764 2
-3 -4 0 5993.24 208.047 2
3 4 0 5706.07 227.455 1
-3 -4 -1 10144.6 310.441 7
3 4 1 10322.2 310.216 7
3 4 1 10109.3 303.433 3
-3 -4 -1 9325.53 283.025 6
-3 -4 -1 9798.06 229.049 2
3 4 1 9843.33 288.107 1
-3 -4 -2 6410.28 237.697 3
3 4 2 6446.66 243.294 3
-3 -4 -2 6573.99 256.571 7
-3 -4 -2 6155.7 151.648 2
3 4 2 6360.34 231.734 1
3 4 2 6004.52 188.138 9
-3 -4 -2 6378.02 238.429 1
-3 -4 -3 22475.6 461.435 3
3 4 3 22320.5 462.314 3
-3 -4 -3 21860.6 483.232 7
-3 -4 -3 20740 224.99 2
3 4 3 21515.9 423.409 1
3 4 3 21196.3 323.823 5
3 4 3 20599.8 322.12 9
-3 -4 -3 21813.2 446.518 1
-3 -4 -4 3603.01 197.126 3
-3 -4 -4 3409.98 201.439 7
3 4 4 3053.3 183.497 3
3 4 4 3531.02 181.407 1
3 4 4 3686.91 179.335 10
-3 -4 -4 3383.97 90.8436 2
3 4 4 3129.11 114.116 9
3 4 4 3649.76 129.436 5
-3 -4 -4 2646.67 166.83 1
-3 -4 -5 345.509 64.6402 1
3 4 5 296.697 39.8537 4
-3 -4 -5 349.716 69.2728 3
-3 -4 -5 282.992 59.183 7
3 4 5 308.648 60.6106 1
-3 -4 -5 326.371 32.2828 2
3 4 5 362.956 54.2355 10
3 4 5 322.873 33.4218 9
3 4 6 -32.7613 34.7441 8
3 4 6 -10.2264 24.0642 1
-3 -4 -6 -44.84 42.4892 7
-3 -4 -6 -31.5914 42.2876 3
3 4 6 12.973 11.4061 10
-3 -4 -6 8.01759 9.30645 2
3 4 6 5.261 8.25709 4
-3 -4 -6 2.31069 20.4771 1
3 4 7 175.037 57.6677 8
3 4 7 198.14 35.4239 10
-3 -4 -7 103.436 44.4116 7
-3 -4 -7 172.058 60.3498 3
-3 -4 -7 159.944 33.672 5
-3 -4 -7 197.495 35.7887 2
3 4 8 -26.0655 35.1251 8
-3 -4 -8 -22.1677 42.1252 7
-3 -4 -8 -10.9219 33.2284 3
-3 -4 -8 21.2751 16.2686 5
-3 -4 -8 4.2739 14.7326 2
-3 -4 -9 699.96 119.242 7
-3 -4 -9 685.145 116.643 3
-3 -4 -9 848.437 90.0923 2
3 4 9 801.388 131.476 8
3 4 10 110.895 63.4162 8
-3 -4 -10 53.6649 25.7892 7
-3 -4 -10 29.1822 41.5173 3
3 4 11 85.7507 55.4742 8
-3 -4 -11 22.0642 24.8097 7
-3 -4 -11 16.6234 28.5482 3
3 4 12 6.04785 29.6813 8
-3 -4 -12 -118.139 58.6634 7
-3 -5 10 -13.4694 39.0686 6
3 5 -10 -41.559 51.011 2
-3 -5 9 -11.8789 37.1421 6
3 5 -9 48.2876 43.0742 2
-3 -5 8 22.9961 38.6446 6
3 5 -8 41.2679 31.2447 2
-3 -5 8 48.3305 30.3553 8
-3 -5 7 78.5591 44.452 6
3 5 -7 92.5576 49.0883 2
-3 -5 7 55.5223 29.6557 8
3 5 -6 68.7472 20.5614 7
-3 -5 6 188.31 63.6534 6
3 5 -6 120.972 44.899 2
3 5 -6 133.649 43.3308 8
3 5 -5 543.294 79.5988 7
3 5 -5 771.663 112.786 2
-3 -5 5 570.522 82.8252 6
3 5 -5 629.78 87.939 8
3 5 -4 7.32169 15.6623 7
-3 -5 4 2.33383 20.3464 6
3 5 -4 26.1474 26.9456 2
3 5 -4 37.8153 28.5863 8
3 5 -3 3479.24 198.455 8
3 5 -3 3414.56 197.231 7
-3 -5 3 3275.92 205.975 6
3 5 -3 3463.89 202.618 2
3 5 -2 1299.67 126.258 1
3 5 -2 1208 117.227 7
-3 -5 2 1093.92 113.876 6
3 5 -2 1242.31 112.572 2
-3 -5 2 951.566 108.196 2
3 5 -2 1311.44 121.535 8
-3 -5 1 17885 437.365 7
3 5 -1 17163.5 445.823 7
-3 -5 1 17842.4 455.377 6
3 5 -1 17502.5 382.646 2
-3 -5 1 18639.8 439.363 2
3 5 -1 18844.7 437.536 8
3 5 -1 17254 441.832 1
3 5 0 4054.08 217.038 3
-3 -5 0 3831.57 206.731 7
3 5 0 3947.13 209.315 7
-3 -5 0 3560.11 196.193 6
3 5 0 3640.61 155.959 2
-3 -5 0 3748.28 173.421 2
3 5 0 3786.68 194.124 1
3 5 1 2308.08 162.441 3
-3 -5 -1 1982.5 149.745 7
3 5 1 2093.71 154.288 7
-3 -5 -1 1878.78 142.348 6
3 5 1 2039.86 99.5291 2
-3 -5 -1 2260.02 115.983 2
3 5 1 2037.01 136.499 1
3 5 2 3041.32 187.74 3
-3 -5 -2 3086.99 191.088 7
-3 -5 -2 2876.82 176.029 6
3 5 2 3058.36 165.384 1
-3 -5 -2 2977.31 104.171 2
-3 -5 -2 3058.79 173.098 1
-3 -5 -3 3613.36 206.276 3
3 5 3 3460.79 200.391 3
-3 -5 -3 3833.61 219.397 7
3 5 3 3569.64 200.598 10
3 5 3 3505.04 175.814 1
3 5 3 3469.9 161.865 5
3 5 3 3389.48 136.788 9
-3 -5 -3 3463.58 186.61 1
-3 -5 -4 914.556 106.646 3
-3 -5 -4 767.702 104.057 7
3 5 4 787.967 57.2065 9
3 5 4 846.233 91.0917 1
3 5 4 821.778 91.645 10
-3 -5 -4 827.57 92.6131 1
3 5 4 828.772 76.7528 5
-3 -5 -5 1178.37 126.672 3
-3 -5 -5 1050.42 124.026 7
3 5 5 1111.7 109.677 1
3 5 5 990.682 102.875 10
3 5 5 937.538 48.6688 9
3 5 5 1016.03 86.2268 5
-3 -5 -5 957.309 103.157 1
3 5 5 944.947 87.1905 4
-3 -5 -6 578.643 97.9313 3
3 5 6 546.461 98.6259 8
3 5 6 450.706 75.0732 1
3 5 6 475.229 68.092 10
-3 -5 -6 510.061 94.0309 7
-3 -5 -6 591.242 86.9773 1
3 5 6 392.723 52.0709 4
-3 -5 -7 4361.44 269.245 3
-3 -5 -7 4235.01 273.28 7
3 5 7 3958.88 228.271 1
3 5 7 3416.83 175.656 10
3 5 7 4371.91 292.211 8
3 5 8 28.0044 28.8772 8
-3 -5 -8 11.3767 51.2153 7
-3 -5 -8 38.625 40.2073 3
-3 -5 -8 25.3269 13.9555 2
3 5 9 502.559 113.201 8
-3 -5 -9 434.271 97.6177 7
-3 -5 -9 495.776 101.929 3
-3 -5 -10 -27.7482 42.3794 7
-3 -5 -10 -27.1996 44.9636 3
3 5 11 102.116 65.048 8
-3 -5 -11 78.7519 58.186 7
-3 -5 -11 95.1644 65.2575 3
3 5 12 -24.006 26.3779 8
-3 -5 -12 -23.8082 35.3611 7
-3 -6 9 311.84 99.9115 6
3 6 -9 436.983 110.913 2
-3 -6 8 -34.2759 53.3321 6
3 6 -8 -65.6514 46.4095 2
-3 -6 7 -165.211 64.0135 6
3 6 -7 29.7238 23.5114 2
-3 -6 6 815.395 125.321 6
3 6 -6 817.702 130.757 2
-3 -6 5 117.178 58.38 6
3 6 -5 2.81607 35.722 2
3 6 -5 86.6204 36.5945 8
-3 -6 4 2792.26 211.81 6
3 6 -4 2537.31 199.635 2
3 6 -4 2215.52 163.991 8
-3 -6 3 1389.83 144.584 6
3 6 -3 1251.29 130.288 2
-3 -6 2 264.467 61.4566 2
3 6 -2 261.125 61.0251 7
3 6 -2 183.723 52.0064 1
-3 -6 2 175.604 48.1247 6
3 6 -2 289.302 58.7849 2
3 6 -2 212.35 50.6442 8
-3 -6 1 109.881 35.4887 2
3 6 -1 162.721 52.6074 7
3 6 -1 101.066 39.0728 1
-3 -6 1 83.4799 36.8499 6
3 6 -1 67.4355 30.5143 8
3 6 -1 67.9311 31.1051 2
-3 -6 0 119.224 34.6114 2
-3 -6 0 111.04 39.0712 7
-3 -6 0 83.004 28.5171 6
3 6 0 128.148 40.9203 1
3 6 0 146.515 33.3162 2
-3 -6 -1 10845.1 382.795 7
-3 -6 -1 10488.6 361.86 6
3 6 1 11033.5 246.021 2
-3 -6 -1 11131.3 272.696 2
3 6 1 11295.1 337.451 1
-3 -6 -2 2119.05 151.715 1
-3 -6 -2 2171.54 174.401 7
-3 -6 -2 1940.48 156.955 6
-3 -6 -2 2083.37 88.4988 2
3 6 2 2088.08 145.221 1
-3 -6 -3 444.973 79.1962 3
-3 -6 -3 419.167 79.9001 7
3 6 3 421.706 72.3881 10
3 6 3 456.56 66.8585 5
3 6 3 408.005 62.8679 1
-3 -6 -3 476.953 71.9158 1
-3 -6 -4 4284.23 252.83 3
-3 -6 -4 4192.83 255.862 7
3 6 4 4183.2 141.543 9
3 6 4 4197.45 236.193 10
3 6 4 4225.36 200.49 1
3 6 4 4450.98 205.518 5
-3 -6 -4 4079.6 208.869 1
3 6 5 465.49 91.1132 8
-3 -6 -5 505.823 90.4848 3
-3 -6 -5 521.027 95.3731 7
3 6 5 490.157 71.925 1
3 6 5 584.817 88.1683 10
3 6 5 473.19 33.5934 9
-3 -6 -5 414.369 68.0064 1
3 6 5 497.02 74.9945 4
3 6 5 519.296 70.791 5
3 6 6 410.378 90.9733 8
-3 -6 -6 667.031 108.98 3
-3 -6 -6 634.217 109.812 7
3 6 6 561.131 81.2661 1
3 6 6 514.72 79.5576 10
3 6 6 708.206 84.9908 5
-3 -6 -6 571.345 82.4335 1
3 6 6 526.804 70.3295 4
-3 -6 -7 9383.68 419.835 3
-3 -6 -7 9965.22 441.481 7
3 6 7 9331.69 345.743 1
3 6 7 8193.52 308.254 10
-3 -6 -7 8338.39 333.667 1
3 6 7 8797.02 264.215 4
3 6 7 10294.3 464.816 8
-3 -6 -8 3413.22 265.815 3
-3 -6 -8 3286.8 267.73 7
3 6 8 3082.86 270.074 8
3 6 9 -39.3659 53.4938 8
-3 -6 -9 18.6279 41.1337 7
-3 -6 -9 57.3392 49.6371 3
3 6 10 96.1989 57.514 8
-3 -6 -10 144.527 69.6385 7
-3 -6 -10 151.19 75.4038 3
3 6 11 58.0229 49.0005 8
-3 -6 -11 32.4505 37.2744 7
-3 -6 -11 -41.6933 35.4708 3
-3 -7 8 54.6528 52.7571 6
3 7 -8 104.496 55.922 2
-3 -7 7 22.6515 40.1597 6
3 7 -7 1.70375 25.9411 2
-3 -7 6 84.2929 38.1964 6
3 7 -6 77.3713 45.3133 2
-3 -7 5 7.77627 42.8191 6
3 7 -5 31.409 36.862 2
3 7 -5 8.33696 14.4791 8
-3 -7 4 40.5115 36.9855 6
3 7 -4 2.23529 21.4485 8
3 7 -4 57.7363 32.2764 2
3 7 -3 145.559 43.8784 8
3 7 -3 128.203 54.187 1
-3 -7 3 132.242 47.6164 6
3 7 -3 151.774 50.5429 2
3 7 -2 212.846 59.0262 1
-3 -7 2 248.224 64.9672 6
3 7 -2 251.619 58.2317 2
3 7 -2 208.022 49.3792 8
-3 -7 1 6785.1 322.168 6
3 7 -1 6421.1 262.773 2
-3 -7 1 6597.1 288.262 2
3 7 -1 6936.89 310.474 1
-3 -7 0 8326.75 357.048 7
-3 -7 0 8118.27 345.12 6
3 7 0 8038.76 263.853 2
-3 -7 0 8104.96 288.13 2
3 7 0 8325.76 320.176 1
-3 -7 -1 143.103 57.7438 7
-3 -7 -1 140.834 30.988 2
-3 -7 -1 156.065 38.3785 6
3 7 1 132.606 28.614 2
3 7 1 155.725 44.47 1
3 7 2 6.13401 7.94127 2
-3 -7 -2 -6.57468 30.0808 7
-3 -7 -2 -16.093 39.2374 6
3 7 2 0.53274 17.0373 1
3 7 3 276.263 52.6813 1
-3 -7 -3 281.022 70.2839 7
3 7 3 213.366 51.575 5
-3 -7 -4 1439.4 157.234 3
-3 -7 -4 1346.63 155.47 7
3 7 4 1126.87 106.29 1
3 7 4 1442.82 132.274 5
3 7 4 1330.73 157.991 8
-3 -7 -4 850.321 95.1419 1
-3 -7 -5 1395.68 159.128 3
-3 -7 -5 1440.12 165.795 7
3 7 5 1484.94 134.773 5
3 7 5 1307.98 117.638 1
3 7 5 1373.04 168.078 8
3 7 5 1254.05 62.7992 9
-3 -7 -5 1155.38 113.658 1
3 7 6 629.862 120.032 8
-3 -7 -6 487.927 96.1593 3
-3 -7 -6 405.287 87.2913 7
3 7 6 528.929 76.1718 1
3 7 6 643.028 89.2874 5
-3 -7 -6 467.496 76.9368 1
3 7 6 498.691 78.1082 4
-3 -7 -7 859.762 135.964 3
3 7 7 842.283 140.55 8
-3 -7 -7 811.024 133.622 7
-3 -7 -8 2144.41 222.68 3
-3 -7 -8 2529.86 243.704 7
3 7 8 2185.46 237.249 8
3 7 9 -27.8018 60.5321 8
-3 -7 -9 50.8383 49.0436 7
-3 -7 -9 109.208 58.1871 3
3 7 10 23.7354 36.3653 8
-3 -7 -10 -3.89475 47.4194 7
-3 -7 -10 -3.768 29.9149 3
-3 -7 -11 47.3735 64.3568 7
-3 -8 8 -30.6018 33.3838 6
3 8 -8 46.3861 53.4828 2
-3 -8 7 -11.2088 53.186 6
3 8 -7 37.7397 50.1895 2
-3 -8 6 29.3021 35.7124 6
3 8 -6 54.0321 53.2495 2
-3 -8 5 337.083 89.9426 6
3 8 -5 205.724 69.32 2
-3 -8 4 17.6513 24.4635 6
3 8 -4 44.491 38.1911 2
3 8 -3 597.389 102.616 2
-3 -8 3 686.451 118.193 6
3 8 -3 575.32 103.316 1
3 8 -3 650.904 91.653 8
3 8 -2 1034.37 115.018 8
-3 -8 2 1016.55 135.624 6
3 8 -2 1123.01 129.472 2
3 8 -2 1250.18 143.887 1
-3 -8 1 8535.55 386.217 6
3 8 -1 8255.02 316.13 2
-3 -8 1 7798.08 334.16 2
3 8 -1 8496.59 367.041 1
-3 -8 0 7616.03 360.256 6
3 8 0 7159.66 267.394 2
3 8 0 7001.16 312.921 1
-3 -8 -1 602.374 108.343 7
-3 -8 -1 553.703 94.1035 6
3 8 1 660.97 71.2639 2
3 8 1 598.936 89.5645 1
3 8 2 107.154 23.4824 2
-3 -8 -2 138.614 51.1496 7
3 8 2 61.5273 29.2379 1
-3 -8 -3 1339.33 164.313 7
3 8 3 1546.96 155.047 5
3 8 3 1489.04 128.525 1
3 8 3 1518.99 169.793 8
-3 -8 -4 2352.86 208.066 3
-3 -8 -4 2188.19 213.219 7
3 8 4 2061.14 144.736 1
3 8 4 2140.65 181.703 5
3 8 4 1993.96 204.787 8
3 8 5 155.285 64.6639 8
3 8 5 57.3275 37.4186 5
-3 -8 -5 49.7233 32.6108 3
-3 -8 -5 82.6889 47.1267 7
3 8 5 70.704 34.6965 1
3 8 6 171.216 62.7223 8
-3 -8 -6 197.94 62.6741 3
3 8 6 176.077 44.7967 1
-3 -8 -6 169.924 65.8931 7
3 8 6 199.975 55.2655 5
3 8 7 145.696 67.1332 8
3 8 7 90.1882 37.1579 5
-3 -8 -7 32.9865 30.8314 3
-3 -8 -7 47.1013 40.282 7
3 8 8 109.678 55.8537 8
-3 -8 -8 25.9252 29.8153 3
-3 -8 -8 44.6853 39.6622 7
3 8 9 27.6638 40.6276 8
-3 -8 -9 137.078 72.5497 7
-3 -8 -9 131.166 69.0458 3
-3 -8 -10 41.5479 50.7912 7
-3 -9 7 7.4742 40.6978 6
3 9 -7 57.02 50.7116 2
-3 -9 6 -46.939 45.5088 6
3 9 -6 -23.4138 48.9453 2
-3 -9 5 33.0371 44.1808 6
3 9 -5 39.6437 50.3125 2
-3 -9 4 12.6333 46.5286 6
3 9 -4 41.7324 27.0791 1
3 9 -4 35.1301 31.5957 2
-3 -9 3 5.44041 27.8971 6
3 9 -3 1.1874 31.7739 1
3 9 -3 17.3545 30.4992 2
-3 -9 2 185.479 63.8089 6
3 9 -2 187.429 62.173 1
3 9 -2 177.579 55.7067 2
-3 -9 1 18.0375 25.5176 6
3 9 -1 46.7275 31.513 2
3 9 -1 32.5807 25.4969 1
3 9 0 522.895 91.5306 1
-3 -9 0 523.483 103.101 6
3 9 0 462.784 72.0277 2
-3 -9 -1 646.747 113.602 6
3 9 1 680.48 79.0431 2
3 9 1 731.37 99.3393 1
3 9 1 714.425 116.743 8
3 9 2 -21.2302 44.8695 8
-3 -9 -2 -10.9008 34.7164 6
3 9 2 45.9431 30.9965 1
3 9 2 -32.4666 46.7533 5
3 9 2 20.7504 12.5945 2
3 9 3 -4.97574 36.9448 8
3 9 3 69.6435 29.5847 5
-3 -9 -3 81.8572 45.8225 7
3 9 3 118.091 38.4839 1
-3 -9 -4 1937.81 212.437 7
3 9 4 1952.58 140.292 1
3 9 4 2043.76 190.168 5
3 9 4 2135 224.506 8
-3 -9 -5 1825.89 205.016 3
-3 -9 -5 1874.9 219.483 7
3 9 5 2014.3 142.139 1
3 9 5 2010.77 222.626 8
3 9 5 1952.64 185.719 5
3 9 6 -7.28539 45.8122 8
-3 -9 -6 -11.6006 30.5627 3
-3 -9 -6 19.8277 39.4635 7
3 9 6 -13.2504 30.3366 5
3 9 7 -35.7048 46.9021 8
-3 -9 -7 -2.844 30.5587 3
-3 -9 -7 -63.0961 48.9862 7
3 9 7 15.7583 25.1444 5
3 9 8 77.9071 59.3376 8
-3 -9 -8 131.654 63.7405 3
-3 -9 -8 50.1668 44.2834 7
-3 -9 -9 -126.857 67.4173 7
-3 -9 -10 -58.8796 49.105 7
3 10 -6 148.675 73.965 2
-3 -10 5 210.945 85.4401 6
3 10 -5 281.754 89.3914 1
3 10 -5 103.122 54.0596 2
-3 -10 4 526.542 124.004 6
3 10 -4 389.36 100.721 1
3 10 -4 401.834 100.612 2
-3 -10 3 179.636 72.1234 6
3 10 -3 253.32 76.8846 2
3 10 -3 144.839 63.9105 1
3 10 -2 12.2512 26.6938 8
3 10 -2 -25.4086 41.1555 1
-3 -10 2 11.8508 35.1746 6
3 10 -2 6.05752 25.0794 2
3 10 -1 152.491 53.7022 8
-3 -10 1 130.338 63.5943 6
3 10 -1 118.51 49.5815 1
3 10 -1 85.9344 41.4402 2
3 10 0 283.825 76.5224 8
3 10 0 267.824 69.5863 1
-3 -10 0 375.252 93.7469 6
3 10 0 234.119 55.4467 2
3 10 1 30.4817 25.0832 8
-3 -10 -1 32.4479 27.8914 6
3 10 1 -8.17297 19.6357 1
3 10 1 24.871 23.6177 2
3 10 2 39.9875 45.307 8
3 10 2 62.1447 30.5073 1
3 10 2 2.76359 27.971 5
3 10 3 185.356 70.9618 8
3 10 3 118.038 38.6926 1
3 10 3 74.756 44.5582 5
3 10 4 352.823 98.6578 8
-3 -10 -4 194.879 71.2793 7
3 10 4 287.315 79.1323 5
3 10 5 107.678 59.07 8
-3 -10 -5 73.3514 48.481 7
3 10 5 122.717 53.9273 5
-3 -10 -6 -5.08382 48.8308 3
-3 -10 -6 89.6394 62.7687 7
3 10 6 -2.14114 26.8789 5
3 10 7 56.6628 50.251 8
-3 -10 -7 100.701 72.5206 7
3 10 7 17.3204 21.9457 5
-3 -10 -8 106.84 66.6438 7
3 11 -5 -37.5984 42.7904 1
3 11 -5 1.83056 37.0984 2
3 11 -4 129.058 62.2395 1
-3 -11 4 196.295 87.7643 6
3 11 -4 85.8058 51.7157 2
3 11 -3 113.452 57.6794 1
-3 -11 3 208.537 83.5923 6
3 11 -3 100.066 50.765 2
3 11 -2 197.597 69.8371 1
-3 -11 2 130.465 57.7253 6
3 11 -2 70.3168 41.5542 2
3 11 -1 50.5059 44.7734 8
3 11 -1 92.3991 50.3278 1
-3 -11 1 51.3377 35.3905 6
3 11 -1 100.526 43.0483 2
3 11 0 61.8817 41.2308 8
-3 -11 0 70.727 42.652 6
3 11 0 90.7991 43.5698 1
-3 -11 -1 1045.9 163.146 6
3 11 1 1178.96 179.318 5
3 11 1 977.056 148.258 8
3 11 2 0.53726 29.7875 8
3 11 2 -27.8004 53.5042 5
3 11 3 97.8312 56.7081 8
3 11 3 53.5854 48.9225 5
3 11 4 67.6525 49.3664 8
3 11 4 51.0995 40.4772 5
3 11 5 86.6126 52.1521 8
3 11 5 43.8645 41.5214 5
3 11 6 53.4147 47.7408 8
3 11 6 84.326 62.0009 5
3 11 7 83.6752 51.7916 5
3 12 -3 152.452 73.5856 1
-3 -12 1 80.7678 63.1413 6
-3 -12 0 61.6102 54.397 6
3 12 0 116.295 71.5159 5
3 12 1 147.646 61.507 8
3 12 1 85.1111 56.1765 5
3 12 2 151.715 65.9331 8
3 12 2 220.337 89.6733 5
3 12 3 -18.6906 31.4032 8
3 12 3 145.255 62.0096 5
3 12 4 21.9453 34.2003 8
3 12 4 28.6019 34.1131 5
3 12 5 11.9227 31.0388 5
-4 9 2 13.7082 24.2422 9
-4 9 1 78.7709 49.8042 9
-4 9 1 66.139 53.4561 2
-4 9 0 162.676 84.2364 2
-4 8 4 -18.2266 35.0728 8
-4 8 3 -80.6496 47.0456 9
-4 8 3 -45.6696 45.0946 8
-4 8 2 31.9067 27.8106 9
-4 8 2 36.3211 34.7508 5
-4 8 1 53.5527 48.3923 9
-4 8 1 2.4093 42.7633 5
-4 8 0 -25.8892 31.9386 9
4 -8 0 -109.078 65.5457 10
-4 8 -1 -53.2814 50.9163 2
4 -8 1 27.6979 31.4565 10
-4 8 -1 -55.2454 42.4601 9
-4 8 -1 -57.7109 52.3793 5
-4 8 -2 80.0239 53.5196 5
-4 8 -2 101.479 66.8735 2
4 -8 2 121.652 75.3315 10
-4 8 -2 34.8745 43.3958 9
-4 8 -3 71.3413 52.5832 2
-4 8 -3 29.1244 39.2917 9
4 -8 3 62.1815 53.1556 10
-4 8 -3 64.0914 54.2982 5
-4 8 -4 167.781 77.7552 5
4 -8 4 201.962 91.5363 10
4 -8 5 -56.3401 47.9232 10
-4 8 -5 27.2993 38.8329 5
-4 8 -6 17.2224 35.0518 5
-4 7 5 215.988 95.8492 8
4 -7 -5 234.57 89.8301 10
4 -7 -5 198.228 83.682 4
-4 7 4 318.685 107.218 8
4 -7 -4 302.583 100.483 10
-4 7 4 226.859 69.6163 9
4 -7 -4 176.161 85.7305 4
4 -7 -3 2.40674 54.4297 10
-4 7 3 -62.7205 40.1493 9
-4 7 3 2.69387 27.307 5
4 -7 -3 -68.6323 47.8539 4
-4 7 3 36.7132 48.224 8
-4 7 2 -20.6217 32.7596 8
-4 7 2 20.6334 25.4699 9
-4 7 2 33.7705 36.5967 5
-4 7 1 59.4637 44.4667 9
4 -7 -1 46.4773 53.9581 10
-4 7 1 78.1772 49.2358 5
-4 7 1 20.2008 29.2189 8
4 -7 0 69.057 50.4349 10
-4 7 0 109.085 55.7114 9
-4 7 0 157.815 66.3738 5
-4 7 0 100.3 43.7604 8
-4 7 -1 39.9371 30.8564 9
4 -7 1 -12.0474 43.8014 10
-4 7 -1 33.7633 34.6955 5
-4 7 -2 91.21 61.9652 2
-4 7 -2 -15.0772 42.3582 9
4 -7 2 9.4111 36.4405 10
-4 7 -2 0.33515 35.6131 5
-4 7 -3 -81.2747 50.4253 2
4 -7 3 90.6117 66.7254 10
-4 7 -3 78.6257 42.9317 9
-4 7 -3 23.726 40.7772 5
-4 7 -4 -3.35504 33.4873 2
4 -7 4 36.7462 39.9739 10
-4 7 -4 135.925 71.3264 9
-4 7 -4 94.7027 61.4985 5
-4 7 -5 -27.0962 41.9607 2
4 -7 5 -44.8443 42.4131 10
-4 7 -5 -55.2349 29.0014 9
-4 7 -5 -32.2479 33.8342 5
4 -7 6 -86.3788 54.3172 10
-4 7 -6 35.3717 33.2889 5
4 -6 -7 63.2166 49.4486 10
4 -6 -7 -8.57338 30.6905 4
4 -6 -6 -37.9916 35.3968 3
4 -6 -6 28.0045 36.4628 10
4 -6 -6 6.80041 32.2541 4
-4 6 5 54.3112 49.1596 8
4 -6 -5 112.553 49.235 3
4 -6 -5 81.1883 60.2831 10
-4 6 5 146.733 52.9215 9
4 -6 -5 193.262 76.8189 4
4 -6 -4 152.865 54.4315 3
-4 6 4 161.078 68.866 8
-4 6 4 134.35 52.3012 9
4 -6 -4 121.543 66.4913 4
4 -6 -4 212.755 84.2591 10
4 -6 -3 -6.85008 39.8904 10
-4 6 3 -77.7413 41.8236 9
4 -6 -3 -81.4809 59.5494 4
-4 6 3 42.1841 49.5707 8
4 -6 -2 237.56 85.5285 10
-4 6 2 340.179 88.837 5
4 -6 -2 279.362 84.9004 4
-4 6 2 285.063 74.4227 9
-4 6 2 254.497 77.1911 8
-4 6 1 50.9682 36.2499 9
-4 6 1 91.6937 54.2686 5
4 -6 -1 61.9116 44.7014 4
-4 6 1 101.533 52.9618 8
4 -6 -1 61.449 60.6473 10
4 -6 0 145.059 68.8299 10
-4 6 0 217.506 76.3341 5
-4 6 0 161.914 67.9179 9
-4 6 0 117.923 51.2762 8
4 -6 1 400.959 96.2693 10
-4 6 -1 323.56 85.5351 9
-4 6 -1 345.575 86.9375 5
-4 6 -1 418.091 80.7592 8
-4 6 -2 50.4792 42.0705 9
4 -6 2 60.4858 43.9737 10
-4 6 -2 115.142 52.5991 5
-4 6 -2 117.086 42.4223 8
4 -6 3 1185.04 173.537 10
-4 6 -3 1366.61 179.848 9
-4 6 -3 1054.92 147.416 5
-4 6 -3 1188.07 173.81 2
4 -6 4 3208.31 282.042 10
-4 6 -4 3170.96 257.29 5
-4 6 -4 2862 273.54 2
-4 6 -4 2990.08 266.056 9
-4 6 -5 416.032 111.336 2
4 -6 5 449.614 105.458 10
-4 6 -5 546 123.774 9
-4 6 -5 502.319 107.268 5
-4 6 -6 -12.5368 51.7687 2
4 -6 6 -17.2688 29.24 10
-4 6 -6 66.6883 54.6413 9
-4 6 -6 -0.31938 29.0384 5
-4 6 -7 35.3716 39.4448 5
-4 6 -7 34.7804 46.468 9
4 -5 -8 99.7306 64.9747 3
4 -5 -8 94.5566 62.1648 10
4 -5 -8 94.9845 63.6606 4
4 -5 -7 5.9929 22.9544 3
4 -5 -7 8.40891 26.6191 10
4 -5 -7 13.1193 27.4136 4
-4 5 7 32.453 41.129 8
4 -5 -6 -4.84374 32.9047 3
4 -5 -6 0.58145 53.0809 10
4 -5 -6 4.21458 36.1049 4
-4 5 6 46.8898 61.18 8
4 -5 -5 32.2552 33.9372 3
4 -5 -5 41.137 41.9685 10
-4 5 5 127.771 50.3342 9
4 -5 -5 47.5925 35.7217 4
-4 5 5 33.2404 32.6065 8
4 -5 -4 2.02196 20.8719 3
4 -5 -4 0.86512 51.9186 10
-4 5 4 56.7987 32.0342 9
4 -5 -4 102.171 57.3817 4
-4 5 4 73.8951 47.3731 8
4 -5 -3 219.256 58.9387 3
-4 5 3 244.204 66.2949 9
4 -5 -3 235.881 70.393 4
-4 5 3 374.747 96.3168 8
4 -5 -3 393.562 105.454 10
-4 5 2 -16.6092 36.877 9
4 -5 -2 -35.8929 50.1343 10
-4 5 2 -6.2426 36.6744 5
4 -5 -2 2.38236 35.4918 4
-4 5 2 -2.97977 25.6934 8
-4 5 1 673.927 108.905 5
4 -5 -1 607.34 113.762 10
-4 5 1 702.495 113.998 9
-4 5 1 795.08 122.611 8
4 -5 -1 634.426 116.725 4
4 -5 0 939.037 144.365 10
-4 5 0 1248.58 151.031 5
-4 5 0 961.719 97.9289 1
-4 5 0 989.98 127.443 8
4 -5 0 987.684 139.09 4
-4 5 0 1015.62 133.795 9
-4 5 -1 86.5314 34.4686 1
4 -5 1 114.883 56.9403 10
-4 5 -1 72.5661 33.7839 9
-4 5 -1 105.876 38.2513 8
-4 5 -1 106.564 46.3866 5
4 -5 1 125.517 52.986 4
4 -5 2 89.7431 25.3307 6
4 -5 2 118.805 58.128 10
-4 5 -2 57.743 43.15 9
-4 5 -2 31.2123 22.1103 5
-4 5 -2 61.2907 31.3147 8
-4 5 -3 2.11826 50.5731 2
4 -5 3 122.443 34.0539 6
4 -5 3 131.755 60.0974 10
-4 5 -3 125.552 55.8942 9
-4 5 -3 -7.98027 43.057 5
-4 5 -3 91.4923 31.3155 8
4 -5 4 3283.21 188.097 6
4 -5 4 3169.54 257.382 10
-4 5 -4 3189.29 234.115 5
-4 5 -4 3106.87 252.994 9
-4 5 -4 2928.73 261.572 2
4 -5 5 1696.56 145.506 6
4 -5 5 1872.97 197.208 10
-4 5 -5 1836.34 181.932 5
-4 5 -5 1530.23 195.227 2
-4 5 -5 1861.41 206.636 9
-4 5 -6 24.8548 45.0306 2
4 -5 6 33.8514 31.2448 6
4 -5 6 0.42482 30.1352 10
-4 5 -6 38.9871 41.6408 9
-4 5 -6 -28.3853 37.6065 5
-4 5 -7 128.93 67.3684 9
-4 5 -7 16.076 30.0668 2
4 -5 7 91.2417 45.8441 6
-4 5 -8 269.784 97.0622 2
-4 5 -8 189.868 76.7758 9
-4 5 -9 162.412 76.7114 9
4 -4 -9 -14.4826 30.813 3
4 -4 -9 -4.26103 34.2266 10
4 -4 -9 -43.0214 41.6892 4
4 -4 -8 118.651 57.8768 3
4 -4 -8 90.3498 56.631 4
-4 4 8 116.577 79.0361 8
4 -4 -8 154.847 66.066 10
4 -4 -7 -15.9169 31.1575 3
4 -4 -7 65.8985 32.2112 10
4 -4 -7 53.3034 45.4325 4
-4 4 7 -28.0031 40.141 8
4 -4 -6 288.872 77.4074 3
4 -4 -6 403.611 102.522 10
4 -4 -6 366.63 98.8324 4
-4 4 6 309.465 99.8884 8
4 -4 -5 50.033 41.8103 3
4 -4 -5 73.0449 52.2871 4
4 -4 -5 12.1656 31.5955 10
-4 4 5 -23.4689 39.6104 8
4 -4 -4 66.5552 39.7248 3
4 -4 -4 -18.3771 31.3115 10
-4 4 4 38.3509 31.9646 9
4 -4 -4 86.2607 57.753 4
-4 4 4 29.5199 54.1177 8
4 -4 -3 20.5548 28.7913 3
-4 4 3 37.6912 29.8501 7
4 -4 -3 35.9573 14.3318 1
-4 4 3 -11.0292 28.5534 6
-4 4 3 82.6222 30.5184 9
4 -4 -3 -3.46358 45.3549 4
-4 4 3 93.8009 57.6833 8
4 -4 -2 13.9718 14.5867 1
4 -4 -2 20.711 16.5618 3
-4 4 2 26.2227 13.6718 6
4 -4 -2 55.4608 31.1377 10
-4 4 2 12.9707 37.7485 9
4 -4 -2 -36.4686 50.7088 4
-4 4 2 22.288 23.4127 8
4 -4 -1 87.7603 26.1035 1
-4 4 1 72.7353 24.6042 1
4 -4 -1 50.3052 34.4558 10
-4 4 1 101.079 19.3064 6
-4 4 1 87.7256 41.67 9
-4 4 1 92.907 38.9303 5
4 -4 -1 56.5322 32.7423 4
-4 4 1 103.496 50.3778 8
-4 4 0 322.028 70.8262 9
-4 4 0 249.678 51.2377 1
4 -4 0 264.225 72.9589 10
-4 4 0 282.657 68.3493 5
4 -4 0 200.876 67.4043 4
-4 4 0 337.678 70.7695 8
4 -4 1 9.00259 22.294 8
-4 4 -1 -10.0304 16.8346 1
-4 4 -1 55.6836 37.1683 9
-4 4 -1 23.783 11.8423 3
4 -4 1 73.2625 46.9156 10
-4 4 -1 20.3483 27.2634 5
4 -4 1 15.7018 33.081 4
-4 4 -1 -2.83119 18.1048 8
4 -4 2 74.4319 29.5715 8
-4 4 -2 88.9911 25.4481 3
-4 4 -2 86.117 32.5345 5
4 -4 2 93.7818 20.9332 6
-4 4 -2 103.681 52.951 9
4 -4 2 68.8838 41.7076 4
-4 4 -2 151.225 43.9823 8
4 -4 2 125.819 54.1031 10
4 -4 3 86.5204 30.2034 8
-4 4 -3 99.9529 38.0832 9
-4 4 -3 77.2481 26.5569 3
4 -4 3 36.3728 18.5766 6
4 -4 3 91.5424 47.867 10
-4 4 -3 87.1318 32.0212 5
-4 4 -4 343.449 59.3523 3
-4 4 -4 457.601 101.044 2
4 -4 4 304.964 54.7756 6
4 -4 4 410.93 85.0477 10
-4 4 -4 380.51 88.8319 9
-4 4 -4 408.677 80.5689 5
-4 4 -5 71.3556 37.6406 5
-4 4 -5 75.999 56.0795 2
4 -4 5 33.2951 31.173 6
-4 4 -5 89.9625 56.0301 9
4 -4 5 54.299 31.1798 10
-4 4 -6 5.30656 41.3611 2
4 -4 6 38.5278 32.155 6
4 -4 6 111.341 51.2028 10
-4 4 -6 110.476 42.6011 5
-4 4 -6 96.908 51.5444 9
-4 4 -7 52.7905 34.2145 2
4 -4 7 28.5587 23.2656 6
4 -4 7 73.0219 41.8548 10
-4 4 -7 85.3817 54.9009 9
-4 4 -8 620.165 131.062 2
4 -4 8 542.651 102.193 6
-4 4 -8 641.282 128.135 9
4 -4 9 1037.67 151.805 6
-4 4 -9 1139.78 191.573 2
-4 4 -9 1062.81 174.442 9
4 -4 10 54.6328 59.7652 6
-4 4 -10 62.2578 60.8436 9
4 -3 -10 38.1538 47.1713 3
4 -3 -10 -23.7989 35.9538 4
4 -3 -9 18.2872 30.035 10
4 -3 -9 71.5001 62.2416 3
4 -3 -9 69.7795 44.9749 4
4 -3 -8 4.98592 32.7521 10
-4 3 8 9.38021 45.8986 8
4 -3 -8 10.7736 36.0033 4
4 -3 -7 -2.2668 24.1045 3
-4 3 7 -41.5391 51.5081 8
4 -3 -7 28.1839 36.116 4
4 -3 -6 174.994 57.4042 3
-4 3 6 139.174 64.3667 8
4 -3 -6 236.655 73.7437 4
4 -3 -5 161.856 38.7689 1
4 -3 -5 143.164 51.702 3
-4 3 5 242.366 78.9124 8
4 -3 -5 251.186 72.4913 4
-4 3 4 176.754 38.1855 7
4 -3 -4 160.021 51.7514 3
-4 3 4 95.9855 30.304 9
4 -3 -4 129.53 30.5366 1
-4 3 4 201.333 61.7813 8
4 -3 -4 195.754 69.0866 4
4 -3 -3 1255.31 114.111 3
-4 3 3 697.938 87.0711 7
-4 3 3 1009.56 83.8257 6
4 -3 -3 1059.9 86.7494 1
-4 3 3 1119.87 126.918 9
-4 3 3 1197.49 149.314 8
4 -3 -3 1153.61 144.143 4
4 -3 -2 45.8042 24.3426 3
4 -3 -2 21.1637 14.3122 1
-4 3 2 79.1106 28.4111 1
-4 3 2 70.3083 18.1015 6
-4 3 2 20.2432 24.6324 9
-4 3 2 84.0172 42.0371 8
4 -3 -2 127.635 48.0489 4
-4 3 1 874.128 115.838 8
4 -3 -1 851.308 84.6353 1
-4 3 1 821.416 106.277 9
-4 3 1 804.882 101.979 5
4 -3 -1 813.428 113.861 4
-4 3 1 632.617 75.4186 1
-4 3 0 2321.75 171.465 5
4 -3 0 2343.7 143.711 1
-4 3 0 2260.67 178.777 8
-4 3 0 2302.29 179.537 9
4 -3 0 2302.4 183.501 4
4 -3 0 2163.43 174.551 8
-4 3 -1 5931.06 156.58 3
4 -3 1 6138.71 244.716 1
-4 3 -1 6151.57 267.67 8
-4 3 -1 5977.96 266.447 5
-4 3 -1 6202.88 289.791 9
4 -3 1 5743.87 286.919 4
4 -3 1 5580.29 269.452 8
4 -3 2 5025.65 121.055 6
4 -3 2 5964.98 254.846 1
4 -3 2 5299.83 285.123 10
-4 3 -2 5414.8 258.008 1
-4 3 -2 5485.49 281.566 9
-4 3 -2 5943.78 253.828 5
-4 3 -2 5747.87 242.398 8
4 -3 2 5479.85 279.727 4
4 -3 2 4998.49 235.404 8
-4 3 -3 -5.18693 12.9344 3
-4 3 -3 6.23183 16.9095 5
4 -3 3 -1.71437 8.89876 6
4 -3 3 25.2675 27.4781 10
4 -3 3 -4.34277 25.8163 4
4 -3 3 -6.02349 16.9433 8
-4 3 -4 35.4041 31.1671 5
-4 3 -4 24.446 42.2099 2
4 -3 4 35.7258 19.9317 6
-4 3 -4 42.7209 25.3247 9
4 -3 4 19.6799 24.8503 10
-4 3 -5 216.106 70.8059 2
4 -3 5 162.892 43.5112 6
4 -3 5 175.345 51.7006 10
-4 3 -5 133.82 39.6596 5
-4 3 -5 189.447 63.764 9
4 -3 5 77.7789 21.5125 8
4 -3 6 18.0744 29.02 10
-4 3 -6 -1.92217 33.2539 2
4 -3 6 14.0496 23.326 6
4 -3 7 919.172 119.053 6
4 -3 7 826.684 99.6599 10
-4 3 -7 817.433 138.925 2
-4 3 -7 833.979 132.95 9
-4 3 -8 14.1854 39.4814 2
4 -3 8 15.6365 31.5196 6
-4 3 -8 2.25696 32.8781 9
-4 3 -9 311.679 100.614 2
4 -3 9 161.81 58.3504 6
-4 3 -9 271.095 89.4764 9
-4 3 -10 39.4658 44.2893 2
4 -3 10 19.9935 32.6441 6
-4 3 -10 100.392 56.5001 9
4 -3 11 31.0087 45.1229 6
-4 3 -11 -13.6454 37.4074 9
4 -2 -10 -48.893 46.0147 3
4 -2 -10 -2.58786 27.7628 4
4 -2 -9 33.8924 37.0814 3
-4 2 9 96.4968 67.948 8
4 -2 -9 0.1601 26.9474 4
4 -2 -8 -22.1727 40.6987 3
-4 2 8 -29.3163 49.2764 8
4 -2 -8 2.35888 38.41 4
4 -2 -7 150.101 44.7675 1
4 -2 -7 209.275 66.0948 3
-4 2 7 43.8909 42.5758 8
4 -2 -7 151.143 59.3541 4
4 -2 -6 154.127 52.0335 3
4 -2 -6 182.953 49.0918 1
-4 2 6 90.4802 38.9732 8
4 -2 -6 165.314 64.4879 4
4 -2 -5 431.406 74.6072 3
4 -2 -5 353.384 60.4786 1
-4 2 5 367.011 94.9025 8
4 -2 -5 388.068 77.899 4
-4 2 4 168.199 30.6753 7
4 -2 -4 251.903 54.8086 3
4 -2 -4 265.155 48.3906 1
-4 2 4 223.474 59.113 8
4 -2 -4 116.885 33.712 4
4 -2 -3 5100.61 212.184 3
4 -2 -3 5478.49 222.309 1
-4 2 3 5313.44 259.414 9
-4 2 3 5288.42 298.196 8
4 -2 -3 5816.28 288.732 4
4 -2 -2 378.895 50.1628 3
-4 2 2 380.481 38.4471 6
4 -2 -2 389.523 56.6214 1
-4 2 2 368.239 77.3402 8
-4 2 2 374.838 68.7136 9
-4 2 2 282.995 51.352 1
4 -2 -2 427.12 81.1897 4
4 -2 -1 379.079 42.5752 3
-4 2 1 394.649 73.0749 8
4 -2 -1 391.159 56.4185 1
-4 2 1 387.674 68.6818 9
-4 2 1 318.426 55.1011 1
4 -2 -1 430.631 77.3229 4
4 -2 0 121.729 32.7834 1
4 -2 0 165.018 45.7819 5
-4 2 0 195.885 43.0391 1
-4 2 0 141.652 39.7832 9
-4 2 0 92.1932 29.1106 5
-4 2 0 150.65 47.9456 8
4 -2 0 163.486 47.4034 4
4 -2 0 186.42 48.6664 8
4 -2 1 5922.52 243.58 1
-4 2 -1 5190.36 250.813 9
-4 2 -1 5921.94 230.849 5
-4 2 -1 5952.77 251.902 1
-4 2 -1 5835.15 258.082 8
4 -2 1 5657.02 263.469 8
4 -2 1 6150.6 275.159 4
-4 2 -2 697.451 38.4371 3
4 -2 2 670.955 32.9065 6
4 -2 2 832.786 94.8179 1
-4 2 -2 622.473 85.6306 1
-4 2 -2 813.245 103.335 9
-4 2 -2 823.925 83.6116 5
-4 2 -2 801.934 86.1825 8
4 -2 2 897.933 98.6601 8
4 -2 2 828.77 100.531 4
4 -2 3 585.454 52.4596 6
4 -2 3 623.231 86.0503 1
-4 2 -3 618.04 93.5743 9
-4 2 -3 555.927 67.4613 5
4 -2 3 526.636 73.0524 8
4 -2 3 636.765 88.2925 4
4 -2 4 576.028 65.6716 6
4 -2 4 505.692 76.2724 10
-4 2 -4 544.782 69.5205 5
-4 2 -4 657.295 97.1929 9
4 -2 4 556.997 72.0469 8
4 -2 4 448.027 71.4435 4
4 -2 5 5565.13 227.905 6
4 -2 5 5474.72 248.185 10
-4 2 -5 5339.94 219.91 5
-4 2 -5 5478.77 291.659 9
-4 2 -5 5064.64 295.434 2
4 -2 6 1404.14 106.66 8
4 -2 6 1702.03 134.363 10
-4 2 -6 1990.55 192.136 2
-4 2 -6 1864.84 178.626 9
4 -2 7 0.0497 11.5354 8
-4 2 -7 32.7622 34.3316 2
4 -2 7 19.6563 17.9899 10
-4 2 -7 6.04812 24.1945 9
-4 2 -8 43.2341 31.3891 2
-4 2 -8 31.9857 30.252 9
-4 2 -9 432.063 107.097 2
-4 2 -9 769.398 130.134 9
-4 2 -10 167.679 77.1487 2
-4 2 -10 163.635 65.5244 9
-4 2 -11 -5.8109 31.9737 2
-4 2 -11 -2.09748 26.4256 9
-4 1 10 103.192 51.7232 8
4 -1 -10 -5.08961 30.2311 4
4 -1 -9 -0.44041 28.7348 4
-4 1 9 77.0897 46.6374 8
4 -1 -8 60.4155 43.0886 1
-4 1 8 109.801 50.6242 8
4 -1 -7 82.0611 40.8989 1
-4 1 7 -18.67 35.5526 8
-4 1 6 962.234 147.019 8
4 -1 -6 864.521 104.909 1
4 -1 -5 78.4899 37.3157 1
-4 1 5 86.9396 51.1406 8
4 -1 -4 -16.8894 28.9177 1
-4 1 4 -14.025 38.6987 8
4 -1 -3 908.994 87.2557 3
-4 1 3 941.058 106.426 9
4 -1 -3 904.258 91.3687 1
-4 1 3 745.223 107.001 8
-4 1 2 1308.96 114.011 1
4 -1 -2 1196.97 82.5098 3
-4 1 2 1227.69 68.1562 6
4 -1 -2 1159.5 116.373 5
4 -1 -2 1322.33 108.831 1
-4 1 2 1314.01 122.783 9
-4 1 2 1117.8 126.257 8
4 -1 -1 4311.84 123.98 3
4 -1 -1 4468 195.931 1
4 -1 -1 4440.02 217.954 9
-4 1 1 4227.66 217.729 9
-4 1 1 4469.23 234.729 8
4 -1 -1 4379.92 210.55 5
4 -1 -1 4624.99 251.784 8
-4 1 1 4154.34 202.397 1
4 -1 0 1108.47 96.9513 1
4 -1 0 962.808 92.6249 5
4 -1 0 1007.79 106.139 9
-4 1 0 1120.52 105.53 1
-4 1 0 1046.62 109.496 8
4 -1 0 1138.72 119.755 8
4 -1 0 1057.47 106.685 4
4 -1 1 299.12 57.0142 1
4 -1 1 383.885 56.0686 5
4 -1 1 407.286 68.8057 9
-4 1 -1 360.654 49.9392 5
-4 1 -1 403.458 66.3038 1
-4 1 -1 317.371 59.4239 8
4 -1 1 329.568 64.7276 8
4 -1 1 323.14 58.8133 4
4 -1 2 6195.55 99.3538 6
4 -1 2 7063.62 274.41 1
-4 1 -2 5496.93 254.454 1
-4 1 -2 6882.71 208.693 5
-4 1 -2 6817.63 245.016 8
4 -1 2 7441.09 285.143 8
4 -1 2 7426.62 270.891 4
4 -1 3 27.5295 24.1348 1
-4 1 -3 38.334 17.8789 5
-4 1 -3 55.1377 28.7571 9
-4 1 -3 77.6677 33.3283 1
4 -1 3 19.6606 20.2532 4
4 -1 3 14.2426 18.7044 8
4 -1 4 243.194 59.8279 1
-4 1 -4 199.117 34.8846 5
-4 1 -4 205.572 55.4782 9
4 -1 4 187.356 43.7115 4
4 -1 4 205.139 48.3011 8
4 -1 5 3181.42 214.435 1
4 -1 5 2963.05 161.744 10
-4 1 -5 3042.75 137.862 5
-4 1 -5 3168.63 208.671 9
-4 1 -5 3436.14 225.845 2
4 -1 5 3252.17 180.52 8
4 -1 6 2335.99 136.38 10
-4 1 -6 2606.46 211.119 2
-4 1 -6 2509.67 188.941 9
4 -1 7 1121.17 82.9329 10
-4 1 -7 1172.79 147.004 2
-4 1 -7 1234.71 138.928 9
4 -1 7 1105.96 104.511 8
4 -1 7 1115.92 105.891 8
4 -1 8 -25.0083 25.3615 8
-4 1 -8 -32.3082 32.2489 9
-4 1 -9 60.6568 37.4209 2
-4 1 -9 68.8831 44.313 9
-4 1 -10 115.896 62.376 2
-4 1 -10 51.5823 47.6019 9
-4 1 -11 0.57036 32.161 2
-4 1 -11 -45.4209 35.0649 9
-4 1 -12 -26.9265 33.9867 2
-4 0 10 199.274 77.8803 8
4 0 -10 3.52507 28.3511 1
-4 0 9 -4.18114 38.1656 8
4 0 -9 -1.37269 21.1139 1
4 0 -8 30.9362 26.2787 1
-4 0 8 62.4385 42.9716 8
-4 0 7 1010.09 150.633 8
4 0 -7 968.815 128.199 1
-4 0 6 1430.85 174.091 8
4 0 -6 1419.35 141.481 1
-4 0 5 28.9138 27.8684 8
4 0 -5 19.9653 23.0549 1
-4 0 4 559.892 71.0162 6
4 0 -4 678.091 86.9355 1
-4 0 4 594.164 98.0309 8
-4 0 3 5129.63 113.619 7
-4 0 3 5885 198.852 6
-4 0 3 5952.7 294.375 8
4 0 -3 5752.62 243.255 1
-4 0 2 8744.73 302.213 1
-4 0 2 8343.64 200.085 6
-4 0 2 7978.59 293.871 9
4 0 -2 8634.85 296.6 5
-4 0 2 8204.98 326.319 8
4 0 -2 8507.24 284.721 1
4 0 -2 8769.05 302.654 9
-4 0 1 272.187 51.9442 1
4 0 -1 327.833 56.6567 9
4 0 -1 290.746 48.7732 1
-4 0 1 254.717 26.9698 6
4 0 -1 332.776 54.6595 5
-4 0 1 264.457 52.9132 9
-4 0 1 335.162 65.6849 8
4 0 0 532.52 69.2996 1
4 0 0 510.147 70.7184 9
4 0 0 488.605 59.403 5
-4 0 0 567.55 78.9216 8
4 0 0 508.295 80.1806 8
-4 0 0 562.356 75.2164 1
4 0 1 432.397 52.4481 5
4 0 1 412.629 67.7186 9
-4 0 -1 427.616 65.8935 1
4 0 1 444.379 63.9797 1
-4 0 -1 471.244 68.8972 8
4 0 1 293.588 55.15 8
4 0 2 1057.62 57.6994 6
-4 0 -2 1247.35 119.206 1
4 0 2 1059.98 102.408 1
4 0 2 1144.6 110.871 9
4 0 2 1274.68 117.989 8
4 0 2 1410.39 106.225 4
-4 0 -3 1217.61 59.6229 3
4 0 3 1588.6 137.445 1
4 0 3 1195.77 115.529 9
-4 0 -3 1515.39 134.677 1
-4 0 -3 1249.61 112.641 9
-4 0 -3 1347.84 67.4673 5
4 0 3 1466.34 125.837 8
4 0 3 1308.53 99.6012 4
-4 0 -4 1581.85 91.432 3
4 0 4 1527.47 139.796 1
-4 0 -4 1507.23 129.513 9
-4 0 -4 1507.18 68.1616 5
4 0 4 1681.8 134.185 8
4 0 4 1440.22 103.033 4
4 0 5 471.588 84.2352 1
-4 0 -5 506.943 41.4449 5
-4 0 -5 499.183 75.489 9
-4 0 -5 559.123 85.5484 2
4 0 5 572.981 76.9512 8
4 0 5 516.644 58.3698 4
4 0 6 954.343 74.5642 10
-4 0 -6 976.913 121.107 2
-4 0 -6 893.028 104.285 9
-4 0 -7 336.84 64.4536 9
-4 0 -7 353.245 76.5508 2
4 0 7 320.191 34.5921 10
4 0 8 20.9507 15.7923 8
-4 0 -8 63.5827 31.9546 9
-4 0 -9 948.848 137.754 2
-4 0 -9 1070.9 128.141 9
4 0 9 866.078 109.976 8
-4 0 -10 1207.99 165.916 2
-4 0 -10 776.878 113.133 9
-4 0 -11 309.369 90.9856 2
-4 0 -12 33.2749 39.9177 2
4 1 -11 5.17942 32.1925 1
-4 -1 11 80.117 49.5362 8
-4 -1 10 -19.3968 29.0615 6
4 1 -10 57.804 48.2991 1
-4 -1 10 18.1911 36.3715 8
-4 -1 9 -19.6636 31.0475 6
4 1 -9 34.3154 36.7634 1
-4 -1 9 6.18542 43.9224 8
4 1 -8 -37.2538 42.8057 2
4 1 -8 -37.4484 34.429 1
-4 -1 8 7.01026 28.4165 6
-4 -1 8 16.3196 37.0887 8
4 1 -7 343.842 76.7597 1
4 1 -7 478.742 98.2591 2
-4 -1 7 325.696 76.1991 6
-4 -1 7 396.472 89.6013 8
-4 -1 6 1900.28 161.565 6
-4 -1 6 1917.52 186.736 8
4 1 -6 1911.18 169.42 1
-4 -1 5 758.53 95.3077 6
-4 -1 5 981.597 126.361 8
4 1 -5 825.438 109.923 1
-4 -1 4 736.336 85.1287 6
-4 -1 4 761.229 106.969 8
4 1 -4 630.723 89.1628 1
-4 -1 3 1163.06 50.8704 7
-4 -1 3 1293.1 101.176 6
-4 -1 3 1426.55 138.129 8
4 1 -3 1339.35 121.757 1
-4 -1 2 780.178 58.238 7
-4 -1 2 828.559 70.0463 6
-4 -1 2 904.523 102.686 8
4 1 -2 901.149 96.7852 1
4 1 -2 964.987 101.522 9
-4 -1 1 1689.39 97.5781 7
-4 -1 1 1851.03 94.2579 6
4 1 -1 1733.37 129.833 9
4 1 -1 1932.6 136.765 1
-4 -1 1 1770.45 143.382 8
-4 -1 1 1729.76 137.363 1
-4 -1 0 1122.35 62.9763 6
4 1 0 1186.45 64.8542 6
4 1 0 1130.14 101.502 9
4 1 0 1271.87 111.339 1
4 1 0 1229.59 86.9688 5
-4 -1 0 1207.44 111.162 8
-4 -1 0 1292.66 113.553 1
4 1 1 37804.7 373.392 6
4 1 1 39818.8 605.435 1
4 1 1 38972.9 591.068 9
-4 -1 -1 40755.8 639.881 1
4 1 1 37234.4 425.677 5
4 1 2 156935 860.982 6
4 1 2 157914 1232.13 1
4 1 2 156454 1183.85 9
-4 -1 -3 15271.8 251.166 3
4 1 3 16684.8 423.975 1
4 1 3 15943.7 389.394 9
-4 -1 -3 16457.8 383.815 9
-4 -1 -4 649.782 62.3293 3
4 1 4 732.662 96.14 1
4 1 4 697.938 84.8936 9
-4 -1 -4 712.957 82.2138 9
4 1 4 801.659 94.0369 8
4 1 4 729.104 65.1097 4
4 1 5 202.494 56.1711 1
-4 -1 -5 171.695 42.4252 9
-4 -1 -5 124.96 33.5462 3
-4 -1 -5 148.145 44.3 2
4 1 5 149.79 25.7522 4
-4 -1 -6 573.247 73.9642 3
4 1 6 603.516 95.5528 1
-4 -1 -6 574 86.7818 2
-4 -1 -6 595.506 77.3534 9
-4 -1 -7 97.5411 49.1215 2
-4 -1 -7 98.0821 37.7996 3
-4 -1 -7 122.348 18.8077 5
-4 -1 -7 93.4599 34.3123 9
4 1 8 17.2343 28.2862 8
-4 -1 -8 -15.2971 28.599 2
-4 -1 -8 -16.9755 23.9905 9
4 1 9 -21.1389 29.1005 8
-4 -1 -9 -23.1018 32.0095 2
-4 -1 -9 -70.3524 31.5419 9
-4 -1 -10 509.507 102.408 2
4 1 10 425.958 87.9429 8
-4 -1 -10 553.962 106.705 3
-4 -1 -10 447.319 77.0997 9
-4 -1 -11 127.126 66.5391 7
-4 -1 -11 306.882 87.2327 3
-4 -1 -11 166.415 71.9602 2
-4 -1 -12 5.00339 25.772 7
-4 -1 -12 -113.272 58.3685 3
4 2 -11 6.79634 37.5832 1
-4 -2 11 -186.03 74.4147 8
4 2 -10 -27.091 36.0077 1
-4 -2 10 23.5 37.025 6
4 2 -10 128.929 66.893 2
-4 -2 10 46.8642 53.1646 8
-4 -2 9 43.7283 41.7299 6
4 2 -9 26.1803 42.094 2
4 2 -9 16.8739 26.6295 1
-4 -2 9 -46.3578 46.1266 8
4 2 -8 15.8203 25.8756 1
-4 -2 8 40.7756 26.9227 6
4 2 -8 129.362 56.9044 2
-4 -2 8 107.513 53.715 8
4 2 -7 49.4725 33.0206 1
-4 -2 7 163.342 56.0533 6
4 2 -7 100.957 51.6986 2
-4 -2 7 99.8085 50.1252 8
4 2 -6 1722.1 167.56 1
4 2 -6 1702.68 168.988 2
-4 -2 6 1560.9 151.226 6
-4 -2 6 1594.77 163.736 8
4 2 -5 2528.75 195.642 2
-4 -2 5 2663.04 183.571 6
-4 -2 5 2544.54 197.828 8
4 2 -5 2494.65 193.293 1
4 2 -4 64.0126 36.7384 1
-4 -2 4 38.1426 24.5047 6
4 2 -4 28.8598 18.9757 2
-4 -2 4 54.4982 33.9653 8
-4 -2 3 24.252 10.8331 7
-4 -2 3 8.25204 14.5856 6
4 2 -3 54.4259 31.112 1
-4 -2 3 18.7558 20.808 8
-4 -2 2 1085.36 75.749 7
-4 -2 2 1217.04 96.2217 6
4 2 -2 1152.64 109.829 9
-4 -2 2 1211.63 118.522 8
4 2 -2 1099.75 111.121 1
-4 -2 1 1668.81 136.059 1
-4 -2 1 1430.04 93.5248 7
-4 -2 1 1495.11 98.9132 6
4 2 -1 1570.86 101.485 6
4 2 -1 1521.78 121.669 9
-4 -2 1 1612.81 129.531 8
4 2 -1 1575.29 126.112 1
-4 -2 0 6820.9 221.106 7
-4 -2 0 6798.01 195.468 6
4 2 0 6865.96 201.96 6
4 2 0 7012.91 264.033 1
4 2 0 6868.91 249.658 9
4 2 1 1083.68 69.4796 3
-4 -2 -1 1261.19 102.903 7
4 2 1 1105.84 82.8072 6
4 2 1 951.943 87.4273 9
4 2 2 85789.4 610.121 3
-4 -2 -2 84548.4 881.216 7
4 2 2 83410.1 751.548 6
4 2 2 81685.6 449.264 5
4 2 2 87891.4 922.24 1
4 2 2 81877.3 846.4 9
-4 -2 -2 82008.3 820.247 9
-4 -2 -3 106131 805.017 3
4 2 3 109595 1072.29 1
4 2 3 108133 949.631 9
-4 -2 -3 108478 931.815 9
-4 -2 -4 1881.98 118.815 3
4 2 4 1993.34 154.338 1
4 2 4 1918.11 131.18 9
-4 -2 -4 1881.13 122.623 9
-4 -2 -5 481.041 65.5875 3
4 2 5 483.998 80.203 1
4 2 5 394.702 62.2807 9
-4 -2 -5 453.677 66.8421 2
-4 -2 -5 462.314 61.9196 9
4 2 5 446.02 39.4456 4
-4 -2 -6 1499.56 125.444 3
4 2 6 1547.96 149.422 1
-4 -2 -6 1393.39 127.035 2
-4 -2 -6 1430.16 110.54 9
-4 -2 -7 -1.32184 19.1403 2
-4 -2 -7 21.6001 23.8662 3
4 2 7 31.6551 38.2404 1
4 2 7 23.9433 8.46681 10
-4 -2 -7 25.5904 8.55065 5
-4 -2 -7 25.5343 20.4764 9
4 2 8 253.783 67.6056 8
-4 -2 -8 245.768 59.8237 2
-4 -2 -8 288.09 75.0593 7
-4 -2 -8 280.735 67.5223 3
-4 -2 -8 243.786 47.2909 9
-4 -2 -9 96.3428 46.2483 2
4 2 9 74.1734 41.325 8
-4 -2 -9 135.217 62.0066 7
-4 -2 -9 113.601 48.6654 3
-4 -2 -9 52.3085 25.7865 9
4 2 10 293.868 73.9176 8
-4 -2 -10 278.693 84.9461 7
-4 -2 -10 327.097 82.9399 3
-4 -2 -10 305.932 78.3176 2
4 2 11 451.448 99.6465 8
-4 -2 -11 366.397 104.382 7
-4 -2 -11 339.412 87.3193 3
-4 -2 -11 400.099 92.9976 2
-4 -2 -12 -55.7959 37.1042 7
-4 -2 -12 -61.3491 55.1466 3
-4 -3 10 98.8195 52.7718 6
4 3 -10 147.359 71.8403 2
-4 -3 10 124.732 61.6697 8
4 3 -9 25.8499 40.8606 2
-4 -3 9 13.155 32.7458 6
-4 -3 9 59.3038 45.0387 8
4 3 -8 120.226 57.8952 2
-4 -3 8 181.276 70.495 6
-4 -3 8 92.7807 54.0148 8
4 3 -7 129.7 50.9303 1
-4 -3 7 182.516 52.6552 6
4 3 -7 279.729 76.2007 2
-4 -3 7 266.378 73.1376 8
4 3 -6 4809.62 297.971 1
4 3 -6 5490.67 304.035 2
-4 -3 6 5082.25 284.724 6
-4 -3 6 5483.82 298.902 8
4 3 -5 7776.1 351.098 1
4 3 -5 7718.01 339.55 2
-4 -3 5 7564.88 327.218 6
-4 -3 5 8017.34 350 8
4 3 -4 1225.54 73.9509 7
4 3 -4 1065.74 121.167 2
-4 -3 4 1112.8 116.044 6
-4 -3 4 1380.26 139.668 8
4 3 -4 1154.02 130.024 1
4 3 -3 1381.53 86.5484 7
4 3 -3 1172.6 119.444 2
-4 -3 3 1394.94 121.161 6
-4 -3 3 1408.65 130.559 8
4 3 -3 1311.99 133.427 1
-4 -3 2 2660.64 133.474 7
4 3 -2 3055.48 177.718 2
-4 -3 2 2868.55 163.917 6
-4 -3 2 3211.68 195.581 2
4 3 -2 2814.56 175.045 9
-4 -3 2 3016.83 182.802 8
4 3 -2 3003.5 199.87 8
4 3 -2 2891.78 187.302 1
-4 -3 1 437.645 59.1687 7
-4 -3 1 425.933 60.0214 6
4 3 -1 429.712 61.6863 6
4 3 -1 388.321 64.6714 9
-4 -3 1 295.17 57.1081 2
4 3 -1 398.764 67.6925 1
-4 -3 0 878.806 83.929 7
-4 -3 0 816.779 78.8915 6
4 3 0 757.048 78.0647 6
-4 -3 0 838.726 84.9291 2
4 3 0 786.037 86.03 9
4 3 0 807.481 92.1952 1
4 3 1 8076.25 240.274 3
4 3 1 8445.24 269.719 9
-4 -3 -1 8123.34 270.121 7
-4 -3 -1 7888.03 242.157 6
4 3 1 8360.25 262.041 6
-4 -3 -1 8429.22 254.492 2
4 3 1 8557.46 295.742 1
4 3 2 326.61 49.1229 3
-4 -3 -2 287.699 58.4051 7
4 3 2 289.464 46.5574 6
4 3 2 193.978 19.5789 9
4 3 2 213.223 42.3321 1
-4 -3 -3 1340.92 103.556 3
4 3 3 1242.89 99.0791 3
-4 -3 -3 1411.06 126.677 7
4 3 3 1424.28 119.361 6
4 3 3 1098.35 108.882 1
4 3 3 1183.19 95.546 9
-4 -3 -3 1095.64 88.6819 9
-4 -3 -4 351.234 57.6845 3
-4 -3 -4 330.764 68.0574 1
-4 -3 -4 339.619 69.8709 7
4 3 4 374.468 67.4555 6
4 3 4 355.247 66.4346 1
4 3 4 346.545 52.1107 9
-4 -3 -4 324.688 48.1074 9
-4 -3 -5 269.188 54.5462 3
-4 -3 -5 243.852 45.8351 2
-4 -3 -5 283.167 60.0313 7
4 3 5 284.661 61.4409 1
4 3 5 272.561 46.4191 9
-4 -3 -5 273.258 44.743 9
-4 -3 -6 545.727 81.5113 3
-4 -3 -6 651.801 101.394 7
4 3 6 721.753 101.592 1
-4 -3 -6 546.727 71.8246 2
-4 -3 -6 594.932 66.026 9
-4 -3 -7 3145.07 203.957 3
-4 -3 -7 2797.26 217.668 7
4 3 7 3113.04 221.641 1
4 3 7 2860.87 117.326 10
-4 -3 -7 3106.14 182.104 2
-4 -3 -7 2925.31 145.24 9
-4 -3 -8 142.05 44.2596 2
4 3 8 179.78 63.2512 8
-4 -3 -8 213.83 65.9534 7
-4 -3 -8 203.3 58.4115 3
-4 -3 -8 165.362 34.9334 9
4 3 9 316.644 84.4227 8
-4 -3 -9 392.735 92.3643 7
-4 -3 -9 329.616 83.3766 3
-4 -3 -9 349.93 68.7651 2
4 3 10 162.839 69.7132 8
-4 -3 -10 64.4299 39.9893 7
-4 -3 -10 198.921 70.391 3
-4 -3 -10 157.26 51.1707 2
4 3 11 244.332 77.8284 8
-4 -3 -11 198.026 77.4981 7
-4 -3 -11 118.879 55.9871 3
4 3 12 137.835 63.0077 8
-4 -3 -12 124.174 65.377 7
-4 -3 -12 65.7998 48.3386 3
-4 -4 10 4.81834 47.3814 6
-4 -4 9 -28.9947 36.272 6
4 4 -9 -4.97538 29.1835 2
-4 -4 9 -33.5386 41.5441 8
-4 -4 8 40.9537 44.1307 6
4 4 -8 -11.046 35.3287 2
-4 -4 8 -29.8737 33.5103 8
-4 -4 7 17.6622 33.2806 6
4 4 -7 0.98122 27.7387 2
-4 -4 7 11.001 28.6458 8
-4 -4 6 3.20993 29.1762 6
4 4 -6 -2.38685 17.2189 7
4 4 -6 -31.6032 50.4948 2
-4 -4 6 68.1668 39.9701 8
4 4 -5 164.295 31.0882 7
4 4 -5 183.799 65.1133 1
-4 -4 5 104.188 29.1079 6
4 4 -5 243.956 66.5266 2
-4 -4 5 133.663 40.6264 8
4 4 -4 165.47 35.3612 7
4 4 -4 113.819 44.1542 1
-4 -4 4 238.386 60.6965 6
4 4 -4 120.378 46.2919 2
-4 -4 4 185.743 42.4134 8
4 4 -3 76.0054 23.5007 7
4 4 -3 59.8968 33.4271 1
-4 -4 3 100.442 38.7755 6
4 4 -3 102.613 40.1972 2
-4 -4 3 91.236 34.0064 8
-4 -4 2 6398.46 234.711 7
4 4 -2 6622.88 237.647 7
-4 -4 2 6064.02 258.396 6
4 4 -2 5892.75 255.267 2
4 4 -2 5843.11 259.126 6
-4 -4 2 6761.47 292.649 2
4 4 -2 6887.05 305.481 8
4 4 -2 6369.14 289.344 1
-4 -4 1 11917.4 324.035 7
4 4 -1 12301.6 333.225 7
-4 -4 1 12034 352.934 6
4 4 -1 11937.5 334.294 2
4 4 -1 9092.1 313.669 6
-4 -4 1 9066.23 315.348 2
4 4 -1 13769.1 421.013 8
4 4 -1 12909.8 388.55 1
4 4 0 4134.06 199.481 3
-4 -4 0 3896.57 195.561 7
4 4 0 3841.42 193.091 7
-4 -4 0 3833.04 191.062 6
-4 -4 0 3836.81 186.522 2
4 4 0 3814.68 193.3 9
4 4 0 4019.45 222.851 8
4 4 0 3620.91 198.884 1
4 4 1 32.4102 15.8283 3
-4 -4 -1 -4.09346 26.3538 7
4 4 1 2.67649 9.9591 7
-4 -4 -1 -8.03642 26.3922 6
4 4 1 -25.786 23.776 1
4 4 1 2.71404 15.6052 6
4 4 1 14.9656 12.9746 9
-4 -4 -1 13.4465 18.0564 2
4 4 2 584.26 75.9801 3
-4 -4 -2 509.474 76.8621 7
-4 -4 -2 498.096 55.6395 2
4 4 2 329.177 59.1346 6
4 4 2 455.132 71.844 1
4 4 2 504.962 65.0882 9
-4 -4 -3 7121.19 261.063 3
4 4 3 7296.18 262.409 3
-4 -4 -3 7087.03 289.997 7
-4 -4 -3 6837.16 192.029 2
4 4 3 6712.66 268.152 1
4 4 3 6908.52 227.137 9
-4 -4 -3 6964.22 291.003 1
-4 -4 -4 30.3011 23.375 3
-4 -4 -4 1.92026 22.6273 7
4 4 4 35.5203 20.8308 3
4 4 4 61.5924 27.3701 6
-4 -4 -4 68.1942 29.4937 1
4 4 4 36.1361 22.1351 1
4 4 4 65.6359 23.4936 9
4 4 4 116.938 17.6839 5
-4 -4 -5 2270.38 164.268 3
-4 -4 -5 1971.42 170.937 7
4 4 5 2252.29 169.733 1
-4 -4 -5 2112.76 112.673 2
4 4 5 2169.11 121.018 9
-4 -4 -6 171.738 36.4279 2
-4 -4 -6 168.729 48.0334 3
4 4 6 183.787 54.6437 1
-4 -4 -6 158.847 46.0078 7
4 4 6 196.826 42.6488 10
4 4 6 191.614 27.724 4
-4 -4 -7 1080.86 131.877 3
-4 -4 -7 1179.83 143.679 7
4 4 7 1256.62 143.132 1
-4 -4 -7 1209.84 99.3584 2
4 4 7 1229.38 94.0106 10
4 4 7 1200.21 154.44 8
4 4 8 4.86959 40.077 8
-4 -4 -8 25.4085 30.7459 3
-4 -4 -8 23.0741 33.9051 7
-4 -4 -8 21.1634 22.2866 2
4 4 9 20.1527 26.0733 8
-4 -4 -9 -6.83434 27.8796 7
-4 -4 -9 16.5063 25.8672 3
-4 -4 -9 29.186 22.2818 2
4 4 10 63.8677 50.4096 8
-4 -4 -10 107.464 41.6685 7
-4 -4 -10 69.4365 43.687 3
-4 -4 -11 -6.09075 43.4711 7
-4 -4 -11 18.7277 33.0485 3
4 4 12 83.5641 52.8825 8
-4 -4 -12 -41.0457 41.3908 7
-4 -4 -12 27.5519 47.37 3
4 5 -9 49.1927 48.4256 2
-4 -5 9 40.6495 51.4077 6
-4 -5 8 -11.0049 37.756 6
4 5 -8 39.5391 34.0118 2
-4 -5 8 86.8111 44.2691 8
-4 -5 7 61.3772 36.2369 6
4 5 -7 77.9084 30.2069 2
-4 -5 7 129 49.3175 8
-4 -5 6 525.754 102.958 6
-4 -5 6 613.679 96.774 8
4 5 -6 479.399 93.5856 2
4 5 -5 2597.08 221.713 1
4 5 -5 2153.08 148.479 7
-4 -5 5 2574.27 213.646 6
4 5 -5 2254.22 198.706 2
4 5 -4 954.507 128.278 1
4 5 -4 896.74 96.5672 7
-4 -5 4 908.471 118.356 6
4 5 -4 960.215 121.465 2
4 5 -3 387.14 63.0703 7
-4 -5 3 552.295 88.4209 6
4 5 -3 461.374 80.9416 2
4 5 -3 592.394 94.6717 1
4 5 -2 392.56 76.7592 1
-4 -5 2 394.306 63.1957 7
4 5 -2 361.939 61.8425 7
4 5 -2 438.005 73.3745 2
-4 -5 2 391.463 72.4122 6
4 5 -2 499.953 86.8953 8
-4 -5 2 416.324 76.2009 2
-4 -5 1 15042.3 411.016 7
-4 -5 1 14971.8 435.065 6
4 5 -1 16133.1 452.76 6
4 5 -1 15232.9 382.387 2
-4 -5 1 15582.3 428.47 2
4 5 -1 15055.9 440.094 1
4 5 0 2645.2 180.208 3
-4 -5 0 3806.48 207.216 7
4 5 0 2777.85 179.047 7
-4 -5 0 3480.54 199.177 6
4 5 0 3658.57 171.823 2
4 5 0 3703.9 217.303 6
-4 -5 0 3691.89 190.762 2
4 5 0 3788 221.483 8
4 5 0 3889.71 215.648 1
-4 -5 -1 5979.92 270.177 7
4 5 1 6377.32 276.331 7
-4 -5 -1 5802.62 254.896 6
4 5 1 5523.71 261.484 6
-4 -5 -1 5883.72 215.718 2
4 5 1 5706.52 258.067 1
-4 -5 -1 6179.71 278.147 1
4 5 2 18.1761 18.6181 3
-4 -5 -2 27.6738 29.3279 7
4 5 2 34.4023 24.4388 1
-4 -5 -2 11.0756 24.8836 6
4 5 2 -26.4731 29.7824 6
4 5 2 61.3029 22.9927 9
-4 -5 -2 91.1923 24.199 2
-4 -5 -2 42.8864 27.0712 1
-4 -5 -3 5410.72 256.218 3
-4 -5 -3 5579.72 278.907 7
4 5 3 5613.62 273.648 6
-4 -5 -3 5466.95 157.183 2
4 5 3 5246.85 247.544 1
4 5 3 5144.5 200.195 9
-4 -5 -3 5497.61 262.237 1
-4 -5 -4 3334.51 204.504 3
-4 -5 -4 3246.49 217.076 7
-4 -5 -4 3135.19 100.556 2
4 5 4 2892.31 186.129 1
4 5 4 3075.97 127.274 5
4 5 4 3037.87 142.077 9
-4 -5 -4 2913.94 98.1057 2
-4 -5 -4 3189.29 202.15 1
-4 -5 -5 120.188 48.9596 3
-4 -5 -5 100.977 47.0129 7
-4 -5 -5 131.84 18.1065 2
4 5 5 98.802 37.0465 1
-4 -5 -5 127.652 19.6142 2
4 5 5 122.318 36.7303 10
4 5 5 138.985 28.3639 9
4 5 5 145.742 29.481 5
-4 -5 -6 257.83 66.3322 3
-4 -5 -6 273.702 68.8675 7
4 5 6 310.51 72.9126 1
-4 -5 -6 162.109 22.0478 2
4 5 6 184.29 45.0812 10
4 5 6 173.935 33.9883 4
-4 -5 -7 1897.58 184.7 3
-4 -5 -7 1931.11 192.095 7
4 5 7 1828.18 173.534 1
-4 -5 -7 1750.59 81.7323 2
4 5 7 1514.42 120.597 10
4 5 7 1665.54 76.7743 4
-4 -5 -8 1149.4 147.458 3
-4 -5 -8 1207.97 158.429 7
4 5 8 1147.96 141.847 1
4 5 8 1218.58 166.99 8
4 5 9 36.0448 44.7348 8
-4 -5 -9 -19.1848 51.4729 7
-4 -5 -9 61.9714 38.8216 3
4 5 10 -17.1315 34.682 8
-4 -5 -10 -51.5677 56.7212 7
-4 -5 -10 -11.9817 34.7638 3
4 5 11 -1.18468 29.9524 8
-4 -5 -11 -8.77127 30.496 7
-4 -5 -11 45.7889 43.2474 3
4 5 12 144.456 72.1703 8
-4 -5 -12 66.3122 49.9088 7
-4 -6 9 9.56796 33.703 6
4 6 -9 109.253 65.4655 2
-4 -6 8 380.542 102.728 6
4 6 -8 392.947 102.235 2
-4 -6 7 -17.3382 33.489 6
4 6 -7 -48.6755 43.9704 2
-4 -6 6 34.3573 25.5896 6
4 6 -6 15.23 28.1124 2
4 6 -5 831.283 131.75 1
4 6 -5 646.792 93.307 7
-4 -6 5 578.618 104.84 6
4 6 -5 658.258 109.897 2
4 6 -4 1089.33 141.619 1
4 6 -4 813.311 106.238 7
-4 -6 4 926.833 126.951 6
4 6 -4 848.739 119.494 2
4 6 -3 1406.03 136.888 7
-4 -6 3 1470.82 151.773 6
4 6 -3 1350.03 139.337 2
4 6 -3 1451.35 156.276 1
4 6 -2 2112.37 168.339 7
-4 -6 2 2059.32 176.707 6
4 6 -2 2075.41 163.498 2
4 6 -2 2275.47 189.542 1
-4 -6 1 1780.7 153.196 7
-4 -6 1 1777.14 150.364 2
-4 -6 1 1739.78 156.814 6
4 6 -1 1737.56 134.311 2
4 6 -1 1849.82 163.712 1
-4 -6 0 63.4555 28.9231 2
4 6 0 110.707 45.0557 1
-4 -6 0 68.9756 38.8521 7
-4 -6 0 89.3322 46.7714 6
4 6 0 91.1659 29.6827 2
-4 -6 -1 42.6949 31.7283 7
-4 -6 -1 10.2307 27.3486 6
4 6 1 24.5358 23.9959 1
-4 -6 -1 66.93 26.0961 2
-4 -6 -2 1123.76 128.563 7
-4 -6 -2 1058.16 80.2617 2
-4 -6 -2 1065.22 121.55 6
4 6 2 930.051 107.603 1
-4 -6 -2 1004.64 114.431 1
-4 -6 -3 12978.9 454.704 7
-4 -6 -3 12543.7 205.83 2
4 6 3 12395.2 320.54 9
-4 -6 -3 12248.3 409.059 1
-4 -6 -4 2138.74 177.563 3
-4 -6 -4 2131.27 188.118 7
4 6 4 2066.97 160.219 1
4 6 4 2232.73 134.708 5
4 6 4 2071.39 120.475 9
-4 -6 -4 2040.52 167.362 1
-4 -6 -5 1320.53 145.986 3
-4 -6 -5 1333.78 156.079 7
4 6 5 1105.14 122.633 1
4 6 5 1158.91 124.931 10
4 6 5 1127.96 77.2964 9
4 6 5 1214.98 97.0109 5
-4 -6 -6 50.1754 42.2254 3
-4 -6 -6 51.0133 44.7723 7
4 6 6 1.47163 35.8808 1
4 6 6 9.99774 16.509 10
4 6 6 18.3007 9.4134 9
4 6 6 41.0922 17.6029 4
4 6 7 305.761 84.1731 8
4 6 7 392.098 81.1072 1
-4 -6 -7 573.786 108.294 3
-4 -6 -7 403.48 96.0082 7
4 6 8 323.176 89.8962 8
-4 -6 -8 429.724 99.1008 3
-4 -6 -8 377.716 99.3447 7
4 6 8 394.237 91.5707 1
4 6 9 126.378 61.2626 8
-4 -6 -9 228.322 76.8338 3
-4 -6 -9 181.04 74.8564 7
4 6 10 76.5534 56.3433 8
-4 -6 -10 143.969 66.6604 7
-4 -6 -10 111.553 49.8853 3
-4 -6 -11 29.4792 43.7183 7
-4 -6 -11 -11.4016 45.9316 3
-4 -6 -12 72.1344 56.2588 7
-4 -7 8 127.468 66.6089 6
4 7 -8 0.19688 31.8622 2
-4 -7 7 54.3017 43.8876 6
4 7 -7 -8.70045 33.7313 2
4 7 -6 93.679 51.0995 1
4 7 -6 202.613 72.058 2
4 7 -5 1977.17 211.655 1
-4 -7 5 2027.48 202.804 6
4 7 -5 2005.51 201.979 2
4 7 -4 7065.64 374.457 1
-4 -7 4 6472.38 354.078 6
4 7 -4 6603.23 344.046 2
-4 -7 3 789.621 120.613 6
4 7 -3 874.721 118.526 2
4 7 -3 720.874 118.16 1
4 7 -2 12.1094 34.1982 1
-4 -7 2 39.4951 24.2644 6
4 7 -2 19.0901 21.3342 2
-4 -7 1 335.547 68.4643 2
-4 -7 1 290.271 68.6939 7
-4 -7 1 363.255 77.2396 6
4 7 -1 478.081 88.5794 1
4 7 -1 377.917 67.0495 2
-4 -7 0 18.4454 14.6922 2
4 7 0 -4.07384 25.6397 1
-4 -7 0 -0.91306 27.4537 7
-4 -7 0 -9.52723 30.2442 6
4 7 0 7.65833 14.1991 2
-4 -7 -1 953.525 125.12 7
-4 -7 -1 939.218 121.548 6
4 7 1 941.083 83.4258 2
-4 -7 -1 1003.31 95.6666 2
4 7 1 916.979 112.691 1
-4 -7 -2 19.9055 13.3331 2
-4 -7 -2 5.84351 30.1004 7
4 7 2 -19.6623 23.8194 1
-4 -7 -2 -42.9697 45.0865 6
-4 -7 -3 874.348 124.467 7
4 7 3 979.901 108.2 5
4 7 3 862.73 108.294 1
4 7 3 882.407 90.5568 9
-4 -7 -4 44.3344 40.4434 3
-4 -7 -4 41.9846 35.7266 7
4 7 4 100.238 40.2188 5
4 7 4 43.9005 29.0542 1
4 7 4 47.0076 16.6671 9
-4 -7 -5 282.301 73.4737 3
-4 -7 -5 175.135 63.0714 7
4 7 5 209.538 54.7331 1
4 7 5 226.539 35.611 9
4 7 5 201.971 46.463 5
4 7 6 21.301 45.1587 8
-4 -7 -6 2.1997 44.7456 3
-4 -7 -6 98.4952 45.6055 7
4 7 6 -8.21733 33.9367 1
4 7 6 97.3907 32.7735 5
4 7 6 52.3954 28.35 4
4 7 7 291.078 81.5343 8
4 7 7 358.096 77.0199 1
-4 -7 -7 207.314 63.8256 3
-4 -7 -7 295.291 83.4995 7
4 7 8 39.1011 44.5424 8
-4 -7 -8 -54.3541 46.6556 3
-4 -7 -8 38.6283 52.144 7
4 7 8 71.7344 45.3723 1
4 7 9 -44.3408 69.4889 8
-4 -7 -9 72.9694 59.4446 3
-4 -7 -9 115.512 76.3042 7
4 7 10 15.4046 39.9469 8
-4 -7 -10 4.32364 31.1626 3
-4 -7 -10 50.5777 37.7601 7
-4 -7 -11 -55.9234 49.1583 7
4 8 -7 17.8352 38.3259 1
-4 -8 7 -33.3272 40.0628 6
4 8 -6 -5.36038 35.7623 1
-4 -8 6 -43.7152 42.9729 6
4 8 -6 -11.0606 33.1878 2
4 8 -5 10.6265 31.3794 1
-4 -8 5 26.3498 38.1516 6
4 8 -5 32.2504 30.554 2
4 8 -4 84.969 48.5915 1
-4 -8 4 115.852 58.1031 6
4 8 -4 122.543 56.9881 2
-4 -8 3 419.213 94.635 6
4 8 -3 430.473 96.1863 1
4 8 -3 545.007 98.3347 2
4 8 -2 -25.2066 44.7934 1
-4 -8 2 -99.5223 69.3946 6
4 8 -2 31.6453 31.0298 2
4 8 -1 607.085 90.7615 2
-4 -8 1 421.53 90.3705 6
4 8 -1 608.011 103.492 1
-4 -8 0 10751.1 446.525 7
-4 -8 0 11149.1 441.895 6
4 8 0 11200.1 339.852 2
-4 -8 0 10422.8 356.538 2
4 8 0 11694.3 433.947 1
-4 -8 -1 1231.93 154.816 7
-4 -8 -1 1039 138.973 6
4 8 1 1261.59 98.3176 2
-4 -8 -1 777.925 86.0756 2
4 8 1 1238.05 137.003 1
-4 -8 -2 298.651 76.13 7
4 8 2 281.327 65.2028 1
-4 -8 -2 226.437 50.7763 6
4 8 3 88.1713 38.759 1
-4 -8 -3 121.535 54.766 7
4 8 3 116.628 41.3934 5
-4 -8 -4 264.273 82.1743 7
4 8 4 224.679 55.1775 1
4 8 4 229.069 45.3788 9
4 8 4 268.372 60.7271 5
-4 -8 -5 972.556 141.959 3
-4 -8 -5 986.882 148.807 7
4 8 5 919.344 112.641 1
4 8 5 942.138 110.586 5
4 8 5 1076.26 160.179 8
4 8 6 105.026 57.2153 8
-4 -8 -6 99.9774 45.2174 3
-4 -8 -6 62.7179 39.2702 7
4 8 6 159.897 48.7039 1
4 8 6 102.089 39.6697 5
4 8 7 14.8475 27.9641 8
4 8 7 -13.3617 25.7987 1
-4 -8 -7 -42.3508 51.9941 3
-4 -8 -7 -32.8989 57.1399 7
4 8 8 97.2334 53.1119 8
-4 -8 -8 -8.80831 33.3509 3
-4 -8 -8 -5.68048 43.4765 7
4 8 9 36.6104 48.5585 8
-4 -8 -9 -11.2684 35.6591 3
-4 -8 -9 -10.4371 47.7091 7
-4 -8 -10 -22.6433 38.3873 7
4 9 -7 144.59 64.6381 2
4 9 -6 67.83 57.5186 1
-4 -9 6 32.2273 45.8283 6
4 9 -6 19.7352 35.9316 2
4 9 -5 91.2679 58.5762 1
-4 -9 5 102.334 43.2162 6
4 9 -5 -8.82505 34.1338 2
-4 -9 4 196.875 68.7483 6
4 9 -4 272.328 79.16 2
4 9 -4 165.273 69.211 1
4 9 -3 -8.71795 45.8795 1
-4 -9 3 -21.5602 35.2248 6
4 9 -3 2.91027 23.3304 2
-4 -9 2 634.342 119.598 6
4 9 -2 553.007 95.2215 2
4 9 -2 587.961 114.309 1
-4 -9 1 -39.8582 52.1885 6
4 9 -1 -4.62016 23.9892 1
4 9 -1 -38.0756 32.8406 2
-4 -9 0 4658.38 306.199 6
4 9 0 4978.98 237.365 2
4 9 0 4987.42 298.295 1
-4 -9 -1 5416.09 337.818 7
-4 -9 -1 4948.02 316.913 6
4 9 1 4896.08 201.79 2
4 9 1 5022.75 283.381 1
-4 -9 -2 147.361 64.3573 7
-4 -9 -2 30.6265 43.4195 6
4 9 2 45.8193 37.7199 1
-4 -9 -3 1074.64 158.087 7
4 9 3 1025.04 135.563 5
4 9 3 1050.41 125.771 1
4 9 4 180.296 69.4241 8
-4 -9 -4 196.134 74.8263 7
4 9 4 206.275 56.1956 1
4 9 4 185.23 57.2341 5
4 9 5 66.5119 50.4974 8
-4 -9 -5 71.2534 61.5834 7
4 9 5 71.1734 38.7343 1
4 9 5 93.1359 45.0779 5
4 9 6 52.308 57.0878 8
-4 -9 -6 69.9149 42.8625 3
-4 -9 -6 36.2461 34.0617 7
4 9 6 0.10457 31.7708 1
4 9 6 52.273 28.8711 5
4 9 7 107.861 56.612 8
-4 -9 -7 75.142 37.9362 3
4 9 7 48.2524 20.4285 5
4 9 8 -53.8447 49.8103 8
-4 -9 -8 15.7616 32.0081 3
-4 -9 -8 -10.8094 36.1705 7
-4 -9 -9 150.547 70.887 7
4 10 -6 -3.29545 30.8373 2
4 10 -5 135.658 61.3038 1
-4 -10 5 55.3574 51.8573 6
4 10 -5 34.2875 40.1099 2
-4 -10 4 130.01 63.716 6
4 10 -4 77.1638 51.4885 1
4 10 -4 8.04912 27.7533 2
4 10 -3 145.26 65.4757 1
-4 -10 3 77.7529 48.4399 6
4 10 -3 35.8783 36.4509 2
-4 -10 2 -14.2725 37.8932 6
4 10 -2 -25.4839 38.3322 1
4 10 -2 -18.163 20.7426 2
-4 -10 1 5.68254 25.2132 6
4 10 -1 20.4313 15.8494 2
-4 -10 0 -13.1163 31.3023 6
4 10 0 -24.883 33.5818 2
4 10 0 -30.1267 42.044 1
-4 -10 -1 97.4158 53.1641 6
4 10 1 162.077 52.7078 1
4 10 2 -2.92667 23.1135 1
4 10 2 -44.7958 42.3936 5
4 10 3 6.03239 38.9395 8
-4 -10 -3 -4.77333 30.7081 7
4 10 3 -14.6005 36.1085 5
4 10 3 -19.4628 30.0576 1
4 10 4 -10.722 37.1837 8
-4 -10 -4 -70.0029 51.1136 7
4 10 4 56.4939 35.6888 1
4 10 4 93.0135 48.6578 5
4 10 5 103.397 62.1494 8
-4 -10 -5 -3.90408 35.2913 7
4 10 5 17.914 31.9389 5
4 10 6 -14.4605 41.3364 8
-4 -10 -6 63.9301 53.1071 7
4 10 6 8.80891 20.2635 5
4 10 7 8.17482 42.0543 8
-4 -10 -7 14.7299 29.0683 3
-4 -10 -7 11.5532 35.4139 7
4 10 7 -28.1619 30.0824 5
-4 -10 -8 83.9595 58.7846 7
4 11 -5 -12.7759 30.78 2
4 11 -4 15.1672 31.612 1
4 11 -4 18.8896 43.7505 2
-4 -11 3 114.364 67.311 6
4 11 -3 95.4312 55.5929 2
4 11 -3 101.089 74.9088 1
-4 -11 2 23.6218 46.2675 6
4 11 -2 46.5664 49.3642 1
4 11 -2 0.5508 18.1419 2
4 11 -1 26.249 27.8538 1
-4 -11 1 83.1452 53.2155 6
4 11 0 15.4713 33.9957 8
-4 -11 0 1.53765 44.6517 6
4 11 0 -12.6933 32.0762 1
4 11 1 244.832 84.4667 8
-4 -11 -1 433.775 111.444 6
4 11 1 366.201 86.3533 1
4 11 2 3.04856 24.9353 8
4 11 2 -9.44872 31.3939 1
4 11 2 35.813 47.2747 5
4 11 3 120.992 65.6686 8
4 11 3 37.9506 35.1948 5
4 11 4 50.7174 56.1616 8
-4 -11 -4 -56.0602 48.1634 7
4 11 4 -13.3901 31.4757 5
4 11 5 88.6577 58.0515 8
4 11 5 37.3654 30.4542 5
4 11 6 15.1338 34.0581 8
-4 -11 -6 0.72715 42.7248 7
4 11 6 59.1136 37.8494 5
4 11 7 3.51041 18.3936 5
4 12 -3 241.166 86.2222 1
4 12 -2 102.624 55.3971 1
4 12 -1 85.3279 43.6038 1
4 12 1 34.4897 42.7752 8
-4 -12 -1 66.1246 40.2785 6
4 12 1 22.4846 34.7242 5
4 12 2 -39.2981 39.8946 8
4 12 2 20.6825 33.2522 5
4 12 3 -1.54764 35.645 8
4 12 3 -20.9023 37.1969 5
4 12 4 106.708 56.1148 8
4 12 4 38.0388 36.1372 5
4 12 5 -38.9595 39.5041 5
4 12 6 144.854 69.1891 5
-5 8 -2 71.6601 55.3624 5
-5 8 -3 72.7748 56.2002 5
-5 7 4 8.48359 22.092 9
-5 7 3 89.7999 46.0545 9
-5 7 3 -4.81649 27.3688 8
-5 7 2 22.874 26.2889 9
-5 7 2 -16.1487 31.5531 8
5 -7 -1 -45.0493 52.34 10
-5 7 1 67.8548 44.4046 9
-5 7 1 58.5247 48.9549 5
-5 7 1 -34.6425 42.4082 8
5 -7 0 204.31 89.7108 10
-5 7 0 109.685 56.7029 9
-5 7 0 86.2904 49.4172 5
5 -7 1 -47.8706 76.4153 10
-5 7 -1 35.6723 35.5986 9
-5 7 -1 13.0168 26.6476 5
-5 7 -2 33.069 33.4641 2
5 -7 2 19.3586 39.223 10
-5 7 -2 132.808 64.2353 9
-5 7 -2 64.4759 48.4305 5
-5 7 -3 55.0914 48.6402 2
5 -7 3 89.3485 53.5063 10
5 -7 4 -56.3696 50.4424 10
-5 7 -4 -1.08977 25.5323 5
5 -7 5 50.0809 46.0169 10
-5 7 -5 40.7205 45.4243 5
-5 6 5 -4.6418 24.4436 9
-5 6 5 -94.6103 65.3154 8
5 -6 -4 -23.3222 42.6011 10
-5 6 4 125.283 57.5475 9
5 -6 -4 -28.5726 49.4172 4
-5 6 4 -18.1586 49.6288 8
5 -6 -3 55.3211 46.9786 10
-5 6 3 108.085 52.1302 9
5 -6 -3 137.136 72.3378 4
-5 6 3 -30.5331 54.3507 8
5 -6 -2 36.184 54.7343 10
-5 6 2 -7.3734 23.4983 9
5 -6 -2 -1.81558 42.3791 4
-5 6 2 -45.5478 53.2299 8
5 -6 -1 121.363 64.2641 10
-5 6 1 224.408 77.9309 9
-5 6 1 148.3 54.9897 5
5 -6 -1 148.597 69.4717 4
-5 6 1 160.402 63.3757 8
5 -6 0 1014.61 180.64 10
-5 6 0 1273.12 172.378 9
-5 6 0 1510.51 187.809 5
-5 6 0 1108.82 154.404 8
5 -6 0 1221.42 181.008 4
5 -6 1 62.7378 57.7972 10
-5 6 -1 101.98 61.8141 9
-5 6 -1 166.029 63.8287 5
-5 6 -1 146.698 55.5001 8
5 -6 2 -23.8593 48.9476 10
-5 6 -2 26.2565 32.2422 9
-5 6 -2 -14.0557 25.1652 5
-5 6 -3 -17.995 32.5035 2
5 -6 3 -108.904 60.3156 10
-5 6 -3 0.36532 31.5192 9
-5 6 -3 -22.7617 39.7573 5
-5 6 -4 209.19 82.4387 2
5 -6 4 67.7987 53.9447 10
-5 6 -4 149.494 71.9459 9
-5 6 -4 33.8217 34.0898 5
-5 6 -5 136.93 73.2258 2
5 -6 5 101.414 77.0397 10
-5 6 -5 29.973 37.7209 9
-5 6 -5 136.753 59.3789 5
5 -5 -6 -78.6634 56.5828 10
5 -5 -6 -33.166 40.1893 4
5 -5 -5 -2.82353 29.7129 10
-5 5 5 -36.9408 29.6898 9
5 -5 -5 -28.038 41.1007 4
5 -5 -4 98.5359 56.047 10
-5 5 4 59.4737 40.3681 9
5 -5 -4 25.7894 39.2277 4
5 -5 -3 68.5371 44.3574 10
-5 5 3 -4.87344 30.8742 9
5 -5 -3 3.81833 27.3045 4
-5 5 3 -46.9698 58.1554 8
5 -5 -2 471.714 118.32 10
-5 5 2 287.581 77.6216 9
5 -5 -2 463.987 111.881 4
-5 5 2 376.448 98.1578 8
-5 5 1 49.3701 27.5629 9
5 -5 -1 118.607 48.3837 10
-5 5 1 146.846 59.1523 5
5 -5 -1 31.9217 33.6412 4
-5 5 1 21.6455 26.6737 8
-5 5 0 136.59 59.1027 9
5 -5 0 79.8723 52.1134 10
-5 5 0 176.46 63.7164 5
5 -5 0 132.862 57.4923 4
-5 5 0 89.169 44.03 8
5 -5 1 1001.1 159.683 10
-5 5 -1 833.692 134.736 9
-5 5 -1 870.479 130.089 5
-5 5 -1 790.307 118.86 8
5 -5 1 727.073 134.013 4
5 -5 2 86.4668 54.7662 10
-5 5 -2 46.3039 35.0822 9
-5 5 -2 119.554 45.2231 5
5 -5 2 47.5948 50.3428 4
-5 5 -2 96.4867 40.9929 8
5 -5 3 -51.104 44.3272 10
-5 5 -3 0.96798 53.7003 9
-5 5 -3 38.1551 23.0331 5
-5 5 -4 333.631 100.727 2
5 -5 4 513.302 116.884 10
-5 5 -4 485.622 111.164 9
-5 5 -4 259.211 73.8992 5
-5 5 -5 936.782 162.589 2
5 -5 5 856.845 148.969 10
-5 5 -5 1167.22 172.721 9
-5 5 -5 818.124 123.113 5
-5 5 -6 447.386 114.485 2
5 -5 6 359.927 99.604 10
-5 5 -6 405.381 108.033 9
-5 5 -6 488.491 97.3806 5
-5 5 -7 -11.8904 50.3627 2
-5 5 -7 115.304 54.6102 9
5 -4 -7 -84.3896 55.8876 10
5 -4 -7 67.2479 49.5127 4
5 -4 -6 10.7221 32.8983 10
5 -4 -6 -64.3892 51.9056 4
-5 4 6 14.488 34.0653 8
5 -4 -5 25.3645 27.8774 10
5 -4 -5 48.7469 45.5469 4
5 -4 -4 618.376 94.0492 3
5 -4 -4 817.98 152.208 10
-5 4 4 744.579 126.248 9
5 -4 -4 893.371 148.555 4
-5 4 4 656.13 133.862 8
5 -4 -3 1364.34 124.717 3
5 -4 -3 1569.03 200.966 10
-5 4 3 1248.31 153.966 9
-5 4 3 1560.96 195.519 8
5 -4 -3 1683.77 197.64 4
5 -4 -2 205.746 44.5792 1
5 -4 -2 252.655 82.6734 10
-5 4 2 77.5809 37.4137 9
5 -4 -2 124.713 44.7404 4
-5 4 2 214.588 68.187 8
5 -4 -1 423.7 66.3496 1
5 -4 -1 323.955 87.595 10
-5 4 1 390.719 79.6797 9
5 -4 -1 366.37 87.6864 4
-5 4 1 384.755 91.2324 8
5 -4 0 846.716 100.115 1
5 -4 0 1059.81 156.727 10
-5 4 0 921.558 134.029 9
-5 4 0 941.484 126.325 5
-5 4 0 931.754 131.993 8
5 -4 0 775.919 126.398 4
5 -4 1 47.4226 38.2218 10
-5 4 -1 195.197 64.588 9
-5 4 -1 93.1636 42.9216 5
5 -4 1 165.515 61.6642 4
-5 4 -1 78.8126 37.5709 8
5 -4 2 9.00535 29.3105 10
-5 4 -2 10.546 30.9885 9
-5 4 -2 32.1124 30.8965 5
5 -4 2 31.3604 27.481 4
-5 4 -2 26.5872 28.1224 8
5 -4 3 -30.4667 34.2275 10
-5 4 -3 -82.7315 57.6571 9
-5 4 -3 -15.0993 30.8512 5
5 -4 3 -40.7285 42.7485 4
-5 4 -4 69.9978 45.6259 2
5 -4 4 149.433 57.7464 10
-5 4 -4 85.2917 42.1823 9
-5 4 -4 137.576 49.9602 5
5 -4 5 1165.16 155.789 10
-5 4 -5 753.249 107.558 5
-5 4 -5 935.339 144.956 9
-5 4 -5 1218.24 172.882 2
-5 4 -6 280.74 94.7007 2
-5 4 -6 226.263 76.0278 9
5 -4 6 190.207 66.3699 10
-5 4 -6 202.826 57.2062 5
-5 4 -7 38.5402 29.1501 2
-5 4 -7 23.893 27.4517 9
-5 4 -8 11.602 42.6959 2
-5 4 -8 55.3321 49.6704 9
-5 4 -9 114.035 61.8817 9
5 -3 -8 -20.763 32.2892 10
5 -3 -8 -83.3936 54.3916 4
5 -3 -7 26.8553 25.3206 3
-5 3 7 16.1315 34.2709 8
5 -3 -7 44.2779 40.8544 4
5 -3 -6 15.2775 17.5584 3
-5 3 6 -17.5524 52.5067 8
5 -3 -6 39.0523 33.2453 4
5 -3 -5 136.025 46.3585 3
-5 3 5 119.473 63.394 8
5 -3 -5 143.808 67.5902 4
5 -3 -4 928.534 109.3 3
5 -3 -4 877.005 91.0071 1
-5 3 4 905.914 131.137 9
-5 3 4 968.512 156.566 8
5 -3 -4 1097.78 157.72 4
5 -3 -3 4948.15 225.404 3
-5 3 3 5020.74 293.873 9
5 -3 -3 5279.45 225.96 1
-5 3 3 5364.97 345.348 8
5 -3 -3 6025.18 356.038 4
5 -3 -2 2126.16 125.015 3
-5 3 2 2063.57 152.197 1
5 -3 -2 2401.87 156.864 1
-5 3 2 2302.96 200.668 9
-5 3 2 2450.21 224.747 8
5 -3 -2 2305.02 215.931 4
5 -3 -1 3.60789 17.9091 1
-5 3 1 -8.36251 34.8349 9
-5 3 1 45.5266 28.2872 1
-5 3 1 23.4849 34.8856 8
5 -3 -1 37.5887 33.9133 4
5 -3 0 1.94399 23.771 1
-5 3 0 22.0666 24.8054 9
-5 3 0 37.0408 32.9141 8
5 -3 0 -21.7642 29.9126 4
-5 3 0 27.4847 17.6709 1
5 -3 1 935.949 107.237 1
-5 3 -1 893.521 124.534 9
-5 3 -1 861.763 110.21 5
-5 3 -1 902.709 118.764 8
5 -3 1 800.194 121.86 4
5 -3 2 222.6 56.5104 1
5 -3 2 241.493 76.3287 10
-5 3 -2 209.232 63.0661 9
-5 3 -2 191.207 54.5265 5
-5 3 -2 138.972 47.2161 8
5 -3 2 130.648 53.5502 4
5 -3 3 820.609 124.314 10
-5 3 -3 1003.84 136.711 9
-5 3 -3 955.538 111.24 5
5 -3 3 983.233 131.696 4
5 -3 3 808.572 105.154 8
5 -3 4 453.66 51.005 6
5 -3 4 558.336 100.056 10
-5 3 -4 493.368 79.4164 5
-5 3 -4 442.324 91.2456 9
5 -3 4 353.343 74.9352 4
-5 3 -5 34.5712 36.3706 2
5 -3 5 16.0488 14.5051 6
5 -3 5 27.4686 33.5968 10
-5 3 -5 39.264 40.7814 9
-5 3 -5 17.7776 18.6039 5
-5 3 -6 0.17394 17.4405 5
-5 3 -6 -24.4358 39.2127 2
5 -3 6 8.40321 16.6424 6
5 -3 6 -68.9691 36.8963 10
-5 3 -6 45.2711 45.1435 9
-5 3 -7 82.7569 59.9903 2
5 -3 7 7.23478 20.0215 6
-5 3 -7 2.97169 31.6561 9
-5 3 -8 170.84 74.892 2
-5 3 -8 112.067 58.9831 9
-5 3 -9 331.592 104.713 2
-5 3 -9 160.427 71.3558 9
-5 3 -10 34.3056 52.5923 9
5 -2 -9 64.3709 46.8303 3
5 -2 -9 23.5534 36.0656 4
5 -2 -8 -33.2975 35.0085 3
-5 2 8 -33.3836 42.4271 8
5 -2 -8 -0.54059 30.2688 4
5 -2 -7 80.6611 46.4099 3
-5 2 7 53.2327 41.4812 8
5 -2 -7 95.2602 55.3223 4
5 -2 -6 92.906 48.5373 3
-5 2 6 100.649 53.3337 8
5 -2 -6 72.2861 52.6562 4
5 -2 -5 167.81 47.8877 1
5 -2 -5 133.836 42.8199 3
-5 2 5 212.476 70.2582 8
5 -2 -5 202.96 71.4894 4
5 -2 -4 89.5061 29.4041 1
5 -2 -4 142.639 43.8304 3
-5 2 4 169.795 38.277 6
5 -2 -4 213.64 58.2325 4
5 -2 -3 1147.4 101.382 3
-5 2 3 1090.38 73.3695 6
-5 2 3 1318.07 77.9329 6
5 -2 -3 1206.61 113.574 1
-5 2 3 1223.42 140.45 9
-5 2 3 1291.76 163.462 8
5 -2 -3 1400.64 160.767 4
-5 2 2 685.589 92.6883 1
5 -2 -2 696.598 67.8148 3
5 -2 -2 654.826 83.5951 1
-5 2 2 624.888 99.9858 9
-5 2 2 748.209 124.646 8
5 -2 -2 761.483 115.991 4
5 -2 -1 1228.9 117.702 1
-5 2 1 1200.77 138.12 9
-5 2 1 1245.28 147.043 8
5 -2 -1 1398.74 153.469 4
-5 2 1 1048.6 113.371 1
-5 2 0 15.9345 22.2991 1
5 -2 0 -14.9453 24.1246 1
-5 2 0 -17.0174 24.7679 9
-5 2 0 21.8958 29.8841 8
5 -2 0 16.4294 35.263 4
5 -2 1 477.946 78.2601 1
-5 2 -1 542.758 90.6255 9
-5 2 -1 438.53 82.4957 8
5 -2 1 428.451 89.5761 4
5 -2 2 488.703 81.9957 1
5 -2 2 389.874 77.6424 4
-5 2 -2 565.892 76.3864 5
-5 2 -2 521.728 89.7448 9
-5 2 -2 564.079 87.2812 8
5 -2 2 484.844 84.4745 8
5 -2 3 79.6738 41.7243 1
-5 2 -3 28.8582 35.3345 9
-5 2 -3 82.5005 32.6292 5
5 -2 3 111.781 46.8821 4
5 -2 3 69.135 32.1445 8
5 -2 4 8.23011 21.286 1
-5 2 -4 23.9272 10.4347 3
-5 2 -4 93.8685 45.0315 9
5 -2 4 11.1238 9.55967 6
5 -2 4 54.7271 29.1589 10
-5 2 -4 4.96395 16.461 5
5 -2 4 37.5058 29.2279 4
5 -2 4 15.2137 19.3499 8
5 -2 5 1732.61 121.298 6
5 -2 5 1540.11 148.544 10
-5 2 -5 1420.07 163.929 9
-5 2 -5 1402.1 112.98 5
-5 2 -5 1583.85 179.784 2
5 -2 5 1543.67 136.063 8
-5 2 -6 655.649 120.826 2
5 -2 6 558.725 81.1669 6
5 -2 6 427.509 76.5192 10
-5 2 -6 512.976 69.153 5
-5 2 -6 430.132 95.7789 9
-5 2 -7 97.6349 43.5904 2
5 -2 7 49.4583 30.3115 10
5 -2 7 96.8075 43.7246 6
-5 2 -7 70.7784 40.1797 9
-5 2 -8 42.1675 31.3842 2
5 -2 8 -6.11137 31.2819 6
-5 2 -8 -3.88871 36.2238 9
-5 2 -9 -11.6486 32.0251 2
5 -2 9 -16.6942 28.9962 6
-5 2 -9 -1.49432 31.6062 9
-5 2 -10 104.2 50.1089 2
5 -2 10 186.639 68.0566 6
-5 2 -10 37.5162 46.9487 9
-5 2 -11 19.0187 31.8343 9
5 -1 -9 49.4946 36.9089 3
5 -1 -9 68.0154 44.1285 4
5 -1 -8 -15.4964 29.3852 4
5 -1 -8 -27.8967 38.0037 3
-5 1 8 -67.4719 38.9282 6
-5 1 8 2.11879 34.4195 8
5 -1 -7 -2.44244 30.6852 3
-5 1 7 7.97096 19.3813 6
5 -1 -7 27.8141 32.514 1
-5 1 7 41.6808 36.5776 8
5 -1 -6 32.8604 38.1937 3
-5 1 6 -4.06047 28.4045 6
5 -1 -6 52.1407 32.8956 1
-5 1 6 -4.38825 29.9956 8
5 -1 -5 556.804 92.7249 3
-5 1 5 468.129 72.0374 6
5 -1 -5 616.994 92.9933 1
-5 1 5 521.969 112.506 8
5 -1 -4 414.392 67.4826 3
5 -1 -4 459.625 75.9683 1
-5 1 4 405.897 59.0247 6
-5 1 4 355.521 88.8051 8
5 -1 -3 43.9542 32.4829 1
5 -1 -3 87.2418 26.0682 3
-5 1 3 47.4194 31.5117 9
-5 1 3 20.9719 10.9428 6
-5 1 3 55.8577 42.7263 8
5 -1 -2 15.6816 13.7446 3
-5 1 2 14.0565 22.5938 1
-5 1 2 3.71958 4.75674 6
-5 1 2 62.0501 36.4096 9
-5 1 2 -22.8746 40.0689 8
5 -1 -2 17.0565 22.8918 1
5 -1 -1 14.3528 23.3854 4
-5 1 1 14.3653 20.555 1
5 -1 -1 -1.27853 5.78597 3
-5 1 1 -0.69211 31.6833 9
5 -1 -1 -4.60463 18.0446 1
-5 1 1 24.1988 28.2982 8
5 -1 0 468.064 73.4941 1
5 -1 0 445.463 72.9524 5
-5 1 0 544.059 88.0947 9
-5 1 0 457.366 79.7917 1
-5 1 0 522.329 90.7865 8
5 -1 0 491.574 82.2252 4
5 -1 1 74.9423 37.2539 1
5 -1 1 31.3632 18.3075 5
-5 1 -1 68.0972 38.7717 9
-5 1 -1 46.1048 31.6052 8
5 -1 1 66.4949 37.4632 4
5 -1 2 5155.13 265.434 1
-5 1 -2 4876.3 262.531 9
5 -1 2 4777.58 267.28 8
5 -1 2 4992.46 256.21 4
-5 1 -3 171.575 53.3818 9
5 -1 3 104.063 17.5745 6
5 -1 3 121.777 18.4272 6
-5 1 -3 150.717 34.9426 5
5 -1 3 146.991 49.6916 4
5 -1 3 117.446 46.7787 8
-5 1 -4 468.697 37.5562 3
5 -1 4 681.573 62.4069 6
5 -1 4 714.597 106.433 1
-5 1 -4 712.857 104.803 9
-5 1 -4 701.839 67.2741 5
5 -1 4 640.487 94.3391 8
5 -1 4 596.301 84.2481 4
5 -1 5 60.3568 37.7117 1
-5 1 -5 19.5727 30.4766 9
-5 1 -5 -3.86466 10.9869 5
5 -1 5 11.3784 18.9288 4
5 -1 5 -23.2859 22.0794 8
-5 1 -6 2.41595 27.3507 2
5 -1 6 37.9148 25.5391 10
-5 1 -6 28.1222 21.7374 9
-5 1 -6 22.6603 13.7337 5
5 -1 6 17.4044 18.5013 8
-5 1 -7 32.521 47.3771 2
5 -1 7 17.416 19.4629 10
-5 1 -7 -27.631 35.0316 9
-5 1 -8 198.427 70.4875 2
-5 1 -8 196.315 66.2549 9
-5 1 -9 -11.6577 39.2649 2
-5 1 -9 -5.54886 27.4616 9
-5 1 -10 671.787 138.719 2
-5 1 -10 474.553 104.671 9
-5 1 -11 75.7287 53.5181 2
-5 0 9 22.3209 24.394 6
-5 0 9 -69.4764 52.9135 8
5 0 -8 53.8833 39.9133 1
-5 0 8 62.4065 40.8013 6
-5 0 8 4.55378 43.7058 8
5 0 -7 39.6011 29.782 1
-5 0 7 29.1119 31.353 6
-5 0 7 24.5035 38.5034 8
5 0 -6 154.6 53.2195 1
-5 0 6 184.022 55.1516 6
-5 0 6 46.8631 39.0152 8
-5 0 5 62.9353 25.5509 6
-5 0 5 39.3847 45.8915 8
5 0 -5 86.2839 39.1115 1
-5 0 4 144.208 39.9724 6
5 0 -4 161.55 53.509 1
-5 0 4 159.051 59.9248 8
-5 0 3 74.3969 17.4943 7
5 0 -3 100.178 38.7382 1
-5 0 3 113.962 29.5147 6
-5 0 3 130.71 47.6223 8
-5 0 2 1229.23 129.156 1
-5 0 2 1348.59 78.6737 6
-5 0 2 1305.57 135.774 9
5 0 -2 1356.04 127.761 1
-5 0 2 1328.83 149.186 8
5 0 -1 3930.31 108.361 3
5 0 -1 4669.91 236.986 1
5 0 -1 4125.68 215.554 5
-5 0 1 4113.19 232.383 9
-5 0 1 4565.44 264.145 8
-5 0 1 4136.77 232.291 1
-5 0 0 -18.6995 24.8957 1
5 0 0 38.4544 18.1442 5
-5 0 0 20.157 24.4924 9
5 0 0 18.9074 19.9185 1
-5 0 0 -2.86886 21.5242 8
5 0 1 2157.63 157.778 1
5 0 1 2269.96 138.154 5
-5 0 -1 2059.91 163.521 9
-5 0 -1 2295.12 169.429 8
5 0 2 121.373 35.3022 4
5 0 2 114.496 43.9506 1
-5 0 -2 179.871 54.9217 9
5 0 2 137.62 48.6808 8
5 0 3 600.667 53.4578 6
5 0 3 718.308 100.203 1
-5 0 -3 602.323 90.8127 9
5 0 3 615.032 97.031 8
5 0 3 618.15 83.2343 4
-5 0 -4 100.211 19.9969 3
5 0 4 105.712 41.375 1
-5 0 -4 137.236 49.7929 9
5 0 4 130.295 45.8995 8
5 0 4 111.267 33.1398 4
-5 0 -5 272.151 42.0608 3
5 0 5 376.487 76.1571 1
-5 0 -5 271.72 63.9401 9
5 0 5 246.111 51.9041 4
5 0 5 303.98 66.1498 8
5 0 6 -39.4002 35.9606 1
-5 0 -6 -14.2725 24.2257 2
-5 0 -6 -13.1524 16.1342 3
-5 0 -6 6.46872 21.6383 9
-5 0 -6 6.52867 5.19985 5
5 0 6 7.96229 25.0759 8
-5 0 -7 26.2467 27.2601 2
-5 0 -7 46.5801 28.2986 3
5 0 7 19.5586 12.1342 10
-5 0 -7 8.39127 25.2991 9
5 0 8 34.0146 23.8383 8
-5 0 -8 9.62576 39.2685 2
-5 0 -8 51.6212 31.3845 3
-5 0 -8 32.7433 27.2482 9
-5 0 -9 -5.10626 43.6437 2
-5 0 -9 90.8928 51.2014 3
-5 0 -9 77.7199 47.0526 9
-5 0 -10 598.004 136.42 2
-5 0 -10 820.034 125.193 3
-5 0 -10 480.565 97.7637 9
-5 0 -11 522.175 121.543 2
-5 0 -11 586.221 115.611 3
-5 -1 10 -28.0643 33.83 6
5 1 -9 38.2927 31.599 1
-5 -1 9 23.0395 33.1878 6
-5 -1 9 -16.7076 45.7221 8
-5 -1 8 -15.2435 34.6369 6
5 1 -8 4.70675 28.7834 1
-5 -1 8 33.4522 37.9495 8
-5 -1 7 48.9268 33.5067 6
5 1 -7 3.71984 34.1642 1
-5 -1 7 35.0255 39.5234 8
-5 -1 6 916.743 120.623 6
-5 -1 6 1018.6 150.065 8
5 1 -6 801.497 118.461 1
-5 -1 5 7.45523 19.0125 6
-5 -1 5 -1.25096 26.3658 8
5 1 -4 -30.8365 30.1603 1
-5 -1 4 5.23753 15.1159 6
-5 -1 4 -29.6053 40.5157 8
-5 -1 3 80.2298 19.139 7
-5 -1 3 37.8036 19.397 6
5 1 -3 18.6594 30.4122 1
-5 -1 3 107.228 45.5478 8
-5 -1 2 10823.6 266.291 6
5 1 -2 11334.8 375.433 1
-5 -1 2 11938.3 435.682 8
-5 -1 1 1456.27 104.526 7
-5 -1 1 1432.88 82.6136 6
-5 -1 1 1520.34 139.734 9
5 1 -1 1463.27 122.601 5
5 1 -1 1614.39 140.234 1
-5 -1 1 1489.37 145.491 8
5 1 0 -15.6404 32.7725 1
5 1 0 11.2979 5.68605 3
-5 -1 0 16.9063 19.1016 9
5 1 0 -3.42208 13.2569 5
-5 -1 0 7.8 16.9595 8
5 1 1 38.6292 11.8752 6
5 1 1 28.2355 11.2614 5
-5 -1 -1 52.0944 27.369 9
5 1 1 23.7779 20.9861 1
5 1 2 596.681 52.8291 6
5 1 2 729.53 96.1976 1
5 1 2 689.011 60.8908 5
-5 -1 -2 696.8 91.5344 9
5 1 2 797.6 109.411 8
5 1 3 29.9733 14.3697 6
5 1 3 32.496 31.1063 1
-5 -1 -3 15.3785 22.5664 9
5 1 3 44.5122 33.5796 8
-5 -1 -4 22.6578 16.3665 3
5 1 4 17.4368 22.6171 1
-5 -1 -4 29.0525 20.449 9
5 1 4 55.2705 34.6223 8
5 1 4 22.3208 24.6678 4
5 1 5 80.6985 32.6079 1
-5 -1 -5 157.348 34.7866 3
-5 -1 -5 90.8454 36.2352 9
5 1 5 128.781 46.1251 8
5 1 5 66.0386 25.7743 4
5 1 6 14.712 20.8655 1
-5 -1 -6 -6.0732 14.2684 3
-5 -1 -6 -11.8189 23.3708 2
-5 -1 -6 12.2029 19.361 9
5 1 6 20.0509 11.2355 4
5 1 7 15.3168 26.7095 1
-5 -1 -7 14.7477 32.6238 2
-5 -1 -7 4.22614 17.2507 3
-5 -1 -7 17.1795 26.811 9
-5 -1 -8 467.285 94.198 2
-5 -1 -8 445.59 81.5431 3
-5 -1 -8 416.097 78.0076 9
5 1 9 83.6433 42.5471 8
-5 -1 -9 53.164 32.3637 2
-5 -1 -9 113.455 44.7433 3
-5 -1 -9 -26.679 26.535 9
-5 -1 -10 92.2745 49.0136 2
-5 -1 -10 91.474 44.9765 3
-5 -1 -10 38.6012 23.2879 9
-5 -1 -11 78.021 47.0674 2
-5 -1 -11 251.113 92.8667 7
-5 -1 -11 115.137 55.0089 3
-5 -1 -12 -48.5388 41.2918 3
5 2 -10 105.819 59.9806 1
-5 -2 10 32.2197 36.9518 6
-5 -2 10 152.431 69.8426 8
5 2 -9 185.522 77.8566 1
-5 -2 9 208.346 71.1412 6
-5 -2 9 332.916 98.2214 8
5 2 -8 45.4258 42.2105 1
-5 -2 8 41.7255 27.459 6
-5 -2 8 8.21944 37.6759 8
5 2 -7 -9.48852 27.4363 1
-5 -2 7 -28.3062 24.4256 6
-5 -2 7 -12.1247 28.9523 8
-5 -2 6 38.2258 31.3954 6
5 2 -6 82.737 47.9387 1
-5 -2 6 -24.1114 38.8489 8
-5 -2 5 2.35104 22.3702 6
5 2 -5 -47.9517 44.9088 1
-5 -2 4 1791.34 145.834 6
-5 -2 4 2159.34 193.773 8
5 2 -4 1910.03 171.137 1
-5 -2 3 472.392 47.0149 7
-5 -2 3 602.016 80.4152 6
5 2 -3 652.356 96.9194 1
-5 -2 3 581.06 98.6904 8
-5 -2 2 24.1641 13.1646 7
-5 -2 2 16.7185 17.9792 6
5 2 -2 43.8898 44.392 1
-5 -2 2 45.1231 36.2505 8
-5 -2 1 1613.11 111.312 7
-5 -2 1 1527.33 104.687 6
5 2 -1 1754.78 149.453 1
-5 -2 1 1694.74 149.424 8
5 2 0 191.564 31.332 3
5 2 0 173.43 49.4062 1
-5 -2 0 227.021 50.0329 7
-5 -2 0 243.626 39.1525 6
5 2 0 188.782 32.093 6
-5 -2 0 293.708 63.6396 2
5 2 1 7543.61 170.318 3
-5 -2 -1 8713.98 292.799 7
5 2 1 8599.18 232.999 6
5 2 1 9102 336.208 1
-5 -2 -1 7894.71 302.007 9
5 2 1 7757.33 215.41 5
-5 -2 -2 771.124 97.2779 7
5 2 2 553.072 62.2778 6
5 2 2 631.737 87.7929 1
5 2 2 540.259 46.9777 5
-5 -2 -2 668.911 87.6576 9
5 2 3 3.80282 18.6082 6
5 2 3 41.0967 34.3021 1
5 2 3 6.59409 19.7736 9
-5 -2 -3 -0.54052 23.9338 9
-5 -2 -4 124.45 29.2031 3
5 2 4 248.788 50.7007 6
5 2 4 271.274 68.9321 1
5 2 4 196.813 50.5341 9
-5 -2 -4 181.4 49.8961 9
-5 -2 -5 1090.49 96.7375 3
5 2 5 1258.13 141.583 1
5 2 5 898.339 110.007 9
-5 -2 -5 1116.96 110.321 9
5 2 5 1133.01 83.7149 4
-5 -2 -6 540.556 76.4847 3
5 2 6 542.51 95.0194 1
-5 -2 -6 531.532 88.0751 2
-5 -2 -6 516.695 77.8449 9
5 2 6 434.12 44.7915 4
-5 -2 -7 1116.86 116.739 3
5 2 7 998.968 138.781 1
-5 -2 -7 887.367 115.598 2
-5 -2 -7 849.968 102.527 9
-5 -2 -8 181.402 61.2587 2
-5 -2 -8 187.036 52.3658 3
-5 -2 -8 214.493 71.8435 7
-5 -2 -8 196.482 49.4478 9
5 2 9 96.7034 49.7835 8
-5 -2 -9 44.9273 31.4725 2
-5 -2 -9 49.1513 34.5202 3
-5 -2 -9 123.284 64.9966 7
-5 -2 -9 52.3631 26.9999 9
-5 -2 -10 91.6938 35.9006 2
5 2 10 68.2909 47.6027 8
-5 -2 -10 53.4908 42.7603 7
-5 -2 -10 85.5706 39.6766 3
-5 -2 -11 59.0754 68.3214 7
-5 -2 -11 29.6597 33.2853 3
-5 -2 -12 18.029 31.3933 3
-5 -3 10 143.959 79.5217 6
5 3 -10 43.4498 43.8563 1
-5 -3 10 57.7813 37.2403 8
-5 -3 9 137.992 68.1123 6
5 3 -9 97.5911 64.1026 2
5 3 -9 129.979 66.2234 1
-5 -3 9 105.658 60.412 8
-5 -3 8 73.2783 44.11 6
5 3 -8 5.87206 25.6448 1
5 3 -8 9.79837 31.3833 2
-5 -3 8 28.6203 38.3142 8
5 3 -7 94.9434 45.03 1
-5 -3 7 19.5781 30.2207 6
5 3 -7 81.3254 50.45 2
-5 -3 7 37.6298 39.4549 8
5 3 -6 28.6853 28.1252 1
-5 -3 6 108.715 51.6858 6
-5 -3 6 99.9027 50.6494 8
5 3 -5 2432.54 207.467 2
-5 -3 5 2387.73 191.501 6
-5 -3 5 2393.81 216.233 8
5 3 -5 2655.11 219.533 1
-5 -3 4 153.374 55.9981 6
5 3 -4 66.5721 28.1256 1
-5 -3 4 94.272 47.7498 8
-5 -3 3 29.502 16.109 7
5 3 -3 80.9708 37.3728 1
-5 -3 3 43.1799 31.6417 6
-5 -3 3 25.0502 30.0174 8
-5 -3 2 3381.73 162.229 7
-5 -3 2 3677.37 195.113 6
-5 -3 2 3515.34 224.939 8
5 3 -2 3883.85 233.37 1
-5 -3 1 24.8846 18.2515 7
-5 -3 1 14.7423 18.5408 6
5 3 -1 53.9893 26.9531 6
5 3 -1 20.2618 29.4834 1
5 3 0 106.003 30.1116 3
-5 -3 0 47.5722 17.5549 7
5 3 0 101.089 40.3345 1
-5 -3 0 101.823 32.9966 6
5 3 0 76.5645 28.3725 6
-5 -3 0 89.3009 33.1791 2
5 3 1 241.129 61.1806 1
5 3 1 225.783 39.9627 3
-5 -3 -1 237.862 52.1066 7
-5 -3 -1 219.647 42.9059 6
5 3 1 237.072 45.0519 6
-5 -3 -1 216.998 47.5812 2
-5 -3 -2 1.94844 19.0736 7
5 3 2 8.31217 16.648 3
5 3 2 12.8847 11.6426 6
5 3 2 -21.9131 28.8079 9
5 3 2 -10.2558 28.6554 1
-5 -3 -3 39.4187 30.2028 7
5 3 3 36.6707 17.8001 6
5 3 3 17.1947 27.1661 1
5 3 3 -35.1933 22.4698 9
-5 -3 -3 -20.0202 26.2524 9
-5 -3 -4 11.3946 14.0712 3
-5 -3 -4 16.6977 20.5562 7
5 3 4 32.1827 26.2674 6
5 3 4 -7.03409 28.7567 1
5 3 4 0.15703 15.2754 9
-5 -3 -4 -7.44523 17.8968 9
-5 -3 -5 541.233 74.5586 3
-5 -3 -5 540.699 95.3242 7
5 3 5 496.051 84.2449 6
5 3 5 467.184 86.6034 1
5 3 5 485.814 73.7951 9
-5 -3 -5 501.201 70.6039 9
-5 -3 -6 107.01 38.554 3
5 3 6 105.268 49.4571 1
-5 -3 -6 98.0363 37.9138 2
-5 -3 -6 126.674 45.3527 7
-5 -3 -6 95.8145 29.9644 9
5 3 6 121.926 22.7727 4
-5 -3 -7 1336.72 134.04 3
-5 -3 -7 1438.17 163.331 7
5 3 7 1331.86 157.17 1
-5 -3 -7 1442.59 133.81 2
-5 -3 -7 1446.17 121.625 9
-5 -3 -8 1451.38 149.892 3
-5 -3 -8 1288.51 163.552 7
5 3 8 1589.76 178.601 1
-5 -3 -8 1536.7 150.781 2
-5 -3 -8 934.02 98.0806 9
-5 -3 -9 -26.6475 32.0938 2
5 3 9 8.00654 31.1636 8
-5 -3 -9 31.2263 36.468 3
-5 -3 -9 -29.5652 42.1843 7
-5 -3 -10 -5.16296 25.8731 3
-5 -3 -10 -39.2792 30.2381 7
5 3 11 18.4848 36.985 8
-5 -3 -11 -59.8454 47.8773 7
-5 -3 -11 31.5433 29.8136 3
-5 -3 -12 0.55463 25.3964 3
5 4 -9 68.0535 53.0184 1
-5 -4 9 -65.8394 49.1039 6
-5 -4 9 71.1506 47.1143 8
-5 -4 8 6.4143 40.239 6
5 4 -8 11.3037 26.3471 2
-5 -4 8 3.1437 27.8083 8
5 4 -8 -40.4932 42.6388 1
-5 -4 7 516.561 107.099 6
5 4 -7 449.591 100.233 2
5 4 -7 452.282 102.431 1
-5 -4 7 576.563 107.461 8
5 4 -6 59.9692 42.4604 1
-5 -4 6 63.9236 45.9301 6
5 4 -6 68.2564 39.9207 2
-5 -4 6 108.467 45.6519 8
5 4 -5 6506.73 346.616 2
-5 -4 5 7043.84 351.567 6
-5 -4 5 6428.76 331.11 8
5 4 -5 7430.36 374.532 1
5 4 -4 1645.85 166.802 2
-5 -4 4 1915.24 171.26 6
-5 -4 4 1507.09 155.876 8
5 4 -4 1943.59 185.605 1
-5 -4 3 795.752 81.0134 7
5 4 -3 732.049 109.391 2
-5 -4 3 768.327 102.102 6
-5 -4 3 823.341 111.382 8
5 4 -3 740.761 108.138 1
-5 -4 2 1303.94 111.288 7
-5 -4 2 1364.71 129.323 6
5 4 -2 1433.83 132.801 6
5 4 -2 1406.15 146.2 1
-5 -4 1 49.8475 24.0597 7
-5 -4 1 24.8454 21.1403 6
5 4 -1 106.883 35.1103 6
5 4 -1 46.483 36.5581 1
5 4 0 845.754 92.3741 3
-5 -4 0 813.702 95.1866 7
-5 -4 0 698.405 84.7247 6
5 4 0 862.273 99.1656 6
-5 -4 0 809.459 99.8275 2
5 4 0 969.117 114.885 1
5 4 1 1526.58 123.737 3
-5 -4 -1 1649.31 137.505 7
-5 -4 -1 1423.89 120.002 6
5 4 1 1480.12 128.56 6
-5 -4 -1 1643.2 129.528 2
5 4 1 1532.8 142.442 1
5 4 2 -21.9336 32.3855 1
5 4 2 0.65978 19.2629 3
-5 -4 -2 -21.1566 36.8251 7
5 4 2 -13.1404 26.9604 6
-5 -4 -2 18.192 18.4887 2
5 4 2 22.6426 22.8762 9
-5 -4 -3 289.969 62.9873 7
5 4 3 290.274 53.0465 3
-5 -4 -3 332.486 53.6207 2
5 4 3 321.373 66.583 6
5 4 3 340.455 60.7625 9
5 4 3 381.777 74.0672 1
-5 -4 -4 874.915 98.307 3
-5 -4 -4 978.938 121.29 7
5 4 4 896.367 111.299 6
5 4 4 772.932 106.817 1
5 4 4 866.061 93.1417 9
-5 -4 -5 279.187 61.4799 3
-5 -4 -5 236.95 65.3481 7
5 4 5 196.565 57.4177 1
5 4 5 215.846 46.6306 9
-5 -4 -6 -21.3143 26.8938 3
-5 -4 -6 -13.742 13.8104 2
-5 -4 -6 36.7855 41.8713 7
5 4 6 -8.56918 34.7447 1
5 4 6 -19.1227 17.3962 9
-5 -4 -7 885.335 118.572 3
-5 -4 -7 823.53 127.971 7
5 4 7 742.954 117.722 1
-5 -4 -7 953.311 100.807 2
-5 -4 -7 688.579 78.95 9
-5 -4 -8 5.1348 15.7759 2
5 4 8 -2.13216 28.3732 1
5 4 8 23.3871 33.5441 8
-5 -4 -8 25.159 33.6847 3
-5 -4 -8 4.25996 25.4739 7
-5 -4 -8 37.3938 23.4328 9
5 4 9 -72.1418 46.3851 8
-5 -4 -9 14.3138 30.2246 3
-5 -4 -9 15.8076 26.0962 7
5 4 10 -15.4036 52.1768 8
-5 -4 -10 -25.3074 36.6088 3
-5 -4 -10 -13.232 26.3965 7
5 4 11 117.048 63.0126 8
-5 -4 -11 13.8564 32.2775 3
-5 -4 -11 41.1555 50.9797 7
5 4 12 82.6078 60.6076 8
-5 -4 -12 56.0608 47.2356 3
5 5 -9 -97.5696 60.9168 1
-5 -5 9 -66.7366 51.0163 6
-5 -5 9 -5.26666 24.998 8
5 5 -8 10.0583 45.1369 1
-5 -5 8 -32.1724 65.7892 6
5 5 -8 25.2993 37.2849 2
-5 -5 8 37.2827 37.7927 8
5 5 -7 -26.9329 38.1421 1
-5 -5 7 -27.126 58.7583 6
5 5 -7 -32.4872 38.4673 2
-5 -5 7 111.765 56.7125 8
-5 -5 6 -56.7737 49.7447 6
5 5 -6 68.1603 47.1468 2
5 5 -6 10.8964 26.5966 1
-5 -5 6 16.4079 27.8782 8
-5 -5 5 1623.53 174.437 6
5 5 -5 1768.47 183.805 2
5 5 -5 1693.9 187.399 1
5 5 -4 2137.3 140.666 7
-5 -5 4 2561.37 206.793 6
5 5 -4 2473.16 204.091 2
5 5 -4 2751.47 229.759 1
5 5 -3 983.134 99.6036 7
-5 -5 3 1206.82 135.02 6
5 5 -3 1077.8 127.418 2
5 5 -3 1154.79 142.569 1
-5 -5 2 1422.97 127.968 7
5 5 -2 1499.98 127.501 7
-5 -5 2 1455.54 144.351 6
5 5 -2 1576.07 146.186 2
5 5 -2 1429.96 154.877 1
5 5 -1 243.452 64.1295 1
-5 -5 1 260.656 56.3085 7
5 5 -1 228.526 52.7199 7
-5 -5 1 259.152 60.1054 6
5 5 0 4.87593 19.4231 3
-5 -5 0 38.1171 24.9968 7
5 5 0 20.047 12.9665 7
-5 -5 0 7.60217 23.1738 6
5 5 0 27.1797 20.5921 6
5 5 0 28.8383 37.1306 1
-5 -5 0 -21.9187 26.8292 2
5 5 1 68.8339 30.5952 3
-5 -5 -1 85.7523 35.704 7
5 5 1 69.163 33.3753 1
-5 -5 -1 80.8262 32.5198 6
5 5 1 49.0552 26.5894 6
-5 -5 -1 58.1511 31.3718 2
-5 -5 -2 2472.83 187.752 7
5 5 2 2456.91 186.555 6
-5 -5 -2 2644.33 154.725 2
5 5 2 2440.12 185.147 1
5 5 2 2298.8 161.684 9
5 5 3 617.779 85.6692 3
-5 -5 -3 577.417 94.0088 7
-5 -5 -3 530.986 64.0553 2
5 5 3 586.312 90.0653 1
5 5 3 512.422 74.0144 9
-5 -5 -4 5050.59 251.402 3
-5 -5 -4 5310.27 288.519 7
5 5 4 4897.31 266.427 1
5 5 4 4751.18 129.642 5
5 5 4 4572.52 206.513 9
-5 -5 -5 99.1086 45.1177 3
-5 -5 -5 82.188 45.1695 7
-5 -5 -5 53.9796 20.203 2
-5 -5 -5 37.1631 15.6919 2
5 5 5 83.4675 37.8026 1
5 5 5 69.6894 27.1844 9
-5 -5 -6 123.58 28.7123 2
-5 -5 -6 172.073 54.8234 3
-5 -5 -6 131.54 47.3069 7
5 5 6 230.906 63.6222 1
5 5 6 115.617 40.1959 10
5 5 6 147.561 36.9234 9
-5 -5 -7 37.129 21.244 2
-5 -5 -7 113.627 52.5823 3
5 5 7 62.0454 34.2364 1
-5 -5 -7 14.6113 38.7135 7
5 5 8 -23.9221 31.4674 8
5 5 8 -29.6597 31.8551 1
-5 -5 -8 16.451 35.6495 3
-5 -5 -8 -7.98594 28.9746 7
5 5 9 -23.7339 51.3427 8
-5 -5 -9 32.9395 45.1443 3
-5 -5 -9 -3.89117 32.6947 7
5 5 10 186.384 71.7168 8
-5 -5 -10 153.526 66.968 3
-5 -5 -10 201.704 76.555 7
5 5 11 -65.4696 49.1313 8
-5 -5 -11 -18.8444 45.3978 7
5 5 12 120.617 71.6285 8
5 6 -8 -38.7086 35.9144 1
-5 -6 8 32.0438 36.92 6
5 6 -8 38.0199 40.7216 2
5 6 -7 35.777 32.464 1
-5 -6 7 71.1591 47.4462 6
5 6 -7 52.6865 42.9076 2
-5 -6 6 -3.71254 28.4844 6
5 6 -6 -22.0022 38.8081 2
5 6 -6 -29.6853 37.4025 1
5 6 -5 0.15807 39.0841 1
-5 -6 5 68.7565 37.6639 6
5 6 -5 50.2775 35.643 2
5 6 -4 264.118 83.371 1
5 6 -4 286.434 59.8102 7
-5 -6 4 290.601 72.8793 6
5 6 -4 268.433 72.3261 2
5 6 -3 71.7897 29.5082 7
-5 -6 3 80.4283 41.8428 6
5 6 -3 86.331 38.565 2
5 6 -3 55.0204 33.4144 1
-5 -6 2 2.29517 17.6895 7
5 6 -2 -9.43258 31.3742 1
-5 -6 2 -20.0712 36.9326 6
5 6 -2 -9.15115 20.3399 2
5 6 -1 102.019 41.2789 1
-5 -6 1 160.563 50.7816 7
-5 -6 1 113.28 39.4898 6
5 6 -1 108.932 41.4401 2
-5 -6 0 4663.33 262.578 7
-5 -6 0 4371.49 250.478 6
-5 -6 0 4534.2 241.99 2
5 6 0 4946.32 276.12 1
-5 -6 -1 2585.1 199.857 7
-5 -6 -1 2386.25 187.304 6
-5 -6 -1 1971.84 144.956 2
5 6 1 2683.81 201.281 1
-5 -6 -2 26.5554 29.3913 7
5 6 2 -5.77675 29.6165 1
-5 -6 -2 -37.0261 45.449 6
-5 -6 -2 -7.35829 16.4062 2
-5 -6 -3 904.696 128.65 7
-5 -6 -3 668.203 68.21 2
5 6 3 953.698 119.061 1
5 6 3 866.387 96.6787 9
-5 -6 -4 468.65 86.0845 3
-5 -6 -4 558.384 99.8845 7
-5 -6 -4 314.355 40.2227 2
5 6 4 466.772 56.7959 5
5 6 4 439.958 66.4236 9
5 6 4 435.998 83.4362 1
-5 -6 -5 753.228 109.247 3
-5 -6 -5 766.187 120.821 7
-5 -6 -5 445.913 37.3774 2
5 6 5 694.712 105.383 1
-5 -6 -5 599.466 44.2934 2
5 6 5 639.917 74.0807 9
5 6 5 659.545 58.823 5
-5 -6 -6 57.0099 43.0325 3
-5 -6 -6 65.5336 36.6835 7
5 6 6 23.0841 23.8241 1
-5 -6 -7 -0.27167 31.6566 3
-5 -6 -7 20.0892 40.3869 7
5 6 7 -11.2064 29.9239 1
-5 -6 -8 2033.33 203.22 3
-5 -6 -8 1882.15 215.762 7
5 6 8 1765.1 187.185 1
5 6 8 1929.4 225.145 8
5 6 9 246.071 91.4614 8
-5 -6 -9 125.793 65.6605 3
-5 -6 -9 191.869 70.4814 7
5 6 10 48.0351 60.0399 8
-5 -6 -10 33.3403 32.3959 3
-5 -6 -10 12.0536 35.8113 7
5 6 11 50.3136 49.5495 8
-5 -6 -11 55.5254 61.0108 3
-5 -6 -11 -18.1281 35.6472 7
-5 -7 8 174.049 82.3684 6
5 7 -7 48.6502 47.5016 1
-5 -7 7 101.998 55.7922 6
5 7 -7 54.2007 51.6639 2
-5 -7 6 -22.8728 34.3157 6
5 7 -6 -12.9068 35.1329 2
5 7 -6 -24.5709 44.0839 1
-5 -7 5 281.096 83.638 6
5 7 -5 296.793 83.244 1
5 7 -5 303.85 84.521 2
5 7 -4 249.862 78.8792 1
-5 -7 4 249.385 72.1751 6
5 7 -4 196.341 67.832 2
-5 -7 3 1486.78 172.606 6
5 7 -3 1465.78 157.658 2
5 7 -3 1305.7 162.864 1
-5 -7 2 458.409 95.552 6
5 7 -2 468.251 96.0316 1
5 7 -2 391.345 81.6098 2
-5 -7 1 82.6498 41.9803 7
5 7 -1 116.844 48.3864 1
-5 -7 1 145.713 52.8241 6
5 7 -1 155.49 46.0333 2
-5 -7 0 22.4612 17.9925 2
-5 -7 0 50.7797 37.0252 7
5 7 0 -15.884 24.1603 2
-5 -7 0 25.3598 29.212 6
5 7 0 71.3859 43.7656 1
-5 -7 -1 834.929 121.484 7
-5 -7 -1 938.221 128.254 6
-5 -7 -1 655.635 84.9437 2
5 7 1 936.036 125.222 1
-5 -7 -2 2228.34 197.375 7
-5 -7 -2 2440.54 200.323 6
5 7 2 2318.26 191.75 1
-5 -7 -3 765.693 120.217 7
-5 -7 -3 558.974 56.8686 2
5 7 3 834.88 117.56 1
5 7 3 650.966 84.8247 9
-5 -7 -4 191.939 64.1247 7
5 7 4 185.638 45.9911 5
5 7 4 185.253 42.6184 9
5 7 4 159.024 55.9543 1
-5 -7 -5 1363.78 157.054 3
-5 -7 -5 1527.81 177.52 7
5 7 5 1261.57 144.909 1
5 7 5 1476.16 111.144 5
-5 -7 -6 45.7926 37.094 3
-5 -7 -6 -1.62144 34.8178 7
5 7 6 -46.1235 45.0549 1
5 7 6 -42.8906 19.8529 5
5 7 7 114.458 56.6552 8
-5 -7 -7 117.113 46.4871 3
-5 -7 -7 172.452 73.9514 7
5 7 7 163.492 53.4191 1
-5 -7 -8 1831.47 212.348 3
-5 -7 -8 1985.3 231.595 7
5 7 8 2041.66 202.346 1
5 7 8 1776.58 229.342 8
-5 -7 -9 1801.91 211.213 3
-5 -7 -9 2125.44 249.327 7
5 7 9 2038.18 248.545 8
5 7 10 -51.7088 52.4623 8
-5 -7 -10 5.6713 39.5788 3
-5 -8 7 36.0289 40.9846 6
5 8 -7 53.8941 50.953 2
-5 -8 6 -47.4137 40.0751 6
5 8 -6 -9.19357 37.0708 2
5 8 -6 -14.9714 33.9766 1
5 8 -5 -4.86456 48.8764 1
-5 -8 5 83.2998 47.1084 6
5 8 -5 93.5522 50.428 2
5 8 -4 3.31305 40.8127 1
-5 -8 4 9.8386 27.5159 6
5 8 -4 -11.3622 41.6272 2
-5 -8 3 23.875 44.2348 6
5 8 -3 63.3039 42.0815 2
5 8 -3 11.7294 26.2816 1
-5 -8 2 65.3907 30.955 6
5 8 -2 116.803 56.4621 1
5 8 -2 128.66 46.7845 2
-5 -8 1 16.9963 23.3907 7
5 8 -1 51.6702 44.6391 1
5 8 -1 68.0771 26.9536 2
-5 -8 0 4186.44 281.521 7
-5 -8 0 3497.64 258.158 6
5 8 0 3826.33 209.061 2
-5 -8 0 3796.01 236.945 2
5 8 0 3541.69 260.767 1
-5 -8 -1 4079.7 281.529 7
-5 -8 -1 3675.1 269.309 6
-5 -8 -1 3750.36 210.304 2
5 8 1 4127.34 268.954 1
-5 -8 -2 38.9397 34.5826 7
5 8 2 58.6385 30.1807 1
-5 -8 -2 82.712 38.2459 6
5 8 3 -23.2454 32.7049 1
-5 -8 -3 24.8913 35.0937 7
-5 -8 -4 -2.7448 32.3296 7
5 8 4 -10.1434 20.9627 5
5 8 4 -18.5987 30.5305 1
-5 -8 -5 -57.9871 47.2084 3
-5 -8 -5 55.8376 54.2996 7
5 8 5 47.4884 40.7333 1
5 8 5 -5.01585 19.9761 5
-5 -8 -6 560.731 112.216 3
-5 -8 -6 452.84 105.343 7
5 8 6 525.612 96.1222 1
5 8 6 603.762 82.3507 5
5 8 7 311.386 99.1937 8
-5 -8 -7 108.173 43.3944 3
-5 -8 -7 166.725 75.7939 7
5 8 7 181.283 62.6362 1
5 8 8 123.699 72.5763 8
5 8 8 135.961 54.2051 1
-5 -8 -8 73.2837 43.3261 3
-5 -8 -8 149.296 71.2919 7
5 8 9 311.348 109.722 8
-5 -8 -9 355.536 102.545 3
-5 -8 -9 245.733 96.6535 7
-5 -8 -10 -84.2648 69.5098 7
-5 -9 6 14.9259 33.74 6
5 9 -6 79.1861 53.2783 1
5 9 -6 52.8381 33.9741 2
5 9 -5 -6.377 41.1297 1
-5 -9 5 -36.7561 48.3452 6
5 9 -5 -52.317 42.5212 2
-5 -9 4 66.3111 49.7934 6
5 9 -4 64.3517 32.238 2
-5 -9 3 95.9742 51.4124 6
5 9 -3 2.60543 38.4738 2
5 9 -3 32.4182 33.2982 1
5 9 -2 96.8268 58.8006 1
-5 -9 2 38.6947 36.0859 6
5 9 -2 27.774 31.9445 2
5 9 -1 631.862 95.9908 2
-5 -9 1 616.785 117.434 6
5 9 -1 792.565 132.398 1
-5 -9 0 2043.19 207.268 7
-5 -9 0 2032.62 212.236 6
5 9 0 2125.64 158.606 2
5 9 0 2057.66 202.415 1
-5 -9 -1 2417.13 237.09 7
-5 -9 -1 2412.11 232.225 6
5 9 1 2527.66 219.534 1
-5 -9 -2 969.328 151.1 7
-5 -9 -2 997.648 145.254 6
5 9 2 943.613 131.139 1
5 9 3 60.1372 39.287 1
-5 -9 -3 48.1121 42.5858 7
5 9 3 33.9496 27.4734 5
-5 -9 -4 311.018 94.2337 7
5 9 4 215.699 59.6421 5
5 9 4 295.331 74.6365 1
-5 -9 -5 1339.88 190.887 7
5 9 5 1507.39 162.504 1
5 9 5 1486.31 146.88 5
-5 -9 -6 -11.0765 36.1604 3
5 9 6 195.879 83.4295 8
-5 -9 -6 128.948 70.7792 7
5 9 6 62.9077 39.6329 1
5 9 6 168.997 49.6349 5
5 9 7 36.8786 44.6919 8
-5 -9 -7 7.82458 31.3816 3
-5 -9 -7 6.24288 44.4151 7
5 9 7 33.7455 32.2174 1
5 9 8 89.6303 70.1506 8
-5 -9 -8 39.7817 36.833 3
-5 -9 -9 -37.7793 34.9651 7
5 10 -5 108.587 62.6091 1
5 10 -5 46.0343 45.1703 2
-5 -10 4 34.8025 46.6656 6
5 10 -4 16.5822 34.3269 2
5 10 -4 63.2178 44.3468 1
-5 -10 3 -28.8166 44.8486 6
5 10 -3 -9.07608 38.1286 1
5 10 -3 30.5408 30.2259 2
5 10 -2 48.3105 39.937 1
-5 -10 2 24.9232 37.8429 6
5 10 -2 -13.3105 28.0961 2
5 10 -1 3.99881 49.3862 1
-5 -10 1 190.871 73.6522 6
5 10 -1 128.086 50.0671 2
-5 -10 0 58.8678 45.0199 6
5 10 0 48.9523 27.5393 2
5 10 0 -19.358 54.0481 1
-5 -10 -1 -10.2954 56.653 7
-5 -10 -1 75.5273 41.6058 6
5 10 1 34.7249 36.377 1
-5 -10 -2 110.862 60.1775 7
5 10 2 130.646 57.1079 1
5 10 3 -23.2917 39.6215 1
-5 -10 -3 -2.50404 47.1178 7
5 10 3 -19.5798 34.8757 5
-5 -10 -4 -5.17063 49.8929 7
5 10 4 34.6413 28.9447 5
5 10 4 -4.33588 31.6845 1
5 10 5 473.301 125.074 8
-5 -10 -5 550.373 129.189 7
5 10 5 324.427 76.5168 1
5 10 5 393.509 81.6165 5
5 10 6 659.365 145.791 8
-5 -10 -6 619.104 140.332 7
5 10 6 563.838 97.8831 5
-5 -10 -7 -6.58702 37.3667 3
5 10 7 65.7135 63.5498 8
-5 -10 -7 27.4043 42.2192 7
5 11 -5 27.7167 30.3418 2
5 11 -4 61.5582 40.7818 2
5 11 -4 104.875 67.3939 1
5 11 -3 293.898 94.069 1
5 11 -3 390.263 89.1948 2
5 11 -2 156.314 62.1325 1
-5 -11 2 208.147 80.8986 6
-5 -11 1 31.5662 22.6747 6
5 11 -1 16.3659 27.6918 1
-5 -11 0 -30.5954 37.9061 6
5 11 0 -123.222 56.4085 1
-5 -11 -1 28.9119 40.2912 6
5 11 1 77.2427 52.394 1
5 11 2 -12.1054 38.1667 1
5 11 3 -5.67123 35.63 8
-5 -11 -3 -0.42518 49.2681 7
5 11 3 16.0402 28.6683 5
5 11 3 -1.84866 25.8427 1
5 11 4 120.238 65.4914 8
-5 -11 -4 79.9049 60.5547 7
5 11 4 99.9024 54.7899 5
5 11 5 28.376 41.6732 8
-5 -11 -5 14.6159 31.5982 7
5 11 5 -40.5698 33.0872 5
5 12 -2 -83.332 54.3018 1
5 12 -1 -15.8138 33.4529 1
5 12 0 -11.5231 28.4888 1
5 12 1 5.92096 45.695 8
5 12 2 361.688 106.287 8
5 12 2 403.338 109.394 5
5 12 3 -23.2041 37.3788 8
5 12 3 41.6937 39.451 5
5 12 4 141.724 86.6488 8
5 12 4 -20.8398 30.8741 5
5 12 5 50.9977 41.3365 5
-6 7 -1 -157.155 69.2664 5
-6 7 -2 26.2056 36.256 5
-6 6 4 40.0564 37.9261 9
-6 6 3 93.365 58.3329 9
-6 6 3 65.6607 55.0105 8
-6 6 2 76.6712 48.9142 9
-6 6 2 -40.8441 42.4788 8
-6 6 1 23.1754 23.5746 9
-6 6 1 39.6793 26.1229 8
-6 6 0 6.13584 33.9118 9
6 -6 1 115.759 70.4739 10
-6 6 -1 143.932 83.0527 9
-6 6 -1 1.73065 23.097 5
6 -6 2 125.613 62.5345 10
-6 6 -2 51.9987 29.3853 5
6 -6 3 -114.381 68.9464 10
-6 6 -3 34.0396 38.3507 5
6 -6 4 81.8127 41.4777 10
6 -6 5 47.3603 58.7911 10
-6 5 4 41.824 46.4585 9
-6 5 4 14.0875 50.5098 8
-6 5 3 27.1706 39.47 9
-6 5 3 -22.695 37.9351 8
6 -5 -2 -7.28545 36.0995 10
-6 5 2 34.0764 33.3583 9
6 -5 -2 16.672 32.9136 4
-6 5 2 37.2214 37.9952 8
6 -5 -1 174.292 83.4204 10
-6 5 1 26.4929 39.1331 9
6 -5 -1 138.584 76.6522 4
-6 5 1 163.373 71.5523 8
6 -5 0 118.43 60.6982 10
-6 5 0 87.8579 54.0418 9
6 -5 0 84.506 56.3178 4
-6 5 0 132.852 66.1081 8
6 -5 1 20.7326 42.8928 10
-6 5 -1 65.765 45.0287 9
-6 5 -1 20.6415 34.7603 5
6 -5 1 45.4328 45.2214 4
-6 5 -1 28.8236 36.6386 8
6 -5 2 64.8554 40.1617 10
-6 5 -2 64.5708 52.8947 9
-6 5 -2 -12.5384 23.7834 5
6 -5 2 37.5378 47.2795 4
6 -5 3 149.568 74.7563 10
-6 5 -3 55.6153 45.0934 9
-6 5 -3 36.1959 32.0669 5
-6 5 -4 176.459 80.7761 2
6 -5 4 196.349 79.0006 10
-6 5 -4 132.664 69.7724 9
6 -5 5 721.467 147.946 10
-6 4 5 32.1736 43.0101 8
6 -4 -4 -17.4584 37.7986 10
-6 4 4 8.28082 33.7969 9
-6 4 4 -23.5995 34.3509 8
6 -4 -4 -35.3868 45.2721 4
6 -4 -3 98.2431 70.6249 10
-6 4 3 90.6672 51.3572 9
-6 4 3 -93.9691 62.6446 8
6 -4 -3 -11.7833 50.3279 4
6 -4 -2 68.4574 50.7241 10
-6 4 2 58.6122 29.3528 9
-6 4 2 64.3521 47.5399 8
6 -4 -2 0.37255 53.4809 4
6 -4 -1 -11.1702 35.5889 10
-6 4 1 -14.3813 40.0088 9
-6 4 1 -9.818 45.9721 8
6 -4 -1 -14.3856 38.0087 4
6 -4 0 56.3135 35.2664 1
6 -4 0 -10.9333 62.6644 10
-6 4 0 -70.4011 46.6225 9
-6 4 0 26.6235 29.17 8
6 -4 0 37.1269 34.6634 4
6 -4 1 331.137 94.2297 10
-6 4 -1 446.303 104.823 9
-6 4 -1 372.465 89.77 8
6 -4 1 222.419 73.6079 4
6 -4 2 72.1689 45.7693 10
-6 4 -2 9.56962 27.7139 9
-6 4 -2 8.13917 28.8118 5
-6 4 -2 59.0943 34.9982 8
6 -4 2 77.0338 51.8334 4
6 -4 3 -55.418 50.8098 10
-6 4 -3 5.86422 36.9729 9
-6 4 -3 -57.5834 35.4735 5
6 -4 3 -19.9536 51.2898 4
6 -4 4 15.0351 39.9582 10
-6 4 -4 14.8494 42.441 9
-6 4 -4 -43.7293 37.5805 5
-6 4 -5 324.73 102.823 2
6 -4 5 308.914 86.8908 10
-6 4 -5 389.559 102.793 9
-6 4 -6 452.021 124.039 2
-6 4 -6 472.363 118.1 9
-6 4 -7 -6.7351 31.9878 9
6 -3 -6 -5.7938 40.7694 4
-6 3 5 66.5454 57.6922 8
6 -3 -5 -87.3989 57.7857 4
-6 3 4 297.84 99.3719 8
6 -3 -4 158.242 73.5915 4
-6 3 3 129.506 54.8108 9
-6 3 3 -17.7761 46.886 8
6 -3 -3 78.2813 54.8712 4
6 -3 -2 86.6603 45.2019 1
-6 3 2 26.5119 30.7948 9
-6 3 2 80.4591 47.8939 8
6 -3 -2 45.7984 52.3067 4
6 -3 -1 32.3236 26.8935 1
-6 3 1 34.7047 31.4969 9
-6 3 1 21.5492 31.6713 8
6 -3 -1 77.3991 48.5958 4
6 -3 0 61.6021 33.6215 1
-6 3 0 24.1676 30.3766 9
-6 3 0 4.14434 30.0602 8
6 -3 0 42.1974 32.5383 4
6 -3 1 370.408 76.5468 1
-6 3 -1 323.014 84.9194 9
-6 3 -1 289.055 73.0211 8
6 -3 1 260.049 80.0012 4
6 -3 2 158.87 53.405 1
6 -3 2 84.0107 48.7668 10
-6 3 -2 126.081 60.7776 9
-6 3 -2 129.324 49.9248 8
6 -3 2 145.844 58.1597 4
6 -3 3 -3.23022 22.0575 1
-6 3 -3 -59.3554 47.6843 9
-6 3 -3 -28.1743 32.7337 5
6 -3 3 42.2535 49.4527 10
6 -3 3 3.31232 27.6749 4
6 -3 4 22.9862 44.99 10
-6 3 -4 -91.7519 50.8048 9
-6 3 -4 -70.6715 32.4057 5
6 -3 4 20.5817 24.8916 4
-6 3 -5 11.1837 35.0075 2
6 -3 5 77.403 41.5623 10
-6 3 -5 33.9861 38.6913 9
-6 3 -6 -10.7321 33.1681 2
6 -3 6 20.3745 27.6419 10
-6 3 -6 21.1401 25.7093 9
-6 3 -7 27.5621 42.5443 2
-6 3 -7 22.3118 39.0751 9
-6 3 -8 -72.9303 55.2734 2
-6 3 -8 107.032 51.9954 9
6 -2 -7 -99.3573 60.1146 4
-6 2 6 -44.1377 43.6895 8
6 -2 -6 50.0885 31.7333 4
-6 2 5 46.1802 49.2109 8
6 -2 -5 83.6536 77.2313 4
6 -2 -4 139.712 45.7566 1
-6 2 4 177.82 72.8927 8
6 -2 -4 157.821 66.6729 4
6 -2 -3 17.4917 20.4259 1
-6 2 3 42.7304 37.0982 8
6 -2 -3 79.4673 43.2639 4
6 -2 -2 374.351 77.4753 1
-6 2 2 473.458 102.436 9
-6 2 2 305.497 74.7714 8
6 -2 -2 476.36 110.326 4
6 -2 -1 243.388 58.8778 1
-6 2 1 246.809 75.0156 9
-6 2 1 209.309 70.3581 8
6 -2 -1 261.957 76.3802 4
6 -2 0 154.068 55.5186 1
-6 2 0 27.6575 25.1865 9
-6 2 0 181.991 61.2906 8
6 -2 0 83.1104 47.8763 4
6 -2 1 748.204 110.769 1
-6 2 -1 613.926 111.14 9
-6 2 -1 558.876 101.597 8
6 -2 1 650.621 113.033 4
6 -2 2 1144.94 136.594 1
-6 2 -2 1211.75 151.482 9
6 -2 2 1051.8 139.959 4
6 -2 3 1602.73 164.412 1
-6 2 -3 1546.03 176.949 9
6 -2 3 1494.94 165.219 4
6 -2 4 91.0042 41.4411 1
6 -2 4 134.673 49.4973 10
-6 2 -4 52.2903 29.9738 9
-6 2 -4 82.8603 29.3048 5
6 -2 4 130.46 55.8843 4
6 -2 5 -14.8287 29.9609 10
-6 2 -5 -11.8256 36.0075 9
6 -2 5 -1.58125 28.9342 4
-6 2 -6 115 51.2662 2
6 -2 6 145.846 51.4206 10
-6 2 -6 128.891 60.6466 9
-6 2 -7 47.4387 47.2421 2
-6 2 -7 79.6447 49.6782 9
-6 2 -8 103.973 57.9093 2
-6 2 -8 130.617 56.9545 9
-6 2 -9 42.5443 45.3333 2
-6 2 -9 57.2853 49.3488 9
-6 2 -10 73.4099 55.5926 9
-6 1 7 -78.3945 58.4953 8
6 -1 -7 121.915 63.6834 4
6 -1 -6 101.56 58.0999 4
-6 1 6 134.045 61.8131 8
6 -1 -5 65.4893 41.895 4
6 -1 -5 102.502 42.7508 1
6 -1 -5 104.399 40.9877 3
-6 1 5 119.143 58.1625 8
6 -1 -4 21.546 19.5705 1
6 -1 -4 -3.79102 16.2121 3
-6 1 4 -25.9084 40.4016 8
6 -1 -3 -33.7357 53.4814 4
6 -1 -3 21.9076 21.7778 3
-6 1 3 58.0614 49.197 8
6 -1 -3 -81.1388 38.3327 1
6 -1 -2 698.148 114.296 4
6 -1 -2 608.319 52.8264 3
6 -1 -2 703.345 99.9657 1
-6 1 2 686.518 114.376 9
-6 1 2 617.8 116.689 8
6 -1 -1 449.882 80.1505 1
-6 1 1 424.681 87.3687 9
-6 1 1 287.616 76.4161 8
6 -1 -1 310.009 75.8071 4
6 -1 0 -23.4132 29.498 1
-6 1 0 -23.3644 29.483 9
-6 1 0 -11.8595 24.5883 8
6 -1 0 -41.8516 36.2173 4
6 -1 1 -25.2417 32.5862 1
-6 1 -1 25.3843 29.0691 9
-6 1 -1 -0.46383 21.1774 8
6 -1 1 12.2248 28.0968 4
6 -1 2 467.869 87.6923 1
-6 1 -2 516.884 98.5624 9
6 -1 2 390.831 82.3563 4
6 -1 3 7.35144 27.3464 1
-6 1 -3 28.3468 27.3814 9
6 -1 3 57.1485 34.6817 4
6 -1 4 64.2263 42.4126 1
-6 1 -4 48.7159 30.0286 9
6 -1 4 -5.48438 32.6791 4
6 -1 5 57.6353 35.3133 1
-6 1 -5 83.2608 43.4175 9
6 -1 5 91.5729 44.1404 4
6 -1 6 697.003 102.356 10
-6 1 -6 868.213 135.895 9
-6 1 -6 793.998 134.784 2
-6 1 -7 765.679 138.992 2
-6 1 -7 829.505 133.296 9
-6 1 -8 126.691 65.611 2
-6 1 -8 48.4335 35.8149 9
-6 1 -9 80.6354 58.5855 2
-6 1 -9 -71.3378 44.8842 9
-6 1 -10 39.3775 56.1777 2
-6 1 -10 -16.932 31.4069 9
6 0 -7 6.51808 32.1001 1
-6 0 7 54.396 40.3346 8
6 0 -6 71.9136 45.2197 1
-6 0 6 66.9968 62.3645 8
6 0 -5 296.673 71.19 1
-6 0 5 212.038 51.987 6
-6 0 5 296.123 93.7205 8
6 0 -4 72.5359 38.5693 1
-6 0 4 66.3771 28.9151 6
-6 0 4 108.768 56.96 8
6 0 -3 -21.7906 24.3749 1
-6 0 3 0.49031 10.0436 7
6 0 -3 -18.8923 14.6101 3
-6 0 3 16.4301 15.9401 6
-6 0 3 34.5407 40.5441 8
6 0 -2 326.638 72.4674 1
6 0 -2 304.245 39.0155 3
-6 0 2 381.354 57.881 7
-6 0 2 254.477 22.9054 6
-6 0 2 288.712 83.0618 8
6 0 -1 1423.25 145.533 1
-6 0 1 1549.16 163.295 9
-6 0 1 1631.57 173.594 8
6 0 0 317.159 73.1518 1
-6 0 0 327.266 74.8915 9
-6 0 0 349.832 78.3105 8
6 0 1 312.595 72.142 4
6 0 1 269.072 66.1517 1
6 0 1 227.218 50.5803 5
-6 0 -1 279.42 69.0057 9
-6 0 -1 207.059 58.6244 8
6 0 2 113.466 47.4617 1
-6 0 -2 135.712 54.1286 9
6 0 2 116.236 39.6259 4
6 0 3 937.804 125.944 1
-6 0 -3 813.408 115.84 9
6 0 3 905.101 115.941 4
6 0 4 37.9837 33.1851 1
-6 0 -4 -19.0326 34.7614 9
6 0 4 13.2963 17.8903 4
6 0 5 45.4148 35.7306 1
-6 0 -5 -37.7607 38.0662 9
6 0 5 0.08714 21.5229 4
6 0 6 262.264 75.7915 1
-6 0 -6 283.436 77.5544 2
-6 0 -6 284.306 74.0912 9
6 0 6 246.042 54.3654 4
-6 0 -7 490.111 106.45 2
-6 0 -7 517.443 108.309 9
-6 0 -8 393.864 97.142 2
-6 0 -8 348.153 87.2631 9
-6 0 -9 77.3467 52.1599 2
-6 0 -9 33.5795 25.7873 9
-6 0 -10 9.5035 31.8679 2
-6 0 -10 130.245 54.3395 9
-6 0 -11 18.8993 37.9375 2
6 1 -8 -116.539 55.1137 1
-6 -1 8 -15.3182 40.1193 8
6 1 -7 -25.7838 40.2972 1
-6 -1 7 76.463 44.0849 6
-6 -1 7 35.7068 47.0427 8
-6 -1 6 291.372 72.2919 6
-6 -1 6 387.391 107.65 8
6 1 -6 259.796 73.4553 1
-6 -1 5 1183.8 125.154 6
6 1 -5 1232.45 148.528 1
-6 -1 5 1426.54 182.815 8
-6 -1 4 282.294 57.7862 6
6 1 -4 228.823 62.0523 1
-6 -1 4 232.679 74.0695 8
-6 -1 3 288.067 39.3613 7
6 1 -3 398.898 81.6019 1
-6 -1 3 338.092 52.8351 6
-6 -1 3 338.377 83.9389 8
-6 -1 2 1048.25 90.4488 7
-6 -1 2 1275.58 88.974 6
6 1 -2 1188.77 136.701 1
-6 -1 2 1128.26 144.942 8
-6 -1 1 1535.55 122.452 7
-6 -1 1 1365.62 71.0481 6
6 1 -1 1583.1 157.97 1
-6 -1 1 1610.92 166.662 8
6 1 0 252.574 52.6095 5
-6 -1 0 237.963 64.8895 9
-6 -1 0 321.839 73.1164 8
6 1 0 390.263 78.0592 1
6 1 1 363.131 57.9199 5
6 1 1 405.099 80.1357 1
-6 -1 -1 493.242 88.7951 9
6 1 2 387.076 33.6092 6
6 1 2 574.946 65.0446 5
-6 -1 -2 508.036 89.3761 9
6 1 3 2400.06 199.29 1
-6 -1 -3 2258.69 187.103 9
6 1 4 138.828 61.1041 1
6 1 4 -2.9147 12.6897 6
-6 -1 -4 -49.4072 57.6159 9
6 1 4 72.9065 38.7214 4
-6 -1 -5 249.147 37.5347 3
6 1 5 371.502 82.8065 1
6 1 5 294.791 57.163 6
-6 -1 -5 270.37 61.828 9
6 1 5 309.622 57.0965 4
6 1 6 11.7852 33.8526 1
-6 -1 -6 29.158 17.0915 3
-6 -1 -6 48.8797 45.161 2
-6 -1 -6 16.509 20.4724 9
6 1 6 -12.5745 15.5364 4
6 1 7 -11.3691 30.1821 1
-6 -1 -7 14.7186 19.1278 3
-6 -1 -7 43.7399 41.2322 2
-6 -1 -7 -60.9909 36.3528 9
-6 -1 -8 15.0242 42.5922 2
-6 -1 -8 49.047 33.0747 3
-6 -1 -8 10.4144 32.1381 9
-6 -1 -9 25.8091 43.327 2
-6 -1 -9 -97.8935 45.0808 9
-6 -1 -10 -64.5914 46.4611 2
6 2 -9 30.9831 48.0004 1
6 2 -8 97.2551 56.3749 1
-6 -2 8 53.5063 46.6975 6
-6 -2 8 120.343 69.2334 8
6 2 -7 37.8967 35.169 1
-6 -2 7 88.4143 39.4399 6
-6 -2 7 115.45 68.3983 8
6 2 -6 8.63673 31.5773 1
-6 -2 6 -10.9487 25.0549 6
-6 -2 6 35.5439 37.8584 8
6 2 -5 473.445 101.725 1
-6 -2 5 429.319 79.2601 6
-6 -2 5 500.453 115.866 8
-6 -2 4 -0.08951 26.7069 6
6 2 -4 -15.6619 34.1364 1
-6 -2 4 -21.7422 49.1287 8
-6 -2 3 377.313 46.4291 7
-6 -2 3 519.078 74.9342 6
6 2 -3 512.459 92.9287 1
-6 -2 3 519.294 101.398 8
-6 -2 2 518.522 65.5685 7
-6 -2 2 569.375 75.0299 6
6 2 -2 640.857 102.633 1
-6 -2 2 618.331 105.317 8
-6 -2 1 25.4857 16.2896 7
6 2 -1 80.4464 50.5122 1
-6 -2 1 35.7092 18.6308 6
-6 -2 1 26.2335 25.1592 8
6 2 0 383.529 40.1304 3
6 2 0 450.029 86.4798 1
-6 -2 0 371.862 64.5684 7
6 2 0 352.085 58.9114 5
-6 -2 -1 401.579 69.5952 7
6 2 1 251.769 38.3594 6
6 2 1 354.073 53.3978 5
-6 -2 -1 333.68 71.5428 9
6 2 1 373.626 73.7993 1
-6 -2 -2 4450.53 241.951 7
6 2 2 4422.51 258.818 1
6 2 2 3873.81 148.016 5
-6 -2 -2 4371.44 250.406 9
-6 -2 -3 29473.1 645.412 7
6 2 3 29048.4 681.628 1
-6 -2 -3 29916.9 646.603 9
6 2 4 12319.4 450.35 1
-6 -2 -4 11453.2 401.695 9
-6 -2 -5 64.3396 27.8642 3
6 2 5 79.6204 53.4304 1
6 2 5 4.61563 25.6604 6
-6 -2 -5 -19.4 31.7407 9
6 2 5 60.8796 29.5955 4
-6 -2 -6 102.107 35.6135 3
6 2 6 100.622 52.5374 1
-6 -2 -6 185.644 60.7389 2
-6 -2 -6 121.785 46.5008 9
6 2 6 111.994 32.5997 4
6 2 7 47.239 42.157 1
-6 -2 -7 77.6784 34.8081 3
-6 -2 -7 30.1565 39.2147 2
-6 -2 -7 72.2451 29.9083 9
6 2 8 33.3761 40.1699 1
-6 -2 -8 10.0414 31.3184 2
-6 -2 -8 46.4376 26.7582 3
-6 -2 -8 66.736 50.2781 7
-6 -2 -8 33.6598 26.2085 9
6 2 9 -3.00043 31.4366 8
-6 -2 -9 35.6146 37.0923 2
-6 -2 -9 10.6357 21.859 3
-6 -2 -9 13.2467 36.6929 7
-6 -2 -9 19.0269 14.4346 9
-6 -2 -10 18.3352 32.7446 2
-6 -2 -10 75.0569 71.2412 7
-6 -3 9 -17.0566 34.9896 6
6 3 -9 -47.0356 45.0314 1
-6 -3 8 96.9788 49.2134 6
6 3 -8 22.4314 31.2855 1
-6 -3 8 9.96748 39.7164 8
6 3 -7 39.8129 46.2834 1
-6 -3 7 86.0589 42.0586 6
-6 -3 7 70.9342 50.6472 8
-6 -3 6 -174.126 60.5511 6
-6 -3 6 -62.2777 47.1484 8
-6 -3 5 1690.5 165.802 6
-6 -3 5 1432.07 175.059 8
6 3 -5 1501.16 176.156 1
-6 -3 4 1864.66 163.031 6
-6 -3 4 1880.68 192.231 8
6 3 -4 2005.18 193.669 1
-6 -3 3 7.24476 10.3829 7
-6 -3 3 18.7525 20.7911 6
6 3 -3 -4.95259 29.1315 1
-6 -3 3 -16.6252 26.1492 8
-6 -3 2 191.656 44.8845 7
-6 -3 2 185.062 45.2515 6
6 3 -2 231.931 68.038 1
-6 -3 2 236.012 63.9301 8
-6 -3 1 285.724 53.9315 7
6 3 -1 214.313 65.1363 1
-6 -3 1 227.437 49.2357 6
6 3 0 140.273 34.4467 3
6 3 0 207.384 60.7688 1
-6 -3 0 129.861 38.4229 7
-6 -3 0 251.871 48.8469 6
6 3 0 148.764 37.1058 6
6 3 1 368.548 67.827 1
6 3 1 404.879 49.9557 3
-6 -3 -1 422.597 73.9063 7
6 3 1 317.9 53.9768 6
-6 -3 -2 84.5701 41.762 7
6 3 2 108.352 26.1462 3
6 3 2 59.2132 24.609 6
6 3 2 109.566 22.9719 5
-6 -3 -3 5253.14 275.871 7
6 3 3 3342.82 191.348 6
6 3 3 5496.43 291.752 1
-6 -3 -3 4793.31 258.827 9
-6 -3 -4 14059.6 472.564 7
6 3 4 12143.7 377.024 6
6 3 4 14069.1 490.392 1
-6 -3 -4 12908.4 427.136 9
-6 -3 -5 1572.04 125.672 3
-6 -3 -5 1773.82 179.956 7
6 3 5 1482.81 147.777 6
6 3 5 1971.7 190.041 1
-6 -3 -5 1895.61 157.938 9
-6 -3 -6 -11.2422 17.6659 3
-6 -3 -6 50.4786 48.5505 7
6 3 6 -33.8368 41.5291 1
-6 -3 -6 -14.7142 41.3538 2
-6 -3 -6 28.252 27.8567 9
6 3 6 19.62 20.3896 4
6 3 7 68.7454 47.8174 1
-6 -3 -7 103.411 44.0429 3
-6 -3 -7 138.653 50.7837 2
-6 -3 -7 164.222 68.4226 7
-6 -3 -7 100.388 36.0176 9
6 3 8 81.4009 52.8228 1
-6 -3 -8 102.766 38.8377 2
-6 -3 -8 135.195 49.5968 3
-6 -3 -8 163.604 68.412 7
-6 -3 -8 112.509 42.6489 9
6 3 9 47.2084 33.0801 8
-6 -3 -9 19.2031 31.4657 2
-6 -3 -9 38.9491 29.0527 3
-6 -3 -9 51.2207 40.6021 7
6 3 10 8.66652 31.4813 8
-6 -3 -10 2.44965 28.098 3
-6 -3 -10 24.3592 29.4811 7
-6 -3 -11 10.3168 26.2552 3
-6 -4 9 -186.961 76.7079 6
-6 -4 9 12.5927 31.6422 8
-6 -4 8 -34.9486 36.8072 6
6 4 -8 32.2234 42.2426 1
-6 -4 8 -3.64812 36.7835 8
-6 -4 7 1.64057 31.9452 6
6 4 -7 -12.0965 30.7353 1
-6 -4 7 59.4552 47.6222 8
-6 -4 6 86.2442 50.3138 6
6 4 -6 185.14 69.3001 1
-6 -4 6 154.82 67.3678 8
-6 -4 5 1523.58 170.013 6
-6 -4 5 1711.46 186.988 8
6 4 -5 1792.66 195.802 1
-6 -4 4 1936 177.437 6
-6 -4 4 1522.41 171.121 8
6 4 -4 1596.84 179.833 1
-6 -4 3 1399.54 113.025 7
-6 -4 3 1333.06 140.797 6
-6 -4 3 1320.14 155.003 8
6 4 -3 1392.73 161.342 1
-6 -4 2 179.722 46.521 7
-6 -4 2 198.233 52.9634 6
6 4 -2 173.048 59.9524 1
-6 -4 1 1020.6 110.487 7
-6 -4 1 1054.57 112.449 6
6 4 -1 1153.33 118.825 6
6 4 -1 1297.47 148.131 1
6 4 0 1158.89 111.67 3
-6 -4 0 1177.25 123.56 7
-6 -4 0 1186.75 114.53 6
6 4 0 1068.82 111.346 6
6 4 0 1261.43 144.918 1
6 4 1 38.371 37.3267 1
6 4 1 13.7101 14.4184 3
-6 -4 -1 18.5448 22.8479 7
-6 -4 -1 17.4463 16.3608 6
6 4 1 55.8334 28.3772 6
-6 -4 -2 349.532 67.4739 7
6 4 2 294.582 52.6384 3
6 4 2 413.016 71.1001 6
-6 -4 -2 397.043 70.7764 2
6 4 2 273.88 63.6586 1
6 4 3 401.815 62.9991 3
-6 -4 -3 441.791 83.3024 7
6 4 3 523.542 85.3955 6
-6 -4 -3 434.43 73.3056 2
6 4 3 379.426 32.8841 5
6 4 3 343.095 72.0935 1
-6 -4 -4 -8.6348 40.7656 7
6 4 4 48.8362 18.535 6
6 4 4 60.1235 48.686 1
-6 -4 -5 50.2625 33.6688 3
-6 -4 -5 22.4811 34.8539 7
6 4 5 9.03459 36.5697 1
-6 -4 -6 41.7515 30.8543 3
-6 -4 -6 -51.8998 54.44 7
-6 -4 -6 16.9575 22.397 2
6 4 6 30.9728 29.1299 1
-6 -4 -6 -16.7147 20.9754 9
-6 -4 -7 64.021 39.412 3
6 4 7 53.2786 43.2275 1
-6 -4 -7 67.4907 36.4971 2
-6 -4 -7 33.7872 28.3191 7
-6 -4 -7 45.1557 26.9432 9
-6 -4 -8 759.895 113.498 3
6 4 8 593.594 116.878 1
-6 -4 -8 626.986 121.268 7
-6 -4 -8 630.28 94.6277 2
-6 -4 -8 541.446 80.9043 9
6 4 9 25.9532 40.7839 8
-6 -4 -9 38.8763 31.5811 3
-6 -4 -9 8.98574 35.1378 7
6 4 9 47.7861 47.6787 1
6 4 10 46.0223 36.0207 8
-6 -4 -10 42.7552 39.9903 3
-6 -4 -10 -5.7614 43.1004 7
6 4 11 -92.2973 54.2869 8
-6 -4 -11 -61.5967 45.7282 3
6 5 -8 23.3495 51.2561 1
-6 -5 8 6.7682 43.665 6
-6 -5 8 -4.19514 31.3334 8
-6 -5 7 -27.9115 40.964 6
6 5 -7 -23.3817 55.318 2
-6 -5 7 -27.7062 35.5584 8
6 5 -7 -10.8355 39.4742 1
6 5 -6 23.787 44.8391 2
-6 -5 6 42.4877 38.7819 6
-6 -5 6 -24.1457 30.9797 8
6 5 -6 -63.5041 48.1678 1
6 5 -5 188.769 69.9493 2
-6 -5 5 112.672 49.1538 6
6 5 -5 161.73 64.1559 1
6 5 -4 133.627 70.9417 1
-6 -5 4 -25.1248 38.2435 6
-6 -5 3 -15.2247 26.3343 7
6 5 -3 -12.3808 36.767 1
-6 -5 2 3.04027 17.7624 7
-6 -5 2 -25.5745 24.9805 6
6 5 -2 -31.6586 34.0038 1
-6 -5 1 1776.06 150.828 7
-6 -5 1 1824.76 161.463 6
6 5 -1 1935.51 185.717 1
6 5 0 2523.48 180.702 3
-6 -5 0 2798.65 196.13 7
-6 -5 0 2631.35 193.456 6
6 5 0 3129.88 232.304 1
6 5 1 1293.95 125.079 3
-6 -5 -1 1412.45 145.056 7
-6 -5 -1 1379.85 137.152 6
6 5 1 1258.55 144.771 1
6 5 2 9.66532 28.4217 1
-6 -5 -2 12.6115 24.2718 7
6 5 2 40.2933 21.1502 3
-6 -5 -2 8.29268 20.459 2
-6 -5 -3 13.2825 25.3798 7
6 5 3 -2.52407 13.2899 3
-6 -5 -3 -14.7079 23.7913 2
6 5 3 5.69218 31.263 1
-6 -5 -4 160.906 45.7457 7
6 5 4 204.833 53.1247 3
6 5 4 162.324 55.9903 1
-6 -5 -4 184.049 45.8022 2
-6 -5 -5 -0.09705 18.5112 3
-6 -5 -5 -37.3356 41.8248 7
-6 -5 -5 -70.2631 27.1267 2
6 5 5 -4.30502 31.237 1
-6 -5 -6 259.269 64.4853 3
-6 -5 -6 251.36 68.6801 7
-6 -5 -6 240.557 52.4054 2
6 5 6 111.634 48.029 1
-6 -5 -7 34.5431 18.2434 2
-6 -5 -7 39.4558 30.4598 3
-6 -5 -7 11.8295 22.2024 7
6 5 7 21.4514 31.8665 1
6 5 8 -35.845 40.2429 1
-6 -5 -8 31.2955 32.9492 3
-6 -5 -8 -31.5753 43.5629 7
6 5 9 -106.862 57.9839 1
6 5 9 -26.4745 40.0473 8
-6 -5 -9 -2.82534 30.2134 3
-6 -5 -9 -41.9082 53.2369 7
6 5 10 -8.43505 39.2358 8
-6 -5 -10 -15.456 44.4127 3
-6 -5 -10 -27.5934 33.2201 7
6 5 11 55.6973 45.8912 8
-6 -5 -11 -59.0012 45.9863 3
-6 -6 8 68.5815 51.5651 6
6 6 -7 58.4557 56.744 1
-6 -6 7 24.1376 34.881 6
6 6 -7 47.2084 46.0973 2
-6 -6 6 4.14245 30.9275 6
6 6 -6 61.9115 47.584 2
6 6 -6 90.7976 61.0021 1
-6 -6 5 -26.8711 39.3645 6
6 6 -5 -37.9273 45.1052 2
6 6 -5 15.6346 42.3576 1
6 6 -4 375.237 99.4533 1
-6 -6 4 349.56 84.3387 6
6 6 -4 261.65 83.8988 2
6 6 -3 680.578 119.98 1
-6 -6 3 692.314 114.549 6
6 6 -2 84.3304 44.596 1
-6 -6 2 216.049 58.422 7
-6 -6 2 82.6607 40.7795 6
-6 -6 1 45.3991 37.1471 7
-6 -6 1 18.5804 26.1641 6
6 6 -1 -6.11333 31.5164 1
-6 -6 0 2467 191.941 7
-6 -6 0 2407.67 194.87 6
6 6 0 2390.25 211.571 1
-6 -6 -1 1487.22 156.22 7
-6 -6 -1 1579.33 156.925 6
-6 -6 -1 1488.51 141.185 2
6 6 1 1551.33 169.613 1
6 6 2 506.863 96.9461 1
-6 -6 -2 396.906 87.2876 7
-6 -6 -2 361.886 65.7159 2
-6 -6 -3 450.321 91.3344 7
-6 -6 -3 427.311 66.9645 2
6 6 3 357.779 80.4911 1
-6 -6 -4 1849.29 189.049 7
-6 -6 -4 1479.17 114.83 2
6 6 4 1548.39 168.514 1
6 6 4 1558.36 85.7779 5
-6 -6 -5 778.909 112.552 3
-6 -6 -5 826.359 128.38 7
6 6 5 687.236 114.748 1
-6 -6 -6 42.1492 30.4059 3
-6 -6 -6 59.9635 32.579 7
6 6 6 7.40867 34.023 1
-6 -6 -7 -22.285 35.1501 3
-6 -6 -7 26.0229 38.4128 7
6 6 7 12.8905 32.7906 1
6 6 8 200.974 74.2916 1
-6 -6 -8 314.823 84.4612 3
-6 -6 -8 268.593 87.1843 7
6 6 9 311.819 92.976 1
6 6 9 193.07 83.5426 8
-6 -6 -9 332.534 94.2463 3
-6 -6 -9 310.76 97.1044 7
6 6 10 -7.11255 33.6392 8
-6 -6 -10 -30.2775 38.2879 3
-6 -6 -10 -50.3345 69.1858 7
-6 -6 -11 -58.3458 47.6063 3
-6 -7 7 87.8226 54.4849 6
6 7 -7 194.944 81.3542 2
-6 -7 6 105.463 61.5996 6
6 7 -6 103.433 55.4036 2
6 7 -6 66.8188 42.4515 1
-6 -7 5 66.2511 44.2141 6
6 7 -5 76.3291 49.3988 2
6 7 -5 36.3284 46.0849 1
-6 -7 4 509.844 111.095 6
6 7 -4 553.183 123.538 1
6 7 -4 395.625 96.655 2
-6 -7 3 2034.76 211.892 6
6 7 -3 1694.96 181.428 2
6 7 -3 1987.72 213.483 1
6 7 -2 -3.21687 48.8506 1
-6 -7 2 -9.62899 30.5595 7
-6 -7 2 18.288 25.0681 6
-6 -7 1 1061.55 135.848 7
-6 -7 1 1062.76 142.549 6
6 7 -1 944.529 139.97 1
-6 -7 0 13.0929 23.3818 7
-6 -7 0 9.83039 27.3928 6
6 7 0 22.0815 26.1843 1
-6 -7 -1 -4.94837 32.0083 7
6 7 1 79.0344 50.7472 1
-6 -7 -1 10.6223 28.0158 6
-6 -7 -1 17.7883 29.2625 2
6 7 2 163.115 56.7496 1
-6 -7 -2 258.47 76.3964 7
-6 -7 -2 206.372 48.4284 2
-6 -7 -3 40.9721 43.3001 7
6 7 3 -12.84 34.3868 1
-6 -7 -4 1209.88 162.923 7
6 7 4 1028.34 140.102 1
6 7 4 1042.28 91.9518 5
-6 -7 -5 925.873 145.381 7
6 7 5 793.368 125.742 1
6 7 5 800.84 68.4287 5
-6 -7 -6 263.16 72.8511 3
-6 -7 -6 330.221 97.8212 7
6 7 6 251.877 71.1282 1
-6 -7 -7 -1.95836 33.0712 3
-6 -7 -7 -14.0049 32.0158 7
6 7 7 -48.3389 55.8331 1
-6 -7 -8 -11.6335 43.9338 3
6 7 8 4.83485 39.5944 1
-6 -7 -8 -9.76502 35.2128 7
6 7 9 240.962 98.3681 8
6 7 9 189.446 78.5463 1
-6 -7 -9 151.685 75.6226 3
-6 -7 -9 224.937 96.5312 7
-6 -7 -10 26.0885 43.9707 3
6 8 -6 -4.1614 44.6342 1
-6 -8 6 -4.83398 26.9168 6
6 8 -6 -34.6951 44.4437 2
-6 -8 5 151.03 71.9619 6
6 8 -5 68.6742 59.4791 2
6 8 -5 277.694 96.2458 1
-6 -8 4 371.38 108.231 6
6 8 -4 346.842 103.821 1
6 8 -4 306.857 89.9764 2
-6 -8 3 2357.73 238.821 6
6 8 -3 2332.76 214.453 2
6 8 -3 2589.6 252.651 1
6 8 -2 737.006 132.642 1
6 8 -2 727.093 113.149 2
-6 -8 2 631.436 117.42 6
-6 -8 1 135.159 58.2089 7
-6 -8 1 68.8536 32.8666 6
6 8 -1 75.0479 51.1656 1
-6 -8 0 9.26938 30.9491 7
-6 -8 0 -2.20696 36.2314 6
6 8 0 1.66313 35.4585 1
-6 -8 -1 148.969 50.9067 7
-6 -8 -1 150.851 64.6934 6
6 8 1 162.384 67.377 1
-6 -8 -2 62.4263 41.7899 7
6 8 2 64.9795 44.7929 1
-6 -8 -3 3.12496 24.6227 7
6 8 3 -28.1036 43.3551 1
-6 -8 -4 258.409 79.4699 7
6 8 4 225.931 49.1168 5
6 8 4 209.151 66.5196 1
-6 -8 -5 14.2011 26.9327 7
6 8 5 36.9295 39.4731 1
-6 -8 -6 -9.40815 26.187 7
6 8 6 44.6448 25.8014 1
-6 -8 -7 -69.7985 49.3118 3
-6 -8 -7 -4.87753 47.3063 7
6 8 7 -58.414 50.5561 1
6 8 8 -88.2104 59.7989 8
-6 -8 -8 49.2287 45.6726 3
6 8 8 22.3508 34.491 1
-6 -8 -8 -17.6305 49.2426 7
6 8 9 25.3375 47.4601 8
6 8 9 48.2751 40.3959 1
-6 -8 -9 29.8737 38.5146 3
-6 -8 -9 -24.019 37.7998 7
-6 -9 5 46.3639 53.8025 6
6 9 -5 -0.18502 30.128 2
6 9 -5 74.8985 53.4865 1
-6 -9 4 16.973 27.7782 6
6 9 -4 8.85843 44.2018 1
6 9 -4 -50.5019 40.8817 2
6 9 -3 101.606 57.9855 1
6 9 -3 23.2969 37.2924 2
6 9 -2 142.656 65.9977 1
-6 -9 2 128.685 55.3625 6
6 9 -2 133.219 52.4013 2
6 9 -1 31.4751 28.5067 2
-6 -9 1 -4.37657 37.1348 6
-6 -9 0 54.3603 40.3594 7
-6 -9 0 76.5274 46.0714 6
6 9 0 69.8215 48.5861 1
-6 -9 -1 4391.61 319.039 7
-6 -9 -1 4146.55 308.633 6
6 9 1 3926.43 298.981 1
-6 -9 -2 1241.17 173.678 7
6 9 2 1309.67 171.482 1
-6 -9 -3 28.793 37.1136 7
6 9 3 -30.177 43.8466 1
-6 -9 -4 141.021 67.0387 7
6 9 4 131.761 45.007 5
6 9 4 61.5689 43.2064 1
-6 -9 -5 72.1542 59.2732 7
6 9 5 41.2442 44.7186 1
-6 -9 -6 88.8401 52.7067 7
6 9 6 119.54 57.3737 1
-6 -9 -7 65.48 39.2312 3
6 9 7 80.3829 54.4138 8
-6 -9 -7 53.193 52.0647 7
6 9 7 -20.2106 37.0317 1
-6 -9 -8 -21.1144 42.0681 3
6 9 8 -52.273 58.3152 1
-6 -9 -8 -23.1087 42.8727 7
6 10 -5 36.237 28.3154 2
6 10 -4 20.6902 37.5495 1
-6 -10 4 9.77228 42.275 6
6 10 -4 1.39957 35.3714 2
6 10 -3 87.0783 67.44 1
-6 -10 3 192.153 77.8988 6
6 10 -3 -36.3965 35.8051 2
-6 -10 2 -12.3133 28.5441 6
6 10 -2 12.184 32.916 2
-6 -10 1 100.888 58.9878 6
6 10 -1 98.5271 49.0773 2
6 10 -1 -8.512 53.3731 1
-6 -10 0 72.287 60.5068 6
6 10 0 -19.7916 38.0093 1
-6 -10 -1 479.108 116.346 7
-6 -10 -1 722.823 141.031 6
6 10 1 661.245 127.61 1
-6 -10 -2 1499.73 203.944 7
6 10 2 1581.85 190.032 1
-6 -10 -3 201.648 88.4323 7
6 10 3 96.4475 51.8863 5
6 10 3 87.8476 64.1783 1
-6 -10 -4 211.757 83.3437 7
6 10 4 72.4036 39.0637 5
6 10 4 112.405 48.1711 1
-6 -10 -5 117.236 66.2175 7
6 10 5 96.473 50.1883 1
6 10 6 153.258 78.2018 8
-6 -10 -6 220.904 83.7681 7
6 10 6 52.5715 34.9422 1
6 11 -4 122.734 65.8657 2
6 11 -2 13.6547 28.3793 1
-6 -11 1 -53.7348 39.6786 6
6 11 -1 -93.9495 56.9424 1
-6 -11 0 23.9056 38.7235 6
6 11 0 3.61511 27.8229 1
6 11 1 59.815 44.0715 1
-6 -11 -1 -19.7377 30.2745 6
-6 -11 -2 -6.84763 35.8712 7
6 11 2 134.951 68.5823 1
-6 -11 -3 58.82 43.2202 7
6 11 3 -37.7517 34.3438 5
6 11 3 43.9889 57.407 1
-6 -11 -4 4.87619 48.5862 7
6 11 4 -46.4302 38.3232 1
6 11 5 -70.6292 56.8263 8
6 12 -1 -96.7098 57.8943 1
6 12 0 137.24 67.6627 1
6 12 1 31.5879 37.9885 1
6 12 2 106.828 64.1598 5
6 12 3 27.995 37.1533 5
-7 5 2 78.4129 60.9332 8
-7 5 1 55.3362 45.1698 8
7 -5 3 120.058 77.294 10
7 -5 4 58.5156 51.4995 10
-7 4 3 74.9192 49.3278 9
-7 4 3 -6.58821 41.1177 8
-7 4 2 144.107 70.1493 9
-7 4 2 8.71043 41.0844 8
-7 4 1 96.738 47.3529 9
-7 4 1 204.576 81.5624 8
7 -4 -1 149.721 78.941 4
7 -4 0 71.0602 46.9225 10
-7 4 0 39.6135 49.8398 9
-7 4 0 206.515 78.0433 8
7 -4 0 63.4151 34.4203 4
7 -4 1 14.5369 43.9123 10
-7 4 -1 -44.7951 44.2293 9
-7 4 -1 -27.0461 32.4205 8
7 -4 1 -57.2438 51.258 4
7 -4 2 127.946 71.3246 10
-7 4 -2 204.764 83.3149 9
7 -4 2 155.797 71.9335 4
7 -4 3 -9.81366 42.5207 10
-7 4 -3 109.527 55.5512 9
7 -4 3 -8.5645 32.1862 4
7 -4 4 33.1254 39.9302 10
7 -4 5 148.792 70.0219 10
-7 3 3 164.219 67.6136 9
-7 3 3 256.373 94.3194 8
7 -3 -3 294.503 104.461 4
-7 3 2 862.789 150.314 9
-7 3 2 1079.37 189.332 8
7 -3 -2 726.552 150.252 4
-7 3 1 166.717 75.6773 9
-7 3 1 221.1 88.1118 8
7 -3 -1 174.836 67.2334 4
7 -3 0 11.6216 19.8945 1
-7 3 0 53.5259 43.5788 9
-7 3 0 32.3662 47.2048 8
7 -3 0 27.2904 37.7661 4
7 -3 1 108.088 47.6811 1
-7 3 -1 128.917 57.9021 9
-7 3 -1 171.644 69.3561 8
7 -3 1 164.768 68.3164 4
7 -3 2 82.6812 46.4943 1
7 -3 2 134.745 72.4882 10
-7 3 -2 75.9149 53.6896 9
7 -3 2 58.6781 45.1036 4
7 -3 3 32.5033 40.2476 1
7 -3 3 75.2995 60.3412 10
-7 3 -3 -40.0114 56.4241 9
7 -3 3 148.788 62.2259 4
7 -3 4 -63.5831 48.1317 10
7 -3 4 -26.4589 28.5295 4
-7 3 -5 -23.4728 41.4137 2
7 -3 5 29.9399 34.0381 10
-7 3 -5 -22.5396 38.2244 9
-7 3 -6 48.1922 42.8771 9
-7 2 4 42.7232 53.8871 8
7 -2 -4 210.443 87.1771 4
-7 2 3 153.78 79.7644 8
7 -2 -3 131.66 73.4889 4
7 -2 -2 1093.83 136.194 1
-7 2 2 1195.68 172.733 9
-7 2 2 1465.41 212.939 8
7 -2 -2 1072.01 177.267 4
7 -2 -1 622.115 106.547 1
-7 2 1 768.355 135.45 9
-7 2 1 796.584 146.521 8
7 -2 -1 777.01 143.469 4
7 -2 0 36.8794 37.2016 1
-7 2 0 7.86985 24.2686 9
-7 2 0 -22.4983 35.0277 8
7 -2 0 20.0838 30.7597 4
7 -2 1 38.5596 43.912 1
-7 2 -1 26.1068 41.4546 9
-7 2 -1 10.5735 23.9389 8
7 -2 1 -24.3749 35.2995 4
7 -2 2 165.377 63.6288 1
-7 2 -2 48.9584 42.6914 9
7 -2 2 92.6296 54.8647 4
7 -2 3 115.723 59.9274 1
-7 2 -3 154.276 60.5192 9
7 -2 3 79.5409 45.9334 4
7 -2 4 113.108 53.4864 1
7 -2 4 113.376 52.0757 10
-7 2 -4 62.0231 38.6034 9
7 -2 4 114.924 54.9642 4
7 -2 5 44.0025 33.1073 10
-7 2 -5 12.6381 40.6105 9
7 -2 5 98.2399 45.6792 4
-7 2 -6 -101.027 59.1855 2
-7 2 -6 115.035 62.3573 9
-7 2 -7 -7.81268 34.2939 2
-7 2 -7 -24.3011 32.7732 9
-7 2 -8 -61.4116 49.0394 9
-7 1 5 -12.0493 29.1114 8
7 -1 -5 -9.45946 27.9637 4
-7 1 4 146.774 68.0826 8
7 -1 -4 84.42 48.1672 4
7 -1 -3 18.4321 31.3023 1
-7 1 3 126.915 68.5127 8
7 -1 -3 -31.6654 57.1465 4
7 -1 -2 53.224 40.4573 1
-7 1 2 40.6469 31.5441 9
-7 1 2 88.4626 52.4505 8
7 -1 -2 93.1838 50.6365 4
7 -1 -1 235.24 62.4671 1
-7 1 1 322.282 94.8983 9
-7 1 1 267.965 85.487 8
7 -1 -1 230.772 81.7987 4
7 -1 0 70.7464 35.6217 1
-7 1 0 51.7391 50.2523 9
-7 1 0 94.0548 56.7601 8
7 -1 0 129.799 64.3897 4
7 -1 1 54.9344 35.2591 1
-7 1 -1 53.6143 38.9968 9
-7 1 -1 45.3844 42.2208 8
7 -1 1 13.1941 32.0386 4
7 -1 2 99.2218 48.4505 1
-7 1 -2 94.2361 54.281 9
7 -1 2 115.366 53.6502 4
7 -1 3 115.437 52.2661 1
-7 1 -3 254.8 79.4637 9
7 -1 3 393.341 89.7983 4
7 -1 4 -0.74821 35.277 1
-7 1 -4 42.1955 27.093 9
7 -1 4 -40.1699 45.6823 4
7 -1 5 -19.1865 40.4257 1
-7 1 -5 -20.5942 43.81 9
7 -1 5 37.0507 38.1318 4
-7 1 -6 92.5549 56.3691 2
7 -1 6 178.158 73.6066 1
7 -1 6 98.0355 46.2885 10
-7 1 -6 87.4344 49.7689 9
-7 1 -7 137.982 77.4248 2
-7 1 -7 -3.23587 34.6296 9
-7 1 -8 -51.9841 56.3656 2
-7 1 -8 -21.5877 29.1079 9
-7 1 -9 16.631 32.0651 2
-7 1 -9 157.729 71.024 9
7 0 -5 17.3632 32.4369 1
-7 0 5 -90.0402 56.1229 8
7 0 -4 30.0351 33.4805 1
-7 0 4 86.8298 57.1967 8
-7 0 3 138.12 68.6109 8
7 0 -3 91.233 51.5601 1
7 0 -2 -14.9834 28.4719 1
-7 0 2 1.70395 30.6522 8
7 0 -1 38.2529 31.7965 1
-7 0 1 -43.6697 36.5034 9
-7 0 1 28.8565 38.2117 8
7 0 0 41.3199 40.4558 4
7 0 0 93.5244 43.1516 1
-7 0 0 -15.0671 35.2474 9
-7 0 0 71.264 43.4233 8
7 0 1 -13.9947 40.2223 1
-7 0 -1 -5.05602 30.0532 9
7 0 1 -10.9645 31.8433 4
7 0 2 -16.6918 40.5795 1
-7 0 -2 -4.11467 25.9518 9
7 0 2 9.16426 25.5736 4
7 0 3 343.43 90.4645 1
-7 0 -3 362.653 91.4477 9
7 0 3 341.668 81.4427 4
7 0 4 -20.9739 26.9901 1
-7 0 -4 30.9926 25.6217 9
7 0 4 13.4565 30.2831 4
7 0 5 98.7976 55.4829 1
-7 0 -5 -0.45317 41.6582 9
7 0 5 -19.1553 38.0505 4
7 0 6 -15.5357 43.6784 1
-7 0 -6 -43.2232 57.863 9
7 0 6 38.3784 24.1372 4
-7 0 -7 49.6893 49.2867 2
7 0 7 34.0225 43.9982 1
-7 0 -7 6.92237 34.4666 9
-7 0 -8 -5.79994 40.1943 2
-7 0 -8 -14.1986 38.738 9
-7 0 -9 34.4915 43.0078 2
-7 0 -9 -14.8076 29.1379 9
-7 0 -10 26.3978 38.9922 2
7 1 -6 3.14932 24.4486 1
-7 -1 6 17.9796 34.9947 8
7 1 -5 66.3067 47.5559 1
-7 -1 5 46.5001 47.322 8
7 1 -4 -1.96212 28.5948 1
-7 -1 4 76.5843 44.4448 8
7 1 -3 47.6432 38.2529 1
-7 -1 3 23.6267 36.2454 8
7 1 -2 -17.1503 33.7235 1
-7 -1 2 -49.9315 24.6886 7
-7 -1 2 -26.7328 38.1645 8
-7 -1 1 256.443 61.9537 7
-7 -1 1 341.206 88.3439 8
7 1 -1 352.875 84.8289 1
-7 -1 0 771.551 100.094 7
7 1 0 763.303 118.179 1
-7 -1 0 809.858 129.762 9
7 1 1 18.3185 27.8777 1
-7 -1 -1 80.2921 43.4789 9
7 1 2 91.9863 50.5305 1
-7 -1 -2 125.264 56.1183 9
7 1 3 38.5096 41.531 1
-7 -1 -3 87.8496 54.5813 9
7 1 3 -10.4191 22.6185 4
7 1 4 16.909 28.5211 1
-7 -1 -4 29.6197 33.6816 9
7 1 4 58.5024 38.8471 4
7 1 5 -20.201 28.0168 1
-7 -1 -5 -15.2027 35.4444 9
7 1 5 -62.3647 33.3493 4
7 1 6 3.59214 30.922 1
7 1 6 -4.85487 20.097 4
7 1 7 -107.175 59.7866 1
-7 -1 -7 -35.3804 38.5953 2
-7 -1 -7 -56.1764 57.1156 9
-7 -1 -8 -35.9972 41.7114 2
-7 -1 -8 19.972 37.1061 9
-7 -1 -9 -70.8894 47.8797 2
-7 -1 -9 -22.1529 31.9428 9
-7 -1 -10 58.9461 53.993 2
7 2 -7 17.4537 34.2788 1
7 2 -6 -18.6626 36.8854 1
-7 -2 6 -80.2193 60.6708 8
7 2 -5 171.724 61.0052 1
-7 -2 5 221.687 85.5083 8
7 2 -4 59.3287 46.566 1
-7 -2 4 92.8626 48.991 8
7 2 -3 28.1119 33.2023 1
-7 -2 3 -1.88055 17.1181 6
-7 -2 3 21.1305 23.0168 8
-7 -2 2 -1.83902 20.7904 7
7 2 -2 -10.6485 29.784 1
-7 -2 2 -1.79045 15.6805 6
-7 -2 2 -27.6841 30.1186 8
-7 -2 1 1273.37 122.727 7
7 2 -1 1584.98 173.298 1
-7 -2 1 1370.43 168.871 8
-7 -2 0 629.127 92.1325 7
7 2 0 825.893 123.624 1
-7 -2 -1 21.9752 30.7959 7
-7 -2 -1 63.6423 39.5905 9
7 2 1 -1.14516 32.4266 1
-7 -2 -2 129.103 50.3016 7
7 2 2 156.338 56.6102 1
-7 -2 -2 124.28 50.9498 9
-7 -2 -3 152.009 57.5875 7
7 2 3 130.992 56.7078 1
-7 -2 -3 91.7848 51.5017 9
-7 -2 -4 38.8989 43.3657 7
7 2 4 30.3197 55.2954 1
-7 -2 -4 -2.56039 31.5315 9
-7 -2 -5 105.81 54.6417 7
7 2 5 21.1687 35.4271 1
-7 -2 -5 14.9627 27.538 9
7 2 5 39.0104 30.3038 4
7 2 6 73.3134 53.6425 1
-7 -2 -6 33.4226 46.0463 7
-7 -2 -6 26.9605 30.8169 9
7 2 6 24.9062 25.9654 4
7 2 7 -29.9151 52.8813 1
-7 -2 -7 29.636 37.6205 2
-7 -2 -7 72.4592 45.3267 7
-7 -2 -7 26.7568 22.841 9
7 2 8 -14.6141 41.6258 1
-7 -2 -8 18.3754 36.2629 2
-7 -2 -8 52.0215 61.6116 7
-7 -2 -8 -28.1026 23.3919 9
-7 -2 -9 10.6464 28.1144 2
-7 -2 -9 41.7439 44.6768 7
-7 -2 -9 12.0949 24.3889 9
7 3 -8 36.1492 47.3437 1
-7 -3 7 30.5829 38.3791 8
7 3 -7 -4.47256 27.4213 1
-7 -3 6 -35.3407 40.9981 8
7 3 -6 -36.3031 31.7968 1
-7 -3 5 -43.0298 30.1118 6
7 3 -5 72.2546 47.685 1
-7 -3 5 106.903 53.4247 8
-7 -3 4 -0.10718 20.6015 6
7 3 -4 45.6864 45.7903 1
-7 -3 3 409.664 76.9404 6
7 3 -3 571.17 111.128 1
-7 -3 3 511.566 106.174 8
-7 -3 2 187.843 46.9327 7
7 3 -2 263.909 79.979 1
-7 -3 2 216.683 49.1245 6
-7 -3 2 327.523 82.7585 8
7 3 -1 39.585 28.697 1
-7 -3 1 105.127 41.7482 7
-7 -3 1 46.4917 29.3129 6
7 3 0 120.343 58.9428 1
-7 -3 0 48.7491 19.6654 7
-7 -3 -1 123.325 47.3492 7
7 3 1 71.5732 18.8907 3
7 3 1 54.1885 27.421 5
7 3 1 91.7689 40.9778 1
-7 -3 -2 467.483 89.073 7
7 3 2 435.553 92.271 1
-7 -3 -3 390.296 88.782 7
7 3 3 441.303 97.4346 1
-7 -3 -3 389.33 84.1573 9
-7 -3 -4 91.1961 56.2837 7
7 3 4 139.272 68.2844 1
-7 -3 -4 2.22172 25.3951 9
-7 -3 -5 95.8763 49.6403 7
7 3 5 46.8621 41.7295 1
-7 -3 -5 35.452 33.4561 9
-7 -3 -6 54.9783 53.2273 7
7 3 6 -0.64344 26.2401 1
-7 -3 -6 11.1396 33.4994 9
7 3 6 45.4915 27.9754 4
7 3 7 -32.4388 48.7054 1
-7 -3 -7 -8.94234 40.5991 7
-7 -3 -7 14.378 26.9324 2
-7 -3 -7 79.1092 44.8392 9
7 3 8 223.826 78.1936 1
-7 -3 -8 369.855 87.8163 2
-7 -3 -8 417.937 111.813 7
-7 -3 -8 282.309 72.2583 9
-7 -3 -9 64.9108 52.5895 7
7 3 9 201.549 83.6091 1
7 4 -7 69.5165 50.7546 1
-7 -4 7 -39.4275 36.7343 6
-7 -4 7 -0.97509 39.5832 8
7 4 -6 -26.6245 51.8582 1
-7 -4 6 43.6983 40.5519 6
-7 -4 6 61.1184 51.5564 8
-7 -4 5 -19.6189 46.9441 6
7 4 -5 14.0636 34.0139 1
-7 -4 4 1294.15 150.185 6
-7 -4 4 1213.89 167.088 8
7 4 -4 1281.36 179.547 1
-7 -4 3 233.782 68.1794 6
7 4 -3 254.085 82.2272 1
-7 -4 2 15.5036 17.6199 7
-7 -4 2 10.6492 20.0545 6
7 4 -2 60.0178 38.4085 1
-7 -4 1 198.764 56.1192 7
7 4 -1 158.389 58.4142 1
-7 -4 1 153.749 45.7915 6
7 4 0 29.1991 40.4649 1
7 4 0 47.8942 23.7412 3
-7 -4 0 93.6027 41.6542 7
-7 -4 0 31.9475 24.591 6
7 4 0 82.6646 38.5038 6
7 4 1 19.6078 13.417 3
-7 -4 -1 -25.727 31.4453 7
7 4 1 9.73407 21.7917 6
-7 -4 -2 -50.796 42.2345 7
7 4 2 -7.01938 9.79252 3
7 4 2 -55.3974 28.2091 6
-7 -4 -3 -70.391 47.1402 7
7 4 3 2.83206 28.3497 1
-7 -4 -4 0.40364 25.3195 7
7 4 4 68.5146 46.5603 1
-7 -4 -5 32.8584 40.5003 7
7 4 5 44.587 47.0216 1
-7 -4 -6 26.6171 24.1902 3
-7 -4 -6 98.4418 48.126 7
7 4 6 33.89 35.1774 1
-7 -4 -6 85.0668 40.4586 9
-7 -4 -7 82.2454 41.5919 3
7 4 7 8.10768 31.7575 1
-7 -4 -7 74.2588 36.7629 2
-7 -4 -7 3.85661 25.1864 7
-7 -4 -7 57.7194 33.3897 9
7 4 8 121.236 64.4286 1
-7 -4 -8 235.667 77.5334 7
-7 -4 -8 159.572 52.7157 9
7 4 9 73.7789 56.8726 1
-7 -4 -9 91.0845 55.8772 7
7 4 10 95.9828 55.1852 8
-7 -5 7 -117.572 58.0712 6
7 5 -6 140.158 72.3324 1
-7 -5 6 89.1095 51.8348 6
7 5 -5 -72.3241 56.8781 1
-7 -5 5 15.7805 28.194 6
-7 -5 4 1668.21 181.98 6
7 5 -4 2038.42 220.873 1
-7 -5 3 1204.92 149.346 6
7 5 -3 1005.05 154.618 1
-7 -5 2 16.1823 19.7521 7
-7 -5 2 20.0234 19.8418 6
7 5 -2 49.2326 41.0042 1
-7 -5 1 449.025 82.7089 7
-7 -5 1 420.985 79.9839 6
7 5 -1 467.973 105.096 1
-7 -5 0 4.55252 20.9959 7
7 5 0 -30.5969 43.615 1
-7 -5 0 -19.1709 32.0182 6
7 5 1 49.9493 36.6393 1
7 5 1 48.9737 26.252 3
-7 -5 -1 55.3705 37.1684 7
-7 -5 -2 180.136 54.3139 7
7 5 2 134.87 40.8315 3
7 5 2 173.718 64.2625 1
-7 -5 -3 -3.13255 38.4889 7
7 5 3 74.4783 31.1876 3
7 5 3 66.638 31.3329 1
-7 -5 -4 35.4714 33.9951 7
7 5 4 66.1541 46.5799 1
-7 -5 -5 37.194 36.5985 7
7 5 5 142.399 64.6548 1
-7 -5 -6 2.70555 24.8843 3
7 5 6 33.3783 40.3507 1
-7 -5 -7 -11.558 25.7072 3
-7 -5 -7 -14.359 28.004 7
7 5 7 -20.1525 32.2452 1
-7 -5 -8 -39.0466 37.5111 3
7 5 8 15.9926 34.8766 1
-7 -5 -8 -7.58254 26.9798 7
7 5 9 53.4483 60.7948 1
-7 -5 -9 51.197 43.9564 7
7 5 10 18.7062 40.1147 8
-7 -6 7 21.4755 34.1745 6
7 6 -6 11.8763 34.5075 1
-7 -6 6 -23.0083 32.4908 6
7 6 -5 99.8786 62.8925 1
-7 -6 5 20.6982 29.12 6
7 6 -4 230.839 85.9452 1
-7 -6 4 255.731 77.4621 6
-7 -6 3 794.175 135.243 6
7 6 -3 806.224 143.243 1
-7 -6 2 -10.9583 19.1971 7
-7 -6 2 -35.9207 33.376 6
7 6 -2 -9.21168 32.2399 1
-7 -6 1 309.665 71.0062 7
-7 -6 1 234.966 69.8822 6
7 6 -1 378.142 95.2986 1
-7 -6 0 21.169 37.6408 7
7 6 0 72.2305 53.8648 1
-7 -6 0 -3.69636 20.1123 6
7 6 1 307.474 80.035 1
-7 -6 -1 246.826 71.7042 7
-7 -6 -1 283.43 72.5365 6
7 6 2 -122.398 56.4699 1
-7 -6 -2 0.54955 33.7647 7
-7 -6 -3 219.982 69.5808 7
7 6 3 146.616 58.0812 1
-7 -6 -4 54.726 46.7135 7
7 6 4 47.0035 37.6566 1
-7 -6 -5 418.147 104.98 7
7 6 5 412.135 98.4424 1
-7 -6 -6 148.174 54.5556 7
7 6 6 61.3699 47.6995 1
-7 -6 -7 43.754 35.2503 3
-7 -6 -7 25.4102 40.0487 7
7 6 7 111.445 60.0326 1
-7 -6 -8 -35.3169 33.2157 3
7 6 8 59.9755 56.2117 1
-7 -6 -8 -108.367 59.3765 7
7 6 9 11.3513 40.8691 1
-7 -6 -9 23.4382 35.1237 3
-7 -6 -9 102.825 49.7752 7
7 6 10 -38.2387 46.9853 8
-7 -7 6 20.5581 46.2672 6
7 7 -5 -84.9926 56.9883 1
-7 -7 5 49.9448 44.4447 6
7 7 -4 35.2092 54.4099 1
-7 -7 4 41.9646 36.1977 6
-7 -7 3 109.199 60.4371 6
7 7 -3 84.6356 62.8869 1
-7 -7 2 221.15 66.4355 7
-7 -7 2 159.464 64.3669 6
7 7 -2 194.087 72.9385 1
-7 -7 1 -9.12033 31.2804 7
-7 -7 1 26.0987 36.2588 6
7 7 -1 24.0427 31.8549 1
-7 -7 0 -13.6572 34.0418 7
-7 -7 0 75.1681 45.4074 6
7 7 0 33.6314 45.3478 1
-7 -7 -1 350.419 86.956 7
7 7 1 262.005 82.0217 1
-7 -7 -1 240.922 75.6346 6
7 7 2 353.581 92.1542 1
-7 -7 -2 330.665 88.5047 7
-7 -7 -3 210.539 71.4848 7
7 7 3 221.397 76.9201 1
-7 -7 -4 115.055 55.9047 7
7 7 4 92.9669 46.8795 1
-7 -7 -5 267.236 88.3385 7
7 7 5 164.442 67.3157 1
-7 -7 -6 187.484 75.5642 7
7 7 6 313.235 90.8219 1
-7 -7 -7 -53.8032 41.6807 3
-7 -7 -7 -48.6806 38.4433 7
7 7 7 -36.8035 44.2992 1
-7 -7 -8 51.2545 45.6012 3
7 7 8 -45.292 39.1448 1
-7 -7 -8 107.616 67.9935 7
7 7 9 369.597 118.645 8
7 7 9 385.453 111.026 1
-7 -7 -9 227.074 83.9743 3
-7 -7 -10 179.271 73.8928 3
7 8 -5 -29.2198 47.7949 2
-7 -8 5 22.5478 36.6773 6
7 8 -4 69.8391 55.6198 1
-7 -8 4 77.1773 62.2216 6
-7 -8 3 160.978 70.0068 6
7 8 -3 290.287 89.8066 1
-7 -8 2 156.312 71.0437 6
7 8 -2 -2.95767 34.7384 1
-7 -8 1 169.092 64.6356 7
-7 -8 1 147.327 61.4589 6
7 8 -1 171.292 68.6449 1
-7 -8 0 75.2414 45.8853 7
-7 -8 0 41.9547 35.3377 6
7 8 0 -1.91634 35.7336 1
-7 -8 -1 230.525 75.9895 7
7 8 1 253.27 86.8334 1
-7 -8 -1 226.993 74.9152 6
7 8 2 467.401 108.128 1
-7 -8 -2 341.017 95.5505 7
-7 -8 -3 45.1919 34.5865 7
7 8 3 -14.3699 41.8641 1
-7 -8 -4 126.122 52.4617 7
7 8 4 147.522 63.5493 1
-7 -8 -5 116.25 51.8636 7
7 8 5 118.821 65.6858 1
-7 -8 -6 179.7 70.242 7
7 8 6 190.038 79.2584 1
-7 -8 -7 135.298 65.4033 7
7 8 7 41.19 36.81 1
-7 -8 -8 -12.6028 42.7246 3
7 8 8 69.9172 49.3544 1
7 8 9 252.219 87.237 1
-7 -8 -9 309.394 98.49 3
7 9 -5 88.9279 65.4581 2
7 9 -4 -21.2081 32.968 2
-7 -9 4 45.3255 44.5963 6
-7 -9 3 10.6995 42.8372 6
7 9 -3 -194.449 81.0939 1
-7 -9 2 -17.4599 30.3458 6
7 9 -2 106.843 60.588 1
-7 -9 1 42.4391 46.8471 7
-7 -9 1 150.581 68.8761 6
7 9 -1 109.826 64.5451 1
-7 -9 0 83.6894 59.1141 7
-7 -9 0 48.0071 50.5303 6
7 9 0 89.1868 63.7021 1
-7 -9 -1 710.113 136.003 7
-7 -9 -1 810.044 146.598 6
7 9 1 971.566 156.752 1
-7 -9 -2 1411.78 192.932 7
7 9 2 1335.25 190.061 1
-7 -9 -3 208.489 82.7801 7
7 9 3 372.139 100.527 1
-7 -9 -4 21.3844 26.8406 7
7 9 4 -57.4336 52.4546 1
-7 -9 -5 93.9609 67.5385 7
7 9 5 51.725 54.5448 1
-7 -9 -6 2.20103 28.821 7
7 9 6 50.4032 43.3548 1
7 9 7 -24.1008 38.4556 1
7 9 8 64.9365 44.5247 1
7 10 -4 76.2936 45.4728 2
-7 -10 3 77.1155 63.0169 6
-7 -10 2 -28.7204 36.6248 6
7 10 -2 -82.9695 56.6856 1
-7 -10 1 -13.0087 49.5913 6
7 10 -1 -7.15125 39.4204 1
-7 -10 0 98.3081 56.3623 7
-7 -10 0 242.869 89.5102 6
7 10 0 84.055 50.8079 1
-7 -10 -1 306.717 91.6909 7
7 10 1 338.169 101.674 1
-7 -10 -1 328.095 100.691 6
7 10 2 691.603 140.304 1
-7 -10 -2 680.455 145.728 7
-7 -10 -3 264.268 87.183 7
7 10 3 523.924 123.626 1
-7 -10 -4 40.5175 46.9377 7
7 10 4 -3.78992 31.4719 1
-7 -10 -5 109.655 65.9446 7
7 10 5 12.6708 35.01 1
7 10 6 268.357 89.6892 1
7 10 7 149.487 62.4413 1
7 11 -1 -160.277 75.9244 1
7 11 0 11.4975 35.6115 1
-7 -11 -1 -89.7122 58.8702 7
7 11 1 0.62229 28.9566 1
-7 -11 -1 24.4727 43.0437 6
7 11 2 103.223 64.4038 1
-7 -11 -2 -89.1434 60.4976 7
7 11 3 68.6932 46.5382 1
7 11 4 -104.858 57.7011 1
7 11 5 68.7198 34.5265 1
7 12 1 -9.8327 40.0661 1
7 12 2 -78.9403 55.6595 1
-8 3 1 57.1438 52.4048 8
-8 3 0 114.88 61.5629 8
8 -3 2 60.6837 57.6439 10
8 -3 2 115.144 76.9132 4
8 -3 3 -37.4968 70.6797 10
8 -3 3 27.015 37.6448 4
8 -3 4 1.1362 49.609 10
8 -3 4 -9.12042 28.0393 4
-8 2 2 112.344 73.9353 8
-8 2 1 273.038 98.5878 8
-8 2 0 77.6995 54.787 9
-8 2 0 76.5906 51.517 8
8 -2 0 -17.5369 37.0424 4
8 -2 1 59.3057 45.1648 1
-8 2 -1 -48.2186 42.5351 9
8 -2 1 -49.3761 67.5363 4
8 -2 2 54.4032 49.0327 1
-8 2 -2 5.40836 40.1781 9
8 -2 2 36.0773 38.2669 4
8 -2 3 54.8279 32.8982 1
-8 2 -3 175.174 74.4961 9
8 -2 3 78.3641 53.3218 4
8 -2 4 31.1607 46.6621 1
8 -2 4 -10.0213 29.0299 10
8 -2 4 73.376 30.9659 4
8 -2 5 -41.8127 37.1856 10
-8 1 2 26.6552 44.314 8
8 -1 -2 -51.0532 52.941 4
8 -1 -1 95.411 51.7762 1
-8 1 1 287.718 90.7606 9
-8 1 1 66.0919 55.4293 8
8 -1 -1 132.654 72.8464 4
8 -1 0 210.158 69.9269 1
-8 1 0 101.532 61.4916 9
-8 1 0 -24.5143 52.7711 8
8 -1 0 57.8062 57.6614 4
8 -1 1 57.6206 44.7706 1
-8 1 -1 -40.6519 33.3428 9
8 -1 1 14.6788 39.7953 4
8 -1 2 123.457 63.6174 1
-8 1 -2 71.9499 59.5485 9
8 -1 2 47.5451 52.7927 4
8 -1 3 150.452 62.7502 1
-8 1 -3 188.083 81.2738 9
8 -1 3 151.194 67.1018 4
8 -1 4 137.748 65.0057 1
-8 1 -4 161.213 81.4798 9
8 -1 4 136.066 66.7735 4
8 -1 5 104.099 55.174 1
-8 1 -5 -118.945 61.8616 9
-8 1 -6 37.6069 46.5453 2
-8 1 -6 -93.5631 56.6783 9
8 0 -3 35.7316 46.0639 4
8 0 -3 51.9223 35.9253 1
-8 0 3 -61.3695 52.3033 8
8 0 -2 -69.792 58.6569 4
8 0 -2 15.0356 28.152 1
-8 0 2 5.20003 51.5694 8
8 0 -1 36.7161 49.8199 1
-8 0 1 6.42016 36.6887 8
8 0 -1 -20.9301 28.0257 4
-8 0 0 40.7456 35.656 7
8 0 0 -10.761 36.8533 1
-8 0 0 105.713 63.0182 9
8 0 0 39.664 33.5164 4
8 0 1 45.2962 31.7056 1
-8 0 -1 29.5167 30.7539 9
8 0 1 69.6804 58.0608 4
8 0 2 -49.2276 51.3808 1
-8 0 -2 21.8521 33.8379 9
8 0 2 21.6038 28.8283 4
8 0 3 -56.118 48.2205 1
-8 0 -3 -30.0128 40.2156 9
8 0 3 11.0201 42.1531 4
8 0 4 -20.8532 37.2926 1
-8 0 -4 15.6852 22.9646 9
8 0 4 -6.71224 31.4241 4
8 0 5 46.3614 43.0274 1
-8 0 -5 21.9785 31.89 9
8 0 5 -24.6417 39.644 4
8 0 6 -42.6153 49.6282 1
-8 0 -6 -42.4167 42.587 9
-8 0 -7 73.4889 55.2246 2
-8 0 -7 92.1887 55.2437 9
-8 0 -8 182.12 85.3438 2
-8 0 -8 264.916 88.8874 9
8 1 -5 89.0515 43.8462 1
8 1 -4 -10.9678 30.6724 1
-8 -1 4 -0.85032 28.3459 8
-8 -1 3 2.19347 34.3004 8
8 1 -3 84.2059 50.2408 1
8 1 -2 -13.8421 27.7323 1
-8 -1 2 -20.5222 37.6923 8
8 1 -1 37.0069 33.9183 1
-8 -1 1 183.366 73.5899 8
-8 -1 0 258.163 65.281 7
8 1 0 264.933 77.6965 1
8 1 1 40.5475 35.1965 4
-8 -1 -1 9.72563 25.0106 7
8 1 1 -37.5602 45.998 1
-8 -1 -1 56.5955 37.3984 9
-8 -1 -2 45.6565 31.4419 7
8 1 2 -18.7915 34.2167 1
-8 -1 -2 -10.2616 25.3245 9
8 1 2 -6.49075 38.3861 4
8 1 3 136.277 63.599 1
-8 -1 -3 40.9416 39.6677 9
8 1 3 44.901 43.5085 4
8 1 4 -17.5927 45.6591 1
8 1 4 23.9861 27.4779 4
8 1 5 46.8899 43.0476 1
8 1 5 19.7568 26.6598 4
8 1 6 -23.6751 42.2748 1
-8 -1 -6 -45.775 49.6916 9
8 1 7 -58.3524 49.7783 1
-8 -1 -7 10.2456 35.7046 2
-8 -1 -8 40.0745 40.4742 2
-8 -1 -8 27.2332 23.8462 9
-8 -1 -9 77.0597 53.9934 2
-8 -1 -9 19.8175 31.7571 9
8 2 -6 41.1644 46.1656 1
8 2 -5 72.3462 50.3266 1
8 2 -4 218.433 75.5193 1
-8 -2 4 439.401 114.15 8
8 2 -3 168.04 69.3942 1
-8 -2 3 209.69 79.8005 8
8 2 -2 -6.0828 26.7102 1
-8 -2 2 -42.9318 38.3965 8
8 2 -1 20.9968 32.2453 1
-8 -2 0 246.427 64.3856 7
8 2 0 367.115 97.9473 1
-8 -2 -1 86.0761 42.24 7
8 2 1 100.11 50.0449 1
-8 -2 -2 95.8158 48.6051 7
8 2 2 102.644 55.548 1
-8 -2 -2 53.848 47.5249 9
-8 -2 -3 625.806 115.06 7
8 2 3 733.975 133.768 1
-8 -2 -3 728.64 131.54 9
-8 -2 -4 938.045 141.763 7
8 2 4 1145.39 171.599 1
-8 -2 -4 1148.13 164.221 9
8 2 4 1105.75 142.065 4
-8 -2 -5 230.209 83.9853 7
8 2 5 415.046 111.329 1
-8 -2 -5 372.266 95.73 9
8 2 5 231.074 66.5806 4
8 2 6 -17.7472 38.9879 1
-8 -2 -6 73.456 51.0476 7
-8 -2 -6 0.96272 33.5594 9
8 2 7 85.6741 55.3191 1
-8 -2 -7 33.7415 51.9753 7
-8 -2 -7 6.25945 26.5105 2
-8 -2 -7 104.831 51.0654 9
-8 -2 -8 9.60327 37.5424 2
-8 -2 -8 22.5172 29.4825 9
8 3 -6 60.9444 67.3631 1
8 3 -5 -8.08065 29.3004 1
8 3 -4 -13.3565 29.1049 1
-8 -3 4 -70.4969 51.8242 8
8 3 -3 -17.297 34.5807 1
-8 -3 3 -11.38 30.9167 8
8 3 -2 -18.9637 35.9006 1
8 3 -1 146.529 65.5139 1
-8 -3 1 60.8904 33.357 7
-8 -3 0 30.0252 29.9717 7
8 3 0 74.6543 44.3493 1
-8 -3 -1 9.5104 22.5531 7
8 3 1 56.2569 43.6885 1
-8 -3 -2 -19.2598 31.9387 7
8 3 2 11.8662 30.633 1
-8 -3 -3 211.064 76.0664 7
8 3 3 209.186 71.3029 1
-8 -3 -4 3081.99 260.896 7
8 3 4 3682.49 300.648 1
-8 -3 -4 3634.13 278.859 9
-8 -3 -5 3056.71 266.301 7
8 3 5 3605.21 305.411 1
-8 -3 -5 3769.34 283.435 9
8 3 5 3395.11 223.422 4
-8 -3 -6 309.156 99.6193 7
8 3 6 336.475 97.7351 1
-8 -3 -6 290.979 79.8679 9
8 3 7 -29.0879 34.0886 1
-8 -3 -7 -45.8074 44.3543 7
-8 -3 -7 19.6107 24.887 2
-8 -3 -7 -2.43434 17.5858 9
-8 -3 -8 -41.9434 35.361 9
8 4 -5 23.5496 38.0585 1
-8 -4 5 -0.20166 30.1489 8
8 4 -4 553.55 123.846 1
8 4 -3 818.112 145.395 1
8 4 -2 201.06 63.5756 1
8 4 -1 -14.2964 53.9165 1
-8 -4 1 10.4384 25.2935 7
8 4 0 39.9665 42.6466 1
-8 -4 0 32.0471 32.6553 7
-8 -4 -1 1.10783 31.7418 7
8 4 1 -32.1627 47.5074 1
-8 -4 -2 -31.9532 32.2012 7
8 4 2 -154.631 64.9504 1
-8 -4 -3 49.3621 36.3502 7
8 4 3 62.2409 53.0619 1
-8 -4 -4 140.631 55.2093 7
8 4 4 349.826 99.3452 1
-8 -4 -5 807.73 144.1 7
8 4 5 1076.86 167.657 1
-8 -4 -6 456.156 110.095 7
8 4 6 448.261 118.1 1
8 4 7 52.4561 50.0901 1
-8 -4 -7 58.8807 50.4548 7
8 4 8 24.1614 35.164 1
8 5 -5 -64.705 55.4891 1
8 5 -4 189.032 70.8417 1
8 5 -3 567.474 127.453 1
8 5 -2 318.651 97.1791 1
-8 -5 2 244.285 64.847 6
-8 -5 1 133.699 45.7934 7
8 5 -1 168.855 57.3308 1
-8 -5 1 127.87 44.4061 6
8 5 0 229.885 72.0106 1
-8 -5 0 228.558 66.9594 7
-8 -5 -1 199.083 68.8208 7
8 5 1 197.545 69.626 1
-8 -5 -2 59.9434 44.2368 7
8 5 2 26.8593 43.1217 1
-8 -5 -3 -133.43 58.7869 7
8 5 3 -18.4698 33.107 1
-8 -5 -4 -11.8563 59.3553 7
8 5 4 -12.7006 38.4788 1
-8 -5 -5 -246.272 82.6505 7
8 5 5 96.3883 58.436 1
-8 -5 -6 -96.8084 56.8514 7
8 5 6 -123.616 64.0157 1
-8 -5 -7 73.3797 51.144 7
8 5 7 39.4345 29.8097 1
8 5 8 49.5296 34.9278 1
-8 -6 4 28.8806 41.6268 6
8 6 -4 -26.1586 54.6323 1
-8 -6 3 64.6257 42.4857 6
8 6 -3 78.2568 53.62 1
-8 -6 2 26.9057 35.864 6
8 6 -2 53.9355 48.0373 1
-8 -6 1 -2.7435 40.6116 7
8 6 -1 -10.544 37.0896 1
-8 -6 1 -9.11163 27.9101 6
-8 -6 0 101.456 49.8091 7
8 6 0 74.4568 43.2249 1
-8 -6 0 129.979 47.7193 6
8 6 1 733.772 140.537 1
-8 -6 -1 905.4 135.525 7
-8 -6 -2 315.626 87.0314 7
8 6 2 196.549 71.0371 1
-8 -6 -3 -38.0954 38.6312 7
8 6 3 -18.6621 52.1205 1
-8 -6 -4 34.3444 39.4608 7
8 6 4 29.291 43.1552 1
-8 -6 -5 113.795 69.6859 7
8 6 5 38.341 36.9966 1
-8 -6 -6 -36.3936 41.1075 7
8 6 6 36.822 47.7135 1
-8 -6 -7 21.99 45.7289 7
8 6 7 -59.3856 49.9723 1
8 6 8 -11.6024 40.9875 1
-8 -7 5 60.059 45.4752 6
-8 -7 4 -39.1757 42.9604 6
-8 -7 3 -14.2665 29.4144 6
8 7 -3 -35.6034 58.6909 1
-8 -7 2 45.8666 38.6819 6
8 7 -2 60.5405 62.1636 1
8 7 -1 58.4867 55.7875 1
-8 -7 1 9.80631 25.5796 6
-8 -7 0 16.2343 28.5652 7
8 7 0 -63.5637 50.886 1
-8 -7 0 29.9166 34.6973 6
8 7 1 172.099 72.5331 1
-8 -7 -1 203.988 69.3911 7
-8 -7 -2 301.419 94.6883 7
8 7 2 291.989 102.091 1
-8 -7 -3 60.527 50.4743 7
8 7 3 72.0563 52.5919 1
-8 -7 -4 108.382 47.8059 7
8 7 4 76.7227 46.5605 1
-8 -7 -5 422.657 110.141 7
8 7 5 306.459 90.4372 1
-8 -7 -6 173.874 78.6585 7
8 7 6 91.1887 64.043 1
-8 -7 -7 121.386 58.1096 7
8 7 7 17.3262 48.4668 1
-8 -8 5 -16.9305 32.1975 6
-8 -8 4 34.7557 41.3387 6
-8 -8 3 189.549 80.9336 6
-8 -8 2 698.554 133.561 6
8 8 -2 766.595 152.918 1
-8 -8 1 95.4072 53.4679 7
-8 -8 1 132.512 63.7328 6
8 8 -1 21.6155 38.9986 1
-8 -8 0 39.0929 39.0905 7
8 8 0 50.6887 47.7939 1
-8 -8 0 7.55639 32.1233 6
8 8 1 60.0253 45.5375 1
-8 -8 -1 19.8515 42.2153 7
8 8 2 33.068 33.6559 1
-8 -8 -2 49.7773 46.172 7
-8 -8 -3 9.90625 40.1162 7
8 8 3 -83.8869 53.5535 1
-8 -8 -4 11.9813 36.5632 7
8 8 4 -1.34198 50.409 1
-8 -8 -5 -55.251 59.7978 7
8 8 5 -18.7075 35.2969 1
-8 -8 -6 98.6746 59.3895 7
8 8 6 88.9234 63.266 1
8 8 7 52.9358 57.7805 1
-8 -9 3 47.7225 37.2139 6
-8 -9 2 319.846 98.0936 6
-8 -9 1 279.12 78.9612 7
-8 -9 1 386.15 113.238 6
8 9 -1 485.428 126.848 1
-8 -9 0 47.6718 53.5363 7
8 9 0 68.7041 53.6991 1
-8 -9 0 -14.8151 32.2403 6
8 9 1 159.106 83.3313 1
-8 -9 -1 81.3943 55.6055 7
8 9 2 271.218 98.6868 1
-8 -9 -2 275.105 91.3595 7
-8 -9 -3 44.7743 43.5187 7
8 9 3 60.1556 47.4391 1
-8 -9 -4 26.1601 34.6158 7
8 9 4 -98.6378 60.1189 1
-8 -9 -5 -83.8863 57.2764 7
8 9 5 35.8952 46.3495 1
8 9 6 71.5751 53.4541 1
8 9 7 4.63673 48.3752 1
-8 -10 1 86.5502 55.6355 6
-8 -10 0 -66.711 61.7666 7
-8 -10 0 49.7642 45.6823 6
-8 -10 -1 89.627 60.8918 7
8 10 1 105.036 70.148 1
8 10 2 507.441 133.007 1
-8 -10 -2 721.433 150.281 7
-8 -10 -3 738.576 155.913 7
8 10 3 574.024 137.768 1
8 10 4 -19.987 47.2733 1
8 10 5 177.675 76.0041 1
8 10 6 -75.8794 54.0935 1
9 -1 1 35.2659 29.4779 1
9 -1 2 28.3069 44.3557 1
9 -1 2 43.3275 45.5734 4
9 -1 3 -76.7202 51.5472 1
9 -1 3 -49.8368 43.6755 4
9 0 -1 1.23479 26.6124 1
9 0 0 10.465 30.3519 1
9 0 1 45.6691 56.8857 1
9 0 1 -14.8063 30.0795 4
9 0 2 -93.738 55.2079 1
9 0 2 11.2465 32.4391 4
9 0 3 44.9258 43.2598 1
9 0 3 4.65643 27.4335 4
9 0 4 77.9692 55.3956 1
9 1 -3 16.0059 35.6441 1
9 1 -2 75.1447 50.7179 1
9 1 -1 -22.1573 26.2759 1
9 1 0 60.4819 50.8196 4
9 1 0 -13.0385 32.5575 1
9 1 1 17.477 37.3888 1
9 1 1 2.49741 37.7664 4
-9 -1 -2 46.8759 41.2449 7
9 1 2 -44.6914 43.3866 1
-9 -1 -2 -8.90798 37.8669 9
9 1 2 67.4439 52.676 4
-9 -1 -3 -30.0905 25.4644 7
9 1 3 72.3086 59.4185 1
-9 -1 -3 -27.4292 34.2925 9
9 1 3 -38.3337 37.9289 4
9 1 4 -25.3782 33.8308 1
-9 -1 -4 19.6079 44.595 7
9 1 4 -67.6774 44.7853 4
-9 -1 -5 11.6762 51.2437 7
-9 -1 -5 47.1084 47.9967 9
9 2 -4 -31.1222 48.5599 1
9 2 -3 64.2214 47.3153 1
9 2 -2 21.9063 29.2952 1
9 2 -1 -23.1399 36.1359 1
9 2 0 32.9042 33.8352 1
-9 -2 -1 6.66849 24.4235 7
9 2 1 26.7549 43.1014 1
9 2 2 17.336 25.6315 4
-9 -2 -2 36.9042 35.6661 7
9 2 2 50.3905 35.1302 1
-9 -2 -3 12.0565 29.3889 7
9 2 3 -4.37897 32.6373 1
-9 -2 -3 41.1429 36.3154 9
9 2 3 -19.167 29.679 4
-9 -2 -4 -15.995 40.7099 7
9 2 4 -0.80243 35.436 1
-9 -2 -4 81.9779 57.5935 9
9 2 4 51.8632 47.7953 4
9 2 5 1.87901 32.0688 1
-9 -2 -5 61.309 54.4803 7
-9 -2 -5 60.6542 55.0419 9
-9 -2 -6 3.32095 24.782 9
-9 -2 -7 -126.394 63.7773 2
-9 -2 -7 -3.9359 33.072 9
9 3 -3 60.7035 48.9713 1
9 3 -2 73.7931 53.6697 1
9 3 -1 -16.3211 42.0308 1
9 3 0 72.3638 52.1228 1
-9 -3 -1 106.291 56.1309 7
9 3 1 142.027 67.4363 1
-9 -3 -2 -39.3989 36.2596 7
9 3 2 56.1267 58.9102 1
-9 -3 -3 95.2575 51.7495 7
9 3 3 89.9773 58.5137 1
9 3 4 49.9947 42.4762 4
-9 -3 -4 -8.22454 36.2437 7
9 3 4 79.9142 61.8632 1
-9 -3 -5 77.999 55.2027 7
9 3 5 39.8416 54.1772 1
-9 -3 -5 44.3846 52.2673 9
-9 -3 -6 53.6787 55.2891 7
-9 -3 -6 90.3717 66.1533 9
-9 -3 -7 -5.54665 22.3252 9
9 4 -3 111.435 66.3544 1
9 4 -2 90.2822 56.9596 1
9 4 -1 54.1559 51.9068 1
9 4 0 -9.04994 34.6112 1
-9 -4 -1 60.1931 39.7305 7
9 4 1 -62.6864 61.4945 1
-9 -4 -2 -1.6699 27.471 7
9 4 2 7.39709 32.9108 1
-9 -4 -3 12.2378 33.2309 7
9 4 3 -13.3663 36.383 1
-9 -4 -4 146.388 57.1465 7
9 4 4 57.5659 53.9457 1
-9 -4 -5 1.12624 33.4078 7
9 4 5 67.4663 55.5413 1
-9 -4 -6 8.39795 36.0276 7
9 5 -2 299.607 100.002 1
9 5 -1 30.7894 50.703 1
9 5 0 -9.31835 30.9189 1
-9 -5 -1 45.7457 40.9837 7
9 5 1 39.5839 49.916 1
-9 -5 -2 -35.7988 43.949 7
9 5 2 -45.1302 36.9822 1
-9 -5 -3 22.6511 36.8771 7
9 5 3 33.8561 43.5714 1
-9 -5 -4 -129.961 62.3911 7
9 5 4 72.3897 61.6926 1
-9 -5 -5 -2.27989 49.3668 7
9 5 5 51.2521 46.4175 1
-9 -5 -6 -127.444 66.9319 7
9 6 -1 3.38469 47.6171 1
9 6 0 60.9376 51.8269 1
-9 -6 -1 50.5912 39.1807 7
9 6 1 -19.2972 39.467 1
-9 -6 -2 -53.1124 55.4261 7
9 6 2 71.0942 56.3054 1
-9 -6 -3 -24.4728 27.4459 7
9 6 3 13.4128 32.536 1
-9 -6 -4 67.4551 55.5081 7
9 6 4 -13.2227 38.3567 1
-9 -6 -5 81.4135 65.35 7
9 6 5 25.9475 43.7158 1
9 7 0 12.1169 37.6085 1
-9 -7 0 15.2097 23.5323 7
-9 -7 -1 33.7842 40.5666 7
9 7 1 -85.6737 58.3576 1
-9 -7 -2 122.084 71.1343 7
9 7 2 117.293 63.2499 1
-9 -7 -3 52.3887 48.5359 7
9 7 3 26.9948 47.4176 1
-9 -7 -4 -2.03689 39.1365 7
9 7 4 -47.5977 52.8601 1
-9 -7 -5 77.9554 69.8275 7
-9 -8 0 -71.0923 48.0199 7
-9 -8 -1 2.54125 34.6239 7
-9 -8 -2 43.896 45.9177 7
-9 -8 -3 24.5031 37.2185 7
-9 -8 -4 31.0409 34.1949 7
-9 -9 1 23.8564 28.2268 6
-9 -9 0 -2.56068 33.0284 6
-9 -9 -1 -41.744 46.0161 7
-9 -9 -2 92.6158 59.0687 7
-9 -9 -3 115.259 70.5716 7
-10 -3 -3 53.7136 47.1124 7
-10 -4 -3 -91.2719 54.2474 7
-10 -4 -4 -144.641 66.7083 7
-10 -5 -3 -0.3791 39.2818 7
-10 -6 -3 52.2094 50.0119 7
-10 -7 -3 44.3182 40.8607 7
