#------------------------------------------------------------------------------
#$Date: 2019-11-24 04:07:48 +0200 (Sun, 24 Nov 2019) $
#$Revision: 236634 $
#$URL: file:///home/coder/svn-repositories/cod/cif/1/55/41/1554144.cif $
#------------------------------------------------------------------------------
#
# This file is available in the Crystallography Open Database (COD),
# http://www.crystallography.net/
#
# All data on this site have been placed in the public domain by the
# contributors.
#
data_1554144
loop_
_publ_author_name
'Hirao, Yasukazu'
'Seo, Shiori'
'Kubo, Takashi'
_publ_section_title
;
 Self-Assembly of 1-Deazahypoxanthine: Cooperativity of Hydrogen-Bonding
 and Stacking Interactions
;
_journal_issue                   34
_journal_name_full               'The Journal of Physical Chemistry C'
_journal_page_first              20928
_journal_paper_doi               10.1021/acs.jpcc.9b05033
_journal_volume                  123
_journal_year                    2019
_chemical_formula_sum            'C13 H10 N4 O2'
_chemical_formula_weight         254.25
_chemical_name_systematic
;
3-benzyl-7-nitro-3H-imidazo[4,5-b]pyridine
;
_space_group_crystal_system      monoclinic
_space_group_IT_number           4
_space_group_name_Hall           'P 2yb'
_space_group_name_H-M_alt        'P 1 21 1'
_atom_sites_solution_hydrogens   geom
_atom_sites_solution_primary     direct
_atom_sites_solution_secondary   difmap
_audit_creation_method           SHELXL-2016/6
_cell_angle_alpha                90
_cell_angle_beta                 90.569(5)
_cell_angle_gamma                90
_cell_formula_units_Z            2
_cell_length_a                   8.5059(12)
_cell_length_b                   5.7021(8)
_cell_length_c                   12.074(2)
_cell_measurement_reflns_used    4300
_cell_measurement_temperature    200(2)
_cell_measurement_theta_max      27.46
_cell_measurement_theta_min      3.38
_cell_volume                     585.58(15)
_computing_cell_refinement       'RAPID AUTO'
_computing_data_collection       'RAPID AUTO (Rigaku, ????)'
_computing_data_reduction        'RAPID AUTO'
_computing_molecular_graphics
;
Yadokari-XG 2009 (K. Wakita, T. Nemoto, et al., 2009)
;
_computing_publication_material
;
Yadokari-XG 2009 (K. Wakita, T. Nemoto, et al., 2009)
;
_computing_structure_refinement  'SHELXL-2016/6 (Sheldrick, 2016)'
_computing_structure_solution    Sir2014
_diffrn_ambient_temperature      200(2)
_diffrn_measured_fraction_theta_full 0.997
_diffrn_measured_fraction_theta_max 0.995
_diffrn_measurement_device_type
;
Rigaku MicroMax-007HF,VariMax-Mo and RAPID II
;
_diffrn_measurement_method       \w
_diffrn_radiation_type           MoK\a
_diffrn_radiation_wavelength     0.71075
_diffrn_reflns_av_R_equivalents  0.0347
_diffrn_reflns_av_unetI/netI     0.0433
_diffrn_reflns_Laue_measured_fraction_full 0.997
_diffrn_reflns_Laue_measured_fraction_max 0.995
_diffrn_reflns_limit_h_max       11
_diffrn_reflns_limit_h_min       -10
_diffrn_reflns_limit_k_max       7
_diffrn_reflns_limit_k_min       -7
_diffrn_reflns_limit_l_max       15
_diffrn_reflns_limit_l_min       -15
_diffrn_reflns_number            5687
_diffrn_reflns_point_group_measured_fraction_full 0.929
_diffrn_reflns_point_group_measured_fraction_max 0.910
_diffrn_reflns_theta_full        25.242
_diffrn_reflns_theta_max         27.472
_diffrn_reflns_theta_min         3.375
_diffrn_source                   'micro-focus rotating anode'
_exptl_absorpt_coefficient_mu    0.102
_exptl_absorpt_correction_T_max  1.0000
_exptl_absorpt_correction_T_min  0.6099
_exptl_absorpt_correction_type   multi-scan
_exptl_absorpt_process_details
;
Empirical Absorption Correction   March 2001 T. Higashi
    Rigaku Corporation, Tokyo, Japan
;
_exptl_crystal_colour            Colorless
_exptl_crystal_density_diffrn    1.442
_exptl_crystal_density_method    'not measured'
_exptl_crystal_description       Platelet
_exptl_crystal_F_000             264
_exptl_crystal_size_max          0.500
_exptl_crystal_size_mid          0.200
_exptl_crystal_size_min          0.200
_refine_diff_density_max         0.577
_refine_diff_density_min         -0.511
_refine_diff_density_rms         0.142
_refine_ls_abs_structure_details
;
 Flack x determined using 770 quotients [(I+)-(I-)]/[(I+)+(I-)]
 (Parsons, Flack and Wagner, Acta Cryst. B69 (2013) 249-259).
;
_refine_ls_abs_structure_Flack   0.4(8)
_refine_ls_extinction_method     none
_refine_ls_goodness_of_fit_ref   1.126
_refine_ls_hydrogen_treatment    constr
_refine_ls_matrix_type           full
_refine_ls_number_parameters     172
_refine_ls_number_reflns         2457
_refine_ls_number_restraints     1
_refine_ls_restrained_S_all      1.126
_refine_ls_R_factor_all          0.1180
_refine_ls_R_factor_gt           0.1131
_refine_ls_shift/su_max          0.000
_refine_ls_shift/su_mean         0.000
_refine_ls_structure_factor_coef Fsqd
_refine_ls_weighting_details
'w=1/[\s^2^(Fo^2^)+(0.1658P)^2^+2.8946P] where P=(Fo^2^+2Fc^2^)/3'
_refine_ls_weighting_scheme      calc
_refine_ls_wR_factor_gt          0.3503
_refine_ls_wR_factor_ref         0.3531
_reflns_Friedel_coverage         0.661
_reflns_Friedel_fraction_full    0.845
_reflns_Friedel_fraction_max     0.806
_reflns_number_gt                2228
_reflns_number_total             2457
_reflns_threshold_expression     'I > 2\s(I)'
_cod_data_source_file            jp9b05033_si_002.cif
_cod_data_source_block           6d_prime
_cod_original_sg_symbol_H-M      'P 21'
_cod_database_code               1554144
_shelx_shelxl_version_number     2016/6
_shelx_space_group_comment
;
The symmetry employed for this shelxl refinement is uniquely defined
by the following loop, which should always be used as a source of
symmetry information in preference to the above space-group names.
They are only intended as comments.
;
_shelx_estimated_absorpt_t_min   0.951
_shelx_estimated_absorpt_t_max   0.980
_shelx_res_file
;
TITL
    ydkr.res
    created by SHELXL-2016/6 at 14:56:57 on 15-May-2019
REM  Yadorkari-X generated
CELL 0.71075 8.5059 5.7021 12.0741 90.0000 90.5694 90.0000
ZERR 2.0 0.0012 0.0008 0.0021 0.0000 0.0047 0.0000
LATT -1
SYMM -X, 1/2+Y, -Z
REM  SPGR P21 monoclinic
SFAC C H N O
UNIT 26 20 8 4
SIZE 0.50 0.20 0.20
TEMP -73.0
L.S. 200
FMAP 2
PLAN -25
ACTA
CONF
HTAB
LIST 4
BOND $H
EQIV $1 -1+X, -1+Y, +Z

HTAB C7 O1_$1

WGHT    0.165800    2.894600
FVAR       6.21159
C1    1    0.526889    0.475279    0.782833    11.00000    0.03644    0.05512 =
         0.03042   -0.00804   -0.00212   -0.00145
AFIX  43
H1    2    0.418008    0.446605    0.770914    11.00000   -1.20000
AFIX   0
C2    1    0.600297    0.670950    0.731782    11.00000    0.04030    0.04568 =
         0.03939    0.00917   -0.00339    0.01618
AFIX  43
H2    2    0.537220    0.767372    0.685051    11.00000   -1.20000
AFIX   0
N1    3    0.750045    0.728455    0.744640    11.00000    0.04874    0.03501 =
         0.02493    0.00379   -0.00045    0.00821
C3    1    0.829336    0.577737    0.809300    11.00000    0.03272    0.02793 =
         0.02604    0.00100    0.00045    0.00311
C4    1    0.775562    0.378183    0.863538    11.00000    0.03057    0.02515 =
         0.02407   -0.00340    0.00067    0.00043
C5    1    0.612321    0.330177    0.848344    11.00000    0.02773    0.03738 =
         0.03362   -0.00996    0.00449   -0.00089
N2    3    0.896033    0.266484    0.923204    11.00000    0.03494    0.03232 =
         0.02725    0.00403   -0.00304   -0.00223
C6    1    1.017728    0.402312    0.903329    11.00000    0.03608    0.03075 =
         0.03101   -0.00118   -0.00215    0.00109
AFIX  43
H3    2    1.119509    0.371016    0.932876    11.00000   -1.20000
AFIX   0
N3    3    0.987099    0.591066    0.837293    11.00000    0.03302    0.03685 =
         0.03033    0.00595    0.00547   -0.00222
N4    3    0.536716    0.129801    0.902510    11.00000    0.03559    0.04399 =
         0.03022   -0.01168    0.00756   -0.00097
O1    4    0.400356    0.087680    0.877885    11.00000    0.04355    0.05303 =
         0.05053   -0.00291    0.00331   -0.02195
O2    4    0.613468    0.010986    0.966874    11.00000    0.04821    0.05924 =
         0.05489    0.01213    0.00678   -0.01260
C7    1    1.097517    0.767211    0.800178    11.00000    0.04730    0.02837 =
         0.02890   -0.00724    0.00540   -0.01143
AFIX  23
H4    2    1.191686    0.762295    0.848974    11.00000   -1.20000
H5    2    1.048713    0.923736    0.808599    11.00000   -1.20000
AFIX   0
C8    1    1.149631    0.738933    0.680777    11.00000    0.03053    0.03449 =
         0.03041    0.00213   -0.00140   -0.00151
C9    1    1.114490    0.538696    0.618032    11.00000    0.03546    0.02703 =
         0.03481   -0.00497    0.00084   -0.00143
AFIX  43
H6    2    1.054937    0.415163    0.649666    11.00000   -1.20000
AFIX   0
C10   1    1.166427    0.520309    0.509813    11.00000    0.05237    0.05231 =
         0.02815   -0.00889   -0.00096    0.00240
AFIX  43
H7    2    1.139142    0.385594    0.467507    11.00000   -1.20000
AFIX   0
C11   1    1.256560    0.692884    0.462447    11.00000    0.05108    0.05427 =
         0.02337    0.00395    0.00336    0.01399
AFIX  43
H8    2    1.294782    0.676845    0.389173    11.00000   -1.20000
AFIX   0
C12   1    1.289579    0.889176    0.524421    11.00000    0.05031    0.04260 =
         0.03664    0.01011    0.00302   -0.00025
AFIX  43
H9    2    1.351045    1.010462    0.492679    11.00000   -1.20000
AFIX   0
C13   1    1.236184    0.915997    0.631650    11.00000    0.04021    0.03718 =
         0.03500    0.00158   -0.00521   -0.00791
AFIX  43
H10   2    1.258868    1.055747    0.671552    11.00000   -1.20000

AFIX   0
HKLF 4 1 1 0 0 0 1 0 0 0 1




REM
REM R1 =  0.1131 for    2228 Fo > 4sig(Fo)  and  0.1180 for all    2457 data
REM    172 parameters refined using      1 restraints

END

WGHT      0.1658      2.8945

REM Instructions for potential hydrogen bonds
EQIV $2 x+1, y+1, z
HTAB C7 O1_$2

REM Highest difference peak  0.577,  deepest hole -0.511,  1-sigma level  0.142
Q1    1   0.8730  0.5526  0.6413  11.00000  0.05    0.58
Q2    1   0.6931  0.3378  1.0178  11.00000  0.05    0.50
Q3    1   0.9570  0.8850  0.6701  11.00000  0.05    0.47
Q4    1   1.2496  0.4954  0.8921  11.00000  0.05    0.46
Q5    1   0.7002  0.5929  0.6643  11.00000  0.05    0.46
Q6    1   0.9802  0.1683  0.8820  11.00000  0.05    0.43
Q7    1   0.8572  1.0035  0.7683  11.00000  0.05    0.43
Q8    1   1.4926  0.9842  0.5249  11.00000  0.05    0.42
Q9    1   0.4969  1.2609  0.6357  11.00000  0.05    0.41
Q10   1   0.5101  1.0403  0.6960  11.00000  0.05    0.41
Q11   1   0.3350  1.3044  0.6396  11.00000  0.05    0.40
Q12   1   1.2386  0.5323  0.8217  11.00000  0.05    0.40
Q13   1   0.3876  0.5464  0.8285  11.00000  0.05    0.39
Q14   1   0.7480  0.2614  0.9684  11.00000  0.05    0.39
Q15   1   0.3067  0.6488  0.7921  11.00000  0.05    0.37
Q16   1   1.4382  1.0895  0.5733  11.00000  0.05    0.37
Q17   1   0.7607  0.9658  0.8039  11.00000  0.05    0.37
Q18   1   0.2737  0.3043  0.8420  11.00000  0.05    0.37
Q19   1   1.1029  0.2389  0.3926  11.00000  0.05    0.37
Q20   1   0.9943  0.1897  1.0175  11.00000  0.05    0.37
Q21   1   0.8547  0.2751  0.7847  11.00000  0.05    0.37
Q22   1   1.0712  0.6530  0.5024  11.00000  0.05    0.35
Q23   1   1.2871  0.9365  0.7246  11.00000  0.05    0.34
Q24   1   1.1882  0.3720  0.8822  11.00000  0.05    0.34
Q25   1   0.6446  0.0667  1.0619  11.00000  0.05    0.34
;
_shelx_res_checksum              14469
_shelx_hkl_file
;
   0   0   2 3111.02   90.37
   0   0  -2 3064.26  105.85
   0   0   377364.16 3768.91
   0   0  -380042.01 3894.80
   0   0   4 5843.33  207.75
   0   0  -4 5699.89  186.26
   0   0   513015.77  474.32
   0   0  -512941.23  499.87
   0   0   6 1888.25   81.76
   0   0  -6 1895.52   83.36
   0   0   7 4744.40  210.66
   0   0  -7 4611.56  178.63
   0   0   8 4879.05  196.36
   0   0  -8 4910.71  234.31
   0   0   9  548.86   52.47
   0   0  -9  512.50   54.56
   0   0  10  371.45   50.38
   0   0 -10  302.01   52.63
   0   0  11 1012.88   82.17
   0   0 -11  939.36  129.68
   0   0  12   54.41   54.93
   0   0 -12   43.63   36.94
   0   0  13  136.78   48.57
   0   0 -13  132.06   51.04
   0   0  14  317.13   68.79
   0   0 -14  344.97   75.47
   0   0  15  136.38   74.24
   0   0 -15   -0.11   31.40
   0   0 -15  123.92   52.49
   0  -1   0   -1.80    6.01
   0   1   0   -2.20    6.62
   0  -1   147088.74 1980.15
   0   1   145547.05 1925.02
   0  -1  -145781.73 1925.39
   0  -1   268679.43 3251.83
   0  -1   270304.33 3213.35
   0   1   269753.63 3294.33
   0   1  -270777.55 3420.85
   0  -1  -270382.65 3354.40
   0   1  -271151.52 3304.75
   0   1   3124175.3 6765.84
   0  -1   3124800.3 6850.48
   0  -1  -3122886.4 6728.56
   0   1  -3115262.5 6319.67
   0   1  -3124776.3 6648.81
   0   1   423409.26  904.38
   0  -1   423905.34  924.86
   0   1  -423950.06  927.87
   0   1  -422646.14  844.82
   0  -1  -422572.41  872.57
   0  -1   5 5423.54  220.51
   0   1   5 5017.20  181.71
   0   1  -5 5324.76  180.52
   0   1  -5 5539.95  230.27
   0  -1  -5 5120.53  183.91
   0   1   6 8188.42  330.92
   0  -1   6 8429.36  314.63
   0  -1  -6 8250.95  303.87
   0   1  -6 8372.35  279.53
   0   1  -6 8552.88  320.11
   0  -1   7 3254.40  132.10
   0   1   7 3156.03  126.98
   0  -1  -7 3109.69  127.11
   0   1  -7 3275.15  110.93
   0   1  -7 3350.48  137.59
   0   1   8 2026.20   95.24
   0  -1   8 2162.04  102.62
   0   1  -8 2144.70  104.68
   0  -1  -8 1990.76   97.12
   0   1  -8 2122.34   79.43
   0  -1   9 1313.94  115.42
   0   1   9 1280.26  113.31
   0   1  -9 1301.74   60.88
   0   1  -9 1276.66   84.91
   0  -1  -9 1278.41   82.08
   0  -1  10 1561.18   97.84
   0   1  10 1416.49  134.01
   0  -1 -10 1476.13  138.45
   0   1 -10 1478.15   71.16
   0   1 -10 1495.62  102.59
   0   1  11  725.64   71.53
   0  -1  11  795.69  110.68
   0   1 -11  714.00   49.04
   0  -1 -11  717.08   74.29
   0   1 -11  694.74  115.78
   0  -1  12  870.26   83.02
   0   1  12  810.69   84.58
   0   1 -12  926.24   83.21
   0   1 -12  929.43   90.24
   0  -1 -12  891.82  130.25
   0   1  13  342.31   66.32
   0  -1  13  421.09  102.46
   0   1 -13  339.84   70.58
   0  -1 -13  399.55   70.25
   0   1 -13  360.30   42.49
   0   1  14 1015.60  155.08
   0  -1  14  972.51  103.40
   0  -1 -14  886.73  166.05
   0   1 -14  929.75  107.67
   0   1 -14  925.55   69.85
   0  -1  15 1030.18  169.58
   0   1  15  890.59  116.59
   0  -1 -15 1074.82  127.72
   0   1 -15  970.70  108.44
   0  -2   0 5567.71  174.19
   0   2   0 5548.52  178.21
   0  -2   1 1293.95   58.42
   0   2   1 1282.34   64.39
   0  -2  -1 1250.10   44.51
   0  -2   219885.62  776.23
   0   2   219772.81  746.89
   0  -2   219955.27  712.48
   0  -2  -219700.41  734.44
   0  -2   3  717.70   36.61
   0   2   3  680.18   38.43
   0  -2   3  696.04   39.74
   0  -2  -3  675.31   36.56
   0   2  -3  669.56   42.19
   0  -2   4 1228.73   51.38
   0  -2   4 1232.46   58.97
   0   2   4 1155.20   57.01
   0   2  -4 1186.81   44.10
   0   2  -4 1250.02   96.71
   0  -2  -4 1303.12   77.46
   0   2   5 7454.69  279.88
   0  -2   5 7778.00  285.73
   0   2  -5 7753.43  271.90
   0  -2  -5 7479.81  275.60
   0   2  -5 8024.29  338.96
   0   2   6 4199.08  165.59
   0  -2   6 4483.45  173.46
   0   2  -6 4533.33  183.79
   0   2  -6 4392.25  161.23
   0  -2  -6 4326.67  167.59
   0   2   7 2637.08  118.94
   0  -2   7 2901.58  124.84
   0   2  -7 2761.11  129.86
   0   2  -7 2814.71  115.24
   0  -2  -7 2863.81  122.20
   0  -2   8 2400.00  117.80
   0   2   8 2196.11  113.19
   0   2  -8 2445.25  125.71
   0   2  -8 2395.47   90.62
   0  -2  -8 2264.65  148.35
   0   2   9  369.72   79.25
   0  -2   9  362.92   49.66
   0  -2  -9  323.93   51.50
   0   2  -9  364.16   48.96
   0   2  -9  398.88   57.06
   0   2  10 1177.22  129.65
   0  -2  10 1174.09  129.37
   0   2 -10 1227.00  145.77
   0   2 -10 1219.22   82.49
   0  -2 -10 1179.75   90.82
   0   2  11 1407.38  149.42
   0  -2  11 1449.63  103.91
   0  -2 -11 1469.96  155.59
   0   2 -11 1542.76  165.55
   0   2 -11 1426.23   96.16
   0   2  12 1293.27  109.81
   0  -2  12 1374.92  109.76
   0   2 -12 1359.55   98.48
   0  -2 -12 1306.07  110.46
   0   2 -12 1406.80  169.85
   0   2  13  831.73   93.11
   0  -2  13  844.47   92.28
   0  -2 -13  847.23   98.36
   0   2 -13  822.86   82.77
   0   2 -13  911.58  100.54
   0  -2  14 1419.45  128.95
   0   2  14 1416.44  130.37
   0   2 -14 1472.61  118.80
   0  -2 -14 1549.63  138.76
   0   2 -14 1425.57  137.60
   0   2  15 1451.19  145.75
   0  -2  15 1599.16  202.68
   0   2 -15 1488.65   95.76
   0  -2 -15 1708.31  160.16
   0   2 -15 1475.15  152.16
   0   3   0    2.16    9.71
   0  -3   0    3.57    8.78
   0   3   1 4653.71  195.38
   0  -3   1 4725.52  188.03
   0  -3  -1 4460.55  157.72
   0  -3   211216.26  411.67
   0   3   210409.07  422.82
   0  -3   210368.95  404.28
   0  -3  -2 9952.52  366.40
   0  -3   3 2598.39   86.83
   0   3   3 2597.32  107.85
   0  -3   3 2625.62  134.44
   0  -3  -3 2609.19  102.09
   0   3   412879.65  506.15
   0  -3   413225.37  542.08
   0  -3   412881.45  450.18
   0  -3  -413051.37  502.44
   0  -3   5  138.97   24.99
   0   3   5  118.62   27.24
   0  -3   5  145.83   14.01
   0  -3  -5  150.24   40.95
   0  -3   6 4038.26  203.56
   0   3   6 3951.38  169.58
   0  -3   6 4004.05  131.20
   0  -3  -6 4071.71  200.12
   0   3  -6 3836.47  137.20
   0   3   7 3519.32  164.20
   0  -3   7 3681.02  204.24
   0  -3  -7 3949.46  212.93
   0   3  -7 4009.72  189.81
   0   3  -7 3596.95  132.79
   0   3   8 7749.66  346.09
   0  -3   8 8144.05  400.78
   0  -3  -8 8308.94  409.57
   0   3  -8 8529.96  448.19
   0   3  -8 7983.93  298.39
   0   3   9  714.19   74.25
   0  -3   9  752.72  105.90
   0  -3  -9  853.95   76.18
   0   3  -9  633.26   62.80
   0   3  -9  638.61   80.61
   0  -3  10 8261.74  383.48
   0   3  10 8659.92  462.47
   0   3 -10 8581.12  411.62
   0   3 -10 8133.90  318.25
   0  -3 -10 8239.28  386.11
   0   3  11 2505.49  212.09
   0  -3  11 2622.90  151.98
   0   3 -11 2676.16  170.16
   0   3 -11 2541.31  111.25
   0  -3  12  393.79   61.09
   0   3  12  359.87  105.26
   0   3 -12  315.39   56.67
   0   3 -12  372.51  113.85
   0  -3 -12  377.24   67.90
   0   3  13   75.26   62.26
   0  -3  13   -0.87   56.19
   0   3 -13   55.23   66.07
   0   3 -13  -19.97   31.54
   0  -3 -13   80.06   39.99
   0   3  14  157.52   85.86
   0  -3  14   -1.51   50.02
   0   3 -14   26.69   43.96
   0   3 -14  187.71   58.64
   0  -3 -14  186.29   93.48
   0  -4   0  612.37   39.84
   0   4   1 4941.05  196.60
   0  -4   1 4903.58  188.03
   0  -4  -1 4877.10  210.51
   0  -4   2  212.50   39.60
   0   4   2  185.22   49.03
   0  -4   2  201.31   42.77
   0  -4  -2  176.79   26.67
   0   4   3 7982.44  327.59
   0  -4   3 7949.52  314.94
   0  -4   3 7983.74  325.58
   0  -4   3 7980.61  314.40
   0  -4  -3 7698.05  305.05
   0   4   411678.37  495.06
   0  -4   412091.27  473.19
   0  -4   411876.64  490.45
   0  -4   411900.91  484.13
   0  -4  -411752.30  525.41
   0  -4   5 2295.80  103.47
   0  -4   5 2435.80  119.90
   0   4   5 2329.03  123.53
   0  -4  -5 2488.60  122.07
   0   4   6 2533.03  134.15
   0  -4   6 2483.60  161.77
   0  -4   6 2447.04  105.61
   0  -4  -6 2678.51  131.70
   0   4   7 2488.69  179.94
   0  -4   7 2347.58   85.51
   0  -4   7 2316.47  159.26
   0  -4  -7 2523.95  132.33
   0   4   8 1007.03   84.76
   0  -4   8  991.21  107.70
   0  -4  -8 1086.08   85.73
   0   4   9  771.59   80.63
   0  -4   9  847.26  107.45
   0  -4  -9  888.75  120.53
   0   4  -9  812.23   49.20
   0  -4  10  360.85   88.35
   0   4  10  384.94   99.87
   0  -4 -10  422.54   66.86
   0   4 -10  344.61   53.70
   0   4  11  956.23  102.89
   0  -4  11 1009.86   89.92
   0   4 -11  925.11   56.15
   0  -4 -11 1008.42   96.38
   0  -4  12   -2.09   47.36
   0   4  12  139.82   55.22
   0   4 -12  143.18   26.28
   0  -4 -12  150.02   82.15
   0   4  13    5.33   34.37
   0  -4  13    0.91   28.71
   0   4 -13    5.55   36.81
   0  -4 -13   19.42   31.24
   0  -5   0    2.90   13.21
   0  -5   1 3490.83  185.47
   0   5   1 3354.77  159.17
   0  -5   1 3793.99  167.54
   0  -5  -1 3457.17  155.54
   0  -5   2 1601.76  110.72
   0  -5   2 1524.67   84.13
   0  -5   2 1529.67  100.25
   0   5   2 1511.30   94.35
   0  -5  -2 1553.39   86.06
   0  -5   3   16.01   24.47
   0   5   3   29.98   24.51
   0  -5   3   19.78   20.00
   0  -5   3   26.48   26.54
   0  -5  -3   14.58   34.31
   0  -5   4 1419.97   66.75
   0   5   4 1449.47   94.48
   0  -5   4 1384.54   81.47
   0  -5   4 1505.42  131.16
   0  -5  -4 1526.60  120.84
   0  -5   5 2113.50  112.28
   0  -5   5 2153.50   86.63
   0  -5   5 2175.59  117.79
   0   5   5 2168.61  129.19
   0  -5  -5 2386.81  163.03
   0  -5   6  213.33   39.84
   0   5   6  198.34   46.94
   0  -5   6  161.19   40.11
   0  -5   6  190.58   32.49
   0  -5  -6  219.35   69.37
   0   5   7 1622.05  160.07
   0  -5   7 1626.12  101.14
   0  -5   7 1607.76   82.26
   0  -5   7 1617.38  102.85
   0  -5  -7 1772.95  156.34
   0  -5   8  376.92   53.14
   0   5   8  341.88   63.00
   0  -5  -8  393.28   60.29
   0  -5   9  458.73   59.87
   0  -5  -9  502.95   72.15
   0   5  10  286.88   67.14
   0  -5  10  241.65   52.11
   0  -5 -10  323.92   67.07
   0  -5  11    0.42   27.30
   0   5  11   21.58   34.07
   0  -5 -11   13.42   53.61
   0  -6   0 2654.19  137.39
   0  -6   0 2849.14  151.16
   0  -6   1 1100.26   77.75
   0  -6   1 1078.93   73.51
   0  -6  -1 1098.33   75.84
   0  -6   2  626.33   84.45
   0  -6   2  699.65   72.69
   0  -6   2  665.34   54.94
   0  -6  -2  693.85   61.80
   0  -6   3   88.09   47.73
   0  -6   3   93.95   58.05
   0   6   3   83.45   60.04
   0  -6   3   85.50   39.83
   0  -6  -3   91.10   33.55
   0  -6   4  968.58  103.20
   0  -6   4 1001.69   59.56
   0   6   4 1078.35  127.72
   0  -6   4  984.66  117.69
   0  -6  -4 1060.77   84.67
   0   6   5   74.61   60.18
   0  -6   5   67.00   29.69
   0  -6   5   52.09   19.02
   0  -6   5   57.61   32.54
   0  -6  -5   82.25   34.01
   0   6   6  211.31   54.31
   0  -6   6  228.95   46.26
   0  -6   6  209.26   42.42
   0  -6   6  208.05   38.40
   0  -6  -6  227.85   78.42
   0   6   7  626.24   84.11
   0  -6   7  622.23   68.31
   0  -6   7  656.86   69.94
   0  -6   7  584.58   37.99
   0  -6  -7  762.80  119.70
   0  -6   8 1316.21  103.15
   0   6   8 1310.39  124.58
   0  -6   8 1318.55  146.85
   0  -6  -8 1475.28  122.36
   0   6   9  220.45   64.93
   0  -6   9  135.76   49.93
   0  -6   9  211.24   51.73
   0  -6  -9  231.50   64.73
   0  -7   0    1.32   15.68
   0  -7   1  223.93   44.03
   0  -7   1  213.97   55.74
   0  -7  -1  226.89   47.19
   0  -7   2  242.60   55.89
   0  -7   2  268.72   45.53
   0  -7  -2  244.70   79.39
   0  -7   3  530.44   61.39
   0  -7   3  589.25   73.85
   0  -7  -3  684.20  104.92
   0  -7   4  919.58  114.28
   0  -7   4  941.04   91.71
   0   7   4  904.67   94.91
   0  -7  -4 1040.73  134.14
   0  -7   5  172.44   44.95
   0   7   5  130.19   51.66
   0  -7   5    2.33   62.64
   0  -7  -5  148.91   49.88
   1   0 -15    0.03   17.04
   1   0 -15   18.82   41.88
  -1   0  15   -3.01   22.52
   1   0 -14   74.34   42.27
   1   0 -14    0.02   29.43
  -1   0  14   66.77   38.29
   1   0 -13  256.64   77.08
   1   0 -13   -4.32   32.85
  -1   0  13  242.83   44.54
   1   0 -12 1916.70  126.36
  -1   0  12 1914.80  166.96
   1   0 -11 1449.83   98.90
  -1   0  11 1380.93   93.33
   1   0 -10  899.90   72.50
  -1   0  10  842.65   68.64
   1   0  -9 1263.51   78.19
  -1   0   9 1177.96   73.14
   1   0  -8 4583.03  180.92
  -1   0   8 4152.67  197.60
   1   0  -7 5883.66  221.25
  -1   0   7 5707.88  213.86
   1   0  -6 2205.81   87.26
  -1   0   6 1995.47   82.09
   1   0  -527192.53 1119.58
  -1   0   526038.37 1044.63
   1   0  -411006.28  371.44
  -1   0   410785.65  380.83
   1   0  -3 6008.67  203.98
  -1   0   3 5976.69  184.77
   1   0  -251119.53 2236.56
  -1   0   251477.04 2252.19
   1   0   256929.97 2620.25
  -1   0  -258088.42 2619.98
   1   0   3 2274.99   80.70
  -1   0  -3 2163.10   79.73
   1   0   4 7175.55  240.89
  -1   0  -4 6844.34  232.74
   1   0   515272.59  570.30
  -1   0  -514433.73  581.83
   1   0   6 5941.57  219.61
  -1   0  -6 5852.46  254.29
   1   0   7 5228.22  202.28
  -1   0  -7 4984.90  198.89
   1   0   815358.80  632.70
  -1   0  -815479.94  638.72
   1   0   9 3673.11  168.75
  -1   0  -9 3459.32  167.47
   1   0  10 1093.89   81.45
  -1   0 -10 1069.77   85.77
   1   0  11 4509.97  225.91
  -1   0 -11 4714.61  289.34
   1   0  12  703.44  113.53
  -1   0 -12  576.49   77.68
   1   0  13  256.38   59.44
  -1   0 -13  264.47   65.54
   1   0  14    0.79   49.64
  -1   0 -14   15.81   53.34
   1   0  15    3.21   27.17
  -1   0 -15    0.28   29.71
   1   1 -15  873.53   78.21
   1   1 -15  862.84  111.62
   1  -1 -15  897.84  119.32
  -1  -1  15  838.93  103.96
  -1   1  15  829.71  163.07
   1   1 -14  423.30   52.83
   1   1 -14  379.14  118.63
   1  -1 -14  443.01   82.35
  -1  -1  14  382.90   68.60
  -1   1  14  391.78   73.83
   1   1 -13 3257.06  192.20
   1  -1 -13 3251.20  196.46
   1   1 -13 3113.82  185.90
  -1   1  13 3096.05  186.10
  -1  -1  13 3130.24  234.66
   1   1 -12 1511.85  112.41
   1   1 -12 1543.10   86.49
   1  -1 -12 1477.74  114.01
  -1   1  12 1519.09  110.01
  -1  -1  12 1457.68  104.94
   1  -1 -11  674.78   70.17
   1   1 -11  566.02   49.07
   1   1 -11  586.36   68.11
  -1   1  11  554.87   64.68
  -1  -1  11  586.42   94.11
   1  -1 -10 1371.75  128.18
   1   1 -10 1316.91   70.92
   1   1 -10 1299.39  125.93
  -1  -1  10 1289.02   84.67
  -1   1  10 1230.30   86.76
   1   1  -9  258.78   41.55
   1  -1  -9  305.01   42.53
   1   1  -9  258.28   30.58
  -1   1   9  259.52   63.88
  -1  -1   9  233.15   37.67
   1   1  -8  634.60   40.09
   1  -1  -8  672.34   51.49
   1   1  -8  659.98   51.22
  -1   1   8  613.13   50.56
  -1  -1   8  699.21   49.10
   1   1  -7 1741.76   70.82
   1  -1  -7 1920.79   86.48
   1   1  -7 1909.62   85.17
  -1   1   7 1752.29   83.45
  -1  -1   7 2026.56   84.71
   1  -1  -6 9455.94  377.69
   1   1  -6 9458.75  351.28
   1   1  -6 9299.10  342.87
  -1   1   6 9066.66  339.40
  -1  -1   6 9220.52  337.18
   1   1  -520245.89  784.19
   1   1  -521105.42  788.20
   1  -1  -519318.88  758.40
  -1   1   520171.67  823.92
  -1  -1   519785.47  760.27
   1   1  -453604.55 2434.60
   1  -1  -453794.25 2467.06
   1   1  -455906.17 2508.28
  -1  -1   451947.77 2356.38
  -1   1   456797.09 2597.99
   1  -1  -396289.89 4950.41
   1   1  -396952.58 4922.53
   1   1  -392030.45 4683.68
  -1  -1   389447.61 4548.30
  -1  -1   3101245.7 5113.00
  -1   1   395058.13 4901.51
   1   1  -2101887.7 5236.75
   1  -1  -2109362.8 5732.01
   1   1  -2104151.5 5432.08
  -1  -1   2104529.1 5383.01
  -1  -1   295147.29 4886.51
  -1   1   2108752.4 5675.55
   1   1  -118802.67  685.03
   1  -1  -117556.14  646.72
  -1   1   118000.25  668.50
  -1  -1   118544.76  625.32
  -1  -1   118923.17  680.71
   1  -1   045383.67 1976.79
   1   1   047436.62 1923.26
  -1  -1   048078.26 1949.61
  -1   1   047579.99 2073.16
   1   1   143942.66 1796.54
  -1  -1  -140748.64 1667.25
   1  -1   225608.59 1037.96
   1   1   231416.88 1179.09
  -1   1  -228873.95 1006.89
  -1   1  -224505.37 1003.02
  -1  -1  -232819.16 1226.34
   1   1   340353.25 1663.55
   1  -1   339297.70 1697.26
  -1   1  -335716.07 1538.13
  -1   1  -336492.66 1418.59
  -1  -1  -341598.90 1707.05
   1   1   416133.72  579.32
   1  -1   416464.81  611.40
  -1   1  -413314.98  519.51
  -1  -1  -416807.10  621.33
   1   1   512358.13  454.12
   1  -1   512986.47  487.74
  -1   1  -512382.82  476.81
  -1  -1  -512145.88  446.98
   1  -1   6 7039.03  265.31
   1   1   6 6726.81  246.48
  -1  -1  -6 6502.76  242.70
  -1   1  -6 6668.40  261.26
   1   1   7 4917.31  193.06
   1  -1   7 5369.37  212.52
  -1  -1  -7 5064.58  198.11
  -1   1  -7 5410.65  252.65
   1   1   8 1505.12   80.94
   1  -1   8 1640.18  120.33
  -1  -1  -8 1514.51   82.56
  -1   1  -8 1625.14   91.23
   1   1   9  369.40   71.09
   1  -1   9  345.34   50.27
  -1   1  -9  351.30   52.50
  -1  -1  -9  326.28   46.80
   1   1  10 1681.62  145.03
   1  -1  10 1734.11  109.34
  -1   1 -10 1722.65  114.45
  -1  -1 -10 1744.49  150.54
   1   1  11 1728.25  113.10
   1  -1  11 1805.45  163.83
  -1   1 -11 1847.49  121.23
  -1  -1 -11 1740.34  114.45
  -1   1 -11 1472.04   72.65
   1   1  12  643.88   75.06
   1  -1  12  729.18   81.45
  -1  -1 -12  600.92  119.31
  -1   1 -12  605.86   45.34
   1   1  13 2938.89  227.98
   1  -1  13 2733.92  174.57
  -1  -1 -13 2708.17  175.63
  -1   1 -13 2620.14  178.64
  -1   1 -13 2687.79  122.12
   1  -1  14  593.48   89.46
   1   1  14  547.72   87.23
  -1  -1 -14  530.88   91.79
  -1   1 -14  620.77   73.10
  -1   1 -14  599.06   94.97
   1   1  15  475.42   87.96
   1  -1  15  478.36   91.14
  -1   1 -15  474.32   48.86
  -1  -1 -15  491.20  152.76
  -1   1 -15  373.26   96.12
   1   2 -15  250.52  103.75
   1  -2 -15  255.09   75.53
  -1   2  15  256.82   69.01
  -1  -2  15   -3.69   60.81
   1   2 -14  127.89   77.92
   1   2 -14  102.20   33.15
   1  -2 -14  140.41   89.97
  -1  -2  14   -2.57   45.62
  -1   2  14  118.23   52.69
   1  -2 -13 1585.76  131.87
   1   2 -13 1531.82  123.53
   1   2 -13 1651.87   96.32
  -1  -2  13 1577.92  116.44
  -1   2  13 1506.83  184.77
   1   2 -12 1799.23  126.30
   1  -2 -12 1809.54  183.52
   1   2 -12 1900.71  101.61
  -1   2  12 1981.99  186.71
  -1  -2  12 1802.96  120.14
   1   2 -11 1645.42  112.30
   1  -2 -11 1592.27  114.26
   1   2 -11 1645.90   88.22
  -1  -2  11 1643.93  106.74
  -1   2  11 1581.69  160.88
   1   2 -10 9178.68  370.92
   1   2 -10 9041.72  405.17
   1  -2 -10 8667.16  394.10
  -1  -2  10 8679.83  382.23
  -1   2  10 9502.12  479.90
   1   2  -911998.63  475.00
   1  -2  -911341.87  492.82
   1   2  -912164.43  520.92
  -1  -2   911430.17  486.98
  -1   2   911442.70  501.94
   1   2  -8 8229.25  309.22
   1   2  -8 8527.46  348.44
   1  -2  -8 7788.65  372.56
  -1   2   8 8228.99  345.59
  -1  -2   8 7930.77  358.41
   1  -2  -713245.15  574.35
   1   2  -713565.85  511.41
   1   2  -713266.58  528.51
  -1   2   713118.72  537.81
  -1  -2   712509.06  531.63
   1   2  -625393.08 1059.21
   1   2  -625910.37 1078.14
   1  -2  -624060.90 1059.11
  -1  -2   624469.84 1014.45
  -1   2   623854.39 1019.01
   1   2  -537622.41 1677.42
   1   2  -536540.07 1602.51
   1  -2  -534853.56 1545.17
  -1  -2   537871.18 1626.51
  -1  -2   535709.66 1581.81
  -1   2   536817.26 1679.70
   1   2  -4 3138.73  111.24
   1  -2  -4 3118.20  119.05
   1   2  -4 3056.74  138.82
  -1   2   4 2988.55  121.79
  -1  -2   4 3185.41  124.04
  -1  -2   4 3281.50  111.97
   1   2  -3 9470.80  341.49
   1   2  -310652.87  399.93
   1  -2  -311200.18  402.76
  -1  -2   311534.52  406.98
  -1  -2   311155.53  380.26
  -1   2   311461.87  419.59
   1  -2  -221287.38  813.82
  -1  -2   219987.03  768.74
  -1   2   222145.29  883.24
  -1  -2   219399.58  728.03
   1  -2  -131285.56 1305.73
  -1   2   130766.37 1266.93
  -1  -2   130214.40 1218.68
  -1  -2   131247.38 1224.72
   1   2   010829.55  360.74
   1  -2   010607.03  372.48
  -1  -2   010995.42  347.70
  -1   2   010458.84  370.44
   1   2   121077.75  772.41
   1  -2   121095.82  812.53
  -1  -2  -121816.17  787.24
   1  -2   2 8540.34  249.93
   1   2   2 8011.93  263.06
   1  -2   2 7703.84  289.35
  -1  -2  -2 8728.15  292.33
   1   2   3 2805.59  114.59
   1  -2   3 2998.90   82.63
   1  -2   3 2381.37  108.83
  -1  -2  -3 3033.60   99.04
   1   2   4 6204.11  219.07
   1  -2   4 6379.46  241.95
  -1   2  -4 6637.45  203.25
  -1  -2  -4 6180.20  236.51
   1   2   5 9916.15  393.30
   1  -2   510119.11  427.42
  -1   2  -510321.01  326.49
  -1   2  -5 8740.95  406.32
  -1  -2  -511406.21  406.71
   1   2   6 9263.83  355.82
   1  -2   6 9952.71  388.93
  -1   2  -6 9742.13  329.18
  -1  -2  -611210.84  435.66
  -1   2  -6 8915.13  372.76
   1  -2   7 4701.43  193.19
   1   2   7 4159.25  170.24
  -1   2  -7 3820.22  183.36
  -1  -2  -7 4583.39  179.36
  -1   2  -7 4329.97  136.39
   1  -2   8 2848.24  135.27
   1   2   8 2312.60  115.68
  -1   2  -8 2220.12  135.13
  -1   2  -8 2501.10  101.15
  -1  -2  -8 2776.84  126.60
   1   2   9 4769.39  263.84
   1  -2   9 5511.44  247.25
  -1  -2  -9 5717.05  291.13
  -1   2  -9 4481.22  293.08
  -1   2  -9 4928.81  172.28
   1   2  10 5915.28  274.72
   1  -2  10 6922.23  373.61
  -1  -2 -10 6262.66  286.77
  -1   2 -10 6180.73  303.16
  -1   2 -10 6249.82  226.43
   1   2  11 1801.71  121.09
   1  -2  11 1862.84  125.58
  -1  -2 -11 1819.82  121.75
  -1   2 -11 1856.42  135.37
  -1   2 -11 1904.64   79.61
   1  -2  12 1085.56   99.34
   1   2  12  973.97   92.70
  -1   2 -12  989.11  105.94
  -1  -2 -12 1033.83   96.42
  -1   2 -12 1004.44   55.02
   1   2  13  366.43   69.20
   1  -2  13  489.86  117.29
  -1   2 -13  307.50   79.36
  -1   2 -13  379.48   37.11
  -1  -2 -13  433.53   75.61
   1  -2  14  129.23   57.57
   1   2  14  109.76   55.43
  -1  -2 -14  123.33   60.64
  -1   2 -14  115.19   41.36
  -1   2 -14  122.43  100.33
   1  -2  15  100.10   59.01
   1  -3 -14  525.61  101.51
   1   3 -14  517.46   85.68
   1   3 -14  538.33   90.07
  -1   3  14  495.33   95.33
  -1  -3  14  525.49   77.41
   1  -3 -13  208.50   57.91
   1   3 -13  226.33   56.52
   1   3 -13  -50.89   54.42
  -1  -3  13    0.71   75.37
  -1   3  13  234.47   58.19
   1   3 -12   60.45   38.60
   1  -3 -12   36.67   63.97
   1   3 -12   45.02   38.81
  -1   3  12   39.70   41.13
  -1  -3  12   31.10   32.61
   1   3 -11  476.14   46.04
   1   3 -11  545.28   70.45
  -1   3  11  527.83   73.30
  -1  -3  11  486.39   60.36
   1  -3 -10 2723.25  160.34
   1   3 -10 2680.63  123.46
   1   3 -10 2972.56  211.41
  -1   3  10 2601.24  158.93
  -1  -3  10 2718.58  183.09
   1  -3  -9 2094.36  126.33
   1   3  -9 1616.56  159.11
   1   3  -9 1693.80  117.51
  -1   3   9 1655.46  173.36
  -1  -3   9 2065.60  108.15
   1   3  -819715.92  874.32
   1  -3  -818233.60  818.34
   1   3  -818675.86  780.87
  -1  -3   818419.34  805.05
  -1   3   818666.29  852.71
   1  -3  -7 1142.59  117.16
   1   3  -7 1130.46   86.72
   1   3  -7 1303.13  114.77
  -1   3   7 1138.05   84.31
  -1  -3   7 1148.56   67.90
   1   3  -6  843.92   58.52
   1  -3  -6  806.49   59.01
   1   3  -6  751.03   65.80
  -1  -3   6  784.49   39.69
  -1  -3   6  833.14   48.82
  -1   3   6  781.56   61.39
   1   3  -5  214.26   38.44
   1  -3  -5  222.30   32.23
  -1   3   5  215.84   35.23
  -1  -3   5  232.94   32.91
  -1  -3   5  254.75   39.57
   1  -3  -4  386.53   36.32
  -1  -3   4  434.36   40.84
  -1   3   4  328.69   39.52
  -1  -3   4  406.86   28.01
   1  -3  -3 4917.93  188.63
  -1   3   3 5322.46  208.31
  -1  -3   3 5267.81  177.44
  -1  -3   3 5149.29  198.48
  -1  -3   3 5342.23  183.44
   1  -3  -2 8906.00  335.48
  -1  -3   2 9544.70  328.06
  -1   3   2 9381.68  361.77
  -1  -3   2 9575.13  358.19
  -1  -3   2 9072.37  325.85
   1  -3  -1 3835.37  146.75
  -1   3   1 3863.82  155.21
  -1  -3   1 3968.94  146.15
  -1  -3   1 4601.27  165.23
   1  -3   012338.48  467.25
   1   3   012284.51  437.47
  -1  -3   012754.29  463.79
  -1   3   012137.77  465.58
   1  -3   114292.25  549.26
   1   3   114410.61  529.69
  -1  -3  -114282.10  514.15
   1  -3   2 5386.76  184.16
   1   3   2 5235.82  185.10
   1  -3   2 5130.60  195.38
  -1  -3  -2 5306.24  178.97
   1  -3   3 1294.50   75.39
   1  -3   3 1477.91   45.82
   1  -3   3 1255.13   66.56
   1   3   3 1334.56   60.59
  -1  -3  -3 1580.32   78.15
   1   3   4 1702.91   93.73
   1  -3   4 1632.38   56.14
   1  -3   4 1794.26  122.02
  -1  -3  -4 1618.16   69.34
   1  -3   5  707.95   30.95
   1  -3   5  658.60   54.74
   1   3   5  692.85   45.92
  -1  -3  -5  669.83   43.32
   1   3   6  798.52   53.88
   1  -3   6  799.90   62.38
  -1  -3  -6  779.22   51.90
   1   3   7  601.27   81.81
   1  -3   7  735.57   97.00
  -1  -3  -7  653.96   54.28
  -1   3  -7  621.43   30.07
   1   3   8 7276.40  322.39
   1  -3   8 8218.32  412.76
  -1   3  -8 7465.27  259.67
  -1  -3  -8 8512.24  351.39
  -1   3  -8 7397.07  362.47
   1  -3   9 6053.27  342.02
   1   3   9 5930.79  276.63
  -1  -3  -9 5710.66  266.52
  -1   3  -9 6276.91  219.14
  -1   3  -9 6877.58  335.79
   1  -3  10  939.18  124.94
   1   3  10  726.36   77.19
  -1   3 -10  729.62   55.83
  -1   3 -10  625.07  141.27
  -1  -3 -10  939.18   80.31
   1  -3  11  568.76   73.17
   1   3  11  566.84   70.50
  -1   3 -11  515.44   34.97
  -1   3 -11  497.19   85.14
   1  -3  12   39.94   35.08
   1   3  12   38.47   34.64
  -1   3 -12   38.10   42.16
  -1   3 -12   23.19   15.43
  -1  -3 -12   24.38   35.67
   1  -3  13  101.34   70.38
   1   3  13   91.48   43.68
  -1   3 -13   35.99   19.41
  -1  -3 -13   69.64   45.62
  -1   3 -13   58.56   52.69
   1  -3  14  609.88   96.14
   1   3  14  602.79   96.58
  -1  -3 -14  691.81  101.78
  -1   3 -14  606.37  111.13
   1  -4 -13  151.02   89.81
   1   4 -13  151.99   56.18
   1   4 -13  134.68   49.76
  -1   4  13  178.87   96.93
  -1  -4  13    1.46   44.79
   1   4 -12  165.30   53.25
   1   4 -12  139.45   48.69
   1  -4 -12  154.13   55.11
  -1  -4  12    1.95   41.69
  -1   4  12  155.77   58.50
   1  -4 -11  171.59   55.67
   1   4 -11  151.22   31.02
   1   4 -11    6.76   47.84
  -1   4  11  113.38   53.89
  -1  -4  11  113.25   40.10
   1   4 -10  239.84   35.43
   1  -4 -10  277.69   93.49
  -1  -4  10  337.12   67.33
  -1   4  10  162.62   59.66
   1   4  -9 1436.21  102.26
   1  -4  -9 1626.81  164.60
  -1   4   9 1574.25  115.56
  -1  -4   9 1534.56   94.14
   1   4  -8  157.77   28.80
   1  -4  -8  199.60   45.95
  -1   4   8  128.66   47.55
  -1  -4   8  151.85   33.92
   1  -4  -7 1255.95   90.78
  -1   4   7 1115.34   92.65
  -1  -4   7 1200.72   71.48
  -1  -4   7 1200.54   76.18
   1  -4  -6  739.96   66.49
  -1   4   6  637.32   69.14
  -1  -4   6  690.29   72.42
  -1  -4   6  689.43   40.83
   1  -4  -5 2875.62  140.40
  -1  -4   5 2878.26  112.53
  -1   4   5 2313.55  180.06
  -1  -4   5 2851.10  148.63
   1  -4  -4 1047.94   98.80
  -1   4   4 1046.87  113.08
  -1  -4   4  982.59   55.04
  -1  -4   4  997.49   56.38
  -1  -4   4 1105.33   76.31
   1  -4  -3  289.09   37.04
  -1  -4   3  265.04   41.83
  -1  -4   3  319.20   32.37
  -1   4   3  262.08   66.65
  -1  -4   3  301.26   30.30
   1  -4  -2  627.72   48.45
  -1  -4   2  623.26   44.15
  -1   4   2  622.29   54.77
  -1  -4   2  668.06   44.55
  -1  -4   2  608.03   36.90
   1  -4  -1 1118.31   90.33
  -1  -4   1 1138.88   51.22
  -1  -4   1 1187.07   94.76
  -1   4   1 1131.65   70.46
   1  -4   0 1638.62   81.07
  -1  -4   0 1662.09   66.89
   1   4   1  584.19   39.63
   1  -4   1  596.59   68.41
  -1  -4  -1  571.33   34.25
   1  -4   2 2332.66  103.57
   1   4   2 2268.19   97.52
   1  -4   2 2254.94  104.88
  -1  -4  -2 2276.94  111.58
   1   4   3 1149.43   89.92
   1  -4   3 1150.97   47.78
   1  -4   3 1178.70  120.48
   1  -4   3 1139.42   70.08
  -1  -4  -3 1075.14   57.43
   1  -4   4 2479.81   98.21
   1  -4   4 2673.12  138.57
   1  -4   4 2600.57  125.63
   1   4   4 2401.29  115.21
  -1  -4  -4 2494.47  110.55
   1   4   511565.01  485.23
   1  -4   511465.31  417.22
   1  -4   512016.85  522.36
  -1  -4  -511384.69  470.32
   1  -4   6 1503.16  140.29
   1   4   6 1608.23  126.55
   1  -4   6 1563.63   52.58
  -1  -4  -6 1601.05   89.96
   1  -4   7 2071.20  125.49
   1   4   7 2106.64  117.11
  -1  -4  -7 2172.92  116.10
   1  -4   8  236.59   47.10
   1   4   8  216.05   69.45
  -1  -4  -8  215.15   44.54
   1  -4   9  831.00   79.57
   1   4   9  808.51   77.20
  -1  -4  -9  954.19  119.35
   1   4  10  960.24   89.58
   1  -4  10 1019.45  133.88
  -1  -4 -10  916.96   83.82
   1  -4  11  355.19  103.82
   1   4  11  407.85  105.27
  -1  -4 -11  390.63   63.95
   1   4  12   44.78   59.33
   1  -4  12    0.04   37.69
  -1  -4 -12   60.59   55.58
   1   4  13   53.43   69.66
   1  -4  13    1.57   44.42
  -1  -4 -13   68.71   41.64
   1  -5 -11  575.38   95.73
  -1  -5  11  454.99   63.49
  -1   5  11  463.95  143.35
   1  -5 -10  547.99   86.43
  -1  -5  10  483.99   61.87
  -1   5  10  504.02   87.58
   1  -5  -9   85.26   45.08
  -1   5   9   82.05   46.57
  -1  -5   9   59.59   29.64
   1  -5  -8  355.23  100.17
  -1  -5   8  346.30   31.19
  -1  -5   8  325.89   43.58
  -1   5   8  370.09  102.89
   1  -5  -7  520.83  102.01
  -1  -5   7  456.95   46.94
  -1  -5   7  374.51   45.30
  -1  -5   7  452.95   34.21
  -1   5   7  353.14   68.42
   1  -5  -6 3534.42  185.71
  -1  -5   6 3336.42  137.03
  -1  -5   6 3577.67  159.19
  -1   5   6 3472.41  249.44
  -1  -5   6 3352.15  153.91
   1  -5  -5  430.02   57.96
  -1  -5   5  426.78   42.62
  -1  -5   5  424.99   36.38
  -1  -5   5  409.91   41.84
  -1   5   5  375.30   63.51
   1  -5  -4  930.38  106.33
  -1  -5   4  895.70   86.44
  -1  -5   4  876.57   77.60
  -1   5   4  808.19   78.31
  -1  -5   4  935.76   56.38
   1  -5  -3 1126.51  109.36
  -1  -5   3  983.33   65.56
  -1   5   3  969.58   82.70
  -1  -5   3 1093.09   90.69
  -1  -5   3 1004.93   79.60
   1  -5  -2 1923.30  145.17
  -1  -5   2 2067.77  102.08
  -1  -5   2 1881.73  131.53
  -1   5   2 1808.04  112.46
  -1  -5   2 1784.45   84.06
   1  -5  -1 5206.49  232.17
  -1  -5   1 5389.97  238.85
  -1  -5   1 5410.98  235.73
   1  -5   0 2491.19  127.54
  -1  -5   0 2572.48  110.32
  -1  -5   0 2551.03  136.54
   1  -5   1 3134.52  152.10
  -1  -5  -1 3294.47  137.63
   1   5   2 7804.76  329.93
   1  -5   2 7930.02  306.90
   1  -5   2 7566.05  331.46
  -1  -5  -2 8183.87  360.18
   1  -5   3 4301.68  162.09
   1  -5   3 4289.64  245.28
   1  -5   3 4245.30  269.44
   1   5   3 4208.95  228.86
  -1  -5  -3 4182.58  179.06
   1   5   4 2003.02  146.15
   1  -5   4 1917.73   75.14
   1  -5   4 1886.23  149.54
   1  -5   4 1979.30  124.78
  -1  -5  -4 1938.19  102.00
   1  -5   5  341.56   81.46
   1  -5   5  374.11   35.88
   1   5   5  367.75   74.36
   1  -5   5  356.01   57.45
  -1  -5  -5  379.57   46.49
   1   5   6 1374.42   94.82
   1  -5   6 1388.33   63.76
   1  -5   6 1477.65  103.66
   1  -5   6 1400.91   98.16
  -1  -5  -6 1582.26   92.69
   1  -5   7 1480.70  106.47
   1   5   7 1436.90  102.61
   1  -5   7 1531.88  105.47
  -1  -5  -7 1470.62  132.51
   1   5   8  420.90   90.17
   1  -5   8  362.77   62.29
  -1  -5  -8  356.43   86.29
   1  -5   9  105.21   41.35
   1   5   9    0.78   41.46
  -1  -5  -9  134.76   40.46
   1  -5  10  259.42   57.75
   1   5  10  236.69   60.24
  -1  -5 -10  226.52   58.77
   1   5  11   -3.69  103.47
   1  -5  11  339.35   63.38
  -1  -5 -11  329.84  101.60
   1  -6  -9  810.75  107.83
  -1   6   9  715.72  112.10
  -1  -6   9  815.31   76.09
  -1  -6   9  683.76   70.36
   1  -6  -8  809.34  151.06
  -1  -6   8  791.44   71.15
  -1  -6   8  727.96   49.60
  -1  -6   8  769.53   68.89
  -1   6   8  788.10  106.84
   1  -6  -7  147.76   84.26
  -1  -6   7  164.03   36.14
  -1  -6   7  106.59   55.40
  -1   6   7  139.60   89.85
  -1  -6   7  134.93   39.75
   1  -6  -6  469.77   68.45
  -1  -6   6  413.30   69.49
  -1   6   6  427.59   72.35
  -1  -6   6  402.89   38.44
  -1  -6   6  420.15   49.41
   1  -6  -5  356.92   62.91
  -1  -6   5  366.95   43.82
  -1  -6   5  294.05   56.88
  -1   6   5  335.08   66.47
  -1  -6   5  340.25   42.11
   1  -6  -4 1027.44   89.46
  -1  -6   4  989.94   64.43
  -1  -6   4  975.49   65.13
  -1   6   4  974.57   95.04
  -1  -6   4  940.83   97.56
   1  -6  -3  852.40   78.86
  -1  -6   3  764.19   61.56
  -1  -6   3  852.52   66.37
  -1  -6   3  850.04   81.30
  -1   6   3  669.95  120.36
   1  -6  -2  545.82   61.90
  -1  -6   2  526.81   65.90
  -1  -6   2  577.70   55.42
  -1  -6   2  486.00   54.34
   1  -6  -1  620.85   63.30
  -1  -6   1  642.06   91.62
  -1  -6   1  678.82   69.01
  -1  -6   1  339.67   54.79
   1  -6   0 3638.94  183.07
  -1  -6   0 3636.56  162.77
  -1  -6   0 3964.57  258.46
   1  -6   1 2021.40  120.47
   1  -6   1 2175.00  143.29
  -1  -6  -1 2068.26  106.89
   1  -6   2 1332.66  111.50
   1  -6   2 1271.37   90.82
   1  -6   2 1356.52   73.20
  -1  -6  -2 1364.53   82.47
   1  -6   3  369.95   50.08
   1   6   3  344.50   77.61
   1  -6   3  337.92   51.69
   1  -6   3  365.55   62.49
  -1  -6  -3  433.44   47.48
   1   6   4  160.65   71.31
   1  -6   4  198.27   45.39
   1  -6   4  252.66   39.97
   1  -6   4  224.03   54.72
  -1  -6  -4  300.76   41.54
   1   6   5  260.15   77.42
   1  -6   5  287.81   76.04
   1  -6   5  246.62   56.90
   1  -6   5  254.97   36.45
  -1  -6  -5  289.89   44.75
   1  -6   6   78.07   37.83
   1   6   6   82.39   61.89
   1  -6   6  101.64   15.71
   1  -6   6   65.16   43.63
  -1  -6  -6  124.98   37.43
   1  -6   7   57.23   39.14
   1   6   7   49.01   38.62
   1  -6   7   71.37   36.71
  -1  -6  -7   32.60   56.15
   1  -6   8  417.22  102.15
   1   6   8  332.57  105.49
   1  -6   8  409.67   69.22
  -1  -6  -8  389.23   67.74
   1   6   9  244.00   67.01
   1  -6   9  297.19   65.55
   1  -6   9  332.20   64.95
  -1  -6  -9  345.41   69.37
   1  -7  -4  155.69   83.93
  -1  -7   4  141.62   40.07
  -1   7   4  118.53   54.88
  -1  -7   4  164.16   34.45
   1  -7  -3  203.38   55.60
  -1  -7   3  160.20   43.43
  -1  -7   3  197.23   35.69
   1  -7  -2  105.47   45.26
  -1  -7   2  107.38   30.39
  -1  -7   2  119.88   59.80
   1  -7  -1  121.36   43.86
  -1  -7   1  148.21   31.71
  -1  -7   1   97.04   66.12
   1  -7   0  469.24   64.98
  -1  -7   0  494.73   52.70
   1  -7   1  198.60   47.99
   1  -7   1  178.45   61.36
  -1  -7  -1  224.53   40.78
   1  -7   2  392.88   68.84
   1  -7   2   18.95   81.59
  -1  -7  -2   61.93   33.84
   1  -7   3  513.03  100.28
   1  -7   3  460.43  120.20
  -1  -7  -3  518.64   88.52
   1  -7   4   43.39   67.84
   1   7   4   47.15   34.90
   1  -7   4   57.23   35.56
  -1  -7  -4   92.22   53.91
   2   0 -15 1625.80  118.93
   2   0 -15 1621.37  145.81
  -2   0  15 1545.68  135.95
   2   0 -14  103.69   74.85
   2   0 -14   -0.00   60.35
  -2   0  14  103.01   44.37
   2   0 -13   73.45   39.89
   2   0 -13   80.81   33.44
  -2   0  13   55.37   38.83
   2   0 -12  659.43  107.82
   2   0 -12  705.17   64.84
  -2   0  12  716.59  106.15
   2   0 -11  253.17   46.73
   2   0 -11  232.86   41.61
  -2   0  11  235.75   44.85
   2   0 -10 2284.06  161.14
  -2   0  10 2165.20  115.09
   2   0  -9  872.08   63.10
  -2   0   9  746.90   58.37
   2   0  -8 7036.75  276.68
  -2   0   8 7112.07  277.39
   2   0  -7 1688.34   99.38
  -2   0   7 1689.62   75.08
   2   0  -614360.99  543.34
  -2   0   614572.78  548.90
   2   0  -5  215.79   23.45
  -2   0   5  183.27   22.26
   2   0  -422521.07  846.18
   2   0  -420790.49  806.93
  -2   0   421102.44  819.19
   2   0  -3 1580.56   66.47
   2   0  -3 1455.44   46.72
  -2   0   3 1272.44   44.67
   2   0  -210165.61  330.94
   2   0  -210603.28  333.64
  -2   0   2 9774.96  329.32
   2   0  -158365.61 2541.45
   2   0  -155419.95 2416.83
  -2   0   144158.69 1940.96
  -2   0   159047.60 2595.19
   2   0   0  241.45   22.58
   2   0   0  268.20   25.23
  -2   0   0  258.71   23.38
   2   0   1158365.5 9157.39
  -2   0  -1159215.9 9100.00
   2   0   233119.05 1347.94
  -2   0  -235747.27 1457.07
   2   0   3 3971.49  131.45
  -2   0  -3 4127.26  136.45
   2   0   4 8893.85  338.44
  -2   0  -4 8402.33  300.78
   2   0   5  820.12   71.24
  -2   0  -5  708.90   74.26
   2   0   6 4577.31  172.92
  -2   0  -6 3761.99  156.33
   2   0   7  800.43   53.90
  -2   0  -7  690.86   54.37
   2   0   8 2270.29  108.04
  -2   0  -8 1817.64  103.22
   2   0   9 2882.12  145.36
  -2   0  -9 2904.15  147.86
   2   0  10 3875.79  192.79
  -2   0 -10 3633.01  244.90
   2   0  11  767.21   80.73
  -2   0 -11  851.59  126.75
   2   0  12  552.78   74.70
  -2   0 -12  574.17   76.39
   2   0  13  215.25   61.17
  -2   0 -13  214.23   61.62
   2   0  14  304.11   72.95
  -2   0 -14  292.81   75.78
   2   0  15 1289.37  137.63
   2  -1 -15  686.78  104.50
   2   1 -15  605.48  138.69
   2   1 -15  680.06  116.00
  -2  -1  15  640.35   89.80
  -2   1  15  677.59  148.66
   2  -1 -14 1205.79  121.50
   2   1 -14 1211.59   91.90
   2   1 -14 1114.85  102.56
  -2   1  14 1154.39  114.09
  -2  -1  14 1160.71  106.03
   2  -1 -13 1381.83  169.94
   2   1 -13 1313.27   90.94
   2   1 -13 1224.99  100.54
  -2   1  13 1299.51  109.66
  -2  -1  13 1329.18  142.31
   2   1 -12  456.39   51.47
   2   1 -12  409.98   91.27
   2  -1 -12  448.60   67.29
  -2  -1  12  423.98   58.05
  -2   1  12  441.85   63.83
   2  -1 -11  322.53   52.77
   2   1 -11  286.29   48.38
   2   1 -11  288.35   41.80
  -2  -1  11  290.30   45.27
  -2   1  11  265.85   50.82
   2   1 -10 1263.93   84.78
   2  -1 -10 1305.33  128.22
   2   1 -10 1300.66   75.17
  -2  -1  10 1249.31  109.68
  -2   1  10 1271.98   88.24
   2  -1  -9  472.69   53.87
   2   1  -9  500.87   44.95
   2   1  -9  501.38   73.81
  -2   1   9  467.12   51.31
  -2  -1   9  464.73   45.46
   2  -1  -8 5002.27  204.88
   2   1  -8 4801.14  191.99
   2   1  -8 4589.86  179.30
  -2  -1   8 4653.00  182.54
  -2   1   8 4417.43  188.27
   2   1  -7 3516.13  135.14
   2   1  -7 3823.27  145.03
   2  -1  -7 3828.83  152.09
  -2   1   7 3431.67  142.20
  -2  -1   7 3702.30  137.72
   2   1  -6 3482.40  149.15
   2  -1  -6 3323.03  130.04
   2   1  -6 3392.37  144.71
  -2  -1   6 3213.14  135.20
  -2   1   6 3290.20  130.93
   2   1  -513514.84  495.48
   2  -1  -513530.06  507.64
   2   1  -513387.26  483.11
  -2   1   513781.24  550.55
  -2  -1   512764.74  482.64
   2   1  -414861.20  543.66
   2   1  -414581.41  513.04
   2  -1  -414830.79  550.67
  -2   1   414912.30  591.15
  -2  -1   414184.02  516.15
  -2  -1   415349.51  549.75
   2   1  -310102.35  315.29
   2   1  -3 9763.53  333.97
   2  -1  -310098.01  347.01
  -2   1   3 9541.12  336.08
  -2  -1   3 9830.35  328.94
  -2  -1   3 9730.79  302.24
   2   1  -213325.34  419.55
   2   1  -213134.84  457.57
   2  -1  -213312.07  465.83
  -2  -1   213224.60  453.54
  -2  -1   213198.63  411.87
  -2   1   213404.71  474.34
   2  -1  -116943.56  599.73
   2   1  -118136.87  635.52
  -2   1   116445.44  588.45
  -2  -1   114203.19  422.87
   2   1   024847.22  842.53
   2  -1   028338.01 1130.20
  -2   1   027784.40 1080.09
  -2  -1   027176.66 1049.95
   2   1   147929.78 2007.04
   2  -1   153244.54 2176.83
  -2  -1  -149509.54 2089.20
   2  -1   210381.45  373.46
   2   1   210633.81  347.30
  -2  -1  -210729.31  340.38
   2  -1   311541.59  418.94
   2   1   311128.59  375.74
  -2  -1  -311328.57  398.83
  -2   1  -311417.36  425.79
   2  -1   4 9512.59  355.58
   2   1   4 9796.12  342.35
  -2   1  -4 9463.90  411.32
  -2  -1  -4 9911.22  371.01
   2  -1   510469.45  439.39
   2   1   5 9478.78  350.16
  -2   1  -5 9662.00  389.21
  -2  -1  -510879.86  418.62
   2   1   6 2723.65  131.91
   2  -1   6 2624.44  116.64
  -2  -1  -6 2470.43  103.08
  -2   1  -6 2552.43  122.42
   2   1   7 7538.05  294.77
   2  -1   7 7871.58  316.45
  -2  -1  -7 7523.72  294.84
  -2   1  -7 8331.81  338.76
   2  -1   810525.36  489.68
   2   1   810141.42  414.95
  -2   1  -810777.06  509.22
  -2  -1  -810319.72  420.49
   2  -1   9  687.29  104.65
   2   1   9  627.22   90.89
  -2  -1  -9  656.73   94.42
  -2   1  -9  668.93   72.86
   2  -1  10 1371.99  101.80
   2   1  10 1332.77   92.70
  -2   1 -10 1393.73  107.95
  -2  -1 -10 1354.92   96.90
   2  -1  11  144.98   48.47
   2   1  11  153.01   44.37
  -2  -1 -11  164.09   46.99
  -2   1 -11  152.54   52.56
   2  -1  12  486.90  111.29
   2   1  12  438.94  100.50
  -2   1 -12  344.17   73.80
  -2  -1 -12  421.79   68.57
   2  -1  13  854.74   99.73
   2   1  13  785.35   91.01
  -2  -1 -13  756.58   96.20
  -2   1 -13  774.32  152.41
  -2   1 -13  762.97   50.98
   2   1  14  570.00   89.58
   2  -1  14  707.27  146.48
  -2  -1 -14  592.24   94.62
  -2   1 -14  617.22  156.91
  -2   1 -14  572.89   46.96
   2   1  15  512.58  140.02
   2  -1  15  525.00   93.36
  -2  -1 -15  491.86  154.21
  -2   1 -15  448.24   45.95
  -2   1 -15  424.98  103.99
   2  -2 -14 1362.21  137.15
   2   2 -14 1205.79  109.11
   2   2 -14 1329.69  139.20
  -2   2  14 1465.53  191.80
  -2  -2  14 1294.21  109.47
   2  -2 -13  280.61   66.24
   2   2 -13  241.46   54.70
   2   2 -13  259.81   46.69
  -2   2  13  269.08  101.28
  -2  -2  13  216.41   80.23
   2  -2 -12  192.26   53.88
   2   2 -12  165.40   37.87
  -2  -2  12  168.79   40.85
  -2   2  12  167.12   83.44
   2   2 -11  309.51   42.10
   2  -2 -11  276.55   56.47
   2   2 -11  279.12   76.34
  -2  -2  11  254.04   68.37
  -2   2  11  257.94   88.73
   2   2 -10  650.30   63.79
   2   2 -10  700.61   58.43
   2  -2 -10  814.54   76.25
  -2  -2  10  805.76   60.40
  -2   2  10  640.69  111.23
   2   2  -9 1347.96  111.65
   2  -2  -9 1406.74  135.47
   2   2  -9 1315.72   81.94
  -2  -2   9 1345.67  105.51
  -2   2   9 1231.59   92.13
   2   2  -8 2589.05  117.32
   2  -2  -8 2625.99  174.22
   2   2  -8 2572.61  118.09
  -2  -2   8 2487.43  111.05
  -2   2   8 2590.96  133.76
   2   2  -7 3393.24  139.25
   2   2  -7 3528.69  166.92
   2  -2  -7 3780.18  195.86
  -2   2   7 3520.65  193.91
  -2  -2   7 3358.49  155.63
   2  -2  -6 9348.36  400.31
   2   2  -6 9173.97  344.22
   2   2  -6 9279.02  339.09
  -2  -2   6 9334.51  336.70
  -2   2   6 9436.80  376.49
  -2  -2   6 8760.92  318.73
   2   2  -513532.08  515.38
   2  -2  -513814.09  539.89
   2   2  -513749.32  526.30
  -2  -2   513435.31  506.94
  -2   2   513587.39  542.18
  -2  -2   514051.94  517.76
   2   2  -419559.11  771.75
   2  -2  -418757.74  789.55
   2   2  -420872.17  799.04
  -2  -2   419071.94  725.52
  -2   2   420081.49  816.34
  -2  -2   419641.25  756.53
   2  -2  -317950.71  706.24
   2   2  -319863.55  727.50
   2   2  -317497.78  685.02
  -2  -2   318625.29  710.04
  -2   2   318804.91  751.24
  -2  -2   318802.64  661.08
   2   2  -215165.48  580.45
   2  -2  -214997.76  573.79
  -2  -2   215253.09  569.45
  -2  -2   216595.80  542.72
  -2   2   215967.98  620.78
   2  -2  -110853.79  401.21
  -2  -2   111753.03  353.65
  -2  -2   111964.17  364.18
  -2  -2   110690.02  389.38
  -2   2   111112.37  418.18
   2  -2   014698.07  586.69
   2   2   015604.05  507.92
  -2  -2   014491.18  545.64
  -2  -2   015045.55  481.80
  -2   2   014126.76  538.94
   2   2   1 3764.37  116.61
   2  -2   1 3734.33  174.60
  -2  -2  -1 4463.60  125.93
   2   2   213293.12  459.64
   2  -2   211635.00  354.91
  -2  -2  -213386.56  455.59
   2  -2   312185.95  488.59
   2   2   312563.91  458.84
  -2  -2  -312803.95  462.16
   2   2   412336.94  447.74
   2  -2   412303.09  491.80
  -2  -2  -412493.66  448.64
   2   2   510741.74  395.63
  -2  -2  -510726.35  391.68
  -2   2  -5 9707.79  412.84
  -2   2  -511098.61  330.79
   2   2   6 3600.20  140.43
   2  -2   6 3742.37  164.05
  -2  -2  -6 3902.69  171.51
  -2   2  -6 3775.24  101.88
  -2   2  -6 3492.87  172.82
   2  -2   7  992.72   72.34
   2   2   7  931.07   57.07
  -2  -2  -7 1076.54   60.57
  -2   2  -7  924.68   37.82
  -2   2  -7  808.49   78.51
   2  -2   8 1844.27  110.03
   2   2   8 1651.97   91.47
  -2  -2  -8 1747.81  128.47
  -2   2  -8 1712.58   65.38
  -2   2  -8 1787.26  176.36
   2   2   9 1740.55  103.14
   2  -2   9 1850.50  119.52
  -2  -2  -9 1804.24  105.56
  -2   2  -9 1844.33   62.90
  -2   2  -9 1885.45  132.31
   2   2  10 2695.51  146.03
   2  -2  10 2742.67  163.23
  -2   2 -10 2838.25   96.78
  -2  -2 -10 2687.90  147.29
  -2   2 -10 2921.40  182.85
   2  -2  11   64.22   55.14
   2   2  11   55.11   28.31
  -2  -2 -11   47.91   30.68
  -2   2 -11   10.21   11.99
  -2   2 -11   43.75   38.37
   2   2  12   54.27   39.23
   2  -2  12   89.42   45.07
  -2   2 -12   63.94   16.49
  -2   2 -12   76.86   53.06
  -2  -2 -12   86.02   41.52
   2  -2  13  560.72   86.49
   2   2  13  481.43  117.77
  -2   2 -13  548.42   95.69
  -2   2 -13  524.16   37.54
  -2  -2 -13  515.35  128.25
   2  -2  14  530.39  135.21
   2   2  14  444.39   76.78
  -2   2 -14  317.65   52.02
  -2   2 -14  341.47   95.47
  -2  -2 -14  440.02   85.83
   2   3 -14  113.75   47.47
   2   3 -14    0.30   56.12
   2  -3 -14  126.76   56.08
  -2  -3  14    1.29   39.90
  -2   3  14  115.85   57.05
   2   3 -13   86.87   51.74
   2  -3 -13  101.97   77.30
   2   3 -13   58.57   43.03
  -2  -3  13   -0.35   55.59
  -2   3  13   68.40   52.38
   2  -3 -12 1363.98  119.38
   2   3 -12 1322.87   88.64
   2   3 -12 1437.22  111.26
  -2   3  12 1354.18  127.00
  -2  -3  12 1236.10   93.88
   2   3 -11 4549.39  210.85
   2   3 -11 4951.17  241.80
  -2  -3  11 4447.39  258.64
  -2   3  11 4713.84  260.17
   2   3 -10 4609.95  218.71
   2  -3 -10 4416.51  231.02
   2   3 -10 4267.42  194.16
  -2  -3  10 4168.87  194.23
  -2   3  10 4378.49  235.40
   2   3  -9  292.43   63.12
   2  -3  -9  355.20   90.49
   2   3  -9  249.56   44.95
  -2  -3   9  346.88   38.59
  -2   3   9  145.65   92.20
   2   3  -816577.02  716.38
   2   3  -817721.27  806.26
   2  -3  -818792.44  896.12
  -2  -3   815890.57  718.22
  -2   3   816999.54  782.38
   2   3  -7 9292.50  424.49
   2   3  -7 9732.60  390.62
   2  -3  -710294.51  494.23
  -2  -3   7 9622.78  371.75
  -2  -3   7 9147.54  357.93
  -2   3   7 9544.35  421.98
   2   3  -6  738.04   52.77
   2  -3  -6  796.12   95.43
   2   3  -6  817.10   51.86
  -2  -3   6  803.00   66.26
  -2   3   6  817.52   68.30
  -2  -3   6  866.55   44.84
   2  -3  -5  816.51   58.18
   2   3  -5  770.88   50.55
  -2  -3   5  828.90   45.66
  -2  -3   5  808.09   38.30
  -2   3   5  818.56   64.76
   2  -3  -4 1947.05   92.84
   2   3  -4 1931.48   88.93
  -2  -3   4 1990.64  102.74
  -2   3   4 1966.23  100.70
  -2  -3   4 2114.68   84.64
   2  -3  -3 6883.77  299.99
  -2  -3   3 7205.90  245.06
  -2  -3   3 6970.42  255.64
  -2   3   3 7380.39  295.32
  -2  -3   3 7189.43  244.47
   2  -3  -2 3560.15  142.79
  -2   3   2 3648.36  153.05
  -2  -3   2 3526.96  136.84
  -2  -3   2 3807.82  115.54
  -2  -3   2 3801.00  123.90
   2  -3  -1 3179.21  130.55
  -2   3   1 3237.49  140.07
  -2  -3   1 3377.88   99.39
  -2  -3   1 3583.18  168.15
   2  -3   0 6680.36  288.60
  -2  -3   0 6856.48  210.54
  -2  -3   0 6949.05  264.53
  -2   3   0 6483.57  254.87
   2   3   1 9122.57  304.29
   2  -3   1 8963.88  346.87
  -2  -3  -1 9122.95  308.83
   2   3   2 1062.11   43.42
   2  -3   2 1043.29   93.82
  -2  -3  -2 1350.53   56.51
   2   3   3 4449.49  155.76
   2  -3   3 4854.47  139.02
   2  -3   3 4783.69  252.20
   2  -3   3 4503.22  184.86
  -2  -3  -3 4754.19  158.67
   2  -3   4 2568.76  127.67
   2  -3   4 2560.26   65.51
   2   3   4 2394.35   93.29
  -2  -3  -4 2421.34   89.91
   2  -3   5  451.91   53.62
   2   3   5  428.22   34.59
  -2  -3  -5  489.13   34.74
   2   3   6 1060.38   61.37
   2  -3   6 1121.15  115.09
  -2  -3  -6 1064.91   59.80
   2   3   7 3320.23  185.38
   2  -3   7 3381.67  176.05
  -2  -3  -7 3786.00  191.34
   2  -3   8 4431.87  218.88
   2   3   8 3849.36  180.80
  -2  -3  -8 5053.40  210.97
  -2   3  -8 4013.69  135.56
   2   3   9  960.13   76.49
   2  -3   9  985.72   90.10
  -2  -3  -9  988.21   76.53
  -2   3  -9  988.96   45.70
  -2   3  -9 1083.81  112.99
   2  -3  10 2308.39  146.93
   2   3  10 2102.90  127.11
  -2  -3 -10 2339.14  134.08
  -2   3 -10 2191.26  168.16
  -2   3 -10 2149.20   87.55
   2   3  11 1705.55  118.08
   2  -3  11 2083.23  196.77
  -2  -3 -11 1966.64  126.64
  -2   3 -11 1714.81   66.21
  -2   3 -11 1673.64  154.54
   2   3  12  321.75   61.98
   2  -3  12  435.07   71.82
  -2  -3 -12  435.14   65.52
  -2   3 -12  211.47   85.00
  -2   3 -12  246.92   35.38
   2   3  13  376.73   67.83
   2  -3  13  284.20   77.70
  -2  -3 -13  290.54   74.91
  -2   3 -13  348.33   96.13
   2   3  14  107.99   86.54
   2  -3  14   99.20   60.50
   2  -4 -12 1446.32  145.58
   2   4 -12 1313.68  114.13
   2   4 -12 1247.48   91.34
  -2   4  12 1263.92  207.12
  -2  -4  12 1366.29   99.90
   2  -4 -11 3011.61  267.62
   2   4 -11 2781.30  160.30
   2   4 -11 2619.37  180.16
  -2  -4  11 2568.02  183.47
  -2   4  11 2850.35  271.84
   2  -4 -10 2084.20  149.81
   2   4 -10 1818.66  105.80
  -2   4  10 2040.34  151.22
  -2  -4  10 1824.51  104.09
   2  -4  -9 1368.56  112.27
   2   4  -9 1156.10   77.33
  -2   4   9 1326.24  115.70
  -2  -4   9 1255.91   74.97
   2   4  -8  124.04   53.52
   2  -4  -8  154.57   49.00
  -2  -4   8  142.99   26.75
  -2  -4   8  198.25   44.61
  -2   4   8  102.34   80.63
   2   4  -7 2617.71  129.06
   2  -4  -7 2881.69  160.31
  -2   4   7 2728.86  159.72
  -2  -4   7 2666.60  116.36
  -2  -4   7 2652.94  140.00
   2  -4  -6  451.36   59.66
  -2   4   6  397.88   97.47
  -2  -4   6  442.49   50.98
  -2  -4   6  469.40   57.64
   2  -4  -5 2098.00  118.42
  -2  -4   5 2130.56   85.55
  -2  -4   5 2064.54   95.75
  -2   4   5 2148.98  126.05
  -2  -4   5 2004.21   82.70
   2  -4  -4 1016.73   74.24
  -2  -4   4 1016.66   64.39
  -2  -4   4 1015.05   64.36
  -2  -4   4 1038.02   86.14
  -2   4   4  994.82   83.59
   2  -4  -3  245.32   60.07
  -2   4   3  222.83   45.18
  -2  -4   3  240.44   33.42
  -2  -4   3  249.33   32.61
  -2  -4   3  237.31   22.23
   2  -4  -2 1167.05   73.70
  -2   4   2 1240.48  121.05
  -2  -4   2 1225.64   61.57
  -2  -4   2 1168.27   69.55
  -2  -4   2 1267.19   69.96
   2  -4  -1 3298.23  148.18
  -2  -4   1 3333.75  111.12
  -2  -4   1 3465.80  150.44
  -2   4   1 3319.34  194.90
   2  -4   0 1850.35  129.68
  -2  -4   0 1908.80   66.99
  -2  -4   0 1938.35  103.00
   2   4   1 2777.04  103.65
   2  -4   1 2716.27  130.52
  -2  -4  -1 2852.42   97.81
   2  -4   2  419.79   49.74
   2   4   2  427.24   32.43
   2  -4   2  509.78   27.78
  -2  -4  -2  545.65   43.70
   2   4   3  170.09   25.23
   2  -4   3  201.33   40.30
   2  -4   3  205.77   49.37
   2  -4   3  194.64   15.22
  -2  -4  -3  206.44   23.07
   2  -4   4 1506.68   54.43
   2   4   4 1514.45   74.87
   2  -4   4 1508.40   97.66
   2  -4   4 1629.06  159.27
  -2  -4  -4 1523.58   70.75
   2  -4   5 1038.32   90.17
   2  -4   5 1053.03   37.15
   2  -4   5 1058.27   82.68
   2   4   5  970.23   62.41
  -2  -4  -5 1111.23   61.92
   2   4   6 1675.40   89.95
   2  -4   6 1735.98  118.13
  -2  -4  -6 1682.72   89.05
   2   4   7 1693.91   97.99
   2  -4   7 1763.96  122.16
  -2  -4  -7 2136.06  139.34
   2   4   8  527.76   55.51
   2  -4   8  480.94   70.07
  -2  -4  -8  469.37   51.72
   2   4   9  702.24  101.89
   2  -4   9  748.10   84.63
  -2  -4  -9  792.18   68.08
   2   4  10 1195.07   96.64
   2  -4  10 1328.50  114.95
  -2  -4 -10 1279.69  133.84
   2   4  11  921.35   94.08
   2  -4  11 1103.03  110.53
  -2  -4 -11 1059.49   93.88
   2   4  12 2443.68  164.63
   2  -4  12 2393.20  249.55
  -2  -4 -12 2359.49  214.51
   2  -5 -11   83.89   60.45
  -2  -5  11   72.86   33.57
  -2   5  11   98.95   60.44
   2  -5 -10  749.24  103.25
  -2  -5  10  646.33   90.01
  -2   5  10  699.33  102.07
   2  -5  -9  896.15  149.87
  -2  -5   9  718.36   85.46
  -2   5   9  820.19  154.77
   2  -5  -8   49.80   41.32
  -2  -5   8   34.77   22.44
  -2  -5   8   44.35   20.93
  -2   5   8   52.31   42.82
  -2  -5   8   43.10   32.38
   2  -5  -7  396.48   66.78
  -2  -5   7  385.23   59.29
  -2  -5   7  372.85   36.57
  -2  -5   7  397.98   57.49
  -2   5   7  337.00  112.94
   2  -5  -6  227.53   54.89
  -2  -5   6  249.03   32.74
  -2  -5   6  229.02   44.20
  -2  -5   6  252.61   46.78
  -2   5   6  228.18   59.76
   2  -5  -5  571.76   67.39
  -2  -5   5  515.77   57.52
  -2  -5   5  538.40   38.28
  -2   5   5  539.60   72.35
  -2  -5   5  503.93   46.14
   2  -5  -4 1015.26   87.66
  -2  -5   4  988.62   54.02
  -2  -5   4 1047.05   96.45
  -2   5   4  998.94  137.02
  -2  -5   4 1058.53   53.81
   2  -5  -3  307.07   48.03
  -2  -5   3  286.40   45.06
  -2  -5   3  279.85   40.02
  -2  -5   3  278.98   26.23
  -2   5   3  314.86   87.33
   2  -5  -2  615.60   62.69
  -2  -5   2  582.82   51.11
  -2  -5   2  612.60   60.39
  -2  -5   2  636.31   57.61
  -2   5   2  543.84  104.10
   2  -5  -1 2432.34  130.57
  -2  -5   1 2454.20   95.28
  -2  -5   1 2643.90  111.33
  -2  -5   1 2375.97  170.93
   2  -5   0 2416.60  174.37
  -2  -5   0 2408.01  112.23
  -2  -5   0 2240.27  171.99
   2  -5   1 1166.16  124.95
  -2  -5  -1 1183.60   57.28
   2   5   2 1636.01   81.29
   2  -5   2 1874.17  155.08
   2  -5   2 1642.58   69.81
  -2  -5  -2 1619.06   74.46
   2   5   3  355.60   60.57
   2  -5   3  356.19   70.24
   2  -5   3  424.27   87.35
   2  -5   3  383.62   26.65
  -2  -5  -3  395.89   54.84
   2  -5   4 1048.56  125.43
   2   5   4 1044.50   68.53
   2  -5   4 1123.47  149.78
   2  -5   4 1081.88   53.23
  -2  -5  -4 1186.65   92.25
   2   5   5  176.66   32.69
   2  -5   5  142.88   79.81
   2  -5   5  122.31   44.28
   2  -5   5  143.27   18.25
  -2  -5  -5  104.69   46.27
   2   5   6  452.55   50.10
   2  -5   6  512.08   67.83
   2  -5   6  474.84   69.94
  -2  -5  -6  492.50   47.63
   2   5   7  682.73   94.21
   2  -5   7  705.32   79.73
   2  -5   7  724.01   81.54
  -2  -5  -7  668.59   61.56
   2   5   8  159.12   42.15
   2  -5   8  163.96   53.07
   2  -5   8  152.74   51.83
  -2  -5  -8  185.46   62.44
   2   5   9  219.50   85.66
   2  -5   9  280.38  103.41
  -2  -5  -9  321.53   52.84
   2  -5  10  756.34  142.05
   2   5  10  676.11   82.31
  -2  -5 -10  758.55   79.71
   2   5  11    0.67   38.29
   2  -5  11  108.47   68.71
  -2  -5 -11   52.33   58.97
   2  -6  -8  389.79   83.13
  -2  -6   8  392.56   64.39
  -2  -6   8  368.91   61.75
  -2  -6   8  333.64   66.56
  -2   6   8  333.71  130.79
   2  -6  -7  102.24   51.66
  -2  -6   7   78.79   25.78
  -2  -6   7   71.59   40.82
  -2  -6   7   90.45   26.43
  -2   6   7   81.89   53.79
   2  -6  -6   73.01   42.23
  -2  -6   6   71.39   33.70
  -2  -6   6   -0.09   23.20
  -2   6   6   76.81   70.73
  -2  -6   6   58.30   21.28
   2  -6  -5  147.11   55.48
  -2  -6   5  202.75   30.14
  -2  -6   5  169.45   34.45
  -2  -6   5  173.72   28.25
  -2   6   5  131.70   59.43
   2  -6  -4  798.20   86.06
  -2  -6   4  701.27   67.30
  -2  -6   4  726.51   51.68
  -2  -6   4  773.06   93.04
  -2   6   4  748.18   91.35
   2  -6  -3  611.33  112.83
  -2  -6   3  633.45   59.51
  -2  -6   3  622.62   68.46
  -2  -6   3  532.84   57.49
  -2   6   3  475.37   77.85
   2  -6  -2 2302.07  202.68
  -2  -6   2 2296.17  101.16
  -2  -6   2 2280.88  132.62
  -2  -6   2 2466.96  114.29
   2  -6  -1 1797.23  162.54
  -2  -6   1 1115.47   59.92
  -2  -6   1 1131.41   91.19
  -2  -6   1 1213.62  100.87
   2  -6   0 2304.45  190.47
  -2  -6   0 2215.60  139.22
  -2  -6   0 2305.30  125.70
   2  -6   1  270.77   55.87
   2  -6   1  294.23   37.66
  -2  -6  -1  361.27   52.36
  -2  -6  -1  298.15   61.76
   2  -6   2  609.54   88.20
   2  -6   2  610.29   70.75
   2  -6   2  562.19   42.95
  -2  -6  -2  852.04   74.64
   2  -6   3 2104.32  151.20
   2   6   3 2072.31  142.57
   2  -6   3 2093.12  103.74
   2  -6   3 2050.29  132.33
  -2  -6  -3 2240.99  132.55
   2   6   4  251.98   64.36
   2  -6   4  249.06   53.98
   2  -6   4  233.30   22.19
   2  -6   4  235.62   63.01
  -2  -6  -4  320.01   57.70
   2  -6   5  509.32   68.06
   2  -6   5  463.93   79.84
   2   6   5  539.64   83.90
  -2  -6  -5  491.41   51.37
   2   6   6   34.16   54.01
   2  -6   6   72.02   45.52
   2  -6   6   71.75   39.91
  -2  -6  -6   78.83   31.11
   2  -6   7  101.40   50.42
   2   6   7   74.96   40.04
   2  -6   7  105.23   47.49
  -2  -6  -7   96.65   37.22
   2   6   8  472.42   68.64
   2  -6   8  456.41  131.58
   2  -6   8  536.16  124.11
  -2  -6  -8  581.79  101.82
   2  -7  -4  449.29   80.26
  -2   7   4  346.48   81.35
   2  -7  -3 2070.90  158.10
  -2  -7   3 1916.39   99.38
   2  -7  -2  213.06   60.57
  -2  -7   2  216.33   37.92
  -2  -7   2  238.07   50.75
   2  -7  -1  261.06  102.48
  -2  -7   1  324.09   67.39
  -2  -7   1  317.21   55.61
   2  -7   0  376.64   91.19
  -2  -7   0  142.69   48.33
  -2  -7   0  179.97   40.27
   2  -7   1  -24.23   85.04
   2  -7   1  471.83   68.24
  -2  -7  -1  509.22   45.11
   2  -7   2  267.62   60.91
   2  -7   2  309.03   76.77
  -2  -7  -2  296.20   40.46
   2  -7   3  500.22   93.61
   2  -7   3  557.59   79.87
  -2  -7  -3  708.24   59.92
   2   7   4  191.24   41.68
   2  -7   4  157.37   67.69
   2  -7   4  165.21   87.93
  -2  -7  -4  204.55   40.91
   3   0 -15 1198.28  158.09
   3   0 -15  962.08  143.78
  -3   0  15 1136.49  114.30
   3   0 -14  439.43   67.56
   3   0 -14  395.92   64.83
  -3   0  14  404.56   68.95
   3   0 -13  372.25   57.61
   3   0 -13  289.69   74.34
  -3   0  13  352.00   59.04
   3   0 -12  219.23   42.56
   3   0 -12  250.21   47.86
  -3   0  12  268.89   48.03
   3   0 -11  436.12   50.89
   3   0 -11  363.26   82.43
  -3   0  11  366.34   80.13
   3   0 -10 6882.27  331.13
   3   0 -10 5863.50  256.77
  -3   0  10 6045.64  306.77
   3   0  -9 1397.24  116.85
   3   0  -9 1274.50   77.09
  -3   0   9 1355.20  109.22
   3   0  -8 1363.42  103.54
   3   0  -8 1270.50   70.33
  -3   0   8 1323.66   72.02
   3   0  -713619.25  573.53
   3   0  -716537.46  668.96
  -3   0   714071.92  558.51
   3   0  -6 3871.43  167.44
   3   0  -6 3829.24  146.63
  -3   0   6 3953.83  168.56
   3   0  -5 1819.06   75.56
   3   0  -5 1774.00   68.97
  -3   0   5 1775.58   70.61
   3   0  -4 9222.27  354.40
   3   0  -4 9171.31  314.23
  -3   0   4 8862.08  329.80
   3   0  -3 1624.26   56.18
   3   0  -3 1547.50   81.17
  -3   0   3 1489.66   55.29
   3   0  -2 5722.23  175.37
   3   0  -2 5644.53  203.27
  -3   0   2 5783.04  180.33
  -3   0   2 5834.89  185.36
   3   0  -1 3024.83  110.21
  -3   0   1 2788.07   95.77
  -3   0   1 2998.13   91.11
   3   0   0 5918.52  184.58
   3   0   0 5933.73  179.90
  -3   0   0 5554.67  169.71
   3   0   110560.14  349.23
   3   0   110725.42  359.43
  -3   0  -110603.15  342.25
   3   0   2 2946.57   98.37
  -3   0  -2 2405.67   94.26
  -3   0  -2 3545.88  113.94
   3   0   3 4203.94  150.48
  -3   0  -3 4543.59  194.73
   3   0   411714.62  437.63
  -3   0  -411490.19  437.87
   3   0   5 1927.46   86.12
  -3   0  -5 2012.12  121.55
   3   0   6 2601.94  113.01
  -3   0  -6 2335.17  111.06
   3   0   7 5847.77  234.22
  -3   0  -7 4843.80  211.33
   3   0   8  431.30   49.14
  -3   0  -8  307.37   81.63
   3   0   9  578.40   95.10
   3   0  10 1966.22  124.22
   3   0  11 1423.01  110.29
  -3   0 -11 1489.86  168.05
   3   0  12   87.07   44.98
  -3   0 -12   57.49   46.46
   3   0  13   45.47   41.35
  -3   0 -13   28.09   44.06
   3   0  14 1142.05  122.88
  -3   0 -14 1024.58  126.11
   3   0  15 2506.88  203.71
  -3   0 -15 2626.00  210.93
   3   1 -14  602.57   73.61
   3   1 -14  419.23   90.08
   3  -1 -14  502.73  111.27
   3  -1 -14  554.24   77.07
  -3  -1  14  533.25   73.29
  -3   1  14  531.85   84.70
   3   1 -13  216.89   49.37
   3   1 -13  182.11   42.79
   3  -1 -13  196.53   47.89
   3  -1 -13  136.10   51.65
  -3  -1  13  228.91   47.22
  -3   1  13  233.32   55.73
   3   1 -12 1426.16   95.15
   3   1 -12 1513.61  139.88
   3  -1 -12 1327.40   96.77
  -3  -1  12 1518.11  136.08
  -3   1  12 1522.45  110.63
   3   1 -11 1561.76  130.02
   3   1 -11 1596.78  138.65
   3  -1 -11 1524.58  143.26
  -3  -1  11 1507.76   92.24
  -3   1  11 1559.39  107.40
   3   1 -10  578.45   86.99
   3   1 -10  574.29   54.02
   3  -1 -10  655.98   61.39
  -3  -1  10  503.65   50.04
  -3   1  10  489.55   60.06
   3   1  -9  916.12   90.59
   3   1  -9 1001.30  101.66
   3  -1  -9  962.46   72.97
  -3  -1   9  960.15   60.09
  -3   1   9  990.78   73.48
   3   1  -8 2600.43  118.88
   3   1  -8 2496.35  109.50
   3  -1  -8 2473.37  118.89
  -3  -1   8 2444.47  104.52
  -3   1   8 2540.95  155.59
   3   1  -7 8167.65  313.96
   3   1  -7 7926.22  295.34
   3  -1  -7 8045.58  316.83
  -3  -1   7 7942.58  292.77
  -3   1   7 8396.67  331.04
   3   1  -6 5195.00  183.90
   3   1  -6 5482.09  231.57
   3  -1  -6 5216.32  200.69
  -3  -1   6 5055.15  176.99
  -3   1   6 5372.50  237.26
   3   1  -5 6290.49  232.51
   3   1  -5 6400.22  230.15
   3  -1  -5 6379.51  234.43
  -3  -1   5 6244.80  207.58
  -3   1   5 6382.17  266.95
   3   1  -4 1247.27   62.27
   3   1  -4 1409.53   46.70
   3  -1  -4 1235.51   58.32
  -3  -1   4 1251.68   54.17
  -3  -1   4 1170.59   56.13
  -3   1   4 1189.71   85.18
   3   1  -317502.29  605.61
   3   1  -317734.52  682.77
   3  -1  -317740.60  678.51
  -3  -1   318701.18  658.15
  -3  -1   317422.60  657.44
  -3   1   317810.67  691.52
   3   1  -216649.75  539.11
   3   1  -215824.01  619.12
   3  -1  -213038.46  473.78
   3  -1  -216020.21  589.37
  -3  -1   216304.65  533.36
  -3  -1   215637.34  572.25
  -3   1   216181.98  605.70
   3   1  -1 8856.79  310.04
   3  -1  -1 8851.59  281.16
  -3  -1   1 9051.16  307.73
  -3   1   1 8405.93  297.57
   3   1   0 7839.53  217.29
   3   1   0 7554.77  262.70
   3   1   0 6941.62  194.75
   3  -1   0 7589.97  225.57
   3  -1   0 7419.80  254.44
  -3  -1   0 7375.72  249.98
   3   1   118712.05  657.92
   3  -1   119317.67  742.10
   3  -1   120146.93  703.93
  -3  -1  -119171.57  729.50
  -3  -1  -121265.67  753.66
   3   1   216129.32  551.10
   3  -1   213170.48  523.14
  -3  -1  -215628.41  559.27
  -3   1  -215072.56  475.43
   3   1   3 8837.92  293.85
   3  -1   3 7389.86  329.00
  -3  -1  -3 8150.13  278.94
  -3   1  -3 8469.95  240.32
   3   1   4 3453.16  141.89
   3  -1   4 3671.14  149.88
  -3  -1  -4 3657.66  130.78
  -3   1  -4 3895.95  165.42
   3   1   5 5533.86  202.54
   3  -1   5 5725.84  224.82
  -3  -1  -5 5715.41  210.37
  -3   1  -5 5707.65  236.91
   3   1   6 5019.53  216.77
   3  -1   6 5040.15  207.79
  -3  -1  -6 4860.19  190.91
  -3   1  -6 5270.36  268.66
   3   1   7 2663.88  114.69
   3  -1   7 2635.06  126.52
  -3  -1  -7 2303.15  141.94
  -3   1  -7 2082.33  127.20
   3   1   8 1998.11  103.38
   3  -1   8 2119.80  118.98
  -3  -1  -8 1911.60  105.77
  -3   1  -8 2044.51  180.74
   3   1   9  440.80   51.81
   3  -1   9  436.27   62.02
  -3  -1  -9  406.27   56.41
  -3   1  -9  405.84   67.81
   3   1  10 1662.83  108.65
   3  -1  10 1771.07  172.90
  -3  -1 -10 1714.22  113.78
  -3   1 -10 1789.62  132.52
   3   1  11 2413.98  191.20
   3  -1  11 2421.84  154.87
  -3  -1 -11 2264.18  145.47
  -3   1 -11 2361.40  165.32
   3   1  12 2029.30  138.27
   3  -1  12 2075.12  149.88
  -3  -1 -12 2000.41  198.81
  -3   1 -12 1922.93  157.47
   3   1  13  282.45   66.32
   3  -1  13  280.14  115.51
  -3  -1 -13  305.66   69.28
  -3   1 -13  311.73   78.19
   3   1  14 1127.34  119.88
   3  -1  14 1259.86  133.63
  -3  -1 -14 1170.59  128.35
  -3   1 -14 1136.29  137.32
  -3   1 -14 1150.00   64.78
   3   2 -14  854.15  127.43
   3   2 -14  903.11   90.41
   3  -2 -14  675.45  136.79
  -3   2  14  961.33  163.81
  -3  -2  14  860.92   83.96
   3  -2 -13  238.40   56.81
   3   2 -13  284.98   54.85
   3   2 -13  285.58   53.63
  -3   2  13  293.57   69.34
  -3  -2  13  318.86   50.47
   3  -2 -12  750.17   83.48
   3   2 -12  769.83   72.42
   3   2 -12  800.56   75.30
  -3   2  12  813.57  136.18
  -3  -2  12  791.38   98.44
   3  -2 -11  767.01   82.41
   3   2 -11  803.28   72.09
   3   2 -11  824.45   69.10
  -3   2  11  848.93  125.42
  -3  -2  11  752.89   61.44
   3   2 -10 1203.33   79.68
   3   2 -10 1268.62   85.54
   3  -2 -10 1491.64  146.08
  -3   2  10 1137.36  141.66
  -3  -2  10 1269.09   74.54
   3  -2  -9 3563.81  179.65
   3   2  -9 3529.98  165.22
   3   2  -9 3554.08  190.40
  -3   2   9 3637.06  185.62
  -3  -2   9 3247.84  170.78
   3  -2  -8 2441.67  130.33
   3   2  -8 2486.94  137.26
   3   2  -8 2405.00  156.11
  -3   2   8 2396.45  131.83
  -3  -2   8 2283.80   98.30
   3   2  -7 6533.34  269.89
   3  -2  -7 6725.65  280.45
   3   2  -7 6420.47  261.28
  -3   2   7 6646.24  281.52
  -3  -2   7 6168.10  227.39
   3   2  -6 1795.59  117.78
   3  -2  -6 2020.41  128.50
   3   2  -6 1897.95   72.69
  -3   2   6 1857.02   97.77
  -3  -2   6 1872.49   82.25
  -3  -2   6 1822.67   67.37
   3  -2  -5 4206.43  168.23
   3   2  -5 4068.22  163.29
   3   2  -5 4026.32  147.50
  -3  -2   5 4000.91  176.80
  -3  -2   5 4254.38  134.66
  -3   2   5 3999.13  171.15
   3  -2  -4 4858.70  187.06
   3   2  -4 5073.57  165.23
   3   2  -4 4831.39  186.92
  -3   2   4 4984.24  198.57
  -3  -2   4 4818.18  142.24
  -3  -2   4 4868.94  178.18
   3  -2  -3 4610.54  175.30
   3   2  -3 4068.26  116.98
   3   2  -3 4696.29  180.07
  -3   2   3 4526.11  213.90
  -3  -2   3 5007.97  138.73
  -3  -2   3 5019.52  177.78
   3  -2  -2 1387.84   65.73
  -3  -2   2 1167.86   25.43
  -3  -2   2 1322.26   25.98
   3  -2  -1 8838.66  364.47
  -3   2   1 9317.94  352.50
  -3  -2   1 8883.05  328.27
   3  -2   0 1618.07  104.21
  -3  -2   0 1541.07   74.03
   3  -2   1 3132.35  131.73
   3   2   1 3378.80   95.33
  -3  -2  -1 3405.19  139.87
  -3  -2  -1 4020.94  108.86
   3  -2   210027.80  382.88
   3  -2   210070.17  275.86
   3   2   2 9715.65  320.88
  -3  -2  -2 9326.02  309.88
   3   2   317772.13  651.21
   3  -2   318930.52  783.99
  -3  -2  -317760.98  649.09
   3   2   4 2253.77   95.53
   3  -2   4 2146.79  150.73
  -3  -2  -4 2415.98   86.02
   3  -2   5 8479.82  347.28
   3   2   5 7967.86  290.38
  -3  -2  -5 7955.08  288.87
   3  -2   6 1517.38   93.67
   3   2   6 1532.24   71.00
  -3  -2  -6 1826.40  101.32
   3  -2   7 4601.61  215.80
   3   2   7 4363.12  180.07
  -3   2  -7 4591.05  125.63
  -3   2  -7 4722.11  237.51
  -3  -2  -7 4447.24  184.69
   3  -2   8 1180.92   93.95
   3   2   8 1164.31   73.12
  -3   2  -8 1133.60  166.88
  -3  -2  -8 1204.57   77.48
  -3   2  -8 1176.44   41.22
   3  -2   9 1139.58   96.07
   3   2   9 1056.26   74.90
  -3   2  -9  961.45   33.87
  -3   2  -9  942.88  105.63
  -3  -2  -9 1095.33   77.61
   3   2  10 3643.88  182.94
   3  -2  10 3598.35  207.67
  -3   2 -10 3789.45  131.07
  -3  -2 -10 3717.19  239.55
  -3   2 -10 4105.71  238.98
   3  -2  11  430.92   73.90
   3   2  11  444.85   89.66
  -3   2 -11  396.96   84.62
  -3  -2 -11  435.54   63.37
  -3   2 -11  366.19   32.70
   3   2  12  705.07   78.39
   3  -2  12  756.88  141.73
  -3   2 -12  623.82   33.46
  -3  -2 -12  683.29   82.71
  -3   2 -12  689.56  105.42
   3   2  13   58.80   40.95
   3  -2  13   74.96   50.35
  -3   2 -13   35.59   56.88
  -3  -2 -13   12.51   73.43
   3  -2  14  694.66  111.18
   3   2  14  693.63   96.19
  -3   2 -14  823.57  128.62
  -3  -2 -14  700.81  106.76
   3   3 -13   -0.50   40.44
   3   3 -13  108.46   68.11
   3  -3 -13  132.81   56.16
  -3  -3  13  100.50   35.36
  -3   3  13  127.95   59.02
   3   3 -12 1135.72   92.51
   3  -3 -12 1298.04  124.48
   3   3 -12 1091.71  136.18
  -3  -3  12 1092.42  114.38
  -3   3  12 1208.01  123.34
   3   3 -11  294.15   50.06
   3   3 -11  318.32   76.61
  -3  -3  11  298.25   40.33
  -3   3  11  254.64   67.66
   3   3 -10  854.96   97.44
   3  -3 -10  893.09   93.82
   3   3 -10  733.14   69.91
  -3  -3  10  792.40   80.73
  -3   3  10  860.73   93.17
   3   3  -9 1270.80  126.28
   3   3  -9 1254.73   78.37
   3  -3  -9 1438.75  111.37
  -3  -3   9 1241.14   70.18
  -3   3   9 1325.96  156.56
   3   3  -8  373.32   50.05
   3   3  -8  340.55   38.23
   3  -3  -8  422.53   62.88
  -3  -3   8  357.13   48.51
  -3   3   8  340.75   64.19
   3   3  -7 2277.27  157.77
   3   3  -7 2378.92  101.17
   3  -3  -7 2405.35  137.17
  -3  -3   7 2237.40   90.48
  -3  -3   7 2262.37  107.03
  -3   3   7 2463.18  144.44
   3  -3  -6 1001.69   76.16
   3   3  -6  857.73   66.42
   3   3  -6  774.16   47.07
  -3  -3   6  999.90   86.68
  -3  -3   6  910.89   55.93
  -3   3   6  911.71   81.04
   3  -3  -5 1104.13  107.65
   3   3  -5 1019.90   69.79
  -3  -3   5 1133.59   63.56
  -3  -3   5 1212.65   44.35
  -3   3   5  973.17   81.01
   3   3  -4  788.05   59.96
   3  -3  -4  785.92   58.92
  -3  -3   4  890.98   37.64
  -3   3   4  789.98   68.41
  -3  -3   4  858.99   52.77
   3  -3  -3 1045.78   63.91
  -3  -3   3 1165.63   61.80
  -3   3   3  995.24   69.53
  -3  -3   3  986.40   30.70
   3  -3  -2 1481.46  107.03
  -3  -3   2 1504.86   76.28
  -3  -3   2 1448.18   41.41
  -3  -3   2 1753.87   42.84
  -3   3   2 1502.39   87.70
   3  -3  -1 2563.52  117.21
  -3  -3   1 2806.60   73.61
  -3  -3   1 2723.76  149.89
  -3   3   1 2718.27  128.02
  -3  -3   1 2947.36   74.88
   3  -3   019785.95  873.57
  -3  -3   019140.79  799.43
  -3  -3   020328.38  705.20
   3  -3   1 5116.02  211.18
   3   3   1 5285.85  157.97
  -3  -3  -1 5493.44  164.92
  -3  -3  -1 5225.30  215.79
   3   3   2 3159.99  110.64
   3  -3   2 3165.81  143.58
  -3  -3  -2 3411.13  110.74
   3  -3   3 4347.44  201.57
   3   3   3 3984.24  131.96
   3  -3   3 4051.89  211.85
  -3  -3  -3 3685.58  121.80
   3   3   4 1727.44   67.60
   3  -3   4 1784.56  110.38
  -3  -3  -4 1701.98   65.91
   3   3   5 3547.25  136.50
   3  -3   5 3740.96  184.57
  -3  -3  -5 3281.18  148.46
   3   3   6 1948.75   89.98
   3  -3   6 2017.10  126.24
  -3  -3  -6 1879.09   88.32
   3   3   7 1144.46   68.01
   3  -3   7 1147.16   98.65
  -3  -3  -7 1237.41   72.22
   3   3   8  896.14   94.21
   3  -3   8  980.78   91.92
  -3  -3  -8  933.43   67.41
   3  -3   9  917.64   92.19
   3   3   9  791.51   99.14
  -3  -3  -9  882.01   73.55
   3   3  10  683.35   99.54
   3  -3  10  707.93   87.19
  -3  -3 -10  703.40  107.07
   3   3  11  679.90  101.84
   3  -3  11  629.95   85.40
  -3  -3 -11  624.95   70.41
  -3   3 -11   15.88   97.33
   3   3  12  984.17  134.29
   3  -3  12  933.86  112.90
  -3  -3 -12  882.63   94.92
  -3   3 -12  849.14  133.66
   3   3  13  244.67   63.14
   3  -3  13  303.37  125.82
  -3  -3 -13  273.38   69.12
  -3   3 -13  265.51   96.26
   3  -4 -12  573.77  108.24
   3   4 -12  556.56   70.83
   3   4 -12  475.46   64.75
  -3  -4  12  504.15   55.98
  -3   4  12  544.76  104.06
   3  -4 -11 1648.16  152.68
   3   4 -11 1537.67  103.13
   3   4 -11 1343.74  140.97
  -3  -4  11 1361.62   86.65
  -3   4  11 1561.91  147.02
   3   4 -10  974.67   82.00
   3  -4 -10 1223.84  121.86
  -3  -4  10 1033.84   91.88
  -3   4  10 1087.22  173.00
   3  -4  -9   48.16   44.47
   3   4  -9   42.65   29.66
  -3  -4   9   50.38   19.68
  -3   4   9   61.18   42.88
   3  -4  -8  225.75   56.07
   3   4  -8  147.39   62.01
  -3  -4   8  170.52   32.39
  -3  -4   8  183.41   38.25
  -3   4   8  178.18   56.43
   3   4  -7 2637.23  141.00
   3  -4  -7 2954.52  224.96
  -3  -4   7 2589.39  121.44
  -3  -4   7 2569.21  101.34
  -3   4   7 2919.40  173.00
   3  -4  -6  864.87  126.82
  -3  -4   6  867.83   84.48
  -3  -4   6  872.57   42.43
  -3   4   6  735.44  132.41
   3  -4  -5  872.43   77.31
  -3  -4   5  817.47   59.92
  -3  -4   5  836.37   37.57
  -3  -4   5  839.38   38.64
  -3   4   5  805.04   84.85
   3  -4  -4  731.72   68.58
  -3  -4   4  743.72   32.22
  -3  -4   4  791.13   41.98
  -3  -4   4  760.79   59.88
  -3   4   4  713.71   77.24
   3  -4  -3 3382.62  164.75
  -3  -4   3 3343.31  103.70
  -3  -4   3 3582.28  120.70
  -3  -4   3 3324.54  151.91
  -3   4   3 3509.08  181.42
   3  -4  -2 3566.13  169.62
  -3  -4   2 3468.77  117.82
  -3  -4   2 3828.77  123.19
  -3   4   2 3772.99  188.69
  -3  -4   2 3774.69  213.57
   3  -4  -1  571.09   90.83
  -3  -4   1  563.27   35.89
  -3   4   1  503.14   65.39
  -3  -4   1  648.32   59.53
  -3  -4   1  642.05   30.51
   3  -4   0 3193.86  202.59
  -3  -4   0 3686.69  120.88
  -3  -4   0 3343.62  166.13
   3  -4   1 2793.69  141.55
   3   4   1 2722.54  104.48
  -3  -4  -1 2670.90  144.08
  -3  -4  -1 2606.09   83.70
   3  -4   2 2501.56  136.57
   3   4   2 2602.51   94.76
  -3  -4  -2 2957.47  111.03
   3  -4   3  823.70   78.48
   3  -4   3  837.88   93.38
   3   4   3  818.63   44.86
  -3  -4  -3 1176.08   60.84
   3   4   4 1138.58   76.48
   3  -4   4 1191.83   93.69
   3  -4   4 1148.79  104.02
  -3  -4  -4 1111.87   71.59
   3  -4   5  566.66   70.40
   3  -4   5  593.53  126.11
   3   4   5  531.54   41.37
  -3  -4  -5  610.87   42.10
   3   4   6 1541.78  107.39
   3  -4   6 1590.53  173.53
  -3  -4  -6 1603.38  109.83
   3   4   7  712.20   58.36
   3  -4   7  779.81  133.76
  -3  -4  -7  962.37   60.17
   3  -4   8   35.08   59.27
   3   4   8   21.63   22.76
  -3  -4  -8   33.91   22.92
   3   4   9   93.39   33.13
   3  -4   9  103.27   79.03
  -3  -4  -9   94.09   32.83
   3   4  10 1870.98  117.67
   3  -4  10 1904.10  212.76
  -3  -4 -10 1762.14  113.80
   3   4  11  441.63   69.00
   3  -4  11  584.19   91.33
  -3  -4 -11  545.43   68.00
   3   4  12   -1.94   88.04
   3  -4  12  355.27   74.54
  -3  -4 -12  157.04   85.97
   3  -5 -10   31.63   34.91
  -3   5  10    2.54   36.06
  -3  -5  10    2.00   15.33
   3  -5  -9   52.33   39.29
  -3  -5   9    0.04   19.76
  -3  -5   9    8.57   26.03
  -3   5   9   47.76   39.37
   3  -5  -8  289.21   64.28
  -3  -5   8  196.98   27.92
  -3  -5   8   -0.13   54.95
  -3  -5   8  197.59   41.11
  -3   5   8  237.53   67.30
   3  -5  -7  472.21   77.16
  -3  -5   7  404.71   50.25
  -3  -5   7  408.27   33.39
  -3  -5   7  381.93   43.21
  -3   5   7  475.44   81.30
   3  -5  -6  211.45   90.42
  -3  -5   6  189.29   36.38
  -3  -5   6  208.60   34.87
  -3  -5   6  220.08   22.57
  -3   5   6  156.01   61.31
   3  -5  -5  280.02   86.86
  -3  -5   5  241.32   22.70
  -3  -5   5  219.14   39.10
  -3  -5   5  213.87   31.54
  -3   5   5  177.29   95.68
   3  -5  -4  623.21  108.15
  -3  -5   4  576.33   42.65
  -3  -5   4  628.10   84.36
  -3   5   4  512.12   76.65
  -3  -5   4  511.88   29.41
   3  -5  -3  375.44   91.77
  -3  -5   3  356.58   31.34
  -3  -5   3  401.39   35.47
  -3   5   3  340.81   65.51
  -3  -5   3  399.26   76.99
   3  -5  -2  187.82   78.64
  -3  -5   2  282.15   30.94
  -3  -5   2  259.33   26.51
  -3  -5   2  293.34   74.02
  -3   5   2  216.79   54.60
   3  -5  -1  543.89   64.83
  -3  -5   1  553.58   36.87
  -3  -5   1  526.85   63.03
  -3  -5   1  561.46   45.63
   3  -5   0 3110.21  166.58
  -3  -5   0 3398.22  115.45
  -3  -5   0 3351.82  177.40
   3  -5   1  902.83   82.64
  -3  -5  -1  970.57  137.78
  -3  -5  -1 1011.15   57.55
   3  -5   2  657.23   73.57
   3   5   2  676.72   57.65
   3  -5   2  686.11   48.79
  -3  -5  -2  628.77   51.07
   3  -5   3 1796.91  140.72
   3   5   3 1750.31  102.68
   3  -5   3 1703.71   67.51
   3  -5   3 1697.73  163.35
  -3  -5  -3 1611.58   89.35
   3  -5   4 1502.32   49.46
   3  -5   4 1674.84  164.79
   3  -5   4 1844.79  138.97
   3   5   4 1753.77   84.99
  -3  -5  -4 1899.35  101.31
   3  -5   5  215.68   54.22
   3   5   5  189.43   32.49
   3  -5   5  189.11   62.23
  -3  -5  -5  205.36   28.94
   3   5   6  376.29   43.09
   3  -5   6  464.43  118.46
   3  -5   6  367.25   68.35
  -3  -5  -6  382.90   40.12
   3  -5   7  291.59  107.17
   3   5   7  267.14   64.00
   3  -5   7   74.21   99.58
  -3  -5  -7  306.76   60.90
   3  -5   8  213.10   62.85
   3  -5   8  156.49   59.54
   3   5   8  188.89   41.16
  -3  -5  -8  197.99   38.68
   3  -5   9  349.92   78.85
   3   5   9  333.56   79.63
  -3  -5  -9  307.07   51.62
   3  -5  10   57.30   44.93
   3   5  10    0.14   31.02
  -3  -5 -10   39.68   30.03
   3  -6  -8  298.13   75.49
  -3   6   8   91.58   77.56
  -3  -6   8  210.07   39.50
   3  -6  -7  129.33  117.38
  -3   6   7  173.27  120.06
  -3  -6   7  236.48   39.95
   3  -6  -6  236.64  109.14
  -3   6   6  122.47   72.81
  -3  -6   6  245.06   41.54
   3  -6  -5  297.30   66.71
  -3  -6   5  240.56   43.84
  -3   6   5  277.06   71.57
  -3  -6   5  233.24   37.50
   3  -6  -4   75.59   41.93
  -3  -6   4   90.63   15.76
  -3  -6   4    1.36   30.07
  -3   6   4   60.68   44.84
  -3  -6   4   15.70   14.19
   3  -6  -3  819.85   88.44
  -3  -6   3  742.08   56.87
  -3   6   3  674.54   91.74
  -3  -6   3  692.23   50.45
  -3  -6   3  733.60   72.11
   3  -6  -2  372.45   67.51
  -3  -6   2  381.37   30.36
  -3  -6   2  386.64   27.40
  -3  -6   2  393.28   57.35
   3  -6  -1 1012.62   95.23
  -3  -6   1 1020.14   62.06
  -3  -6   1  944.82   88.47
  -3  -6   1 1036.08   54.80
   3  -6   0   36.48   35.41
  -3  -6   0   38.58   21.41
  -3  -6   0   25.46   17.53
  -3  -6   0   37.28   34.24
   3  -6   1 2320.36  184.03
  -3  -6  -1 1437.49   83.45
  -3  -6  -1 1458.61  122.03
   3  -6   2 1486.54   82.20
   3  -6   2 1615.16  149.69
   3  -6   2 2803.98  197.19
  -3  -6  -2 1429.78   89.46
  -3  -6  -2 1528.34  130.94
   3  -6   3 2442.64  233.15
   3  -6   3 1792.16  131.24
   3   6   3 1751.56   88.83
   3  -6   3 1674.42   67.33
  -3  -6  -3 2009.64  110.46
   3  -6   4  327.34   64.25
   3   6   4  286.86   59.55
   3  -6   4  344.44  126.00
  -3  -6  -4  289.12   52.40
   3  -6   5  125.47   83.59
   3  -6   5  130.55  104.20
   3   6   5  117.20   51.81
  -3  -6  -5  160.48   30.80
   3  -6   6 1228.63  186.82
   3   6   6 1086.30  112.47
   3  -6   6 1042.63  105.28
  -3  -6  -6  973.31   72.69
   3  -6   7  839.15  171.31
   3  -6   7  831.66  102.55
   3   6   7  816.82   74.89
  -3  -6  -7  771.50   98.98
   3  -6   8  842.08  118.37
   3   6   8  909.31   83.10
   3  -6   8  898.16  111.19
  -3  -6  -8  812.83   78.62
   3  -7  -2  240.17   68.60
   3  -7  -1  399.49   80.46
   3  -7   0   96.93   53.55
   3  -7   1  -21.98   79.41
   3  -7   1  537.61  100.35
   3  -7   2  325.67   87.49
   3  -7   2  284.88   69.99
   4   0 -14   58.51   39.26
   4   0 -14   47.67   53.86
  -4   0  14   19.59   37.52
   4   0 -13  269.11   51.59
   4   0 -13  300.90   59.50
  -4   0  13  315.36   56.71
   4   0 -12  384.14   83.96
   4   0 -12  427.57   63.17
  -4   0  12  395.35   58.50
   4   0 -11  684.04   62.30
   4   0 -11  692.19  103.23
  -4   0  11  510.53   61.03
   4   0 -10  485.12   49.69
   4   0 -10  445.34   88.57
  -4   0  10  430.48   52.18
   4   0  -9 1782.16  142.66
   4   0  -9 1600.54  119.07
  -4   0   9 1706.55   93.20
   4   0  -8 2103.49  131.19
   4   0  -8 2306.99  154.15
  -4   0   8 2299.04  136.61
   4   0  -7    2.02   15.24
   4   0  -7   -0.07   11.99
  -4   0   7    0.88    9.73
   4   0  -6 2479.01  105.86
   4   0  -6 2444.73  116.30
  -4   0   6 2622.32  103.39
   4   0  -5 1878.92   72.48
   4   0  -5 1872.69  107.49
  -4   0   5 1988.15   78.25
   4   0  -4 1904.77   81.33
   4   0  -4 1958.30   86.28
  -4   0   4 1897.41   73.39
   4   0  -3 3441.34  129.14
   4   0  -3 3641.34  134.41
  -4   0   3 3284.71  113.89
   4   0  -2 8128.53  296.11
   4   0  -2 8769.52  294.24
  -4   0   210618.26  378.72
  -4   0   2 8887.21  319.73
   4   0  -121595.50  859.19
   4   0  -120421.78  759.51
  -4   0   119422.60  736.98
   4   0   0  986.51   55.84
   4   0   0  984.24   67.35
  -4   0   0  987.40   59.26
   4   0   1 3917.80  141.28
  -4   0  -1 4636.93  165.06
   4   0   2 1868.81   77.58
  -4   0  -2 1948.10   83.61
   4   0   3 8947.72  322.90
  -4   0  -3 8585.30  308.84
   4   0   4 2572.41  132.09
  -4   0  -4 2673.17  114.96
  -4   0  -4 2659.95   91.41
   4   0   5  901.44   74.84
  -4   0  -5  745.46   56.64
   4   0   6  807.37   77.19
  -4   0  -6  540.60   56.73
   4   0   7   30.59   37.26
  -4   0  -7   29.87   26.35
   4   0   8 1020.65   78.46
  -4   0  -8  763.57   81.14
   4   0   9  957.02   82.48
  -4   0  -9  867.51   88.22
   4   0  10  834.88  123.08
  -4   0 -10  841.21   91.66
   4   0  11 2563.03  163.63
  -4   0 -11 2816.99  177.82
   4   0  12  541.05   82.70
  -4   0 -12  519.80   87.02
   4   0  13  107.72   54.30
  -4   0 -13   72.74   59.22
   4   0  14  419.04   87.69
  -4   0 -14  372.07   94.52
   4   1 -14  335.66   57.54
   4   1 -14  377.42  110.34
   4  -1 -14  361.19   71.29
   4  -1 -14  309.16   79.90
  -4  -1  14  391.56   60.09
  -4   1  14  335.43   74.33
   4   1 -13   74.73   33.66
   4   1 -13   53.66   61.98
   4  -1 -13   57.44   58.00
   4  -1 -13   63.05   66.68
  -4  -1  13   38.97   33.25
  -4   1  13   41.82   41.18
   4  -1 -12  842.61   81.97
   4   1 -12  865.83  108.42
   4   1 -12  919.26   84.40
   4  -1 -12  928.57   88.17
  -4  -1  12  865.59   72.61
  -4   1  12  843.34   86.81
   4   1 -11 1435.16   91.25
   4   1 -11 1383.02   99.69
   4  -1 -11 1445.08   98.81
   4  -1 -11 1344.86  103.56
  -4  -1  11 1271.59   84.13
  -4   1  11 1322.01  100.53
   4   1 -10 3360.39  191.09
   4   1 -10 3384.60  168.22
   4  -1 -10 3470.45  173.67
   4  -1 -10 3354.69  166.90
  -4  -1  10 3115.53  147.30
  -4   1  10 3313.02  215.66
   4   1  -9  960.74  108.03
   4   1  -9  919.04   61.14
   4  -1  -9  974.98  102.87
   4  -1  -9  904.38   73.58
  -4  -1   9  838.57   57.70
  -4   1   9  890.40   73.94
   4   1  -8 1793.76  103.24
   4   1  -8 1760.33  110.65
   4  -1  -8 1832.90  131.51
   4  -1  -8 1821.08  102.26
  -4  -1   8 1795.76   83.68
  -4   1   8 1835.43  103.51
   4   1  -7 2216.64   92.32
   4   1  -7 2346.13  115.51
   4  -1  -7 2355.07  140.37
   4  -1  -7 2393.24  112.83
  -4  -1   7 2254.98  112.70
  -4   1   7 2435.73  149.24
   4   1  -6  741.62   80.70
   4   1  -6  774.00   38.01
   4  -1  -6  718.82   51.17
   4  -1  -6  776.94   51.09
  -4  -1   6  714.62   37.79
  -4   1   6  733.92   52.01
   4   1  -5 2908.13  110.68
   4   1  -5 2901.94  123.81
   4  -1  -5 3037.93  117.85
   4  -1  -5 2992.31  118.33
  -4  -1   5 2956.63   98.45
  -4  -1   5 2617.06  108.76
  -4   1   5 2986.65  124.12
   4   1  -4 6361.30  199.89
   4   1  -4 6165.58  235.87
   4  -1  -4 6422.32  255.54
   4  -1  -4 5609.01  213.39
  -4  -1   4 6432.39  217.03
  -4  -1   4 6301.54  228.54
  -4   1   4 6465.66  268.32
   4   1  -3  347.92   36.91
   4   1  -3  378.37   21.66
   4  -1  -3  366.05   45.76
   4  -1  -3  337.28   28.15
  -4  -1   3  293.52   22.58
  -4  -1   3  334.79   31.24
  -4   1   3  338.98   33.39
   4   1  -216539.41  542.75
   4   1  -215273.72  588.44
   4  -1  -215084.79  547.85
   4  -1  -213814.97  557.81
  -4  -1   213414.33  456.43
  -4  -1   215667.16  611.25
  -4   1   213455.85  556.71
   4   1  -1 3556.89  139.93
   4   1  -1 3881.92  106.22
   4  -1  -1 3549.31  131.43
   4  -1  -1 3516.16  116.60
  -4  -1   1 3683.19  133.88
  -4   1   1 3685.40  163.76
   4  -1   0  957.24   38.89
   4   1   0  960.13   35.84
   4   1   0  932.14   32.94
   4   1   0  925.27   56.01
   4  -1   0  929.88   50.25
  -4  -1   0  942.96   70.54
   4  -1   1 1572.05   73.55
   4   1   1 1633.51   59.48
  -4  -1  -1 1580.40   70.77
   4  -1   251828.39 2440.55
   4   1   245984.70 2085.93
  -4   1  -250764.74 2183.56
  -4  -1  -252376.80 2342.45
  -4  -1  -250157.06 2315.75
   4  -1   3 1111.62   95.67
   4   1   3 1032.86   57.78
  -4   1  -3 1035.67   33.97
  -4  -1  -3 1125.60   50.37
  -4  -1  -3 1066.43   56.36
   4  -1   4 6337.75  252.22
   4   1   4 6433.71  228.45
  -4   1  -4 6575.04  195.94
  -4  -1  -4 6719.78  244.28
   4  -1   5 2449.30  115.05
   4   1   5 2581.30  100.57
  -4   1  -5 2145.77  119.38
  -4   1  -5 2564.46   77.88
  -4  -1  -5 2527.79  104.79
   4  -1   6 1134.19  107.74
   4   1   6 1076.85   82.19
  -4   1  -6 1210.68   89.07
  -4  -1  -6 1130.00   91.73
   4  -1   7  680.20   97.08
   4   1   7  662.89   51.27
  -4   1  -7  495.81   69.72
  -4  -1  -7  524.30   80.33
   4  -1   8 2376.12  138.42
   4   1   8 2414.97  159.03
  -4   1  -8 2467.56  154.34
  -4  -1  -8 2249.43  121.72
   4  -1   9 1946.45  128.99
   4   1   9 1947.87  114.18
  -4   1  -9 2172.97  205.30
  -4  -1  -9 1822.85  114.76
   4  -1  10 4322.30  230.66
   4   1  10 4091.16  259.19
  -4   1 -10 4288.78  246.41
  -4  -1 -10 3916.96  206.83
   4  -1  11 3352.48  203.90
   4   1  11 3295.19  186.40
  -4   1 -11 3587.82  227.07
  -4  -1 -11 3391.68  250.93
   4  -1  12  739.45   98.64
   4   1  12  650.56  131.32
  -4   1 -12  754.10  109.53
   4  -1  13  169.85   65.26
   4   1  13  169.46   57.83
  -4   1 -13  160.16   73.27
  -4  -1 -13  138.73   63.44
   4  -1  14  154.36  104.26
   4   1  14  115.93   58.53
  -4   1 -14   93.59   70.97
  -4  -1 -14   92.12   63.32
   4   2 -14  436.53   80.37
   4   2 -14  468.20   68.30
   4  -2 -14  527.01   86.35
   4  -2 -14  649.39   95.31
  -4  -2  14  496.97   97.41
  -4   2  14  455.49   93.51
   4   2 -13  526.11   67.23
   4   2 -13  562.90   77.21
   4  -2 -13  537.06   85.39
  -4  -2  13  527.45   61.29
  -4   2  13  585.67   89.87
   4   2 -12  810.97   75.20
   4   2 -12  881.58   87.07
   4  -2 -12 1014.56  146.88
  -4  -2  12  826.71   69.40
  -4   2  12  899.68  146.36
   4   2 -11   38.34   39.29
   4   2 -11   37.67   30.77
   4  -2 -11   34.72   35.13
  -4  -2  11   25.66   21.89
  -4   2  11   31.30   56.94
   4   2 -10  432.32   47.68
   4   2 -10  469.52   92.43
   4  -2 -10  520.66   66.16
  -4  -2  10  445.25   62.53
  -4   2  10  423.66   66.82
   4   2  -9 1504.70   78.68
   4   2  -9 1437.62   98.50
   4  -2  -9 1548.06  105.72
  -4  -2   9 1378.02   93.95
  -4   2   9 1409.23  105.04
   4   2  -8 3821.83  152.81
   4   2  -8 3751.38  182.49
   4  -2  -8 3987.40  191.76
  -4  -2   8 3635.08  166.75
  -4   2   8 3762.58  238.59
   4   2  -7 1628.72   69.52
   4   2  -7 1603.57  135.04
   4  -2  -7 1683.57  101.57
  -4  -2   7 1561.62   64.58
  -4   2   7 1678.98  103.94
   4   2  -6 1282.03   81.26
   4   2  -6 1286.46   52.66
   4  -2  -6 1363.92   81.12
  -4  -2   6 1248.21   49.59
  -4  -2   6 1292.81   71.33
  -4   2   6 1186.01   83.32
   4   2  -5  630.67   37.68
   4  -2  -5  710.65   53.05
   4   2  -5  669.05   84.51
  -4  -2   5  684.65   27.66
  -4  -2   5  757.92   71.94
  -4   2   5  713.82   85.61
   4   2  -4 4666.68  194.08
   4  -2  -4 4912.76  195.07
  -4  -2   4 4863.50  187.03
  -4  -2   4 4935.97  148.53
  -4   2   4 4898.19  244.15
   4   2  -3 1518.61   80.18
   4  -2  -3 1558.40   76.65
  -4  -2   3 1605.27   76.12
  -4   2   3 1552.54   82.23
   4   2  -2 5333.38  249.58
   4  -2  -2 5450.12  212.08
  -4  -2   2 5607.55  241.27
  -4   2   2 5631.62  224.29
   4  -2  -1  957.67   80.64
   4  -2  -1  937.77   37.15
  -4  -2   1 1045.51   57.56
  -4   2   1  981.88   85.32
   4  -2   0 2245.63   99.57
   4  -2   0 2166.27   65.52
  -4  -2   0 2307.88   99.06
   4   2   1 2428.17   59.93
   4  -2   1 2629.50   79.17
   4  -2   1 2611.69  113.63
  -4  -2  -1 2864.16  146.69
  -4  -2  -1 2622.48   66.92
   4   2   2 5654.99  176.98
   4  -2   2 5886.84  232.70
   4  -2   2 5501.23  153.65
  -4  -2  -2 5913.92  192.25
  -4  -2  -2 5913.38  230.59
   4   2   3 2518.63   89.98
   4  -2   3 2492.57  126.56
  -4  -2  -3 2330.20   79.40
   4   2   4 4006.09  137.03
   4  -2   4 4161.20  236.81
  -4  -2  -4 3954.86  139.55
   4   2   5 1021.94   49.53
   4  -2   5 1074.89   80.73
  -4  -2  -5 1087.69   53.56
   4   2   6 2653.80  110.04
   4  -2   6 2741.40  147.09
  -4  -2  -6 2701.38  115.75
   4   2   7  423.68   40.46
   4  -2   7  399.49   62.53
  -4  -2  -7  347.34   67.21
   4   2   8 4962.90  215.55
   4  -2   8 5111.44  253.29
  -4  -2  -8 4903.60  218.08
  -4   2  -8 4730.73  271.12
   4   2   9 1752.98  134.17
   4  -2   9 1701.17  125.31
  -4  -2  -9 1592.44  103.62
  -4   2  -9 1581.36   46.15
  -4   2  -9 1886.88  150.90
   4   2  10 1406.41   97.00
   4  -2  10 1496.47  123.56
  -4  -2 -10 1530.69  106.58
  -4   2 -10 1689.53  151.24
  -4   2 -10 1491.87   49.64
   4   2  11    7.51   24.51
   4  -2  11    4.52   53.52
  -4  -2 -11   23.09   27.06
  -4   2 -11   23.56   40.52
  -4   2 -11    9.49    5.86
   4   2  12 2510.19  161.19
   4  -2  12 2541.08  192.25
  -4  -2 -12 2576.81  230.49
  -4   2 -12 2898.69  310.46
   4   2  13  916.25  148.02
   4  -2  13  948.30  124.41
  -4  -2 -13  908.98  108.24
  -4   2 -13  917.47  215.87
   4   3 -13  164.80   62.62
   4  -3 -13  181.56   96.64
   4   3 -13   -1.01   45.85
  -4  -3  13   90.82   52.57
  -4   3  13  188.83   98.04
   4   3 -12   -0.29   41.64
   4  -3 -12  152.72   53.72
   4   3 -12  119.15   54.62
  -4  -3  12   81.97   29.00
  -4   3  12  125.18   89.46
   4   3 -11   27.14   38.59
   4   3 -11   -0.34   51.00
  -4  -3  11   19.53   20.86
  -4   3  11   82.26   41.13
   4   3 -10  386.32   92.48
   4   3 -10  376.22   65.40
   4  -3 -10  474.52   74.03
  -4  -3  10  357.83   55.95
  -4   3  10  450.15   75.95
   4   3  -9  967.17   82.63
   4  -3  -9 1017.73   97.14
   4   3  -9  863.50   79.66
  -4  -3   9  877.84   69.80
  -4   3   9  975.95  143.41
   4   3  -8  239.21   30.07
   4  -3  -8  290.39   58.41
   4   3  -8  264.33   47.67
  -4  -3   8  259.27   26.02
  -4   3   8  254.22   57.86
   4   3  -7 5419.15  222.67
   4  -3  -7 5969.45  278.05
   4   3  -7 5069.92  237.99
  -4  -3   7 5301.98  191.16
  -4   3   7 5371.00  268.05
  -4  -3   7 5896.17  284.75
   4   3  -6  671.32   36.78
   4  -3  -6  765.07   71.17
   4   3  -6  677.55   66.15
  -4  -3   6  724.42   85.81
  -4  -3   6  691.49   31.46
  -4   3   6  726.41   76.82
   4   3  -5 3106.77  154.67
   4  -3  -5 3332.86  161.87
  -4  -3   5 3088.49  102.36
  -4   3   5 3279.40  173.67
  -4  -3   5 3191.29  142.35
   4   3  -4  813.67   71.01
   4  -3  -4  820.56   65.18
  -4  -3   4  904.47   61.65
  -4   3   4  794.83  109.69
   4  -3  -3  211.05   57.77
  -4  -3   3  187.18   33.92
  -4   3   3  185.88   43.11
   4  -3  -2 1856.65   97.26
  -4   3   2 1928.33  108.33
  -4  -3   2 1864.78  127.66
   4  -3  -1 1751.02   94.29
  -4  -3   1 1789.89   94.23
  -4   3   1 1831.19  101.31
   4  -3   0  308.02   65.25
  -4  -3   0  296.94   42.04
   4  -3   1 1375.67   79.58
   4   3   1 1122.47   33.08
  -4  -3  -1 1151.57   31.82
  -4  -3  -1 1416.87   81.11
   4  -3   2 1583.39   94.57
   4   3   2 1534.84   47.28
  -4  -3  -2 1427.79   53.22
  -4  -3  -2 1548.03   94.97
   4  -3   3  172.22   41.13
   4  -3   3  199.61   51.30
   4   3   3  174.18   22.80
  -4  -3  -3  159.48   15.69
   4  -3   4 2754.91  216.92
   4  -3   4 2583.03  140.01
   4   3   4 2614.03   94.81
  -4  -3  -4 2457.50   91.00
   4   3   5 3085.48  119.83
   4  -3   5 3135.75  176.65
  -4  -3  -5 2965.78  117.24
   4  -3   6  814.02   88.04
   4   3   6  768.99   68.47
  -4  -3  -6  780.90   51.31
   4   3   7 4364.09  184.06
   4  -3   7 4490.81  238.82
  -4  -3  -7 4458.33  190.22
   4  -3   8  491.12   75.43
   4   3   8  466.47   46.42
  -4  -3  -8  429.98   74.39
   4  -3   9  683.44   85.17
   4   3   9  600.96   57.72
  -4  -3  -9  595.23   61.52
   4  -3  10  259.85   64.20
   4   3  10  182.56   42.65
  -4  -3 -10  221.78   48.05
   4   3  11  363.28   56.48
   4  -3  11  410.07  124.08
  -4  -3 -11  351.40   62.49
   4  -3  12   60.77   48.64
   4   3  12   29.74   34.86
  -4  -3 -12   32.50   63.04
   4   3  13   34.25   61.67
   4  -3  13   66.38   53.75
  -4  -3 -13   21.03   44.21
   4   4 -11    0.60   91.20
   4   4 -11  209.46   43.09
   4  -4 -11  317.04  128.32
  -4  -4  11  266.31   35.07
  -4   4  11  323.36   80.64
   4   4 -10  869.81   87.64
   4  -4 -10 1073.80  179.27
  -4  -4  10  856.31   55.20
  -4   4  10  935.95  113.86
   4   4  -9   26.52   31.94
   4  -4  -9  105.23   44.81
  -4  -4   9   13.71   25.10
  -4   4   9   43.07   43.97
   4   4  -8  732.78  113.96
   4  -4  -8 1036.73  103.69
  -4  -4   8  846.05   68.00
  -4  -4   8  770.06   42.95
  -4   4   8  884.13  101.17
   4   4  -7  788.48   81.96
   4  -4  -7  985.64  100.02
  -4  -4   7  874.65   68.31
  -4  -4   7  866.70   54.06
  -4   4   7  929.24  155.93
   4  -4  -6 3465.96  189.76
  -4  -4   6 3082.09  115.95
  -4  -4   6 3066.40  184.71
  -4  -4   6 2726.40  106.04
  -4   4   6 3216.50  190.91
   4  -4  -5  511.65   65.95
  -4  -4   5  445.55   79.31
  -4  -4   5  444.02   27.13
  -4  -4   5  416.01   24.72
  -4   4   5  418.58   71.43
   4  -4  -4 3399.37  177.95
  -4  -4   4 3625.00  104.04
  -4  -4   4 3426.57  162.30
  -4  -4   4 3168.76   92.11
  -4   4   4 3501.61  195.08
   4  -4  -3 1327.49   95.82
  -4  -4   3 1344.67   89.21
  -4   4   3 1343.45  160.45
   4  -4  -2 1387.23  139.42
  -4  -4   2 1548.36   97.30
  -4   4   2 1427.84  159.38
   4  -4  -1  232.24   81.63
  -4  -4   1  295.24   51.14
   4  -4   011753.94  511.52
  -4  -4   011913.04  514.83
  -4  -4   010656.07  321.69
   4  -4   1 1111.85   90.67
  -4  -4  -1 1127.70   93.91
  -4  -4  -1 1076.23   38.42
   4   4   2 3901.64  139.01
   4  -4   2 3780.77  192.57
  -4  -4  -2 3664.76  128.30
  -4  -4  -2 3826.08  201.32
   4   4   3 1332.65   55.38
   4  -4   3 1377.33  103.83
   4  -4   3 1441.46  127.43
  -4  -4  -3 1411.08   55.35
   4   4   4  859.21   48.09
   4  -4   4 1046.85  107.06
   4  -4   4  952.57  138.10
  -4  -4  -4 1130.74   50.69
   4   4   5  344.47   31.23
   4  -4   5  384.05  105.22
   4  -4   5  391.46   75.48
  -4  -4  -5  388.43   46.30
   4   4   6 2020.15   96.27
   4  -4   6 2210.62  143.44
   4  -4   6 2232.78  221.75
  -4  -4  -6 2034.19   94.93
   4   4   7 1766.38  118.20
   4  -4   7 2047.22  208.25
  -4  -4  -7 1742.31   90.58
   4   4   8  993.66   70.20
   4  -4   8 1051.71  111.74
  -4  -4  -8 1003.92   95.96
   4   4   9  371.34   74.10
   4  -4   9  401.95   79.57
  -4  -4  -9  349.50   47.80
   4   4  10   74.34   72.19
   4  -4  10  314.16   74.87
  -4  -4 -10  257.36   47.92
   4   4  11   -0.05   57.09
   4  -4  11  148.67   55.02
  -4  -4 -11   27.99   59.80
   4  -5 -10   63.79   96.38
  -4   5  10   43.92   98.63
   4  -5  -9  520.34  150.58
  -4  -5   9  428.30   56.49
  -4   5   9  478.00   99.93
   4  -5  -8   32.06   39.74
  -4  -5   8    0.01   22.87
  -4   5   8   38.91   40.89
   4  -5  -7  618.30   93.03
  -4  -5   7  588.20   57.14
  -4   5   7  487.26   92.87
  -4  -5   7  493.97   42.91
   4  -5  -6 2760.37  182.70
  -4  -5   6 2395.57  131.47
  -4  -5   6 2338.80   96.97
  -4  -5   6 2283.63   93.82
  -4   5   6 2410.85  245.87
   4  -5  -5 1548.99  124.46
  -4  -5   5 1275.89   52.79
  -4  -5   5 1360.55   92.63
  -4  -5   5 1286.76   52.95
  -4   5   5 1471.90  128.66
   4  -5  -4  527.00   71.74
  -4  -5   4  533.35   59.08
  -4  -5   4  384.22   21.76
  -4  -5   4  447.65   17.93
  -4   5   4  411.87   79.54
   4  -5  -3  938.45   91.82
  -4  -5   3  905.19   29.33
  -4  -5   3  987.33   80.99
  -4   5   3  861.36  146.49
  -4  -5   3  909.09   29.66
   4  -5  -2  976.91   91.11
  -4  -5   2 1017.02   85.71
  -4  -5   2 1043.06   30.65
  -4  -5   2  967.85   25.67
   4  -5  -1 1077.14   93.28
  -4  -5   1 1088.03   91.10
  -4  -5   1 1110.13   35.88
  -4  -5   1 1030.96   32.79
   4  -5   0  519.47   68.18
  -4  -5   0  546.53   69.68
  -4  -5   0  518.29   19.21
  -4  -5   0  549.72   22.35
   4  -5   1  821.65   85.25
  -4  -5  -1  866.35   39.40
  -4  -5  -1  830.37   89.80
   4  -5   2 1677.43  163.36
   4  -5   2 1234.79   56.65
  -4  -5  -2 1191.25  156.00
  -4  -5  -2 1188.56   57.48
   4  -5   3 2073.79  195.63
   4   5   3 1922.23   77.91
   4  -5   3 2079.97  163.42
   4  -5   3 1829.25   51.93
  -4  -5  -3 1979.90  143.57
  -4  -5  -3 1713.62   84.31
   4  -5   4 2009.09  160.18
   4   5   4 1956.85  105.83
   4  -5   4 1752.01  130.31
  -4  -5  -4 1658.03   72.51
   4   5   5  967.85   60.65
   4  -5   5  990.67  105.89
   4  -5   5 1124.35  123.28
  -4  -5  -5 1080.34   78.91
   4  -5   6 2713.81  249.06
   4   5   6 2579.08  124.81
   4  -5   6 2887.59  203.52
  -4  -5  -6 2705.58  124.42
   4   5   7  451.80   48.23
   4  -5   7  482.71   94.59
   4  -5   7  506.87   86.09
  -4  -5  -7  447.02   68.97
   4   5   8   57.37   45.14
   4  -5   8   99.07   54.11
   4  -5   8   67.42   81.99
  -4  -5  -8   57.84   28.14
   4   5   9  189.46   41.13
   4  -5   9  179.47   72.76
   4  -5   9  150.24   70.40
  -4  -5  -9  179.79   41.02
   4  -6  -7   64.40   48.91
  -4  -6   7   -0.03   27.02
  -4   6   7   63.92   50.47
   4  -6  -6   62.95   43.98
  -4  -6   6    0.09   26.46
  -4   6   6   56.21   71.95
   4  -6  -5  180.49  110.18
  -4  -6   5  186.11   46.47
  -4   6   5  180.43   71.46
   4  -6  -4  268.18  107.66
  -4   6   4  200.45   70.48
   4  -6  -3  670.17   92.18
  -4  -6   3  648.94   76.15
   4  -6  -2    2.45   21.85
  -4  -6   2   -0.28   18.89
   4  -6  -1  184.77   56.91
  -4  -6   1  173.76   53.72
   4  -6   0  400.54   72.06
  -4  -6   0  410.54  110.65
   4  -6   1  110.07   50.20
  -4  -6  -1  140.89   52.37
   4  -6   2   32.87   58.33
   4  -6   2   22.62   47.31
  -4  -6  -2   18.53   38.15
   4  -6   3  103.35  122.10
   4  -6   3  149.29   60.23
  -4  -6  -3  127.46  111.28
  -4  -6  -3  246.29   35.44
   4   6   4  315.89   35.53
   4  -6   4  319.76   72.05
   4  -6   4  384.55  142.47
  -4  -6  -4  332.55   31.27
  -4  -6  -4  375.59   83.05
   4   6   5  401.15   42.61
   4  -6   5  476.66  152.67
   4  -6   5  343.33  119.72
  -4  -6  -5  385.85   37.20
   4   6   6  164.34   53.93
   4  -6   6  182.13   78.03
   4  -6   6  161.32   62.01
  -4  -6  -6  187.79   33.01
   4   6   7  449.25   53.33
   4  -6   7  349.59  137.55
   4  -6   7  439.69   98.73
  -4  -6  -7  393.67   48.08
   5   0 -14    8.70   26.02
  -5   0  14   -1.46   41.51
   5   0 -13  291.47   52.29
   5   0 -13  177.81   99.11
  -5   0  13   35.82   81.12
   5   0 -12  456.36   62.94
   5   0 -12  472.03  109.13
  -5   0  12  400.29   92.15
   5   0 -11  145.12   82.02
   5   0 -11  218.20   44.08
  -5   0  11  248.19   67.46
   5   0 -10 1098.40  133.27
   5   0 -10 1222.09  112.14
  -5   0  10 1004.95   76.19
   5   0  -9  296.15   40.40
   5   0  -9   75.30   78.75
  -5   0   9  250.08   40.53
   5   0  -8  806.53  110.40
   5   0  -8  934.67   60.57
  -5   0   8  722.31   85.87
   5   0  -7 6754.42  294.88
   5   0  -7 7066.05  275.14
  -5   0   7 6555.63  269.88
   5   0  -6 2380.11  118.14
   5   0  -6 2589.14  100.29
  -5   0   6 1907.52   91.76
   5   0  -5  502.95   44.92
   5   0  -5  498.91   68.57
  -5   0   5  409.09   33.21
   5   0  -4 1665.85   64.47
   5   0  -4 1586.52   79.53
  -5   0   4 1700.46   86.06
   5   0  -3 3708.93  147.56
   5   0  -3 3768.54  128.40
  -5   0   3 3641.51  128.11
   5   0  -2  801.30   51.01
   5   0  -2  786.53   50.29
  -5   0   2  883.22   65.58
  -5   0   2  844.04   56.36
   5   0  -124537.47 1032.40
   5   0  -124201.10  953.74
  -5   0   123636.63  976.09
   5   0   0 8248.22  303.06
   5   0   0 8273.54  303.83
  -5   0   0 8205.40  288.09
   5   0   1 5497.57  193.43
   5   0   1 6187.92  219.83
   5   0   1 5177.23  192.07
  -5   0  -1 5950.20  199.19
   5   0   2  785.22   44.72
  -5   0  -2  817.76   37.54
   5   0   3 1312.14   83.68
  -5   0  -3 1347.44   67.08
   5   0   4 2388.32  102.09
  -5   0  -4 2203.66   80.35
   5   0   5 1938.43   95.37
  -5   0  -5 2022.35   77.42
  -5   0  -5 2114.02  111.15
   5   0   610544.83  444.62
  -5   0  -611328.22  486.32
   5   0   710170.35  444.48
  -5   0  -710816.11  486.11
   5   0   8 2663.10  150.47
  -5   0  -8 3090.58  174.47
   5   0   9 1169.67  135.03
  -5   0  -9 1200.36  107.62
   5   0  10 2281.91  149.76
  -5   0 -10 2477.00  168.04
   5   0  11   -4.91   23.46
  -5   0 -11   11.33   26.44
   5   0  12 1260.49  178.98
  -5   0 -12 1341.72  136.41
   5   0  13 1325.55  135.64
  -5   0 -13 1387.07  147.75
   5  -1 -13  413.19   70.63
   5   1 -13  357.03   90.38
   5   1 -13  413.32   76.96
   5  -1 -13  400.71   77.05
  -5   1  13  344.73   73.88
  -5  -1  13  387.82   88.07
   5  -1 -12  717.63   90.93
   5   1 -12  775.44   72.19
   5   1 -12  809.79   90.90
   5  -1 -12  823.51  128.05
  -5  -1  12  646.11   98.50
  -5   1  12  696.82  127.61
   5   1 -11  818.47   86.66
   5   1 -11  819.84   94.74
   5  -1 -11  907.76   83.25
   5  -1 -11  668.65   83.45
  -5  -1  11  500.35   88.19
  -5   1  11  652.62  118.27
   5   1 -10 1185.88   97.22
   5   1 -10 1189.72   76.02
   5  -1 -10 1056.37   96.69
   5  -1 -10 1335.20   94.81
  -5  -1  10  890.50   94.74
  -5   1  10 1088.46   89.76
   5  -1  -9  373.93   56.69
   5   1  -9  425.70   60.16
   5   1  -9  422.45   62.06
   5  -1  -9  462.76   53.36
  -5  -1   9  303.66   38.21
  -5   1   9  365.59   53.31
   5  -1  -8 1557.64   92.55
   5  -1  -8 1490.59   97.33
   5   1  -8 1589.47  142.32
   5   1  -8 1508.14   76.09
  -5   1   8 1588.33  134.64
  -5  -1   8 1490.05   74.54
   5  -1  -7 1502.35   90.96
   5  -1  -7 1474.62   83.74
   5   1  -7 1476.79   68.49
   5   1  -7 1502.19   99.22
  -5   1   7 1621.17   93.27
  -5  -1   7 1574.31   70.60
   5  -1  -6 6585.77  264.64
   5  -1  -6 6733.15  275.48
   5   1  -6 6608.62  284.07
   5   1  -6 6414.68  230.25
  -5   1   6 6977.73  287.74
  -5  -1   6 7017.12  251.25
   5  -1  -5 3594.54  180.19
   5  -1  -5 3587.05  173.90
   5   1  -5 3504.68  118.55
   5   1  -5 3621.31  163.79
  -5   1   5 3662.58  155.86
  -5  -1   5 3735.59  126.71
  -5  -1   5 3500.07  147.67
   5  -1  -4 4819.77  186.79
   5  -1  -4 5071.32  194.15
   5   1  -4 4957.47  157.19
   5   1  -4 4937.26  244.86
  -5   1   4 5099.88  202.35
  -5  -1   4 4769.47  188.74
  -5  -1   4 4923.18  159.84
   5  -1  -3 4007.52  151.37
   5  -1  -3 4244.69  160.66
   5   1  -3 3807.72  113.74
   5   1  -3 4087.91  201.94
  -5   1   3 4305.36  191.58
  -5  -1   3 4034.15  122.69
  -5  -1   3 3979.29  154.75
   5  -1  -2 4190.85  178.24
   5  -1  -2 4191.86  183.67
   5   1  -2 4151.90  203.37
   5   1  -2 4361.51  131.83
  -5   1   2 4142.01  163.27
  -5  -1   2 4025.42  156.34
   5  -1  -1 2602.44  125.33
   5  -1  -1 2611.90   96.25
   5   1  -1 2658.96   80.43
   5   1  -1 2617.36  114.00
   5   1  -1 2650.02   78.60
  -5  -1   1 2423.70   98.99
   5  -1   0 3512.28  139.70
   5  -1   0 3746.67  167.13
   5   1   0 3555.06  147.26
   5   1   0 3666.52  119.26
   5   1   0 3669.80  115.62
  -5  -1   0 3531.64  161.17
   5  -1   1  651.06   45.33
   5   1   1  643.31   36.75
   5   1   1  731.27   38.66
  -5   1  -1  689.51   29.48
  -5  -1  -1  706.57   42.61
   5  -1   2 6870.23  265.34
   5  -1   2 7540.74  298.76
   5   1   2 6988.03  249.97
  -5   1  -2 6971.26  218.02
  -5  -1  -2 7238.35  266.73
   5  -1   3 2128.83  139.81
   5   1   3 2236.67   98.14
  -5   1  -3 2101.67   70.12
  -5  -1  -3 2143.98  117.78
   5  -1   4 4702.39  200.61
   5   1   4 5475.02  213.91
  -5   1  -4 4586.70  143.56
  -5  -1  -4 5126.86  228.44
  -5  -1  -4 4890.16  188.98
   5  -1   5 1242.44   81.77
   5   1   5 1311.71   65.39
  -5   1  -5 1355.25   48.14
  -5  -1  -5  985.14   67.40
   5  -1   6 2392.26  128.69
   5   1   6 2213.48  103.77
  -5   1  -6 2427.37   82.58
  -5  -1  -6 1872.39  145.13
   5  -1   7  483.08   62.22
   5   1   7  446.25   71.46
  -5   1  -7  497.74   75.38
  -5   1  -7  462.96   23.15
  -5  -1  -7  376.49   53.75
   5  -1   8 1232.78   99.05
   5   1   8 1141.22   80.77
  -5   1  -8 1295.40  117.30
  -5  -1  -8 1172.27   89.35
   5  -1   9 1463.47  111.40
   5   1   9 1334.40  134.83
  -5   1  -9 1550.21  190.47
  -5  -1  -9 1473.28  152.51
   5  -1  10 3174.87  256.30
   5   1  10 3084.41  174.26
  -5   1 -10 3262.30  214.00
  -5  -1 -10 3317.70  247.32
   5  -1  11 3353.80  209.72
   5   1  11 3173.16  242.91
  -5   1 -11 3559.85  235.84
  -5  -1 -11 3174.06  265.08
   5  -1  12 1872.00  160.65
   5   1  12 1852.03  142.11
  -5   1 -12 1894.01  175.66
  -5  -1 -12 1968.19  214.26
   5  -1  13  823.79  115.28
   5   1  13  907.35  152.97
  -5   1 -13  849.97  131.85
  -5  -1 -13  809.52  113.95
   5   2 -13 1015.78   86.91
   5   2 -13  966.62  108.98
   5  -2 -13 1065.88  111.76
   5  -2 -13 1056.75  117.19
  -5  -2  13  889.89   78.46
  -5   2  13 1038.38  118.57
   5   2 -12  102.62   59.96
   5   2 -12  143.51   55.72
   5  -2 -12  204.64   59.84
   5  -2 -12  131.42   54.46
  -5  -2  12  137.38   53.77
  -5   2  12  160.74   90.21
   5   2 -11  182.77   36.45
   5   2 -11  159.80   53.30
   5  -2 -11  217.72   52.30
   5  -2 -11  192.34   88.08
  -5  -2  11  161.92   50.49
  -5   2  11  188.97   57.40
   5   2 -10  669.56   54.90
   5   2 -10  735.77   79.85
   5  -2 -10  667.67   75.26
   5  -2 -10  795.28  122.19
  -5  -2  10  567.34   70.08
  -5   2  10  699.64   83.07
   5   2  -9   36.51   34.27
   5   2  -9   43.76   38.06
   5  -2  -9   41.60   34.83
   5  -2  -9  211.54   37.02
  -5  -2   9   33.53   20.04
  -5   2   9   51.27   38.23
   5   2  -8 1824.71  104.03
   5   2  -8 1958.16  172.53
   5  -2  -8 2095.29  123.34
  -5  -2   8 1871.53   80.20
  -5   2   8 2063.67  127.23
   5   2  -7 1731.42   88.06
   5   2  -7 1677.06  111.65
   5  -2  -7 1823.94  109.40
  -5  -2   7 1767.27   69.42
  -5   2   7 1792.54  112.45
   5   2  -6  686.35   45.42
   5   2  -6  785.31  105.14
   5  -2  -6  910.27   96.04
   5  -2  -6  711.31   59.08
  -5  -2   6  641.33   31.94
  -5  -2   6  823.38   60.84
  -5   2   6  823.98   69.53
   5   2  -5  508.32   61.21
   5   2  -5  548.66   32.46
   5  -2  -5  582.55   54.64
   5  -2  -5  536.15   47.56
  -5  -2   5  577.63   31.04
  -5  -2   5  569.60   51.61
  -5   2   5  615.46   60.85
   5   2  -4 4857.16  215.75
   5   2  -4 4809.05  142.64
   5  -2  -4 5108.45  213.09
   5  -2  -4 5008.85  196.21
  -5  -2   4 4905.85  241.85
  -5  -2   4 5063.50  140.38
  -5   2   4 5069.24  219.16
   5   2  -3 1341.44  122.90
   5  -2  -3 1302.11  100.76
   5  -2  -3  893.60   75.40
  -5  -2   3 1416.86  106.60
  -5   2   3 1184.05   77.99
   5   2  -2 3649.43  208.07
   5  -2  -2 3584.21  151.76
   5  -2  -2 3352.73  121.36
  -5  -2   2 3383.78  144.13
  -5   2   2 3655.16  161.70
   5  -2  -1 3984.74  199.39
  -5  -2   1 4191.77  170.33
   5  -2   0 6032.80  199.53
   5  -2   0 6519.86  259.73
  -5  -2   0 6296.51  246.90
   5   2   112137.41  374.30
   5   2   111008.49  339.01
   5  -2   111326.55  456.83
   5  -2   111345.70  393.84
  -5  -2  -111353.62  452.72
   5   2   2  764.34   34.16
   5  -2   2  967.73   66.20
  -5  -2  -2 1029.90   64.20
   5   2   3 4894.70  172.68
   5  -2   3 5544.44  252.99
   5  -2   3 5297.30  228.72
  -5  -2  -3 5239.95  217.35
  -5  -2  -3 5843.53  209.18
   5   2   4 2020.51   79.33
   5  -2   4 2744.76  193.58
  -5  -2  -4 2663.00  127.35
   5   2   5   91.22   18.71
   5  -2   5  174.58   65.66
  -5  -2  -5   34.42   34.76
   5   2   6  970.71   76.42
   5  -2   6 1019.34   87.14
  -5  -2  -6 1013.70   63.54
   5   2   7  676.46   72.24
   5  -2   7  724.18   77.94
  -5  -2  -7  459.46   80.89
   5   2   8 1048.93   71.10
   5  -2   8 1109.70   99.63
  -5  -2  -8  975.68  106.01
   5   2   9  553.99   56.25
   5  -2   9  584.18  121.59
  -5  -2  -9  562.64   91.53
   5   2  10  965.35   79.16
   5  -2  10  995.81  162.79
  -5  -2 -10 1003.98  126.28
   5   2  11   65.00   57.33
   5  -2  11   76.36   50.21
  -5   2 -11   34.28   61.76
   5   2  12  444.14   70.99
   5  -2  12  476.58   93.71
  -5  -2 -12  491.04  120.54
  -5   2 -12  528.75  114.31
   5   2  13  816.07   96.90
   5  -2  13  918.11  186.17
  -5  -2 -13  733.65  105.89
  -5   2 -13  977.02  150.16
   5   3 -12   -0.35   88.81
   5   3 -12  175.78   37.81
   5  -3 -12  164.57  102.38
  -5  -3  12  142.83   32.36
  -5   3  12  185.20  106.64
   5   3 -11  287.78   64.12
   5   3 -11  320.13   41.35
  -5  -3  11  285.54   35.86
  -5   3  11  307.70   76.83
   5   3 -10   97.87   41.87
   5  -3 -10  144.79   53.58
   5   3 -10  130.90   47.53
  -5  -3  10  120.68   23.50
  -5   3  10  132.80   55.27
   5   3  -9  992.66   93.26
   5   3  -9 1026.59   79.04
   5  -3  -9 1243.68  105.56
  -5  -3   9  916.06   51.12
  -5   3   9 1101.64  154.68
   5   3  -8  524.90  104.83
   5   3  -8  521.90   35.26
   5  -3  -8  741.05   76.69
  -5  -3   8  497.76   31.22
  -5  -3   8  463.99   59.97
  -5   3   8  631.21   79.28
   5   3  -7 1107.42   96.10
   5  -3  -7 1387.64  104.46
  -5  -3   7 1316.31  122.76
  -5   3   7 1205.76  105.32
   5   3  -6 1730.89  157.04
   5  -3  -6 1895.88  116.77
  -5  -3   6 1491.20   47.31
  -5  -3   6 1911.78  137.60
  -5   3   6 1750.36  122.55
   5  -3  -5  635.55   64.72
   5   3  -5  542.55   65.47
  -5  -3   5  507.37   16.51
  -5  -3   5  534.11   83.34
  -5   3   5  562.61   70.17
   5   3  -4 2561.05  147.86
   5  -3  -4 2551.39  179.48
  -5  -3   4 2515.63  174.72
  -5   3   4 2613.74  203.75
   5  -3  -3 3830.22  219.81
  -5   3   3 3935.76  250.07
  -5  -3   3 2930.88  152.34
   5  -3  -2 4819.68  218.22
  -5  -3   2 4708.23  211.77
  -5   3   2 4815.67  287.59
   5  -3  -1 3145.48  154.61
   5  -3  -1 3032.82  107.37
  -5  -3   1 3227.02  155.78
   5  -3   0 5523.15  243.27
   5  -3   0 4882.52  159.58
  -5  -3   0 5859.42  251.61
   5  -3   1 3330.57  208.66
   5  -3   1 2504.03   84.53
  -5  -3  -1 2893.48  145.45
   5  -3   2 1566.21  153.46
   5   3   3 5785.34  188.15
   5  -3   3 6415.79  353.91
   5  -3   3 6790.54  404.50
  -5  -3  -3 6676.32  356.40
  -5  -3  -3 6009.47  210.71
   5   3   4 1678.72   78.14
   5  -3   4 1902.05  167.75
   5  -3   4 1569.90  128.82
  -5  -3  -4 1574.30   80.97
   5   3   5  457.84   46.33
   5  -3   5  510.67   76.07
   5  -3   5  469.73   68.24
  -5  -3  -5  413.73   49.45
   5   3   6 1540.48   75.41
   5  -3   6 1742.02  130.01
  -5  -3  -6 1536.62  100.26
   5   3   7 2180.30  103.52
   5  -3   7 2320.90  156.25
  -5  -3  -7 2204.02  108.61
   5   3   8  378.91   63.68
   5  -3   8  458.13   77.88
  -5  -3  -8  356.12   47.80
   5   3   9  798.35   92.60
   5  -3   9  865.51  153.32
  -5  -3  -9  773.61  103.10
   5   3  10   48.82   29.52
   5  -3  10   38.80   77.67
  -5  -3 -10   53.53   52.67
   5   3  11   66.53   37.21
   5  -3  11  115.10   58.14
  -5  -3 -11   67.53   65.68
   5   3  12  129.52   45.96
   5  -3  12  170.27   70.88
  -5  -3 -12  128.63   52.79
   5   4 -11   -0.79   53.84
   5  -4 -11  203.61   67.21
  -5   4  11  187.35   69.74
   5   4 -10  330.31   69.03
   5  -4 -10  400.85   85.95
  -5   4  10  323.78   86.98
   5   4  -9   -0.28   32.25
   5  -4  -9   57.25   65.77
  -5   4   9   51.43   65.49
   5   4  -8  121.27   82.92
   5  -4  -8  206.43   97.58
  -5  -4   8  118.90   24.21
  -5  -4   8  210.11   41.15
  -5   4   8  159.02   63.74
   5   4  -7  321.27   64.69
   5  -4  -7  396.75   73.40
  -5  -4   7  312.99   50.82
  -5   4   7  190.74  116.41
   5  -4  -6 2676.22  169.02
  -5  -4   6 2362.20   65.82
  -5  -4   6 2479.79   69.03
  -5  -4   6 2487.40  134.27
  -5   4   6 2615.98  167.71
   5  -4  -5  149.82   49.00
  -5  -4   5  111.60   38.73
  -5   4   5  109.98   54.55
   5  -4  -4 1606.15  114.54
  -5  -4   4 1535.79  103.48
  -5   4   4 1634.86  181.21
   5  -4  -3 1895.58  175.99
  -5  -4   3 1732.30  111.96
  -5   4   3 1590.25  126.94
   5  -4  -2 1663.00  156.65
  -5  -4   2 1496.44  103.14
  -5   4   2 1201.85  111.25
   5  -4  -1 1128.89  132.07
  -5  -4   1  869.28   81.58
   5  -4   0 3151.61  229.53
  -5  -4   0 3330.86  177.71
   5  -4   1 3567.50  119.15
   5  -4   1 5512.42  311.69
  -5  -4  -1 3507.85  194.66
   5   4   2 6237.18  188.75
   5  -4   2 5288.06  151.75
   5  -4   2 6572.44  382.55
  -5  -4  -2 5984.75  177.75
  -5  -4  -2 5889.23  290.59
   5  -4   3 5843.29  374.79
   5   4   3 6122.58  215.53
   5  -4   3 6267.41  347.74
  -5  -4  -3 6054.73  210.92
  -5  -4  -3 6412.22  392.63
   5   4   4 2237.34   83.24
   5  -4   4 2467.44  159.85
   5  -4   4 2522.18  182.03
  -5  -4  -4 2188.68   98.95
  -5  -4  -4 2566.33  162.39
   5   4   5  452.29   45.28
   5  -4   5  441.18   75.85
   5  -4   5  516.36   90.27
  -5  -4  -5  423.27   46.37
   5   4   6  634.87   45.68
   5  -4   6 1150.35  107.50
   5  -4   6  943.60  141.67
  -5  -4  -6  574.36   45.84
   5   4   7 1101.82   65.54
   5  -4   7 1196.65  125.88
   5  -4   7 1219.28  116.12
  -5  -4  -7 1112.85   66.30
   5   4   8  460.90   67.44
   5  -4   8  430.08   87.21
  -5  -4  -8  400.36   68.60
   5   4   9   -3.26   27.31
   5  -4   9   32.55   33.55
  -5  -4  -9   -6.97   28.70
   5   4  10    5.04   22.81
   5  -4  10   47.51   39.70
  -5  -4 -10    1.89   23.13
   5   4  11  261.48   54.37
   5  -4  11  316.77   87.93
  -5  -4 -11  283.99   55.05
   5  -5  -9   81.30   52.74
  -5  -5   9   -0.01   31.55
  -5   5   9   44.95   50.93
   5  -5  -8  227.70  128.06
  -5  -5   8  213.15   49.11
  -5   5   8  196.97   77.58
   5  -5  -7  153.85   94.78
  -5  -5   7   -0.24   59.32
  -5   5   7  183.08   95.91
   5  -5  -6   80.20   54.95
  -5  -5   6   61.12   59.23
  -5   5   6   77.98   56.98
   5  -5  -5  529.04   89.54
  -5  -5   5  545.95  102.40
  -5   5   5  477.63   92.20
   5  -5  -4  501.83   79.47
  -5  -5   4  446.95  101.03
  -5   5   4  437.31   88.72
   5  -5  -3  509.42   76.66
  -5  -5   3  398.39  101.72
  -5   5   3  405.45   80.39
   5  -5  -2  532.33   77.61
  -5  -5   2  618.08  111.30
   5  -5  -1  571.37   77.51
  -5  -5   1  506.28   70.64
   5  -5   0 1220.54  103.77
  -5  -5   0 1145.01  104.55
   5  -5   1 1369.44  115.95
  -5  -5  -1   22.30   62.91
   5  -5   2 1029.53   32.06
   5  -5   2 1181.97  149.82
   5  -5   2 1044.20   31.00
  -5  -5  -2  934.13   32.58
  -5  -5  -2 1097.63  159.38
   5   5   3  350.56   30.06
   5  -5   3  370.75   68.48
   5  -5   3  460.84  141.03
  -5  -5  -3  295.94   18.81
  -5  -5  -3  373.11   70.24
   5  -5   4  458.84   89.42
   5   5   4  339.87   26.55
   5  -5   4  388.57   70.80
  -5  -5  -4  364.17   37.82
  -5  -5  -4  377.88   81.08
   5   5   5 1184.68   79.46
   5  -5   5 1233.25  177.79
   5  -5   5 1355.05  143.67
  -5  -5  -5 1142.40   74.44
   5   5   6  497.43   40.97
   5  -5   6  474.79  101.29
   5  -5   6  441.06   89.85
  -5  -5  -6  493.54   57.47
   5   5   7  902.94   61.93
   5  -5   7  951.55  129.38
   5  -5   7 1064.99  118.65
  -5  -5  -7  941.80   87.50
   5  -5   8   63.54   53.24
   5   5   8   47.31   40.64
   5  -5   8   95.98   57.46
  -5  -5  -8   39.25   25.70
   5   5   9  269.44   44.21
   5  -5   9  386.05   90.81
   5  -5   9  282.26  131.32
  -5  -5  -9  244.11   45.13
   5  -6  -5   41.11   47.33
  -5  -6   5    0.03   52.14
  -5   6   5   22.66   48.63
   5  -6  -4  218.67  114.97
  -5   6   4  155.87   73.97
   5  -6  -3  466.36  141.67
   5  -6  -2  332.45   80.90
   5  -6  -1  892.42  108.20
  -5  -6   1  860.59   99.32
   5  -6   0  301.98   70.72
  -5  -6   0  257.56   70.13
   5  -6   1  773.67  147.33
  -5  -6  -1  533.91  145.76
   5  -6   2  131.67   99.64
   5  -6   2  169.67   80.16
  -5  -6  -2  152.04   63.07
   5  -6   3   82.44   50.38
   5  -6   3   95.78   66.69
  -5  -6  -3   42.39   56.30
   5  -6   4  868.93  114.43
   5  -6   4 1013.38  209.66
  -5  -6  -4  875.52  119.42
   5  -6   5   61.04   53.32
   5  -6   5   74.24  106.37
  -5  -6  -5   48.24   59.61
   6   0 -13   44.24   53.10
   6   0 -13   26.18   68.81
  -6   0  13   25.34   33.68
   6   0 -12  407.74   59.00
   6   0 -12  343.38   75.55
  -6   0  12  255.26   57.97
   6   0 -11  206.72   43.05
   6   0 -11  129.43   56.18
  -6   0  11  198.33   44.84
   6   0 -10 1775.86  131.19
   6   0 -10 1867.77  107.93
  -6   0  10 1765.40  107.58
   6   0  -9 2428.61  206.33
   6   0  -9 2695.14  169.38
  -6   0   9 2589.33  133.56
   6   0  -8 2854.80  156.58
   6   0  -8 2561.00  195.35
  -6   0   8 1762.72  105.87
   6   0  -7 2362.62  141.63
   6   0  -7 2626.92  143.35
  -6   0   7 2197.41  109.52
   6   0  -6 2964.68  155.70
   6   0  -6 3057.18  152.03
  -6   0   6 3135.52  135.41
   6   0  -5  317.50   51.52
   6   0  -5  326.50   28.83
  -6   0   5  323.94   33.89
   6   0  -4  923.38  103.97
   6   0  -4  957.06   60.97
  -6   0   4  985.49   71.01
   6   0  -3 2431.22  108.97
   6   0  -3 2257.15  111.69
  -6   0   3 2410.28   95.97
   6   0  -2  909.08   56.65
   6   0  -2  745.56   57.18
  -6   0   2  892.02   52.04
   6   0  -1  222.58   30.98
   6   0  -1  139.52   31.29
  -6   0   1  197.80   27.31
   6   0   0 3370.81  133.88
   6   0   0 3453.05  138.68
   6   0   0 3429.41  126.51
  -6   0   0 3931.32  142.44
   6   0   1  834.25   44.20
   6   0   1  797.65   66.75
  -6   0  -1  728.04   57.07
   6   0   2 1056.15   57.01
   6   0   2  931.33   51.08
  -6   0  -2 1070.15   65.37
   6   0   3  647.10   65.40
  -6   0  -3  511.58   35.86
   6   0   4 1322.28   73.16
  -6   0  -4 1269.46   56.67
   6   0   5  416.84   47.00
  -6   0  -5  410.69   31.94
   6   0   6 2961.57  148.02
  -6   0  -6 2971.24  115.41
   6   0   7 5120.86  241.28
  -6   0  -7 5602.25  275.18
  -6   0  -7 5220.22  198.47
   6   0   810398.28  541.74
  -6   0  -810805.88  428.72
  -6   0  -812222.96  647.15
   6   0   9 1447.70  110.69
  -6   0  -9 1294.54  122.27
   6   0  10 1951.59  139.00
  -6   0 -10 2147.18  159.82
   6   0  11  186.13   86.23
  -6   0 -11  131.54   63.84
   6   0  12 1927.13  155.53
  -6   0 -12 2045.90  176.45
   6   0  13   27.98   39.69
  -6   0 -13    0.84   45.48
   6  -1 -13   23.09   41.90
   6  -1 -13   36.37   36.67
   6   1 -13    5.61   46.29
   6   1 -13   26.84   43.46
  -6   1  13   27.96   61.88
  -6  -1  13   31.16   29.51
   6  -1 -12 1163.10  105.84
   6  -1 -12 1122.30  115.48
   6   1 -12 1189.61  121.08
   6   1 -12 1126.25   88.30
  -6   1  12 1237.25  158.40
  -6  -1  12 1127.13   87.93
   6  -1 -11  725.78   89.93
   6  -1 -11  862.49  123.88
   6   1 -11  773.68   66.71
   6   1 -11  733.14   97.41
  -6   1  11  778.24   85.28
  -6  -1  11  718.53   64.86
   6  -1 -10  588.37   76.86
   6  -1 -10  806.86  109.38
   6   1 -10  653.60   81.29
   6   1 -10  657.41   86.82
  -6   1  10  618.41   72.70
  -6  -1  10  552.98   77.25
   6  -1  -9  509.46   58.84
   6  -1  -9  430.95   63.87
   6   1  -9  466.23   44.00
   6   1  -9  453.96   71.80
  -6   1   9  465.13   89.08
  -6  -1   9  411.58   42.29
   6  -1  -8 1793.92  114.76
   6  -1  -8 1880.79  109.22
   6   1  -8 1805.99  123.99
   6   1  -8 1836.47  110.17
  -6   1   8 1840.59  111.13
  -6  -1   8 1968.45  114.15
   6  -1  -7 6445.43  292.73
   6  -1  -7 7018.00  340.93
   6   1  -7 6610.67  278.10
   6   1  -7 6643.45  318.13
  -6   1   7 6772.76  300.50
  -6  -1   7 6845.78  288.65
   6  -1  -6  746.43   78.54
   6  -1  -6  563.24   96.85
   6   1  -6  693.16   73.27
   6   1  -6  724.54   53.10
  -6   1   6  613.13   86.32
  -6  -1   6  415.30   51.07
   6  -1  -5  942.77   60.07
   6  -1  -5  837.63   70.88
   6   1  -5 1110.08   59.40
   6   1  -5  628.80   78.31
  -6   1   5  821.57   96.17
   6  -1  -4 4195.55  168.52
   6  -1  -4 4118.48  208.95
   6   1  -4 3984.00  129.04
   6   1  -4 3877.79  188.25
  -6   1   4 4101.37  210.25
  -6  -1   4 3833.41  131.88
  -6  -1   4 4188.92  221.90
   6  -1  -3 4706.16  188.53
   6  -1  -3 4673.79  193.37
   6   1  -3 4607.42  207.23
   6   1  -3 4408.04  148.12
  -6   1   3 4830.37  198.58
  -6  -1   3 4827.13  231.90
   6  -1  -2 3953.02  161.07
   6  -1  -2 4353.11  194.30
   6   1  -2 3894.32  175.18
   6   1  -2 3960.91  119.37
  -6   1   2 3894.47  159.73
  -6  -1   2 4088.99  198.50
   6  -1  -1 2567.45  109.65
   6   1  -1 2576.66  125.40
   6   1  -1 2802.69   92.41
   6  -1  -1 2355.34  126.72
   6   1  -1 2621.62   83.92
  -6  -1   1 2626.04  148.29
   6   1   0 5466.40  189.10
   6   1   0 5651.85  189.05
   6  -1   0 5644.96  219.55
   6  -1   0 5115.59  194.93
  -6  -1   0 5667.36  255.46
   6   1   1 2150.09   74.27
   6   1   1 2689.07   99.70
   6  -1   1 2615.17  135.95
   6  -1   1 2158.13   84.57
   6  -1   1 2150.33  113.72
  -6  -1  -1 2403.70  103.27
  -6   1  -1 2120.31   76.47
   6   1   2 1922.90   71.88
   6  -1   2 1822.71   93.28
   6  -1   2 1852.38  101.31
  -6  -1  -2 1871.67   87.16
  -6   1  -2 1718.93   75.37
   6   1   3 3097.03  116.47
   6  -1   3 3085.80  186.94
   6  -1   3 3111.16  142.19
  -6  -1  -3 3143.15  132.28
  -6   1  -3 2829.73  105.37
   6   1   4 8179.81  317.07
   6  -1   4 8796.62  372.98
  -6  -1  -4 8561.57  341.40
  -6   1  -4 8350.59  272.85
   6   1   5 4111.64  169.10
   6  -1   5 4274.95  202.90
  -6  -1  -5 4694.62  198.32
  -6  -1  -5 4471.24  187.02
  -6   1  -5 4086.81  125.83
   6   1   6 2672.34  159.38
   6  -1   6 2795.23  155.16
  -6  -1  -6 2958.86  176.16
  -6  -1  -6 3207.30  194.09
  -6   1  -6 3060.63  104.38
   6   1   7 2748.12  140.56
   6  -1   7 3449.41  180.23
  -6  -1  -7 3566.48  156.76
  -6  -1  -7 2550.19  149.48
  -6   1  -7 2757.49  100.66
   6   1   8  424.81   53.23
   6  -1   8  596.65   69.36
  -6  -1  -8  319.72   92.30
  -6   1  -8  408.18   22.76
   6   1   9  501.07   62.23
   6  -1   9  594.40  115.62
  -6  -1  -9  662.15   72.66
  -6   1  -9  543.42   27.52
   6   1  10 1192.74   97.98
   6  -1  10 1289.63  166.93
  -6  -1 -10 1294.45  112.81
  -6   1 -10 1419.65  139.86
  -6   1 -10 1239.35   50.62
   6   1  11  697.10   83.86
   6  -1  11  724.78   99.36
  -6  -1 -11  732.27   94.57
  -6   1 -11  775.23  120.29
   6   1  12  443.44   77.47
   6  -1  12  554.47   91.75
  -6  -1 -12  440.00   87.29
  -6   1 -12  432.82  109.95
   6   2 -12  555.30   84.91
   6   2 -12  486.92  136.34
   6  -2 -12  562.44   88.39
   6  -2 -12  482.30   84.94
  -6  -2  12  517.36   76.24
  -6   2  12  551.79  135.17
   6   2 -11  544.13   53.03
   6   2 -11  581.05  132.13
   6  -2 -11  645.62   83.12
   6  -2 -11  502.03   81.01
  -6  -2  11  545.57   72.50
  -6   2  11  549.84   84.74
   6   2 -10  300.76   38.85
   6   2 -10  459.94  109.16
   6  -2 -10  276.66   63.24
   6  -2 -10  413.37   64.87
  -6  -2  10  350.11   36.40
  -6   2  10  381.37   67.38
   6   2  -9 1176.53   84.65
   6   2  -9 1205.20  108.28
   6  -2  -9 1257.30   98.94
   6  -2  -9 1352.85  147.79
  -6  -2   9 1233.08   82.67
  -6   2   9 1325.20  153.40
   6   2  -8  209.24   37.35
   6   2  -8  358.03   57.38
   6  -2  -8  241.12   49.72
   6  -2  -8  384.27   80.63
  -6  -2   8  188.17   23.78
  -6   2   8  307.89   52.93
   6   2  -7  233.62   22.39
   6   2  -7  399.32   93.61
   6  -2  -7  254.80   48.45
   6  -2  -7  408.75   77.20
  -6  -2   7  242.77   21.83
  -6   2   7  353.40   84.38
   6   2  -6 7213.30  342.49
   6   2  -6 6975.62  235.70
   6  -2  -6 7452.81  332.36
   6  -2  -6 7217.71  314.72
  -6  -2   6 7601.73  268.36
  -6  -2   6 7470.39  327.36
  -6   2   6 7740.13  351.09
   6   2  -5 2184.62  186.22
   6   2  -5 1929.69   67.04
   6  -2  -5 2222.96  118.61
   6  -2  -5 2086.05  109.57
  -6  -2   5 2028.76   67.97
  -6  -2   5 2094.68  115.68
  -6   2   5 2141.38  123.34
   6   2  -4 4252.93  118.24
   6   2  -4 4437.45  218.68
   6  -2  -4 4496.98  198.64
   6  -2  -4 4116.64  174.99
  -6  -2   4 4401.53  197.86
  -6   2   4 4710.02  217.68
   6   2  -3 4842.99  240.03
   6  -2  -3 5217.22  268.30
  -6  -2   3 5179.50  229.47
  -6   2   3 5106.96  235.74
   6   2  -2 3907.32  194.87
   6  -2  -2 4021.17  178.98
   6  -2  -2 3581.36  141.81
  -6  -2   2 3687.07  169.14
  -6   2   2 3795.72  175.55
   6  -2  -1  469.83   47.61
   6  -2  -1  360.17   31.77
  -6  -2   1  428.61   49.81
   6  -2   0 3387.64  197.22
   6  -2   0 2949.55  108.39
  -6  -2   0 3447.34  154.33
   6   2   1  710.33   24.88
   6   2   1  671.60   22.49
   6  -2   1  689.71   33.77
   6  -2   1  741.06   61.83
  -6  -2  -1  726.84   60.21
   6  -2   2 1611.03  100.22
   6  -2   2 1605.94  115.83
  -6  -2  -2 1610.82   97.32
   6   2   312040.47  441.25
   6  -2   312058.37  625.68
   6  -2   311577.02  511.92
  -6  -2  -311365.21  488.97
   6  -2   4 2793.31  220.93
   6  -2   4 2652.38  149.14
  -6  -2  -4 2703.42  141.25
   6   2   5  693.67   61.53
   6  -2   5  718.46   83.00
  -6  -2  -5 1167.31  114.34
  -6  -2  -5  744.22   53.52
   6   2   6 1124.88   62.33
   6  -2   6  697.27   88.54
  -6  -2  -6  954.58   68.72
   6   2   7  569.35   49.40
   6  -2   7  734.39  122.93
  -6  -2  -7  745.87   86.95
   6   2   8  567.66   75.11
   6  -2   8  605.20  120.17
  -6  -2  -8  545.85   60.06
   6   2   9  483.14   55.83
   6  -2   9  604.68  129.53
  -6  -2  -9  468.20   63.37
   6   2  10  478.31   59.72
   6  -2  10  540.93   85.46
  -6  -2 -10  417.41   67.91
   6   2  11  199.79   81.17
   6  -2  11  375.09   76.11
  -6  -2 -11  208.25   60.80
   6   2  12  271.41   62.09
   6  -2  12  337.99   88.56
  -6  -2 -12  347.57   71.73
   6   3 -11  452.69   83.67
   6  -3 -11  499.87   79.65
   6  -3 -11  454.98  136.06
  -6   3  11  494.63   94.19
   6   3 -10  137.27   91.86
   6   3 -10  101.68   40.68
   6  -3 -10  130.17   51.39
   6  -3 -10  210.42   93.80
  -6  -3  10  173.15   35.67
  -6   3  10  218.29   62.81
   6   3  -9  589.32  130.90
   6   3  -9  668.12   40.75
   6  -3  -9  666.89   75.97
   6  -3  -9  758.64   89.39
  -6  -3   9  655.37   37.34
  -6   3   9  676.21  141.73
   6   3  -8  748.23   90.88
   6  -3  -8  718.45   79.31
   6  -3  -8  978.21   95.03
  -6   3   8  713.81   94.48
   6   3  -7  473.47   66.93
   6   3  -7  293.40   26.93
   6  -3  -7  366.43   55.58
   6  -3  -7  508.12   67.70
  -6  -3   7  445.98   58.20
  -6   3   7  506.77  107.44
   6   3  -6   84.24   46.14
   6  -3  -6  125.65   42.75
   6  -3  -6   70.60   31.13
  -6  -3   6   96.65   36.50
  -6   3   6  106.97   44.29
   6   3  -5    6.26   32.58
   6  -3  -5   55.07   29.53
   6  -3  -5    8.43   20.44
  -6  -3   5   19.15   25.98
  -6   3   5   36.94   32.73
   6   3  -4 1615.49  125.90
   6  -3  -4 1735.38  156.18
  -6  -3   4 1621.58  105.97
  -6   3   4 1793.83  172.63
   6  -3  -3 1570.38  145.64
  -6  -3   3 1347.76   97.95
  -6   3   3 1569.61  165.54
   6  -3  -2 1924.09  117.71
   6  -3  -2 1438.55   90.69
  -6  -3   2 2396.56  127.65
   6  -3  -1 4721.84  225.50
   6  -3  -1 4557.85  183.26
  -6  -3   1 4753.65  224.45
   6  -3   0 2722.06  144.38
   6  -3   0 2235.04   82.35
  -6  -3   0 2696.35  144.60
   6  -3   1 1877.14  123.61
  -6  -3  -1 2063.54  126.63
   6  -3   2 4473.07  133.99
   6  -3   2 4656.87  227.51
   6  -3   2 4636.39  260.82
  -6  -3  -2 4603.91  279.14
   6   3   3 3564.31  118.01
   6  -3   3 3572.01  194.31
   6  -3   3 3842.50  220.95
  -6  -3  -3 3609.62  243.79
   6   3   4 3338.29  115.61
   6  -3   4 3774.89  203.14
   6  -3   4 3922.94  226.87
  -6  -3  -4 3614.27  193.32
  -6  -3  -4 3831.22  152.85
   6   3   5  395.20   27.98
   6  -3   5  496.05   78.06
   6  -3   5  371.55   68.32
  -6  -3  -5  433.93   65.94
  -6  -3  -5  482.69   51.97
   6   3   6  181.94   24.23
   6  -3   6  232.97   64.04
   6  -3   6  239.40   57.65
  -6  -3  -6  180.53   29.37
  -6  -3  -6  203.46   54.00
   6   3   7 1084.61   84.56
   6  -3   7 1157.95  117.11
  -6  -3  -7 1149.52   94.57
   6   3   8 1450.95  112.35
   6  -3   8 1724.18  147.53
  -6  -3  -8 1616.51   95.19
   6   3   9  130.81   52.11
   6  -3   9  142.38   98.55
  -6  -3  -9  113.21   37.56
   6   3  10  275.14   71.50
   6  -3  10  337.07   85.17
  -6  -3 -10  288.22   51.74
   6   3  11   31.05   49.69
   6  -3  11   39.00   53.23
  -6  -3 -11   38.92   33.91
   6   4 -10  192.87   71.95
   6  -4 -10  285.59   82.67
  -6   4  10  275.12   86.34
   6   4  -9  204.37  120.82
   6  -4  -9  484.37   89.03
  -6   4   9  319.73  143.28
   6   4  -8  164.80   67.17
   6  -4  -8  259.13  114.06
  -6  -4   8  249.83   53.78
  -6   4   8  205.44   70.61
   6   4  -7   -5.20   35.29
   6  -4  -7   48.75   57.75
  -6  -4   7   12.82   27.44
  -6   4   7   21.85   36.25
   6  -4  -6 2068.91  209.89
  -6  -4   6 1686.41  115.27
  -6   4   6 1818.52  150.40
   6  -4  -5  587.52  128.63
  -6  -4   5  518.30   67.16
  -6   4   5  497.31  135.78
   6  -4  -4  889.42  142.05
  -6  -4   4  861.58   80.91
  -6   4   4  816.20  100.92
   6  -4  -3  488.49  104.29
   6  -4  -3  284.17   32.98
  -6  -4   3  423.58   60.96
  -6   4   3  423.50   67.81
   6  -4  -2   35.48   15.82
  -6  -4   2  156.37   57.74
   6  -4  -1 1001.02   91.35
  -6  -4   1 1028.87  137.47
   6  -4   0  132.62   44.32
   6  -4   0  115.10   13.85
  -6  -4   0  102.09   45.27
   6  -4   1 2695.97  163.98
   6  -4   1 2818.79   94.05
  -6  -4  -1 2842.14  168.88
   6  -4   2  403.18   70.60
   6  -4   2  464.80   91.15
  -6  -4  -2  394.40   69.26
   6   4   3  392.47   19.55
   6  -4   3  430.36   71.65
   6  -4   3  546.75  147.13
  -6  -4  -3  486.63  112.96
  -6  -4  -3  431.24   16.29
   6   4   4 1968.61   80.06
   6  -4   4 2132.30  149.84
   6  -4   4 2162.32  251.60
  -6  -4  -4 1984.96  146.32
  -6  -4  -4 2198.47   89.24
   6   4   5 1074.11   48.68
   6  -4   5 1224.40  172.69
   6  -4   5 1095.93  203.88
  -6  -4  -5 1275.42   70.67
  -6  -4  -5 1145.75  112.32
   6  -4   6  515.35  154.81
   6  -4   6  498.48   85.85
  -6  -4  -6  529.44   86.30
   6   4   7  398.55   37.55
   6  -4   7  409.93   93.03
   6  -4   7  458.21  131.84
  -6  -4  -7  438.55   60.83
   6   4   8  336.10   60.29
   6  -4   8  386.02   90.24
   6  -4   8  335.86   83.88
  -6  -4  -8  327.39   63.56
   6   4   9  860.84   68.53
   6  -4   9  958.04  132.67
  -6  -4  -9  930.52   99.53
   6  -5  -7  435.22  155.08
  -6  -5   7  390.32  100.88
  -6   5   7  356.20   96.65
   6  -5  -6  325.36  128.90
  -6  -5   6  227.57   55.34
  -6   5   6  270.89   81.63
   6  -5  -5  676.97   99.74
  -6  -5   5  483.60   73.45
  -6   5   5  508.13  102.14
   6  -5  -4 1060.53  118.86
  -6  -5   4  920.22   94.84
  -6   5   4  998.83  119.68
   6  -5  -3  252.27   71.01
  -6  -5   3  262.24   61.25
   6  -5  -2  748.10   95.58
  -6  -5   2  713.17   86.79
   6  -5  -1  631.69   86.23
  -6  -5   1  467.78  127.43
   6  -5   0 2263.63  190.96
  -6  -5   0  827.86  103.87
   6  -5   1 2856.28  244.47
  -6  -5  -1 2271.60  163.94
   6  -5   2  322.16   73.09
   6  -5   2  319.65   96.29
  -6  -5  -2  359.02   72.95
   6  -5   3   53.24   89.79
   6  -5   3   47.96   42.25
  -6  -5  -3   16.13   42.25
   6  -5   4  128.07   86.26
   6  -5   4  177.58  112.49
  -6  -5  -4   62.66   58.80
   6  -5   5   82.23   52.65
   6  -5   5  117.38  109.60
  -6  -5  -5   57.35   89.61
   6  -5   6   36.32   51.79
   6  -5   6   27.40   44.31
  -6  -5  -6    8.72   46.01
   6  -5   7  453.21  110.32
   6  -5   7  483.88   97.54
  -6  -5  -7  506.81   99.55
   6  -6  -3  843.79  196.89
   6  -6  -2  658.69  117.60
   6  -6  -1  411.44   91.37
   6  -6   0   97.02   61.91
   6  -6   1  307.57  137.95
  -6  -6  -1  398.83   87.05
   6  -6   2   39.66   66.35
   6  -6   2   63.63   52.29
  -6  -6  -2    5.38   83.79
   6  -6   3  397.17   94.06
   6  -6   3  462.15  116.94
  -6  -6  -3  520.27   97.74
   7   0 -12 1445.96  154.84
   7   0 -12 1482.47  144.33
  -7   0  12 1524.74  113.29
   7   0 -11 2027.87  126.06
   7   0 -11 1965.46  156.75
  -7   0  11 2040.89  170.04
   7   0 -10  376.32   52.14
   7   0 -10  380.57   72.93
  -7   0  10  411.52   52.59
   7   0  -9 2419.71  218.37
   7   0  -9 2572.50  132.50
  -7   0   9 2501.89  167.68
   7   0  -8 1522.51  115.73
   7   0  -8 1538.31  117.29
  -7   0   8 1554.44   89.31
   7   0  -7  457.11   65.82
   7   0  -7  402.12   70.51
  -7   0   7  484.70   46.85
   7   0  -6 4650.26  189.14
   7   0  -6 4355.72  226.46
  -7   0   6 4385.56  186.48
   7   0  -5 8222.36  322.51
   7   0  -5 8287.09  374.78
  -7   0   5 8630.29  343.75
   7   0  -4 1390.08  146.88
   7   0  -4 1706.11   92.05
  -7   0   4 1786.34  105.71
   7   0  -3  244.38   44.61
   7   0  -3  298.32   25.23
   7   0  -2  102.46   19.33
   7   0  -2  112.44   32.06
  -7   0   2  119.22   26.81
   7   0  -1    8.60   30.59
  -7   0   1  142.02   25.45
   7   0   0 1949.41   81.62
   7   0   0 2082.89  119.05
   7   0   0 1741.39  128.57
  -7   0   0 1978.36  115.16
   7   0   1 1491.63   76.36
   7   0   1 1495.44   69.05
  -7   0  -1 1379.78   88.95
   7   0   2   21.90   28.43
   7   0   2   27.79   29.45
  -7   0  -2   29.66   24.28
   7   0   3   81.91   26.23
   7   0   3   82.71   25.43
  -7   0  -3   77.36   30.16
   7   0   4 2434.60  118.40
  -7   0  -4 2319.81  119.53
   7   0   5 1732.69   97.52
  -7   0  -5 1375.03   66.33
   7   0   6 1855.90  109.32
  -7   0  -6 1759.85   77.04
   7   0   7   65.51   38.37
  -7   0  -7  138.72   22.42
   7   0   8   46.47   73.11
  -7   0  -8  220.52   39.71
   7   0   9  735.24   83.27
  -7   0  -9  775.62   49.12
   7   0  10   15.66   33.93
  -7   0 -10   24.05   42.60
  -7   0 -10   28.82   17.77
   7   0  11  540.92  126.66
  -7   0 -11  521.54  100.27
  -7   0 -11  511.69   44.47
   7   0  12   43.32   48.15
   7   1 -12  907.54   78.27
   7  -1 -12  886.85   95.36
  -7  -1  12  914.30   79.71
  -7   1  12  938.52   99.24
   7   1 -11  165.71  106.20
   7   1 -11  177.15   37.48
   7  -1 -11  184.77   50.83
   7  -1 -11  171.87   61.35
  -7  -1  11  151.82   38.17
  -7   1  11  211.57   51.45
   7   1 -10  272.16   67.86
   7   1 -10  219.43   58.52
   7  -1 -10  328.02   80.90
   7  -1 -10  212.08   62.14
  -7  -1  10  246.09   57.96
  -7   1  10  222.18   82.48
   7   1  -9  255.49   35.23
   7   1  -9  287.28   65.69
   7  -1  -9  282.45   76.43
   7  -1  -9  230.13   58.22
  -7  -1   9  245.37   34.91
  -7   1   9  299.85   51.17
   7   1  -8 2998.18  186.07
   7   1  -8 3001.46  130.35
   7  -1  -8 3115.14  177.42
   7  -1  -8 3407.32  209.82
  -7  -1   8 3114.58  133.53
  -7   1   8 3199.94  211.52
   7   1  -7 1371.49  161.22
   7   1  -7 1341.65   84.29
   7  -1  -7 1347.43  139.38
   7  -1  -7 1505.58  128.93
  -7  -1   7 1406.59   67.99
  -7   1   7 1386.08   94.43
   7   1  -6 2501.01  118.25
   7   1  -6 2268.99  153.22
   7  -1  -6 2393.89  124.02
   7  -1  -6 2418.56  142.20
  -7  -1   6 2391.19   95.99
  -7   1   6 2428.45  127.98
   7   1  -5 7621.47  275.35
   7   1  -5 7474.10  419.61
   7  -1  -5 7601.26  319.29
   7  -1  -5 7809.63  351.55
  -7  -1   5 7481.58  292.12
  -7   1   5 7805.43  339.40
   7   1  -4 2260.74   80.46
   7   1  -4 2047.19  136.84
   7  -1  -4 2133.15  101.05
   7  -1  -4 2100.39  120.65
  -7  -1   4 2218.59  124.26
  -7   1   4 2258.77  114.16
   7   1  -3  758.53   76.02
   7   1  -3  828.41   31.54
   7  -1  -3  691.97   51.22
   7  -1  -3  743.32   89.53
  -7  -1   3  803.19   67.53
  -7   1   3  799.77   57.91
   7   1  -2  534.35   93.80
   7   1  -2  486.90   28.51
   7   1  -2  407.85   26.54
   7  -1  -2  494.85   43.36
   7  -1  -2  415.09   67.31
  -7  -1   2  466.93   50.31
   7   1  -1  515.74   25.13
   7   1  -1  732.64  102.89
   7   1  -1  729.45   32.62
   7  -1  -1  577.46   71.30
   7  -1  -1  548.66   47.27
  -7  -1   1  757.23   58.21
   7   1   0  722.02   33.95
   7   1   0  710.49   40.83
   7  -1   0  607.15   47.70
   7  -1   0  709.03   53.69
  -7  -1   0  757.80   57.13
   7   1   1 1249.52   65.43
   7   1   1 1281.48   66.30
   7  -1   1 1223.91  100.28
   7  -1   1 1361.87  128.51
   7  -1   1 1261.62   89.11
  -7  -1  -1 1146.37   70.93
   7   1   2  640.55   52.56
   7   1   2  640.27   37.62
   7  -1   2  692.53   56.50
   7  -1   2  591.27   62.98
  -7  -1  -2  659.38   76.04
  -7   1  -2  618.49   34.65
   7   1   3 1027.63   54.66
   7  -1   3 1134.35   77.75
   7  -1   3 1166.08   82.94
  -7  -1  -3 1179.95   95.22
  -7   1  -3  997.19   43.19
   7   1   4 2273.12  100.53
   7  -1   4 2672.10  136.50
   7  -1   4 2567.65  137.94
  -7  -1  -4 2303.99  110.67
  -7   1  -4 2311.81   93.28
   7   1   5 3608.29  195.50
   7  -1   5 4508.56  214.76
  -7  -1  -5 4636.92  195.06
  -7   1  -5 4014.09  144.55
   7   1   6 1053.76  102.38
   7  -1   6 1425.03  102.17
  -7  -1  -6 1359.74   78.78
  -7   1  -6 1219.69   53.30
   7   1   7   46.85   34.30
   7  -1   7  274.88   47.34
  -7  -1  -7   57.94   41.42
  -7  -1  -7   55.42   51.96
  -7   1  -7  152.68   18.89
   7   1   8  905.10  108.12
   7  -1   8 1108.21   94.56
  -7  -1  -8  838.11   90.75
  -7  -1  -8 1037.57   70.19
  -7   1  -8  837.38   43.29
   7   1   9  203.14   44.36
   7  -1   9  199.71   89.27
  -7  -1  -9  174.69   87.27
  -7  -1  -9  184.23   61.66
   7   1  10  311.79   90.15
   7  -1  10  296.31   70.59
  -7  -1 -10  362.90   69.47
  -7  -1 -10  350.83   47.62
   7   1  11   47.95   38.51
   7  -1  11   36.65   48.17
  -7  -1 -11   51.15   29.15
  -7  -1 -11   40.82   44.96
   7   2 -11   56.68   25.20
   7   2 -11   88.02   53.27
   7  -2 -11   91.36   45.86
   7  -2 -11   64.56   47.11
  -7  -2  11   51.41   23.99
  -7   2  11    2.55   46.66
   7   2 -10  358.41   39.18
   7   2 -10  440.41   84.14
   7  -2 -10  327.91   72.27
   7  -2 -10  527.64   71.63
  -7  -2  10  357.48   55.15
  -7   2  10  459.25   74.78
   7   2  -9  557.08   57.46
   7   2  -9  604.62  136.27
   7  -2  -9  738.70   79.17
   7  -2  -9  544.87   75.83
  -7  -2   9  616.53   40.59
  -7   2   9  644.07   82.32
   7   2  -8   21.97   30.71
   7   2  -8    8.71   16.11
   7  -2  -8    4.63   24.04
   7  -2  -8   10.23   23.53
  -7  -2   8    6.68    9.90
  -7   2   8    5.17   26.50
   7   2  -7  780.74   91.55
   7   2  -7  638.86   32.69
   7  -2  -7  717.08   73.44
   7  -2  -7  746.86   73.06
  -7  -2   7  689.34   44.97
  -7   2   7  836.41   77.65
   7   2  -6  377.03   98.28
   7  -2  -6  289.98   48.07
   7  -2  -6  118.42   65.48
  -7  -2   6  293.05   53.21
  -7   2   6  149.02   79.49
   7   2  -5  908.10   97.31
   7  -2  -5 1116.09   79.87
  -7  -2   5  921.32   81.44
  -7   2   5 1002.01   85.37
   7   2  -4 1098.65  101.12
   7  -2  -4 1127.23   79.14
   7  -2  -4 1083.72   71.65
  -7  -2   4 1166.78  122.06
  -7   2   4 1163.22   87.99
   7   2  -3 2859.44  224.58
   7  -2  -3 2338.69  118.36
   7  -2  -3 2983.52  144.47
  -7  -2   3 2912.15  194.87
  -7   2   3 2840.24  146.50
   7   2  -2 3066.35  184.49
   7  -2  -2 3468.34  210.53
  -7  -2   2 3383.50  171.90
   7  -2  -1 6415.82  282.43
   7  -2  -1 6299.31  241.67
  -7  -2   1 6306.67  278.17
   7  -2   0 1585.62   99.02
   7  -2   0 1453.02   86.67
  -7  -2   0 1550.11   99.43
   7  -2   1 3182.29  164.27
  -7  -2  -1 3142.87  161.26
   7   2   2 9696.54  322.19
   7   2   2 8634.66  288.53
   7  -2   210492.61  551.94
   7  -2   2 9567.41  416.92
  -7  -2  -2 8920.74  392.52
   7   2   3 3501.31  121.75
   7  -2   3 4192.53  219.99
   7  -2   3 4276.34  209.60
  -7  -2  -3 4255.24  249.22
   7  -2   4  374.55   62.07
   7  -2   4  397.92   69.17
  -7  -2  -4  358.15   83.65
   7   2   5 2449.69  123.12
   7  -2   5 2758.40  165.75
   7  -2   5 2700.76  157.56
  -7  -2  -5 2644.76  141.63
   7   2   6 1150.24   85.75
   7  -2   6 1211.39  105.43
  -7  -2  -6 1372.41   80.03
  -7  -2  -6 1262.07   90.82
   7   2   7  868.32   61.08
   7  -2   7  904.95   96.64
  -7  -2  -7 1082.59   83.98
  -7  -2  -7  978.96  102.28
   7   2   8  235.69   38.27
   7  -2   8  316.03  101.72
  -7  -2  -8  288.96   51.68
  -7  -2  -8  270.68   47.12
   7   2   9  309.61   75.80
   7  -2   9  448.98  121.63
  -7  -2  -9  355.66   60.47
  -7  -2  -9  377.27   92.97
   7   2  10  815.52   77.59
   7  -2  10  829.20  112.44
  -7  -2 -10  883.90  133.44
   7   2  11  710.21   77.73
   7  -2  11  697.36  110.21
  -7  -2 -11  712.47   91.66
   7   3 -10   11.14   39.34
   7  -3 -10   35.44   57.62
   7  -3 -10    7.51   32.27
  -7   3  10   16.70   38.91
   7   3  -9 1234.45  128.56
   7  -3  -9 1349.89  175.47
   7  -3  -9 1220.13  106.08
  -7   3   9 1296.31  188.04
   7   3  -8   35.98   97.95
   7  -3  -8   29.99   44.19
   7  -3  -8  287.31   57.70
  -7   3   8  261.88   58.04
   7   3  -7    9.40   38.73
   7  -3  -7   -2.69   25.07
   7  -3  -7   72.32   34.23
  -7  -3   7    9.49   32.19
  -7   3   7   42.92   55.47
   7   3  -6  351.87   74.71
   7  -3  -6  436.93   65.31
   7  -3  -6  259.96   46.79
  -7  -3   6  358.03   61.83
  -7   3   6  450.47   69.61
   7   3  -5  840.06  100.85
   7  -3  -5  901.28   88.37
   7  -3  -5  711.52   89.17
  -7  -3   5  886.55   81.21
  -7   3   5  916.42   94.82
   7   3  -4 1754.98  139.85
   7  -3  -4 1938.40  120.12
   7  -3  -4 1350.72   82.15
  -7  -3   4 1817.49  162.30
  -7   3   4 1787.37  178.14
   7  -3  -3 1354.62  145.55
   7  -3  -3  955.45   82.93
  -7  -3   3 1049.03  132.00
  -7   3   3 1085.43   97.97
   7  -3  -2 2698.25  196.88
   7  -3  -2 2205.46  119.90
  -7  -3   2 2200.61  134.42
   7  -3  -1 5258.63  273.71
   7  -3  -1 2921.32  137.66
  -7  -3   1 2632.25  159.84
   7  -3   0 6612.73  345.39
  -7  -3   0 4082.48  219.58
   7  -3   1 3289.71  218.32
  -7  -3  -1 1720.04  123.24
   7  -3   2 1072.53  146.72
   7  -3   2 1144.00  120.44
  -7  -3  -2 1154.71  142.96
   7  -3   3  618.60  122.09
   7  -3   3  690.40   94.99
  -7  -3  -3  676.53   75.54
   7   3   4 2005.56   70.38
   7  -3   4 2480.73  153.84
   7  -3   4 2507.09  175.17
  -7  -3  -4 2394.48  145.43
   7   3   5  598.99   33.47
   7  -3   5  776.05   98.54
   7  -3   5  778.96   90.45
  -7  -3  -5  848.91  121.47
  -7  -3  -5  712.41   44.15
   7   3   6  598.02   54.41
   7  -3   6  730.76   99.15
   7  -3   6  768.33  136.23
  -7  -3  -6  679.11   79.72
  -7  -3  -6  686.43   69.75
   7   3   7  660.28   65.07
   7  -3   7  751.99  104.23
   7  -3   7  724.81   97.18
  -7  -3  -7  812.35  131.92
  -7  -3  -7  770.47   83.44
   7   3   8  960.22   64.75
   7  -3   8 1179.36  125.88
  -7  -3  -8 1121.60  106.82
  -7  -3  -8 1137.19   78.42
   7   3   9   84.36   30.76
   7  -3   9  114.28  101.41
  -7  -3  -9  117.59   52.77
  -7  -3  -9  116.36   38.02
   7   3  10  388.29   80.46
   7  -3  10  453.33   99.55
  -7  -3 -10  478.25   64.31
   7   4  -8   50.94   49.81
   7  -4  -8   35.18   31.14
   7  -4  -8   49.95   49.13
  -7  -4   8   12.93   40.69
  -7   4   8   48.10   50.34
   7  -4  -7  193.55  102.36
   7  -4  -7   95.97   62.47
  -7  -4   7  143.12   51.05
  -7   4   7  154.02   66.21
   7  -4  -6  267.97  117.15
   7  -4  -6  261.16   68.67
  -7  -4   6  282.94   96.32
  -7   4   6  350.00   79.76
   7  -4  -5 1038.77  166.13
   7  -4  -5  955.20   66.63
  -7  -4   5  877.98  134.82
  -7   4   5  826.56  111.53
   7  -4  -4 2209.96  156.80
   7  -4  -4 2104.48  103.23
  -7  -4   4 2043.49  138.46
  -7   4   4 2041.76  156.34
   7  -4  -3  502.76   74.83
   7  -4  -3  253.52   52.60
  -7  -4   3  452.79   66.55
   7  -4  -2  229.62   54.57
   7  -4  -2  150.90   23.52
  -7  -4   2  178.27   52.76
   7  -4  -1 1005.22   63.88
   7  -4  -1 1051.56  100.99
  -7  -4   1  982.31   98.60
   7  -4   0   65.10   38.45
   7  -4   0   40.98   12.25
  -7  -4   0   46.19   61.92
   7  -4   1  498.15   74.08
  -7  -4  -1  477.56   74.57
   7  -4   2  101.35   50.52
   7  -4   2  106.55   64.51
  -7  -4  -2   86.59   49.06
   7  -4   3  929.87  151.82
   7  -4   3  985.79  126.36
  -7  -4  -3  903.53  148.42
   7  -4   4  453.64   82.12
   7  -4   4  500.61  102.23
  -7  -4  -4  521.90   80.07
   7  -4   5    7.30   56.82
   7  -4   5   69.06   50.26
  -7  -4  -5  137.27   76.75
   7  -4   6  334.08  137.71
   7  -4   6  191.85  123.44
  -7  -4  -6  359.45   73.65
   7  -4   7   67.60   99.93
   7  -4   7   80.18   56.71
  -7  -4  -7   55.13   81.91
   7   4   8   22.39   30.22
   7  -4   8   35.76   52.67
   7  -4   8   18.56   79.32
  -7  -4  -8   20.55   44.79
  -7  -4  -8   38.11   36.16
  -7   5   6   78.07  111.17
   7  -5  -5  225.36   79.71
   7  -5  -5  191.54   37.02
  -7  -5   5  208.67   60.40
  -7   5   5  201.72   79.60
   7  -5  -4  737.09   80.75
   7  -5  -4  803.10  117.15
  -7  -5   4  719.55  146.52
   7  -5  -3  376.46   37.23
   7  -5  -3  407.73   89.71
  -7  -5   3  369.61   74.31
   7  -5  -2 1058.35  120.59
   7  -5  -2 1112.04   75.20
  -7  -5   2  999.81  112.03
   7  -5  -1 1201.16  145.90
  -7  -5   1  138.78   70.23
   7  -5   0  410.52   83.54
  -7  -5   0  356.75  123.47
   7  -5   1   65.38   47.49
  -7  -5  -1   35.37   47.21
   7  -5   2  316.23   74.92
   7  -5   2  221.20  100.52
  -7  -5  -2  305.76   77.95
   7  -5   3  206.56  110.47
   7  -5   3  167.98   85.19
  -7  -5  -3  145.45  107.06
   7  -5   4  348.54   85.71
   7  -5   4  326.84  106.84
  -7  -5  -4  397.70   85.05
   7  -5   5   63.99  114.47
   7  -5   5   84.07   56.55
  -7  -5  -5   52.92   92.73
   8   0 -10 2811.24  152.04
   8   0 -10 2921.56  207.63
  -8   0  10 3039.79  204.30
   8   0  -9    5.43   20.94
   8   0  -9   12.96   35.34
  -8   0   9   16.71   21.49
   8   0  -8 4138.83  319.45
   8   0  -8 4305.33  195.80
  -8   0   8 4135.48  192.20
   8   0  -7 1448.29  118.67
   8   0  -7 1498.94   83.53
  -8   0   7 1507.24  113.88
   8   0  -6 2498.63  114.33
   8   0  -6 2094.29  149.26
  -8   0   6 2204.65  138.36
   8   0  -5   -0.65   24.55
   8   0  -5    5.43   13.42
  -8   0   5    7.20   13.61
   8   0  -4 3241.40  152.76
   8   0  -4 3181.25  172.32
   8   0  -3 1214.89   97.66
   8   0  -3 1344.39   59.19
   8   0  -2 1385.70   96.66
   8   0  -2 1516.87   83.98
  -8   0   2 1472.19   83.49
   8   0  -1   58.03   38.74
   8   0  -1  261.44   37.73
   8   0  -1  216.94   30.50
  -8   0   1   45.40   32.38
   8   0   0 7469.48  284.93
   8   0   0 8142.02  351.33
   8   0   0 6436.13  297.88
  -8   0   0 6798.46  286.34
   8   0   1  891.55   55.05
   8   0   1  908.85   59.19
  -8   0  -1  886.10   56.19
   8   0   2  857.37   57.28
   8   0   2  795.82   58.40
  -8   0  -2  738.36   71.83
   8   0   3 2030.85  130.46
   8   0   3 1937.98   99.35
  -8   0  -3 1807.21   83.57
   8   0   4  487.11   53.99
   8   0   4  622.73   54.70
  -8   0  -4  375.74   37.07
   8   0   5   39.66   26.06
  -8   0  -5   40.22   16.98
   8   0   6 2077.79  126.74
  -8   0  -6 2362.20  117.21
   8   0   7   80.56   42.01
  -8   0  -7  154.03   23.09
   8   0   8 1130.89  136.41
  -8   0  -8 1000.81   75.05
   8   0   9  331.11   61.89
  -8   0  -9  337.61   31.73
   8   0  10   10.57   31.27
   8   1 -10  242.58   59.37
   8   1 -10  240.73  122.59
   8  -1 -10  309.76   84.63
   8  -1 -10  262.59   71.02
  -8  -1  10  285.78   58.30
  -8   1  10  251.88   57.55
   8   1  -9   62.63   50.32
   8   1  -9   68.29   23.70
   8  -1  -9   86.85   55.40
   8  -1  -9   62.19   45.22
  -8  -1   9   56.09   23.94
  -8   1   9   61.90   58.14
   8   1  -8   87.10   22.48
   8   1  -8   88.44   51.12
   8  -1  -8   88.78   54.94
   8  -1  -8  103.43   45.39
  -8  -1   8   71.13   21.72
  -8   1   8   71.51   35.39
   8   1  -7  990.72   54.56
   8   1  -7  967.74  106.06
   8  -1  -7 1034.75  145.48
   8  -1  -7 1182.35  115.46
  -8  -1   7 1031.31   56.24
  -8   1   7 1085.01  116.94
   8   1  -6 1996.34  146.70
   8   1  -6 2064.73  105.63
   8  -1  -6 2137.28  136.35
   8  -1  -6 2265.07  156.42
  -8  -1   6 2120.49  106.18
  -8   1   6 2188.52  161.02
   8   1  -5  136.46   18.55
   8   1  -5  108.49   50.26
   8  -1  -5  155.52   32.67
   8  -1  -5  110.24   65.44
  -8   1   5  106.00   54.69
   8   1  -4 1114.06  103.32
   8   1  -4 1216.48   61.77
   8  -1  -4 1162.16   70.46
   8  -1  -4 1025.21   83.37
  -8  -1   4 1164.94   90.05
   8   1  -3  633.27   29.61
   8   1  -3  448.04  114.86
   8  -1  -3  839.12   73.92
  -8  -1   3  744.35  101.11
   8   1  -2  556.91   25.30
   8   1  -2  618.92   76.27
   8   1  -2  831.24   49.94
   8  -1  -2  587.75   86.58
   8  -1  -2  624.26   49.32
  -8  -1   2  856.61   68.40
   8   1  -1 1607.56   67.29
   8   1  -1 1392.24  111.23
   8   1  -1 1712.19   64.42
   8  -1  -1 1792.14   92.03
   8  -1  -1 1267.77  114.34
  -8  -1   1 1726.88  102.85
   8   1   0 2047.44   91.55
   8   1   0 2083.89   88.67
   8  -1   0 1806.54   96.23
   8  -1   0 2240.50  125.30
   8  -1   0 2247.36  141.79
  -8  -1   0 1949.75  108.69
   8   1   1 2463.01   93.58
   8   1   1 2319.53   87.34
   8  -1   1 2550.80  128.08
   8  -1   1 2657.49  139.93
  -8  -1  -1 2401.10  122.79
   8   1   2 1168.05   56.43
   8   1   2 1211.31   56.69
   8  -1   2 1309.67   93.01
   8  -1   2 1294.19   81.29
  -8  -1  -2 1386.42  113.98
   8   1   3 2303.13   98.17
   8   1   3 2614.61  107.07
   8  -1   3 2622.26  135.80
   8  -1   3 2580.30  140.81
  -8  -1  -3 2409.54  118.72
  -8   1  -3 2519.79   94.90
   8   1   4  526.47   43.95
   8   1   4  566.93   45.01
   8  -1   4  719.93   69.87
   8  -1   4  722.89  102.58
  -8  -1  -4  676.61   54.19
  -8   1  -4  605.07   44.25
   8   1   5  172.78   30.79
   8  -1   5  190.83   44.75
   8  -1   5  204.99   46.97
  -8  -1  -5  210.12   53.28
  -8   1  -5  195.73   16.97
   8   1   6  352.34   67.92
   8  -1   6  542.40   66.18
  -8  -1  -6  493.93   45.97
  -8   1  -6  358.51   31.35
   8   1   7  458.11   52.78
   8  -1   7  576.68   71.81
  -8  -1  -7  529.64   48.47
  -8   1  -7  458.28   31.07
   8   1   8  290.52   69.46
   8  -1   8  251.79   59.99
  -8  -1  -8  264.66   60.83
   8   1   9  202.33   45.60
   8  -1   9    0.51   93.20
  -8  -1  -9  227.53   37.23
   8   1  10  113.35   66.95
   8  -1  10    4.57   54.33
  -8  -1 -10  171.12   32.56
  -8  -1 -10   -4.97   53.44
   8  -2 -10  332.55   62.96
  -8   2  10   -2.38  103.20
   8   2  -9  122.40   59.56
   8  -2  -9  106.87   47.04
   8  -2  -9  139.83   44.84
  -8   2   9   -0.36   47.04
   8   2  -8  335.41  119.98
   8  -2  -8  334.28   58.34
   8  -2  -8  407.64   91.81
  -8   2   8   -3.22   94.20
   8   2  -7  398.05   82.52
   8  -2  -7  389.85   94.80
   8  -2  -7  516.96   98.77
  -8   2   7  470.43   68.08
   8   2  -6  188.21   61.44
   8  -2  -6  255.02   74.97
   8  -2  -6  190.82   46.92
  -8  -2   6  239.54   56.26
  -8   2   6  180.32   50.57
   8   2  -5  248.45  109.53
   8  -2  -5  262.37   50.36
   8  -2  -5  217.38   46.47
  -8  -2   5  354.57   87.95
  -8   2   5  486.50   84.98
   8   2  -4  563.96   92.17
   8  -2  -4  908.34   69.28
  -8  -2   4  481.03   72.91
  -8   2   4  709.97   70.27
   8   2  -3 1482.62  125.78
   8  -2  -3 1543.86   95.70
   8  -2  -3 1498.52  114.68
  -8  -2   3 1420.17   99.94
   8  -2  -2  213.95   37.71
   8  -2  -2   72.61   28.75
  -8  -2   2  182.08   41.66
   8  -2  -1  218.49   34.78
   8  -2  -1    1.66   36.67
  -8  -2   1    8.39   58.93
   8  -2   0  279.41   30.17
   8  -2   0  322.63   75.01
  -8  -2   0  293.12   48.96
   8   2   1  916.17   30.98
   8   2   1  917.59   31.50
   8  -2   1 1021.37  121.01
   8  -2   1 1036.04   70.13
   8  -2   1 1028.78   96.56
  -8  -2  -1  940.56   76.66
   8   2   2  883.72   41.06
   8   2   2  808.62   30.34
   8  -2   2  934.02   92.00
   8  -2   2  876.77  116.64
  -8  -2  -2  870.07   73.57
   8  -2   3  354.16   83.81
   8  -2   3  375.32   64.78
  -8  -2  -3   47.47   75.57
   8   2   4 2832.66  108.97
   8  -2   4 3191.41  174.75
   8  -2   4 3408.19  196.67
  -8  -2  -4 2947.24  155.59
   8   2   5  940.77   71.04
   8  -2   5 1053.51  101.39
   8  -2   5 1063.25   98.55
  -8  -2  -5 1075.96   82.95
   8   2   6   49.16   30.93
   8  -2   6   58.25   41.54
   8  -2   6   54.60   40.14
  -8  -2  -6   50.88   31.36
   8   2   7  140.43   29.56
   8  -2   7  160.63   57.37
  -8  -2  -7  178.32   41.09
   8   2   8   54.82   26.08
   8  -2   8   53.23   46.65
  -8  -2  -8   65.47   33.67
   8   2   9  100.69   57.07
   8  -2   9  106.45   98.65
  -8  -2  -9  115.76   69.67
  -8  -2  -9  179.75   46.66
   8   3  -8   22.37   49.60
   8  -3  -8   21.45   31.83
   8  -3  -8   64.47   39.23
  -8   3   8    0.10   43.22
   8   3  -7  229.38   74.19
   8  -3  -7  123.96   74.38
   8  -3  -7  286.28   61.69
  -8  -3   7  316.99   64.37
  -8   3   7   -3.61  104.79
   8   3  -6    9.47   45.08
   8  -3  -6   24.70   22.05
   8  -3  -6  -10.05   15.64
  -8  -3   6   -2.94   35.34
  -8   3   6   -0.46   23.94
   8   3  -5   87.00   60.62
   8  -3  -5  149.72   47.77
   8  -3  -5   73.23   32.07
  -8  -3   5   92.22   45.72
  -8   3   5  124.48   50.04
   8  -3  -4 2049.53  135.17
   8  -3  -4 1613.39  130.10
  -8  -3   4 1778.55  128.46
   8  -3  -3 1103.98   94.44
   8  -3  -3  939.14   62.78
  -8  -3   3  922.19   92.00
   8  -3  -2  802.04   77.04
   8  -3  -2  587.01   46.44
  -8  -3   2  694.98  122.19
   8  -3  -1  627.27   72.61
   8  -3  -1  561.09   58.02
  -8  -3   1  552.02   71.04
   8  -3   0 2062.56   86.98
   8  -3   0 2436.87  146.48
  -8  -3   0 2380.04  147.22
   8  -3   1  130.36   17.86
   8  -3   1  143.18   64.43
   8  -3   1  220.56   49.32
  -8  -3  -1  142.12   49.37
   8  -3   2 1129.92  124.68
   8  -3   2 1202.18  106.44
  -8  -3  -2 1125.49  142.40
   8  -3   3  543.58   80.39
   8  -3   3  563.47  152.07
  -8  -3  -3  590.56   74.04
   8  -3   4 2412.17  227.38
   8  -3   4 2668.30  269.92
  -8  -3  -4 2297.00  154.52
   8  -3   5  602.06  152.48
   8  -3   5  595.57   86.14
  -8  -3  -5  500.88   75.74
   8   3   6  306.03   39.42
   8  -3   6  323.20   83.29
   8  -3   6  336.73   75.14
  -8  -3  -6  350.48   62.43
   8   3   7  216.72   43.62
   8  -3   7  353.67   79.84
   8  -3   7  260.05  117.41
  -8  -3  -7  257.87   59.76
   8   3   8  582.71   70.36
   8  -3   8  592.26  108.30
   8  -3   8  662.46  103.50
  -8  -3  -8  704.93  131.24
  -8  -3  -8  694.36   64.60
   8  -4  -6  998.54  178.50
   8  -4  -6  838.85   73.34
  -8  -4   6  904.15  103.27
  -8   4   6  816.50  173.94
   8  -4  -5   38.05   36.73
   8  -4  -5   -1.23   18.88
  -8  -4   5   18.06   30.89
  -8   4   5    8.23   36.88
   8  -4  -4 1215.39   78.18
   8  -4  -4 1471.05  133.28
  -8  -4   4 1343.39  121.63
   8  -4  -3 1405.62  102.47
   8  -4  -3 1391.04  133.00
  -8  -4   3 1373.95  170.42
   8  -4  -2  585.98   84.59
   8  -4  -2  497.73   39.95
  -8  -4   2  515.21   81.69
   8  -4  -1  517.79   82.55
   8  -4  -1  505.15   51.39
  -8  -4   1  484.87   79.83
   8  -4   0  293.80   68.07
  -8  -4   0  232.39  103.16
   8  -4   1   -6.80   49.66
   8  -4   1   -2.26   41.17
  -8  -4  -1   13.70   28.57
   8  -4   2  467.26   82.97
   8  -4   2  657.84  172.08
  -8  -4  -2  477.97   81.01
   8  -4   3   91.60   79.64
   8  -4   3  291.32   65.08
  -8  -4  -3   30.10   95.74
   8  -4   4  812.68  105.41
   8  -4   4  804.99  133.82
  -8  -4  -4  859.17  107.35
   8  -4   5  294.21   90.85
   8  -4   5  254.45   75.01
  -8  -4  -5  249.21  112.49
   8  -4   6    2.52   39.24
   8  -4   6   23.68   34.08
  -8  -4  -6  -11.07   31.38
   8  -5  -2  900.93  197.83
   8  -5  -1  445.84   90.72
  -8  -5   1  337.78   84.69
   8  -5   0  546.46   99.06
  -8  -5   0  519.67   95.32
   8  -5   1  507.17   96.58
   8  -5   1  668.73  126.97
  -8  -5  -1  448.44   93.42
   9   0  -9  261.77   68.54
   9   0  -9  286.41   79.13
  -9   0   9  298.68   46.82
   9   0  -8   16.03   56.37
   9   0  -8    6.89   29.87
  -9   0   8   14.85   30.93
   9   0  -7   91.66   50.56
   9   0  -7   81.51   42.83
  -9   0   7   72.32   43.85
   9   0  -6 1040.78  108.95
   9   0  -6 1234.60   98.84
   9   0  -5  431.89   41.03
   9   0  -5  413.68   72.42
   9   0  -4 5670.26  287.43
   9   0  -4 5746.93  236.19
   9   0  -3    9.23   19.42
   9   0  -3   -3.86   16.14
   9   0  -2  693.46   39.51
   9   0  -2  749.28   55.44
   9   0  -2  672.52   72.53
   9   0  -1  786.22   62.97
   9   0  -1  840.76   57.64
   9   0  -1  815.95  112.08
  -9   0   1  842.69   61.07
   9   0   0    9.28   29.90
   9   0   0   19.08   15.24
  -9   0   0   17.46   18.11
   9   0   1    0.12   24.82
   9   0   1   11.86   21.68
  -9   0  -1    6.15   14.81
   9   0   2  863.13   57.72
   9   0   2  830.35   84.56
  -9   0  -2  844.89   79.19
   9   0   3  226.87   53.57
   9   0   3  226.79   56.81
  -9   0  -3  225.24   30.86
   9   0   4  481.06   83.22
   9   0   4  598.03   82.93
   9   0   5   64.57   50.28
   9   0   5   71.23   48.61
  -9   0  -5   77.36   31.58
   9   0   6  518.29   62.83
   9   0   6  559.60   61.79
  -9   0  -6  470.32   38.39
   9   0   7  285.35   51.71
  -9   0  -7  292.28   44.69
   9   0   8   22.42   47.55
   9   1  -8  289.53   82.30
   9  -1  -8  271.07  111.55
   9  -1  -8  327.86   79.42
  -9   1   8  313.46   87.28
   9   1  -7  146.64   61.56
   9  -1  -7  153.82   60.50
   9  -1  -7  151.17   53.02
  -9   1   7  104.91   40.54
   9   1  -6  478.01  137.00
   9  -1  -6  573.28   73.87
   9  -1  -6  617.64   89.68
  -9   1   6  509.93   58.52
   9   1  -5 1471.29  133.22
   9   1  -5 1495.15   81.73
   9  -1  -5 1804.16  137.39
   9  -1  -5 1591.12  160.50
   9   1  -4 1299.77  168.75
   9   1  -4 1356.28   55.82
   9   1  -4 1077.49   55.38
   9  -1  -4 1285.44   97.75
   9  -1  -4 1428.52   84.50
   9   1  -3  722.52   44.34
   9   1  -3  429.26   81.40
   9   1  -3  597.33   35.29
   9  -1  -3  621.16   51.36
   9  -1  -3  460.99   62.14
  -9  -1   3  466.90   67.19
   9   1  -2  825.46   46.67
   9   1  -2  842.31   91.96
   9   1  -2  889.11   56.01
   9  -1  -2  802.01   56.29
   9  -1  -2  909.06  102.14
  -9  -1   2  890.56   72.83
   9   1  -1  315.93   36.56
   9   1  -1  281.93   26.14
   9  -1  -1  378.28   53.30
   9  -1  -1  341.96   59.69
   9  -1  -1  323.62   69.10
  -9  -1   1  398.71   72.35
   9   1   0  148.12   27.72
   9   1   0  114.55   24.51
   9  -1   0  111.36   40.03
   9  -1   0  153.08   31.22
   9  -1   0  103.20   31.77
  -9  -1   0  138.71   34.86
   9   1   1   48.07   21.70
   9   1   1   51.92   24.81
   9  -1   1   65.50   26.55
   9  -1   1   54.56   31.94
  -9  -1  -1   43.96   27.78
   9   1   2   53.09   30.40
   9   1   2   78.01   30.01
   9  -1   2   87.56   37.74
   9  -1   2  220.71   35.13
  -9  -1  -2   75.12   49.77
   9   1   3  955.54   53.81
   9   1   3 1045.79   75.05
   9  -1   3  974.76   81.89
   9  -1   3  965.21   77.01
  -9  -1  -3  956.72   69.61
   9   1   4  338.20   37.27
   9   1   4  359.45   57.45
   9  -1   4  404.12   56.09
   9  -1   4  475.30   59.08
  -9  -1  -4  418.67   47.53
  -9   1  -4  354.79   27.18
   9   1   5  573.94   49.51
   9   1   5  528.83   47.09
   9  -1   5  708.55  109.09
   9  -1   5  605.23   70.92
  -9  -1  -5  598.97   54.79
  -9   1  -5  545.83   31.76
   9   1   6    0.94   25.44
   9  -1   6   -8.20   38.12
   9  -1   6    7.16   39.78
  -9  -1  -6   11.07   16.64
   9   1   7   69.97   27.48
   9  -1   7  -16.52   40.00
   9  -1   7   83.68   39.92
  -9  -1  -7   77.90   40.07
   9   1   8  232.29   45.12
   9  -1   8  258.25   62.10
  -9  -1  -8  257.14   38.67
   9   2  -8  261.83   81.24
   9  -2  -8  258.10   98.62
   9  -2  -8  372.26   90.79
  -9   2   8    1.22   96.50
   9   2  -7  686.17  116.98
   9  -2  -7  832.23   90.31
   9  -2  -7  944.22  128.37
  -9   2   7  818.66   88.77
   9   2  -6    8.13   34.31
   9  -2  -6   12.48   38.39
   9  -2  -6    6.54   23.94
  -9   2   6    3.11   24.27
   9   2  -5   59.65   52.00
   9  -2  -5  129.55   61.17
   9  -2  -5   58.60   56.00
  -9  -2   5   48.97   45.04
   9  -2  -4  241.61   47.75
   9   2  -4  271.85   79.39
   9  -2  -4  531.44   85.87
  -9  -2   4  262.37  100.99
   9  -2  -3  867.79  103.64
   9  -2  -3  518.16   57.20
  -9  -2   3  555.98   72.99
   9  -2  -2  564.52   79.69
   9  -2  -2  630.33   63.30
  -9  -2   2  515.76   68.79
   9  -2  -1  138.51   47.48
   9  -2  -1  210.38   41.15
  -9  -2   1  133.32   46.55
   9  -2   0  310.38   49.46
   9  -2   0  257.70   34.44
   9  -2   0  331.10   63.46
  -9  -2   0  242.97   80.38
   9  -2   1  763.81   75.27
   9  -2   1  732.71   89.79
  -9  -2  -1  715.30   73.17
   9  -2   2  497.64   69.35
   9  -2   2  453.66   78.71
  -9  -2  -2  513.40   64.09
   9  -2   3  932.89  100.79
   9  -2   3  895.11   86.35
  -9  -2  -3  882.27   79.37
   9  -2   4  887.03  144.73
   9  -2   4  973.46  132.27
   9   2   4  884.07   62.35
   9   2   4  829.48   57.70
  -9  -2  -4  832.76   78.47
   9  -2   5  283.30  107.48
   9  -2   5  330.19   63.33
   9   2   5  311.25   31.51
   9   2   5  282.44   43.61
  -9  -2  -5  325.21   78.70
   9  -2   6   -2.60   55.40
   9  -2   6  170.11   53.69
   9   2   6  164.51   26.29
  -9  -2  -6  139.35   40.45
   9  -2   7  311.81   72.81
   9  -2   7  278.18  112.58
   9   2   7  253.78   37.14
  -9  -2  -7  286.38   77.51
   9   3  -6  451.97  108.47
   9  -3  -6  571.21   82.54
   9  -3  -6  440.60   63.98
  -9  -3   6  459.72   90.36
  -9   3   6  512.64   82.38
   9  -3  -5    6.48   49.08
   9  -3  -5   78.23   42.11
  -9  -3   5   37.50   43.67
   9  -3  -4  501.09   71.18
   9  -3  -4  358.40   50.40
  -9  -3   4  437.48  116.69
   9  -3  -3   79.01   44.46
   9  -3  -3   62.03   27.47
  -9  -3   3   61.16   42.95
   9  -3  -2  705.12   54.22
   9  -3  -2  725.03   83.66
  -9  -3   2  701.95   84.18
   9  -3  -1  238.75   32.79
   9  -3  -1  295.80   59.53
  -9  -3   1  231.11   95.43
   9  -3   0  600.57  104.28
   9  -3   0  388.10   48.50
   9  -3   0   70.99   83.36
  -9  -3   0  341.81   66.79
   9  -3   1   28.86   69.16
   9  -3   1   72.27   86.00
  -9  -3  -1   62.32   41.25
   9  -3   2   77.57   47.75
   9  -3   2  107.17   58.24
  -9  -3  -2   73.32   73.71
   9  -3   3  194.01   60.28
   9  -3   3  202.02   70.87
  -9  -3  -3  160.63   54.23
   9  -3   4  493.49   97.36
   9  -3   4  559.71   82.50
  -9  -3  -4  487.57  115.48
   9  -3   5  297.00   79.48
   9  -3   5  115.91  110.92
  -9  -3  -5  265.49   59.32
   9  -3   6  520.41  152.74
   9  -3   6  448.38   92.32
  -9  -3  -6  482.50  115.59
   9  -4  -3  627.66   98.93
   9  -4  -3  554.89   50.48
  -9  -4   3  504.83   88.48
   9  -4  -2  589.18  124.38
  -9  -4   2   68.54  109.89
   9  -4  -1   41.63   58.37
  -9  -4   1    2.98   35.19
   9  -4   0   22.17   32.38
   9  -4   0  -34.42   45.58
  -9  -4   0   13.44   32.31
   9  -4   1  377.74   78.54
   9  -4   1  349.74  102.60
  -9  -4  -1  347.73   76.90
   9  -4   2   94.78   60.35
   9  -4   2   96.97   70.84
  -9  -4  -2   99.43   54.53
   9  -4   3  154.14  105.41
  10   0  -6  573.30   72.83
  10   0  -6  569.17   90.98
  10   0  -5   -6.68   31.96
  10   0  -5    2.05   15.95
  10   0  -4  209.86   43.18
  10   0  -4   -4.50   50.05
  10   0  -3  670.33   85.07
  10   0  -3  768.74   51.48
  10   0  -3  712.30   59.54
  10   0  -2    5.63   27.37
  10   0  -2   -0.57   10.80
  10   0  -1  458.72   36.21
  10   0  -1   41.33   21.43
  10   0   0  358.38   35.17
  10   0   0  446.96   67.03
 -10   0   0  441.37   46.09
  10   0   1 2388.02  147.66
  10   0   1 2350.42  136.76
 -10   0  -1 2420.51  119.19
  10   0   2   45.08   21.60
  10   0   2   42.69   23.95
 -10   0  -2   37.90   35.42
  10   0   3  161.71   36.56
  10   0   3  193.48   38.80
 -10   0  -3  175.47   31.18
  10   0   4  141.61   34.31
  10   0   4  154.22   36.04
 -10   0  -4  145.84   43.23
  10   0   5   28.23   26.84
  10   0   5   31.92   26.57
 -10   0  -5   36.98   18.17
  10   0   6  296.50   54.20
  10   0   6  252.16   78.42
 -10   0  -6  348.89   49.72
  10   1  -6   43.28   37.27
  10  -1  -6    0.79   22.43
  10  -1  -6    4.47   30.77
  10   1  -5  232.42   76.61
  10  -1  -5   -5.81   98.10
  10  -1  -5  364.32   47.66
  10   1  -4  556.54   91.50
  10  -1  -4  678.72   61.96
  10  -1  -4  578.79   77.00
  10   1  -3   -2.74   35.55
  10  -1  -3   31.91   33.80
  10  -1  -3   17.44   26.58
 -10  -1   3    9.89   30.21
  10  -1  -2  334.89   57.05
  10  -1  -2  363.45   65.28
  10  -1  -2  351.15   85.03
 -10  -1   2  361.89   57.58
  10  -1  -1  195.51   71.66
  10  -1  -1  205.72   34.69
  10  -1  -1  398.38   78.83
 -10  -1   1  237.41   45.78
  10  -1   0   62.64   26.87
  10  -1   0   58.60   56.60
 -10  -1   0   77.03   31.40
  10  -1   1  207.26   38.57
  10  -1   1  130.87   70.26
 -10  -1  -1  184.53   40.42
  10   1   2   76.07   30.85
  10  -1   2   59.88   59.80
  10  -1   2  113.53   35.24
 -10  -1  -2  104.43   51.35
  10   1   3  363.69   49.72
  10   1   3  332.18   34.25
  10  -1   3  392.86   90.57
  10  -1   3  417.11   55.86
 -10  -1  -3  382.11   48.83
  10   1   4  340.09   56.94
  10   1   4  387.40   37.48
  10  -1   4  444.37   63.17
  10  -1   4  406.67   59.57
 -10  -1  -4  339.98   74.77
  10   1   5  407.74   64.73
  10   1   5  456.99   45.79
  10  -1   5  384.92   64.61
  10  -1   5  377.97   66.57
 -10  -1  -5  419.89   49.38
  10   1   6  224.52   37.23
  10   1   6  182.09   33.84
  10  -1   6   -4.20   51.09
  10  -1   6  137.64   77.48
 -10  -1  -6  181.05   54.11
  10  -2  -5  205.72   46.69
  10  -2  -5   -5.03   73.64
  10   2  -5  138.25   71.94
 -10  -2   5  123.21   62.26
  10  -2  -4   18.88   24.72
  10  -2  -4   -0.06   22.95
  10   2  -4   21.13   37.93
 -10  -2   4   -2.13   31.27
  10  -2  -3  322.07   52.66
  10  -2  -3  268.67   49.64
 -10  -2   3  234.24   62.72
  10  -2  -2  151.16   40.99
  10  -2  -2  114.17   35.80
 -10  -2   2  117.28   46.78
  10  -2  -1  456.53   57.90
  10  -2  -1  490.23   51.07
  10  -2  -1  495.72   80.40
 -10  -2   1  469.71   67.37
  10  -2   0   47.09   30.98
  10  -2   0   36.15   40.27
  10  -2   0   34.84   23.22
 -10  -2   0   56.45   54.19
  10  -2   1   45.81   34.04
  10  -2   1   30.44   68.37
 -10  -2  -1   54.26   34.75
  10  -2   2   58.35   38.57
  10  -2   2   71.28   77.25
 -10  -2  -2   80.90   37.72
  10  -2   3  251.12   59.12
  10  -2   3  339.88   67.45
 -10  -2  -3  210.89   53.01
  10  -2   4  108.43   51.83
  10  -2   4  106.10   73.56
 -10  -2  -4  103.54   41.41
  10  -3  -2  517.15   79.06
  10  -3  -1   85.07   41.69
  10  -3  -1   15.31   54.42
 -10  -3   1   46.24   43.69
  10  -3   0    5.00   29.92
  10  -3   0   18.07   39.95
 -10  -3   0   15.08   49.04
  10  -3   1  166.05   59.78
  10  -3   1  232.90   72.61
 -10  -3  -1  188.08   58.55
  11   0   0   11.35   28.73
  11   0   1    0.75   16.03
   0   0   0    0.00    0.00
;
_shelx_hkl_checksum              89804
loop_
_space_group_symop_operation_xyz
'x, y, z'
'-x, y+1/2, -z'
loop_
_atom_site_label
_atom_site_type_symbol
_atom_site_fract_x
_atom_site_fract_y
_atom_site_fract_z
_atom_site_U_iso_or_equiv
_atom_site_adp_type
_atom_site_occupancy
_atom_site_site_symmetry_order
_atom_site_calc_flag
_atom_site_refinement_flags_posn
_atom_site_refinement_flags_adp
C1 C 0.5269(12) 0.475(2) 0.7828(8) 0.041(2) Uani 1 1 d . .
H1 H 0.418008 0.446605 0.770914 0.049 Uiso 1 1 calc R U
C2 C 0.6003(13) 0.671(2) 0.7318(9) 0.042(2) Uani 1 1 d . .
H2 H 0.537220 0.767372 0.685051 0.050 Uiso 1 1 calc R U
N1 N 0.7500(10) 0.7285(16) 0.7446(6) 0.0362(19) Uani 1 1 d . .
C3 C 0.8293(11) 0.5777(17) 0.8093(7) 0.0289(18) Uani 1 1 d . .
C4 C 0.7756(10) 0.3782(16) 0.8635(7) 0.0266(17) Uani 1 1 d . .
C5 C 0.6123(11) 0.3302(18) 0.8483(8) 0.033(2) Uani 1 1 d . .
N2 N 0.8960(9) 0.2665(16) 0.9232(6) 0.0315(17) Uani 1 1 d . .
C6 C 1.0177(12) 0.4023(19) 0.9033(8) 0.0326(19) Uani 1 1 d . .
H3 H 1.119509 0.371016 0.932876 0.039 Uiso 1 1 calc R U
N3 N 0.9871(9) 0.5911(16) 0.8373(6) 0.0334(18) Uani 1 1 d . .
N4 N 0.5367(10) 0.1298(16) 0.9025(7) 0.037(2) Uani 1 1 d . .
O1 O 0.4004(9) 0.0877(16) 0.8779(7) 0.049(2) Uani 1 1 d . .
O2 O 0.6135(10) 0.0110(17) 0.9669(8) 0.054(2) Uani 1 1 d . .
C7 C 1.0975(12) 0.7672(19) 0.8002(7) 0.035(2) Uani 1 1 d . .
H4 H 1.191686 0.762295 0.848974 0.042 Uiso 1 1 calc R U
H5 H 1.048713 0.923736 0.808599 0.042 Uiso 1 1 calc R U
C8 C 1.1496(11) 0.7389(19) 0.6808(7) 0.032(2) Uani 1 1 d . .
C9 C 1.1145(11) 0.5387(18) 0.6180(8) 0.0324(19) Uani 1 1 d . .
H6 H 1.054937 0.415163 0.649666 0.039 Uiso 1 1 calc R U
C10 C 1.1664(14) 0.520(2) 0.5098(8) 0.044(3) Uani 1 1 d . .
H7 H 1.139142 0.385594 0.467507 0.053 Uiso 1 1 calc R U
C11 C 1.2566(14) 0.693(2) 0.4624(8) 0.043(3) Uani 1 1 d . .
H8 H 1.294782 0.676845 0.389173 0.051 Uiso 1 1 calc R U
C12 C 1.2896(14) 0.889(2) 0.5244(9) 0.043(2) Uani 1 1 d . .
H9 H 1.351045 1.010462 0.492679 0.052 Uiso 1 1 calc R U
C13 C 1.2362(12) 0.916(2) 0.6316(8) 0.037(2) Uani 1 1 d . .
H10 H 1.258868 1.055747 0.671552 0.045 Uiso 1 1 calc R U
loop_
_atom_site_aniso_label
_atom_site_aniso_U_11
_atom_site_aniso_U_22
_atom_site_aniso_U_33
_atom_site_aniso_U_23
_atom_site_aniso_U_13
_atom_site_aniso_U_12
C1 0.036(5) 0.055(7) 0.030(5) -0.008(4) -0.002(4) -0.001(5)
C2 0.040(5) 0.046(6) 0.039(5) 0.009(5) -0.003(4) 0.016(5)
N1 0.049(5) 0.035(5) 0.025(3) 0.004(3) 0.000(3) 0.008(4)
C3 0.033(4) 0.028(4) 0.026(4) 0.001(3) 0.000(3) 0.003(4)
C4 0.031(4) 0.025(4) 0.024(4) -0.003(3) 0.001(3) 0.000(4)
C5 0.028(4) 0.037(5) 0.034(4) -0.010(4) 0.004(3) -0.001(4)
N2 0.035(4) 0.032(4) 0.027(4) 0.004(3) -0.003(3) -0.002(4)
C6 0.036(4) 0.031(5) 0.031(4) -0.001(4) -0.002(3) 0.001(4)
N3 0.033(4) 0.037(5) 0.030(4) 0.006(3) 0.005(3) -0.002(4)
N4 0.036(4) 0.044(5) 0.030(4) -0.012(3) 0.008(3) -0.001(4)
O1 0.044(4) 0.053(5) 0.051(4) -0.003(4) 0.003(3) -0.022(4)
O2 0.048(5) 0.059(6) 0.055(5) 0.012(4) 0.007(4) -0.013(4)
C7 0.047(5) 0.028(5) 0.029(4) -0.007(4) 0.005(4) -0.011(5)
C8 0.031(4) 0.034(5) 0.030(4) 0.002(4) -0.001(3) -0.002(4)
C9 0.035(5) 0.027(5) 0.035(4) -0.005(4) 0.001(3) -0.001(4)
C10 0.052(6) 0.052(7) 0.028(4) -0.009(5) -0.001(4) 0.002(6)
C11 0.051(6) 0.054(7) 0.023(4) 0.004(4) 0.003(4) 0.014(5)
C12 0.050(6) 0.043(6) 0.037(5) 0.010(4) 0.003(4) 0.000(5)
C13 0.040(5) 0.037(5) 0.035(5) 0.002(4) -0.005(4) -0.008(5)
loop_
_atom_type_symbol
_atom_type_description
_atom_type_scat_dispersion_real
_atom_type_scat_dispersion_imag
_atom_type_scat_source
C C 0.0033 0.0016 'International Tables Vol C Tables 4.2.6.8 and 6.1.1.4'
H H 0.0000 0.0000 'International Tables Vol C Tables 4.2.6.8 and 6.1.1.4'
N N 0.0061 0.0033 'International Tables Vol C Tables 4.2.6.8 and 6.1.1.4'
O O 0.0106 0.0060 'International Tables Vol C Tables 4.2.6.8 and 6.1.1.4'
loop_
_geom_angle_atom_site_label_1
_geom_angle_atom_site_label_2
_geom_angle_atom_site_label_3
_geom_angle
C5 C1 C2 119.9(9)
C5 C1 H1 120.1
C2 C1 H1 120.1
N1 C2 C1 124.7(9)
N1 C2 H2 117.6
C1 C2 H2 117.6
C2 N1 C3 112.8(9)
N1 C3 N3 126.1(9)
N1 C3 C4 129.3(8)
N3 C3 C4 104.6(8)
C3 C4 N2 111.8(8)
C3 C4 C5 114.9(8)
N2 C4 C5 133.3(9)
C1 C5 C4 118.4(9)
C1 C5 N4 120.1(9)
C4 C5 N4 121.5(9)
C6 N2 C4 102.2(8)
N2 C6 N3 115.2(9)
N2 C6 H3 122.4
N3 C6 H3 122.4
C6 N3 C3 106.2(8)
C6 N3 C7 127.4(8)
C3 N3 C7 126.4(8)
O2 N4 O1 123.4(10)
O2 N4 C5 118.9(8)
O1 N4 C5 117.7(9)
N3 C7 C8 114.6(8)
N3 C7 H4 108.6
C8 C7 H4 108.6
N3 C7 H5 108.6
C8 C7 H5 108.6
H4 C7 H5 107.6
C13 C8 C9 118.3(8)
C13 C8 C7 119.3(9)
C9 C8 C7 122.4(8)
C10 C9 C8 120.2(9)
C10 C9 H6 119.9
C8 C9 H6 119.9
C11 C10 C9 121.4(10)
C11 C10 H7 119.3
C9 C10 H7 119.3
C12 C11 C10 117.9(9)
C12 C11 H8 121.0
C10 C11 H8 121.0
C11 C12 C13 122.1(11)
C11 C12 H9 118.9
C13 C12 H9 118.9
C12 C13 C8 120.0(10)
C12 C13 H10 120.0
C8 C13 H10 120.0
loop_
_geom_bond_atom_site_label_1
_geom_bond_atom_site_label_2
_geom_bond_distance
C1 C5 1.352(15)
C1 C2 1.422(16)
C1 H1 0.9500
C2 N1 1.323(15)
C2 H2 0.9500
N1 C3 1.339(12)
C3 N3 1.383(12)
C3 C4 1.392(13)
C4 N2 1.400(12)
C4 C5 1.425(12)
C5 N4 1.468(13)
N2 C6 1.317(13)
C6 N3 1.363(13)
C6 H3 0.9500
N3 C7 1.449(12)
N4 O2 1.216(12)
N4 O1 1.218(11)
C7 C8 1.521(12)
C7 H4 0.9900
C7 H5 0.9900
C8 C13 1.386(14)
C8 C9 1.401(13)
C9 C10 1.387(13)
C9 H6 0.9500
C10 C11 1.375(17)
C10 H7 0.9500
C11 C12 1.374(17)
C11 H8 0.9500
C12 C13 1.385(15)
C12 H9 0.9500
C13 H10 0.9500
loop_
_geom_torsion_atom_site_label_1
_geom_torsion_atom_site_label_2
_geom_torsion_atom_site_label_3
_geom_torsion_atom_site_label_4
_geom_torsion
C5 C1 C2 N1 -1.3(16)
C1 C2 N1 C3 1.8(15)
C2 N1 C3 N3 179.7(9)
C2 N1 C3 C4 -0.9(14)
N1 C3 C4 N2 179.8(9)
N3 C3 C4 N2 -0.7(10)
N1 C3 C4 C5 -0.6(13)
N3 C3 C4 C5 178.9(8)
C2 C1 C5 C4 -0.4(14)
C2 C1 C5 N4 179.1(8)
C3 C4 C5 C1 1.3(12)
N2 C4 C5 C1 -179.3(10)
C3 C4 C5 N4 -178.3(8)
N2 C4 C5 N4 1.1(14)
C3 C4 N2 C6 0.2(10)
C5 C4 N2 C6 -179.2(9)
C4 N2 C6 N3 0.4(11)
N2 C6 N3 C3 -0.8(11)
N2 C6 N3 C7 -178.9(9)
N1 C3 N3 C6 -179.6(9)
C4 C3 N3 C6 0.8(9)
N1 C3 N3 C7 -1.5(15)
C4 C3 N3 C7 179.0(8)
C1 C5 N4 O2 -175.1(9)
C4 C5 N4 O2 4.4(13)
C1 C5 N4 O1 6.8(13)
C4 C5 N4 O1 -173.6(9)
C6 N3 C7 C8 103.0(11)
C3 N3 C7 C8 -74.8(12)
N3 C7 C8 C13 170.5(9)
N3 C7 C8 C9 -10.0(14)
C13 C8 C9 C10 0.3(14)
C7 C8 C9 C10 -179.2(10)
C8 C9 C10 C11 1.8(16)
C9 C10 C11 C12 -2.2(17)
C10 C11 C12 C13 0.5(17)
C11 C12 C13 C8 1.6(17)
C9 C8 C13 C12 -2.0(15)
C7 C8 C13 C12 177.6(10)
