#------------------------------------------------------------------------------
#$Date: 2019-11-24 03:59:23 +0200 (Sun, 24 Nov 2019) $
#$Revision: 236602 $
#$URL: file:///home/coder/svn-repositories/cod/cif/1/55/41/1554135.cif $
#------------------------------------------------------------------------------
#
# This file is available in the Crystallography Open Database (COD),
# http://www.crystallography.net/
#
# All data on this site have been placed in the public domain by the
# contributors.
#
data_1554135
loop_
_publ_author_name
'Sanada, Ryo'
'Yoo, Dongho'
'Sato, Ryonosuke'
'Iijima, Kodai'
'Kawamoto, Tadashi'
'Mori, Takehiko'
_publ_section_title
;
 Ambipolar Transistor Properties of Charge-Transfer Complexes Containing
 Perylene and Dicyanoquinonediimines
;
_journal_issue                   19
_journal_name_full               'The Journal of Physical Chemistry C'
_journal_page_first              12088
_journal_paper_doi               10.1021/acs.jpcc.9b01453
_journal_volume                  123
_journal_year                    2019
_chemical_formula_moiety         'C20 H12, C8 H2 Br2 N4'
_chemical_formula_sum            'C28 H14 Br2 N4'
_chemical_formula_weight         566.25
_space_group_crystal_system      triclinic
_space_group_IT_number           2
_space_group_name_Hall           '-P 1'
_space_group_name_H-M_alt        'P -1'
_atom_sites_solution_hydrogens   geom
_atom_sites_solution_primary     direct
_atom_sites_solution_secondary   difmap
_cell_angle_alpha                68.2777(7)
_cell_angle_beta                 78.4778(7)
_cell_angle_gamma                88.3362(7)
_cell_formula_units_Z            1
_cell_length_a                   7.41651(13)
_cell_length_b                   8.17089(15)
_cell_length_c                   9.87887(18)
_cell_measurement_reflns_used    5561
_cell_measurement_temperature    271
_cell_measurement_theta_max      68.22
_cell_measurement_theta_min      4.92
_cell_volume                     544.272(17)
_computing_cell_refinement       'RAPID AUTO'
_computing_data_collection       'RAPID AUTO (Rigaku, ????)'
_computing_data_reduction        'RAPID AUTO'
_computing_molecular_graphics    'CrystalStructure 4.2'
_computing_publication_material  'CrystalStructure 4.2 (Rigaku, 2017)'
_computing_structure_refinement  'SHELXL Version 2018/1 (Sheldrick, 2008)'
_computing_structure_solution    'SHELXT Version 2014/5 (Sheldrick, 2014)'
_diffrn_ambient_temperature      271
_diffrn_detector_area_resol_mean 10.000
_diffrn_measured_fraction_theta_full 0.981
_diffrn_measured_fraction_theta_max 0.979
_diffrn_measurement_device_type  'Rigaku R-AXIS RAPID'
_diffrn_measurement_method       \w
_diffrn_radiation_type           'Cu K\a'
_diffrn_radiation_wavelength     1.54187
_diffrn_reflns_av_R_equivalents  0.0422
_diffrn_reflns_Laue_measured_fraction_full 0.981
_diffrn_reflns_Laue_measured_fraction_max 0.979
_diffrn_reflns_limit_h_max       8
_diffrn_reflns_limit_h_min       -8
_diffrn_reflns_limit_k_max       9
_diffrn_reflns_limit_k_min       -9
_diffrn_reflns_limit_l_max       11
_diffrn_reflns_limit_l_min       -11
_diffrn_reflns_number            5890
_diffrn_reflns_point_group_measured_fraction_full 0.981
_diffrn_reflns_point_group_measured_fraction_max 0.979
_diffrn_reflns_theta_full        67.687
_diffrn_reflns_theta_max         68.223
_diffrn_reflns_theta_min         4.922
_diffrn_standards_number         0
_exptl_absorpt_coefficient_mu    4.931
_exptl_absorpt_correction_T_max  0.863
_exptl_absorpt_correction_T_min  0.589
_exptl_absorpt_correction_type   multi-scan
_exptl_absorpt_process_details   'ABSCOR (Rigaku, 1995)'
_exptl_crystal_colour            black
_exptl_crystal_density_diffrn    1.727
_exptl_crystal_density_method    'not measured'
_exptl_crystal_description       needle
_exptl_crystal_F_000             280.00
_exptl_crystal_size_max          0.280
_exptl_crystal_size_mid          0.040
_exptl_crystal_size_min          0.030
_refine_diff_density_max         0.53
_refine_diff_density_min         -0.31
_refine_ls_extinction_method     none
_refine_ls_goodness_of_fit_ref   1.190
_refine_ls_hydrogen_treatment    constr
_refine_ls_number_parameters     154
_refine_ls_number_reflns         1944
_refine_ls_number_restraints     0
_refine_ls_R_factor_all          0.0365
_refine_ls_R_factor_gt           0.0321
_refine_ls_shift/su_max          0.000
_refine_ls_structure_factor_coef Fsqd
_refine_ls_weighting_details
'w = 1/[\s^2^(Fo^2^)+(0.0587P)^2^+0.0496P] where P=(Fo^2^+2Fc^2^)/3'
_refine_ls_weighting_scheme      calc
_refine_ls_wR_factor_gt          0.0844
_refine_ls_wR_factor_ref         0.1006
_reflns_Friedel_coverage         0.000
_reflns_number_gt                1751
_reflns_number_total             1944
_reflns_threshold_expression     F^2^>2.0\s(F^2^)
_cod_data_source_file            jp9b01453_si_002.cif
_cod_data_source_block           20180205
_cod_database_code               1554135
_shelx_res_file
;
TITL 20180205
    shelxl.res
    created by SHELXL-2018/1 at 17:09:22 on 21-Feb-2018
CELL  1.54187 7.41651 8.17089 9.87887 68.27770 78.47780 88.33620
ZERR  1 0.00013 0.00015 0.00018 0.00070 0.00070 0.00070
LATT 1
SFAC C H N BR
UNIT 28 14 4 2
L.S. 50
FMAP 2
PLAN 17
WPDB -2
HTAB
BOND $H
CONF
LIST 4
TEMP -1.5
ACTA
SIZE 0.280 0.040 0.030
WGHT    0.058700    0.049600
FVAR       1.65845
BR1   4    0.722012    0.777331    0.176273    11.00000    0.04509    0.04037 =
         0.03354   -0.00709    0.00442   -0.00260
N1    3    0.445921    0.586453    0.747416    11.00000    0.04109    0.03830 =
         0.03384   -0.01726   -0.00090    0.00110
N2    3    0.547339    0.875806    0.741276    11.00000    0.06867    0.05257 =
         0.06216   -0.03337    0.00444   -0.01043
C1    1    0.259557    0.724109    0.106771    11.00000    0.04772    0.05764 =
         0.02847   -0.00497   -0.00006    0.00014
AFIX  43
H1    2    0.329581    0.808668    0.022243    11.00000   -1.20000
AFIX   0
C2    1    0.199067    0.572261    0.100542    11.00000    0.05020    0.06695 =
         0.02660   -0.01792   -0.00548    0.00929
AFIX  43
H2    2    0.230884    0.552883    0.011934    11.00000   -1.20000
AFIX   0
C3    1    0.089577    0.444122    0.225096    11.00000    0.03802    0.04858 =
         0.02867   -0.01699   -0.01001    0.00963
C4    1    0.020753    0.287339    0.219431    11.00000    0.05054    0.06076 =
         0.04404   -0.03210   -0.01791    0.01435
AFIX  43
H4    2    0.049496    0.267757    0.130796    11.00000   -1.20000
AFIX   0
C5    1   -0.085618    0.165839    0.339931    11.00000    0.05461    0.04495 =
         0.05493   -0.02912   -0.01697    0.00761
AFIX  43
H5    2   -0.129335    0.064009    0.333450    11.00000   -1.20000
AFIX   0
C6    1   -0.130655    0.192278    0.474994    11.00000    0.03914    0.03760 =
         0.04410   -0.01421   -0.00764    0.00163
AFIX  43
H6    2   -0.205055    0.107765    0.556752    11.00000   -1.20000
AFIX   0
C7    1   -0.066730    0.341395    0.489117    11.00000    0.02922    0.03615 =
         0.02932   -0.01189   -0.00628    0.00581
C8    1    0.044606    0.472142    0.362823    11.00000    0.02975    0.03740 =
         0.02688   -0.01076   -0.00681    0.00729
C9    1    0.111801    0.630223    0.368657    11.00000    0.02859    0.03957 =
         0.02685   -0.00993   -0.00279    0.00485
C10   1    0.216368    0.753795    0.241210    11.00000    0.03765    0.04462 =
         0.03304   -0.00684   -0.00399   -0.00140
AFIX  43
H10   2    0.258779    0.858055    0.244381    11.00000   -1.20000
AFIX   0
C11   1    0.593117    0.621794    0.361630    11.00000    0.03451    0.03166 =
         0.02931   -0.00934   -0.00337    0.00310
C12   1    0.568877    0.668193    0.481827    11.00000    0.03795    0.03039 =
         0.03527   -0.01263   -0.00236   -0.00003
AFIX  43
H12   2    0.613534    0.778364    0.471265    11.00000   -1.20000
AFIX   0
C13   1    0.474638    0.549081    0.626323    11.00000    0.02934    0.03579 =
         0.03067   -0.01273   -0.00110    0.00390
C14   1    0.504181    0.744869    0.736581    11.00000    0.04283    0.04762 =
         0.03701   -0.02191    0.00149   -0.00138
HKLF 4




REM  20180205
REM R1 =  0.0321 for    1751 Fo > 4sig(Fo)  and  0.0365 for all    1944 data
REM    154 parameters refined using      0 restraints

END

WGHT      0.0587      0.0496

REM No hydrogen bonds found for HTAB generation

REM Highest difference peak  0.530,  deepest hole -0.312,  1-sigma level  0.102
Q1    1   0.7289  0.8904  0.0967  11.00000  0.05    0.53
Q2    1   0.7162  0.7690  0.0849  11.00000  0.05    0.51
Q3    1   0.5996  0.7977  0.1333  11.00000  0.05    0.48
Q4    1   0.0486  0.4521  0.2988  11.00000  0.05    0.47
Q5    1   0.6957  0.6792  0.2506  11.00000  0.05    0.46
Q6    1   0.8220  0.8708  0.1621  11.00000  0.05    0.41
Q7    1   0.5990  0.8223  0.2015  11.00000  0.05    0.40
Q8    1   0.8580  0.7432  0.2393  11.00000  0.05    0.40
Q9    1   0.5799  0.6312  0.4334  11.00000  0.05    0.39
Q10   1   0.2175  0.7567  0.1682  11.00000  0.05    0.38
Q11   1   0.1040  0.6403  0.4288  11.00000  0.05    0.35
Q12   1   0.4459  0.5673  0.6867  11.00000  0.05    0.33
Q13   1   0.8483  0.7194  0.1371  11.00000  0.05    0.32
Q14   1   0.7056  0.7848  0.2772  11.00000  0.05    0.31
Q15   1   0.4431  0.5007  0.8025  11.00000  0.05    0.30
Q16   1   0.1653  0.3285  0.5129  11.00000  0.05    0.29
Q17   1   0.1106  0.3548  0.2215  11.00000  0.05    0.29
;
_shelx_res_checksum              64881
_shelx_hkl_file
;
   0   0   1 1065.16   38.29
   0   0   1 1113.95   35.15
   0   0   1 1096.60   39.06
   0   0   1 1048.65   36.88
   0   0  -1 1109.90   34.79
   0   0  -1 1208.43   42.52
   0   0  -1 1052.55   36.94
   0   0  -1 1091.26   39.35
   0   0   213486.23  758.86
   0   0   213018.83  730.05
   0   0   213575.55  786.92
   0   0  -213990.63  788.28
   0   0  -214400.92  809.29
   0   0  -211235.04  627.10
   0   0  -212972.69  727.81
   0   0  -212613.54  685.61
   0   0   3 8277.07  458.29
   0   0   3 8476.07  445.42
   0   0   3 8483.67  450.46
   0   0  -3 8691.68  458.69
   0   0  -3 8404.39  440.89
   0   0  -3 7654.63  384.46
   0   0  -3 8416.94  418.78
   0   0  -3 8635.80  455.91
   0   0   4    8.57    6.44
   0   0   4    9.41    6.53
   0   0   4    7.64    6.89
   0   0  -4   13.35    5.93
   0   0  -4   10.51    6.61
   0   0  -4    8.39    6.01
   0   0  -4   10.47    4.05
   0   0  -4    9.98    2.45
   0   0   5 1152.35   45.30
   0   0   5 1282.54   62.74
   0   0   5 1234.60   58.48
   0   0   5 1236.76   71.92
   0   0  -5 1195.79   60.10
   0   0  -5 1166.61   42.64
   0   0  -5 1087.75   41.11
   0   0  -5 1192.39   55.67
   0   0  -5 1208.89   57.43
   0   0   6 1530.57   75.44
   0   0  -6 1513.36   93.50
   0   0  -6 1533.65   75.03
   0   0  -6 1565.20   75.31
   0   0  -7  849.49   43.51
   0   0  -7  920.77   55.62
   0   0  -7  876.95   49.20
   0   0   8   39.10   10.83
   0   0  -8   41.59    7.37
   0   0  -8   40.65   14.58
   0   0   9  474.87   31.82
   0   0  -9  511.81   39.06
   0   0  10    6.14    5.61
   0   0 -10    4.81   11.57
   0   1 -10  485.34   28.15
   0  -1  10  510.12   39.67
   0   1  -9  132.37   26.46
   0  -1   9  127.18   17.58
   0   1  -8 1353.85   77.30
   0   1  -8 1258.45   62.30
   0  -1   8 1374.68   76.90
   0   1  -7  232.57   16.85
   0   1  -7  245.40   24.99
   0  -1   7  246.91   23.05
   0   1  -6   52.48    7.72
   0   1  -6   60.60   11.56
   0  -1   6    0.12   10.41
   0   1  -5 2950.74  130.89
   0   1  -5 3099.98  147.91
   0   1  -5 3238.64  159.91
   0   1  -5 3342.79  167.26
   0   1  -5 3174.24  167.90
   0   1  -5 3042.24  136.22
   0  -1   5 3184.23  154.66
   0  -1   5 3276.09  167.18
   0   1  -4 5900.52  300.11
   0   1  -4 5961.21  306.00
   0   1  -4 6003.69  313.18
   0   1  -4 5649.16  276.23
   0   1  -4 5869.10  306.04
   0   1  -4 5777.41  284.59
   0  -1   4 6291.43  321.35
   0  -1   4 5828.44  304.24
   0   1  -3 2427.30  104.30
   0   1  -3 2477.51  109.53
   0   1  -3 2512.19  131.96
   0   1  -3 2283.65   97.79
   0   1  -3 2450.09  112.09
   0   1  -3 2486.82  115.19
   0  -1   3 2490.97  115.76
   0  -1   3 2467.19  110.90
   0   1  -2 9788.97  521.38
   0   1  -2 9978.53  540.62
   0   1  -2 9675.82  520.97
   0   1  -210196.50  548.72
   0   1  -2 8744.45  472.78
   0  -1   2 9692.27  524.18
   0  -1   210033.41  536.21
   0   1  -1  791.79   37.11
   0   1  -1  888.73   38.26
   0   1  -1  898.97   39.82
   0   1  -1  885.00   36.59
   0  -1   1  900.55   41.20
   0  -1   1  857.52   36.97
   0  -1   1  947.20   38.79
   0   1   0 7624.37  354.90
   0   1   0 7574.97  341.88
   0   1   0 7714.35  362.26
   0   1   0 7929.64  371.97
   0   1   0 6169.73  295.62
   0  -1   0 5637.49  278.42
   0  -1   0 7898.91  369.92
   0  -1   0 8227.05  394.31
   0  -1   0 7594.79  356.10
   0   1   1 7162.57  347.58
   0   1   1 8799.42  423.65
   0   1   1 9363.34  460.27
   0  -1  -1 8990.31  433.98
   0  -1  -1 8984.41  426.94
   0  -1  -1 9195.20  439.37
   0  -1  -1 6388.99  312.46
   0  -1  -1 7409.18  347.06
   0   1   2 8584.13  444.78
   0   1   2 9461.38  483.49
   0   1   2 9519.03  492.68
   0   1   2 7285.22  382.62
   0   1   2 9552.06  508.33
   0  -1  -2 9481.55  485.94
   0  -1  -2 9835.52  506.35
   0  -1  -2 9826.08  460.45
   0   1   3  250.93   19.22
   0   1   3  245.33   17.60
   0   1   3  253.86   18.66
   0   1   3  259.67   18.53
   0  -1  -3  265.05    6.94
   0  -1  -3  249.84   19.28
   0  -1  -3  240.33   16.54
   0  -1  -3  259.18   19.15
   0  -1  -3  251.27    9.26
   0   1   4 2584.93  120.03
   0   1   4 2458.11  109.60
   0   1   4 2574.78  118.06
   0   1   4 2472.75  116.93
   0  -1  -4 2653.03   92.32
   0  -1  -4 2779.11  130.99
   0  -1  -4 2661.74   93.61
   0  -1  -4 2542.30  116.17
   0  -1  -4 2606.69  120.08
   0   1   5 4582.39  226.23
   0   1   5 4466.95  239.38
   0   1   5 4408.37  221.55
   0   1   5 4666.88  234.82
   0  -1  -5 4671.03  236.08
   0  -1  -5 4279.79  222.90
   0  -1  -5 4548.76  226.14
   0   1   6 1088.70   54.71
   0   1   6 1103.30   55.53
   0   1   6 1047.04   46.06
   0   1   6 1053.42   54.01
   0  -1  -6 1069.47   51.88
   0  -1  -6 1097.32   53.13
   0  -1  -6 1051.59   56.03
   0   1   7 4277.22  226.88
   0  -1  -7 4308.86  234.45
   0  -1  -7 4204.31  219.49
   0  -1  -8   62.09   17.25
   0  -1  -8   70.89   11.25
   0   1   9  561.49   34.19
   0  -1  -9  605.65   44.75
   0  -1  -9  534.18   29.58
   0   1  10  523.77   29.74
   0  -1 -10  585.55   41.70
   0  -1 -11   29.38   15.93
   0   2  -9  569.76   32.06
   0  -2   9  642.53   53.17
   0   2  -8  138.95   16.30
   0  -2   8  143.31   21.37
   0   2  -7  244.71   32.50
   0   2  -7  262.22   24.32
   0  -2   7  286.22   27.93
   0   2  -6 2246.54  111.60
   0   2  -6 2269.35  119.29
   0  -2   6 2345.65  127.57
   0   2  -5  512.18   24.90
   0   2  -5  509.41   30.82
   0   2  -5  531.48   30.60
   0   2  -5  518.97   28.13
   0  -2   5  554.95   34.51
   0   2  -4  412.46   21.55
   0   2  -4  525.23   26.91
   0   2  -4  548.19   30.58
   0   2  -4  533.07   29.89
   0   2  -4  540.14   25.51
   0  -2   4  568.54   33.25
   0  -2   4  561.05   33.19
   0  -2   4  586.29   29.74
   0   2  -318215.18 1159.70
   0   2  -315857.58 1004.36
   0   2  -317886.72 1126.26
   0   2  -318091.37 1141.39
   0   2  -318415.97 1198.41
   0  -2   318035.10 1154.40
   0  -2   317734.79 1136.81
   0  -2   317336.06 1097.76
   0   2  -2   11.35    6.83
   0   2  -2    8.96    5.47
   0   2  -2    8.73    6.50
   0   2  -2    8.00    5.74
   0  -2   2    8.84    5.31
   0  -2   2    9.46    6.81
   0  -2   2    6.00   11.09
   0   2  -1 2263.59   76.46
   0   2  -1 1938.16   85.46
   0   2  -1 2049.25  105.59
   0   2  -1 1976.46   92.63
   0  -2   1 1975.95   86.23
   0  -2   1 1972.22   90.31
   0  -2   1 2000.61   97.44
   0  -2   1 1987.65   85.28
   0   2   014795.47  892.99
   0   2   016156.04  937.21
   0   2   017341.70 1033.14
   0   2   016667.91  994.71
   0  -2   016312.67  973.72
   0  -2   016776.66  993.78
   0  -2   014225.48  879.75
   0  -2   017034.85 1013.69
   0   2   1  504.35   25.50
   0   2   1  526.83   24.15
   0   2   1  487.19   26.85
   0  -2  -1  495.94   25.08
   0  -2  -1  507.73   27.30
   0  -2  -1  500.63   30.62
   0   2   210444.17  564.16
   0   2   2 9512.37  516.68
   0   2   210830.18  577.92
   0  -2  -211047.05  594.40
   0  -2  -210645.24  563.43
   0  -2  -2 8388.28  464.25
   0  -2  -211205.61  602.81
   0   2   3 6464.73  326.09
   0   2   3 6095.08  306.86
   0   2   3 5664.27  287.79
   0   2   3 6542.49  322.70
   0  -2  -3 6660.52  330.92
   0  -2  -3 6652.47  325.44
   0  -2  -3 5546.53  247.16
   0  -2  -3 6411.65  315.27
   0   2   4 5098.53  251.52
   0   2   4 5052.45  254.26
   0   2   4 5045.44  249.70
   0   2   4 5249.64  255.92
   0  -2  -4 4754.72  230.76
   0  -2  -4 5104.03  251.72
   0  -2  -4 5217.24  256.19
   0   2   5  278.21   18.28
   0   2   5  257.90   19.85
   0   2   5  252.55   18.86
   0   2   5  257.79   18.79
   0  -2  -5  278.41   31.03
   0  -2  -5  270.09   16.84
   0  -2  -5  261.70   18.50
   0   2   6 1163.86   58.44
   0   2   6 1136.93   55.51
   0   2   6 1156.33   58.20
   0   2   6 1102.04   61.80
   0  -2  -6 1119.94   60.89
   0  -2  -6 1135.15   54.76
   0  -2  -6 1196.51   63.69
   0   2   7   34.16    7.60
   0   2   7   36.22    9.93
   0  -2  -7   35.22    7.94
   0  -2  -7   41.59   12.18
   0   2   8 1890.18   91.64
   0   2   8 1928.32  100.51
   0  -2  -8 1850.02   91.82
   0  -2  -8 1967.14  110.11
   0   2   9  240.71   19.41
   0  -2  -9  247.17   17.83
   0  -2  -9  283.42   43.42
   0   2  10   33.29    6.96
   0  -2 -10   53.33   14.20
   0   2  11  245.17   12.92
   0  -2 -11  339.59   26.58
   0  -3   8  726.70   67.89
   0   3  -7  258.72   17.90
   0   3  -7  267.71   21.08
   0  -3   7  317.99   30.19
   0   3  -6    1.80    5.37
   0   3  -6    4.97    4.59
   0  -3   6    5.47    8.33
   0   3  -5 1672.03   83.58
   0   3  -5 1617.97   84.26
   0   3  -5 1727.78   82.23
   0  -3   5 1778.41   99.00
   0   3  -4 1209.54   70.11
   0   3  -4 1178.94   58.91
   0   3  -4 1195.94   68.47
   0  -3   4 1256.33   68.00
   0   3  -3  158.58   13.45
   0   3  -3  174.39   25.01
   0   3  -3  177.46   14.08
   0   3  -3  162.25   21.57
   0   3  -3  171.26   16.10
   0  -3   3  155.71   17.68
   0  -3   3  170.87   16.76
   0  -3   3  162.41   17.78
   0   3  -2 7434.46  401.17
   0   3  -2 7999.50  432.47
   0   3  -2 7701.51  424.32
   0   3  -2 7961.45  427.33
   0  -3   2 7727.17  423.79
   0  -3   2 7846.67  416.78
   0   3  -1 3415.80  163.22
   0   3  -1 3395.35  159.58
   0   3  -1 3370.65  162.85
   0   3  -1 3228.90  149.00
   0  -3   1 3211.75  154.36
   0  -3   1 3142.81  143.00
   0  -3   1 3346.49  165.40
   0   3   0 2057.15   96.29
   0   3   0 2106.05   80.16
   0   3   0 2056.06  100.58
   0   3   0 2092.10   95.86
   0  -3   0 2163.05   93.51
   0  -3   0 2180.16   99.58
   0  -3   0 2075.38   96.52
   0  -3   0 2106.49  104.01
   0   3   113992.39  817.92
   0   3   113212.88  776.04
   0   3   114088.54  830.77
   0   3   113661.02  784.81
   0   3   114426.95  845.73
   0  -3  -113009.62  788.27
   0  -3  -114239.91  833.96
   0  -3  -114240.64  839.54
   0  -3  -114058.16  850.79
   0   3   2   72.09    7.02
   0   3   2   83.68   10.29
   0   3   2   79.34   12.46
   0   3   2   71.74   10.35
   0   3   2   89.49   17.51
   0  -3  -2   84.46   12.21
   0  -3  -2   78.25    9.79
   0  -3  -2   73.98   11.26
   0  -3  -2   70.34   17.41
   0  -3  -2   79.46    8.75
   0   3   3 2554.71  112.13
   0   3   3 2319.89  109.13
   0   3   3 2610.19  119.33
   0   3   3 2587.51  122.08
   0  -3  -3 2462.86  108.42
   0  -3  -3 2339.69   95.33
   0  -3  -3 2498.57  114.89
   0  -3  -3 2323.35  103.02
   0  -3  -3 2553.67  117.13
   0   3   4 5914.58  298.12
   0   3   4 5944.22  327.40
   0   3   4 5629.95  291.64
   0   3   4 5760.89  299.47
   0  -3  -4 5782.33  289.34
   0  -3  -4 5882.64  304.21
   0  -3  -4 6156.49  313.49
   0  -3  -4 5867.61  294.32
   0   3   5   82.42   12.63
   0   3   5   87.96    9.90
   0   3   5   82.21   12.38
   0   3   5   84.96   13.69
   0  -3  -5   73.33    8.31
   0  -3  -5   86.63   11.51
   0  -3  -5   82.14   11.40
   0   3   6 1638.98   77.74
   0   3   6 1569.75   79.61
   0   3   6 1558.33   79.20
   0  -3  -6 1552.42   71.63
   0  -3  -6 1635.37   78.71
   0  -3  -6 1659.32   97.07
   0   3   7 1490.60   75.66
   0   3   7 1187.43   64.93
   0  -3  -7 1328.64   73.30
   0  -3  -7 1137.53   63.11
   0   3   8    1.03    4.57
   0   3   8   -0.50    3.94
   0  -3  -8   -2.57    5.82
   0  -3  -8    2.52    3.04
   0   3   9  254.51   18.12
   0   3   9  252.55   20.69
   0  -3  -9  254.10   27.46
   0  -3  -9  247.31   16.32
   0  -3 -10  593.22   45.05
   0  -3 -11    2.57    6.73
   0  -4   8   12.00    7.71
   0  -4   7  567.36   42.54
   0   4  -6  395.90   24.20
   0   4  -6  398.78   22.76
   0  -4   6  467.76   56.41
   0   4  -5   53.78    9.45
   0   4  -5   53.40   10.00
   0   4  -5   56.85    9.88
   0  -4   5   53.52   15.56
   0   4  -4 1072.66   56.06
   0   4  -4 1164.08   60.16
   0   4  -4 1087.76   57.52
   0  -4   4 1109.35   65.98
   0   4  -3 2719.04  156.37
   0   4  -3 2483.43  123.84
   0   4  -3 2564.59  128.40
   0  -4   3 2525.53  134.46
   0   4  -2  177.18   20.20
   0   4  -2  160.17   15.65
   0   4  -2  161.28   15.27
   0   4  -2  152.90   12.53
   0   4  -2  161.04   17.40
   0  -4   2  159.34   25.96
   0  -4   2  168.40   11.83
   0   4  -1 3034.57  151.41
   0   4  -1 2922.29  141.92
   0   4  -1 3075.96  152.69
   0   4  -1 2810.96  139.34
   0  -4   1 3005.29  148.66
   0  -4   1 2729.40  126.02
   0  -4   1 3181.94  161.61
   0   4   0 1480.97   56.04
   0   4   0 1561.89   55.80
   0   4   0 1473.11   64.10
   0   4   0 1528.73   72.02
   0   4   0 1583.17   76.63
   0  -4   0 1559.06   73.30
   0  -4   0 1635.58   82.01
   0  -4   0 1587.98   68.42
   0   4   1 1066.13   53.17
   0   4   1 1070.19   42.02
   0   4   1 1064.76   46.31
   0   4   1 1123.13   49.27
   0   4   1 1088.93   62.48
   0  -4  -1 1109.83   54.26
   0  -4  -1 1073.06   55.92
   0  -4  -1 1093.49   47.36
   0  -4  -1 1080.02   50.65
   0   4   211539.94  652.68
   0   4   211641.57  666.63
   0   4   211875.33  691.37
   0   4   210788.80  618.06
   0   4   211710.31  663.99
   0  -4  -211632.55  671.75
   0  -4  -211801.46  666.58
   0  -4  -211660.41  673.45
   0  -4  -211209.33  649.63
   0  -4  -212055.59  716.27
   0   4   3 2262.94  123.50
   0   4   3 2120.18   88.08
   0   4   3 2405.02  108.94
   0   4   3 2222.72  103.05
   0   4   3 2370.12  105.35
   0  -4  -3 2266.00   99.39
   0  -4  -3 2300.08  105.63
   0  -4  -3 2208.00  100.04
   0  -4  -3 2286.36   97.69
   0  -4  -3 2342.63  110.00
   0   4   4  461.49   27.76
   0   4   4  436.12   28.06
   0   4   4  466.13   29.72
   0   4   4  465.50   23.08
   0  -4  -4  418.54   21.29
   0  -4  -4  425.34   24.92
   0  -4  -4  449.55   26.94
   0  -4  -4  456.40   25.31
   0   4   5 3501.63  177.50
   0   4   5 3610.55  180.81
   0   4   5 3546.17  169.58
   0   4   5 3420.89  173.81
   0  -4  -5 3502.16  173.15
   0  -4  -5 3277.98  159.80
   0  -4  -5 3486.82  174.33
   0  -4  -5 3248.98  155.17
   0   4   6  342.29   19.48
   0   4   6  329.27   24.73
   0   4   6  317.94   27.55
   0  -4  -6  309.73   17.09
   0  -4  -6  322.65   22.73
   0   4   7  333.86   40.45
   0   4   7  335.64   26.35
   0  -4  -7  360.91   28.18
   0  -4  -7  324.02   18.65
   0   4   8 2146.17  115.09
   0   4   8 2098.34  113.82
   0  -4  -8 2209.92  120.86
   0  -4  -8 1943.58   94.59
   0   4   9   91.17   14.11
   0   4   9   92.19   14.03
   0  -4  -9   93.66   18.07
   0   4  10  184.69   15.93
   0   4  10  172.50   15.67
   0  -4 -10  189.96   34.11
   0  -4 -11  247.14   24.00
   0  -5   7  212.04   19.25
   0   5  -6  440.40   29.28
   0   5  -6  396.59   21.62
   0  -5   6  462.34   33.96
   0   5  -5  700.23   46.93
   0   5  -5  754.00   41.45
   0  -5   5  749.72   52.01
   0   5  -4  122.12   16.31
   0   5  -4  108.45   13.48
   0   5  -3  402.40   28.16
   0   5  -3  460.31   33.86
   0  -5   3  432.35   34.59
   0   5  -2 3916.73  209.12
   0   5  -2 3506.94  185.17
   0  -5   2 3562.67  195.19
   0   5  -1   28.67    5.49
   0   5  -1   34.72    9.25
   0   5  -1   52.65   12.06
   0  -5   1   28.40    9.69
   0  -5   1   29.00    5.36
   0   5   0 1823.73   82.33
   0   5   0 2047.02   98.98
   0   5   0 1968.65   97.55
   0  -5   0 1936.87   95.08
   0  -5   0 1756.49   78.72
   0   5   1  860.76   46.40
   0   5   1  869.31   42.92
   0  -5  -1  910.51   51.69
   0  -5  -1  852.65   43.07
   0  -5  -1  847.99   38.46
   0  -5  -1  916.67   48.35
   0   5   2  793.81   44.06
   0   5   2  778.57   33.82
   0   5   2  804.19   39.55
   0   5   2  728.02   33.99
   0  -5  -2  757.70   39.58
   0  -5  -2  816.43   43.41
   0  -5  -2  761.58   32.85
   0  -5  -2  750.51   36.94
   0  -5  -2  752.85   34.72
   0   5   3 1138.34   48.42
   0   5   3 1239.94   63.45
   0   5   3 1207.77   54.13
   0   5   3 1047.98   49.58
   0   5   3 1158.60   50.91
   0  -5  -3 1157.61   51.00
   0  -5  -3 1217.42   55.77
   0  -5  -3 1298.81   77.87
   0  -5  -3 1206.15   51.98
   0  -5  -3 1180.59   53.65
   0   5   4 1743.22   82.54
   0   5   4 1806.93   92.18
   0   5   4 1721.97   84.14
   0   5   4 1600.83   71.57
   0  -5  -4 1676.58   79.28
   0  -5  -4 1527.12   77.48
   0  -5  -4 1553.41   70.77
   0  -5  -4 1822.21   89.01
   0   5   5  119.75   15.98
   0   5   5  100.44    8.77
   0   5   5   94.98   16.77
   0  -5  -5   98.12   10.58
   0  -5  -5  103.86   19.48
   0  -5  -5  101.56    8.80
   0   5   6  461.72   43.94
   0   5   6  466.96   35.81
   0  -5  -6  422.20   25.49
   0  -5  -6  413.82   20.59
   0   5   7  914.05   74.73
   0   5   7  909.87   54.62
   0  -5  -7  881.19   60.81
   0   5   8   52.77   14.15
   0   5   8   73.81   15.56
   0  -5  -8   60.59   14.62
   0   5   9 1284.47   73.84
   0   5   9 1242.58   84.00
   0  -5  -9 1285.17   75.85
   0   5  10   89.89   12.17
   0   5  10  101.58   14.70
   0  -5 -10  105.25   16.30
   0  -5 -11   50.99    5.04
   0  -5 -11   97.55   12.42
   0   6  -5   73.28   15.78
   0   6  -5   49.97    7.04
   0  -6   5   54.20   12.68
   0   6  -4  584.32   34.10
   0   6  -4  638.14   39.43
   0  -6   4  593.91   41.77
   0   6  -3  433.14   33.52
   0   6  -3  403.15   28.21
   0  -6   3  391.54   32.33
   0   6  -2  363.13   32.88
   0   6  -2  330.01   26.99
   0  -6   2  351.21   29.09
   0   6  -1 5007.62  285.75
   0   6  -1 5434.11  308.37
   0  -6   1 5562.42  321.72
   0   6   0  631.19   41.85
   0   6   0  620.16   40.20
   0  -6   0  617.58   37.77
   0   6   1  681.24   39.04
   0   6   1  650.68   41.98
   0  -6  -1  655.54   37.41
   0   6   2 2451.59  128.98
   0   6   2 2276.63  110.03
   0  -6  -2 2395.77  107.63
   0  -6  -2 2259.07  112.23
   0   6   3   14.42    5.01
   0   6   3   14.11    5.25
   0   6   3   28.87   16.14
   0  -6  -3   16.37    5.51
   0  -6  -3   15.75    4.37
   0   6   4 1067.79   62.88
   0   6   4 1020.15   51.94
   0  -6  -4  922.52   43.68
   0  -6  -4  971.34   45.36
   0   6   5 2404.23  125.43
   0   6   5 2459.88  133.73
   0  -6  -5 2166.80  105.74
   0   6   6 2116.20  116.10
   0   6   6 2160.76  118.12
   0  -6  -6 1847.12   92.38
   0   6   7   21.94   24.57
   0   6   7   18.24   12.89
   0  -6  -7   69.36   14.76
   0   6   8  212.89   23.75
   0   6   8  239.73   25.24
   0  -6  -8  209.17   20.45
   0   6   9   49.72   14.04
   0   6   9   43.07   11.86
   0  -6  -9   38.03   11.02
   0   6  10  255.04   23.47
   0   6  10  236.77   18.80
   0  -6 -10  240.47   20.05
   0   6  11  327.87   31.89
   0  -6 -11  286.55   19.64
   0   7  -4   -1.48    3.40
   0   7  -4    0.75    1.95
   0  -7   4    0.36    3.49
   0   7  -3  689.99   37.90
   0  -7   3  762.43   57.39
   0   7  -2   20.15   12.37
   0   7  -2   25.01    9.17
   0  -7   2   28.34   15.45
   0   7  -1  232.81   25.16
   0   7  -1  218.63   21.84
   0  -7   1  224.55   31.36
   0   7   0  600.25   41.66
   0   7   0  628.33   41.12
   0  -7   0  600.35   37.45
   0   7   1  385.51   28.17
   0   7   1  391.40   31.78
   0  -7  -1  367.68   24.82
   0   7   2   10.91    6.54
   0   7   2   16.50   10.27
   0  -7  -2   12.38    5.66
   0   7   3  419.94   29.66
   0   7   3  495.15   56.18
   0   7   4  530.79   36.51
   0   7   4  578.92   44.91
   0   7   5   23.56   12.60
   0   7   5   16.91   12.82
   0   7   6 3550.38  185.93
   0   7   6 3219.67  181.42
   0  -7  -6 2826.79  142.49
   0   7   7  128.81   20.56
   0   7   7  139.63   18.87
   0  -7  -7  127.08   18.02
   0   7   8  765.38   49.26
   0   7   8  718.20   47.43
   0  -7  -8  708.14   38.38
   0   7   9  512.94   34.51
   0   7   9  540.64   37.91
   0  -7  -9  496.50   28.35
   0   7  10    9.89    8.02
   0   7  10   11.42    5.79
   0  -7 -10    9.59    7.47
   0   8  -2   62.19   14.29
   0   8  -2   95.04   16.54
   0   8  -1  541.71   49.70
   0   8  -1  540.77   33.46
   0  -8   1  507.46   29.70
   0   8   0   20.72   10.06
   0   8   0   20.13   15.82
   0  -8   0   20.89    6.61
   0   8   1  419.26   38.19
   0   8   1  401.62   47.05
   0  -8  -1  363.91   22.99
   0   8   2  994.54   66.01
   0   8   2  958.18   62.50
   0   8   3  256.28   30.45
   0   8   4  467.66   41.20
   0   8   5  404.96   39.38
   0   8   6   74.09   16.43
   0   8   6   64.03   10.00
   0   8   7  252.32   20.02
   0   8   7  246.12   26.26
   0   8   8   62.66   11.62
   0   8   8   52.96   13.52
   0   8   9    0.97    3.10
   0   8   9   -1.29    3.25
   0   9   0  393.96   24.04
   0   9   0  365.29   24.17
   0   9   1   47.89    9.23
   0   9   1   51.47   12.12
   0   9   2   61.67   14.82
   0   9   3  676.05   45.72
   0   9   4    3.91    7.56
   0   9   5  152.64   20.40
   0   9   6  286.24   39.96
   0   9   7   -0.54    1.39
   0   9   7    2.88    3.77
   0   9   8   91.82   11.33
   0   9   8   41.87    6.24
  -1   9   7  171.65   19.35
  -1   9   6   81.79   15.89
  -1   9   5   91.90   26.77
  -1   9   4  335.30   28.33
  -1   9   3    0.95    4.99
  -1   9   2  121.61   15.85
  -1   9   1  160.69   14.38
  -1   9   1  152.12   15.01
  -1   9   0   10.21    6.79
  -1   9   0   10.61    4.69
   1  -8  -9  282.53   16.10
  -1   8   9  325.72   34.27
  -1   8   9  329.98   36.50
   1  -8  -8  145.34   12.48
  -1   8   8  156.48   15.74
  -1   8   8  162.98   20.40
   1  -8  -7    7.08    7.52
  -1   8   7    5.95    5.62
  -1   8   7   10.97    9.22
   1  -8  -6  422.49   22.89
  -1   8   6  507.85   40.25
  -1   8   6  451.96   25.40
   1  -8  -5    0.37    2.31
  -1   8   5    0.20    5.40
  -1   8   4  878.97   62.35
  -1   8   3  487.67   38.22
  -1   8   3  447.72   25.45
  -1   8   2  339.98   30.55
  -1   8   2  330.02   24.24
  -1   8   1   97.26   16.80
  -1   8   1  103.52   15.51
  -1   8   0  854.86   50.12
  -1   8   0  906.02   55.41
  -1   8  -1  216.94   17.90
  -1   8  -1  250.30   24.51
  -1   8  -2  296.54   24.61
  -1   8  -2  242.51   14.94
   1  -7 -10   70.17   10.00
  -1   7  10   72.45   11.60
  -1   7  10   79.46   14.26
   1  -7  -9   36.92   10.11
  -1   7   9   32.45   20.30
  -1   7   9   41.71   12.39
   1  -7  -8   76.70   13.18
  -1   7   8   74.31   15.51
  -1   7   8   83.12   17.42
   1  -7  -7  365.08   25.53
  -1   7   7  397.16   36.16
  -1   7   7  404.17   30.37
   1  -7  -6    4.87    4.85
  -1   7   6    0.69    5.91
  -1   7   6    5.77   14.03
   1  -7  -5  623.97   35.21
  -1   7   5  633.42   46.99
  -1   7   5  637.97   36.05
   1  -7  -4  820.99   51.57
  -1   7   4  834.88   56.31
   1  -7  -3   47.26    8.38
  -1   7   3   56.69    8.73
  -1   7   3   58.32   15.46
   1  -7  -2 1029.40   51.19
  -1   7   2 1140.63   60.98
  -1   7   2 1110.25   68.11
   1  -7  -1  519.79   27.02
  -1   7   1  564.04   52.42
  -1   7   1  581.97   49.33
  -1   7   0   51.02   14.91
  -1   7   0   64.72   12.69
   1  -7   1  151.72   14.05
  -1   7  -1  161.53   16.69
  -1   7  -1  151.84   22.28
   1  -7   2  757.84   50.22
  -1   7  -2  827.70   68.30
  -1   7  -2  734.91   40.22
   1  -7   3    1.06    3.68
  -1   7  -3    0.06    3.65
  -1   7  -3   -0.30    1.71
  -1   7  -4  416.66   27.22
   1  -6 -10    8.45    7.32
  -1   6  10    8.15    7.02
  -1   6  10    7.08   13.75
   1  -6  -9  939.33   57.01
  -1   6   9  914.19   58.01
  -1   6   9  873.68   72.73
  -1   6   8   42.40   14.96
  -1   6   8   42.11   13.87
   1  -6  -7  255.64   23.05
  -1   6   7  264.85   26.25
  -1   6   7  255.02   28.63
   1  -6  -6 1957.32  101.88
  -1   6   6 2070.15  112.46
  -1   6   6 2169.12  147.13
   1  -6  -5   17.49    7.76
  -1   6   5   17.18   11.37
  -1   6   5   18.41    8.29
   1  -6  -4 1126.05   56.28
  -1   6   4 1132.81   56.95
  -1   6   4 1162.97   69.09
   1  -6  -3 1374.27   66.78
  -1   6   3 1351.00   64.96
  -1   6   3 1427.55   79.90
  -1   6   3 1372.75   63.23
   1  -6  -2  216.01   15.38
  -1   6   2  217.38   24.34
  -1   6   2  217.00   32.45
   1  -6  -1  437.85   23.58
  -1   6   1  446.01   31.09
  -1   6   1  445.57   30.37
   1  -6   0 2073.61  102.38
  -1   6   0 2220.29  117.57
  -1   6   0 2079.67  104.38
  -1   6   0 2173.11  112.91
   1  -6   1   51.73    9.87
  -1   6  -1   53.99    9.04
  -1   6  -1   58.34   11.24
  -1   6  -1  119.01   19.49
   1  -6   2  958.89   52.55
  -1   6  -2  942.20   51.06
  -1   6  -2 1037.71   63.17
  -1   6  -2  924.92   48.04
   1  -6   3  245.78   20.64
  -1   6  -3  257.57   25.12
  -1   6  -3  230.90   17.42
  -1   6  -3  221.55   16.14
   1  -6   4    2.28    5.28
  -1   6  -4    3.57    9.41
   1  -6   5  422.54   28.20
  -1   6  -5  444.99   26.66
   1  -6   6   82.04   10.49
   1  -5 -11  150.16   10.85
   1  -5 -11  168.03   17.13
   1  -5 -10  261.89   24.62
  -1   5  10  221.17   34.31
  -1   5  10  171.79   19.66
   1  -5  -9    0.98    8.29
  -1   5   9    2.72    7.84
  -1   5   9    8.35    7.66
   1  -5  -8 1070.39   66.27
  -1   5   8  991.93   64.50
  -1   5   8  986.15   62.44
   1  -5  -7  599.59   40.32
  -1   5   7  673.23   47.70
  -1   5   7  611.44   44.54
   1  -5  -6  179.63   18.26
  -1   5   6  180.28   22.85
  -1   5   6  187.29   21.17
   1  -5  -5 1400.43   70.65
  -1   5   5 1349.86   75.66
  -1   5   5 1470.29   76.55
   1  -5  -4 1614.96   78.52
  -1   5   4 1564.83   85.09
  -1   5   4 1663.66   98.08
  -1   5   4 1808.67   86.31
   1  -5  -3  135.42   12.77
   1  -5  -3  128.85   15.18
   1  -5  -3  139.64   16.44
   1  -5  -3  127.47   13.83
  -1   5   3  121.84   17.32
  -1   5   3  136.87   11.20
  -1   5   3  132.84   10.33
  -1   5   3  138.30   17.67
   1  -5  -2 2001.16   92.66
   1  -5  -2 1816.97   78.79
   1  -5  -2 2052.95  104.92
   1  -5  -2 2179.87  116.53
  -1   5   2 1971.56   91.69
  -1   5   2 2006.38  100.25
  -1   5   2 2111.50   91.62
  -1   5   2 1959.31   83.98
   1  -5  -1 1784.17   86.55
   1  -5  -1 1909.85   93.32
   1  -5  -1 2127.35  113.68
  -1   5   1 1883.93   92.85
  -1   5   1 1821.23   88.47
  -1   5   1 1879.43   90.27
   1  -5   0  338.62   21.71
   1  -5   0  302.29   17.77
  -1   5   0  314.08   21.88
  -1   5   0  316.28   20.22
  -1   5   0  306.22   24.58
   1  -5   1 1423.48   68.98
  -1   5  -1 1462.11   76.25
  -1   5  -1 1433.50   70.30
  -1   5  -1 1381.69   68.07
   1  -5   2  879.18   47.49
  -1   5  -2  854.97   44.10
  -1   5  -2  915.99   56.44
  -1   5  -2  807.17   43.59
  -1   5  -3  814.75   44.85
  -1   5  -3  852.57   44.31
  -1   5  -3  887.08   53.06
   1  -5   4 1153.78   66.06
  -1   5  -4  986.08   53.76
  -1   5  -4 1132.45   61.79
  -1   5  -4 1029.39   52.22
   1  -5   5   94.74   16.06
  -1   5  -5   83.42   17.86
  -1   5  -5   73.20   10.57
   1  -5   6  859.57   51.17
  -1   5  -6  759.76   36.91
   1  -5   7  324.85   23.70
   1  -4 -11  111.57    9.45
   1  -4 -11  121.13   16.38
   1  -4 -10  261.80   26.62
  -1   4  10  281.85   21.51
  -1   4  10  265.76   22.76
   1  -4  -9 1749.15   95.13
  -1   4   9 1151.35   67.19
  -1   4   9 1149.01   71.52
   1  -4  -8   97.90   19.20
  -1   4   8   82.58   16.22
  -1   4   8   74.77   27.96
   1  -4  -7  948.14   71.93
  -1   4   7  906.14   57.84
  -1   4   7  935.38   56.19
   1  -4  -6 2183.22  112.48
  -1   4   6 2212.76  118.51
  -1   4   6 2267.20  117.92
   1  -4  -5  226.15   31.35
  -1   4   5  207.81   33.39
  -1   4   5  216.90   31.32
  -1   4   5  211.97   32.93
   1  -4  -4 4444.54  229.05
   1  -4  -4 4553.73  220.73
   1  -4  -4 4513.06  224.79
   1  -4  -4 4552.97  231.21
  -1   4   4 4566.79  212.17
  -1   4   4 4634.78  234.48
  -1   4   4 3935.94  206.71
  -1   4   4 4516.84  235.40
   1  -4  -3 2648.07  124.86
   1  -4  -3 2571.14  118.10
   1  -4  -3 2556.60  123.78
   1  -4  -3 2323.93  115.13
  -1   4   3 2624.24  128.55
  -1   4   3 2157.39  104.83
  -1   4   3 2506.66  109.42
  -1   4   3 2428.74   99.83
  -1   4   3 2617.05  120.73
   1  -4  -2  276.82   17.79
   1  -4  -2  258.56   29.24
   1  -4  -2  277.33   20.60
  -1   4   2  242.59   11.18
  -1   4   2  276.86   20.53
  -1   4   2  262.33   16.08
  -1   4   2  284.82   23.32
   1  -4  -1 2767.55  144.94
   1  -4  -1 2525.10  111.32
   1  -4  -1 2646.75  138.28
  -1   4   1 2669.51  126.11
  -1   4   1 2533.75  118.84
  -1   4   1 2901.59  127.77
  -1   4   1 2733.31  113.14
  -1   4   1 2710.97  129.18
   1  -4   0  608.55   28.19
   1  -4   0  654.46   34.28
   1  -4   0  642.05   45.50
  -1   4   0  609.62   31.36
  -1   4   0  582.18   32.34
  -1   4   0  610.67   32.68
   1  -4   1   63.53   16.30
   1  -4   1   43.61   13.22
   1  -4   1   13.70   11.52
  -1   4  -1   44.77   11.88
  -1   4  -1   -8.17   12.72
  -1   4  -1   36.41    9.25
   1  -4   2 2313.96  112.64
   1  -4   2 2314.32  111.69
  -1   4  -2 2371.04  114.79
  -1   4  -2 2312.36  113.71
  -1   4  -2 2128.87  100.63
  -1   4  -2 2381.26  116.58
   1  -4   3 1054.06   55.60
  -1   4  -3  968.59   46.66
  -1   4  -3  993.44   53.71
  -1   4  -3 1034.14   56.06
   1  -4   4  224.60   21.75
  -1   4  -4  200.30   14.54
  -1   4  -4  217.14   20.23
  -1   4  -4  228.53   19.08
   1  -4   5 1266.50   73.77
  -1   4  -5 1195.47   67.17
  -1   4  -5 1162.83   60.29
   1  -4   6  341.10   31.08
  -1   4  -6  314.53   24.45
   1  -4   7  182.67   34.71
  -1   4  -7  147.63   14.24
   1  -4   8  699.97   42.26
   1  -3 -11  390.15   18.90
   1  -3 -11  455.94   30.80
   1  -3 -10    1.94    9.93
   1  -3 -10  314.19   19.51
   1  -3  -9   75.87   17.40
  -1   3   9   89.47   19.05
  -1   3   9   79.90   15.94
   1  -3  -8 1643.31   94.26
  -1   3   8 1606.21   91.78
  -1   3   8 1528.09   82.33
   1  -3  -7  482.07   37.00
  -1   3   7  468.61   51.32
  -1   3   7  457.83   30.95
   1  -3  -6 1674.71   86.23
  -1   3   6 1674.14   85.07
  -1   3   6 1617.25   87.08
   1  -3  -5 2504.03  125.54
   1  -3  -5 2435.34  118.04
   1  -3  -5 2196.10   93.51
   1  -3  -5 2568.64  125.40
  -1   3   5 2452.60  123.65
  -1   3   5 2455.99  119.65
  -1   3   5 2493.36  113.15
  -1   3   5 2552.23  124.35
   1  -3  -4   90.82   14.28
   1  -3  -4   89.00    4.85
   1  -3  -4  129.73   13.40
   1  -3  -4   89.92   13.61
  -1   3   4   88.21    6.38
  -1   3   4   86.14   13.75
  -1   3   4   87.23   21.02
  -1   3   4   82.35   13.94
   1  -3  -3 1917.36   86.63
   1  -3  -3 1895.31   90.88
   1  -3  -3 2043.64   81.09
   1  -3  -3 2026.41   94.23
  -1   3   3 1597.70   79.28
  -1   3   3 1940.34   89.12
  -1   3   3 1919.00   92.02
  -1   3   3 1947.27   75.93
   1  -3  -2 3134.87  147.46
   1  -3  -2 3025.38  147.69
   1  -3  -2 3440.24  151.49
   1  -3  -2 3123.97  144.15
  -1   3   2 3167.65  154.40
  -1   3   2 3120.46  128.86
  -1   3   2 3158.32  152.18
  -1   3   2 3260.09  147.45
   1  -3  -1 1777.25   83.81
   1  -3  -1 1878.24   84.53
  -1   3   1 1632.54   72.73
  -1   3   1 1707.93   78.23
  -1   3   1 1764.97   82.89
  -1   3   1 1783.16   71.86
  -1   3   1 1615.06   75.28
   1  -3   0 3534.00  168.71
   1  -3   0 3237.23  160.46
   1  -3   0 3562.06  170.45
  -1   3   0 3779.60  152.01
  -1   3   0 3248.36  157.46
  -1   3   0 3662.11  149.33
  -1   3   0 3283.61  155.90
  -1   3   0 3510.45  162.55
   1  -3   1 4800.07  235.54
   1  -3   1 4502.47  215.57
   1  -3   1 4238.03  229.43
  -1   3  -1 4617.86  229.45
  -1   3  -1 4605.36  218.13
  -1   3  -1 4084.58  203.32
   1  -3   2  288.42   19.71
   1  -3   2  299.35   19.27
  -1   3  -2  298.13   18.58
  -1   3  -2  288.49   16.37
  -1   3  -2  299.30   21.68
  -1   3  -2  276.51   19.58
   1  -3   3 1330.35   63.46
   1  -3   3 1269.94   61.70
  -1   3  -3 1267.89   58.28
  -1   3  -3 1266.07   63.38
  -1   3  -3 1239.79   58.66
  -1   3  -3  995.95   45.44
   1  -3   4 2872.56  147.02
  -1   3  -4 2702.33  128.40
  -1   3  -4 2845.82  138.22
  -1   3  -4 2841.89  146.98
  -1   3  -4 2764.54  135.17
   1  -3   5    8.74    5.07
  -1   3  -5    0.21    2.42
  -1   3  -5   -0.19    3.00
  -1   3  -5   -2.31    4.74
   1  -3   6 1660.19   95.31
  -1   3  -6 1616.20   91.88
   1  -3   7  404.43   35.42
  -1   3  -7  381.11   30.69
   1  -3   8  122.61   20.10
  -1   3  -8  112.10   15.11
   1  -3   9  469.84   31.88
   1  -2 -11  179.36   17.13
   1  -2 -10  490.48   36.15
   1  -2 -10  432.50   25.77
   1  -2  -9  775.49   67.28
  -1   2   9  806.61   49.74
   1  -2  -8   -1.43    5.68
  -1   2   8    0.05    5.18
  -1   2   8    3.82    5.43
   1  -2  -7 3538.22  175.07
   1  -2  -7 4175.21  224.91
  -1   2   7 4057.43  221.42
  -1   2   7 3755.29  195.95
   1  -2  -6  713.37   41.55
   1  -2  -6  587.74   26.89
  -1   2   6  657.21   34.88
  -1   2   6  592.13   28.69
  -1   2   6  654.70   54.16
   1  -2  -5  295.47   21.38
   1  -2  -5  277.05   20.88
   1  -2  -5  234.87   11.74
  -1   2   5  264.87   14.41
  -1   2   5  287.30   19.88
  -1   2   5  276.07   22.80
  -1   2   5  292.94   21.02
   1  -2  -4 9358.79  480.41
   1  -2  -4 9640.05  541.82
   1  -2  -410363.94  573.21
  -1   2   4 9820.24  529.83
  -1   2   4 9752.90  538.40
  -1   2   4 9485.59  540.42
  -1   2   4 9956.60  557.14
   1  -2  -3 2434.20  123.98
   1  -2  -3 2457.94   95.53
   1  -2  -3 2434.30  113.65
   1  -2  -3 2441.99  115.13
  -1   2   3 2132.08  118.26
  -1   2   3 2378.51   95.62
  -1   2   3 2221.07  124.92
  -1   2   3 2342.10  107.67
   1  -2  -2  954.63   46.14
   1  -2  -2  915.73   42.02
   1  -2  -2  938.13   36.44
   1  -2  -2  912.97   46.41
  -1   2   2  753.42   40.64
  -1   2   2  940.59   32.62
  -1   2   2  896.46   43.62
  -1   2   2  912.01   46.20
   1  -2  -113667.26  797.91
   1  -2  -114221.68  828.63
  -1   2   111487.82  680.54
  -1   2   113428.76  768.60
  -1   2   114009.87  805.66
  -1   2   114186.01  777.17
  -1   2   114171.43  823.25
   1  -2   0 1746.41   78.64
   1  -2   0 1685.98   80.04
  -1   2   0 1606.98   68.31
  -1   2   0 1851.04   67.66
  -1   2   0 1570.64   70.94
  -1   2   0 1568.63   92.78
  -1   2   0 1748.48   64.75
   1  -2   1  209.21   14.51
   1  -2   1  241.09   20.20
   1  -2   1  213.02   20.34
  -1   2  -1  203.89   13.45
  -1   2  -1  206.96   19.25
  -1   2  -1  251.02   18.25
   1  -2   2 6540.38  330.39
  -1   2  -2 6939.93  333.85
  -1   2  -2 4451.22  234.48
  -1   2  -2 6860.39  337.63
  -1   2  -2 6861.21  368.70
  -1   2  -2 6986.53  343.12
   1  -2   3  383.28   24.14
  -1   2  -3  327.56   18.94
  -1   2  -3  378.68   26.65
  -1   2  -3  322.31   21.11
  -1   2  -3  375.07   22.31
  -1   2  -3  350.76   24.55
   1  -2   4 2194.41  115.53
  -1   2  -4 2134.00  104.16
  -1   2  -4 2080.45   96.20
  -1   2  -4 1625.35   74.59
  -1   2  -4 2099.90   94.11
  -1   2  -4 2248.79  105.57
  -1   2  -5 1243.75   53.64
  -1   2  -5 1258.98   67.05
  -1   2  -5 1200.03   52.82
  -1   2  -5 1231.87   56.72
  -1   2  -5 1191.98   58.50
   1  -2   6    2.11    5.56
  -1   2  -6   -4.54    5.61
   1  -2   7 1371.06   80.23
  -1   2  -7 1377.48   98.54
   1  -2   8  338.68   31.35
  -1   2  -8  314.20   29.41
   1  -2   9    0.02    3.38
  -1   2  -9   -0.03    2.83
   1  -1 -10    5.89    7.04
   1  -1 -10    6.14    4.13
   1  -1  -9  625.31   43.12
   1  -1  -9  600.69   35.15
  -1   1   9  540.08   29.61
   1  -1  -8  521.40   49.96
  -1   1   8  463.46   25.92
   1  -1  -7  362.65   28.96
  -1   1   7  360.66   27.12
  -1   1   7  389.04   30.73
   1  -1  -6 2088.61   96.07
   1  -1  -6 2277.97  113.77
  -1   1   6 2115.79  101.00
  -1   1   6 2338.55  119.89
  -1   1   6 2152.56  100.76
   1  -1  -5 7313.82  386.86
   1  -1  -5 7353.74  405.06
   1  -1  -5 8068.67  437.40
  -1   1   5 7432.82  414.32
  -1   1   5 7231.54  388.76
  -1   1   5 7026.87  378.48
  -1   1   5 7641.58  410.16
   1  -1  -4  111.82    6.49
   1  -1  -4  114.72   14.50
   1  -1  -4  120.22    8.56
   1  -1  -4  113.85   13.23
   1  -1  -4  112.49    6.02
  -1   1   4  114.06   15.80
  -1   1   4  116.87   12.08
  -1   1   4  121.14   10.09
  -1   1   4  130.56   12.15
   1  -1  -311341.14  619.76
   1  -1  -312287.76  695.63
   1  -1  -312018.11  679.14
   1  -1  -311474.39  659.71
  -1   1   311698.68  666.12
  -1   1   311836.99  656.24
  -1   1   311562.33  667.97
  -1   1   311828.19  668.60
   1  -1  -2 7399.95  380.52
   1  -1  -2 7109.86  363.01
   1  -1  -2 7408.22  371.03
   1  -1  -2 7563.55  370.70
  -1   1   2 7752.92  388.97
  -1   1   2 7434.37  383.52
  -1   1   2 7454.42  357.23
  -1   1   2 7126.08  365.17
   1  -1  -1  195.57   15.63
   1  -1  -1  197.11   22.96
   1  -1  -1  206.07   14.85
   1  -1  -1  201.39   21.43
   1  -1  -1  197.07   13.54
  -1   1   1  202.63   15.44
  -1   1   1  193.25   15.13
  -1   1   1  201.24    6.47
   1  -1   0 1031.56   42.34
   1  -1   0 1007.38   45.15
  -1   1   0 1024.76   37.72
  -1   1   0  941.31   42.20
  -1   1   0  911.80   51.14
  -1   1   0  995.63   37.60
   1  -1   1 4057.66  179.90
   1  -1   1 3775.07  175.52
  -1   1  -1 3867.06  167.83
  -1   1  -1 3899.59  203.37
  -1   1  -1 4077.17  168.98
  -1   1  -1 3933.07  175.83
   1  -1   2  215.39   18.81
  -1   1  -2  202.48   10.57
  -1   1  -2  203.11   19.33
  -1   1  -2  204.19   15.93
  -1   1  -2  212.61   12.73
  -1   1  -2  197.09   13.86
   1  -1   3  766.13   39.14
   1  -1   3  712.58   36.44
  -1   1  -3  735.72   31.34
  -1   1  -3  708.09   28.16
  -1   1  -3  663.08   28.39
  -1   1  -3  734.20   40.16
  -1   1  -3  718.71   36.02
   1  -1   4 2795.15  134.66
   1  -1   4 2672.12  126.82
  -1   1  -4 2588.56  111.64
  -1   1  -4 2712.07  119.86
  -1   1  -4 2658.82  125.78
  -1   1  -4 2761.05  134.62
  -1   1  -4 2518.89  107.97
   1  -1   5  492.35   32.13
   1  -1   5  487.59   29.39
  -1   1  -5  467.10   18.68
  -1   1  -5  486.83   29.84
  -1   1  -5  446.89   20.23
  -1   1  -5  449.75   26.81
  -1   1  -5  486.28   31.93
  -1   1  -5  452.51   18.48
  -1   1  -6 3637.07  193.63
  -1   1  -6 3769.85  195.28
  -1   1  -6 3303.11  160.82
  -1   1  -6 3345.04  158.99
  -1   1  -7 1435.14   84.00
   1  -1   8 2222.72  123.83
  -1   1  -8 2133.43  122.61
   1  -1   9 1254.32   72.84
  -1   1  -9 1246.76   92.72
   1  -1  10   46.24   11.60
  -1   1 -10   41.32   11.41
   1   0 -10 1023.11   50.08
   1   0 -10 1118.49   65.29
  -1   0  10 1070.73   49.11
   1   0  -9  628.71   39.27
   1   0  -9  610.50   33.76
  -1   0   9  598.46   34.19
   1   0  -8  583.10   35.38
   1   0  -8  599.83   39.59
  -1   0   8  538.61   32.59
   1   0  -7 6446.62  365.97
   1   0  -7 6215.85  346.93
  -1   0   7 5627.59  314.88
   1   0  -6   78.59   12.08
  -1   0   6   71.82    9.85
  -1   0   6   80.03   14.13
   1   0  -5 1985.97   82.94
   1   0  -5 1924.17   79.60
   1   0  -5 1960.83   96.97
   1   0  -5 1965.37   93.65
   1   0  -5 1873.64   85.81
  -1   0   5 2085.17   97.72
  -1   0   5 1993.13   91.85
  -1   0   5 2007.80   94.08
  -1   0   5 2065.09  103.81
   1   0  -4 3634.12  179.88
   1   0  -4 3679.71  165.02
   1   0  -4 3744.46  172.94
   1   0  -4 3829.93  182.81
   1   0  -4 3748.23  176.03
  -1   0   4 3658.34  184.64
  -1   0   4 3880.82  193.85
  -1   0   4 3588.25  165.75
  -1   0   4 3838.53  179.65
   1   0  -3  168.38   12.20
   1   0  -3  179.85   12.59
   1   0  -3  174.26   14.60
   1   0  -3  180.65   18.78
   1   0  -3  164.02   12.85
   1   0  -3  161.55   11.35
  -1   0   3  180.68   14.16
  -1   0   3  162.86   13.07
  -1   0   3  172.12   18.24
  -1   0   3  158.48   12.49
   1   0  -2    6.69    5.56
   1   0  -2    9.70    7.59
   1   0  -2    8.03    5.15
   1   0  -2    8.01    4.95
  -1   0   2    9.02    5.45
  -1   0   2    7.68    4.59
  -1   0   2    8.66    4.99
  -1   0   2    6.70    7.33
   1   0  -1 4484.45  200.50
   1   0  -1 4478.16  205.15
   1   0  -1 4542.40  203.64
  -1   0   1 4277.75  210.62
  -1   0   1 4346.14  217.98
  -1   0   1 4333.81  192.45
  -1   0   1 4344.77  184.06
  -1   0   1 4572.47  195.42
  -1   0   1 4468.44  190.51
   1   0   0   66.67    8.52
   1   0   0   58.89   12.92
  -1   0   0   61.40    9.11
  -1   0   0   65.91    6.63
  -1   0   0   59.70    7.79
  -1   0   0   64.00    8.25
  -1   0   0   62.32    4.95
   1   0   1 1249.80   56.91
   1   0   1 1240.85   47.42
  -1   0  -1 1302.41   48.43
  -1   0  -1 1372.13   52.44
  -1   0  -1 1243.17   48.69
  -1   0  -1 1418.52   51.90
   1   0   2 4800.88  223.05
   1   0   2 4551.58  212.94
  -1   0  -2 4591.85  209.04
  -1   0  -2 4666.36  209.36
  -1   0  -2 4668.82  217.48
  -1   0  -2 4585.86  201.78
  -1   0  -2 4653.29  237.63
   1   0   3  233.86   20.29
   1   0   3  236.28   18.30
  -1   0  -3  237.38   19.06
  -1   0  -3  223.23   19.17
  -1   0  -3  240.10    9.91
  -1   0  -3  233.09   11.76
  -1   0  -3  235.24   12.35
   1   0   4 9810.12  548.64
   1   0   4 9240.02  496.52
   1   0   4 9358.56  515.52
  -1   0  -4 9300.86  536.52
  -1   0  -4 9224.62  471.43
  -1   0  -4 9447.01  504.39
  -1   0  -4 9712.98  536.14
   1   0   5 2477.30  117.74
   1   0   5 2593.77  127.09
   1   0   5 2267.09  100.86
  -1   0  -5 2537.17  142.42
  -1   0  -5 2305.64  110.61
  -1   0  -5 2378.39  104.85
  -1   0  -6  518.37   31.89
  -1   0  -6  514.79   23.40
  -1   0  -6  545.74   36.01
  -1   0  -6  511.85   24.19
  -1   0  -7 2216.53  117.32
  -1   0  -7 2177.58  122.04
  -1   0  -8  597.18   45.62
  -1   0  -8  603.25   41.51
   1   0   9   10.90    8.48
  -1   0  -9    6.61   10.16
   1   0  10  584.07   37.13
  -1   0 -10  588.88   57.73
   1   0  11  263.03   18.04
  -1   0 -11  255.19   20.67
   1   1  -9  683.89   42.64
   1   1  -9  683.83   36.75
  -1  -1   9  739.03   51.03
   1   1  -8  815.84   45.10
   1   1  -8  792.23   46.31
  -1  -1   8  840.16   49.09
   1   1  -7  158.77   17.01
   1   1  -7  176.41   17.53
  -1  -1   7  179.69   18.20
   1   1  -6 2336.19  119.57
   1   1  -6 2419.96  123.57
  -1  -1   6 2319.86  119.72
   1   1  -5 3183.82  156.26
   1   1  -5 2867.89  133.96
   1   1  -5 3085.99  153.02
   1   1  -5 3071.33  171.88
   1   1  -5 3081.24  140.90
  -1  -1   5 3002.42  149.80
  -1  -1   5 3010.17  144.18
  -1  -1   5 3102.25  167.08
   1   1  -4   12.87    8.74
   1   1  -4   16.16    4.46
   1   1  -4    1.71    6.70
   1   1  -4   10.90    9.38
   1   1  -4   16.14    7.79
  -1  -1   4   15.10    6.12
  -1  -1   4   12.70    6.28
  -1  -1   4   10.65    8.04
   1   1  -3 8250.92  441.85
   1   1  -3 8495.84  456.33
   1   1  -3 8736.90  482.50
   1   1  -3 8579.45  477.15
   1   1  -3 8848.68  453.05
  -1  -1   3 9377.09  495.77
  -1  -1   3 8470.01  459.21
  -1  -1   3 8345.96  454.26
  -1  -1   3 8751.38  484.93
   1   1  -2 2617.71  110.82
   1   1  -2 2807.71  130.67
   1   1  -2 2950.22  130.28
   1   1  -2 2575.86  117.08
   1   1  -2 2609.07  125.66
  -1  -1   2 2593.81  116.21
  -1  -1   2 2544.52  117.16
  -1  -1   2 2716.08  113.23
  -1  -1   2 2541.80  122.41
   1   1  -1 5565.44  269.46
   1   1  -1 4928.23  240.78
   1   1  -1 5943.32  287.28
   1   1  -1 5608.67  277.26
   1   1  -1 5831.98  270.67
  -1  -1   1 5840.20  277.18
  -1  -1   1 5567.39  268.76
  -1  -1   1 5768.12  257.87
   1   1   0 2929.33  126.52
   1   1   0 3031.45  129.73
   1   1   0 2912.99  121.86
   1   1   0 3281.52  140.02
  -1  -1   0 2850.43  121.03
  -1  -1   0 3234.97  114.20
  -1  -1   0 3059.17  132.64
   1   1   1 1510.85   63.88
   1   1   1 1514.35   63.31
  -1  -1  -1 1512.31   62.38
  -1  -1  -1 1649.29   59.41
  -1  -1  -1 1561.89   58.19
  -1  -1  -1 1585.10   68.00
   1   1   2 7153.45  372.39
   1   1   2 9293.31  483.38
  -1  -1  -2 8391.86  429.23
  -1  -1  -2 9168.60  460.15
  -1  -1  -2 8591.79  445.49
  -1  -1  -2 8790.21  443.51
   1   1   3 7735.22  432.03
  -1  -1  -3 7609.85  395.74
  -1  -1  -3 7276.25  374.59
  -1  -1  -3 7054.91  358.45
  -1  -1  -3 7192.34  352.97
   1   1   4 1349.83   56.53
   1   1   4 1390.12   67.93
  -1  -1  -4 1367.91   64.68
  -1  -1  -4 1376.61   64.74
  -1  -1  -4 1343.42   62.08
   1   1   5 3832.33  177.26
   1   1   5 3729.98  175.46
   1   1   5 3854.75  194.41
   1   1   5 4142.35  200.92
  -1  -1  -5 3946.60  194.31
  -1  -1  -5 3746.76  187.05
  -1  -1  -5 3994.20  193.20
   1   1   6 3031.98  137.41
   1   1   6 3136.75  176.21
   1   1   6 2965.44  139.91
   1   1   6 3222.59  157.74
  -1  -1  -6 3153.64  170.55
  -1  -1  -6 2903.83  140.44
  -1  -1  -6 3018.49  153.77
   1   1   7  745.67   35.89
  -1  -1  -7  762.19   35.12
  -1  -1  -7  800.95   44.29
  -1  -1  -7  856.71   67.44
  -1  -1  -8 2623.83  149.52
  -1  -1  -8 2535.23  135.72
  -1  -1  -9  641.40   49.67
  -1  -1  -9  650.02   41.87
   1   1  10   11.38    7.81
  -1  -1 -10   11.92   10.78
   1   1  11  330.08   21.27
  -1  -1 -11  359.49   42.63
   1   2  -9   66.13    6.74
  -1  -2   9   87.68   10.74
   1   2  -8  344.61   21.41
   1   2  -8  378.85   23.62
  -1  -2   8  403.60   41.82
   1   2  -7 1452.16   84.70
   1   2  -7 1555.24   81.70
  -1  -2   7 1650.12   92.39
   1   2  -6  135.22   16.60
   1   2  -6  135.60   13.38
  -1  -2   6  156.75   19.29
   1   2  -5 2041.74  100.68
   1   2  -5 2167.43  107.98
   1   2  -5 2127.60   99.43
  -1  -2   5 2249.01  116.55
   1   2  -4 1768.71   82.15
   1   2  -4 1815.06   84.33
   1   2  -4 1811.34   87.83
   1   2  -4 1900.92   97.50
   1   2  -4 1770.15   83.42
  -1  -2   4 1883.21   93.99
  -1  -2   4 1882.26   92.53
  -1  -2   4 1834.63   81.81
   1   2  -3  433.39   29.25
   1   2  -3  439.28   27.67
   1   2  -3  423.80   20.99
   1   2  -3  421.76   25.34
   1   2  -3  441.43   14.77
   1   2  -3  433.62   24.75
  -1  -2   3  446.72   27.84
  -1  -2   3  455.82   26.95
  -1  -2   3  436.52   20.19
   1   2  -2 2712.23  110.51
   1   2  -2 2702.16  139.30
   1   2  -2 2563.77  110.43
   1   2  -2 2634.80  127.64
   1   2  -2 2419.84  113.77
   1   2  -2 2589.17  119.94
  -1  -2   2 2560.09  122.25
  -1  -2   2 2547.65  117.74
  -1  -2   2 2548.33  106.99
   1   2  -1 1962.16   88.29
   1   2  -1 1901.11   90.71
   1   2  -1 2013.03  104.53
   1   2  -1 1549.74   74.56
   1   2  -1 2103.57   88.91
  -1  -2   1 1913.10   88.95
  -1  -2   1 1996.36   89.62
  -1  -2   1 1823.18   74.85
   1   2   0  372.74   24.22
   1   2   0  532.97   30.16
   1   2   0  520.08   40.51
   1   2   0  528.38   36.91
   1   2   0  555.06   35.19
  -1  -2   0  516.00   28.90
  -1  -2   0  507.45   16.80
  -1  -2   0  542.37   31.83
   1   2   1 8022.31  426.78
   1   2   1 9217.64  512.05
   1   2   1 8574.72  443.75
   1   2   1 8383.79  436.63
  -1  -2  -1 8100.56  418.74
  -1  -2  -1 8588.78  415.65
  -1  -2  -1 8317.68  430.95
  -1  -2  -1 8735.88  463.29
   1   2   2 1352.59   63.75
   1   2   2 1347.40   56.47
   1   2   2 1280.79   58.60
  -1  -2  -2 1451.07   60.11
  -1  -2  -2 1280.77   73.41
  -1  -2  -2 1346.39   49.41
  -1  -2  -2 1369.39   65.12
   1   2   3   77.12   13.59
   1   2   3   81.02    9.65
   1   2   3   90.66   12.23
  -1  -2  -3   76.57   14.42
  -1  -2  -3   66.82    8.35
  -1  -2  -3   69.47   13.41
  -1  -2  -3   73.94   12.54
   1   2   4 5601.26  289.64
   1   2   4 5296.28  260.69
  -1  -2  -4 6079.06  317.39
  -1  -2  -4 5568.32  279.21
  -1  -2  -4 5783.66  280.18
  -1  -2  -4 5758.68  293.30
   1   2   5 2892.25  133.76
   1   2   5 3040.30  149.62
   1   2   5 3028.00  141.30
  -1  -2  -5 2985.95  134.68
  -1  -2  -5 2890.91  139.68
  -1  -2  -5 3121.29  149.02
   1   2   6  351.52   20.64
   1   2   6  356.54   25.64
   1   2   6  326.55   18.61
  -1  -2  -6  342.99   17.77
  -1  -2  -6  354.71   23.79
  -1  -2  -6  337.77   24.32
   1   2   7 2556.51  124.18
   1   2   7 2665.46  127.31
  -1  -2  -7 2687.63  139.63
  -1  -2  -7 2623.63  122.96
  -1  -2  -7 2749.09  137.77
   1   2   8  417.07   22.39
  -1  -2  -8  402.81   46.71
  -1  -2  -8  398.58   28.22
  -1  -2  -9  503.41   41.60
  -1  -2  -9  501.64   32.74
  -1  -2 -10  574.04   43.98
  -1  -2 -10  531.71   33.45
   1   2  11   12.17    5.99
  -1  -2 -11   18.87   10.08
   1   3  -8  303.13   18.33
  -1  -3   8  342.94   25.67
   1   3  -7  372.67   25.34
  -1  -3   7  406.66   33.84
   1   3  -6 1252.89   68.37
  -1  -3   6 1271.60   76.06
   1   3  -5  287.96   34.03
   1   3  -5  255.64   18.96
  -1  -3   5  292.79   27.52
   1   3  -4  757.70   36.39
   1   3  -4  858.86   45.19
   1   3  -4  814.02   45.67
  -1  -3   4  847.84   50.35
  -1  -3   4  793.85   35.66
   1   3  -3 2792.19  137.87
   1   3  -3 2849.92  140.73
   1   3  -3 2995.37  147.37
   1   3  -3 2599.33  120.28
   1   3  -3 2882.63  148.62
  -1  -3   3 2797.27  143.87
  -1  -3   3 2584.59  116.31
  -1  -3   3 2879.59  143.65
   1   3  -2  375.74   26.99
   1   3  -2  360.08   23.53
   1   3  -2  384.53   24.55
   1   3  -2  356.96   16.22
   1   3  -2  399.09   28.24
  -1  -3   2  354.10   15.12
  -1  -3   2  378.37   26.00
  -1  -3   2  377.56   23.87
   1   3  -1 2483.60  122.08
   1   3  -1 2088.71  102.16
   1   3  -1 2429.00   99.65
   1   3  -1 2616.30  137.22
   1   3  -1 2548.88  125.93
  -1  -3   1 2520.10  102.31
  -1  -3   1 2721.75  151.76
  -1  -3   1 2632.70  122.28
   1   3   0 3476.17  162.76
   1   3   0 3399.65  160.44
   1   3   0 3368.17  145.86
   1   3   0 2920.09  147.09
  -1  -3   0 3340.61  157.35
  -1  -3   0 3193.14  156.84
  -1  -3   0 3157.02  130.19
   1   3   1 1422.35   65.44
   1   3   1 1451.75   68.33
   1   3   1 1455.17   61.47
   1   3   1 1338.30   64.30
  -1  -3  -1 1424.13   50.38
  -1  -3  -1 1414.48   69.29
  -1  -3  -1 1450.08   66.16
  -1  -3  -1 1393.26   51.27
  -1  -3  -1 1393.38   68.04
   1   3   2 3279.89  144.80
   1   3   2 3688.63  176.03
   1   3   2 3075.19  156.01
   1   3   2 3324.17  153.84
  -1  -3  -2 3418.82  172.43
  -1  -3  -2 3165.82  147.62
  -1  -3  -2 3135.46  153.53
  -1  -3  -2 3255.88  138.00
  -1  -3  -2 3352.10  137.98
   1   3   3 6695.49  346.07
   1   3   3 6240.83  316.55
   1   3   3 5956.77  306.71
  -1  -3  -3 6461.78  317.89
  -1  -3  -3 6628.05  333.05
  -1  -3  -3 6592.75  341.18
  -1  -3  -3 6114.02  314.29
  -1  -3  -3 6013.22  290.50
   1   3   4    8.05    6.50
   1   3   4    8.63    6.71
   1   3   4    9.56    5.39
  -1  -3  -4    7.20    6.32
  -1  -3  -4    8.37    7.20
  -1  -3  -4    8.41    4.89
  -1  -3  -4    5.71    4.05
   1   3   5 6095.14  322.67
   1   3   5 5414.95  282.35
   1   3   5 6044.57  315.01
  -1  -3  -5 6126.84  319.83
  -1  -3  -5 5824.65  305.79
  -1  -3  -5 6347.44  339.63
   1   3   6 1010.71   52.16
   1   3   6 1023.77   53.71
   1   3   6  956.38   46.17
  -1  -3  -6  983.61   52.60
  -1  -3  -6  981.16   49.41
  -1  -3  -6 1030.25   52.11
   1   3   7  113.64   14.65
   1   3   7  113.44   11.39
  -1  -3  -7  114.69   14.11
  -1  -3  -7  125.35   15.55
   1   3   8 1261.21   63.70
   1   3   8 1468.85   85.38
  -1  -3  -8 1377.46   83.59
  -1  -3  -8 1323.61   74.56
   1   3   9  566.87   31.48
  -1  -3  -9  551.36   56.14
  -1  -3  -9  558.42   33.49
  -1  -3 -10  236.72   25.70
  -1  -3 -10  221.18   17.85
   1   3  11  467.30   25.34
  -1  -3 -11  526.41   37.01
   1   4  -7  726.25   36.69
  -1  -4   7  779.41   47.99
   1   4  -6    2.56    3.95
   1   4  -6    0.03    2.61
  -1  -4   6   -0.55    5.66
   1   4  -5 2247.77  113.87
   1   4  -5 2211.17  118.95
  -1  -4   5 2269.25  131.88
   1   4  -4  862.33   51.97
   1   4  -4  871.20   52.54
  -1  -4   4 1362.95   77.44
   1   4  -3  332.37   26.07
   1   4  -3  342.93   28.68
  -1  -4   3  329.39   32.37
   1   4  -2 3911.34  204.25
   1   4  -2 4011.77  211.84
  -1  -4   2 3818.87  206.13
   1   4  -1  261.24   23.28
   1   4  -1  250.30   20.18
   1   4  -1  266.43   21.41
   1   4  -1  278.40   24.86
  -1  -4   1  264.99   20.06
  -1  -4   1  272.62   22.86
   1   4   0 1059.56   56.57
   1   4   0 1081.92   54.33
   1   4   0 1145.63   57.84
   1   4   0 1049.86   40.24
  -1  -4   0  997.88   37.38
  -1  -4   0 1041.84   54.93
   1   4   1 3023.78  140.91
   1   4   1 2806.28  133.30
   1   4   1 2753.40  131.48
   1   4   1 2798.04  123.14
  -1  -4  -1 2897.45  137.88
  -1  -4  -1 2686.35  111.76
  -1  -4  -1 2761.29  120.72
  -1  -4  -1 2553.11  103.72
  -1  -4  -1 2804.20  137.79
   1   4   2   43.16    9.74
   1   4   2   47.70    7.48
   1   4   2   38.07    9.58
   1   4   2   49.35    7.69
  -1  -4  -2   45.88    7.01
  -1  -4  -2   44.85    8.69
  -1  -4  -2   47.77    9.90
  -1  -4  -2   41.46    3.66
  -1  -4  -2   48.28   10.42
   1   4   3 1077.85   46.74
   1   4   3 1128.48   53.75
   1   4   3 1109.53   62.20
   1   4   3 1184.27   67.31
  -1  -4  -3 1231.42   68.92
  -1  -4  -3 1126.35   45.59
  -1  -4  -3 1142.41   55.20
  -1  -4  -3 1136.76   55.97
  -1  -4  -3 1099.31   42.96
   1   4   4 2390.39  113.16
   1   4   4 2292.34  108.71
   1   4   4 2128.99  102.46
  -1  -4  -4 2006.41   86.68
  -1  -4  -4 2247.58  109.35
  -1  -4  -4 2362.52  108.17
  -1  -4  -4 2160.32   95.31
  -1  -4  -4 2144.34  103.25
   1   4   5   97.00   14.88
   1   4   5  122.06   16.16
   1   4   5  115.79   13.79
   1   4   5  110.97   12.59
  -1  -4  -5  114.64   11.62
  -1  -4  -5  108.89   10.62
  -1  -4  -5  107.39   12.77
   1   4   6  918.38   49.11
   1   4   6  842.88   48.24
   1   4   6  816.90   52.30
  -1  -4  -6  839.08   41.99
  -1  -4  -6  831.09   42.77
  -1  -4  -6  829.25   40.33
  -1  -4  -6  773.95   50.33
   1   4   7 2049.41  107.73
   1   4   7 1862.64   94.70
  -1  -4  -7 1983.56   99.28
  -1  -4  -7 2013.21  102.57
   1   4   8   85.80   15.98
   1   4   8   80.81   11.19
  -1  -4  -8   80.56   14.12
  -1  -4  -8   84.57   11.78
   1   4   9  739.54   42.59
  -1  -4  -9  662.51   37.26
  -1  -4  -9  674.20   43.55
   1   4  10  455.37   26.92
  -1  -4 -10  441.03   25.45
  -1  -4 -10  485.05   35.00
   1   4  11   -1.94    1.61
  -1  -4 -11    8.05    3.33
   1   5  -6  538.44   37.82
   1   5  -6  490.74   23.94
  -1  -5   6  549.49   38.48
   1   5  -5  159.92   18.03
   1   5  -5  169.62   16.80
  -1  -5   5  419.59   31.40
   1   5  -4  929.55   52.61
   1   5  -4  852.62   51.51
  -1  -5   4  861.46   58.67
   1   5  -3  682.33   43.63
   1   5  -3  765.63   64.99
  -1  -5   3  686.44   48.68
   1   5  -2   95.01   20.38
   1   5  -2  102.02   15.92
  -1  -5   2   91.03   18.08
   1   5  -1 2518.79  136.07
   1   5  -1 2343.09  123.07
  -1  -5   1 2337.00  127.28
   1   5   0 1289.26   69.56
   1   5   0 1195.98   63.66
  -1  -5   0 1226.39   67.30
   1   5   1  809.85   43.78
   1   5   1  770.99   44.38
  -1  -5  -1  801.86   44.62
  -1  -5  -1  792.02   45.32
   1   5   2 1968.69   90.98
   1   5   2 2010.73   96.90
   1   5   2 1967.79   97.88
   1   5   2 1926.74   87.03
  -1  -5  -2 2070.93  101.66
  -1  -5  -2 1977.09   99.70
   1   5   3 1021.29   42.88
   1   5   3 1060.22   54.85
   1   5   3 1070.75   52.90
   1   5   3 1124.73   52.48
  -1  -5  -3 1135.70   57.07
  -1  -5  -3 1057.00   54.44
   1   5   4  187.67   17.41
   1   5   4  171.67   15.15
   1   5   4  179.71   27.02
   1   5   4  193.86   26.22
  -1  -5  -4  159.44   10.33
  -1  -5  -4  169.59   22.96
  -1  -5  -4  178.58   16.74
  -1  -5  -4  153.95    9.01
   1   5   5 3675.43  192.35
   1   5   5 3302.11  169.27
   1   5   5 3324.11  169.35
  -1  -5  -5 3109.94  157.08
  -1  -5  -5 3184.82  159.04
  -1  -5  -5 2774.18  130.63
   1   5   6 1486.02   80.63
   1   5   6 1387.95   71.23
  -1  -5  -6 1389.19   68.67
  -1  -5  -6 1244.76   65.47
   1   5   7  975.81   61.14
   1   5   7  909.22   50.26
  -1  -5  -7  899.18   46.48
  -1  -5  -7  910.10   48.21
   1   5   8  870.10   56.30
   1   5   8  778.54   44.69
  -1  -5  -8  822.12   43.92
  -1  -5  -8  813.99   45.95
   1   5   9  366.45   29.79
   1   5   9  319.18   29.37
  -1  -5  -9  286.92   25.84
  -1  -5  -9  325.23   24.63
   1   5  10  400.11   27.57
  -1  -5 -10  381.34   38.21
  -1  -5 -10  348.85   19.62
   1   5  11  170.10   13.16
  -1  -5 -11  185.92   16.53
   1   6  -5  647.14   33.12
   1   6  -5  627.73   32.87
  -1  -6   5  638.67   41.43
   1   6  -4   16.82    8.78
   1   6  -4   18.44    8.61
  -1  -6   4   18.70   10.83
   1   6  -3  628.49   42.01
   1   6  -3  571.12   53.37
  -1  -6   3  569.02   44.39
   1   6  -2  533.43   39.87
   1   6  -2  459.59   51.02
  -1  -6   2  569.94   42.59
   1   6  -1   60.54   15.49
   1   6  -1   54.33   23.00
  -1  -6   1   55.13   15.49
   1   6   0  237.75   23.12
   1   6   0  230.80   24.17
  -1  -6   0  226.85   24.91
   1   6   1 2145.99  109.00
   1   6   1 2059.12  111.90
  -1  -6  -1 2155.06  116.77
   1   6   2   13.00    6.74
   1   6   2   21.22   10.09
  -1  -6  -2   32.60    9.41
   1   6   3 1614.61   73.62
   1   6   3 1741.83   81.31
   1   6   3 1773.25   94.21
  -1  -6  -3 1770.73   90.73
   1   6   4 1687.36  107.50
   1   6   4 1598.94   79.55
  -1  -6  -4 1466.29   87.17
   1   6   5    3.00    7.96
   1   6   5    5.33    8.24
  -1  -6  -5   11.76    5.93
   1   6   6  773.22   51.24
   1   6   6  734.45   45.52
  -1  -6  -6  717.24   38.99
   1   6   7  736.69   52.74
   1   6   7  683.57   42.48
  -1  -6  -7  626.91   34.04
  -1  -6  -7  670.83   34.59
   1   6   8    7.74    7.05
   1   6   8   10.37   11.20
  -1  -6  -8    8.99    5.28
  -1  -6  -8   13.53    5.52
   1   6   9  175.31   21.89
   1   6   9  154.53   14.87
  -1  -6  -9  138.74   14.15
   1   6  10  113.44   17.65
  -1  -6 -10  163.81   20.05
   1   6  11   -0.13    3.65
  -1  -6 -11    1.22    2.54
   1   7  -4  529.89   38.63
   1   7  -4  496.90   26.25
  -1  -7   4  563.14   34.82
   1   7  -3  338.90   26.84
   1   7  -3  299.51   23.47
  -1  -7   3  314.34   28.67
   1   7  -2  261.85   26.54
   1   7  -2  231.77   23.50
  -1  -7   2  244.40   41.67
   1   7  -1 1791.34   99.81
   1   7  -1 1604.31   93.29
  -1  -7   1 1722.83  100.45
   1   7   0   85.87   15.92
   1   7   0   93.35   17.83
  -1  -7   0  100.92   17.57
   1   7   1  848.79   48.32
   1   7   1  804.78   53.37
  -1  -7  -1  807.97   51.26
   1   7   2  860.11   44.81
   1   7   2  887.29   56.17
  -1  -7  -2  863.33   50.52
   1   7   3   42.02    6.79
   1   7   3   47.21   13.73
  -1  -7  -3   43.97   10.46
   1   7   4  314.80   30.50
   1   7   4  288.47   19.20
  -1  -7  -4  271.74   20.98
   1   7   5  228.73   19.22
   1   7   5  223.30   25.07
  -1  -7  -5  195.42   16.77
   1   7   6  571.25   40.04
   1   7   6  580.88   38.91
  -1  -7  -6  546.13   30.83
   1   7   7  425.55   34.49
   1   7   7  406.00   44.47
   1   7   8  361.09   26.95
   1   7   8  407.57   50.57
   1   7   9    4.72    4.68
   1   7   9   -0.27    7.38
   1   7  10  422.12   30.38
   1   8  -2  253.37   30.62
   1   8  -2  236.49   18.74
  -1  -8   2  259.42   20.27
   1   8  -1   17.23    8.57
   1   8  -1   13.07    9.14
  -1  -8   1   14.57    8.37
   1   8   0  423.36   30.14
   1   8   0  425.54   33.57
  -1  -8   0  432.95   30.07
   1   8   1  259.57   21.00
   1   8   1  273.73   27.61
  -1  -8  -1  255.87   21.80
   1   8   2   -0.89    2.77
   1   8   2    2.02    8.25
  -1  -8  -2    1.65    3.40
   1   8   3  668.42   49.34
  -1  -8  -3  451.40   38.04
   1   8   4  551.08   42.63
  -1  -8  -4  473.81   28.68
   1   8   5  187.77   24.46
   1   8   6  415.30   26.09
   1   8   6  361.29   33.73
   1   8   7   45.04   10.80
   1   8   7   46.04   12.60
   1   8   8   82.38   13.30
   1   8   8   97.24   14.22
   1   8   9  208.18   19.59
   1   8  10    9.92    6.71
   1   9   0   44.90   10.27
   1   9   0   43.15    8.41
   1   9   1  245.00   16.91
   1   9   1  250.40   23.59
   1   9   2  289.99   27.05
   1   9   3   -0.46    5.38
   1   9   4  317.14   29.33
   1   9   5   63.02   14.66
   1   9   6    4.86   11.59
   1   9   7  257.33   20.29
   1   9   7  209.63   12.36
   1   9   8   91.55    8.96
  -2   9   6   76.20   13.58
   2  -9  -5  256.29   13.51
  -2   9   5  340.73   24.64
   2  -9  -4    1.08    1.79
  -2   9   4    0.93    4.71
  -2   9   3   94.97   20.54
  -2   9   2  585.78   39.12
  -2   9   1   35.30    7.32
  -2   9   1   16.01    8.20
   2  -8  -8   94.33   11.60
  -2   8   8   87.32   16.17
  -2   8   8   99.74   12.61
   2  -8  -7  723.22   47.60
  -2   8   7  794.31   51.08
  -2   8   7  773.90   42.45
   2  -8  -6  160.19   14.77
  -2   8   6  163.74   22.27
  -2   8   6  151.01   12.81
   2  -8  -5  939.93   49.33
  -2   8   5  959.54   60.65
   2  -8  -4  141.26   13.92
  -2   8   4  130.38   19.34
   2  -8  -3   -1.69    9.74
  -2   8   3    6.13    5.21
  -2   8   3   56.84   10.04
   2  -8  -2   41.32    7.94
  -2   8   2   46.89    9.45
  -2   8   2   42.02   11.25
   2  -8  -1  304.58   18.43
  -2   8   1  320.23   23.29
  -2   8   1  325.04   25.65
   2  -8   0    6.99    3.90
  -2   8   0   13.63    5.35
  -2   8   0   19.23    8.80
  -2   8  -1  276.67   26.24
  -2   8  -2   10.83    8.22
   2  -7  -9  226.34   20.68
  -2   7   9  205.44   22.84
  -2   7   9  239.71   24.30
   2  -7  -8  119.45   17.00
  -2   7   8  116.09   20.54
  -2   7   8  108.64   30.64
   2  -7  -7   20.54    9.51
  -2   7   7   20.10    9.64
  -2   7   7   22.73   13.03
   2  -7  -6    7.83    7.91
  -2   7   6   10.32   11.10
  -2   7   6   14.82    7.28
   2  -7  -5 3869.16  205.29
  -2   7   5 3400.40  179.72
  -2   7   5 3787.04  238.91
   2  -7  -4  196.11   27.95
  -2   7   4  192.55   23.42
   2  -7  -3 1105.19   58.44
  -2   7   3  984.57   50.84
  -2   7   3 1035.43   63.01
   2  -7  -2  550.30   33.10
  -2   7   2  540.12   34.37
  -2   7   2  550.46   37.40
   2  -7  -1  331.68   22.42
  -2   7   1  350.13   26.47
  -2   7   1  368.75   29.98
   2  -7   0  878.82   45.94
  -2   7   0  908.45   50.91
  -2   7   0 1010.19   61.92
   2  -7   1  148.26   13.14
  -2   7  -1  146.75   14.29
  -2   7  -1  191.61   23.16
   2  -7   2  844.09   44.07
  -2   7  -2 1925.74   93.43
   2  -7   3    3.56    3.43
  -2   7  -3   12.39    7.42
  -2   7  -4    8.02    6.36
   2  -6 -10  393.13   27.89
  -2   6  10  410.60   29.96
  -2   6  10  455.28   30.98
   2  -6  -9  244.92   25.29
  -2   6   9  184.34   24.97
  -2   6   9  173.22   23.46
   2  -6  -8  661.26   46.83
  -2   6   8  647.59   49.64
  -2   6   8  626.73   45.96
   2  -6  -7  782.96   49.15
  -2   6   7  777.29   51.66
  -2   6   7  788.94   56.93
   2  -6  -6   23.55   10.59
  -2   6   6   26.68   10.88
  -2   6   6   30.39   13.52
   2  -6  -5   84.78   15.02
  -2   6   5   79.44   13.28
   2  -6  -4 1123.68   59.76
  -2   6   4  973.27   50.65
  -2   6   4 1038.48   62.38
   2  -6  -3   12.98    7.40
  -2   6   3   12.47    8.77
  -2   6   3   11.52    5.33
   2  -6  -2  815.55   44.95
  -2   6   2  844.94   46.73
  -2   6   2  821.46   48.59
   2  -6  -1  187.01   16.99
  -2   6   1  200.28   21.21
  -2   6   1  194.16   18.56
  -2   6   0   14.57   10.03
  -2   6   0   15.50   10.28
  -2   6   0   10.29    8.28
  -2   6  -1 1120.83   61.62
  -2   6  -1 1022.29   52.75
  -2   6  -1 1237.94   94.89
  -2   6  -2 1047.86   59.23
  -2   6  -2 1202.15   91.63
  -2   6  -3  466.49   30.81
  -2   6  -3  526.53   38.75
   2  -6   4  502.23   28.82
  -2   6  -4  530.92   31.29
  -2   6  -4  586.97   37.43
  -2   6  -5  145.70   12.20
  -2   6  -5  151.76   14.00
   2  -5 -10    3.86    7.16
  -2   5  10    7.65    7.01
  -2   5  10    5.32    6.78
   2  -5  -9  316.29   30.86
  -2   5   9  327.26   30.64
  -2   5   9  304.17   30.12
   2  -5  -8 2247.37  117.09
  -2   5   8 1237.23   79.75
  -2   5   8 1240.63  105.08
   2  -5  -7  503.63   37.93
  -2   5   7  496.13   40.05
  -2   5   7  490.56   41.88
   2  -5  -6  998.28   58.60
  -2   5   6  998.44   60.43
  -2   5   6 1028.61   65.24
   2  -5  -5  449.79   31.51
  -2   5   5  412.06   30.09
  -2   5   5  446.36   35.14
   2  -5  -4  724.60   40.64
  -2   5   4  634.47   36.42
  -2   5   4  702.29   43.36
   2  -5  -3 1987.06  111.68
   2  -5  -3 2350.04  114.89
  -2   5   3 2480.01  125.27
  -2   5   3 2298.97  117.31
  -2   5   3 2112.28  101.03
  -2   5   3 2086.01   98.68
   2  -5  -2  208.57   17.53
   2  -5  -2  235.10   37.54
  -2   5   2  202.55   11.52
  -2   5   2  210.65   17.14
  -2   5   2  194.74   11.66
  -2   5   2  205.69   18.68
  -2   5   1 4644.84  248.22
  -2   5   1 4573.77  254.22
  -2   5   1 4564.36  245.56
  -2   5   0  407.47   23.52
  -2   5   0  416.49   28.75
  -2   5   0  414.80   41.41
  -2   5  -1   44.40   10.99
  -2   5  -1   58.58   12.91
  -2   5  -1   48.21    7.51
   2  -5   2  945.08   47.18
  -2   5  -2  939.20   52.92
  -2   5  -2  919.84   44.31
  -2   5  -2  940.95   57.16
   2  -5   3 1485.10   76.14
  -2   5  -3 1435.88   79.20
  -2   5  -3 1498.71   97.52
   2  -5   4   74.96   11.85
  -2   5  -4   58.76   13.36
  -2   5  -4   83.01   22.65
   2  -5   5  501.49   32.68
  -2   5  -5  505.88   31.27
  -2   5  -5  480.34   32.29
   2  -5   6  168.31   16.32
  -2   5  -6  156.15   14.83
  -2   5  -6  137.45   11.31
   2  -5   7    7.40    5.18
   2  -4 -10  304.99   38.03
  -2   4  10  310.70   21.29
  -2   4  10  308.36   25.57
   2  -4  -9   47.15   14.51
  -2   4   9   39.47   14.73
  -2   4   9   45.94   13.09
   2  -4  -8  250.76   28.73
  -2   4   8  239.28   38.84
  -2   4   8  227.88   28.73
   2  -4  -7  987.61   63.16
  -2   4   7  960.30   63.90
  -2   4   7 1712.76   94.39
   2  -4  -6    2.40    5.80
  -2   4   6    1.45    6.41
  -2   4   6    1.62    7.15
   2  -4  -5 1639.90   83.40
  -2   4   5 1532.71   82.06
  -2   4   5 1594.49   86.92
   2  -4  -4 2614.73  112.42
   2  -4  -4 2674.65  129.89
   2  -4  -4 2690.04  137.35
  -2   4   4 2071.74  109.70
  -2   4   4 2792.86  136.77
  -2   4   4 2572.62  145.86
  -2   4   4 2466.96  108.55
   2  -4  -3  402.27   20.45
   2  -4  -3  401.69   29.03
   2  -4  -3  377.99   24.31
  -2   4   3  377.35   25.84
  -2   4   3  394.98   24.40
  -2   4   3  342.33   18.20
  -2   4   3  317.26   21.16
   2  -4  -2 3562.13  179.24
   2  -4  -2 3453.42  166.10
   2  -4  -2 3729.65  176.19
  -2   4   2 3497.16  171.04
  -2   4   2 3478.82  159.97
  -2   4   2 3435.19  164.06
  -2   4   2 2545.40  123.63
   2  -4  -1 2918.35  162.62
   2  -4  -1 2990.89  145.40
  -2   4   1 2830.76  140.97
  -2   4   1 2789.95  120.05
  -2   4   1 2899.85  149.88
  -2   4   1 2976.76  144.66
  -2   4   1 2507.12  111.17
   2  -4   0 2443.09  117.79
   2  -4   0 2311.88  113.97
  -2   4   0 2256.80  109.08
  -2   4   0 1620.94   76.57
  -2   4   0 2171.60  104.66
   2  -4   1 3445.71  166.52
   2  -4   1 3798.20  192.36
   2  -4   1 3845.52  214.22
  -2   4  -1 3412.87  174.51
  -2   4  -1 3286.24  156.79
  -2   4  -1 3121.68  161.62
   2  -4   2  108.28    9.80
  -2   4  -2  105.51    8.43
  -2   4  -2  100.22   14.52
  -2   4  -2  114.52    9.77
  -2   4  -2  112.46   24.93
   2  -4   3 1575.61   77.08
  -2   4  -3 1618.13   86.91
  -2   4  -3 1493.70   79.16
   2  -4   4  603.78   35.55
  -2   4  -4  582.75   39.99
  -2   4  -4  552.33   34.33
   2  -4   5   55.16   12.06
  -2   4  -5   44.34   13.85
  -2   4  -5   46.88    9.53
   2  -4   6  536.68   37.04
  -2   4  -6  490.19   36.19
   2  -4   7  275.41   36.43
  -2   4  -7  258.34   33.25
   2  -4   8   48.05    9.98
  -2   4  -8   32.03    7.74
   2  -3 -10  164.24   17.12
   2  -3 -10  164.81   19.05
   2  -3  -9  608.63   42.01
  -2   3   9  634.19   37.63
  -2   3   9  611.98   44.03
   2  -3  -8  243.62   25.85
  -2   3   8  226.62   27.90
  -2   3   8  230.10   23.27
   2  -3  -7 1260.76   73.32
  -2   3   7 1156.93   67.75
  -2   3   7 1144.01   73.89
   2  -3  -6 1762.17   92.42
  -2   3   6 1750.94   98.42
  -2   3   6 1717.90   93.10
   2  -3  -5   31.21    9.77
  -2   3   5   33.16   10.47
  -2   3   5   35.05   11.60
   2  -3  -4   69.06   12.30
   2  -3  -4   68.00   12.56
   2  -3  -4   67.51    8.38
   2  -3  -4   68.91   18.20
  -2   3   4   62.42   13.18
  -2   3   4   65.24   12.30
  -2   3   4   69.74   13.01
  -2   3   4   67.23    5.67
   2  -3  -310101.98  543.77
   2  -3  -3 8904.84  518.81
   2  -3  -3 9397.97  512.47
  -2   3   3 9115.70  507.98
  -2   3   3 9368.08  511.93
  -2   3   3 7029.91  404.39
  -2   3   3 8915.45  479.60
   2  -3  -2   16.01    9.77
   2  -3  -2   16.67    9.00
   2  -3  -2   18.75    7.23
  -2   3   2   17.95    6.52
  -2   3   2   15.71    7.24
  -2   3   2   16.12    6.02
  -2   3   2   12.26    6.28
   2  -3  -1 5814.76  286.73
   2  -3  -1 5442.72  281.73
  -2   3   1 5567.11  276.99
  -2   3   1 5356.33  274.90
  -2   3   1 5563.88  264.67
  -2   3   1 5715.47  288.20
  -2   3   1 4432.79  220.05
   2  -3   0 2929.42  142.64
   2  -3   0 3061.55  143.17
  -2   3   0 2876.62  120.40
  -2   3   0 2671.62  119.59
  -2   3   0 2708.15  133.14
  -2   3   0 2924.19  119.24
  -2   3   0 2736.49  146.93
   2  -3   1 1221.53   60.87
   2  -3   1 1205.30   59.28
   2  -3   1 1097.01   43.62
  -2   3  -1 1091.46   55.66
  -2   3  -1 1080.57   34.39
  -2   3  -1 1044.62   52.22
  -2   3  -1 1077.43   44.06
  -2   3  -1 1047.41   32.90
   2  -3   2 2550.23  137.24
   2  -3   2 2481.16  110.06
  -2   3  -2 2474.62  122.59
  -2   3  -2 2365.99  100.74
  -2   3  -2 2551.09  110.52
  -2   3  -2 1941.61   98.53
   2  -3   3 3425.80  170.06
   2  -3   3 3280.50  156.43
  -2   3  -3 3310.83  169.58
  -2   3  -3 2869.76  132.42
  -2   3  -3 3300.22  148.81
  -2   3  -3 2578.63  131.72
   2  -3   4 2671.72  132.14
  -2   3  -4 2698.03  143.41
  -2   3  -4 2336.84  116.81
   2  -3   5 1567.23   81.66
  -2   3  -5 1554.34   88.89
  -2   3  -5 1320.57   72.56
   2  -3   6  343.28   29.10
  -2   3  -6  327.68   31.74
   2  -3   7  392.20   32.76
  -2   3  -7  371.50   33.37
   2  -3   8  433.00   33.79
  -2   3  -8  405.57   32.08
   2  -3   9  129.23   25.85
  -2   3  -9  102.68   20.31
   2  -2 -10  273.53   22.09
   2  -2 -10  262.73   20.07
   2  -2  -9  106.61   16.26
   2  -2  -9  107.64   26.54
   2  -2  -8 1174.19   67.53
  -2   2   8 1175.09   62.20
  -2   2   8 1197.62   73.38
   2  -2  -7 2128.79  115.13
  -2   2   7 2159.86  116.23
  -2   2   7 2078.35  120.62
   2  -2  -6 1444.47   94.76
  -2   2   6 1648.84   84.45
  -2   2   6 1341.98   79.99
   2  -2  -5 4033.03  204.61
   2  -2  -5 4058.04  229.01
  -2   2   5 4093.39  218.90
  -2   2   5 3949.23  205.91
   2  -2  -4  125.97   23.78
   2  -2  -4  111.14    6.77
   2  -2  -4  121.69   12.89
  -2   2   4  109.98    6.89
  -2   2   4  122.00   14.66
  -2   2   4  118.81   15.77
   2  -2  -3  511.06   21.81
   2  -2  -3  510.60   26.42
   2  -2  -3  540.29   30.52
  -2   2   3  435.99   12.16
  -2   2   3  476.17   13.35
  -2   2   3  503.71   30.35
  -2   2   3  557.10   32.27
  -2   2   3  514.40   23.11
   2  -2  -2 1830.05   77.53
   2  -2  -2 1752.41   77.97
  -2   2   2 1764.66   95.22
  -2   2   2 1699.00   80.24
  -2   2   2 1708.65   75.09
   2  -2  -1    6.07    7.08
  -2   2   1    2.76    6.82
  -2   2   1    3.92    5.95
  -2   2   1   14.85    5.35
  -2   2   1    3.30    5.02
   2  -2   0 5715.87  280.00
   2  -2   0 5354.52  274.64
  -2   2   0 5498.21  264.06
  -2   2   0 5106.13  259.68
  -2   2   0 5628.85  266.95
  -2   2   0 5766.76  289.85
   2  -2   1 1074.74   54.36
   2  -2   1 1107.87   51.81
  -2   2  -1 1019.38   52.35
  -2   2  -1 1044.01   40.90
  -2   2  -1 1011.34   63.24
  -2   2  -1 1013.98   38.64
   2  -2   2  423.32   40.81
  -2   2  -2  363.46   14.12
  -2   2  -2  382.29   26.96
  -2   2  -2  387.91   15.79
  -2   2  -2  357.25   22.43
  -2   2  -2  378.78   18.16
   2  -2   3 2764.13  132.32
  -2   2  -3 2737.82  135.30
  -2   2  -3 2419.86   99.03
  -2   2  -3 2288.06  107.53
  -2   2  -3 2709.33  121.95
  -2   2  -3 2679.92  115.82
   2  -2   4 6394.62  327.73
  -2   2  -4 6162.51  307.68
  -2   2  -4 6010.47  315.15
  -2   2  -4 3795.67  196.78
  -2   2  -5   59.74   11.07
  -2   2  -5   74.49   24.63
  -2   2  -5   73.48   11.56
   2  -2   6 1012.63   61.46
  -2   2  -6 1629.16   87.02
   2  -2   7  547.87   39.81
  -2   2  -7  519.30   42.19
   2  -2   8  116.73   19.16
  -2   2  -8  120.28   20.82
   2  -2   9  770.16   48.95
  -2   2  -9  738.54   47.97
   2  -1 -10  635.89   32.75
   2  -1  -9  389.72   27.51
   2  -1  -9  380.30   27.35
   2  -1  -8   -3.97   13.89
   2  -1  -8   23.41    9.68
   2  -1  -7   96.28   13.84
  -2   1   7   89.27   10.72
  -2   1   7   89.93   18.77
   2  -1  -6 4226.10  222.23
  -2   1   6 4191.84  233.63
  -2   1   6 4161.00  218.00
   2  -1  -5    7.63    6.76
   2  -1  -5    5.78    5.48
  -2   1   5    3.97    2.49
  -2   1   5    2.94    8.93
  -2   1   5    5.05    2.72
  -2   1   5    3.32    4.91
  -2   1   5    7.52    7.20
   2  -1  -4 2754.45  126.34
   2  -1  -4 2742.88  133.61
   2  -1  -4 2592.39  112.63
   2  -1  -4 2746.01  127.01
  -2   1   4 2206.72   94.36
  -2   1   4 2684.22  128.34
  -2   1   4 2639.88  111.04
  -2   1   4 2780.15  137.72
  -2   1   4 2580.17  110.48
   2  -1  -3 5748.29  288.72
   2  -1  -3 5550.73  266.92
   2  -1  -3 5806.93  285.98
   2  -1  -3 5842.63  282.08
  -2   1   3 5646.79  270.22
  -2   1   3 3955.09  184.04
  -2   1   3 5478.84  248.18
  -2   1   3 5448.95  276.01
  -2   1   3 5555.14  284.27
   2  -1  -2 1343.74   57.89
   2  -1  -2 1432.33   62.62
   2  -1  -2 1436.90   66.25
  -2   1   2 1440.54   47.52
  -2   1   2 1382.62   67.64
  -2   1   2 1387.39   66.63
  -2   1   2 1396.29   61.74
   2  -1  -121874.75 1413.31
   2  -1  -120638.46 1362.75
   2  -1  -120286.51 1291.98
  -2   1   121081.77 1356.58
  -2   1   120750.54 1385.08
  -2   1   120103.08 1299.83
   2  -1   023354.51 1530.68
  -2   1   022688.69 1490.21
  -2   1   022115.24 1450.55
  -2   1   023053.10 1516.94
  -2   1   022173.99 1434.43
  -2   1   021744.82 1333.16
   2  -1   173751.10 6467.68
  -2   1  -166742.90 5900.24
  -2   1  -170443.11 6201.16
  -2   1  -163318.27 5521.06
  -2   1  -163880.69 5606.33
   2  -1   2 3348.55  180.04
  -2   1  -2 3430.33  140.41
  -2   1  -2 3409.12  167.67
  -2   1  -2 3762.98  147.53
  -2   1  -2 3485.56  167.32
  -2   1  -2 3443.83  159.92
   2  -1   3   12.24    7.26
  -2   1  -3   11.23    1.28
  -2   1  -3   13.97    7.74
  -2   1  -3    9.59    1.96
  -2   1  -3    9.72    8.07
  -2   1  -3   10.17    5.37
   2  -1   4 1556.72   74.41
  -2   1  -4 1473.98   73.69
  -2   1  -4 1401.78   64.27
  -2   1  -4 1340.26   48.45
  -2   1  -4 1350.74   52.73
  -2   1  -4 1426.52   65.64
   2  -1   5 1409.86   70.88
  -2   1  -5 1284.63   52.87
  -2   1  -5 1386.36   74.16
  -2   1  -5 1428.72   69.30
  -2   1  -6  169.78   21.75
  -2   1  -6  186.04   19.32
  -2   1  -7  821.09   57.18
  -2   1  -7  885.94   54.78
   2  -1   8   33.19   13.23
  -2   1  -8   26.78   24.32
   2  -1   9  390.78   32.69
  -2   1  -9  372.01   35.45
   2  -1  10  166.97   19.46
  -2   1 -10  166.87   20.41
   2   0 -10  312.06   16.34
   2   0  -9  204.57   15.67
   2   0  -9  235.23   19.05
   2   0  -8 1428.49   75.87
   2   0  -8 1413.14   77.83
   2   0  -7  236.06   19.06
   2   0  -7  222.94   22.77
  -2   0   7  215.32   16.00
   2   0  -6  222.14   17.05
  -2   0   6  233.77   24.93
  -2   0   6  208.58   14.88
   2   0  -5 2269.44  106.34
   2   0  -5 2381.76  111.29
   2   0  -5 2111.11   94.56
  -2   0   5 2114.44   98.69
  -2   0   5 2313.17  107.00
  -2   0   5 2315.20  120.46
  -2   0   5 2174.66  102.12
  -2   0   5 2237.78  103.66
   2   0  -4  159.35   11.72
   2   0  -4  148.26   16.76
   2   0  -4  145.17   15.17
   2   0  -4  172.90   12.86
   2   0  -4  156.79   11.86
  -2   0   4  150.62   14.49
  -2   0   4  145.11   10.16
  -2   0   4  159.15   18.62
  -2   0   4  160.80   12.49
  -2   0   4  144.83   10.68
   2   0  -3 7763.88  400.32
   2   0  -3 7141.44  372.00
   2   0  -3 7069.23  398.39
   2   0  -3 7225.58  368.49
  -2   0   3 7303.98  395.15
  -2   0   3 6470.45  332.45
  -2   0   3 7366.19  376.67
  -2   0   3 6852.27  346.47
  -2   0   3 7245.99  383.27
  -2   0   3 7279.66  370.46
   2   0  -2  752.38   51.26
   2   0  -2  642.57   26.72
   2   0  -2  623.70   32.49
  -2   0   2  606.60   24.66
  -2   0   2  652.05   36.46
  -2   0   2  668.31   32.89
  -2   0   2  632.66   24.50
  -2   0   2  638.02   34.65
   2   0  -1  831.17   57.22
   2   0  -1  806.62   40.56
  -2   0   1  817.31   29.10
  -2   0   1  786.74   53.04
  -2   0   1  781.80   28.91
  -2   0   1  799.81   39.56
  -2   0   1  811.71   42.38
   2   0   0  117.53   22.76
   2   0   0  118.85   14.18
  -2   0   0  111.73    9.62
  -2   0   0  117.42    8.82
  -2   0   0  114.47   15.00
  -2   0   0  116.47   13.95
  -2   0   0  118.66    7.46
  -2   0  -132982.64 2359.83
  -2   0  -133847.67 2405.53
  -2   0  -133899.84 2444.04
  -2   0  -131662.54 2288.99
  -2   0  -2   34.15    8.48
  -2   0  -2   40.32    6.90
  -2   0  -2   34.28   13.65
  -2   0  -2   36.74    7.41
  -2   0  -3 8934.01  468.10
  -2   0  -3 8999.72  496.64
  -2   0  -3 9665.90  502.28
  -2   0  -3 9805.40  533.09
  -2   0  -4 4703.68  238.25
  -2   0  -4 4228.70  191.93
  -2   0  -4 5066.93  226.65
  -2   0  -4 5126.39  252.47
  -2   0  -4 4695.05  203.83
   2   0   5  100.20   14.87
  -2   0  -5  100.53   14.35
  -2   0  -5   92.53   20.71
  -2   0  -6 4092.50  219.02
  -2   0  -6 3952.71  205.21
  -2   0  -7  267.77   27.65
  -2   0  -7  271.46   24.78
  -2   0  -8 1720.32  103.72
  -2   0  -8 1814.12  102.67
  -2   0  -9  102.99   21.01
  -2   0  -9  109.71   18.32
   2   0  10    0.37    4.00
  -2   0 -10   -0.22    4.68
   2   0  11  140.80   14.92
  -2   0 -11  125.46   16.48
   2   1  -9  418.65   23.62
  -2  -1   9  345.74   17.57
   2   1  -8  209.88   19.86
  -2  -1   8  200.90   16.40
   2   1  -7  946.85   55.47
   2   1  -7  919.31   48.04
  -2  -1   7  928.39   50.45
   2   1  -6  335.67   21.03
   2   1  -6  329.69   27.28
  -2  -1   6  319.57   23.39
   2   1  -5  997.05   47.58
   2   1  -5  989.54   49.07
   2   1  -5 1024.30   55.70
  -2  -1   5  991.57   50.46
   2   1  -4 3699.18  188.74
   2   1  -4 3367.81  156.55
   2   1  -4 2865.91  149.54
   2   1  -4 3380.31  152.09
   2   1  -4 3444.82  165.08
   2   1  -4 3646.36  179.25
  -2  -1   4 3139.19  154.17
  -2  -1   4 3047.26  140.46
  -2  -1   4 3425.87  162.87
  -2  -1   4 3312.63  154.21
   2   1  -3 2730.42  120.29
   2   1  -3 3053.12  152.07
   2   1  -3 3130.18  149.17
   2   1  -3 3022.50  133.78
   2   1  -3 2969.45  139.79
  -2  -1   3 2932.86  133.34
  -2  -1   3 2794.56  130.95
  -2  -1   3 3057.71  152.04
  -2  -1   3 2778.32  127.03
  -2  -1   3 2721.03  118.32
   2   1  -214569.25  883.39
   2   1  -215108.70  902.35
   2   1  -215845.20  938.32
   2   1  -214130.87  856.51
  -2  -1   213728.30  790.59
  -2  -1   214623.20  890.54
  -2  -1   213480.12  807.29
  -2  -1   213746.87  823.88
  -2  -1   213593.74  806.18
   2   1  -1 7477.69  389.88
   2   1  -1 7587.46  402.87
  -2  -1   1 7582.74  395.29
  -2  -1   1 7637.85  394.16
  -2  -1   1 7431.42  408.07
  -2  -1   1 7751.50  392.91
   2   1   0 1466.65   60.39
   2   1   0 1572.40   73.52
   2   1   0 1547.48   72.25
  -2  -1   0 1444.06   62.90
  -2  -1   0 1508.80   68.92
  -2  -1   0 1492.84   69.19
   2   1   111823.91  675.79
  -2  -1  -111264.21  629.98
  -2  -1  -111765.46  661.05
  -2  -1  -111762.33  665.02
   2   1   2 8995.03  487.21
  -2  -1  -2 9037.64  484.87
  -2  -1  -2 8772.39  449.07
  -2  -1  -2 9112.54  486.25
  -2  -1  -2 9156.93  446.73
  -2  -1  -2 9544.44  507.30
  -2  -1  -3  432.55   22.15
  -2  -1  -3  489.84   24.87
  -2  -1  -3  467.64   13.95
  -2  -1  -3  506.86   30.36
  -2  -1  -3  482.17   17.64
   2   1   4 4833.00  246.31
  -2  -1  -4 4307.22  227.81
  -2  -1  -4 4532.92  198.10
  -2  -1  -4 4778.18  225.45
  -2  -1  -4 4747.36  235.66
   2   1   5   94.19   16.09
  -2  -1  -5   90.30    8.68
  -2  -1  -5  108.25    5.11
  -2  -1  -5   94.60   14.00
  -2  -1  -5  113.75   12.75
   2   1   6  267.08   25.02
   2   1   6  250.23   13.12
  -2  -1  -6  251.65   21.32
  -2  -1  -6  260.44   21.27
  -2  -1  -7  919.44   54.40
  -2  -1  -7  901.31   50.43
  -2  -1  -8  950.95   61.69
  -2  -1  -8  967.41   58.06
  -2  -1  -9  306.24   28.50
  -2  -1  -9  292.23   31.23
  -2  -1 -10  423.63   36.76
  -2  -1 -10  447.05   33.19
   2   1  11  158.34   16.70
  -2  -1 -11  157.25   19.81
   2   2  -8  530.32   31.64
  -2  -2   8  482.59   28.54
   2   2  -7   70.96   14.53
  -2  -2   7   79.74   12.84
   2   2  -6  798.46   48.68
  -2  -2   6  772.38   57.62
   2   2  -5 1636.25   80.61
   2   2  -5 1580.07   85.03
  -2  -2   5 1542.39   82.15
   2   2  -4  142.18   17.60
   2   2  -4  143.43   15.97
  -2  -2   4  140.45   14.90
   2   2  -3 2813.10  143.60
   2   2  -3 2571.94  111.21
   2   2  -3 2639.47  128.64
   2   2  -3 2767.93  147.79
   2   2  -3 2675.51  112.88
   2   2  -3 2733.04  132.27
  -2  -2   3 2575.94  126.30
  -2  -2   3 2211.26   94.90
  -2  -2   3 2734.81  128.98
  -2  -2   3 2503.04  108.16
   2   2  -2 9208.80  484.90
   2   2  -2 9617.29  540.14
   2   2  -2 8937.43  488.44
   2   2  -2 9236.05  518.24
   2   2  -2 8751.91  488.09
  -2  -2   2 8344.82  477.44
  -2  -2   2 8293.70  442.40
  -2  -2   2 8683.35  472.71
  -2  -2   2 7181.28  369.10
   2   2  -1 2290.03  105.43
   2   2  -1 2451.66  107.45
   2   2  -1 2492.94  120.43
   2   2  -1 2279.64  127.84
  -2  -2   1 2340.29  110.58
  -2  -2   1 2302.89  100.55
  -2  -2   1 2457.82  111.03
  -2  -2   1 2253.78   81.56
   2   2   010224.57  565.43
   2   2   010578.67  592.66
   2   2   010789.07  602.84
   2   2   010027.62  591.76
  -2  -2   010730.68  594.62
  -2  -2   010307.49  580.94
   2   2   1 1276.87   53.35
   2   2   1 1399.75   83.97
  -2  -2  -1 1211.10   56.32
  -2  -2  -1 1345.19   82.09
   2   2   2 4955.10  245.39
   2   2   2 4851.84  242.05
  -2  -2  -2 4839.37  235.70
  -2  -2  -2 4817.32  219.65
  -2  -2  -2 4907.62  245.91
   2   2   3 3870.96  208.11
   2   2   3 3521.46  173.14
  -2  -2  -3 4112.50  192.02
  -2  -2  -3 3543.98  154.73
  -2  -2  -3 3958.08  175.04
  -2  -2  -3 3932.61  190.12
   2   2   4  507.17   32.59
  -2  -2  -4  525.78   29.90
  -2  -2  -4  517.29   19.00
  -2  -2  -4  553.84   33.10
  -2  -2  -4  444.36   21.33
   2   2   5 3532.98  178.50
  -2  -2  -5 3593.59  170.10
  -2  -2  -5 3271.44  140.11
  -2  -2  -5 3445.80  186.72
  -2  -2  -5 3152.18  150.77
   2   2   6  964.85   45.13
   2   2   6  956.71   54.10
  -2  -2  -6  996.21   52.43
  -2  -2  -6  832.66   43.23
   2   2   7    3.64    3.79
  -2  -2  -7    6.02    9.55
  -2  -2  -7    1.20    6.27
  -2  -2  -8  605.75   53.16
  -2  -2  -8  625.13   41.79
  -2  -2  -9  500.90   39.76
  -2  -2  -9  500.09   35.61
  -2  -2 -10   31.42   12.57
  -2  -2 -10   26.81   11.07
   2   2  11  299.92   23.32
  -2  -2 -11  299.49   27.03
   2   3  -8  357.34   20.35
  -2  -3   8  339.42   19.64
   2   3  -7  752.64   44.17
  -2  -3   7  737.48   44.28
   2   3  -6   -1.28    6.46
  -2  -3   6   -4.68    6.45
   2   3  -5  653.60   36.85
   2   3  -5  657.13   57.20
  -2  -3   5  681.32   45.17
   2   3  -4 2047.14  106.36
   2   3  -4 1922.03  104.10
  -2  -3   4 1964.69  107.87
   2   3  -3    9.90    9.45
   2   3  -3   10.89    7.71
  -2  -3   3   12.10    8.47
   2   3  -2 2895.94  165.04
   2   3  -2 3229.73  161.39
   2   3  -2 3236.08  169.56
   2   3  -2 3295.39  212.83
  -2  -3   2 3176.93  162.27
  -2  -3   2 3108.38  153.35
   2   3  -1 1361.97   72.56
   2   3  -1 1863.10  100.19
   2   3  -1 1861.13   91.98
   2   3  -1 1895.49   78.48
   2   3  -1 1923.54  107.86
  -2  -3   1 1691.97   69.59
  -2  -3   1 1823.88   89.08
  -2  -3   1 1950.33   89.70
   2   3   0   55.03   10.96
   2   3   0   94.53   11.59
   2   3   0   94.44    9.45
   2   3   0   94.52   18.69
   2   3   0   99.86   13.13
  -2  -3   0   89.60    8.05
  -2  -3   0   84.41   13.32
   2   3   1 2562.16  117.21
   2   3   1 2636.26  126.42
   2   3   1 2629.32  135.49
   2   3   1 2577.64  128.25
  -2  -3  -1 2596.67  117.40
  -2  -3  -1 2558.30  125.89
   2   3   213672.33  818.07
   2   3   214097.33  873.45
   2   3   212824.51  771.77
   2   3   213790.41  832.63
  -2  -3  -213902.93  827.05
  -2  -3  -213168.33  778.18
  -2  -3  -214323.87  868.82
   2   3   3 2547.31  123.25
   2   3   3 2363.28  102.22
   2   3   3 2386.68  114.76
  -2  -3  -3 2341.22   90.74
  -2  -3  -3 2389.89  102.49
  -2  -3  -3 2035.10   79.56
  -2  -3  -3 2511.53  122.98
  -2  -3  -3 2359.37  111.36
   2   3   4 5208.88  266.49
   2   3   4 4910.97  233.55
   2   3   4 4401.52  228.88
  -2  -3  -4 5124.01  255.65
  -2  -3  -4 4960.71  232.55
  -2  -3  -4 4990.45  254.98
  -2  -3  -4 4312.24  203.97
   2   3   5 1184.68   77.89
   2   3   5 1092.03   45.60
  -2  -3  -5 1129.32   45.56
  -2  -3  -5 1221.33   62.62
  -2  -3  -5 1240.87   63.21
  -2  -3  -5 1086.56   47.78
   2   3   6 1115.24   60.40
   2   3   6  979.82   42.09
  -2  -3  -6 1015.40   41.41
  -2  -3  -6 1067.52   55.62
  -2  -3  -6  971.33   45.94
   2   3   7 1212.71   61.17
  -2  -3  -7 1081.72   55.43
  -2  -3  -7 1254.80   67.38
   2   3   8  268.39   20.68
  -2  -3  -8  275.19   24.66
  -2  -3  -8  279.35   32.46
   2   3   9  909.68   54.18
  -2  -3  -9  872.49   52.83
  -2  -3  -9  855.45   50.77
  -2  -3 -10   46.17   12.62
  -2  -3 -10   37.92   11.09
  -2  -3 -11    8.35    7.71
  -2  -3 -11    9.00    6.42
   2   4  -7   65.67    9.61
  -2  -4   7   67.15   10.64
   2   4  -6 1158.63   63.70
   2   4  -6 1096.25   51.28
  -2  -4   6 1119.89   65.23
   2   4  -5   34.69   10.66
   2   4  -5    2.28   12.40
   2   4  -4  502.76   34.74
   2   4  -4  497.08   36.86
  -2  -4   4  459.92   37.41
   2   4  -3 1699.12   93.81
   2   4  -3 1613.74   89.88
  -2  -4   3 1531.68   88.74
   2   4  -2  719.93   49.42
   2   4  -2  696.78   43.26
  -2  -4   2  658.09   43.63
   2   4  -1 2980.05  152.44
   2   4  -1 3040.41  161.28
  -2  -4   1 2814.41  149.78
   2   4   0 3625.88  181.67
   2   4   0 3423.24  181.64
   2   4   0 3603.08  167.95
  -2  -4   0 3437.43  157.75
  -2  -4   0 3468.01  182.06
  -2  -4   0 3657.26  182.92
   2   4   1    4.82    5.88
   2   4   1    5.90    6.98
   2   4   1    6.80    7.14
   2   4   1   10.05    4.44
  -2  -4  -1    8.27    7.15
  -2  -4  -1    8.55    7.69
   2   4   2  438.21   28.98
   2   4   2  423.06   24.27
   2   4   2  417.30   33.45
   2   4   2  425.32   24.77
  -2  -4  -2  422.97   30.58
  -2  -4  -2  427.10   24.90
  -2  -4  -2  401.93   23.46
   2   4   3 5286.08  293.56
   2   4   3 5125.25  249.49
   2   4   3 5332.94  278.27
   2   4   3 5053.29  256.57
  -2  -4  -3 5514.94  282.49
  -2  -4  -3 5121.28  256.87
  -2  -4  -3 5309.59  282.50
   2   4   4   55.24   12.30
   2   4   4   51.87   11.97
   2   4   4   54.75   11.83
  -2  -4  -4   51.26    7.18
  -2  -4  -4   57.92   19.45
  -2  -4  -4   55.27   12.87
   2   4   5 1622.90   83.16
   2   4   5 1525.79   69.03
   2   4   5 1550.99   79.95
  -2  -4  -5 1510.18   72.74
  -2  -4  -5 1549.49   65.45
  -2  -4  -5 1763.47   90.52
  -2  -4  -5 1629.04   82.46
  -2  -4  -5 1399.60   60.10
   2   4   6  582.47   33.33
  -2  -4  -6  621.36   29.63
  -2  -4  -6  599.52   27.03
  -2  -4  -6  656.22   39.06
  -2  -4  -6  566.05   27.47
   2   4   7    3.21    7.37
  -2  -4  -7    6.95    6.62
  -2  -4  -7    3.84    4.19
   2   4   8  938.32   54.15
  -2  -4  -8  957.76   55.15
  -2  -4  -8  783.37   43.07
   2   4   9  435.66   29.73
  -2  -4  -9  433.49   31.49
  -2  -4  -9  425.12   29.09
   2   4  10  322.11   21.19
  -2  -4 -10  317.14   24.72
  -2  -4 -10  331.27   24.40
  -2  -4 -11  304.52   22.44
  -2  -4 -11  318.83   20.19
   2   5  -6    5.76    8.63
  -2  -5   6    6.50    6.31
   2   5  -5  813.42   42.37
   2   5  -5  768.84   47.08
  -2  -5   5  767.10   50.74
   2   5  -4  488.03   36.20
   2   5  -4  520.57   49.19
  -2  -5   4  466.48   38.26
   2   5  -3  116.16   18.81
   2   5  -3  106.10   18.37
  -2  -5   3   85.23   20.80
   2   5  -2 1531.47   89.99
   2   5  -2 1420.13   82.18
  -2  -5   2 1517.58   92.21
   2   5  -1 4880.49  273.83
   2   5  -1 4588.48  256.06
  -2  -5   1 4427.77  254.62
   2   5   0 2985.74  157.75
   2   5   0 2701.92  143.42
  -2  -5   0 2680.23  150.20
   2   5   1 3157.04  177.55
   2   5   1 3456.22  176.45
   2   5   1 3192.09  151.87
  -2  -5  -1 3114.20  145.34
  -2  -5  -1 3330.60  201.05
   2   5   2  285.09   19.60
   2   5   2  283.25   21.27
   2   5   2  265.21   23.79
  -2  -5  -2  269.39   17.78
  -2  -5  -2  281.31   25.74
   2   5   3 1224.90   54.23
   2   5   3 1231.19   61.54
   2   5   3 1346.35   66.16
  -2  -5  -3 1321.94   64.47
  -2  -5  -3 1274.29   62.97
  -2  -5  -3 1279.36   69.99
   2   5   4  994.55   49.95
  -2  -5  -4 1047.20   57.22
  -2  -5  -4 1056.45   51.10
  -2  -5  -4 1041.73   74.91
   2   5   5   35.38    8.04
  -2  -5  -5   36.41   13.36
  -2  -5  -5   32.33   10.92
   2   5   6 2292.97  114.68
   2   5   6 2590.54  138.62
  -2  -5  -6 2507.37  132.12
   2   5   7  317.27   30.67
   2   5   7  302.46   19.35
  -2  -5  -7  300.13   36.07
   2   5   8  132.40   21.65
  -2  -5  -8  143.90   17.57
   2   5   9  171.15   20.89
  -2  -5  -9  145.45   13.41
  -2  -5  -9  168.30   17.30
   2   5  10  468.68   29.65
  -2  -5 -10  424.91   26.61
  -2  -5 -10  385.96   23.95
  -2  -5 -11   -0.35    2.75
  -2  -5 -11   -1.18    2.67
   2   6  -5    4.88    3.89
   2   6  -5    5.24    5.10
  -2  -6   5    4.84    6.62
   2   6  -4  903.58   49.94
   2   6  -4  841.61   63.71
  -2  -6   4  852.16   72.73
   2   6  -3  799.82   49.61
   2   6  -3  702.68   62.56
  -2  -6   3  821.15   56.61
   2   6  -2  206.32   37.32
   2   6  -2  162.43   21.66
  -2  -6   2  161.06   25.70
   2   6  -1    5.08    9.31
   2   6  -1    8.10   13.44
  -2  -6   1    5.06    9.17
   2   6   0 2495.10  140.27
   2   6   0 2445.79  156.02
  -2  -6   0 2470.45  166.48
   2   6   1    2.88    6.92
   2   6   1    5.08    6.93
  -2  -6  -1    3.49    8.08
   2   6   2  896.03   47.10
   2   6   2  866.37   51.75
  -2  -6  -2  901.72   56.20
   2   6   3  983.94   52.05
   2   6   3  994.85   55.06
  -2  -6  -3 1010.37   60.90
   2   6   4   -1.00    6.82
   2   6   4   16.77    7.02
  -2  -6  -4   24.08   14.81
   2   6   5 1316.66   73.52
   2   6   5 1317.84   70.45
  -2  -6  -5 1274.30   72.79
   2   6   6 1634.90   92.49
   2   6   6 1515.46   79.47
  -2  -6  -6 1542.35   85.25
   2   6   7 2495.85  140.82
   2   6   7 2274.65  129.17
  -2  -6  -7 2439.14  145.14
   2   6   8  894.32   59.50
  -2  -6  -8  832.37   47.66
   2   6   9   55.14   15.11
  -2  -6  -9   39.66    9.59
   2   6  10  267.21   23.23
  -2  -6 -10  219.51   15.55
   2   6  11  197.24   15.60
   2   7  -3  216.15   22.11
   2   7  -3  203.66   19.45
  -2  -7   3  222.05   23.80
   2   7  -2  737.66   46.97
   2   7  -2  670.03   44.09
  -2  -7   2  700.03   51.00
   2   7  -1  168.37   22.70
   2   7  -1  200.11   22.62
  -2  -7   1  196.93   26.28
   2   7   0  576.24   38.31
   2   7   0  514.75   40.12
  -2  -7   0  543.95   44.33
   2   7   1  911.15   51.38
   2   7   1  847.39   55.86
  -2  -7  -1  899.52   60.17
   2   7   2   -0.31    3.64
   2   7   2   -4.19    5.79
  -2  -7  -2    0.84    6.06
   2   7   3 1364.43   64.70
   2   7   3 1402.89   79.48
  -2  -7  -3 1464.54   84.90
   2   7   4   67.55    9.32
   2   7   4   56.96   23.96
  -2  -7  -4   58.87   22.42
   2   7   5   55.25   11.54
   2   7   5   63.79   13.27
  -2  -7  -5   61.20   13.29
   2   7   6  328.09   27.66
   2   7   6  308.11   24.52
  -2  -7  -6  309.42   25.52
   2   7   7  191.31   23.09
   2   7   7  166.92   24.56
  -2  -7  -7  171.80   25.94
   2   7   8   -1.44    6.97
   2   7   8   -0.14    3.56
  -2  -7  -8    4.76    4.05
   2   7   9  179.12   35.66
  -2  -7  -9  151.68   12.86
   2   7  10  186.35   19.86
   2   8  -1  204.30   19.19
   2   8  -1  208.14   20.46
  -2  -8   1  198.77   21.24
   2   8   0  248.12   21.20
   2   8   0  232.59   24.23
  -2  -8   0  250.03   24.64
   2   8   1  163.56   15.84
   2   8   1  151.65   20.71
  -2  -8  -1  164.24   20.50
   2   8   2  407.53   23.83
   2   8   2  420.63   33.37
  -2  -8  -2  417.13   32.32
   2   8   3  226.29   39.07
  -2  -8  -3  228.57   34.17
   2   8   4  572.69   42.82
  -2  -8  -4  535.16   36.03
   2   8   5  340.54   21.34
   2   8   5  345.00   28.92
  -2  -8  -5  353.52   26.14
   2   8   6   18.44    7.67
   2   8   6   22.68    8.83
  -2  -8  -6   19.80    7.61
   2   8   7  287.36   23.16
   2   8   7  257.00   28.48
  -2  -8  -7  239.58   16.80
   2   8   8  283.67   37.70
   2   8   9    0.51    4.33
   2   9   1  338.35   24.98
  -2  -9  -1  294.90   18.81
   2   9   2   20.02    9.58
  -2  -9  -2   17.91    6.67
   2   9   3  331.51   27.04
  -2  -9  -3  308.21   20.32
   2   9   4  143.30   17.94
  -2  -9  -4  131.88   12.93
   2   9   5   75.84   12.84
   2   9   6  218.71   25.77
   2   9   7   71.35    7.05
   2   9   8  295.49   16.18
  -3   9   5   40.23    7.42
   3  -9  -4   38.81    5.61
  -3   9   4   39.74    6.90
   3  -9  -3  133.26    8.40
   3  -8  -7   28.50   15.36
  -3   8   7   21.22   17.49
  -3   8   7   36.52    6.31
   3  -8  -6  135.13   14.81
  -3   8   6  130.16   17.43
   3  -8  -5  253.72   21.13
  -3   8   5  250.67   23.09
   3  -8  -4    2.82    5.64
  -3   8   4    4.45    5.78
   3  -8  -3  421.94   37.46
  -3   8   3  362.72   25.21
  -3   8   3  344.24   20.09
  -3   8   2  118.22   18.85
  -3   8   2  130.93   20.51
   3  -8  -1    9.50    5.71
  -3   8   1    9.25    7.06
   3  -8   0  270.07   17.48
  -3   8   0  294.30   24.45
   3  -8   1  105.39    9.25
  -3   8  -1  132.31   16.56
  -3   8  -2   39.28   10.41
   3  -7  -8  259.84   23.67
  -3   7   8  235.74   24.46
  -3   7   8  265.91   23.80
   3  -7  -7  201.22   21.19
  -3   7   7  200.25   24.55
  -3   7   7  215.79   21.25
   3  -7  -6   63.76   13.77
  -3   7   6   69.67   16.18
  -3   7   6   59.21   11.97
   3  -7  -5  539.40   36.80
  -3   7   5  505.69   38.36
  -3   7   5  504.94   30.42
   3  -7  -4  447.22   45.58
  -3   7   4  402.85   32.03
   3  -7  -3   18.03    9.06
  -3   7   3   16.19   13.08
  -3   7   3   13.71    9.97
   3  -7  -2  299.75   24.26
  -3   7   2  271.44   22.25
  -3   7   2  262.95   21.28
   3  -7  -1  724.19   42.44
  -3   7   1  660.23   37.07
  -3   7   1  748.21   46.10
   3  -7   0  105.73   14.10
  -3   7   0  103.35   18.39
   3  -7   1  544.98   33.00
  -3   7  -1  539.81   42.08
   3  -7   2  412.40   27.62
  -3   7  -2  397.13   34.15
   3  -7   3    1.91    3.46
  -3   7  -3    0.29    5.52
   3  -7   4   64.44    5.83
  -3   7  -4   65.75   10.38
   3  -6  -9  118.70   16.65
  -3   6   9  106.45   17.66
  -3   6   9  118.19   17.54
   3  -6  -8  366.29   32.24
  -3   6   8  348.75   33.21
  -3   6   8  383.99   34.76
   3  -6  -7   48.86   13.79
  -3   6   7   51.40   16.20
  -3   6   7   43.75   15.38
   3  -6  -6  722.82   48.00
  -3   6   6  716.67   52.12
  -3   6   6  774.94   50.92
   3  -6  -5  376.57   31.39
  -3   6   5  365.43   32.17
  -3   6   5  361.06   41.16
   3  -6  -4   44.00   12.16
  -3   6   4   28.45   13.59
  -3   6   4   37.98    8.99
   3  -6  -3 1667.40   88.63
  -3   6   3 1500.36   94.38
  -3   6   3 1480.53   84.73
   3  -6  -2  526.63   35.49
  -3   6   2  473.98   30.31
  -3   6   2  505.62   32.18
   3  -6  -1   98.97   15.35
  -3   6   1  106.83   16.27
  -3   6   1   94.96   11.35
  -3   6   0 1305.51   77.77
  -3   6  -1  230.22   27.38
  -3   6  -1  251.93   26.56
  -3   6  -2   49.63   14.32
  -3   6  -2   55.13   15.20
  -3   6  -3 1065.72   63.53
  -3   6  -3 1100.52   65.76
  -3   6  -4   12.98    7.99
  -3   6  -4   11.09    7.92
  -3   6  -5  173.69   14.31
  -3   6  -5  185.50   16.22
  -3   5   9   30.96   12.28
  -3   5   9   29.09   12.02
   3  -5  -8  587.86   43.24
  -3   5   8  546.46   45.03
  -3   5   8  587.97   46.79
   3  -5  -7  838.88   54.89
  -3   5   7  860.85   80.73
  -3   5   7  912.92   63.31
   3  -5  -6   23.14   11.35
  -3   5   6   26.77   12.92
  -3   5   6   18.52   21.44
   3  -5  -5 1180.14   67.24
  -3   5   5 1135.95   68.51
  -3   5   5  986.71   78.64
   3  -5  -4 1663.58   87.87
  -3   5   4 1642.82   89.95
  -3   5   4 1401.42   89.92
   3  -5  -3   95.83   15.24
  -3   5   3   97.61   21.09
  -3   5   3   85.18   18.18
  -3   5   3   92.95   15.99
   3  -5  -2 1295.37   68.23
  -3   5   2 1222.89   63.29
  -3   5   2 1222.28   62.49
  -3   5   2 1276.97   58.92
  -3   5   1  570.08   30.78
  -3   5   1  640.00   39.15
  -3   5   0   16.81   10.33
  -3   5   0   11.91    4.98
  -3   5   0   26.28    9.69
  -3   5  -1  686.16   45.28
  -3   5  -1  649.70   46.12
  -3   5  -2  643.32   44.28
  -3   5  -2  642.63   45.41
  -3   5  -3   50.72   14.32
  -3   5  -3   58.06   14.30
  -3   5  -4  795.48   51.55
  -3   5  -4  815.18   49.09
  -3   5  -5  166.91   20.12
  -3   5  -5  171.19   15.78
  -3   5  -6   79.28   12.59
  -3   5  -6   57.04    6.91
  -3   5  -7  355.09   21.14
   3  -4 -10   43.16    9.46
   3  -4 -10   50.82   10.70
   3  -4  -9  601.30   38.63
  -3   4   9  606.15   43.10
  -3   4   9  631.91   41.65
   3  -4  -8  347.38   32.63
  -3   4   8  356.96   36.16
  -3   4   8  376.60   34.08
   3  -4  -7  373.52   43.48
  -3   4   7  291.79   33.29
  -3   4   7  336.06   35.82
   3  -4  -6 1522.06   84.19
  -3   4   6 1551.50   94.84
  -3   4   6 1579.93  120.49
   3  -4  -5   31.80   10.51
  -3   4   5   28.65   12.22
  -3   4   5   29.22   12.30
   3  -4  -4  479.23   23.14
   3  -4  -4  483.27   42.87
  -3   4   4  474.92   32.39
  -3   4   4  311.32   29.57
  -3   4   4  470.10   23.39
   3  -4  -3 1572.26   77.93
   3  -4  -3 1675.70   77.02
  -3   4   3 1568.66   80.04
  -3   4   3 1334.18   82.76
  -3   4   3 1493.52   71.02
   3  -4  -2  258.84   20.74
   3  -4  -2  291.01   21.26
  -3   4   2  252.58   18.84
  -3   4   2  266.76   17.75
  -3   4   2  241.45   17.68
  -3   4   2  253.55   24.67
   3  -4  -1  651.76   41.83
   3  -4  -1  712.84   40.50
  -3   4   1  645.00   28.28
  -3   4   1  701.96   43.82
  -3   4   1  643.63   37.36
  -3   4   1  608.14   30.54
  -3   4   1  633.13   29.17
  -3   4   0 3495.49  182.37
  -3   4   0 3470.28  179.64
  -3   4   0 3138.90  150.45
  -3   4  -1   14.31    8.98
  -3   4  -1   15.46    9.34
  -3   4  -2  905.46   55.27
  -3   4  -2 1089.94   60.11
  -3   4  -3 1312.27   91.44
  -3   4  -3 1200.94   68.27
   3  -4   4   68.44    9.10
  -3   4  -4   74.21   25.93
  -3   4  -4   66.84   12.50
   3  -4   5 1016.93   53.03
  -3   4  -5 1001.64   63.91
  -3   4  -5  936.24   50.61
   3  -4   6  480.18   30.24
  -3   4  -6  477.23   53.53
   3  -4   7   79.36   18.27
  -3   4  -7   70.31   14.37
  -3   4  -8  231.50   18.30
   3  -3 -10  747.68   39.74
  -3   3   9   -2.61    6.28
  -3   3   9   -0.91    3.96
   3  -3  -8  781.72   47.90
  -3   3   8  733.85   53.31
  -3   3   8  768.55   48.63
   3  -3  -7 1226.61   70.31
  -3   3   7 1158.68   76.43
  -3   3   7 1173.73   75.01
   3  -3  -6  504.48   34.53
  -3   3   6  501.38   42.66
  -3   3   6  520.52   43.05
   3  -3  -5 1731.59   88.47
  -3   3   5 1674.81  111.34
  -3   3   5 1742.72   96.52
   3  -3  -4 1487.22   64.38
   3  -3  -4 1492.93   73.53
  -3   3   4 1308.32   89.78
  -3   3   4 1474.72   78.29
  -3   3   4 1455.97   71.03
   3  -3  -3 1554.13   68.28
   3  -3  -3 1450.11   69.54
  -3   3   3 1243.15   81.66
  -3   3   3 1459.10   73.25
  -3   3   3 1436.98   66.69
   3  -3  -2 4321.44  206.20
   3  -3  -2 3932.24  192.39
  -3   3   2 3514.61  176.02
  -3   3   2 3823.03  208.52
  -3   3   2 3778.73  187.29
   3  -3  -1 1118.07   65.29
  -3   3   1 1087.59   55.98
  -3   3   1  984.76   49.66
  -3   3   1  838.90   40.02
  -3   3   1  982.29   43.14
   3  -3   0 1259.77   64.42
   3  -3   0 1357.16   65.72
  -3   3   0 1243.24   63.94
  -3   3   0 1240.10   63.37
  -3   3   0 1171.38   49.18
  -3   3   0 1216.02   51.07
   3  -3   1 2465.66  122.78
   3  -3   1 2514.92  120.68
  -3   3  -1 2160.11  109.11
  -3   3  -1 2266.13  114.45
  -3   3  -1 2157.57   90.61
   3  -3   2 1071.71   72.96
   3  -3   2  935.19   37.73
  -3   3  -2  955.78   53.16
  -3   3  -2  935.10   52.55
   3  -3   3  624.63   28.58
  -3   3  -3  640.68   41.15
  -3   3  -3  567.30   34.62
   3  -3   4 1187.74   56.82
  -3   3  -4 1192.32   69.66
  -3   3  -4 1090.09   56.85
   3  -3   5   42.41    8.71
  -3   3  -5   39.37   13.77
  -3   3  -5   33.57    7.26
   3  -3   6  344.47   25.44
  -3   3  -6  331.02   33.60
   3  -3   7  434.07   31.15
  -3   3  -7  433.08   36.82
   3  -3   8   40.74   10.76
  -3   3  -8   39.25   13.18
   3  -3   9  152.45   21.82
  -3   3  -9  129.18   14.52
   3  -2 -10   31.87    8.10
   3  -2  -9  372.44   23.82
   3  -2  -9  393.77   30.02
   3  -2  -8  -13.02    5.62
  -3   2   8    5.66    8.08
  -3   2   8    1.04    4.80
   3  -2  -7  222.08   20.36
  -3   2   7  243.67   29.50
  -3   2   7  233.75   22.11
   3  -2  -6 3118.67  164.28
  -3   2   6 3026.93  173.66
  -3   2   6 2990.04  165.25
   3  -2  -5   10.48    6.47
  -3   2   5   15.71    9.17
  -3   2   5    6.53    8.93
   3  -2  -4 4252.07  210.44
   3  -2  -4 4895.15  254.72
   3  -2  -4 4683.53  237.39
  -3   2   4 4620.72  229.88
  -3   2   4 4690.10  251.23
  -3   2   4 4753.78  257.23
   3  -2  -3 3788.23  182.33
   3  -2  -3 4117.87  206.24
   3  -2  -3 3848.77  197.35
  -3   2   3 3909.93  199.58
  -3   2   3 3944.87  206.15
  -3   2   3 3980.81  194.08
   3  -2  -2  218.20   15.74
   3  -2  -2  208.95   14.83
  -3   2   2  217.46   16.49
  -3   2   2  228.42   20.15
  -3   2   2  218.56   16.91
   3  -2  -1 2915.81  135.55
  -3   2   1 2675.19  121.72
  -3   2   1 2896.38  138.09
  -3   2   1 2738.33  131.41
   3  -2   0 4223.83  200.63
  -3   2   0 3699.15  184.38
  -3   2   0 3732.96  184.11
  -3   2   0 3690.53  171.35
  -3   2   0 3704.63  175.61
   3  -2   1  407.77   34.64
  -3   2  -1  362.89   33.74
  -3   2  -1  376.87   24.48
  -3   2  -1  329.19   11.50
  -3   2  -1  274.87   13.38
  -3   2  -2 2425.00  118.76
  -3   2  -2 2419.10  116.51
  -3   2  -2 2311.24   95.59
  -3   2  -2 2470.34   99.70
  -3   2  -3  847.92   47.52
  -3   2  -3  794.22   39.75
  -3   2  -3  818.41   34.53
  -3   2  -4   12.67    8.29
  -3   2  -4    7.18    4.62
  -3   2  -4    8.81    4.53
  -3   2  -5 2302.76  125.21
  -3   2  -5 1980.16   93.89
  -3   2  -5 2260.65  109.34
   3  -2   6    1.51   12.33
  -3   2  -6  335.05   22.05
   3  -2   7  542.07   36.83
  -3   2  -7  531.05   43.81
   3  -2   8 1831.42  100.45
  -3   2  -8 1761.46  104.77
   3  -2   9   83.26   13.71
  -3   2  -9   68.80   15.60
   3  -1  -9  388.71   27.92
   3  -1  -8 1920.41   97.64
   3  -1  -8 2068.52  112.40
   3  -1  -7  187.71   16.18
  -3   1   7  217.68   25.72
  -3   1   7  180.89   15.87
   3  -1  -6 2764.90  141.27
  -3   1   6 2963.06  167.94
  -3   1   6 2796.00  147.37
   3  -1  -5 1513.24   72.60
   3  -1  -5 1402.60   63.55
   3  -1  -5 1480.98   66.59
  -3   1   5 1579.69   86.76
  -3   1   5 1518.28   78.82
   3  -1  -4  371.28   24.90
   3  -1  -4  319.63   18.25
   3  -1  -4  322.26   18.26
  -3   1   4  299.58   16.35
  -3   1   4  340.40   27.09
  -3   1   4  322.49   24.63
   3  -1  -3  925.87   47.82
   3  -1  -3  871.09   42.08
   3  -1  -3  849.67   37.90
  -3   1   3  910.62   43.25
  -3   1   3  850.74   46.11
  -3   1   3  850.42   47.66
   3  -1  -2 3077.30  148.63
   3  -1  -2 3101.45  148.33
   3  -1  -2 2957.41  132.14
  -3   1   2 3035.77  157.80
  -3   1   2 2951.38  148.24
  -3   1   2 3202.73  151.86
   3  -1  -1 2838.57  133.20
   3  -1  -1 2848.02  131.94
   3  -1  -1 2563.24  110.40
  -3   1   1 2582.41  125.38
  -3   1   1 2340.92  106.48
  -3   1   1 2539.41  120.55
   3  -1   0  978.69   48.19
  -3   1   0  960.10   43.42
  -3   1   0  930.70   36.21
  -3   1   0  936.29   45.84
  -3   1   0  922.26   47.54
  -3   1  -1 1682.84   87.38
  -3   1  -1 1756.83   98.33
  -3   1  -1 1716.39   64.79
  -3   1  -1 1766.54   61.61
  -3   1  -1 1678.45   73.05
  -3   1  -2  290.86   20.19
  -3   1  -2  280.39   19.59
  -3   1  -2  282.80   17.08
  -3   1  -2  283.56   13.87
  -3   1  -3 2205.01   84.70
  -3   1  -3 2160.70   95.91
  -3   1  -3 2262.86  106.94
  -3   1  -3 1644.30   77.81
  -3   1  -4 1011.00   53.53
  -3   1  -4  915.92   40.57
  -3   1  -4  958.68   42.86
  -3   1  -5  293.96   14.48
  -3   1  -5  332.02   21.12
  -3   1  -5  321.85   38.63
  -3   1  -6 1573.44  109.89
  -3   1  -6 1614.83   83.61
  -3   1  -7  455.04   40.13
  -3   1  -7  478.52   33.62
   3  -1   8   -0.59   10.96
  -3   1  -8   57.97   13.86
   3  -1   9  670.57   44.37
  -3   1  -9  649.78   47.98
   3  -1  10  391.14   28.16
  -3   1 -10  368.95   29.68
   3   0  -9  602.74   34.69
   3   0  -8    0.49    4.85
   3   0  -7 1059.64   64.14
   3   0  -6 2986.12  150.33
   3   0  -6 3316.21  177.42
  -3   0   6 3085.33  165.24
   3   0  -5   45.33    6.37
   3   0  -5   43.11    9.82
  -3   0   5   42.73    8.49
  -3   0   5   48.59   14.16
   3   0  -4 4484.75  223.46
   3   0  -4 5243.85  264.78
   3   0  -4 4478.07  230.84
   3   0  -4 4799.20  244.87
  -3   0   4 4936.56  266.62
  -3   0   4 4540.56  237.91
   3   0  -3 4016.90  194.37
   3   0  -3 3690.80  181.41
   3   0  -3 3621.76  170.56
  -3   0   3 3784.33  181.03
  -3   0   3 3474.94  157.41
  -3   0   3 3919.22  198.59
  -3   0   3 3552.77  156.33
  -3   0   3 3611.12  181.61
   3   0  -2 1620.65   75.89
   3   0  -2 1845.42   98.56
   3   0  -2 1569.44   62.21
  -3   0   2 1756.87   79.91
  -3   0   2 1407.52   54.32
  -3   0   2 1618.55   75.89
  -3   0   2 1487.52   55.73
  -3   0   2 1574.97   76.62
   3   0  -1 5421.99  270.63
   3   0  -1 5106.16  258.20
  -3   0   1 5429.84  270.52
  -3   0   1 4532.50  205.68
  -3   0   1 5120.84  261.49
  -3   0   1 5329.37  235.75
  -3   0   1 5256.20  257.44
   3   0   0   19.74    8.06
   3   0   0   20.55    8.40
  -3   0   0   19.87    4.81
  -3   0   0   18.99    4.23
  -3   0   0   19.05   15.10
  -3   0   0   16.95    8.33
  -3   0  -1  146.68    9.27
  -3   0  -1  150.36    8.37
  -3   0  -1  158.36   15.42
  -3   0  -1  155.70   15.50
  -3   0  -2 3828.24  181.76
  -3   0  -2 4436.54  212.44
  -3   0  -2 4081.82  197.23
  -3   0  -2 4507.25  212.73
  -3   0  -3   20.32    4.71
  -3   0  -3   17.80    6.74
  -3   0  -3   19.79    6.10
  -3   0  -3   23.25    5.13
  -3   0  -4 1266.71   61.16
  -3   0  -4 1275.07   55.49
  -3   0  -4 1348.96   61.84
  -3   0  -4 1232.44   50.50
  -3   0  -5 3863.60  201.55
  -3   0  -5 4107.80  206.35
  -3   0  -6    6.76    6.90
  -3   0  -6    4.65    5.87
  -3   0  -7  900.34   57.06
  -3   0  -7  925.22   53.97
  -3   0  -8 2136.79  145.74
  -3   0  -8 2330.00  128.72
  -3   0  -9  131.22   19.87
  -3   0  -9  122.13   21.80
   3   0  10  294.78   25.70
  -3   0 -10  262.89   27.23
   3   1  -8  989.39   55.28
   3   1  -7  127.14   18.61
   3   1  -6 1182.35   68.17
   3   1  -5 2074.16  109.83
   3   1  -5 2060.66  111.96
  -3  -1   5 1929.56   95.81
   3   1  -4   17.38   10.47
   3   1  -4   14.20    8.63
  -3  -1   4   21.14    5.59
  -3  -1   4   12.18    4.59
  -3  -1   4   31.12    5.55
   3   1  -3 1487.92   74.91
   3   1  -3 1430.66   69.83
   3   1  -3 1410.50   64.37
   3   1  -3 1410.15   68.87
  -3  -1   3 1296.11   59.23
  -3  -1   3 1321.94   56.91
  -3  -1   3 1345.33   71.68
   3   1  -2 1031.92   47.95
   3   1  -2  954.91   45.69
   3   1  -2  890.46   46.07
  -3  -1   2  886.62   42.81
  -3  -1   2  835.19   36.60
  -3  -1   2  880.78   36.24
  -3  -1   2  893.41   54.18
   3   1  -1   29.54    6.46
   3   1  -1   26.71    8.33
   3   1  -1   28.98    9.24
  -3  -1   1   28.85    8.46
  -3  -1   1   20.06    4.96
  -3  -1   1   27.37    4.87
  -3  -1   1   29.55    8.52
   3   1   0 3124.52  134.77
   3   1   0 3072.52  162.40
   3   1   0 3026.10  145.50
  -3  -1   0 3299.39  155.21
  -3  -1   0 2809.47  126.84
  -3  -1   0 3182.84  153.04
   3   1   1 1859.48   90.28
  -3  -1  -1 1885.84   86.59
  -3  -1  -1 1850.71   80.45
  -3  -1  -1 1917.16   91.42
  -3  -1  -2  416.40   15.23
  -3  -1  -2  450.57   31.54
  -3  -1  -2  417.58   22.24
  -3  -1  -2  503.57   41.69
  -3  -1  -3 2852.58  133.83
  -3  -1  -3 3239.84  149.41
  -3  -1  -3 3330.98  156.54
  -3  -1  -3 3106.10  136.80
  -3  -1  -4 2166.02   94.96
  -3  -1  -4 2127.15  100.53
  -3  -1  -4 1959.88   82.90
  -3  -1  -5  379.99   20.10
  -3  -1  -5  400.41   26.14
  -3  -1  -6 2991.35  153.41
  -3  -1  -6 3220.74  164.67
  -3  -1  -7  468.17   31.93
  -3  -1  -7  468.50   45.97
  -3  -1  -8  268.69   26.40
  -3  -1  -8  277.75   26.04
  -3  -1  -9  908.42   58.83
  -3  -1  -9 1010.43   61.86
  -3  -1 -10   29.18   11.87
  -3  -1 -10   25.42   12.05
   3   1  11  138.06   16.33
  -3  -1 -11  126.33   16.29
   3   2  -8  184.62   16.77
   3   2  -7 1255.17   86.56
   3   2  -6  192.29   21.87
  -3  -2   6  171.21   15.35
   3   2  -5  375.34   31.53
   3   2  -5  388.41   27.20
  -3  -2   5  415.43   26.73
   3   2  -4 2094.98  120.60
   3   2  -4 1996.99  105.22
  -3  -2   4 1783.98   92.60
   3   2  -3  367.91   35.19
   3   2  -3  362.57   24.88
   3   2  -3  344.86   17.48
  -3  -2   3  331.62   21.17
  -3  -2   3  335.13   17.66
   3   2  -2 1541.97   82.20
   3   2  -2 1535.08   66.37
   3   2  -2 1426.43   67.49
   3   2  -2 1390.31   70.75
  -3  -2   2 1023.83   51.63
  -3  -2   2 1360.09   60.99
  -3  -2   2 1393.84   62.40
   3   2  -1 4569.45  232.67
   3   2  -1 4143.75  203.24
   3   2  -1 4447.20  217.77
   3   2  -1 4148.52  214.61
  -3  -2   1 3831.39  191.02
  -3  -2   1 4361.23  209.99
  -3  -2   1 4191.32  206.61
   3   2   0   -2.92   11.58
   3   2   0   43.48    6.63
   3   2   0   42.45    9.70
   3   2   0   40.12   10.21
  -3  -2   0   47.04    8.08
  -3  -2   0   42.31    9.01
   3   2   1 1430.48   58.47
   3   2   1 1507.64   73.69
  -3  -2  -1 1500.19   67.98
  -3  -2  -1 1530.29   71.94
  -3  -2  -1 1616.87   92.73
   3   2   2 6250.98  331.92
  -3  -2  -2 5861.47  304.72
  -3  -2  -2 6195.27  309.95
  -3  -2  -2 6178.62  321.66
   3   2   3   45.49   10.45
  -3  -2  -3   37.00    9.36
  -3  -2  -3   33.84    3.93
  -3  -2  -3   40.77    4.87
  -3  -2  -3   36.95    9.32
  -3  -2  -4 2566.07  110.06
  -3  -2  -4 3239.20  163.99
  -3  -2  -4 2346.47   94.62
  -3  -2  -4 3217.54  152.39
  -3  -2  -5 1971.33   90.65
  -3  -2  -5 2464.78  115.35
  -3  -2  -5 2667.06  145.93
  -3  -2  -6  366.15   22.52
  -3  -2  -6  382.14   27.82
  -3  -2  -6  313.59   19.28
   3   2   7  996.98   47.01
  -3  -2  -7  896.00   48.50
  -3  -2  -7 1010.65   58.20
  -3  -2  -8  489.26   33.25
  -3  -2  -8  543.44   52.71
  -3  -2  -9   71.93   14.57
  -3  -2  -9   74.25   15.72
  -3  -2 -10  738.71   47.48
  -3  -2 -10  840.51   51.82
  -3  -2 -11   17.42    9.11
  -3  -2 -11   22.99    9.16
   3   3  -7    0.62    4.27
  -3  -3   7    0.95    2.47
   3   3  -6 1241.42   63.48
   3   3  -6 1423.55   78.19
  -3  -3   6 1247.36   64.89
   3   3  -5 1286.39   66.75
   3   3  -5 1243.49   91.61
  -3  -3   5 1162.01   64.78
   3   3  -4  480.96   36.67
   3   3  -4  545.46   37.51
  -3  -3   4  433.71   30.42
   3   3  -3 2425.36  127.24
   3   3  -3 2384.25  164.00
  -3  -3   3 2191.63  115.68
   3   3  -2  793.89   62.27
   3   3  -2  763.88   41.89
   3   3  -2  789.71   34.17
  -3  -3   2  654.68   29.56
  -3  -3   2  693.72   39.32
   3   3  -1 1298.97   78.79
   3   3  -1 1152.71   67.95
   3   3  -1 1193.08   53.10
   3   3  -1  985.29   57.06
  -3  -3   1 1042.82   46.71
  -3  -3   1 1068.07   55.57
  -3  -3   1 1219.17   58.23
   3   3   0 2144.36  112.08
   3   3   0 1951.86   91.01
   3   3   0 2192.56  102.43
  -3  -3   0 1910.45   87.57
  -3  -3   0 1932.44   95.81
   3   3   1  232.30   21.57
   3   3   1  233.74   14.28
   3   3   1  234.20   18.58
  -3  -3  -1  227.10   16.84
  -3  -3  -1  236.74   20.67
   3   3   2  877.58   42.51
   3   3   2  817.46   34.42
   3   3   2  893.06   47.74
  -3  -3  -2  870.53   43.78
  -3  -3  -2  870.22   46.93
   3   3   3  540.99   25.09
   3   3   3  519.35   21.14
   3   3   3  548.28   34.40
  -3  -3  -3  562.21   32.17
  -3  -3  -3  570.41   34.78
   3   3   4  310.87   24.05
   3   3   4  281.76   23.38
  -3  -3  -4  292.12   32.28
  -3  -3  -4  246.02   10.11
  -3  -3  -4  294.48   23.44
   3   3   5  683.55   43.68
  -3  -3  -5  695.38   42.53
  -3  -3  -5  710.59   43.27
  -3  -3  -6 1274.29   58.90
  -3  -3  -6 1868.48   91.37
  -3  -3  -6 1766.29  104.74
   3   3   7  106.13   13.67
  -3  -3  -7   78.40    9.18
  -3  -3  -7  111.55   17.29
   3   3   8  891.11   45.96
  -3  -3  -8  767.97   42.65
  -3  -3  -8  926.96   56.15
   3   3   9  779.83   39.38
  -3  -3  -9  732.09   43.47
  -3  -3  -9  821.15   68.21
  -3  -3 -10    0.10    3.80
  -3  -3 -10    0.90    4.68
  -3  -3 -11  268.65   29.08
  -3  -3 -11  292.54   23.49
   3   4  -6   79.82   12.86
   3   4  -6   60.47    6.49
   3   4  -5  452.68   28.80
   3   4  -5  468.20   35.95
  -3  -4   5  423.34   30.04
   3   4  -4 1811.93   98.69
   3   4  -4 1810.57  102.68
  -3  -4   4 1593.93   90.59
   3   4  -3    1.51    8.21
   3   4  -3    4.56    7.32
  -3  -4   3  -16.22    7.35
   3   4  -2  747.86   46.82
   3   4  -2  798.38   56.66
  -3  -4   2  712.66   45.83
   3   4  -1 2459.33  126.58
   3   4  -1 2408.57  177.84
  -3  -4   1 2304.49  123.15
   3   4   0  153.95   27.82
   3   4   0  138.47   14.96
   3   4   0  129.02   15.87
  -3  -4   0  141.49   10.78
  -3  -4   0  147.23   18.47
   3   4   1 2526.81  143.17
   3   4   1 2521.26  122.31
   3   4   1 2631.02  129.29
  -3  -4  -1 2661.68  125.71
  -3  -4  -1 2628.08  139.00
   3   4   2  417.68   29.11
   3   4   2  435.92   32.35
   3   4   2  445.87   29.95
   3   4   2  448.28   28.21
  -3  -4  -2  470.92   26.94
  -3  -4  -2  438.73   31.79
   3   4   3  322.83   25.47
   3   4   3  302.91   28.03
   3   4   3  286.16   16.27
   3   4   3  308.00   34.46
  -3  -4  -3  311.57   33.99
  -3  -4  -3  307.58   26.41
   3   4   4 2336.62  109.37
   3   4   4 2773.97  141.40
   3   4   4 2598.71  134.01
  -3  -4  -4 2548.89  129.35
  -3  -4  -4 2132.57   95.11
  -3  -4  -4 2515.49  129.59
  -3  -4  -5  994.34   59.79
  -3  -4  -5  938.75   56.25
  -3  -4  -6  880.10   56.68
  -3  -4  -6  833.44   53.45
   3   4   7 2732.70  145.97
  -3  -4  -7 2582.40  142.22
   3   4   8    3.75    7.24
  -3  -4  -8    8.45    8.54
   3   4   9  111.77   14.48
  -3  -4  -9  119.88   18.05
   3   4  10  675.70   34.23
  -3  -4 -10  566.52   32.05
  -3  -4 -10  647.12   40.48
  -3  -4 -11   -0.00    3.89
  -3  -4 -11   -0.80    3.73
   3   5  -5  180.27   14.33
   3   5  -5  190.11   18.33
  -3  -5   5  181.99   27.22
   3   5  -4  317.91   28.45
   3   5  -4  320.73   36.42
  -3  -5   4  287.80   28.06
   3   5  -3  712.62   48.58
   3   5  -3  735.78   50.01
  -3  -5   3  651.06   47.19
   3   5  -2    0.73    6.57
   3   5  -2   -0.78    5.68
  -3  -5   2    2.72    6.02
   3   5  -1  349.91   29.97
   3   5  -1  404.20   37.45
  -3  -5   1  360.52   33.21
   3   5   0  432.36   30.67
   3   5   0  473.22   39.23
  -3  -5   0  428.21   54.24
   3   5   1  346.27   25.36
   3   5   1  367.20   30.18
  -3  -5  -1  355.28   21.34
  -3  -5  -1  360.22   33.72
   3   5   2 2213.25  111.91
   3   5   2 2161.29  108.52
  -3  -5  -2 2228.57  110.44
  -3  -5  -2 2229.48  124.69
   3   5   3 1412.81   65.78
   3   5   3 1335.45   65.34
  -3  -5  -3 1472.90   76.40
  -3  -5  -3 1462.63   83.82
   3   5   4   61.86    8.08
  -3  -5  -4   69.08   15.38
  -3  -5  -4   59.80   24.92
   3   5   5 1205.08   57.35
  -3  -5  -5 1418.73   81.29
  -3  -5  -5 1299.87   75.11
  -3  -5  -6  880.46   60.22
  -3  -5  -6  840.01   54.90
   3   5   7   34.40   14.33
  -3  -5  -7   32.68   21.99
   3   5   8  921.83   58.32
  -3  -5  -8  890.97   56.70
   3   5   9  266.76   25.42
  -3  -5  -9  267.63   25.72
   3   5  10  418.80   30.94
  -3  -5 -10    2.21   23.89
  -3  -5 -11  167.20   14.79
   3   6  -4  633.87   35.35
   3   6  -4  598.79   36.43
  -3  -6   4  599.99   38.24
   3   6  -3  142.59   31.03
  -3  -6   3  149.36   21.57
   3   6  -2 1268.32   92.39
   3   6  -2 1366.08   82.42
  -3  -6   2 1318.80   82.84
   3   6  -1  125.62   29.37
   3   6  -1  138.04   21.82
  -3  -6   1  118.16   23.18
   3   6   0 1268.45   75.27
   3   6   0 1190.97   87.64
  -3  -6   0 1209.68   80.39
   3   6   1  975.83   57.91
   3   6   1  914.19   54.98
  -3  -6  -1  935.82   64.46
   3   6   2    5.29    5.80
   3   6   2    4.74    6.09
  -3  -6  -2    4.10    4.09
  -3  -6  -2    6.21    9.03
   3   6   3  326.47   23.29
   3   6   3  337.74   19.92
  -3  -6  -3  324.98   22.86
  -3  -6  -3  362.59   33.30
   3   6   4  736.96   39.94
  -3  -6  -4  823.68   47.61
  -3  -6  -4  778.22   70.03
   3   6   5  113.83   12.31
  -3  -6  -5  128.25   20.12
  -3  -6  -5  122.24   20.43
   3   6   6   26.45   13.32
  -3  -6  -6   25.37   12.53
   3   6   7 1612.68   94.97
  -3  -6  -7 1544.52   91.31
   3   6   8    6.44    9.48
  -3  -6  -8    4.65    7.42
   3   6   9  251.25   27.35
  -3  -6  -9  260.35   23.63
   3   6  10  429.81   37.88
  -3  -6 -10  142.84   26.58
   3   6  11   72.53    9.33
   3   7  -2   -0.37    4.94
   3   7  -2    0.90    5.06
  -3  -7   2    3.94    6.16
   3   7  -1  591.88   38.81
   3   7  -1  519.89   37.66
  -3  -7   1  541.52   43.70
   3   7   0  382.71   29.01
   3   7   0  352.70   30.20
  -3  -7   0  359.48   35.96
   3   7   1    9.91   12.09
   3   7   1    7.66    8.19
  -3  -7  -1    7.64   10.44
   3   7   2  713.87   48.87
   3   7   2  674.08   43.34
  -3  -7  -2  728.09   52.75
   3   7   3  626.52   39.63
  -3  -7  -3  689.48   50.69
   3   7   4   58.27    9.65
   3   7   4   74.42   19.65
  -3  -7  -4   70.32   16.34
   3   7   5 1195.10   64.18
   3   7   5 1110.14   59.98
  -3  -7  -5 1149.59   71.31
   3   7   6   10.94    5.37
   3   7   6   14.15    9.20
  -3  -7  -6   18.05   10.25
   3   7   7   56.38   15.03
  -3  -7  -7   50.65   14.06
   3   7   8  225.80   25.32
  -3  -7  -8  194.71   19.91
   3   7   9   37.30   13.12
  -3  -7  -9   37.56    9.52
   3   7  10   67.87   12.46
  -3  -7 -10   51.85   13.13
   3   8  -1    2.07    4.00
   3   8  -1    0.90    4.16
  -3  -8   1    0.91    4.77
   3   8   0  162.78   15.46
   3   8   0  141.41   17.47
  -3  -8   0  148.39   19.60
   3   8   1  500.55   29.02
   3   8   1  481.52   32.61
  -3  -8  -1  508.35   37.08
   3   8   2    4.09    3.79
   3   8   2    3.27    6.30
  -3  -8  -2    3.36    7.67
   3   8   3  281.63   35.28
  -3  -8  -3  270.67   26.39
   3   8   4  220.97   20.30
  -3  -8  -4  225.13   24.30
   3   8   5    6.74    4.47
   3   8   5    5.05    5.82
  -3  -8  -5   11.59    8.10
   3   8   6   74.28    9.64
   3   8   6   93.40   12.12
  -3  -8  -6   95.17   15.27
   3   8   7  313.37   24.58
  -3  -8  -7  292.65   31.23
   3   8   8   15.69    8.92
  -3  -8  -8   14.80    6.39
   3   8   9  235.60   20.42
   3   9   2   74.45   10.90
  -3  -9  -2   68.08   10.64
   3   9   3   40.33    8.88
  -3  -9  -3   38.38    9.47
   3   9   4   34.09    8.28
  -3  -9  -4   45.82    9.56
  -3  -9  -5  223.89   17.96
  -3  -9  -6   14.16    9.98
   4  -8  -6  216.45   17.21
  -4   8   6  183.63   13.16
   4  -8  -5  340.85   24.26
  -4   8   5  321.70   25.99
   4  -8  -4 1875.11   91.98
  -4   8   4 1537.38   72.40
   4  -8  -3   85.91   14.15
   4  -8  -2   87.36   20.07
  -4   8   2   76.26   10.00
   4  -8  -1  357.38   23.91
  -4   8   1  359.60   24.15
   4  -8   0   11.48    6.41
  -4   8   0   18.14    7.75
   4  -8   1   91.09    9.14
  -4   8  -1   84.38   12.91
   4  -7  -7    1.73    9.50
  -4   7   7   -0.21    5.49
  -4   7   7   -7.34    5.01
   4  -7  -6  325.67   26.00
  -4   7   6  294.01   21.95
  -4   7   6  309.83   33.91
   4  -7  -5   35.05    9.45
  -4   7   5   25.63    7.67
  -4   7   5    0.66    5.26
   4  -7  -4  258.28   24.46
  -4   7   4  215.71   18.52
   4  -7  -3  328.86   27.02
  -4   7   3  274.05   19.86
  -4   7   3  297.48   20.18
   4  -7  -2  257.47   23.82
  -4   7   2  232.10   20.54
   4  -7  -1   -0.05    4.51
  -4   7   1    2.35    7.77
   4  -7   0  129.22   16.62
  -4   7   0  128.24   29.39
   4  -7   1  370.80   26.80
  -4   7  -1  359.91   45.46
   4  -7   2    9.83    6.90
  -4   7  -2   13.16   14.28
   4  -7   3  748.07   38.52
  -4   7  -3  757.44   56.10
   4  -6  -8    4.03    6.16
  -4   6   8    3.29    5.99
  -4   6   8    1.42    6.38
   4  -6  -7 1140.29   78.35
  -4   6   7 1110.97   64.49
  -4   6   7 1164.66   68.08
   4  -6  -6   69.84   14.93
  -4   6   6   60.64   23.15
  -4   6   6   67.81   14.68
   4  -6  -5  119.25   17.69
  -4   6   5   96.93   16.35
  -4   6   5  110.12   15.65
   4  -6  -4  796.22   65.74
  -4   6   4  692.81   42.36
  -4   6   4  706.21   40.37
   4  -6  -3  132.07   19.27
  -4   6   3  112.79   13.57
  -4   6   3  126.75   13.74
   4  -6  -2  572.50   39.75
  -4   6   2  535.89   35.46
   4  -6  -1 1046.63   61.30
  -4   6   1  971.85   74.81
   4  -6   0  283.37   26.43
  -4   6   0  250.57   27.55
   4  -6   1   -0.58   12.52
  -4   6  -1  117.12   15.98
  -4   6  -2  453.51   37.89
  -4   6  -2  401.21   35.98
  -4   6  -3   11.82   10.59
  -4   6  -3   16.66    9.66
  -4   6  -4  540.48   37.63
  -4   6  -4  504.17   43.78
  -4   6  -5   91.59   13.38
  -4   6  -5   84.70    8.52
   4  -5  -9  206.29   15.76
  -4   5   9  204.21   19.35
  -4   5   9  212.20   18.42
   4  -5  -8  100.86   15.54
  -4   5   8   94.93   17.10
  -4   5   8  104.41   17.61
   4  -5  -7   97.85   25.40
  -4   5   7  103.72   18.41
  -4   5   7  101.86   20.38
   4  -5  -6  717.10   45.67
  -4   5   6  714.89   64.12
  -4   5   6  702.98   51.02
   4  -5  -5  650.65   42.61
  -4   5   5  640.03   42.58
  -4   5   5  569.10   42.94
   4  -5  -4   20.37   17.67
  -4   5   4   25.27    9.11
  -4   5   4   23.70    9.86
  -4   5   4   19.65    6.23
   4  -5  -3 1690.56   89.56
  -4   5   3 1527.16   81.56
  -4   5   3 1556.73   81.62
  -4   5   3 1625.03   83.21
   4  -5  -2  473.04   32.99
  -4   5   2  427.48   25.72
  -4   5   2  452.61   31.17
   4  -5  -1  169.91   20.53
  -4   5   1  176.09   31.16
  -4   5   0 2647.64  149.06
  -4   5   0 2263.69  128.96
  -4   5  -1   41.19   15.13
  -4   5  -1   32.92   13.31
  -4   5  -2  526.28   41.37
  -4   5  -2  417.09   35.82
  -4   5  -3  565.41   43.94
  -4   5  -3  526.14   39.19
  -4   5  -4    2.48    4.63
  -4   5  -4   -1.28    3.62
  -4   5  -5  132.32   19.10
  -4   5  -5  115.68   19.43
  -4   5  -6  236.60   22.17
   4  -4  -9   53.18    8.04
   4  -4  -9   63.08   11.58
  -4   4   9   54.32   15.92
   4  -4  -8  230.98   20.10
  -4   4   8  235.58   25.53
  -4   4   8  227.76   23.96
   4  -4  -7 1005.52   58.42
  -4   4   7  961.86   62.30
  -4   4   7  940.09   63.80
   4  -4  -6   14.09    8.62
  -4   4   6   14.22   10.76
  -4   4   6   14.01   12.54
   4  -4  -5  738.37   44.02
  -4   4   5  729.86   61.57
  -4   4   5  650.28   49.74
   4  -4  -4  812.00   45.93
  -4   4   4  754.32   44.60
  -4   4   4  567.75   44.14
  -4   4   4  782.67   47.13
   4  -4  -3  694.98   40.68
  -4   4   3  657.36   37.81
  -4   4   3  647.01   40.83
  -4   4   3  696.26   38.19
   4  -4  -2 2656.11  134.50
  -4   4   2 2459.74  123.19
  -4   4   2 2511.40  127.28
  -4   4   2 2604.63  134.65
   4  -4  -1 1269.25   66.49
  -4   4   1 1174.03   55.47
  -4   4   1 1204.20   80.88
  -4   4   0   46.02   12.99
  -4   4   0   56.65   14.83
  -4   4  -1 1910.62  105.21
  -4   4  -1 1715.77   96.54
  -4   4  -2  293.11   27.95
  -4   4  -2  252.50   25.48
  -4   4  -3   54.68   14.96
  -4   4  -3   44.20   12.70
  -4   4  -4 1988.61  113.89
  -4   4  -4 1893.80  102.69
  -4   4  -5   -0.82    7.05
  -4   4  -5    3.01    4.21
  -4   4  -6  136.91   20.40
  -4   4  -7  346.97   28.16
   4  -3  -9  542.69   32.89
   4  -3  -8  201.12   16.10
  -4   3   8  225.72   25.29
  -4   3   8  212.46   20.69
   4  -3  -7   76.20   13.33
  -4   3   7  102.79   19.37
  -4   3   7  102.08   17.56
   4  -3  -6 2241.79  129.92
  -4   3   6 2336.48  135.41
  -4   3   6 2360.25  135.97
   4  -3  -5  210.45   19.10
  -4   3   5  221.05   24.30
  -4   3   5  221.79   27.12
   4  -3  -4 1040.77   53.81
  -4   3   4 1038.83   51.08
  -4   3   4 1041.68   70.87
  -4   3   4  948.25   61.45
   4  -3  -3  313.30   21.17
  -4   3   3  303.19   21.66
  -4   3   3  297.99   26.23
  -4   3   3  326.58   21.73
   4  -3  -2  591.83   32.14
  -4   3   2  588.74   30.58
  -4   3   2  577.39   35.02
  -4   3   2  595.13   35.34
   4  -3  -1  552.77   30.39
  -4   3   1  516.67   24.42
  -4   3   1  516.76   28.47
  -4   3   1  502.80   32.83
  -4   3   0 1401.39   90.05
  -4   3   0 1526.34   78.49
  -4   3   0 1349.85   67.71
  -4   3  -1   11.75    8.12
  -4   3  -1   10.31    8.39
  -4   3  -2  694.56   42.62
  -4   3  -2  700.19   42.82
  -4   3  -3 1260.56   87.95
  -4   3  -3 1162.66   63.54
  -4   3  -4   25.88   13.07
  -4   3  -4   41.87    9.43
  -4   3  -5 1834.60  105.60
  -4   3  -5 1660.87   84.70
   4  -3   6  422.58   25.20
  -4   3  -6  423.19   36.99
   4  -3   7   17.23    6.35
  -4   3  -7   25.08   18.80
  -4   3  -8  231.47   24.62
   4  -2  -9   10.06    6.90
   4  -2  -8  340.80   28.25
  -4   2   8  305.88   20.75
   4  -2  -7  273.98   18.98
  -4   2   7  326.49   30.60
  -4   2   7  305.29   25.54
   4  -2  -6 1392.38   71.06
  -4   2   6 1422.18   86.78
  -4   2   6 1387.05   81.05
   4  -2  -5 2738.25  137.75
  -4   2   5 2803.96  157.16
  -4   2   5 2853.65  157.99
   4  -2  -4 1794.11   85.31
  -4   2   4 1816.08   86.64
  -4   2   4 1800.41   96.07
  -4   2   4 1764.25   99.87
   4  -2  -3  130.85   11.37
  -4   2   3  134.99   13.69
  -4   2   3  115.59   13.64
  -4   2   3  112.39   17.88
   4  -2  -2 4325.63  218.74
   4  -2  -2 4137.33  202.55
  -4   2   2 4088.69  216.50
  -4   2   2 4028.60  215.34
  -4   2   2 4401.16  226.84
   4  -2  -1  767.65   40.45
   4  -2  -1  723.51   34.01
  -4   2   1  695.56   31.00
  -4   2   1  710.33   39.17
  -4   2   1  719.34   41.05
   4  -2   0 2284.63  108.43
  -4   2   0 2097.60  103.01
  -4   2   0 1767.81   94.10
  -4   2   0 2117.14  105.45
   4  -2   116312.49 1011.54
  -4   2  -114460.87  912.59
  -4   2  -114660.58  951.35
  -4   2  -113542.07  837.25
  -4   2  -2 3837.51  199.28
  -4   2  -2 4071.79  209.99
  -4   2  -3  723.05   42.26
  -4   2  -3  724.48   39.56
  -4   2  -4  731.37   44.77
  -4   2  -4  775.00   40.51
  -4   2  -4  803.04   34.81
  -4   2  -5  132.04   19.40
  -4   2  -5  120.48   15.84
  -4   2  -5  121.31   10.37
   4  -2   6  257.43   18.88
  -4   2  -6  287.59   28.49
   4  -2   7  585.48   34.56
  -4   2  -7  575.13   44.20
   4  -2   8   16.15    7.52
  -4   2  -8   20.24   11.00
   4  -2   9   72.27   10.36
  -4   2  -9   42.22   22.39
   4  -1  -9  943.02   47.59
   4  -1  -8  147.75   18.58
   4  -1  -7 1059.99   62.00
  -4   1   7  984.68   52.27
   4  -1  -6    0.58    9.99
  -4   1   6   28.46    8.58
   4  -1  -5  339.58   19.81
   4  -1  -5  333.06   21.66
  -4   1   5  378.80   32.12
  -4   1   5  344.09   28.70
   4  -1  -4 1222.69   55.10
  -4   1   4 1182.44   56.27
  -4   1   4 1311.55   71.24
  -4   1   4 1248.68   69.94
   4  -1  -3  836.21   36.89
  -4   1   3  893.88   44.92
  -4   1   3  867.78   46.17
  -4   1   3  847.73   50.59
   4  -1  -2  257.20   23.07
   4  -1  -2  246.50   21.15
   4  -1  -2  237.83   17.24
  -4   1   2  263.59   21.39
  -4   1   2  265.43   17.08
  -4   1   2  248.53   22.78
   4  -1  -1 1229.72   76.77
   4  -1  -1 1058.65   43.89
  -4   1   1 1029.89   44.89
  -4   1   1 1117.69   58.45
  -4   1   1 1188.77   59.84
   4  -1   0 1107.83   55.82
  -4   1   0 1087.25   55.71
  -4   1   0 1021.09   62.88
  -4   1   0 1005.91   38.18
  -4   1  -1 1714.44   78.42
  -4   1  -1 2054.95   99.60
  -4   1  -1 2063.61   94.39
  -4   1  -214092.21  882.34
  -4   1  -214631.75  895.61
  -4   1  -3 2811.46  122.16
  -4   1  -3 2734.55  133.93
  -4   1  -3 2666.38  116.32
  -4   1  -3 2790.80  134.96
  -4   1  -4  519.67   32.10
  -4   1  -4  499.07   23.33
  -4   1  -4  502.90   26.13
  -4   1  -5 2248.87  119.52
  -4   1  -5 2232.38  106.93
  -4   1  -6  596.17   41.58
  -4   1  -6  612.37   34.29
  -4   1  -7  433.87   35.66
  -4   1  -7  466.28   30.10
   4  -1   8    0.91   14.48
  -4   1  -8  564.18   27.65
   4  -1   9  115.92   15.07
  -4   1  -9  101.73   17.90
   4  -1  10    5.02    5.04
  -4   1 -10    2.98    5.73
   4   0  -8  686.53   39.94
   4   0  -7  204.14   21.92
   4   0  -6  202.15   22.52
  -4   0   6  192.43   15.91
   4   0  -5 1274.90   70.95
   4   0  -5 1297.68   69.76
  -4   0   5 1167.87   63.34
   4   0  -4  328.71   25.42
  -4   0   4  328.70   36.74
  -4   0   3  974.46   48.82
  -4   0   3  980.25   53.02
  -4   0   3  983.85   54.75
   4   0  -2 8657.19  492.97
   4   0  -2 8204.61  455.82
  -4   0   2 8529.49  466.74
  -4   0   2 5893.08  336.15
  -4   0   2 8022.91  473.58
   4   0  -1  345.03   25.36
   4   0  -1  346.31   24.50
  -4   0   1  338.55   25.09
  -4   0   1  290.59   15.97
  -4   0   1  330.31   36.39
   4   0   0 3512.14  175.73
   4   0   0 3224.02  160.70
  -4   0   0 3443.43  189.26
  -4   0   0 3213.88  163.45
  -4   0  -1 4020.59  180.52
  -4   0  -1 3430.50  151.60
  -4   0  -1 4313.56  213.32
  -4   0  -1 4360.65  215.19
  -4   0  -2    8.79    3.29
  -4   0  -2    8.04    2.87
  -4   0  -2    8.30    6.02
  -4   0  -2   12.14    5.87
  -4   0  -3 1973.94   88.41
  -4   0  -3 2357.87  103.62
  -4   0  -3 2568.97  108.59
  -4   0  -3 1828.35   85.49
  -4   0  -4  731.13   31.56
  -4   0  -4  668.74   33.95
  -4   0  -4  712.42   33.26
  -4   0  -4  677.97   30.91
  -4   0  -5   88.87   11.83
  -4   0  -5   92.67   10.53
  -4   0  -6   10.35    6.91
  -4   0  -6    6.62    5.82
  -4   0  -7  935.41   57.18
  -4   0  -7  973.37   54.15
  -4   0  -8    1.22    3.90
  -4   0  -8   -0.90    3.60
  -4   0  -9  698.41   47.37
  -4   0  -9  761.86   46.58
   4   0  10   11.92    7.57
  -4   0 -10    8.51    7.60
   4   1  -8   48.97   10.23
   4   1  -7  736.53   45.52
   4   1  -6  394.98   31.23
   4   1  -5    4.82    7.66
   4   1  -5    9.41    8.26
  -4  -1   5    7.26    4.50
   4   1  -4 2216.04  117.08
   4   1  -4 2407.68  133.16
  -4  -1   4 2198.01  112.80
   4   1  -3 1119.06   57.43
   4   1  -3 1171.57   67.12
  -4  -1   3 1097.00   57.64
   4   1  -2   19.07    5.93
   4   1  -2    1.05   11.08
  -4  -1   2   17.07    7.91
   4   1  -1 8819.09  492.92
   4   1  -1 9164.82  530.97
   4   1  -1 9979.57  568.35
  -4  -1   110078.98  571.81
  -4  -1   1 8199.79  449.70
  -4  -1   1 8837.80  473.85
  -4  -1   1 9782.75  563.99
   4   1   0  646.24   26.11
   4   1   0  635.24   36.87
   4   1   0  667.81   37.81
  -4  -1   0  691.00   38.49
  -4  -1   0  648.78   27.55
  -4  -1   0  697.94   40.00
   4   1   1 1263.34   77.87
  -4  -1  -1 1375.59   66.38
  -4  -1  -1 1170.84   54.62
  -4  -1  -1 1403.42   70.06
  -4  -1  -2 3544.92  171.74
  -4  -1  -2 3261.67  153.05
  -4  -1  -2 3892.46  209.47
  -4  -1  -3  259.26   17.84
  -4  -1  -3  244.60   10.55
  -4  -1  -3  204.99   13.68
  -4  -1  -3  223.88   14.35
  -4  -1  -4  986.74   45.65
  -4  -1  -4  870.05   38.08
  -4  -1  -4  898.95   42.35
  -4  -1  -4  952.68   45.81
  -4  -1  -5 2104.88  101.45
  -4  -1  -5 2303.78  107.56
  -4  -1  -5 2523.56  122.55
  -4  -1  -6  113.32   18.39
  -4  -1  -6  116.40    9.87
  -4  -1  -6  118.58   14.60
  -4  -1  -7  334.94   34.41
  -4  -1  -7  384.03   39.62
  -4  -1  -8  242.76   22.46
  -4  -1  -8  242.88   23.42
  -4  -1  -9    5.24    7.24
  -4  -1  -9    8.36    8.19
  -4  -1 -10  170.02   18.43
  -4  -1 -10  207.41   21.11
   4   1  11  194.04   17.17
  -4  -1 -11  166.58   13.85
   4   2  -7   15.28    8.15
   4   2  -6  621.53   56.57
   4   2  -5  616.77   41.28
   4   2  -5  632.55   39.25
   4   2  -4   75.43   14.14
   4   2  -4   65.02   20.42
   4   2  -3 1437.09   72.97
   4   2  -3 1621.81   95.54
  -4  -2   3 1039.58   52.66
  -4  -2   3 1394.73   66.60
   4   2  -2 1698.23   82.79
   4   2  -2 1860.63  103.78
  -4  -2   2 1448.48   68.83
  -4  -2   2 1723.08   83.59
   4   2  -1    4.33    3.94
   4   2  -1    3.44    8.44
   4   2  -1    5.96    5.50
  -4  -2   1    5.54    3.61
  -4  -2   1    1.77    3.23
  -4  -2   1    3.36    5.30
   4   2   0 2046.86   91.61
   4   2   0 2147.37  107.00
   4   2   0 2072.71  116.29
  -4  -2   0 2099.06   98.07
  -4  -2   0 2091.11   92.88
  -4  -2   0 2279.44  112.16
   4   2   1 1753.95   71.16
   4   2   1 1975.98   97.80
  -4  -2  -1 1892.24   88.29
  -4  -2  -1 1508.93   71.86
  -4  -2  -1 2022.60  114.84
   4   2   2    0.94    6.32
  -4  -2  -2    1.50    5.85
  -4  -2  -2    7.68    4.22
  -4  -2  -2   -0.54    5.48
  -4  -2  -3 9053.18  510.68
  -4  -2  -3 8553.11  469.74
  -4  -2  -3 8542.94  482.67
  -4  -2  -4  268.54   20.27
  -4  -2  -4  251.17   11.89
  -4  -2  -4  274.37   21.05
  -4  -2  -5  576.43   34.81
  -4  -2  -5  594.49   48.15
  -4  -2  -6 1714.39   84.11
  -4  -2  -6 1608.47   85.20
  -4  -2  -7   29.63   11.21
  -4  -2  -7   46.18   12.03
  -4  -2  -8  120.10   19.48
  -4  -2  -8  146.64   19.03
  -4  -2  -9  496.35   31.76
  -4  -2  -9  548.62   38.28
  -4  -2 -10   18.98    7.86
  -4  -2 -10   38.96   11.26
  -4  -2 -11    0.49    2.92
  -4  -2 -11    2.65    4.64
   4   3  -6  237.87   17.24
   4   3  -6  285.41   23.51
   4   3  -5  521.02   37.33
   4   3  -5  537.29   32.49
   4   3  -4  644.19   44.80
   4   3  -4  590.32   54.20
  -4  -3   4  493.72   29.36
   4   3  -3  245.65   34.48
   4   3  -3  257.27   57.36
  -4  -3   3  275.27   20.50
   4   3  -2  519.69   42.81
   4   3  -2  568.83   53.17
  -4  -3   2  476.59   24.98
  -4  -3   2  439.46   27.38
   4   3  -1 3224.58  173.29
   4   3  -1 3584.15  203.53
  -4  -3   1 3046.09  152.36
  -4  -3   1 3040.00  169.29
   4   3   0    5.96    4.17
   4   3   0    0.20    9.86
  -4  -3   0    4.09    5.31
  -4  -3   0    7.74    5.61
   4   3   1 2423.86  111.92
   4   3   1 2674.79  139.18
   4   3   1 2869.56  144.44
  -4  -3  -1 2594.01  129.14
  -4  -3  -1 2563.39  129.80
   4   3   2  948.66   42.37
   4   3   2 1085.29   55.52
   4   3   2 1106.02   59.87
  -4  -3  -2 1082.40   55.82
  -4  -3  -2 1058.29   55.14
   4   3   3  695.26   34.49
   4   3   3  726.54   44.49
  -4  -3  -3  741.02   41.94
  -4  -3  -3  686.60   39.71
  -4  -3  -4 2613.67  132.63
  -4  -3  -4 2514.74  130.71
  -4  -3  -5 1490.90   81.43
  -4  -3  -5 1570.54   84.60
  -4  -3  -6    1.35    7.14
  -4  -3  -6    9.34   11.29
  -4  -3  -7  565.20   36.21
  -4  -3  -7  592.72   42.22
   4   3   8  477.88   28.56
  -4  -3  -8  472.93   37.88
  -4  -3  -9   39.03   21.02
  -4  -3 -10  514.31   36.40
  -4  -3 -11   -1.19    4.81
   4   4  -5  433.49   30.81
   4   4  -5  390.61   30.05
  -4  -4   5  354.48   21.13
   4   4  -4  102.17   17.14
   4   4  -4  119.69   16.89
  -4  -4   4   95.99   12.74
   4   4  -3 1254.10   71.74
   4   4  -3 1380.59   82.42
  -4  -4   3 1085.24   75.49
   4   4  -2  577.01   37.71
   4   4  -2  599.49   49.21
  -4  -4   2  522.44   48.19
   4   4  -1   80.22   13.23
   4   4  -1  101.65   44.03
  -4  -4   1   77.99   14.74
   4   4   0 6320.59  351.80
   4   4   0 6401.63  396.96
  -4  -4   0 6417.31  355.27
  -4  -4   0 6333.42  368.83
   4   4   1   26.52    6.32
   4   4   1   26.30   15.39
  -4  -4  -1   24.84    8.17
  -4  -4  -1   24.80   10.70
   4   4   2  984.66   50.76
   4   4   2 1005.48   60.78
  -4  -4  -2 1087.24   56.78
  -4  -4  -2  998.72   58.10
   4   4   3 1350.38   70.91
  -4  -4  -3 1541.43   79.52
  -4  -4  -3 1475.21   81.20
  -4  -4  -4   75.74   17.00
  -4  -4  -4   78.92   15.01
  -4  -4  -5  311.60   31.28
  -4  -4  -5  301.83   28.45
  -4  -4  -6  897.61   60.51
  -4  -4  -6  902.07   61.58
  -4  -4  -7  464.05   37.70
  -4  -4  -7  453.67   36.87
   4   4   8  154.81   18.50
  -4  -4  -8  151.11   23.43
   4   4   9  342.42   23.56
  -4  -4  -9  344.94   31.01
  -4  -4 -10   15.47    9.27
  -4  -4 -11  244.95   20.54
   4   5  -4  556.26   35.37
   4   5  -4  554.74   44.49
  -4  -5   4  526.43   31.63
   4   5  -3   28.49   11.46
   4   5  -3   34.95   12.66
  -4  -5   3   33.40   10.76
   4   5  -2  939.78   56.17
   4   5  -2 1037.28   66.82
  -4  -5   2  897.97   57.14
   4   5  -1  131.65   16.92
   4   5  -1  148.88   24.30
  -4  -5   1  136.49   20.48
   4   5   0 1059.24   58.53
   4   5   0 1148.80   73.11
  -4  -5   0 1103.54   68.98
   4   5   1 2249.38  126.00
   4   5   1 2410.02  134.01
  -4  -5  -1 2275.12  122.98
  -4  -5  -1 2353.73  134.81
   4   5   2 1331.59   66.23
   4   5   2 1340.16   73.70
  -4  -5  -2 1438.29   75.41
  -4  -5  -2 1405.38   83.41
   4   5   3    6.78    5.13
  -4  -5  -3    5.63    8.18
  -4  -5  -3    7.03    9.40
  -4  -5  -4 1509.37   86.63
  -4  -5  -4 1410.47   84.82
  -4  -5  -5  559.12   44.77
  -4  -5  -5  523.72   42.36
  -4  -5  -6  177.42   27.74
  -4  -5  -6  161.32   24.08
  -4  -5  -7 2492.96  163.94
   4   5   8  381.52   32.74
  -4  -5  -8  357.07   34.23
   4   5   9  423.90   30.92
  -4  -5  -9  413.42   34.43
   4   5  10   44.52    9.29
  -4  -5 -10   36.86   19.21
  -4  -5 -11    0.49    3.50
   4   6  -3 1063.06   55.60
   4   6  -3 1004.31   54.56
  -4  -6   3  997.41   54.14
   4   6  -2  151.95   21.37
   4   6  -2  140.19   28.78
  -4  -6   2  142.01   19.91
   4   6  -1  478.97   47.46
   4   6  -1  516.86   40.64
  -4  -6   1  486.59   39.66
   4   6   0  959.46   55.67
   4   6   0 1031.57   63.72
  -4  -6   0  961.75   65.08
   4   6   1   27.36    8.99
   4   6   1   22.27   10.61
  -4  -6  -1   15.71   13.21
   4   6   2  602.28   35.29
   4   6   2  695.94   39.58
  -4  -6  -2  617.02   34.11
  -4  -6  -2  662.45   49.93
   4   6   3  433.98   26.01
   4   6   3  461.57   26.05
  -4  -6  -3  494.24   31.38
  -4  -6  -3  503.55   42.40
  -4  -6  -4  219.52   23.41
  -4  -6  -4  210.20   26.94
  -4  -6  -5  112.03   20.03
  -4  -6  -5  104.75   22.75
  -4  -6  -6  130.43   23.29
  -4  -6  -6  134.41   22.53
   4   6   7    4.55    8.84
  -4  -6  -7    3.09   14.65
   4   6   8  336.94   32.28
  -4  -6  -8  313.20   30.43
   4   6   9  210.53   23.51
  -4  -6  -9  216.26   23.10
   4   6  10    3.57    5.52
  -4  -6 -10    2.81    5.64
   4   7  -1   53.14   12.03
   4   7  -1   59.61   11.23
  -4  -7   1   64.87   13.83
   4   7   0    6.73   11.39
   4   7   0    5.30    6.12
  -4  -7   0    2.70    8.16
   4   7   1  634.96   48.75
   4   7   1  575.39   35.03
  -4  -7  -1  600.62   45.92
   4   7   2  122.01   13.76
   4   7   2  121.72   19.36
  -4  -7  -2  130.67   22.18
   4   7   3   97.01   11.50
  -4  -7  -3  111.14   31.57
   4   7   4  173.05   18.95
  -4  -7  -4 1024.60   46.88
   4   7   5    8.66    7.23
  -4  -7  -5    7.92   10.57
   4   7   6  302.75   27.47
  -4  -7  -6  298.60   30.83
   4   7   7  290.33   27.94
  -4  -7  -7  300.00   42.94
   4   7   8    2.85    6.01
  -4  -7  -8   -0.37    5.22
   4   7   9  207.06   22.45
  -4  -7  -9  218.14   20.11
   4   7  10   30.06   16.13
  -4  -7 -10   33.68   12.92
   4   8   1    4.11    5.85
  -4  -8  -1   -5.15    8.76
   4   8   2  504.31   37.86
  -4  -8  -2  495.61   35.70
   4   8   3  121.70   12.19
  -4  -8  -3  131.12   18.86
  -4  -8  -4   50.49   14.50
   4   8   5  308.08   18.50
  -4  -8  -5  373.08   30.32
   4   8   6   36.81    8.06
  -4  -8  -6   27.99   12.03
   4   8   7   53.40   10.89
  -4  -8  -7   40.09   18.67
   4   8   8  238.22   20.32
  -4  -8  -8  218.69   18.51
   5  -7  -6  115.33   13.42
   5  -7  -5   50.39   10.97
   5  -7  -4  284.56   24.15
   5  -7  -3  215.32   21.38
  -5   7   3  194.51   14.27
   5  -7  -2  138.56   17.74
  -5   7   2  138.34   14.57
   5  -7  -1  353.73   27.09
  -5   7   1  347.65   26.33
   5  -7   0  142.68   17.15
  -5   7   0  143.44   17.68
   5  -7   1   89.71   13.11
  -5   7  -1   88.61   14.92
   5  -7   2  184.03   16.30
  -5   7  -2  185.89   18.08
   5  -6  -7    1.46    3.88
  -5   6   7    0.71    2.99
  -5   6   7   -0.89    6.10
   5  -6  -6  246.64   20.53
  -5   6   6  224.02   16.54
  -5   6   6  239.78   28.84
   5  -6  -5  400.23   27.59
  -5   6   5  316.06   20.64
  -5   6   5  350.19   32.24
   5  -6  -4    5.09    6.56
  -5   6   4    1.47    5.99
   5  -6  -3  514.42   49.74
  -5   6   3  499.38   30.50
   5  -6  -2  268.86   25.59
  -5   6   2  273.75   23.27
   5  -6  -1    3.48    7.14
  -5   6   1    5.21    7.14
   5  -6   0  287.83   25.74
  -5   6   0  260.20   26.86
   5  -6   1  277.79   25.33
  -5   6  -1  252.04   27.22
   5  -6   2    6.04    7.38
  -5   6  -2    4.78    7.95
   5  -6   3  264.87   23.19
  -5   6  -3  238.13   22.37
   5  -6   4  138.27   15.33
  -5   6  -4  124.14   12.77
   5  -5  -7  485.42   29.13
  -5   5   7  442.62   28.42
  -5   5   7  472.61   48.48
   5  -5  -6  110.81   14.20
  -5   5   6  100.64   13.74
  -5   5   6   97.95   18.18
   5  -5  -5  268.00   22.29
  -5   5   5  240.08   19.59
  -5   5   5  247.04   24.12
   5  -5  -4  358.32   27.64
  -5   5   4  359.37   21.83
  -5   5   4  296.71   21.10
  -5   5   4  327.35   25.56
   5  -5  -3  134.60   17.47
  -5   5   3  125.12   13.54
  -5   5   3  136.08   15.55
   5  -5  -2  251.92   23.38
  -5   5   2  245.25   23.53
   5  -5  -1  747.21   46.13
  -5   5   1  726.55   49.04
   5  -5   0  111.68   16.88
  -5   5   0   91.69   18.94
   5  -5   1   -0.84   17.70
  -5   5  -1  605.64   30.69
  -5   5  -2  415.22   36.13
  -5   5  -2  312.88   30.71
  -5   5  -3    7.00    9.20
  -5   5  -3    4.00    7.69
  -5   5  -4  291.19   29.15
  -5   5  -4  251.52   21.87
  -5   5  -5  417.57   33.80
  -5   5  -5  355.18   20.75
  -5   5  -6    8.41    7.30
   5  -4  -8  318.60   20.02
  -5   4   8  302.07   22.43
   5  -4  -7   -0.73    3.29
  -5   4   7    1.20    4.40
  -5   4   7    7.81    8.64
   5  -4  -6  812.39   53.34
  -5   4   6  811.50   48.64
  -5   4   6  809.01   54.99
   5  -4  -5  186.96   17.46
  -5   4   5  176.79   17.86
  -5   4   5  157.98   24.05
   5  -4  -4  121.61   15.10
  -5   4   4  128.26   12.49
  -5   4   4  105.28   12.81
  -5   4   4   97.46   17.96
   5  -4  -3 1384.15   84.51
  -5   4   3 1257.49   72.44
  -5   4   3 1490.13   78.14
   5  -4  -2   94.05   13.28
  -5   4   2   75.85   12.05
  -5   4   2   89.47   15.11
   5  -4  -1  351.53   25.96
  -5   4   1  356.12   29.90
  -5   4   1  316.88   19.11
   5  -4   0 1028.20   56.76
  -5   4   0  992.97   62.30
  -5   4  -1  156.15   21.40
  -5   4  -1  151.10   22.21
  -5   4  -2  170.01   22.85
  -5   4  -2  152.90   21.85
  -5   4  -3  861.34   54.83
  -5   4  -3  635.15   45.58
  -5   4  -4   61.62   16.82
  -5   4  -4   62.38   12.53
  -5   4  -5  116.51   19.14
  -5   4  -5  105.15   11.83
  -5   4  -6  247.23   24.80
  -5   4  -7    3.40    5.92
   5  -3  -8  129.27   13.39
  -5   3   8  129.00   13.76
   5  -3  -7  216.35   19.84
  -5   3   7  255.06   34.31
   5  -3  -6  184.88   14.99
  -5   3   6  181.81   20.80
  -5   3   6  177.05   24.63
   5  -3  -5 1126.72   57.40
  -5   3   5 1149.65   72.70
  -5   3   5 1154.63   64.97
   5  -3  -4 1043.21   52.16
  -5   3   4 1032.26   52.30
  -5   3   4  985.40   54.08
  -5   3   4  921.54   61.00
   5  -3  -3   93.23   11.58
  -5   3   3   90.68   13.95
  -5   3   3   81.45   10.23
  -5   3   3   77.91   16.35
   5  -3  -2 1665.47   81.19
  -5   3   2 1572.55   86.67
  -5   3   2 1818.41   96.97
   5  -3  -1  894.02   45.27
  -5   3   1  932.01   55.29
  -5   3   1  819.39   54.16
   5  -3   0    4.19    4.99
  -5   3   0    6.64    7.24
  -5   3   0    2.62    3.66
  -5   3  -1 1342.64   73.48
  -5   3  -1 1331.65   76.41
  -5   3  -2 1504.48   82.78
  -5   3  -2 1419.37   82.02
  -5   3  -3   91.80   16.05
  -5   3  -3   86.43   15.52
  -5   3  -4  407.86   33.17
  -5   3  -4  411.37   28.40
  -5   3  -5  403.12   32.99
  -5   3  -5  383.19   24.33
  -5   3  -6  184.22   22.09
  -5   3  -7  310.67   26.59
  -5   3  -8    7.04    6.45
   5  -2  -8   45.98    9.11
   5  -2  -7  690.84   40.36
  -5   2   7  671.81   40.09
   5  -2  -6  182.70   22.20
  -5   2   6  820.01   49.14
  -5   2   5   34.61   11.54
  -5   2   5   39.58   14.61
  -5   2   4  233.67   17.22
  -5   2   4  219.05   19.82
  -5   2   4  230.73   27.18
   5  -2  -3 1571.07   73.13
  -5   2   3 1693.66   86.27
  -5   2   3 1460.64   73.99
  -5   2   3 1566.54   90.71
   5  -2  -2  348.13   24.39
  -5   2   2  381.68   40.05
  -5   2   2  342.35   29.08
   5  -2  -1  516.32   25.80
  -5   2   1  581.77   37.97
  -5   2   1  499.18   43.13
   5  -2   0 2272.76  106.73
  -5   2   0 2376.67  125.77
  -5   2   0 2217.21  110.95
  -5   2  -1  151.04   13.92
  -5   2  -1  148.31   19.17
  -5   2  -1  146.58   11.78
  -5   2  -2  186.75   15.75
  -5   2  -2  108.70   17.56
  -5   2  -3 1074.32   57.85
  -5   2  -3 1075.24   59.34
  -5   2  -4    8.85    7.42
  -5   2  -4    9.49    6.03
  -5   2  -5  304.53   38.05
  -5   2  -5  327.39   20.58
  -5   2  -6  198.73   33.02
  -5   2  -7   31.27   18.07
  -5   2  -8  254.86   23.52
  -5   2  -9  159.37   14.87
   5  -1  -8  486.95   27.39
   5  -1  -7  713.49   41.16
  -5   1   7  701.89   36.01
   5  -1  -6    6.31    6.52
  -5   1   6    3.62    6.40
   5  -1  -5 2981.74  156.53
   5  -1  -5 2888.39  148.64
  -5   1   5 2901.35  161.18
   5  -1  -4    0.12    4.74
   5  -1  -4    5.43    5.70
  -5   1   3  520.22   32.24
  -5   1   3  445.29   27.59
  -5   1   3  473.28   51.40
  -5   1   2 3251.32  166.82
  -5   1   2 2745.13  134.60
  -5   1   2 2942.91  178.54
  -5   1   1  291.85   24.98
  -5   1   1  267.08   24.64
   5  -1   0  464.91   20.62
  -5   1   0  542.33   35.62
  -5   1   0  516.91   32.63
  -5   1  -1  316.56   25.51
  -5   1  -1  309.84   21.45
  -5   1  -2  561.23   28.30
  -5   1  -2  604.21   37.03
  -5   1  -2  627.01   31.88
  -5   1  -3  498.95   23.51
  -5   1  -3  471.56   25.94
  -5   1  -3  536.68   31.20
  -5   1  -4  655.70   44.09
  -5   1  -4  711.94   37.02
  -5   1  -5   55.61   10.65
  -5   1  -6  858.05   50.53
  -5   1  -6  919.03   44.26
  -5   1  -7  340.61   26.91
  -5   1  -7  351.71   21.20
   5  -1   8    7.43    5.10
  -5   1  -8    9.46    7.26
  -5   1  -9  563.38   43.09
   5   0  -7  484.71   30.04
   5   0  -6  993.55   54.62
  -5   0   6  959.38   49.39
   5   0  -5   11.39    8.10
   5   0  -5   14.43    8.25
  -5   0   5   10.67    7.50
   5   0  -4  905.62   50.17
   5   0  -4  973.12   56.89
  -5   0   4  962.49   56.76
   5   0  -3  799.48   41.56
  -5   0   3  869.26   53.76
   5   0  -2   68.11    7.82
  -5   0   2   69.72   14.06
  -5   0   2   75.86   15.58
  -5   0   1  667.45   41.57
  -5   0   1  638.03   43.33
  -5   0   0 2024.36  105.63
  -5   0   0 1981.99  105.91
  -5   0  -1  158.31   27.21
  -5   0  -1  170.42   18.01
  -5   0  -2 1383.46   85.06
  -5   0  -2 1429.51   72.15
  -5   0  -3  593.01   31.08
  -5   0  -3  619.39   33.43
  -5   0  -4  200.02   13.01
  -5   0  -4  170.89   16.27
  -5   0  -4  188.60   13.62
  -5   0  -5 1187.51   58.91
  -5   0  -5 1260.92   63.22
  -5   0  -6  303.74   21.77
  -5   0  -6  354.52   20.88
  -5   0  -7  304.99   23.02
  -5   0  -7  363.20   23.17
  -5   0  -8  404.45   28.29
  -5   0  -8  471.62   28.84
   5   0   9   -7.36    9.01
  -5   0  -9  103.98   10.08
   5   0  10  179.05   13.55
  -5   0 -10  150.10   17.94
   5   1  -7  182.57   15.73
   5   1  -6  277.66   23.57
   5   1  -5  831.63   48.19
   5   1  -5  896.71   68.45
  -5  -1   5  825.87   42.86
   5   1  -4  353.51   26.18
   5   1  -4  388.22   35.58
  -5  -1   4  360.27   25.28
   5   1  -3  574.17   33.34
   5   1  -3  650.36   47.88
  -5  -1   3  626.19   39.50
   5   1  -2 1529.41   74.88
   5   1  -2 1817.67  103.12
  -5  -1   2 1711.07   92.66
  -5  -1   1   93.54   15.21
  -5  -1   1   76.11   15.78
  -5  -1   0 1620.46   85.82
  -5  -1   0 1557.27   85.63
  -5  -1  -1 1209.93   64.35
  -5  -1  -1 1208.16   66.83
  -5  -1  -2  133.77   24.66
  -5  -1  -2  147.03   15.26
  -5  -1  -3 1539.58   77.18
  -5  -1  -3 1570.78   74.39
  -5  -1  -3 1445.32   70.10
  -5  -1  -4 1296.22   63.04
  -5  -1  -4 1227.21   56.43
  -5  -1  -4 1238.42   58.25
  -5  -1  -5   10.00    8.32
  -5  -1  -5   10.14    5.46
  -5  -1  -6 1156.42   59.79
  -5  -1  -7  207.78   25.78
  -5  -1  -8    8.81    5.77
  -5  -1  -8   20.29    7.67
  -5  -1  -9  277.41   19.25
  -5  -1  -9  368.96   25.53
  -5  -1 -10   76.67    8.29
  -5  -1 -10  111.44   12.22
   5   2  -6  675.48   38.09
   5   2  -5  138.51   25.49
   5   2  -5  142.09   15.78
   5   2  -4 1700.25   90.03
   5   2  -4 1788.92  133.88
   5   2  -3  276.01   21.48
   5   2  -3  297.33   36.87
  -5  -2   3  279.70   20.33
   5   2  -2  378.63   23.41
   5   2  -2  432.31   42.24
  -5  -2   2  404.54   27.99
   5   2  -1 1333.91   70.42
   5   2  -1 1498.55   90.28
  -5  -2   1 1482.94   79.82
   5   2   0   12.58   23.42
  -5  -2   0  253.36   20.23
  -5  -2  -1  265.95   33.95
  -5  -2  -1  273.65   20.81
  -5  -2  -1  245.14   18.75
  -5  -2  -2  900.94   51.10
  -5  -2  -2  892.55   44.55
  -5  -2  -2  797.48   37.59
  -5  -2  -3  140.94   16.97
  -5  -2  -3  130.67   11.42
  -5  -2  -3  135.33   11.56
  -5  -2  -4   41.23   10.50
  -5  -2  -4   37.41    5.47
  -5  -2  -4   45.72    8.45
  -5  -2  -5  957.65   64.33
  -5  -2  -5  979.30   52.08
  -5  -2  -6  133.74   15.40
  -5  -2  -6  136.57   15.95
  -5  -2  -7  505.08   28.01
  -5  -2  -7  527.20   34.84
  -5  -2  -8  495.25   44.03
  -5  -2  -9    3.15    6.11
  -5  -2 -10  277.69   22.79
   5   3  -5  782.55   43.87
   5   3  -5  787.14   39.33
   5   3  -4   86.09   13.58
   5   3  -4   92.23   16.48
   5   3  -3 1184.48   63.49
   5   3  -3 1194.91  105.35
   5   3  -2  768.72   41.71
   5   3  -2  827.78   69.70
  -5  -3   2  726.98   38.77
   5   3  -1   72.61    9.33
   5   3  -1   94.82   24.53
  -5  -3   1   71.31   11.68
  -5  -3   1   61.56    9.21
   5   3   0 2030.71  120.35
  -5  -3   0 1876.74   98.13
  -5  -3   0 1680.48   86.07
   5   3   1  821.73   53.71
  -5  -3  -1  778.37   46.47
  -5  -3  -1  704.54   38.45
   5   3   2  273.10   24.07
  -5  -3  -2  277.82   24.34
  -5  -3  -2  236.25   17.63
   5   3   3  877.40   45.56
  -5  -3  -3  947.76   53.81
  -5  -3  -3  804.45   43.29
  -5  -3  -4  282.86   24.98
  -5  -3  -4  256.00   21.31
  -5  -3  -5  346.50   31.90
  -5  -3  -5  365.31   28.12
  -5  -3  -6 1240.43   71.79
  -5  -3  -6 1227.76   69.52
  -5  -3  -7   69.73   13.11
  -5  -3  -7   62.34   14.65
   5   3   8  639.85   35.46
  -5  -3  -8  637.96   43.20
  -5  -3  -9  131.06   26.43
  -5  -3 -10   89.94   14.27
   5   4  -4  663.72   38.61
   5   4  -4  717.60   40.75
   5   4  -3  132.58   15.55
   5   4  -3  144.75   21.42
   5   4  -2  281.66   21.64
   5   4  -2  338.81   35.91
  -5  -4   2  245.97   19.43
   5   4  -1  328.36   22.05
   5   4  -1  377.10   68.01
  -5  -4   1  343.32   20.92
  -5  -4   1  291.13   22.87
   5   4   0   65.49    8.79
   5   4   0   85.79   25.00
  -5  -4   0   76.29   11.29
  -5  -4   0   64.15   11.86
   5   4   1  110.95   25.13
  -5  -4  -1  114.51   15.46
  -5  -4  -1  102.42   14.60
   5   4   2 1626.91   95.96
  -5  -4  -2 1729.13   92.85
  -5  -4  -2 1602.94  101.32
   5   4   3   94.78   14.67
  -5  -4  -3  111.02   16.84
  -5  -4  -3   84.52   14.17
  -5  -4  -4  840.14   72.37
  -5  -4  -4  840.74   51.15
  -5  -4  -5  463.28   41.05
  -5  -4  -5  469.09   35.75
  -5  -4  -6    6.66    9.99
  -5  -4  -6    5.53   14.18
  -5  -4  -7  557.12   41.75
  -5  -4  -7  532.33   40.51
   5   4   8  862.28   50.79
  -5  -4  -8  826.35   55.31
   5   4   9   97.22   11.81
  -5  -4  -9   97.60   16.89
  -5  -4 -10  179.18   18.47
   5   5  -3  871.88   54.82
   5   5  -3  959.66   52.39
  -5  -5   3  776.65   37.32
   5   5  -2  168.11   15.57
   5   5  -2  185.09   23.76
  -5  -5   2  154.81   15.45
   5   5  -1  443.22   27.71
   5   5  -1  537.71   41.93
  -5  -5   1  434.40   30.66
   5   5   0  551.81   38.52
   5   5   0  651.53   48.27
  -5  -5   0  558.35   37.98
   5   5   1   24.41   12.16
  -5  -5  -1   19.17   11.88
  -5  -5  -1   22.90   10.15
   5   5   2  246.46   23.72
  -5  -5  -2  255.45   23.49
  -5  -5  -2  249.21   36.39
   5   5   3  372.49   24.71
  -5  -5  -3  403.37   32.58
  -5  -5  -3  371.76   30.87
  -5  -5  -4  107.31   20.17
  -5  -5  -4  106.23   18.23
  -5  -5  -5  311.52   33.15
  -5  -5  -5  281.91   28.95
  -5  -5  -6  581.78   48.12
  -5  -5  -6  524.47   42.11
  -5  -5  -7  301.42   32.33
  -5  -5  -7  274.21   29.93
   5   5   8  554.63   39.87
  -5  -5  -8  518.58   39.89
   5   5   9  176.41   18.55
  -5  -5  -9  178.11   21.47
  -5  -5 -10    1.75    8.28
   5   6  -2  128.01   12.03
   5   6  -2  140.15   24.84
  -5  -6   2  130.02   11.48
   5   6  -1  397.89   24.08
   5   6  -1  442.20   33.05
  -5  -6   1  389.90   27.32
   5   6   0   21.34    6.61
   5   6   0   27.46   11.08
  -5  -6   0   24.22    9.85
   5   6   1  465.10   27.08
   5   6   1  576.38   36.80
  -5  -6  -1  523.59   37.91
   5   6   2  467.46   28.86
  -5  -6  -2  419.96   26.22
  -5  -6  -2  433.73   48.08
   5   6   3   70.46    9.16
  -5  -6  -3   72.02   13.16
  -5  -6  -3   77.73   16.49
  -5  -6  -4  904.56   55.44
  -5  -6  -4  830.22   56.01
  -5  -6  -5  246.24   28.65
  -5  -6  -5  245.90   28.20
  -5  -6  -6  384.14   37.12
  -5  -6  -6  370.77   35.44
   5   6   7   64.05   17.40
  -5  -6  -7   71.40   25.99
   5   6   8  126.87   19.40
  -5  -6  -8  110.51   18.96
   5   6   9   17.80    9.57
  -5  -6  -9   24.43   10.05
   5   6  10  116.26   12.10
  -5  -6 -10  112.31   21.77
   5   7   0  210.29   15.98
  -5  -7   0  173.08   16.31
   5   7   1    5.34    8.57
  -5  -7  -1    6.39    6.63
   5   7   2  332.81   26.41
  -5  -7  -2  316.91   27.09
   5   7   3   27.76    6.55
  -5  -7  -3  141.11   14.72
   5   7   4    1.27    4.23
  -5  -7  -4    4.29    6.97
   5   7   5  161.62   17.63
  -5  -7  -5  148.86   22.54
   5   7   6  173.33   20.19
  -5  -7  -6  180.54   23.26
   5   7   7    7.73    8.43
  -5  -7  -7    9.08    8.51
   5   7   8  297.62   25.52
  -5  -7  -8  267.42   23.83
   5   7   9   56.84   11.95
  -5  -7  -9   56.95   11.08
  -5  -8  -3    8.77    7.29
  -5  -8  -4  194.47   20.35
   5   8   5   39.17    4.43
  -5  -8  -5   55.63   12.25
   5   8   6  114.39   10.86
  -5  -8  -6  130.13   26.16
   5   8   7  112.69   12.04
  -5  -8  -7  104.74   13.79
   6  -7  -2  240.34   18.46
   6  -7  -1  105.46   16.75
  -6   7   1    3.26   14.61
   6  -6  -5    7.69    4.90
   6  -6  -4  285.55   15.91
  -6   6   4   99.17    6.07
   6  -6  -3  185.07   17.13
  -6   6   3  179.22   14.02
   6  -6  -2   80.54   20.45
  -6   6   2   78.37   20.09
   6  -6  -1  491.25   31.81
  -6   6   1  339.80   28.26
   6  -6   0  169.68   17.54
  -6   6   0  152.07   19.45
   6  -6   1  338.48   24.39
  -6   6  -1  317.36   27.25
   6  -6   2  148.81   15.44
  -6   6  -2  144.48   16.95
   6  -6   3    1.55    4.24
  -6   6  -3    2.11    4.19
  -6   5   6  195.13   17.14
   6  -5  -5  259.56   16.82
  -6   5   5  250.76   19.77
   6  -5  -4    1.90    3.63
  -6   5   4   -0.08    3.67
   6  -5  -3  150.90   15.59
  -6   5   3  140.87   14.68
  -6   5   3  124.20   11.89
   6  -5  -2 1048.82   68.27
  -6   5   2 1159.34   80.04
   6  -5  -1   53.89   11.63
  -6   5   1   59.86   14.23
   6  -5   0  430.77   29.73
  -6   5   0  429.68   34.95
   6  -5   1  263.93   22.94
  -6   5  -1  253.57   27.15
   6  -5   2   99.13   14.54
  -6   5  -2   80.24   16.09
   6  -5   3  500.56   29.69
  -6   5  -3  186.50   22.08
   6  -5   4  130.88   15.00
  -6   5  -4  121.23   12.34
  -6   4   6  221.51   21.71
   6  -4  -5  293.26   23.84
  -6   4   5  261.60   24.78
   6  -4  -4  566.75   29.62
  -6   4   4  585.90   29.98
  -6   4   4  466.91   35.10
   6  -4  -3    3.27    4.75
  -6   4   3    4.52    6.00
  -6   4   3    8.03    6.14
   6  -4  -2    4.75    8.14
  -6   4   2    1.74   11.81
  -6   4   2    5.89    5.08
   6  -4  -1  783.22   42.90
  -6   4   1  847.23   54.75
   6  -4   0   59.59   10.89
  -6   4   0   60.05   16.08
   6  -4   1  301.82   22.92
  -6   4  -1  296.75   29.42
   6  -4   2  243.04   20.57
  -6   4  -2  207.81   24.74
  -6   4  -3    1.43    4.24
  -6   4  -3   -1.80    4.14
  -6   4  -4  280.64   25.17
  -6   4  -4  237.43   20.28
  -6   4  -5  372.10   28.47
  -6   4  -5  324.32   18.78
  -6   4  -6   92.17   13.32
  -6   3   7    2.65    4.97
  -6   3   6   90.43   16.16
  -6   3   5 1986.62  111.31
  -6   3   4  129.13   12.45
  -6   3   4  121.43   19.62
  -6   3   3 1145.78   61.01
  -6   3   3  912.34   58.43
   6  -3  -2  305.65   18.97
  -6   3   2  326.12   27.80
  -6   3   2  282.57   24.85
   6  -3  -1  328.61   20.57
  -6   3   1  373.68   32.20
  -6   3   1  324.29   23.37
   6  -3   0  797.47   41.20
  -6   3   0  893.43   57.31
  -6   3   0  794.25   41.21
   6  -3   1   85.80   10.82
  -6   3  -1   88.49   17.87
  -6   3  -2 2450.50  138.97
  -6   3  -3   36.59   10.37
  -6   3  -3   27.02   11.14
  -6   3  -4   13.92    9.23
  -6   3  -4   22.27    7.93
  -6   3  -5  104.06   15.12
  -6   3  -5   89.44   10.21
  -6   3  -6  294.62   24.03
  -6   3  -7    6.30    5.85
  -6   2   7  613.51   31.52
   6  -2  -6   63.08    7.91
  -6   2   6   70.65   13.48
   6  -2  -5   37.64    7.73
   6  -2  -5   42.72    7.13
  -6   2   5   50.35   14.24
  -6   2   4  939.86   62.07
  -6   2   3    7.44    6.69
  -6   2   3    3.93    8.76
  -6   2   2  400.95   31.43
  -6   2   2  356.68   32.10
  -6   2   1  395.12   34.33
  -6   2   1  385.27   30.26
  -6   2   0    1.52   12.10
  -6   2   0    2.18    4.85
  -6   2  -1  529.11   39.66
  -6   2  -1  504.55   29.21
  -6   2  -2 3329.79  186.92
  -6   2  -3 1186.38   62.99
  -6   2  -3 1272.86   70.78
  -6   2  -4 1238.76   66.94
  -6   2  -4 1309.99   69.26
  -6   2  -5   87.96   12.34
  -6   2  -5   83.71    9.83
  -6   2  -6  111.47   13.89
  -6   2  -7  341.47   23.17
  -6   2  -8    5.13    4.46
   6  -1  -6  433.61   23.36
  -6   1   6  502.50   29.30
   6  -1  -5  106.79   13.48
   6  -1  -5   96.30   10.47
  -6   1   5  119.04   17.44
   6  -1  -4  155.59   18.70
  -6   1   4  157.44   22.47
  -6   1   3 1004.56   56.48
  -6   1   3 1009.21   66.49
  -6   1   2  144.08   19.80
  -6   1   2  136.24   21.90
  -6   1   1 2543.28  141.74
  -6   1   1 2425.64  138.20
  -6   1   0  468.75   37.87
  -6   1   0  455.67   33.74
  -6   1  -1   17.46   18.25
  -6   1  -1   23.44    8.58
  -6   1  -2  700.32   37.78
  -6   1  -2  789.88   63.74
  -6   1  -3  785.08   46.41
  -6   1  -4    7.39    5.61
  -6   1  -5  224.47   16.26
  -6   1  -6   82.17   10.46
  -6   1  -7  109.71   11.39
  -6   1  -8  235.66   15.75
   6   0  -5  340.71   26.32
   6   0  -5  338.59   20.54
  -6   0   5  386.48   25.89
   6   0  -4  529.07   38.80
   6   0  -4  463.91   26.01
  -6   0   4  525.93   36.62
   6   0  -3  168.72   23.22
  -6   0   3  169.12   22.25
  -6   0   2 1038.03   61.25
  -6   0   2 1024.80   65.54
  -6   0   1 1489.26   86.98
  -6   0   1 1456.78   87.70
  -6   0   0 1429.57   83.40
  -6   0   0 1399.13   83.40
  -6   0  -1 1496.47   85.00
  -6   0  -1 1508.17   84.33
  -6   0  -2  217.56   20.16
  -6   0  -2  221.65   22.29
  -6   0  -3  471.96   28.93
  -6   0  -3  507.73   31.95
  -6   0  -4  952.36   46.77
  -6   0  -4  932.51   48.48
   6   1  -5   -0.04    2.93
   6   1  -5    1.83    3.38
   6   1  -4  253.78   29.02
   6   1  -4  221.90   22.27
  -6  -1   4  256.34   29.40
   6   1  -3 1017.71   68.98
  -6  -1   3 1001.44   59.30
   6   1  -2   -3.10    7.83
  -6  -1   2   -0.43    6.25
   6   1  -1   -0.07   30.61
  -6  -1   1  924.01   43.57
  -6  -1   0 1092.11   65.21
  -6  -1   0 1138.11   70.32
  -6  -1  -1   42.60   21.37
  -6  -1  -1   47.46   13.02
  -6  -1  -2 1248.13   70.81
  -6  -1  -2 1295.03   70.18
  -6  -1  -3 1002.83   56.66
  -6  -1  -3  994.56   52.69
  -6  -1  -4 1056.55   56.06
  -6  -1  -4  981.87   49.29
  -6  -1  -5  432.54   33.11
  -6  -1  -7  193.94   14.30
  -6  -1  -8  136.17   12.17
  -6  -1  -9   32.31    6.34
   6   2  -5  669.88   31.63
   6   2  -4   15.31    5.36
   6   2  -4   12.42    9.50
   6   2  -3   92.32   23.16
   6   2  -3   72.01    8.79
  -6  -2   3   74.76   10.41
   6   2  -2  978.29   70.97
  -6  -2   2  840.77   50.15
   6   2  -1  190.13   29.13
  -6  -2   1  176.41   31.67
   6   2   0 1209.54   77.84
  -6  -2   0 1106.16   66.42
   6   2   1 1076.68   67.50
  -6  -2  -1  941.61   59.40
   6   2   2    1.17   12.12
  -6  -2  -2   54.04   12.14
  -6  -2  -3  287.86   26.72
  -6  -2  -3  255.63   17.86
  -6  -2  -4 1902.57  103.64
  -6  -2  -5   38.65   17.09
  -6  -2  -5   40.56    7.59
  -6  -2  -6  610.39   35.76
  -6  -2  -6  551.61   31.53
  -6  -2  -7  286.75   18.33
  -6  -2  -7  288.02   20.33
  -6  -2  -8    6.36    5.13
  -6  -2  -9  197.31   15.66
  -6  -2 -10   62.11    8.08
   6   3  -4  597.31   34.59
   6   3  -3  163.04   12.40
   6   3  -3  182.82   23.77
   6   3  -2  187.96   32.72
  -6  -3   2  157.94   14.16
   6   3  -1  850.23   69.78
  -6  -3   1  812.86   46.26
   6   3   0  743.40   60.06
  -6  -3   0  707.60   46.09
   6   3   1 1771.37  105.73
  -6  -3  -1 1709.28   97.35
   6   3   2  676.46   45.55
  -6  -3  -2  677.36   47.16
   6   3   3   41.45   10.05
  -6  -3  -3   52.49   13.75
  -6  -3  -3   35.50    7.62
  -6  -3  -4  258.07   25.10
  -6  -3  -4  225.70   18.36
  -6  -3  -5  471.26   37.42
  -6  -3  -5  434.69   28.01
  -6  -3  -6   66.55   15.06
  -6  -3  -6   63.17   11.27
  -6  -3  -7  245.82   21.80
  -6  -3  -7  251.91   20.93
   6   3   8   21.22    6.28
  -6  -3  -8   29.38    8.38
  -6  -3  -9  231.04   17.90
  -6  -3 -10   67.37    9.36
   6   4  -3  437.61   31.53
   6   4  -2  347.80   33.12
   6   4  -1   44.31   16.56
  -6  -4   1   30.48    6.71
   6   4   0   71.86   23.39
  -6  -4   0   63.34   11.05
   6   4   1 2884.81  177.06
  -6  -4  -1 3049.07  164.49
   6   4   2  191.90   24.01
  -6  -4  -2  202.63   22.30
  -6  -4  -2  145.04   14.36
   6   4   3 1107.24   63.66
  -6  -4  -3 1259.49   71.76
  -6  -4  -3 1015.51   56.36
  -6  -4  -4  438.45   38.43
  -6  -4  -4  418.11   29.11
  -6  -4  -5  150.54   24.02
  -6  -4  -5  146.30   26.68
  -6  -4  -6  472.80   39.66
  -6  -4  -6  433.24   30.63
  -6  -4  -7  141.15   20.38
  -6  -4  -7  133.29   17.26
   6   4   8  966.34   51.94
  -6  -4  -8  915.87   52.57
  -6  -4  -9    6.82    9.72
  -6  -4 -10   28.36    7.13
   6   5  -2  418.14   29.66
   6   5  -1  826.36   51.52
   6   5   0    2.57    5.82
  -6  -5   0    0.48    2.62
   6   5   1  276.11   26.05
  -6  -5  -1  273.01   20.18
  -6  -5  -1  206.63   16.71
   6   5   2  421.83   29.03
  -6  -5  -2  438.83   31.28
  -6  -5  -2  350.79   24.74
   6   5   3    2.79    3.76
  -6  -5  -3   -1.02    6.34
  -6  -5  -3    0.59    4.51
  -6  -5  -4  272.09   29.42
  -6  -5  -4  248.24   22.34
  -6  -5  -5   33.08   14.07
  -6  -5  -5   24.71   10.51
  -6  -5  -6   26.72   14.07
  -6  -5  -6   22.29    9.95
  -6  -5  -7   87.59   18.20
  -6  -5  -7   77.12   15.16
   6   5   8  273.99   23.71
  -6  -5  -8  231.30   21.85
   6   5   9   35.20    7.66
  -6  -5  -9   15.44    8.76
   6   6   0  177.07   16.26
  -6  -6   0  137.27   10.08
   6   6   1  280.25   20.11
  -6  -6  -1  222.15   16.20
   6   6   2   81.60   10.26
  -6  -6  -2   75.53    9.35
  -6  -6  -2   72.34   11.25
  -6  -6  -3  430.32   28.11
  -6  -6  -3  383.44   28.03
  -6  -6  -4  110.10   17.16
  -6  -6  -4   99.77   15.89
  -6  -6  -5  609.79   43.53
  -6  -6  -5  568.53   39.53
  -6  -6  -6   91.32   18.88
  -6  -6  -6   75.20   23.14
   6   6   7   10.33    8.85
  -6  -6  -7    5.07    7.43
   6   6   8  126.11   16.75
  -6  -6  -8  114.06   15.19
   6   6   9   55.27   10.10
  -6  -6  -9   54.69    9.72
  -6  -7  -2  228.21   16.06
  -6  -7  -3   78.30   11.77
   6   7   4  165.76   12.96
  -6  -7  -4  170.17   17.45
   6   7   5   68.81   11.04
  -6  -7  -5   78.16   13.14
   6   7   6   83.78   12.80
  -6  -7  -6   72.22   12.75
   6   7   7  111.57   14.61
  -6  -7  -7   99.48   13.31
  -7   5   2  120.69   13.36
   7  -5  -1  108.89   10.09
  -7   5   1  119.92   15.48
   7  -5   0   44.38   11.23
  -7   5   0   26.13   18.45
   7  -5   1   47.39    7.40
  -7   5  -1   25.18   19.86
   7  -5   2  165.84   12.68
  -7   5  -2  177.50   27.92
  -7   5  -3   14.89   10.28
   7  -4  -4    4.63    3.70
  -7   4   4    7.25    5.44
  -7   4   3  359.54   21.95
  -7   4   3  352.04   22.48
  -7   4   2  211.09   19.51
  -7   4   2  174.47   13.57
  -7   4   1   33.10   11.62
   7  -4   0  297.44   17.75
  -7   4   0  348.41   29.33
   7  -4   1  286.10   17.50
  -7   4  -1  326.07   43.90
   7  -4   2    9.62    4.65
  -7   4  -2    8.10    8.18
   7  -4   3  381.67   21.27
  -7   4  -3  444.07   39.65
  -7   4  -4   36.50    7.19
  -7   3   5  162.02   17.72
   7  -3  -4   68.71    9.71
  -7   3   4   62.02   13.63
  -7   3   3  134.29   13.59
  -7   3   3  101.64   16.39
  -7   3   2  311.94   25.72
  -7   3   2  283.98   23.63
  -7   3   1  592.32   41.49
  -7   3   1  569.68   33.49
  -7   3   0   62.26   16.26
  -7   3  -1  268.22   40.56
  -7   3  -2  266.25   39.33
   7  -3   3  108.98    9.59
  -7   3  -3  137.48   25.09
   7  -3   4  159.90   11.87
  -7   3  -4  216.31   22.56
  -7   3  -5   58.92    6.10
  -7   2   5  463.93   31.22
   7  -2  -4  385.34   25.61
  -7   2   4  412.12   32.41
   7  -2  -3    2.49   19.29
  -7   2   3  785.08   34.29
  -7   2   2  156.23   19.15
  -7   2   2  134.21   19.56
  -7   2   1  272.97   27.54
  -7   2   1  252.66   24.02
  -7   2   0  434.13   36.75
  -7   2   0  434.51   29.40
  -7   2  -1   49.51    8.19
  -7   2  -1   57.42   14.99
  -7   2  -2    2.98    6.83
  -7   2  -3  378.13   27.94
  -7   2  -4   19.97    7.03
  -7   1   5  353.65   34.96
   7  -1  -4  411.29   29.12
  -7   1   4  450.21   32.83
   7  -1  -3    9.12    9.24
  -7   1   3    9.50    9.82
  -7   1   2  300.95   25.99
  -7   1   2  297.16   29.98
  -7   1   1  727.99   49.31
  -7   1   1  692.26   48.40
  -7   1   0   28.38   13.37
  -7   1   0   32.36   11.55
  -7   1  -1  841.51   48.89
  -7   1  -1  938.81   59.07
  -7   1  -2   87.43   11.20
  -7   1  -2  105.63   16.65
  -7   1  -3   22.74    9.14
  -7   1  -4  354.25   23.45
   7   0  -4  129.98   18.09
  -7   0   4  135.17   22.27
   7   0  -3  769.15   51.49
  -7   0   3  771.82   49.46
   7   0  -2   26.89   15.21
  -7   0   2   36.98   13.54
   7   0  -1   -2.05   25.78
  -7   0   1  351.92   26.91
  -7   0   0  481.06   37.88
  -7   0   0  486.16   55.42
  -7   0  -1    0.03    5.23
  -7   0  -1    0.97    4.84
  -7   0  -2  236.42   22.82
  -7   0  -2  224.57   20.71
  -7   0  -3  575.83   35.58
  -7   0  -3  545.08   32.78
  -7   0  -4    1.78    3.45
  -7   0  -4    0.99    3.02
   7   1  -4  142.12   24.69
   7   1  -3  228.65   28.96
  -7  -1   3  214.64   18.70
   7   1  -2  469.85   41.73
  -7  -1   2  396.09   31.61
   7   1  -1  122.93   23.54
  -7  -1   1  101.11   19.05
   7   1   0  104.70   22.84
  -7  -1   0  100.14   18.71
  -7  -1  -1  506.73   35.09
  -7  -1  -1  507.50   38.53
  -7  -1  -2  107.11   17.29
  -7  -1  -2  107.37   14.50
  -7  -1  -3   78.63   13.73
  -7  -1  -3   75.95   11.07
  -7  -1  -4  223.37   15.08
  -7  -1  -4  261.39   19.99
  -7  -1  -5  148.92   13.70
   7   2  -3  691.51   62.35
   7   2  -2   34.00   16.17
  -7  -2   2   19.52    8.30
   7   2  -1  473.32   44.54
  -7  -2   1  414.10   31.46
   7   2   0  804.98   59.05
  -7  -2   0  732.79   48.82
   7   2   1   84.25   18.95
  -7  -2  -1   68.19   16.72
   7   2   2  596.11   41.55
  -7  -2  -2  577.95   42.04
   7   2   3   82.68   12.89
  -7  -2  -3   85.94   15.90
  -7  -2  -4   68.39   13.33
  -7  -2  -5  234.62   21.85
  -7  -2  -6   36.84    8.54
   7   3  -2  463.76   36.27
   7   3  -1   22.59   16.37
  -7  -3   1   22.44    7.69
   7   3   0   45.01   19.34
  -7  -3   0   51.23   12.09
   7   3   1  299.04   33.21
  -7  -3  -1  289.45   27.29
   7   3   2  204.38   24.18
  -7  -3  -2  211.28   24.58
   7   3   3  607.86   37.92
  -7  -3  -3  639.05   44.51
  -7  -3  -4  110.30   29.16
  -7  -3  -5    7.32    8.70
  -7  -3  -6  233.77   22.82
  -7  -3  -7  172.35   15.51
  -7  -3  -7  147.18   14.54
  -7  -3  -8    1.49    2.27
   7   4  -1  374.41   30.34
   7   4   0   -0.03    5.02
  -7  -4   0   -0.61    4.95
   7   4   1  168.42   38.01
  -7  -4  -1  158.76   29.13
   7   4   2   30.24   19.43
  -7  -4  -2   32.00   20.68
   7   4   3   22.89   14.45
  -7  -4  -3   37.71   13.42
  -7  -4  -4   93.19   19.10
  -7  -4  -5  330.00   30.01
  -7  -4  -5  262.53   16.85
  -7  -4  -6    4.17    7.61
  -7  -4  -6    3.66    3.72
  -7  -4  -7   76.24   13.30
  -7  -4  -7   63.96    8.08
  -7  -4  -8  287.94   15.72
   7   5   0  416.17   26.50
   7   5   1  133.36   14.31
   7   5   2   39.52    8.06
  -7  -5  -2   41.46   10.03
  -7  -5  -3  434.27   32.25
  -7  -5  -4   87.06   15.92
  -7  -5  -4   60.43    7.65
  -7  -5  -5  113.54   18.58
  -7  -5  -5   82.38    9.29
  -7  -5  -6  350.79   31.05
  -7  -5  -6  277.65   17.98
   7   5   7    0.58    5.01
  -7  -5  -7    1.33    3.02
   7   5   8    2.87    4.26
  -7  -5  -8    1.16    4.64
  -7  -6  -4   61.47    9.18
  -7  -6  -4   19.63    3.70
  -7  -6  -5  160.72   17.74
  -7  -6  -5  126.86   10.29
   7   6   6    3.51    5.28
  -7  -6  -6    1.05    2.89
  -8   4   0   14.90    7.36
  -8   4  -1   55.66   10.42
   8  -3  -2   -1.40   14.25
  -8   3   2  166.87   10.59
  -8   3   1    0.09    1.56
  -8   3   1    0.27    3.24
  -8   3   0  144.58   17.47
  -8   3  -1  146.65   17.26
  -8   3  -2    3.36    5.45
  -8   3  -3 1055.11   51.56
   8  -2  -2  162.44   18.60
  -8   2   2  106.53   13.67
  -8   2   1  362.67   25.97
  -8   2   1  314.72   21.44
  -8   2   0  116.21   16.55
  -8   2   0   98.65   10.20
  -8   2  -1  116.73   15.74
  -8   2  -1   83.26    7.54
  -8   2  -2   90.11   14.15
  -8   2  -3    4.73    5.05
  -8   2  -4  191.05   12.37
   8  -1  -3  284.54   23.21
  -8   1   3  257.33   19.91
   8  -1  -2  104.91   17.60
  -8   1   2   85.64   14.05
   8  -1  -1   13.25   11.21
  -8   1   1   13.39    8.02
  -8   1   0 1028.69   57.40
  -8   1   0  929.32   50.87
  -8   1  -1    1.11    5.82
  -8   1  -1    2.55    4.13
  -8   1  -2  164.47   17.30
  -8   1  -2  141.15   11.24
  -8   1  -3  283.75   20.16
  -8   1  -4    8.20    3.98
   8   0  -2  382.59   32.29
  -8   0   2  332.19   25.51
   8   0  -1  249.97   27.19
  -8   0   1  207.12   21.37
   8   0   0    0.18    6.12
  -8   0   0    0.89    4.63
   8   0   1   -0.59   22.09
  -8   0  -1  465.91   25.05
  -8   0  -2  155.64   16.10
  -8   0  -2  166.63   15.93
  -8   0  -3   38.16    7.97
  -8   0  -3   42.13    7.27
   8   1  -2  120.21   20.95
  -8  -1   2  117.91   13.39
   8   1  -1  175.88   25.03
  -8  -1   1  156.21   18.61
   8   1   0  478.91   39.01
  -8  -1   0  443.23   33.16
   8   1   1    0.08    5.56
  -8  -1  -1   -0.95    4.58
   8   1   2  326.81   26.81
  -8  -1  -2  307.50   25.31
   8   1   3   95.09   12.21
  -8  -1  -3   95.62   13.25
  -8  -1  -4   42.19    9.25
  -8  -1  -5  462.69   22.81
   8   2  -1   46.07   17.24
  -8  -2   1   59.49   10.04
   8   2   0   59.16   16.91
  -8  -2   0   51.02   12.07
   8   2   1  798.14   51.85
  -8  -2  -1  754.54   47.16
   8   2   2   21.76   10.19
  -8  -2  -2   21.43   10.24
   8   2   3  116.69   13.40
  -8  -2  -3  136.65   28.23
  -8  -2  -4  157.97   17.90
  -8  -2  -5   30.73    8.14
  -8  -2  -6   53.92    6.60
   8   3   0   82.26   24.82
  -8  -3   0   93.16   19.98
   8   3   1  116.70   18.88
  -8  -3  -1  136.04   26.91
   8   3   2 1362.62   74.23
  -8  -3  -2 1552.01  102.20
  -8  -3  -3  267.78   27.03
  -8  -3  -4   96.08   15.91
  -8  -3  -5  276.15   22.83
  -8  -3  -6    0.20    2.90
  -8  -4  -2   14.64    8.02
  -8  -4  -3  125.44   17.03
  -8  -4  -4  157.27   19.31
  -8  -4  -5    0.59    4.60
  -8  -4  -6    8.69    6.66
;
_shelx_hkl_checksum              93224
loop_
_space_group_symop_id
_space_group_symop_operation_xyz
1 +X,+Y,+Z
2 -X,-Y,-Z
loop_
_atom_site_label
_atom_site_type_symbol
_atom_site_fract_x
_atom_site_fract_y
_atom_site_fract_z
_atom_site_U_iso_or_equiv
_atom_site_adp_type
_atom_site_occupancy
_atom_site_site_symmetry_order
_atom_site_calc_flag
_atom_site_refinement_flags_posn
_atom_site_refinement_flags_adp
Br1 Br 0.72201(4) 0.77733(4) 0.17627(3) 0.04337(17) Uani 1 1 d . .
N1 N 0.4459(3) 0.5865(3) 0.7474(3) 0.0376(6) Uani 1 1 d . .
N2 N 0.5473(5) 0.8758(4) 0.7413(4) 0.0600(8) Uani 1 1 d . .
C1 C 0.2596(5) 0.7241(5) 0.1068(4) 0.0489(8) Uani 1 1 d . .
H1 H 0.329581 0.808668 0.022243 0.059 Uiso 1 1 calc R U
C2 C 0.1991(5) 0.5723(5) 0.1005(3) 0.0482(8) Uani 1 1 d . .
H2 H 0.230884 0.552883 0.011934 0.058 Uiso 1 1 calc R U
C3 C 0.0896(4) 0.4441(4) 0.2251(3) 0.0373(7) Uani 1 1 d . .
C4 C 0.0208(5) 0.2873(5) 0.2194(4) 0.0471(8) Uani 1 1 d . .
H4 H 0.049496 0.267757 0.130796 0.057 Uiso 1 1 calc R U
C5 C -0.0856(5) 0.1658(5) 0.3399(4) 0.0477(8) Uani 1 1 d . .
H5 H -0.129335 0.064009 0.333450 0.057 Uiso 1 1 calc R U
C6 C -0.1307(4) 0.1923(4) 0.4750(4) 0.0407(7) Uani 1 1 d . .
H6 H -0.205055 0.107765 0.556752 0.049 Uiso 1 1 calc R U
C7 C -0.0667(4) 0.3414(4) 0.4891(3) 0.0317(6) Uani 1 1 d . .
C8 C 0.0446(4) 0.4721(4) 0.3628(3) 0.0317(6) Uani 1 1 d . .
C9 C 0.1118(4) 0.6302(4) 0.3687(3) 0.0329(6) Uani 1 1 d . .
C10 C 0.2164(4) 0.7538(4) 0.2412(4) 0.0411(7) Uani 1 1 d . .
H10 H 0.258779 0.858055 0.244381 0.049 Uiso 1 1 calc R U
C11 C 0.5931(4) 0.6218(4) 0.3616(3) 0.0329(6) Uani 1 1 d . .
C12 C 0.5689(4) 0.6682(4) 0.4818(3) 0.0351(6) Uani 1 1 d . .
H12 H 0.613534 0.778364 0.471265 0.042 Uiso 1 1 calc R U
C13 C 0.4746(4) 0.5491(4) 0.6263(3) 0.0326(6) Uani 1 1 d . .
C14 C 0.5042(4) 0.7449(4) 0.7366(4) 0.0420(7) Uani 1 1 d . .
loop_
_atom_site_aniso_label
_atom_site_aniso_U_11
_atom_site_aniso_U_22
_atom_site_aniso_U_33
_atom_site_aniso_U_23
_atom_site_aniso_U_13
_atom_site_aniso_U_12
Br1 0.0451(3) 0.0404(2) 0.0335(2) -0.00709(16) 0.00442(16) -0.00260(15)
N1 0.0411(14) 0.0383(13) 0.0338(13) -0.0173(11) -0.0009(11) 0.0011(11)
N2 0.069(2) 0.0526(18) 0.062(2) -0.0334(16) 0.0044(16) -0.0104(15)
C1 0.048(2) 0.058(2) 0.0285(16) -0.0050(15) -0.0001(14) 0.0001(16)
C2 0.050(2) 0.067(2) 0.0266(16) -0.0179(15) -0.0055(14) 0.0093(17)
C3 0.0380(17) 0.0486(18) 0.0287(15) -0.0170(13) -0.0100(13) 0.0096(13)
C4 0.051(2) 0.061(2) 0.0440(19) -0.0321(17) -0.0179(16) 0.0143(16)
C5 0.055(2) 0.0449(18) 0.055(2) -0.0291(16) -0.0170(17) 0.0076(15)
C6 0.0391(17) 0.0376(16) 0.0441(18) -0.0142(14) -0.0076(14) 0.0016(13)
C7 0.0292(15) 0.0361(14) 0.0293(14) -0.0119(12) -0.0063(11) 0.0058(11)
C8 0.0298(14) 0.0374(15) 0.0269(14) -0.0108(12) -0.0068(11) 0.0073(12)
C9 0.0286(15) 0.0396(15) 0.0268(14) -0.0099(12) -0.0028(11) 0.0049(12)
C10 0.0377(17) 0.0446(17) 0.0330(16) -0.0068(13) -0.0040(13) -0.0014(14)
C11 0.0345(15) 0.0317(14) 0.0293(14) -0.0093(11) -0.0034(11) 0.0031(11)
C12 0.0380(16) 0.0304(14) 0.0353(16) -0.0126(12) -0.0024(13) 0.0000(12)
C13 0.0293(14) 0.0358(14) 0.0307(14) -0.0127(12) -0.0011(12) 0.0039(11)
C14 0.0428(18) 0.0476(18) 0.0370(17) -0.0219(14) 0.0015(14) -0.0014(14)
loop_
_atom_type_symbol
_atom_type_description
_atom_type_scat_dispersion_real
_atom_type_scat_dispersion_imag
_atom_type_scat_source
C C 0.0181 0.0091
;
International Tables for Crystallography
(Vol. C, Tables 4.2.6.8 and 6.1.1.4)
;
H H 0.0000 0.0000
;
International Tables for Crystallography
(Vol. C, Table 6.1.1.4)
;
N N 0.0311 0.0180
;
International Tables for Crystallography
(Vol. C, Tables 4.2.6.8 and 6.1.1.4)
;
Br Br -0.6763 1.2805
;
International Tables for Crystallography
(Vol. C, Tables 4.2.6.8 and 6.1.1.4)
;
loop_
_geom_angle_atom_site_label_1
_geom_angle_atom_site_label_2
_geom_angle_atom_site_label_3
_geom_angle
_geom_angle_site_symmetry_1
_geom_angle_site_symmetry_3
C13 N1 C14 118.5(3) . .
C2 C1 C10 120.1(3) . .
C2 C1 H1 119.9 . .
C10 C1 H1 119.9 . .
C1 C2 C3 121.3(3) . .
C1 C2 H2 119.4 . .
C3 C2 H2 119.4 . .
C2 C3 C4 122.1(3) . .
C2 C3 C8 119.3(3) . .
C4 C3 C8 118.7(3) . .
C5 C4 C3 121.4(3) . .
C5 C4 H4 119.3 . .
C3 C4 H4 119.3 . .
C4 C5 C6 120.4(3) . .
C4 C5 H5 119.8 . .
C6 C5 H5 119.8 . .
C7 C6 C5 121.4(3) . .
C7 C6 H6 119.3 . .
C5 C6 H6 119.3 . .
C6 C7 C8 119.1(3) . .
C6 C7 C9 121.9(3) . 2_566
C8 C7 C9 119.0(2) . 2_566
C9 C8 C7 122.1(2) . .
C9 C8 C3 118.9(3) . .
C7 C8 C3 119.0(3) . .
C10 C9 C8 119.3(3) . .
C10 C9 C7 121.8(3) . 2_566
C8 C9 C7 118.9(2) . 2_566
C9 C10 C1 121.1(3) . .
C9 C10 H10 119.4 . .
C1 C10 H10 119.4 . .
C12 C11 C13 121.1(3) . 2_666
C12 C11 Br1 119.9(2) . .
C13 C11 Br1 119.0(2) 2_666 .
C11 C12 C13 120.9(3) . .
C11 C12 H12 119.5 . .
C13 C12 H12 119.5 . .
N1 C13 C12 123.9(3) . .
N1 C13 C11 118.2(3) . 2_666
C12 C13 C11 117.9(2) . 2_666
N2 C14 N1 173.6(3) . .
loop_
_geom_bond_atom_site_label_1
_geom_bond_atom_site_label_2
_geom_bond_distance
_geom_bond_site_symmetry_2
Br1 C11 1.879(3) .
N1 C13 1.317(3) .
N1 C14 1.336(4) .
N2 C14 1.145(4) .
C1 C2 1.358(5) .
C1 C10 1.410(5) .
C1 H1 0.9300 .
C2 C3 1.402(5) .
C2 H2 0.9300 .
C3 C4 1.417(4) .
C3 C8 1.435(4) .
C4 C5 1.349(5) .
C4 H4 0.9300 .
C5 C6 1.403(4) .
C5 H5 0.9300 .
C6 C7 1.384(4) .
C6 H6 0.9300 .
C7 C8 1.426(4) .
C7 C9 1.479(4) 2_566
C8 C9 1.423(4) .
C9 C10 1.386(4) .
C10 H10 0.9300 .
C11 C12 1.353(4) .
C11 C13 1.453(4) 2_666
C12 C13 1.444(4) .
C12 H12 0.9300 .
loop_
_geom_torsion_atom_site_label_1
_geom_torsion_atom_site_label_2
_geom_torsion_atom_site_label_3
_geom_torsion_atom_site_label_4
_geom_torsion
_geom_torsion_site_symmetry_1
_geom_torsion_site_symmetry_4
C10 C1 C2 C3 1.5(5) . .
C1 C2 C3 C4 178.1(3) . .
C1 C2 C3 C8 -1.6(5) . .
C2 C3 C4 C5 -179.5(3) . .
C8 C3 C4 C5 0.2(5) . .
C3 C4 C5 C6 -0.1(5) . .
C4 C5 C6 C7 -0.6(5) . .
C5 C6 C7 C8 1.1(4) . .
C5 C6 C7 C9 -179.4(3) . 2_566
C6 C7 C8 C9 178.7(3) . .
C9 C7 C8 C9 -0.8(4) 2_566 .
C6 C7 C8 C3 -0.9(4) . .
C9 C7 C8 C3 179.5(2) 2_566 .
C2 C3 C8 C9 0.4(4) . .
C4 C3 C8 C9 -179.4(3) . .
C2 C3 C8 C7 -180.0(3) . .
C4 C3 C8 C7 0.3(4) . .
C7 C8 C9 C10 -178.7(3) . .
C3 C8 C9 C10 0.9(4) . .
C7 C8 C9 C7 0.8(4) . 2_566
C3 C8 C9 C7 -179.5(2) . 2_566
C8 C9 C10 C1 -1.0(5) . .
C7 C9 C10 C1 179.4(3) 2_566 .
C2 C1 C10 C9 -0.2(5) . .
C13 C11 C12 C13 0.0(5) 2_666 .
Br1 C11 C12 C13 -178.3(2) . .
C14 N1 C13 C12 1.2(4) . .
C14 N1 C13 C11 -178.5(3) . 2_666
C11 C12 C13 N1 -179.7(3) . .
C11 C12 C13 C11 0.0(5) . 2_666
