#------------------------------------------------------------------------------
#$Date: 2019-11-24 18:07:40 +0200 (Sun, 24 Nov 2019) $
#$Revision: 238951 $
#$URL: file:///home/coder/svn-repositories/cod/cif/1/55/56/1555619.cif $
#------------------------------------------------------------------------------
#
# This file is available in the Crystallography Open Database (COD),
# http://www.crystallography.net/
#
# All data on this site have been placed in the public domain by the
# contributors.
#
data_1555619
loop_
_publ_author_name
'Jardim, Guilherme A. M.'
'Bower, John F.'
'da Silva J\'unior, Eufr\^anio N'
_publ_section_title
;
 Rh-Catalyzed Reactions of 1,4-Benzoquinones with Electrophiles: C-H
 Iodination, Bromination, and Phenylselenation.
;
_journal_issue                   18
_journal_name_full               'Organic letters'
_journal_page_first              4454
_journal_page_last               4457
_journal_paper_doi               10.1021/acs.orglett.6b01586
_journal_volume                  18
_journal_year                    2016
_chemical_formula_moiety         'C7 H5 I O3'
_chemical_formula_sum            'C7 H5 I O3'
_chemical_formula_weight         264.01
_space_group_crystal_system      orthorhombic
_space_group_IT_number           33
_space_group_name_Hall           'P 2c -2n'
_space_group_name_H-M_alt        'P n a 21'
_atom_sites_solution_hydrogens   geom
_audit_creation_date             2016-01-28
_audit_creation_method
;
Olex2 1.2
(compiled 2015.09.30 svn.r3233 for OlexSys, GUI svn.r5103)
;
_cell_angle_alpha                90
_cell_angle_beta                 90
_cell_angle_gamma                90
_cell_formula_units_Z            4
_cell_length_a                   8.0841(2)
_cell_length_b                   14.9751(3)
_cell_length_c                   6.26290(10)
_cell_measurement_reflns_used    6284
_cell_measurement_temperature    100
_cell_measurement_theta_max      30.09
_cell_measurement_theta_min      2.720
_cell_volume                     758.19(3)
_computing_cell_refinement       'SAINT v8.34A (Bruker, 2013)'
_computing_data_reduction        'SAINT v8.34A (Bruker, 2013)'
_computing_molecular_graphics    'Olex2 (Dolomanov et al., 2009)'
_computing_publication_material  'Olex2 (Dolomanov et al., 2009)'
_computing_structure_refinement  'ShelXL (Sheldrick, 2015)'
_computing_structure_solution
;
Superflip (Palatinus & Chapuis, 2007;Palatinus & van der Lee, 2008;
Palatinus et al., 2012)
;
_diffrn_ambient_temperature      100.02
_diffrn_detector                 'Bruker area detector'
_diffrn_detector_type            'CCD area detector'
_diffrn_measured_fraction_theta_full 1.000
_diffrn_measured_fraction_theta_max 0.998
_diffrn_measurement_device       'Bruker Apex II kappa CCD area detector'
_diffrn_measurement_device_type  'Bruker Apex II kappa CCD area detector'
_diffrn_measurement_method       '\f and \w scans'
_diffrn_radiation_monochromator  graphite
_diffrn_radiation_type           MoK\a
_diffrn_radiation_wavelength     0.71073
_diffrn_reflns_av_R_equivalents  0.0282
_diffrn_reflns_av_unetI/netI     0.0209
_diffrn_reflns_Laue_measured_fraction_full 1.000
_diffrn_reflns_Laue_measured_fraction_max 0.998
_diffrn_reflns_limit_h_max       11
_diffrn_reflns_limit_h_min       -11
_diffrn_reflns_limit_k_max       21
_diffrn_reflns_limit_k_min       -21
_diffrn_reflns_limit_l_max       8
_diffrn_reflns_limit_l_min       -8
_diffrn_reflns_number            11893
_diffrn_reflns_point_group_measured_fraction_full 1.000
_diffrn_reflns_point_group_measured_fraction_max 0.994
_diffrn_reflns_theta_full        25.242
_diffrn_reflns_theta_max         30.114
_diffrn_reflns_theta_min         2.720
_diffrn_source                   'fine-focus sealed tube'
_diffrn_standards_number         0
_exptl_absorpt_coefficient_mu    4.174
_exptl_absorpt_correction_T_max  0.7460
_exptl_absorpt_correction_T_min  0.6107
_exptl_absorpt_correction_type   multi-scan
_exptl_absorpt_process_details
;
SADABS-2014/5 (Bruker,2014/5) was used for absorption correction.
wR2(int) was 0.0643 before and 0.0415 after correction.
The Ratio of minimum to maximum transmission is 0.8186.
The \l/2 correction factor is 0.00150.
;
_exptl_crystal_colour            'clear dark orange'
_exptl_crystal_colour_lustre     clear
_exptl_crystal_colour_modifier   dark
_exptl_crystal_colour_primary    orange
_exptl_crystal_density_diffrn    2.313
_exptl_crystal_description       plate
_exptl_crystal_F_000             496
_exptl_crystal_size_max          0.304
_exptl_crystal_size_mid          0.232
_exptl_crystal_size_min          0.102
_refine_diff_density_max         0.410
_refine_diff_density_min         -0.318
_refine_diff_density_rms         0.075
_refine_ls_abs_structure_details
;
 Flack x determined using 855 quotients [(I+)-(I-)]/[(I+)+(I-)]
 (Parsons and Flack (2004), Acta Cryst. A60, s61).
;
_refine_ls_abs_structure_Flack   0.039(16)
_refine_ls_extinction_method     none
_refine_ls_goodness_of_fit_ref   1.033
_refine_ls_hydrogen_treatment    constr
_refine_ls_matrix_type           full
_refine_ls_number_parameters     101
_refine_ls_number_reflns         2225
_refine_ls_number_restraints     1
_refine_ls_restrained_S_all      1.033
_refine_ls_R_factor_all          0.0189
_refine_ls_R_factor_gt           0.0150
_refine_ls_shift/su_max          0.001
_refine_ls_shift/su_mean         0.000
_refine_ls_structure_factor_coef Fsqd
_refine_ls_weighting_details
'w=1/[\s^2^(Fo^2^)+(0.0123P)^2^+0.2322P] where P=(Fo^2^+2Fc^2^)/3'
_refine_ls_weighting_scheme      calc
_refine_ls_wR_factor_gt          0.0305
_refine_ls_wR_factor_ref         0.0316
_reflns_Friedel_coverage         0.836
_reflns_Friedel_fraction_full    1.000
_reflns_Friedel_fraction_max     0.989
_reflns_number_gt                1999
_reflns_number_total             2225
_reflns_threshold_expression     'I > 2\s(I)'
_cod_data_source_file            ol6b01586_si_003.cif
_cod_data_source_block           gj218
_cod_database_code               1555619
_shelxl_version_number           2013-4
_shelx_space_group_comment
;
The symmetry employed for this shelxl refinement is uniquely defined
by the following loop, which should always be used as a source of
symmetry information in preference to the above space-group names.
They are only intended as comments.
;
_olex2_refinement_description
;
1. Fixed Uiso
 At 1.2 times of:
  All C(H) groups
 At 1.5 times of:
  All C(H,H,H) groups
2.a Aromatic/amide H refined with riding coordinates:
 C3(H3), C4(H4)
2.b Idealised Me refined as rotating group:
 C7(H7A,H7B,H7C)
;
_shelx_res_file
;
TITL testo1 in Pna2(1)
CELL 0.71073 8.0841 14.9751 6.2629 90 90 90
ZERR 4 0.0002 0.0003 0.0001 0 0 0
LATT -1
SYMM -X,-Y,0.5+Z
SYMM 0.5-X,0.5+Y,0.5+Z
SYMM 0.5+X,0.5-Y,+Z
SFAC C H I O
UNIT 28 20 4 12

L.S. 8 0 0
PLAN  5
TEMP -173.13
BOND $H
CONF
fmap 2 53
acta
REM <olex2.extras>
REM <HklSrc "%.\\gj218.hkl">
REM </olex2.extras>

WGHT    0.012300    0.232200
FVAR       0.14647
C1    1    0.862786    0.227651    0.384798    11.00000    0.01185    0.00990 =
         0.01021    0.00296    0.00001   -0.00141
C2    1    0.960423    0.198796    0.199198    11.00000    0.01555    0.01334 =
         0.01141    0.00155   -0.00014   -0.00220
C3    1    1.021931    0.269307    0.053268    11.00000    0.01943    0.01664 =
         0.01380    0.00198    0.00276   -0.00267
AFIX  43
H3    2    1.082288    0.252652   -0.070641    11.00000   -1.20000
AFIX   0
C4    1    0.994509    0.355309    0.091935    11.00000    0.02109    0.01411 =
         0.01280    0.00185   -0.00245   -0.00356
AFIX  43
H4    2    1.038400    0.398634   -0.003288    11.00000   -1.20000
AFIX   0
C5    1    0.897642    0.385590    0.278901    11.00000    0.01421    0.01187 =
         0.01230    0.00247   -0.00454   -0.00355
C6    1    0.833470    0.315229    0.429998    11.00000    0.01013    0.01054 =
         0.01155   -0.00107   -0.00158   -0.00092
C7    1    0.725592    0.425244    0.684666    11.00000    0.02010    0.00910 =
         0.01858   -0.00305    0.00450   -0.00069
AFIX 137
H7A   2    0.661826    0.461108    0.582898    11.00000   -1.50000
H7B   2    0.834993    0.452142    0.704849    11.00000   -1.50000
H7C   2    0.667289    0.423281    0.821777    11.00000   -1.50000
AFIX   0
I1    3    0.775081    0.126101    0.580040    11.00000    0.01485    0.00789 =
         0.01294    0.00180    0.00147   -0.00061
O1    4    0.993943    0.120553    0.164064    11.00000    0.02796    0.01023 =
         0.02044   -0.00119    0.00503    0.00098
O2    4    0.869628    0.464593    0.305364    11.00000    0.02227    0.00933 =
         0.01893    0.00185   -0.00213    0.00097
O3    4    0.744295    0.335476    0.602682    11.00000    0.02048    0.00761 =
         0.01574   -0.00198    0.00530   -0.00034
HKLF 4

REM  testo1 in Pna2(1)
REM R1 =  0.0150 for    1999 Fo > 4sig(Fo)  and  0.0189 for all    2225 data
REM    101 parameters refined using      1 restraints

END

WGHT      0.0123      0.2322

REM Highest difference peak  0.410,  deepest hole -0.318,  1-sigma level  0.075
Q1    1   0.8778  0.1742  0.5749  11.00000  0.05    0.41
Q2    1   0.8786  0.0818  0.5835  11.00000  0.05    0.37
Q3    1   0.9151  0.2350  0.3325  11.00000  0.05    0.30
Q4    1   0.4579  0.4590  0.4977  11.00000  0.05    0.29
Q5    1   0.6848  0.1796  0.6456  11.00000  0.05    0.29
;
_shelx_res_checksum              73106
_shelx_hkl_file
;
   0   0   1   -0.67    0.11
   0   0  -1   -0.83    0.09
   0   0  -1   -0.64    0.09
   0   0   1   -0.78    0.10
   0   0  -2  811.03   19.04
   0   0   2  823.02   19.41
   0   0  -2  809.65   18.98
   0   0  -2  779.32   19.25
   0   0   2  823.75   19.08
   0   0  -3    0.12    0.30
   0   0   3    0.03    0.20
   0   0   3   -0.30    0.20
   0   0  -3   -0.43    0.15
   0   0   4  428.89   10.14
   0   0   4  432.42   10.15
   0   0  -4  391.88   10.65
   0   0  -4  411.32   10.12
   0   0   5    0.25    0.33
   0   0   5   -0.13    0.29
   0   0  -5   -0.06    0.46
   0   0  -6  181.79    5.96
   0   0   6  193.94    5.09
   0   0  -7    0.05    0.72
   0   0   7   -0.60    0.33
   0   0  -8   85.20    4.13
   0   0   8   97.52    3.22
  -1   0   0   -0.63    0.05
   1   0   0   -0.38    0.08
  -1   0   0   -0.56    0.07
  -1   0   0   -0.50    0.08
  -1   0   1   -0.62    0.12
  -1   0  -1   -0.54    0.11
  -1   0   1   -0.27    0.15
  -1   0   1   -0.33    0.11
  -1   0  -1   -0.45    0.10
   1   0  -1   -0.30    0.14
  -1   0  -2   -0.37    0.16
   1   0  -2   -0.30    0.18
   1   0   2   -0.26    0.18
  -1   0  -2   -0.21    0.19
  -1   0  -2   -0.37    0.25
  -1   0   2   -0.26    0.20
  -1   0   2   -0.20    0.20
  -1   0  -3    0.15    0.26
  -1   0   3   -0.22    0.22
  -1   0  -3   -0.12    0.28
   1   0   3   -0.41    0.17
  -1   0   3   -0.38    0.22
  -1   0  -3   -0.40    0.16
   1   0  -3   -0.07    0.21
  -1   0  -3    0.02    0.15
   1   0  -3   -0.18    0.29
   1   0  -4    0.84    0.49
  -1   0  -4   -0.37    0.17
   1   0  -4   -0.20    0.23
  -1   0  -4    0.83    0.41
  -1   0   4   -0.35    0.24
   1   0   4   -0.07    0.21
  -1   0  -4   -0.10    0.37
  -1   0   4    0.10    0.29
  -1   0  -5    0.61    0.57
  -1   0   5    0.10    0.36
   1   0  -5   -0.05    0.30
   1   0  -5    0.32    0.55
   1   0   5   -0.07    0.25
  -1   0   5    0.09    0.34
  -1   0  -6    0.41    0.62
   1   0  -6    0.68    0.65
  -1   0   6    0.75    0.41
   1   0   6   -0.09    0.27
  -1   0  -7    0.48    0.73
  -1   0   7   -0.09    0.40
   1   0  -7    0.27    0.69
  -1   0  -8    0.66    0.96
  -1   0   8   -0.30    0.46
   1   0  -8   -0.28    0.92
  -2   0   0  463.96   10.98
  -2   0   0  478.23   11.07
  -2   0   0  461.84   11.00
  -2   0   0  474.96   11.06
   2   0   0  451.12   11.00
  -2   0  -1  204.38    5.27
  -2   0   1  201.14    5.18
  -2   0  -1  216.76    5.08
   2   0  -1  206.04    5.13
  -2   0  -1  218.73    5.15
  -2   0   1  192.64    5.11
  -2   0  -1  211.99    5.09
  -2   0   1  202.72    5.08
  -2   0  -2  377.51    9.82
  -2   0  -2  402.49    9.59
  -2   0   2  404.06    9.49
   2   0  -2  390.99    9.64
  -2   0  -2  402.66    9.64
  -2   0   2  392.51    9.63
  -2   0   2  392.15    9.66
  -2   0  -2  412.66    9.47
  -2   0  -3   40.61    1.73
   2   0   3   40.58    1.42
  -2   0  -3   41.20    1.45
  -2   0  -3   44.72    1.28
  -2   0  -3   41.38    1.52
  -2   0   3   48.17    1.57
  -2   0   3   48.51    1.56
   2   0  -3   41.25    1.50
  -2   0   4  302.70    7.62
  -2   0   4  299.70    7.64
   2   0  -4  288.12    8.04
   2   0  -4  297.81    7.64
  -2   0  -4  307.68    7.73
   2   0  -5   19.30    1.48
  -2   0   5   18.65    1.12
  -2   0  -5   17.59    1.42
  -2   0  -5   20.41    1.24
  -2   0   5   20.07    1.11
   2   0  -5   20.11    1.11
  -2   0  -6  149.90    5.18
  -2   0   6  160.83    4.52
   2   0  -6  143.45    5.11
  -2   0  -7   19.57    2.01
  -2   0   7   20.60    1.38
   2   0  -7   22.94    2.20
   2   0  -8   58.50    3.40
  -2   0  -8   63.54    3.53
  -2   0   8   71.02    2.73
   3   0   0    0.00    0.19
  -3   0   0    0.05    0.16
  -3   0   0    0.00    0.16
  -3   0   0    0.09    0.19
  -3   0   0    0.14    0.18
  -3   0  -1    0.20    0.19
  -3   0  -1    0.11    0.20
   3   0  -1   -0.09    0.21
  -3   0   1   -0.04    0.21
  -3   0  -1    0.17    0.20
  -3   0   1    0.13    0.21
  -3   0  -1    0.00    0.25
  -3   0   1   -0.16    0.18
  -3   0   2   -0.34    0.23
  -3   0  -2   -0.35    0.17
  -3   0   2   -0.09    0.18
   3   0  -2    0.11    0.24
  -3   0  -2   -0.04    0.17
  -3   0   2    0.21    0.24
  -3   0  -2    0.14    0.22
  -3   0  -2    0.05    0.31
  -3   0  -3    0.11    0.25
  -3   0   3   -0.17    0.26
  -3   0  -3   -0.39    0.19
   3   0  -3    0.24    0.29
  -3   0  -3    0.23    0.36
  -3   0  -3    0.03    0.25
  -3   0   3   -0.15    0.28
  -3   0   4    0.10    0.34
   3   0  -4    0.11    0.34
  -3   0   4    0.14    0.37
  -3   0  -4    0.40    0.49
  -3   0  -4    0.28    0.36
  -3   0  -4   -0.10    0.19
   3   0   4    0.08    0.31
  -3   0  -5    0.03    0.42
  -3   0  -5    0.22    0.56
  -3   0   5    0.10    0.39
  -3   0   5    0.04    0.38
   3   0  -5    0.06    0.32
   3   0  -5    0.17    0.55
   3   0  -6   -0.30    0.38
  -3   0  -6   -0.30    0.61
  -3   0   6    0.02    0.41
  -3   0   6   -0.10    0.42
   3   0  -6    1.13    0.74
  -3   0  -6   -0.54    0.48
  -3   0   7    0.31    0.53
  -3   0  -7    0.22    0.73
   3   0  -7   -0.45    0.71
  -3   0   8    0.52    0.58
  -3   0  -8    1.01    1.05
   3   0  -8    2.03    1.15
   4   0   0  419.13   10.23
  -4   0   0  428.30   10.36
  -4   0   0  425.94   10.34
  -4   0   0  428.87   10.18
  -4   0   0  415.76   10.21
  -4   0  -1  173.03    4.35
  -4   0  -1  169.96    4.39
  -4   0  -1  165.68    4.43
   4   0   1  168.34    4.16
  -4   0   1  168.06    4.39
  -4   0   1  160.02    4.36
   4   0  -1  166.34    4.41
  -4   0  -1  162.01    4.13
  -4   0  -2  681.74   16.28
  -4   0  -2  684.23   16.12
  -4   0  -2  674.73   16.18
  -4   0   2  685.23   16.15
  -4   0  -2  641.16   16.53
  -4   0   2  683.83   16.38
  -4   0   2  677.44   16.26
   4   0  -2  655.00   16.25
  -4   0   3   56.84    2.07
   4   0  -3   54.07    1.99
  -4   0  -3   57.32    1.79
  -4   0   3   55.48    1.98
  -4   0  -3   53.97    1.99
  -4   0  -3   55.85    1.94
  -4   0  -3   52.38    2.25
  -4   0   4  156.88    4.45
   4   0   4  156.32    4.24
  -4   0  -4  152.71    4.05
   4   0  -4  150.62    4.43
  -4   0  -4  146.35    4.42
  -4   0  -4  141.12    4.77
  -4   0   4  156.05    4.48
   4   0  -5   65.86    2.43
  -4   0  -5   62.57    2.45
   4   0  -5   59.82    2.77
  -4   0  -5   54.23    2.70
  -4   0   5   65.78    2.42
  -4   0   5   57.31    2.33
   4   0  -6   84.29    3.03
   4   0  -6   77.70    3.53
  -4   0   6   80.21    2.95
  -4   0   6   81.06    3.03
  -4   0  -6   76.32    3.48
  -4   0  -6   86.28    3.16
  -4   0  -7   32.73    2.11
  -4   0   7   33.60    1.89
  -4   0  -7   33.16    2.43
   4   0  -7   31.78    2.42
  -4   0  -8   63.16    3.57
  -4   0   8   62.18    2.79
   4   0  -8   64.28    3.70
  -5   0   0    0.00    0.25
  -5   0   0    0.32    0.30
   5   0   0    0.29    0.26
  -5   0   0   -0.03    0.22
  -5   0   0   -0.14    0.22
  -5   0  -1    0.06    0.25
   5   0   1    0.21    0.25
  -5   0  -1    0.05    0.20
  -5   0  -1    0.10    0.29
  -5   0   1   -0.16    0.27
   5   0  -1   -0.22    0.28
  -5   0   1   -0.27    0.22
  -5   0  -1   -0.17    0.24
  -5   0   1    0.19    0.27
  -5   0   2   -0.37    0.25
  -5   0  -2    0.08    0.30
  -5   0  -2    0.31    0.46
   5   0  -2   -0.01    0.33
  -5   0  -2   -0.17    0.29
  -5   0  -2   -0.26    0.26
  -5   0   2   -0.22    0.29
  -5   0  -3    0.06    0.33
  -5   0  -3    0.56    0.55
  -5   0  -3   -0.24    0.31
  -5   0   3    0.35    0.36
   5   0  -3   -0.47    0.32
  -5   0   3   -0.15    0.32
  -5   0  -3    0.08    0.31
  -5   0   4   -0.23    0.39
  -5   0   4   -0.07    0.41
  -5   0  -4    0.29    0.55
  -5   0  -4   -0.17    0.39
  -5   0  -4    0.32    0.33
   5   0  -4    0.85    0.49
  -5   0  -5   -0.27    0.43
  -5   0   5    0.62    0.49
  -5   0   5    0.00    0.47
  -5   0  -5   -0.02    0.64
   5   0  -5    0.15    0.44
   5   0  -6    0.58    0.57
  -5   0  -6    0.58    0.73
  -5   0  -6    0.51    0.63
   5   0  -6    0.30    0.76
  -5   0   6    0.66    0.57
  -5   0  -7   -0.81    0.70
  -5   0  -7   -0.15    0.71
  -5   0   7   -0.74    0.52
   5   0  -7    0.54    0.95
  -6   0   0   52.53    1.96
  -6   0   0   51.88    1.78
   6   0   0   50.67    1.83
  -6   0   0   52.87    1.95
  -6   0   1  137.56    4.03
  -6   0   1  143.27    4.04
   6   0   1  144.56    3.76
   6   0  -1  136.18    3.99
  -6   0  -1  136.53    4.08
  -6   0  -1  140.75    4.04
  -6   0   1  135.53    3.94
  -6   0   2   76.57    2.58
  -6   0   2   76.69    2.56
  -6   0  -2   76.12    2.53
   6   0  -2   73.77    2.62
  -6   0  -2   76.57    2.67
  -6   0  -3  156.26    4.68
  -6   0  -3  158.47    4.44
  -6   0   3  151.33    4.62
   6   0  -3  163.70    4.72
  -6   0   3  153.79    4.49
  -6   0  -3  157.74    5.14
  -6   0   4   66.34    2.59
  -6   0  -4   65.45    2.58
  -6   0  -4   65.01    2.98
  -6   0  -4   63.10    2.26
   6   0  -4   68.61    2.63
  -6   0  -5  103.58    3.75
   6   0  -5  109.26    3.78
  -6   0   5  110.33    3.77
  -6   0  -5  105.00    4.25
  -6   0   6   27.75    1.80
  -6   0  -6   26.55    2.24
   6   0  -6   22.03    2.16
   6   0  -6   24.90    1.72
  -6   0  -6   29.05    1.91
  -6   0   7   40.06    2.28
   6   0  -7   35.01    2.81
  -6   0  -7   36.43    2.80
  -6   0  -7   34.86    2.31
  -7   0   0   -0.19    0.35
   7   0   0   -0.56    0.36
  -7   0   0    0.18    0.37
  -7   0  -1    0.11    0.41
  -7   0   1    0.13    0.35
   7   0   1    0.02    0.33
  -7   0  -1    0.00    0.36
   7   0  -1    0.05    0.41
  -7   0   1   -0.50    0.34
  -7   0   1    0.32    0.40
  -7   0  -2   -0.14    0.37
  -7   0   2    0.21    0.38
  -7   0  -2    0.24    0.40
  -7   0   2   -0.39    0.33
   7   0  -2    0.12    0.46
  -7   0   2    0.36    0.40
  -7   0   3    0.45    0.45
  -7   0  -3   -0.60    0.33
   7   0  -3    0.83    0.50
  -7   0  -3   -0.08    0.43
  -7   0   3    0.50    0.47
  -7   0  -4   -0.63    0.32
   7   0  -4    0.11    0.52
  -7   0  -4   -0.11    0.67
  -7   0   4    0.43    0.53
  -7   0  -4   -0.52    0.46
  -7   0  -5   -0.27    0.59
   7   0  -5   -0.08    0.52
  -7   0  -5    1.40    0.90
  -7   0   5   -0.13    0.56
  -7   0  -6   -0.54    0.69
  -7   0   6    0.21    0.61
   7   0  -6   -0.43    0.58
  -7   0  -6   -0.73    0.77
  -8   0   0   58.50    2.38
   8   0   0   58.49    2.18
  -8   0   0   57.15    2.36
  -8   0   1  104.58    3.53
   8   0  -1  105.51    3.47
  -8   0  -1  100.56    3.55
  -8   0  -1  107.25    3.54
  -8   0   1  110.35    3.56
   8   0   1  106.44    3.17
   8   0  -2   18.28    1.36
  -8   0  -2   18.80    1.39
  -8   0   2   18.26    1.25
  -8   0  -2   19.43    1.33
  -8   0   2   20.33    1.35
  -8   0   2   18.48    1.29
  -8   0  -3  125.76    3.97
  -8   0  -3  119.33    4.14
  -8   0   3  118.70    4.02
  -8   0   3  121.99    3.98
   8   0  -3  122.64    4.13
  -8   0   3  121.86    3.94
  -8   0  -4   24.03    1.45
  -8   0   4   23.68    1.65
  -8   0  -4   21.21    1.65
   8   0  -4   22.34    1.67
  -8   0  -5   51.49    3.16
   8   0  -5   55.09    2.69
  -8   0  -5   52.37    2.70
  -8   0   5   57.73    2.68
  -8   0  -6    4.95    1.16
  -8   0  -6    7.72    1.66
  -8   0   6    7.46    1.28
   8   0  -6    5.99    1.13
  -9   0   0    0.47    0.55
  -9   0   0    0.01    0.49
   9   0   0    0.15    0.46
   9   0  -1   -0.33    0.48
  -9   0   1   -0.18    0.48
   9   0   1   -0.27    0.40
  -9   0  -1    0.12    0.52
  -9   0   1    0.35    0.49
  -9   0  -1   -0.31    0.44
  -9   0  -2   -0.39    0.51
  -9   0  -2    0.09    0.54
  -9   0   2   -0.49    0.51
  -9   0   2    0.33    0.49
   9   0  -2   -0.58    0.52
   9   0  -3    0.22    0.59
  -9   0  -3    0.32    0.59
  -9   0   3    0.30    0.56
  -9   0  -3    0.37    0.56
  -9   0   3   -0.33    0.48
  -9   0  -4   -0.07    0.51
   9   0  -4   -0.56    0.60
  -9   0   4    0.02    0.61
  -9   0  -4   -0.30    0.59
  -9   0   5    0.21    0.67
  -9   0  -5    0.14    0.76
   9   0  -5    0.13    0.65
  10   0   0    0.43    0.56
 -10   0   0   -0.14    0.59
 -10   0   0    0.41    0.58
 -10   0   1   65.72    2.84
  10   0   1   60.82    2.35
 -10   0  -1   67.21    2.84
 -10   0  -1   64.78    2.92
  10   0  -1   69.14    2.75
 -10   0   1   63.30    2.82
 -10   0  -2    0.51    0.70
 -10   0   2    0.69    0.65
 -10   0   2    1.41    0.68
 -10   0  -2    0.03    0.58
  10   0  -2    1.11    0.73
 -10   0  -3   72.31    3.05
 -10   0   3   77.42    3.11
  10   0  -3   80.33    3.30
 -10   0  -3   75.24    3.37
 -10   0  -4    0.53    0.63
 -10   0  -4    0.98    0.83
  10   0  -4    0.55    0.77
 -11   0   0    0.30    0.67
  11   0   0   -0.02    0.53
 -11   0   0   -0.53    0.55
 -11   0   1   -0.79    0.63
 -11   0   1   -0.28    0.74
 -11   0  -1   -0.20    0.71
  11   0  -1   -0.31    0.60
 -11   0  -1   -0.30    0.56
 -11   0  -2    1.55    0.89
  11   0  -2    0.42    0.71
 -11   0   2   -0.56    0.66
 -11   0  -2    0.56    0.65
   0   1   0   -0.03    0.05
   0  -1   0   -0.04    0.05
   0  -1   0    0.00    0.05
   0   1  -1  389.79    8.89
   0   1   1  367.34    8.89
   0  -1   1  360.83    8.87
   0  -1   1  364.75    9.13
   0  -1  -1  397.18    8.90
   0   1  -1  386.97    8.92
   0   1  -2    0.13    0.24
   0  -1  -2    0.07    0.22
   0  -1  -2   -0.14    0.14
   0   1  -2    0.10    0.13
   0  -1   2   -0.03    0.19
   0   1   2    0.10    0.17
   0   1  -2   -0.18    0.14
   0  -1   2    0.17    0.17
   0  -1   3  189.38    4.87
   0   1  -3  182.29    5.15
   0  -1   3  195.34    4.79
   0  -1  -3  188.93    5.19
   0  -1  -3  192.20    4.80
   0   1  -3  190.36    4.74
   0   1  -3  192.78    4.79
   0   1   3  199.81    4.82
   0   1  -4   -0.12    0.20
   0  -1  -4   -0.18    0.20
   0  -1   4    0.31    0.26
   0   1   4   -0.17    0.24
   0   1  -4    0.06    0.20
   0  -1   4   -0.14    0.28
   0   1  -4    0.16    0.42
   0  -1  -4   -0.02    0.36
   0  -1   5  152.91    4.17
   0  -1  -5  146.19    4.77
   0   1  -5  140.51    4.71
   0   1   5  154.14    4.10
   0  -1   5  157.82    4.11
   0  -1  -6    0.26    0.55
   0  -1   6   -0.32    0.33
   0   1   6   -0.04    0.34
   0   1  -6   -0.17    0.56
   0   1  -7   60.90    3.11
   0   1   7   65.57    2.28
   0  -1  -7   58.90    3.10
   0  -1   7   67.98    2.29
   0  -1  -8   -0.17    0.87
   0   1   8   -0.06    0.42
   0  -1   8    0.12    0.69
   0   1  -8    0.11    0.89
  -1  -1   0    0.23    0.09
   1  -1   0    0.04    0.08
  -1   1   0    0.06    0.07
  -1   1   0    0.19    0.09
  -1   1   0    0.16    0.09
  -1  -1   0    0.03    0.08
   1   1   0    0.05    0.08
  -1  -1   0    0.10    0.09
  -1  -1  -1  220.96    5.27
   1   1  -1  216.44    5.33
  -1  -1   1  218.91    5.36
  -1   1  -1  214.93    5.29
  -1   1  -1  220.39    5.22
  -1  -1   1  227.33    5.23
  -1  -1   1  222.09    5.33
   1   1  -2   36.39    1.17
  -1  -1  -2   37.59    1.35
  -1  -1  -2   36.78    1.04
   1  -1   2   34.08    1.19
  -1  -1  -2   35.36    1.20
  -1   1   2   36.73    1.17
  -1   1   2   38.58    1.14
  -1   1  -2   33.60    1.30
  -1  -1   2   37.14    1.17
   1  -1  -2   35.29    1.31
  -1   1  -2   35.46    1.12
  -1   1  -2   37.24    1.16
  -1  -1   2   36.24    1.20
   1  -1  -2   35.08    1.16
  -1   1   3  188.56    4.80
  -1   1   3  179.42    4.85
   1   1  -3  193.51    4.88
  -1  -1  -3  196.47    4.68
   1  -1   3  189.08    4.87
  -1  -1  -3  200.32    5.00
   1   1  -3  183.98    5.16
   1  -1   3  182.97    4.65
  -1  -1  -3  193.10    5.22
  -1   1  -3  193.03    5.20
   1  -1  -3  187.81    5.18
  -1   1  -3  201.11    4.92
  -1   1  -3  194.57    4.82
  -1  -1   3  185.34    4.86
   1   1   3  188.93    4.67
   1  -1  -3  193.13    4.88
  -1  -1   3  187.86    4.90
  -1  -1  -4    9.76    0.85
   1  -1   4    8.16    0.52
  -1   1   4    8.75    0.66
   1  -1   4    8.65    0.64
  -1   1   4    8.28    0.60
  -1  -1  -4    7.44    0.49
  -1  -1  -4    8.00    0.96
   1   1  -4    8.12    0.96
   1   1  -4    7.29    0.60
   1  -1  -4    8.08    0.94
  -1  -1   4    8.32    0.67
  -1   1  -4    7.50    0.90
  -1   1  -4    7.21    0.58
  -1   1  -4    7.43    0.47
  -1  -1   4    9.27    0.72
  -1   1  -4    6.91    0.70
   1  -1  -4    8.35    0.63
   1   1   4    8.86    0.53
  -1   1   5  153.39    4.08
   1   1  -5  144.38    4.75
   1  -1   5  150.70    3.93
   1  -1   5  151.49    4.10
   1   1  -5  157.02    4.20
  -1  -1  -5  140.72    4.73
  -1   1   5  152.67    4.20
  -1  -1   5  153.10    4.20
   1   1   5  150.48    3.95
   1  -1  -5  147.65    4.16
  -1  -1   5  147.30    4.20
   1  -1  -5  149.36    4.80
  -1   1  -5  140.81    4.71
   1  -1   6    2.51    0.42
  -1   1   6    2.29    0.54
  -1  -1  -6    2.48    0.82
   1   1  -6    2.77    0.83
   1  -1  -6    3.97    0.92
   1   1   6    2.53    0.46
  -1   1  -6    1.62    0.73
  -1  -1   6    2.56    0.57
   1   1  -7   37.78    2.42
  -1  -1  -7   41.43    2.52
  -1   1   7   40.44    1.82
   1  -1  -7   40.54    2.50
  -1  -1   7   42.47    1.84
   1   1   7   40.71    1.58
  -1   1  -7   39.00    2.45
   1   1  -8    0.47    0.94
  -1   1   8    0.75    0.51
  -1  -1  -8   -0.04    0.90
  -1  -1   8    0.24    0.54
   1  -1  -8   -0.01    0.92
  -1   1  -8    0.37    0.90
   2   1   0  172.93    4.19
   2  -1   0  168.72    4.17
  -2   1   0  172.62    4.15
  -2   1   0  170.25    4.22
  -2  -1   0  173.86    4.27
  -2  -1   0  168.27    4.21
  -2  -1   0  167.90    4.16
  -2   1   0  170.51    4.16
   2   1  -1  924.46   22.33
  -2   1   1  931.43   22.13
  -2  -1  -1  982.89   22.78
  -2   1   1  976.37   22.27
  -2  -1  -1 1000.00   22.40
  -2  -1  -1  936.50   22.29
  -2  -1   1  971.78   22.70
  -2   1  -1  922.56   22.05
   2  -1  -1  908.61   22.31
  -2   1  -1  863.85   22.23
  -2   1  -1  978.28   22.73
  -2   1  -1  929.12   22.09
  -2  -1   1  897.76   22.31
  -2  -1   1  973.02   22.35
  -2   1   2    0.93    0.27
  -2  -1  -2    1.49    0.29
  -2  -1  -2    1.80    0.39
  -2   1   2    0.95    0.27
  -2  -1  -2    1.02    0.23
   2   1  -2    1.22    0.29
  -2  -1   2    0.76    0.27
  -2  -1   2    0.61    0.27
  -2   1  -2    1.52    0.22
  -2   1  -2    0.77    0.22
  -2   1  -2    1.69    0.38
   2  -1  -2    1.30    0.29
  -2  -1   2    0.66    0.20
  -2   1  -2    1.79    0.32
  -2   1   3  274.97    6.70
  -2   1   3  269.83    6.73
  -2  -1  -3  261.02    7.05
  -2  -1  -3  264.17    6.76
   2   1  -3  256.32    6.71
   2  -1   3  259.01    6.72
  -2  -1  -3  267.54    6.48
  -2  -1   3  275.75    6.78
  -2   1  -3  264.92    6.64
   2  -1  -3  258.43    6.71
  -2   1  -3  268.13    6.72
  -2   1  -3  259.05    7.02
  -2  -1   3  273.04    6.74
   2  -1   4   11.27    0.75
   2   1  -4   12.87    0.83
  -2   1   4   13.25    0.80
   2   1  -4   11.12    1.13
  -2  -1  -4   12.25    0.90
  -2   1   4   11.79    0.83
  -2  -1  -4   12.90    1.23
  -2   1  -4   12.56    1.21
  -2  -1   4   11.92    0.85
   2  -1  -4   10.38    0.77
   2  -1  -4   13.09    1.20
  -2   1  -4   11.00    0.83
  -2   1  -4   11.31    0.74
  -2  -1   4   11.78    0.85
   2   1  -5  117.64    3.52
  -2   1   5  114.93    3.41
  -2   1   5  116.31    3.51
   2   1  -5  107.27    3.96
  -2  -1  -5  117.63    3.70
  -2  -1  -5  112.94    4.04
   2  -1   5  117.35    3.38
   2  -1  -5  117.43    4.04
  -2   1  -5  115.19    4.03
  -2   1  -5  119.92    3.63
  -2  -1   5  117.35    3.52
   2  -1  -5  120.71    3.53
  -2  -1   5  120.71    3.56
  -2   1   6   13.16    1.16
   2   1  -6   10.90    1.37
  -2  -1  -6   11.02    1.36
  -2  -1   6   11.86    1.00
   2  -1  -6   11.56    1.42
  -2   1  -6   11.57    1.43
  -2  -1   6   12.21    1.10
  -2  -1  -7   63.13    3.20
   2   1  -7   64.51    3.22
  -2   1   7   64.29    2.52
  -2  -1   7   68.09    2.56
   2  -1  -7   61.35    3.18
  -2   1  -7   68.36    3.27
   2   1  -8    2.52    1.18
  -2   1   8    2.22    0.70
  -2  -1  -8    3.63    1.23
   2  -1  -8    2.47    1.08
  -2  -1   8    2.44    0.74
  -2   1  -8    3.54    1.24
  -3   1   0   17.37    0.77
  -3   1   0   18.10    0.70
  -3   1   0   19.05    0.70
  -3   1   0   18.09    0.78
   3  -1   0   16.68    0.71
  -3  -1   0   18.10    0.71
  -3  -1   0   19.62    0.78
   3   1   0   18.76    0.75
  -3  -1   0   18.53    0.76
  -3   1   1  138.38    3.86
  -3  -1  -1  152.32    3.68
  -3   1   1  148.65    3.88
   3   1  -1  156.60    3.94
  -3  -1  -1  155.98    3.93
  -3  -1  -1  157.40    3.89
  -3  -1  -1  145.07    4.11
  -3  -1   1  141.90    3.88
  -3  -1   1  144.36    3.98
   3  -1  -1  150.62    3.91
  -3  -1   1  145.51    3.86
  -3   1  -1  154.20    3.93
   3   1   1  143.48    3.68
  -3   1  -1  157.31    3.87
  -3   1  -1  154.42    4.12
  -3   1  -1  155.32    3.86
  -3  -1  -2   99.29    3.12
   3   1  -2  104.21    2.93
  -3  -1  -2  104.80    2.80
  -3   1   2  100.08    2.90
  -3  -1  -2  103.89    2.93
  -3  -1   2  101.10    2.91
  -3   1  -2  101.50    2.90
  -3   1  -2  104.72    3.12
   3  -1  -2  102.69    2.92
  -3   1  -2  103.88    2.86
  -3  -1   2  102.94    2.99
  -3  -1   2  101.04    2.78
  -3   1  -2  106.22    2.76
  -3  -1  -3  162.00    4.11
   3   1  -3  156.18    4.35
  -3  -1  -3  160.70    4.67
  -3   1   3  162.91    4.36
  -3  -1  -3  158.70    4.37
  -3   1   3  167.13    4.38
  -3  -1   3  161.79    4.42
  -3  -1   3  157.35    4.09
  -3   1  -3  153.67    4.61
   3  -1  -3  155.69    4.33
  -3   1  -3  157.59    4.04
  -3   1  -3  154.07    4.32
  -3  -1   3  157.00    4.34
  -3   1  -3  157.16    4.26
  -3   1   4   41.86    1.61
  -3  -1  -4   38.54    1.30
  -3  -1  -4   38.17    1.90
  -3  -1  -4   39.14    1.66
  -3   1   4   39.77    1.61
   3  -1   4   36.25    1.53
   3   1  -4   38.28    1.59
  -3   1  -4   36.20    1.58
  -3  -1   4   37.96    1.63
  -3   1  -4   39.24    1.53
   3  -1  -4   36.16    1.56
  -3  -1   4   37.36    1.60
  -3   1  -4   36.52    1.87
  -3  -1  -5   65.82    2.42
  -3   1   5   54.73    2.21
  -3  -1  -5   61.21    2.72
  -3   1   5   59.88    2.20
   3   1  -5   58.41    2.24
   3   1  -5   55.15    2.61
   3  -1  -5   63.39    2.29
  -3  -1   5   61.47    2.27
  -3   1  -5   64.15    2.35
  -3   1  -5   56.07    2.62
   3  -1  -5   65.47    2.76
  -3  -1   5   60.39    2.28
  -3   1  -5   60.48    2.18
  -3  -1  -6   24.25    1.63
  -3  -1  -6   27.76    1.96
   3   1  -6   21.99    1.84
  -3   1   6   24.75    1.44
  -3   1  -6   24.78    1.88
   3  -1  -6   23.86    1.89
  -3  -1   6   24.79    1.43
  -3  -1   6   24.94    1.45
  -3   1  -6   23.64    1.54
   3  -1  -6   27.64    1.59
  -3   1   7   47.28    2.15
   3   1  -7   42.73    2.73
  -3  -1  -7   48.18    2.82
  -3  -1   7   49.59    2.19
  -3   1  -7   42.26    2.68
   3  -1  -7   44.92    2.77
  -3   1   8    9.22    1.21
  -3  -1  -8   10.03    1.72
   3   1  -8    7.21    1.53
  -3  -1   8   10.73    1.25
   3  -1  -8    8.64    1.61
  -3   1  -8   11.10    1.74
  -4  -1   0   74.57    2.25
  -4   1   0   76.47    2.29
  -4   1   0   73.63    2.14
  -4  -1   0   73.39    2.15
  -4  -1   0   74.22    2.24
  -4   1   0   77.88    2.13
  -4   1   0   78.72    2.28
   4   1   0   77.53    2.19
   4  -1   0   75.99    2.18
   4  -1   1   94.80    2.42
  -4   1   1   94.84    2.65
  -4  -1  -1   88.12    2.61
  -4   1   1   93.26    2.63
  -4  -1  -1   88.37    2.65
  -4   1   1   95.49    2.39
  -4  -1  -1   88.68    2.40
   4   1  -1   88.87    2.64
  -4   1  -1   89.81    2.61
  -4  -1   1   90.49    2.62
  -4   1  -1   88.98    2.66
  -4   1  -1   85.79    2.55
  -4   1  -1   87.96    2.39
  -4  -1   1   93.88    2.60
  -4  -1   1   94.03    2.78
   4   1   1   93.66    2.43
   4  -1  -1   87.22    2.62
  -4  -1   1   96.55    2.65
  -4  -1  -2   76.32    2.33
  -4  -1  -2   75.34    2.19
   4   1  -2   74.25    2.31
  -4   1   2   64.40    2.22
  -4  -1  -2   75.63    2.58
  -4   1   2   66.30    2.17
  -4  -1   2   67.30    2.25
  -4  -1   2   67.27    2.15
  -4   1  -2   73.50    2.30
   4  -1  -2   71.64    2.28
  -4  -1   2   67.96    2.34
  -4   1  -2   71.38    2.20
  -4   1  -2   76.20    2.16
  -4   1  -2   70.23    2.50
  -4  -1  -3  119.60    3.26
  -4   1   3  115.28    3.46
   4   1  -3  118.23    3.50
  -4  -1  -3  116.74    3.48
  -4  -1  -3  113.06    3.77
  -4  -1   3  116.15    3.25
   4  -1  -3  123.14    3.50
  -4  -1   3  113.10    3.46
  -4   1  -3  119.35    3.40
  -4   1  -3  118.89    3.47
  -4   1  -3  111.00    3.74
  -4   1  -3  117.16    3.20
  -4  -1   3  113.47    3.53
  -4  -1  -4   44.95    1.59
   4  -1   4   48.46    1.84
  -4   1   4   46.47    1.89
  -4  -1  -4   46.92    1.93
   4   1  -4   44.24    1.87
  -4  -1  -4   46.18    2.24
  -4   1  -4   43.98    1.87
  -4  -1   4   45.98    1.89
   4  -1  -4   47.08    1.91
  -4   1  -4   45.14    2.19
  -4   1  -4   47.27    1.55
  -4   1  -4   47.88    1.84
  -4  -1   4   47.56    1.96
  -4  -1  -5   59.55    2.80
  -4   1   5   64.18    2.43
   4   1  -5   57.83    2.75
  -4  -1  -5   59.77    2.43
   4   1  -5   58.42    2.36
  -4   1  -5   64.46    2.45
   4  -1  -5   63.12    2.40
  -4  -1   5   64.53    2.42
   4  -1  -5   62.57    2.82
  -4   1  -5   60.88    2.81
  -4  -1   5   60.06    2.39
  -4  -1  -6   27.94    2.04
  -4   1   6   29.94    1.69
  -4  -1  -6   30.20    1.83
   4   1  -6   28.23    2.08
   4   1  -6   30.59    1.67
  -4  -1   6   31.56    1.72
  -4  -1   6   31.46    1.70
  -4   1  -6   30.76    2.12
   4  -1  -6   31.15    1.66
  -4   1  -6   31.46    1.80
   4  -1  -6   29.36    2.14
  -4  -1  -7   26.26    2.21
  -4  -1  -7   28.87    2.01
   4   1  -7   26.65    2.24
  -4   1   7   29.86    1.78
  -4  -1   7   29.56    1.78
  -4   1  -7   26.41    2.20
   4  -1  -7   30.62    2.36
  -4   1  -7   26.02    1.89
  -4  -1  -8   11.05    1.79
  -4   1   8   11.23    1.34
   4   1  -8    8.35    1.73
  -4  -1   8    9.72    1.29
  -4   1  -8    7.65    1.59
   4  -1  -8    9.12    1.71
  -5   1   0  157.14    4.42
  -5  -1   0  160.76    4.37
  -5  -1   0  163.63    4.26
  -5   1   0  162.25    4.39
  -5  -1   0  165.44    4.42
  -5   1   0  151.00    4.20
  -5   1   0  163.51    4.21
   5  -1   0  160.83    4.26
   5   1   0  163.63    4.29
  -5  -1  -1   60.32    1.97
  -5  -1  -1   60.38    2.00
  -5   1   1   53.59    1.89
  -5   1   1   54.73    1.94
   5  -1   1   54.05    1.70
  -5   1   1   56.47    1.68
  -5  -1  -1   59.23    1.71
   5   1  -1   57.24    1.96
  -5  -1   1   56.03    1.91
  -5  -1   1   55.67    1.89
  -5   1  -1   59.43    1.95
  -5   1  -1   59.45    1.71
  -5  -1   1   55.47    1.93
  -5   1  -1   57.39    1.88
   5  -1  -1   60.80    1.97
   5   1   1   53.43    1.72
  -5   1  -1   59.52    2.02
   5   1  -2   61.93    2.17
  -5  -1  -2   57.22    2.02
  -5   1   2   64.97    2.10
  -5  -1  -2   55.50    2.38
  -5   1   2   62.41    2.14
  -5  -1  -2   57.51    2.12
  -5   1  -2   57.17    2.12
  -5  -1   2   66.19    2.17
  -5   1  -2   55.74    2.37
  -5   1  -2   61.39    2.03
  -5  -1   2   64.54    2.08
  -5   1  -2   60.35    2.05
  -5  -1   2   62.90    2.27
   5  -1  -2   60.52    2.13
  -5  -1  -3   61.32    2.26
  -5  -1  -3   56.57    2.51
   5   1  -3   59.03    2.26
  -5   1   3   63.70    2.26
  -5  -1  -3   62.98    2.09
  -5  -1   3   62.09    2.27
  -5  -1   3   62.30    2.08
   5  -1  -3   62.11    2.27
  -5  -1   3   62.97    2.37
  -5   1  -3   61.04    2.17
  -5   1  -3   62.39    2.27
  -5   1  -3   60.60    2.03
  -5   1  -3   56.79    2.51
  -5   1   4   43.69    1.90
   5   1  -4   42.40    1.89
  -5  -1  -4   41.21    2.22
  -5  -1  -4   44.40    1.63
  -5  -1  -4   45.29    1.96
  -5  -1   4   40.55    1.94
  -5   1  -4   43.77    1.84
  -5   1  -4   41.83    2.21
  -5  -1   4   43.41    1.89
   5  -1  -4   43.78    1.92
  -5   1  -4   41.46    1.87
  -5   1  -4   43.62    1.59
  -5  -1  -5   31.37    2.11
  -5  -1  -5   32.63    1.78
  -5   1   5   33.21    1.77
   5   1  -5   33.52    1.78
  -5   1  -5   32.94    2.13
   5  -1  -5   33.94    1.76
  -5  -1   5   33.87    1.80
  -5  -1   5   36.17    1.82
  -5   1  -5   37.74    1.86
  -5   1   6   16.26    1.36
  -5  -1  -6   17.40    1.93
   5   1  -6   17.90    1.39
  -5  -1  -6   17.91    1.64
   5   1  -6   13.83    1.69
  -5  -1   6   17.84    1.40
  -5   1  -6   21.37    1.81
   5  -1  -6   19.04    1.38
  -5  -1   6   17.56    1.39
   5  -1  -6   14.07    1.74
  -5   1  -6   15.31    1.80
   5   1  -7   27.06    2.36
  -5  -1  -7   26.69    1.96
  -5  -1  -7   23.25    2.38
  -5   1   7   27.82    1.84
  -5   1  -7   26.63    2.29
   5  -1  -7   24.33    2.36
  -5  -1   7   27.12    1.81
  -5   1  -7   22.81    1.87
  -6  -1   0   59.78    1.95
  -6  -1   0   56.86    2.07
  -6   1   0   60.52    1.92
  -6   1   0   59.60    2.15
  -6  -1   0   57.09    2.10
   6  -1   0   57.73    1.98
  -6   1   0   57.98    1.93
  -6   1   0   58.62    2.11
   6   1   0   57.41    2.00
   6  -1   1   93.56    2.62
  -6   1   1   91.47    2.92
  -6  -1  -1   91.27    2.89
   6   1  -1   88.72    2.86
  -6  -1  -1   90.33    2.91
  -6   1   1   87.10    2.78
  -6   1   1   92.03    2.90
  -6   1   1   92.32    2.56
   6  -1  -1   86.60    2.83
  -6  -1   1   93.57    2.86
  -6  -1   1   91.18    2.89
  -6   1  -1   88.74    2.94
  -6   1  -1   89.82    2.77
  -6   1  -1   89.56    2.88
   6   1   1   89.50    2.62
  -6  -1   1   89.59    2.82
   6   1  -2   92.22    3.02
  -6   1   2   90.40    2.94
  -6  -1  -2   92.55    3.03
  -6  -1  -2   88.43    2.90
  -6   1   2   91.87    2.95
  -6   1  -2   95.58    2.93
   6  -1  -2   90.53    2.99
  -6   1  -2   90.29    2.88
  -6  -1   2   91.98    2.98
  -6  -1   2   93.65    2.88
  -6   1  -2   88.74    3.01
  -6  -1   2   90.36    2.92
  -6   1   3   89.09    2.99
  -6  -1  -3   79.50    3.33
  -6  -1  -3   89.50    2.84
   6   1  -3   91.06    3.05
  -6  -1  -3   87.39    3.02
  -6   1  -3   84.65    2.89
  -6  -1   3   94.57    3.02
  -6   1  -3   86.48    2.79
  -6  -1   3   89.95    2.86
  -6   1  -3   85.59    3.02
  -6   1  -3   80.56    3.33
   6  -1  -3   84.40    2.98
  -6  -1  -4   28.32    2.02
  -6  -1  -4   32.84    1.50
   6   1  -4   32.64    1.76
  -6  -1  -4   30.95    1.71
  -6   1   4   35.78    1.78
  -6   1  -4   35.60    1.79
  -6   1  -4   29.91    2.02
  -6  -1   4   34.18    1.75
  -6   1  -4   35.51    1.49
   6  -1  -4   36.70    1.80
   6   1  -5   20.78    1.49
  -6  -1  -5   23.38    1.60
  -6   1   5   20.72    1.47
  -6  -1  -5   19.79    1.94
  -6  -1   5   20.89    1.50
  -6   1  -5   16.66    1.78
   6  -1  -5   21.39    1.48
  -6   1  -5   19.83    1.50
   6   1  -6   23.04    2.32
   6   1  -6   24.01    1.70
  -6  -1  -6   21.15    2.22
  -6  -1  -6   23.80    1.76
  -6   1   6   22.83    1.66
  -6   1  -6   20.42    2.09
   6  -1  -6   22.14    1.61
  -6  -1   6   26.32    1.75
   6  -1  -6   22.81    2.28
  -6   1  -6   23.00    1.75
   6   1  -7    9.79    1.74
  -6   1   7   11.54    1.46
  -6  -1  -7   14.77    1.67
  -6  -1  -7   14.69    2.00
  -6   1  -7   15.99    2.11
  -6  -1   7   12.96    1.52
   6  -1  -7   13.00    1.93
  -6   1  -7   13.57    1.66
  -7   1   0  106.49    3.45
   7   1   0  110.61    3.31
   7  -1   0  105.89    3.27
  -7  -1   0  106.38    3.44
  -7  -1   0  112.63    3.49
  -7   1   0  112.21    3.53
   7  -1   1   22.38    1.06
  -7   1   1   22.40    1.29
  -7   1   1   22.75    1.31
  -7  -1  -1   20.06    1.25
   7   1  -1   20.33    1.25
  -7   1   1   18.76    1.14
  -7  -1  -1   20.49    1.24
  -7  -1   1   20.14    1.15
  -7   1  -1   20.89    1.26
  -7  -1   1   21.47    1.24
   7  -1  -1   21.43    1.25
  -7   1  -1   21.37    1.30
  -7  -1   1   20.77    1.27
  -7   1  -1   21.19    1.16
   7   1   1   20.39    1.07
  -7  -1  -2   67.72    2.54
  -7   1   2   67.45    2.48
   7   1  -2   70.15    2.54
  -7   1   2   61.79    2.40
  -7  -1  -2   65.61    2.43
  -7   1   2   65.72    2.48
  -7  -1   2   70.34    2.42
  -7  -1   2   63.54    2.42
  -7  -1   2   63.06    2.40
  -7   1  -2   67.47    2.56
   7  -1  -2   65.43    2.49
  -7   1  -2   67.42    2.44
  -7   1  -2   64.73    2.38
  -7  -1  -3   10.65    1.04
   7   1  -3    9.75    1.12
  -7  -1  -3    7.75    0.96
  -7   1   3    6.87    0.95
   7  -1  -3    8.98    1.03
  -7  -1   3    7.18    0.96
  -7  -1   3    6.67    0.85
  -7   1  -3    8.64    1.04
  -7   1  -3    9.30    0.96
  -7  -1   3    6.50    0.79
   7   1  -4   62.30    2.62
  -7  -1  -4   63.70    2.32
  -7  -1  -4   59.11    3.02
  -7  -1  -4   58.08    2.55
  -7   1   4   58.10    2.53
   7  -1  -4   57.34    2.53
  -7   1  -4   59.64    2.26
  -7   1  -4   59.62    3.01
  -7   1  -4   60.25    2.58
  -7  -1   4   59.46    2.55
  -7   1   5   12.24    1.38
   7   1  -5   14.42    1.52
  -7  -1  -5   13.05    1.74
  -7  -1  -5   13.13    1.41
  -7  -1   5   17.20    1.58
   7  -1  -5   13.28    1.44
  -7   1  -5   10.14    1.52
  -7   1  -5   13.39    1.46
   7   1  -6   28.83    1.97
  -7   1   6   31.90    2.03
  -7  -1  -6   31.15    2.13
  -7  -1  -6   27.07    2.38
  -7   1  -6   30.81    2.10
   7  -1  -6   31.12    2.01
  -7   1  -6   30.37    2.45
  -7  -1   6   32.14    2.06
   8  -1   0   43.30    1.81
  -8  -1   0   44.37    2.01
  -8   1   0   41.96    1.99
  -8   1   0   46.08    2.02
   8   1   0   43.20    1.84
  -8  -1   0   44.18    1.99
  -8   1   1    8.04    0.96
   8  -1   1    6.49    0.70
  -8   1   1    4.91    0.80
  -8  -1  -1    4.92    0.82
   8   1  -1    7.26    0.91
  -8  -1  -1    6.40    0.89
  -8   1  -1    5.93    0.87
  -8  -1   1    6.70    0.87
  -8   1  -1    6.14    0.90
   8   1   1    7.08    0.74
  -8  -1   1    7.99    0.99
   8  -1  -1    7.76    0.94
  -8   1   2   61.71    2.52
  -8   1   2   63.57    2.56
  -8  -1  -2   68.63    2.57
  -8   1   2   62.45    2.49
   8   1  -2   66.04    2.61
  -8  -1  -2   61.47    2.60
  -8   1  -2   65.64    2.53
   8  -1  -2   62.88    2.55
  -8  -1   2   63.22    2.46
  -8  -1   2   65.73    2.53
  -8   1  -2   66.68    2.68
  -8  -1   2   64.64    2.53
  -8   1   3    5.95    0.92
  -8   1   3    3.80    0.76
   8   1  -3    4.94    0.93
  -8  -1  -3    4.33    0.85
  -8  -1  -3    4.75    0.82
  -8  -1   3    4.21    0.78
   8  -1  -3    5.14    0.89
  -8   1  -3    4.94    0.92
  -8  -1   3    5.47    0.90
  -8  -1   3    6.18    0.87
  -8   1  -3    5.11    0.83
  -8  -1  -4   70.23    2.93
  -8   1   4   63.75    2.77
  -8  -1  -4   67.18    2.58
   8   1  -4   64.02    2.85
   8  -1  -4   68.40    2.89
  -8   1  -4   64.28    2.53
  -8   1  -4   62.43    2.83
  -8  -1   4   64.61    2.78
  -8   1   5    6.21    1.14
  -8  -1  -5    3.63    1.25
   8   1  -5    5.08    1.05
  -8  -1  -5    5.27    1.06
  -8  -1   5    5.19    1.03
   8  -1  -5    5.26    1.05
  -8   1  -5    5.65    1.11
  -8   1  -5    4.76    1.30
   8   1  -6   26.73    1.98
  -8  -1  -6   21.54    2.45
  -8   1   6   27.95    2.04
  -8  -1  -6   27.55    2.15
   8  -1  -6   27.99    1.99
  -8   1  -6   23.94    2.44
  -8  -1   6   30.66    2.08
  -8   1  -6   26.06    2.09
   9  -1   0   57.96    2.24
  -9  -1   0   57.33    2.47
   9   1   0   57.72    2.27
  -9  -1   0   54.08    2.42
  -9   1   0   52.10    2.46
  -9   1   0   55.74    2.45
  -9  -1  -1    0.66    0.58
  -9  -1  -1    0.83    0.61
  -9   1   1   -0.01    0.54
  -9   1   1    0.00    0.53
   9  -1   1    1.25    0.48
   9   1  -1    0.21    0.58
   9   1   1    0.58    0.44
  -9  -1   1   -0.33    0.50
  -9  -1   1    0.36    0.51
  -9   1  -1    1.16    0.59
  -9   1  -1   -0.07    0.46
   9  -1  -1   -0.26    0.48
  -9   1   2   60.47    2.57
   9   1  -2   56.72    2.55
  -9  -1  -2   60.02    2.53
  -9  -1  -2   55.27    2.59
  -9   1   2   58.33    2.53
  -9   1  -2   60.31    2.51
   9  -1  -2   58.33    2.53
  -9   1  -2   55.52    2.61
  -9  -1   2   52.81    2.39
  -9  -1   2   56.53    2.49
  -9  -1  -3    2.19    0.72
  -9   1   3    1.92    0.71
   9   1  -3    1.26    0.74
  -9  -1  -3    1.82    0.74
  -9   1   3    0.66    0.60
  -9  -1   3    1.43    0.69
  -9   1  -3    0.26    0.65
   9  -1  -3    1.23    0.67
  -9   1  -3    2.51    0.72
  -9  -1   3    1.92    0.65
  -9  -1   3    0.62    0.57
  -9   1   4   25.60    1.69
   9   1  -4   22.82    1.81
  -9  -1  -4   22.44    1.82
  -9   1   4   24.45    1.77
  -9  -1  -4   25.45    1.60
  -9   1  -4   24.30    1.59
  -9   1  -4   27.39    1.96
  -9  -1   4   25.39    1.79
   9  -1  -4   23.03    1.81
  -9   1   5    2.24    0.87
  -9  -1  -5    1.22    0.92
   9   1  -5    1.98    0.89
  -9   1  -5    1.14    0.90
   9  -1  -5    1.09    0.82
  -9  -1   5    0.82    0.74
  10   1   0   35.77    1.83
 -10  -1   0   38.02    2.10
 -10  -1   0   35.42    2.09
 -10   1   0   37.84    2.18
  10  -1   0   41.25    1.90
 -10   1   0   37.37    2.09
  10  -1   1    2.57    0.63
 -10  -1  -1    2.14    0.73
 -10   1   1    1.83    0.75
 -10  -1  -1    2.16    0.80
  10   1  -1    1.43    0.69
 -10   1   1    1.22    0.69
  10   1   1    1.71    0.60
 -10  -1   1    1.12    0.72
 -10   1  -1    1.14    0.71
 -10   1  -1    2.14    0.78
 -10  -1   1    1.48    0.73
  10  -1  -1    1.10    0.67
  10   1  -2   27.77    1.87
 -10  -1  -2   30.68    2.03
 -10   1   2   26.24    1.83
 -10  -1  -2   27.77    1.83
 -10  -1   2   27.85    1.78
 -10   1  -2   28.72    1.82
 -10   1  -2   28.57    1.98
 -10  -1   2   26.03    1.79
  10  -1  -2   27.25    1.83
 -10  -1  -3    0.08    0.70
  10   1  -3    0.27    0.71
 -10  -1  -3   -0.43    0.53
 -10   1   3   -0.33    0.58
 -10   1  -3    0.36    0.59
 -10  -1   3   -1.17    0.53
  10  -1  -3    0.26    0.69
 -10   1  -3    0.37    0.73
 -10  -1  -4   28.48    1.83
 -10  -1  -4   26.86    2.12
  10   1  -4   29.91    2.10
 -10   1  -4   26.85    2.11
 -10   1  -4   24.42    1.74
  10  -1  -4   29.40    2.09
  11   1   0   34.68    1.88
  11  -1   0   33.63    1.85
 -11   1   0   34.36    2.25
 -11   1   0   36.04    2.17
 -11  -1   0   33.24    2.18
 -11  -1   0   38.69    2.22
  11   1  -1    1.07    0.74
 -11  -1  -1    0.89    0.74
 -11  -1  -1    0.52    0.73
 -11   1   1    1.50    0.84
 -11   1  -1    1.27    0.86
  11  -1  -1    1.27    0.73
 -11  -1   1    2.06    0.82
 -11  -1   1    2.56    0.90
 -11   1  -1    1.74    0.82
 -11  -1  -2   30.92    2.20
 -11  -1  -2   26.44    1.89
 -11   1   2   27.86    2.01
  11   1  -2   31.95    2.03
 -11   1  -2   25.71    1.92
 -11  -1   2   30.45    2.01
  11  -1  -2   32.54    2.04
 -11  -1   2   30.09    2.03
 -11   1  -2   29.20    2.21
   0   2   0   43.67    1.26
   0  -2   0   44.64    1.27
   0  -2   0   46.37    1.27
   0  -2  -1   -0.83    0.14
   0   2  -1   -0.97    0.14
   0  -2   1   -0.74    0.19
   0   2   1   -0.95    0.14
   0  -2   1   -0.81    0.14
   0   2  -2   43.57    1.26
   0   2  -2   44.66    1.51
   0  -2   2   45.24    1.46
   0   2   2   43.85    1.32
   0  -2  -2   45.17    1.33
   0   2  -2   45.14    1.32
   0  -2   2   43.90    1.31
   0  -2  -2   45.60    1.54
   0   2  -3   -0.35    0.14
   0  -2   3    0.03    0.23
   0  -2  -3    0.05    0.29
   0   2  -3   -0.10    0.18
   0   2  -3   -0.03    0.27
   0   2   3    0.04    0.22
   0  -2   3   -0.32    0.23
   0  -2  -3   -0.22    0.19
   0  -2  -4    8.54    0.94
   0   2  -4    7.77    0.55
   0   2   4    6.91    0.59
   0  -2   4    6.54    0.69
   0   2  -4    7.10    0.51
   0   2  -4    7.17    0.89
   0  -2  -4    6.85    0.56
   0  -2   4    7.08    0.59
   0  -2  -5   -0.18    0.48
   0   2  -5   -0.05    0.47
   0  -2   5    0.34    0.36
   0  -2   5    0.39    0.41
   0   2   5   -0.48    0.27
   0   2  -5   -0.22    0.23
   0  -2   6    8.86    0.83
   0   2   6   10.61    0.91
   0   2  -6   10.02    1.36
   0  -2  -6   11.62    1.44
   0   2  -7    0.85    0.78
   0  -2  -7   -0.20    0.65
   0   2   7   -0.44    0.33
   0  -2   7   -0.65    0.39
   0   2  -8    0.60    0.90
   0   2   8    0.31    0.44
   0  -2  -8    0.28    0.85
  -1   2   0  314.35    7.36
  -1  -2   0  307.49    7.36
   1   2   0  306.68    7.37
   1  -2   0  311.73    7.36
  -1  -2   0  309.13    7.37
  -1  -2   0  305.87    7.38
  -1  -2  -1   17.24    0.64
  -1   2   1   18.04    0.69
   1   2  -1   17.68    0.69
   1  -2   1   18.09    0.60
  -1  -2  -1   17.10    0.64
  -1  -2  -1   18.58    0.69
   1   2   1   17.03    0.65
  -1   2  -1   17.31    0.64
  -1  -2   1   17.65    0.59
  -1  -2   1   17.97    0.73
  -1  -2   1   17.93    0.68
   1  -2  -1   17.40    0.68
  -1   2  -1   17.85    0.60
  -1  -2  -2  547.83   12.97
  -1   2   2  541.34   13.08
  -1  -2  -2  551.22   13.28
   1   2  -2  565.75   12.86
   1  -2   2  543.49   12.87
  -1  -2  -2  559.89   13.14
   1  -2   2  509.09   13.17
   1   2  -2  549.55   13.08
  -1  -2  -2  557.03   12.92
   1  -2  -2  568.45   13.26
   1  -2  -2  533.61   13.07
   1   2   2  554.60   12.93
  -1   2  -2  526.54   13.21
  -1   2  -2  549.76   13.02
  -1  -2   2  533.05   13.06
  -1   2  -2  564.27   12.89
  -1   2  -2  555.35   13.01
  -1  -2   2  557.62   13.17
  -1  -2  -3   42.72    1.28
  -1   2   3   41.66    1.45
  -1  -2  -3   45.33    1.58
  -1   2   3   39.87    1.31
   1   2  -3   43.23    1.22
   1   2  -3   40.12    1.65
   1  -2   3   41.77    1.25
   1   2  -3   43.41    1.44
  -1  -2  -3   44.50    1.30
  -1  -2  -3   46.74    1.75
   1  -2   3   42.03    1.50
   1  -2  -3   44.52    1.45
  -1   2  -3   40.73    1.66
   1  -2  -3   43.25    1.68
  -1  -2   3   41.13    1.51
  -1   2  -3   43.53    1.42
  -1  -2   3   41.31    1.43
   1   2   3   41.41    1.29
  -1   2  -3   43.64    1.26
  -1   2  -3   42.52    1.38
  -1  -2  -4  285.42    7.13
  -1  -2  -4  294.81    7.87
   1   2  -4  283.89    7.33
  -1   2   4  286.69    7.36
  -1   2   4  292.64    7.19
   1  -2   4  294.53    7.12
   1  -2   4  296.18    7.42
   1   2  -4  277.70    7.74
   1   2  -4  293.24    7.07
  -1   2  -4  302.74    7.41
  -1   2  -4  290.67    7.27
   1  -2  -4  293.37    7.82
  -1   2  -4  288.83    7.11
  -1  -2   4  304.69    7.38
  -1   2  -4  281.95    7.77
  -1  -2   4  290.55    7.44
   1  -2  -4  292.06    7.35
   1   2   4  287.55    7.16
   1   2  -5   38.71    1.52
   1   2  -5   36.36    1.96
  -1   2   5   35.38    1.51
   1  -2   5   38.55    1.35
  -1  -2  -5   37.87    2.00
   1  -2   5   37.60    1.56
  -1  -2   5   34.43    1.50
   1  -2  -5   37.84    2.01
  -1   2  -5   36.78    1.95
   1   2   5   38.29    1.37
  -1   2  -5   42.14    1.49
  -1  -2   5   37.41    1.61
   1  -2  -5   38.18    1.52
   1  -2   6  149.37    4.06
  -1   2   6  152.66    4.39
   1   2  -6  150.19    5.05
  -1  -2  -6  155.50    5.15
  -1   2  -6  151.11    5.07
   1   2   6  149.47    4.11
  -1  -2   6  148.77    4.34
  -1  -2   6  147.51    4.41
   1  -2  -6  153.86    5.10
  -1  -2  -7    4.10    1.09
   1   2  -7    4.81    1.08
   1  -2   7    4.94    0.78
  -1   2   7    5.52    0.80
   1  -2  -7    3.46    0.98
  -1  -2   7    5.85    0.81
   1   2   7    4.30    0.61
  -1   2  -7    4.81    1.12
  -1   2   8   68.96    2.65
   1   2  -8   68.79    3.59
  -1  -2  -8   74.44    3.74
  -1   2  -8   63.60    3.48
   1  -2  -8   67.23    3.60
  -1  -2   8   71.21    2.65
  -2   2   0    9.50    0.49
  -2  -2   0   10.01    0.52
  -2  -2   0   10.70    0.50
  -2   2   0   10.05    0.52
   2   2   0    9.69    0.52
  -2  -2   0   10.44    0.55
   2  -2   0   10.23    0.50
  -2   2   0   10.49    0.47
  -2   2   1    7.20    0.48
  -2  -2  -1    7.75    0.46
  -2  -2  -1    7.63    0.48
   2   2  -1    7.79    0.51
  -2  -2  -1    7.95    0.59
  -2   2  -1    6.78    0.44
  -2   2  -1    7.98    0.47
  -2  -2   1    7.49    0.54
   2  -2  -1    6.87    0.48
  -2   2  -1    7.64    0.44
   2   2   1    7.80    0.40
  -2  -2   1    7.09    0.48
  -2   2  -1    7.39    0.54
  -2  -2   1    7.51    0.44
  -2  -2  -2    6.26    0.63
  -2   2   2    5.00    0.48
   2   2  -2    5.70    0.48
  -2  -2  -2    5.70    0.54
  -2  -2  -2    5.75    0.42
  -2   2  -2    5.03    0.43
  -2   2  -2    4.63    0.35
  -2  -2   2    5.40    0.37
   2  -2  -2    5.57    0.51
  -2   2  -2    6.87    0.66
  -2   2  -2    5.40    0.48
  -2  -2   2    5.53    0.56
  -2  -2   2    5.97    0.49
  -2  -2  -3   11.94    0.92
  -2   2   3   10.15    0.68
   2   2  -3   11.01    0.69
   2  -2   3    9.79    0.74
  -2  -2  -3   11.39    0.76
  -2  -2  -3   11.41    0.58
  -2  -2   3   11.00    0.76
  -2   2  -3    9.75    0.84
  -2   2  -3   10.34    0.64
  -2  -2   3   10.11    0.72
  -2   2  -3   11.84    0.70
   2  -2  -3   10.66    0.68
  -2  -2  -4    1.72    0.53
   2  -2   4    1.43    0.45
  -2  -2  -4    1.88    0.33
   2   2  -4    2.19    0.47
  -2   2   4    1.65    0.42
  -2   2   4    2.50    0.47
  -2  -2  -4    0.83    0.52
   2   2  -4    1.22    0.55
  -2   2  -4    2.14    0.57
  -2  -2   4    1.73    0.47
  -2  -2   4    2.25    0.54
  -2   2  -4    2.38    0.46
   2  -2  -4    2.02    0.43
  -2   2  -4    2.24    0.41
   2  -2  -4    2.17    0.61
  -2  -2  -5    7.68    1.14
   2   2  -5    9.01    0.86
   2   2  -5    7.61    1.07
  -2   2   5    8.85    0.87
   2  -2   5    9.43    0.90
  -2  -2  -5    7.23    0.89
  -2   2   5    7.85    0.70
   2  -2  -5    6.70    0.77
  -2   2  -5    7.89    0.76
  -2  -2   5    8.13    0.86
  -2  -2   5    9.58    0.97
   2  -2  -5    8.02    1.13
  -2   2  -5    8.79    1.18
  -2   2  -5    8.36    0.88
  -2  -2  -6    4.77    1.04
  -2   2   6    4.14    0.70
   2   2  -6    2.60    0.83
   2  -2  -6    4.17    0.98
  -2   2  -6    3.39    0.76
  -2  -2   6    3.23    0.68
  -2  -2   6    3.20    0.68
  -2   2  -6    7.43    1.22
  -2  -2  -7    0.41    0.73
  -2   2   7    0.46    0.53
   2   2  -7    1.42    0.89
   2  -2  -7    1.79    0.88
  -2  -2   7    1.07    0.60
  -2   2  -7    2.78    1.00
  -2  -2  -8    0.89    0.90
  -2   2   8    1.51    0.62
   2   2  -8    0.32    0.96
  -2  -2   8    2.21    0.73
  -2   2  -8    2.82    1.14
   2  -2  -8    1.36    0.99
  -3  -2   0  316.15    7.74
  -3  -2   0  317.42    7.80
   3   2   0  323.20    7.76
  -3   2   0  316.79    7.80
   3  -2   0  317.14    7.72
  -3  -2   0  315.13    7.72
  -3   2   0  317.32    7.72
  -3  -2   0  317.42    7.86
  -3   2   0  328.19    7.70
   3   2  -1  165.04    4.26
  -3  -2  -1  158.19    4.22
   3  -2   1  168.53    4.01
  -3  -2  -1  157.41    4.41
  -3  -2  -1  158.47    4.01
  -3   2   1  170.63    3.99
  -3  -2  -1  153.65    4.17
  -3   2   1  164.43    4.21
  -3   2  -1  157.90    4.22
  -3  -2   1  166.66    4.18
  -3   2  -1  161.68    4.00
  -3   2  -1  155.96    4.36
  -3  -2   1  168.11    4.10
  -3  -2   1  166.58    4.33
   3  -2  -1  161.24    4.21
  -3  -2   1  163.95    4.22
  -3   2  -1  160.21    4.16
  -3   2  -1  161.35    4.16
   3   2   1  169.00    4.05
  -3  -2  -2  210.43    5.63
  -3  -2  -2  217.15    5.29
  -3   2   2  200.60    5.36
  -3  -2  -2  209.96    5.39
   3   2  -2  208.67    5.41
  -3  -2   2  200.22    5.36
  -3   2  -2  207.68    5.57
  -3   2  -2  211.26    5.37
  -3   2  -2  207.03    5.19
  -3   2  -2  209.51    5.32
  -3  -2   2  207.16    5.22
  -3  -2   2  205.62    5.48
   3  -2  -2  207.86    5.39
  -3  -2  -3   53.26    1.67
  -3  -2  -3   52.88    1.89
  -3   2   3   52.95    1.85
  -3  -2  -3   51.03    2.10
   3   2  -3   51.46    1.85
  -3  -2   3   54.18    1.62
  -3   2  -3   48.07    2.03
   3  -2  -3   49.87    1.83
  -3  -2   3   56.36    1.96
  -3   2  -3   51.20    1.81
  -3  -2   3   55.05    1.88
  -3   2  -3   52.95    1.79
  -3   2  -3   53.93    1.58
  -3  -2  -4  245.88    6.01
  -3  -2  -4  240.51    6.77
  -3  -2  -4  241.63    6.41
   3   2  -4  240.25    6.34
  -3   2   4  235.72    6.31
   3  -2   4  224.73    6.32
  -3  -2   4  234.17    6.39
  -3   2  -4  234.06    6.68
  -3   2  -4  241.50    6.23
  -3  -2   4  236.87    6.32
  -3   2  -4  242.05    6.32
   3  -2  -4  235.25    6.69
   3  -2  -4  230.94    6.30
  -3   2   5   24.70    1.36
  -3  -2  -5   25.17    1.49
  -3  -2  -5   26.10    1.75
   3   2  -5   25.88    1.35
   3  -2   5   25.44    1.31
   3   2  -5   20.05    1.58
  -3  -2   5   23.23    1.34
  -3   2  -5   22.83    1.24
  -3   2  -5   25.55    1.40
   3  -2  -5   25.20    1.33
  -3   2  -5   23.68    1.64
   3  -2  -5   24.28    1.69
  -3  -2   5   24.99    1.40
  -3   2   6  116.95    3.78
   3   2  -6  113.35    4.36
  -3  -2  -6  123.35    4.46
  -3  -2  -6  120.27    4.03
  -3   2  -6  118.60    3.88
   3  -2  -6  119.87    3.88
  -3  -2   6  115.39    3.82
  -3   2  -6  112.45    4.31
  -3  -2   6  119.72    3.81
   3  -2  -6  116.78    4.38
  -3   2   7    8.53    1.08
  -3  -2  -7   10.01    1.60
   3   2  -7    7.17    1.35
  -3  -2   7    9.07    1.15
  -3   2  -7    7.14    1.30
   3  -2  -7    9.85    1.54
   3   2  -8   48.56    3.06
  -3   2   8   50.75    2.37
  -3  -2  -8   43.26    2.98
   3  -2  -8   47.08    3.09
  -3  -2   8   43.97    2.25
  -3   2  -8   45.68    2.97
  -4   2   0   11.34    0.69
  -4   2   0   11.95    0.72
  -4  -2   0   13.26    0.69
  -4  -2   0   11.49    0.62
  -4   2   0   12.24    0.61
   4   2   0   11.81    0.68
  -4   2   0   10.44    0.61
   4  -2   0   11.90    0.65
  -4  -2   0   11.33    0.69
  -4   2   1    1.73    0.37
  -4   2   1    0.74    0.29
   4  -2   1    1.41    0.27
  -4   2   1    1.40    0.24
  -4  -2  -1    1.31    0.34
  -4  -2  -1    1.02    0.24
  -4  -2  -1    0.63    0.28
   4   2  -1    1.21    0.35
  -4   2  -1    1.26    0.26
  -4  -2   1    1.20    0.38
   4   2   1    1.27    0.29
  -4   2  -1    1.36    0.32
  -4  -2   1    1.70    0.36
   4  -2  -1    1.01    0.32
  -4  -2   1    1.20    0.29
  -4   2  -1    1.39    0.32
  -4  -2   1    1.12    0.33
  -4   2  -1    1.69    0.36
  -4  -2  -2    7.37    0.66
  -4  -2  -2    7.98    0.71
  -4   2   2    6.54    0.65
  -4  -2  -2    7.35    0.83
   4   2  -2    8.29    0.77
  -4   2  -2    6.38    0.63
   4  -2  -2    7.10    0.68
  -4   2  -2    6.96    0.62
  -4  -2   2    7.57    0.65
  -4   2  -2    7.20    0.57
  -4   2  -2    8.94    0.92
  -4  -2   2    8.41    0.84
  -4  -2   2    7.78    0.75
   4   2  -3    3.63    0.61
  -4  -2  -3    6.34    0.88
  -4  -2  -3    3.99    0.51
  -4  -2  -3    5.06    0.68
  -4   2   3    3.26    0.55
  -4  -2   3    4.81    0.72
  -4  -2   3    3.54    0.47
  -4   2  -3    4.75    0.51
  -4   2  -3    3.24    0.55
  -4   2  -3    4.27    0.74
  -4  -2   3    4.47    0.66
   4  -2  -3    4.26    0.60
  -4   2  -3    4.71    0.64
   4  -2   4   11.62    0.97
  -4  -2  -4   11.06    0.75
  -4  -2  -4   11.57    1.23
  -4  -2  -4   11.49    1.04
   4   2  -4   11.52    1.07
  -4   2   4   11.07    1.00
  -4   2  -4   11.85    1.01
  -4   2  -4   12.76    0.71
  -4   2  -4   12.10    1.02
  -4  -2   4   11.34    1.01
  -4   2  -4   13.15    1.35
  -4  -2   4   12.08    0.99
   4  -2  -4   11.33    0.93
   4   2  -5   -0.13    0.59
  -4  -2  -5    1.04    0.57
  -4   2   5    1.47    0.54
   4   2  -5    1.09    0.50
  -4  -2  -5    1.19    0.71
   4  -2  -5    0.36    0.63
  -4   2  -5    0.88    0.44
  -4  -2   5    0.97    0.53
  -4  -2   5    0.66    0.49
  -4   2  -5    0.48    0.48
   4  -2  -5    0.57    0.44
  -4   2  -5    1.30    0.68
  -4  -2  -6    1.32    0.71
   4   2  -6    1.80    0.89
  -4   2   6    1.26    0.63
  -4  -2  -6    1.12    0.73
   4   2  -6    0.95    0.55
   4  -2  -6    0.94    0.55
   4  -2  -6    2.20    0.90
  -4   2  -6    1.07    0.60
  -4   2  -6    1.86    0.83
  -4  -2   6    2.10    0.66
  -4  -2   6    1.15    0.63
   4   2  -7    0.22    0.80
  -4  -2  -7    1.58    0.89
  -4   2   7    0.71    0.62
   4  -2  -7   -0.51    0.75
  -4  -2   7    0.70    0.61
  -4   2  -7    0.31    0.69
  -4   2  -7    1.44    0.86
   4   2  -8    1.08    1.17
  -4  -2  -8    0.34    0.91
  -4   2   8    0.76    0.69
   4  -2  -8    1.36    1.13
  -4   2  -8    0.51    0.98
  -4  -2   8    1.28    0.71
   5  -2   0  175.68    4.60
  -5   2   0  174.06    4.73
  -5  -2   0  175.03    4.69
  -5   2   0  171.19    4.58
  -5   2   0  180.68    4.56
   5   2   0  178.42    4.65
  -5  -2   0  174.80    4.60
  -5  -2   0  171.61    4.73
  -5   2   0  174.88    4.79
  -5   2   1  160.24    4.45
  -5  -2  -1  162.27    4.47
  -5  -2  -1  164.69    4.44
   5   2  -1  168.28    4.47
  -5  -2  -1  163.80    4.18
   5  -2   1  159.38    4.18
  -5   2   1  162.55    4.14
  -5   2   1  154.37    4.36
   5   2   1  160.65    4.21
  -5   2  -1  166.65    4.18
  -5  -2   1  160.62    4.44
  -5   2  -1  168.47    4.44
  -5   2  -1  161.86    4.34
  -5  -2   1  159.03    4.35
  -5   2  -1  165.42    4.53
   5  -2  -1  161.88    4.42
  -5  -2   1  153.87    4.56
  -5  -2   1  162.91    4.41
  -5  -2  -2   96.66    3.41
  -5   2   2  101.54    3.08
  -5  -2  -2   98.13    3.10
  -5  -2  -2  103.16    3.01
   5   2  -2   97.61    3.09
  -5  -2   2  101.20    3.00
   5  -2  -2   96.41    3.06
  -5  -2   2  101.14    3.09
  -5   2  -2   99.22    2.96
  -5   2  -2  104.41    3.13
  -5   2  -2  104.93    3.02
  -5   2  -2   97.17    3.35
  -5  -2   2  100.14    3.22
  -5  -2   2  100.60    2.91
  -5   2   3  189.99    5.30
  -5  -2  -3  190.62    5.72
  -5  -2  -3  188.62    5.09
  -5  -2  -3  198.00    5.36
   5   2  -3  189.32    5.33
  -5   2  -3  188.64    5.31
   5  -2  -3  192.55    5.32
  -5   2  -3  178.28    5.16
  -5  -2   3  186.49    5.07
  -5   2  -3  186.50    5.63
  -5  -2   3  186.09    5.42
  -5   2  -3  193.02    5.04
  -5  -2   3  190.06    5.30
   5   2  -4   80.16    2.85
  -5  -2  -4   78.23    2.83
  -5  -2  -4   81.17    2.52
  -5   2   4   79.31    2.79
  -5  -2  -4   76.36    3.19
  -5   2  -4   72.12    3.08
  -5  -2   4   80.85    2.84
  -5  -2   4   77.34    2.49
   5  -2  -4   74.68    2.77
  -5   2  -4   82.15    2.45
  -5  -2   4   76.77    2.87
  -5   2  -4   80.89    2.82
  -5   2  -4   81.68    2.75
  -5  -2  -5   78.86    3.45
   5   2  -5   83.00    3.04
  -5   2   5   82.91    3.03
  -5  -2  -5   81.67    3.09
   5  -2  -5   84.96    3.03
  -5   2  -5   78.98    3.39
  -5  -2   5   79.12    2.97
  -5   2  -5   85.43    3.06
  -5  -2   5   82.13    3.08
  -5   2  -5   84.39    2.95
   5   2  -6   41.97    2.66
   5   2  -6   49.01    2.29
  -5  -2  -6   47.11    2.76
  -5   2   6   48.07    2.30
  -5  -2  -6   53.80    2.48
   5  -2  -6   47.40    2.25
  -5  -2   6   47.88    2.30
  -5  -2   6   49.03    2.32
  -5   2  -6   49.86    2.37
   5  -2  -6   48.39    2.76
  -5   2  -6   46.65    2.68
   5   2  -7   52.65    3.17
  -5  -2  -7   55.54    2.85
  -5  -2  -7   56.52    3.24
  -5   2   7   59.29    2.67
  -5  -2   7   60.25    3.26
  -5   2  -7   56.87    2.76
  -5   2  -7   53.31    3.14
  -5  -2   7   55.07    2.62
   5  -2  -7   53.65    3.23
   6   2   0    1.87    0.46
  -6   2   0    1.15    0.36
  -6  -2   0    1.30    0.45
  -6   2   0    1.28    0.38
   6  -2   0    1.91    0.45
  -6   2   0    1.52    0.48
  -6  -2   0    0.65    0.36
  -6   2   0    1.81    0.47
  -6  -2   0    1.96    0.43
   6   2  -1    0.87    0.44
   6  -2   1    0.86    0.35
  -6   2   1    1.30    0.47
  -6   2   1    0.91    0.32
  -6   2   1    1.22    0.42
  -6   2   1    0.66    0.39
  -6  -2  -1    1.49    0.46
  -6  -2  -1    0.41    0.36
   6  -2  -1    0.47    0.37
  -6  -2   1    1.09    0.39
   6   2   1    0.47    0.38
  -6   2  -1    0.33    0.34
  -6  -2   1    0.88    0.42
  -6  -2   1    0.41    0.35
  -6   2  -1    0.55    0.39
  -6   2  -1    1.23    0.42
   6   2  -2    0.65    0.46
  -6   2   2    1.24    0.46
  -6  -2  -2    0.88    0.43
  -6  -2  -2    0.48    0.42
   6  -2  -2    0.28    0.41
  -6  -2   2    0.56    0.41
  -6   2  -2    0.81    0.44
  -6  -2   2    1.84    0.44
  -6  -2   2    1.91    0.52
  -6   2  -2    1.91    0.50
  -6   2  -2    1.11    0.41
  -6  -2   2    1.09    0.49
  -6  -2  -3    4.57    0.97
   6   2  -3    3.03    0.70
  -6   2   3    4.55    0.72
  -6  -2  -3    4.67    0.67
  -6  -2  -3    5.23    0.76
   6  -2  -3    4.40    0.72
  -6   2  -3    3.73    0.66
  -6  -2   3    4.66    0.69
  -6   2  -3    4.79    0.73
  -6  -2   3    3.86    0.71
  -6  -2   3    6.20    0.93
  -6   2  -3    3.79    0.87
  -6   2  -3    3.16    0.58
  -6   2   4    0.59    0.50
  -6  -2  -4    0.05    0.59
   6   2  -4    1.09    0.59
  -6  -2  -4    1.06    0.57
  -6  -2  -4    0.52    0.40
  -6   2  -4   -0.57    0.31
  -6   2  -4    1.04    0.53
  -6   2  -4    0.05    0.61
  -6  -2   4    1.52    0.60
   6  -2  -4    0.54    0.49
  -6  -2   4    1.25    0.66
  -6  -2   4    0.26    0.42
  -6   2  -4    0.31    0.42
  -6  -2  -5    0.99    0.82
  -6  -2  -5    1.20    0.65
   6   2  -5    1.35    0.64
  -6   2   5    0.63    0.55
  -6   2  -5   -0.15    0.67
   6  -2  -5    0.99    0.58
  -6  -2   5    1.09    0.59
  -6  -2   5    0.70    0.57
  -6   2  -5   -0.06    0.48
  -6   2  -5    0.87    0.61
  -6  -2  -6    1.09    0.92
   6   2  -6    2.13    1.04
   6   2  -6    0.60    0.62
  -6  -2  -6    1.11    0.76
  -6   2   6    1.88    0.78
   6  -2  -6    0.59    0.59
  -6   2  -6    0.89    0.86
  -6  -2   6    1.74    0.75
  -6  -2   6    1.80    0.77
   6  -2  -6    1.64    1.03
  -6   2  -6    1.49    0.77
   6   2  -7   -0.41    1.01
  -6  -2  -7    0.33    0.84
  -6  -2  -7    0.58    1.02
  -6   2   7    0.60    0.69
  -6  -2   7    0.93    0.79
  -6   2  -7    1.39    0.82
   6  -2  -7    0.45    1.09
  -6   2  -7    0.92    0.99
  -7  -2   0   15.04    1.06
   7  -2   0   17.29    1.04
  -7   2   0   14.22    1.06
   7   2   0   14.67    1.04
  -7   2   0   14.58    0.94
  -7  -2   0   15.98    1.10
  -7   2   0   16.41    1.16
  -7  -2  -1  171.22    5.02
  -7   2   1  176.54    5.04
  -7   2   1  167.47    5.03
   7   2  -1  175.25    4.98
  -7   2   1  176.48    4.62
   7  -2   1  180.19    4.69
  -7  -2  -1  170.79    5.00
  -7   2   1  170.94    4.88
   7   2   1  177.76    4.71
   7  -2  -1  167.48    4.89
  -7   2  -1  167.76    5.06
  -7   2  -1  174.58    4.84
  -7  -2   1  176.23    4.92
  -7  -2   1  170.00    4.98
  -7  -2   1  174.69    4.91
  -7   2  -1  174.77    4.98
   7   2  -2   40.61    1.83
  -7   2   2   35.85    1.69
  -7  -2  -2   35.71    1.69
  -7  -2  -2   37.55    1.80
   7  -2  -2   38.24    1.76
  -7  -2   2   31.96    1.63
  -7   2  -2   35.98    1.78
  -7   2  -2   37.12    1.67
  -7  -2   2   36.00    1.61
  -7   2  -2   41.09    1.73
  -7  -2   2   32.79    1.65
  -7  -2  -3  111.63    3.47
  -7  -2  -3  103.51    3.58
   7   2  -3  103.60    3.60
  -7   2   3  104.51    3.53
  -7  -2   3  108.70    3.33
  -7  -2   3  104.73    3.40
  -7  -2   3  100.51    3.53
   7  -2  -3  101.00    3.53
  -7   2  -3  107.38    3.37
  -7   2  -3  107.12    3.63
  -7   2  -3  107.19    3.49
  -7  -2  -4   20.87    1.28
   7   2  -4   19.12    1.46
  -7  -2  -4   20.24    1.48
  -7   2   4   20.98    1.46
  -7  -2  -4   19.00    1.90
  -7  -2   4   19.24    1.26
  -7   2  -4   17.97    1.17
   7  -2  -4   19.95    1.43
  -7   2  -4   19.78    1.47
  -7   2  -4   17.01    1.75
  -7   2  -4   17.70    1.34
  -7  -2   4   19.74    1.43
  -7  -2  -5   51.72    3.00
  -7  -2  -5   55.83    2.63
  -7   2   5   54.98    2.57
   7   2  -5   52.29    2.55
  -7   2  -5   54.39    2.99
  -7  -2   5   60.02    2.66
   7  -2  -5   53.97    2.55
  -7   2  -5   56.69    2.63
  -7  -2  -6   20.37    1.89
  -7   2   6   18.19    1.73
  -7  -2  -6   20.03    2.30
   7   2  -6   20.64    1.71
  -7   2  -6   15.69    1.64
   7  -2  -6   15.78    2.03
  -7  -2   6   18.91    1.77
  -7   2  -6   18.48    2.12
   7  -2  -6   19.94    1.64
  -8   2   0   -0.39    0.47
  -8   2   0   -0.69    0.39
  -8   2   0    0.39    0.40
  -8  -2   0    0.53    0.48
  -8  -2   0    0.07    0.41
   8   2   0    0.17    0.46
   8  -2   0   -0.38    0.35
  -8   2   1    0.47    0.48
  -8   2   1    1.24    0.58
   8   2  -1    1.27    0.60
   8  -2   1    1.74    0.47
  -8  -2  -1    2.22    0.64
  -8  -2  -1    1.21    0.55
  -8  -2   1    1.46    0.52
  -8   2  -1    2.23    0.62
  -8   2  -1    1.83    0.63
   8   2   1    1.83    0.55
   8  -2  -1    1.83    0.59
  -8  -2   1    2.03    0.60
  -8   2  -1    2.47    0.56
  -8  -2  -2    1.87    0.63
   8   2  -2    2.58    0.71
  -8   2   2    2.00    0.61
  -8  -2  -2    1.49    0.61
  -8   2   2    2.62    0.68
  -8  -2   2    2.12    0.58
   8  -2  -2    1.65    0.64
  -8  -2   2    0.79    0.49
  -8   2  -2    1.18    0.54
  -8  -2   2    1.40    0.60
  -8   2  -2    1.72    0.62
  -8   2  -2    1.08    0.59
   8   2  -3    0.65    0.59
  -8  -2  -3    0.71    0.56
  -8   2   3    0.68    0.54
  -8  -2  -3    0.59    0.49
  -8   2  -3    1.15    0.58
  -8  -2   3    0.32    0.52
  -8  -2   3    1.09    0.52
  -8   2  -3    1.20    0.59
   8  -2  -3    1.39    0.63
  -8  -2   3    2.16    0.66
  -8   2  -3    1.04    0.61
  -8  -2  -4    0.94    0.57
  -8   2   4    1.18    0.70
  -8  -2  -4    0.90    0.65
   8   2  -4    1.26    0.76
  -8   2  -4    1.25    0.65
  -8   2  -4    1.52    0.55
  -8  -2   4    1.49    0.64
   8  -2  -4    0.49    0.67
  -8  -2   4    1.37    0.72
  -8  -2  -5    0.30    0.72
  -8  -2  -5    0.70    0.99
  -8   2   5    0.97    0.72
   8   2  -5    1.31    0.79
  -8   2  -5    2.30    1.10
   8  -2  -5    2.67    0.83
  -8   2  -5    1.21    0.77
  -8  -2   5    2.12    0.79
  -8  -2  -6    0.70    1.05
  -8  -2  -6    0.51    0.87
   8   2  -6    0.57    0.80
  -8   2   6    0.68    0.73
   8  -2  -6    2.07    0.89
  -8   2  -6    0.43    0.82
  -8  -2   6   -0.36    0.69
  -8   2  -6    0.25    0.94
   9  -2   0    3.35    0.67
   9   2   0    2.89    0.69
  -9   2   0    2.44    0.74
  -9  -2   0    2.70    0.72
  -9  -2   0    2.89    0.73
  -9   2   0    3.19    0.77
  -9   2   1  130.59    4.38
   9   2  -1  131.41    4.26
  -9  -2  -1  138.92    4.40
  -9  -2  -1  129.38    4.37
   9  -2   1  129.38    3.89
  -9   2   1  139.45    4.47
   9  -2  -1  129.25    4.21
  -9   2  -1  129.36    4.33
   9   2   1  135.42    3.96
  -9   2  -1  133.20    4.49
  -9  -2   1  132.12    4.36
  -9  -2   1  133.99    4.29
   9   2  -2    1.44    0.72
  -9  -2  -2    1.84    0.68
  -9   2   2    1.44    0.65
  -9  -2  -2    1.94    0.71
  -9   2  -2    1.28    0.67
  -9   2  -2    0.58    0.53
  -9  -2   2    1.45    0.64
   9  -2  -2    1.01    0.67
  -9  -2   2    1.84    0.58
  -9   2   3   75.43    3.08
  -9  -2  -3   72.74    2.96
  -9  -2  -3   76.53    3.21
  -9   2   3   77.49    3.79
   9   2  -3   79.64    3.21
   9  -2  -3   77.64    3.16
  -9  -2   3   76.74    3.01
  -9   2  -3   79.64    3.29
  -9  -2   3   76.56    3.10
  -9   2  -3   79.76    3.01
   9   2  -4    1.65    0.83
  -9   2   4   -0.35    0.58
  -9   2   4   -0.10    0.58
  -9  -2  -4    0.35    0.55
  -9  -2  -4   -0.04    0.64
   9  -2  -4    0.93    0.72
  -9  -2   4    0.83    0.69
  -9   2  -4    1.46    0.79
  -9   2  -4    0.38    0.56
   9   2  -5   72.95    3.32
  -9  -2  -5   68.66    3.34
  -9   2   5   78.41    3.31
  -9   2  -5   74.27    3.41
  -9  -2   5   74.91    3.28
   9  -2  -5   69.51    3.26
 -10   2   0    1.64    0.77
  10  -2   0    0.80    0.57
 -10   2   0    1.18    0.76
 -10  -2   0    0.72    0.65
 -10  -2   0    0.17    0.55
  10   2   0    0.32    0.57
 -10  -2  -1    0.11    0.59
 -10   2   1    0.25    0.61
  10   2  -1    0.92    0.72
 -10  -2  -1    0.93    0.71
  10  -2   1    0.56    0.47
 -10  -2   1    0.61    0.62
  10  -2  -1    1.17    0.68
  10   2   1    0.37    0.51
 -10  -2   1    0.03    0.50
 -10   2  -1    0.86    0.65
 -10   2  -1    0.54    0.68
 -10  -2  -2    0.90    0.74
 -10   2   2    0.69    0.67
  10   2  -2    1.49    0.79
 -10  -2  -2   -0.18    0.50
  10  -2  -2    0.69    0.67
 -10  -2   2   -0.28    0.53
 -10   2  -2    0.87    0.75
 -10   2  -2   -0.52    0.59
 -10  -2   2    0.12    0.60
 -10   2   3    0.83    0.73
  10   2  -3   -0.41    0.69
 -10  -2  -3   -0.05    0.57
 -10  -2  -3   -0.57    0.61
  10  -2  -3   -0.26    0.65
 -10  -2   3    0.08    0.69
 -10   2  -3    0.72    0.80
 -10   2  -3   -0.41    0.55
  10   2  -4    1.00    0.82
 -10   2   4    1.12    0.77
 -10  -2  -4    0.28    0.81
 -10  -2  -4   -0.53    0.57
  10  -2  -4    1.43    0.85
 -10   2  -4    1.14    0.75
 -10   2  -4   -0.25    0.77
  11   2   0    3.44    0.81
 -11  -2   0    3.25    0.97
 -11   2   0    1.34    0.89
  11  -2   0    3.12    0.79
 -11  -2   0    3.57    0.95
 -11  -2  -1   59.91    2.86
  11   2  -1   62.34    2.72
 -11  -2  -1   59.09    2.93
 -11   2   1   58.11    2.92
 -11  -2   1   53.26    2.74
 -11  -2   1   57.97    2.78
 -11   2  -1   63.13    3.07
 -11   2  -1   60.32    2.88
  11  -2  -1   62.25    2.71
 -11  -2  -2    3.30    1.02
 -11  -2  -2    4.00    1.00
  11   2  -2    4.50    0.99
 -11   2   2    2.12    0.86
  11  -2  -2    4.62    0.96
 -11   2  -2    4.21    1.16
 -11  -2   2    4.37    1.09
 -11   2  -2    3.19    0.99
   0  -3   0   -0.10    0.15
   0   3   0    0.16    0.18
   0  -3   0   -0.10    0.16
   0  -3  -1  352.18    8.48
   0  -3   1  367.00    8.48
   0   3  -1  358.68    8.48
   0   3   1  344.93    8.48
   0  -3   1  350.48    8.62
   0   3   2    0.39    0.21
   0   3  -2    0.11    0.17
   0   3  -2    0.08    0.15
   0  -3  -2    0.03    0.17
   0  -3   2    0.12    0.20
   0   3  -2    0.09    0.21
   0  -3  -2    0.38    0.25
   0  -3   2    0.22    0.27
   0  -3  -3  329.23    8.21
   0  -3   3  319.85    8.05
   0   3  -3  315.31    7.75
   0  -3  -3  312.96    7.83
   0   3   3  321.23    7.85
   0  -3   3  316.18    7.81
   0   3  -3  319.95    7.82
   0   3  -3  316.16    8.13
   0   3  -3  326.66    7.78
   0  -3   4    0.29    0.30
   0  -3  -4    0.60    0.45
   0   3   4    0.03    0.25
   0  -3   4    0.38    0.35
   0   3  -4    0.04    0.22
   0   3  -4   -0.19    0.34
   0   3  -4    0.19    0.23
   0  -3  -4    0.06    0.22
   0   3   5   75.78    2.42
   0   3  -5   80.41    2.33
   0  -3  -5   77.54    3.02
   0  -3   5   75.17    2.59
   0  -3   5   72.07    2.36
   0   3  -5   81.59    3.00
   0   3   6   -0.14    0.34
   0  -3  -6   -0.09    0.58
   0  -3   6   -0.46    0.34
   0   3  -6   -0.21    0.53
   0  -3   6   -0.10    0.47
   0   3  -7   80.24    3.60
   0   3   7   84.92    2.80
   0  -3  -7   85.07    3.72
   0  -3   7   81.60    2.75
   0  -3  -8    0.37    0.88
   0   3   8    0.11    0.43
   0   3  -8    0.85    0.90
  -1  -3   0   22.63    0.79
  -1   3   0   21.87    0.77
   1  -3   0   23.27    0.78
  -1  -3   0   23.52    0.79
  -1  -3   0   23.87    0.81
   1   3   0   23.04    0.81
   1  -3   1  190.82    4.89
  -1  -3  -1  201.50    4.95
   1   3  -1  203.78    4.98
   1  -3   1  202.54    5.06
  -1  -3  -1  204.73    4.96
  -1   3   1  202.22    4.97
  -1  -3   1  200.85    4.96
   1   3   1  193.53    4.95
   1  -3  -1  203.12    4.96
  -1   3  -1  197.00    4.90
  -1  -3   1  200.65    5.04
  -1  -3   1  203.55    4.86
   1  -3   2   18.38    0.64
  -1   3   2   18.27    0.77
  -1  -3  -2   17.35    0.87
  -1  -3  -2   17.06    0.80
   1  -3   2   16.24    0.86
   1   3  -2   15.46    0.73
  -1  -3  -2   16.52    0.66
   1  -3  -2   16.26    0.83
  -1   3  -2   16.27    0.69
  -1   3  -2   14.92    0.79
  -1   3  -2   14.94    0.64
   1  -3  -2   15.33    0.73
  -1  -3   2   16.89    0.84
  -1  -3   2   17.18    0.75
  -1   3  -2   17.12    0.64
   1   3   2   18.61    0.68
   1   3  -3  182.87    5.09
   1   3  -3  186.72    4.87
  -1  -3  -3  188.96    5.17
  -1   3   3  192.68    4.91
   1   3  -3  186.48    4.62
   1  -3   3  186.01    4.66
  -1  -3  -3  184.88    4.70
   1  -3   3  183.60    5.01
   1  -3  -3  195.36    5.17
  -1   3  -3  191.76    4.80
  -1  -3   3  186.15    4.85
   1   3   3  190.62    4.73
  -1   3  -3  187.89    5.10
  -1  -3   3  189.37    5.01
  -1   3  -3  189.87    4.79
   1  -3  -3  186.48    4.88
  -1   3  -3  188.87    4.68
   1  -3   4    1.01    0.46
  -1   3   4    2.02    0.44
  -1  -3  -4    1.30    0.31
   1   3  -4    1.23    0.36
   1   3  -4    0.76    0.49
  -1  -3  -4    0.74    0.49
   1  -3   4    1.74    0.34
  -1  -3  -4    1.08    0.29
   1   3  -4    1.38    0.26
  -1   3  -4    0.96    0.50
   1   3   4    1.36    0.35
   1  -3  -4    0.65    0.32
   1  -3  -4    1.32    0.50
  -1  -3   4    1.91    0.45
  -1   3  -4    1.14    0.26
  -1   3  -4    1.42    0.38
  -1   3  -4    1.57    0.36
  -1  -3   4    1.33    0.47
  -1   3   5  100.27    3.12
   1  -3   5   97.34    2.86
   1  -3   5  102.24    3.21
   1   3  -5  105.33    3.63
  -1  -3  -5  106.74    3.70
   1   3  -5  104.76    3.10
   1   3  -5  105.80    2.81
   1  -3  -5  102.12    3.11
  -1  -3   5   97.80    3.07
  -1   3  -5  108.43    3.64
  -1   3  -5  103.45    3.15
   1   3   5   98.82    2.92
  -1   3  -5  105.19    3.01
   1  -3  -5  105.36    3.67
  -1  -3   5   94.02    3.19
  -1   3   6    1.72    0.49
  -1  -3  -6    1.39    0.69
   1   3  -6    2.35    0.82
   1  -3   6    1.23    0.41
  -1   3  -6    2.24    0.77
   1  -3  -6    1.11    0.68
   1   3   6    1.51    0.41
  -1   3  -6    2.06    0.45
  -1  -3   6    1.30    0.59
  -1  -3   6    0.44    0.45
  -1   3   7   43.86    1.91
  -1  -3  -7   43.44    2.61
   1  -3   7   43.47    2.29
   1   3  -7   42.11    2.53
  -1   3  -7   42.22    2.51
   1  -3  -7   43.70    2.62
   1   3   7   41.83    1.69
  -1  -3   7   44.57    1.91
   1   3  -8    1.47    1.05
  -1   3   8    0.63    0.52
  -1  -3  -8    1.98    1.09
  -1  -3   8    0.09    0.56
   1  -3  -8    3.81    1.25
  -1   3  -8    2.41    1.11
  -2  -3   0   36.77    1.17
   2   3   0   36.12    1.17
  -2  -3   0   36.64    1.20
  -2  -3   0   36.71    1.16
  -2  -3   0   37.22    1.18
   2  -3   0   37.86    1.15
  -2   3   0   36.36    1.15
  -2  -3  -1  359.98    8.78
  -2  -3  -1  361.49    8.53
  -2   3   1  366.78    8.69
  -2  -3  -1  368.76    8.56
   2   3  -1  338.54    8.67
   2  -3   1  369.21    8.53
  -2  -3  -1  350.40    8.64
  -2  -3  -1  351.08    8.64
  -2   3  -1  357.66    8.52
  -2  -3   1  365.30    8.59
   2  -3  -1  357.70    8.68
  -2  -3   1  352.72    8.74
  -2   3  -1  355.18    8.69
  -2   3  -1  352.16    8.61
  -2  -3   1  345.24    8.65
   2   3   1  364.59    8.57
  -2   3  -1  355.08    8.63
   2   3  -2   17.66    0.86
  -2   3   2   20.16    0.87
  -2  -3  -2   17.80    0.72
  -2  -3  -2   19.22    0.98
  -2  -3  -2   18.57    0.79
  -2  -3  -2   18.90    0.87
   2  -3  -2   20.10    0.87
  -2  -3   2   19.45    0.87
  -2  -3   2   19.38    0.94
  -2   3  -2   17.11    0.78
  -2   3  -2   17.07    0.77
  -2   3  -2   19.12    0.93
   2   3   2   19.67    0.75
  -2  -3   2   20.67    0.73
  -2  -3  -3  167.82    4.35
  -2  -3  -3  172.42    4.83
   2   3  -3  161.80    4.51
   2  -3   3  170.27    4.68
  -2   3   3  169.03    4.51
  -2  -3  -3  170.22    4.60
  -2  -3   3  172.65    4.52
  -2   3  -3  168.32    4.44
   2  -3  -3  163.14    4.50
  -2   3  -3  165.74    4.72
  -2  -3   3  176.82    4.65
   2  -3  -3  168.75    4.76
  -2   3  -3  168.29    4.44
  -2  -3  -4   38.20    1.83
   2   3  -4   36.20    1.78
   2   3  -4   39.35    1.53
  -2  -3  -4   37.37    1.30
   2  -3   4   35.06    1.56
  -2  -3  -4   38.43    1.66
  -2   3   4   35.90    1.50
  -2   3  -4   36.27    1.75
  -2  -3   4   34.82    1.60
  -2   3  -4   38.53    1.49
  -2  -3   4   35.07    1.50
   2  -3  -4   37.06    1.50
   2  -3  -4   42.32    1.89
  -2   3  -4   39.33    1.46
   2  -3   5   75.08    2.57
  -2  -3  -5   73.59    2.97
  -2   3   5   72.05    2.49
   2   3  -5   71.35    2.45
   2   3  -5   65.53    2.84
  -2   3  -5   71.59    2.48
  -2   3  -5   70.77    2.36
   2  -3  -5   69.91    2.88
   2  -3  -5   71.02    2.45
  -2  -3   5   72.91    2.48
  -2  -3   5   73.40    2.58
  -2   3  -5   70.26    2.86
  -2  -3  -6    8.01    1.30
   2   3  -6    7.11    1.21
  -2   3   6   10.90    1.05
  -2  -3   6   10.41    1.10
  -2   3  -6    9.29    0.92
  -2   3  -6    7.79    1.00
   2  -3  -6    8.81    1.33
  -2   3  -6    9.08    1.34
  -2  -3   6    9.82    0.98
  -2   3   7   38.94    1.88
  -2  -3  -7   34.60    2.40
   2   3  -7   39.38    2.47
  -2   3  -7   37.90    2.40
   2  -3  -7   39.30    2.50
  -2  -3   7   38.98    1.89
  -2   3   8    2.99    0.77
   2   3  -8    3.99    1.22
  -2  -3  -8    2.35    1.09
  -2   3  -8    5.20    1.33
  -2  -3   8    5.21    0.94
   2  -3  -8    4.19    1.25
   3  -3   0   54.00    1.62
  -3  -3   0   55.70    1.68
  -3   3   0   55.34    1.58
  -3  -3   0   54.88    1.72
  -3   3   0   52.62    1.61
   3   3   0   54.74    1.66
  -3  -3   0   51.69    1.60
  -3  -3   0   53.17    1.60
   3   3  -1  156.31    4.18
  -3  -3  -1  160.49    4.14
   3  -3   1  162.40    3.96
  -3  -3  -1  160.52    4.35
  -3  -3  -1  154.00    4.13
  -3  -3  -1  153.52    3.97
  -3  -3  -1  160.86    4.08
  -3   3   1  156.63    4.14
   3  -3  -1  158.91    4.15
  -3   3  -1  157.40    4.08
  -3  -3   1  159.14    3.97
  -3   3  -1  160.73    4.17
  -3  -3   1  158.93    4.10
  -3   3  -1  158.03    4.09
  -3  -3   1  158.28    4.14
  -3  -3   1  162.46    4.27
  -3   3  -1  159.35    3.96
   3   3   1  154.59    3.99
  -3   3   2   46.45    1.64
  -3  -3  -2   49.67    1.58
  -3  -3  -2   49.96    1.86
   3   3  -2   50.78    1.72
  -3  -3  -2   46.81    1.65
  -3   3  -2   45.87    1.59
  -3  -3   2   47.91    1.51
  -3  -3   2   46.40    1.64
  -3  -3   2   46.38    1.73
  -3   3  -2   48.15    1.60
   3  -3  -2   47.30    1.65
  -3   3  -2   47.73    1.77
  -3   3  -2   49.58    1.50
   3  -3   3  100.32    3.09
   3   3  -3  101.37    3.07
  -3   3   3  102.98    3.07
  -3  -3  -3  102.03    3.09
  -3  -3  -3  108.23    3.39
  -3  -3  -3  104.01    2.88
   3  -3  -3   98.24    3.02
  -3   3  -3  102.43    2.98
  -3   3  -3  104.22    3.28
  -3   3  -3  101.71    2.99
  -3  -3   3  103.03    3.06
  -3  -3   3   98.67    3.14
  -3  -3   3   99.51    2.76
   3   3  -4   84.88    2.82
  -3  -3  -4   88.06    2.57
  -3  -3  -4   87.77    2.93
  -3   3   4   88.44    2.85
  -3  -3  -4   90.05    3.21
   3  -3   4   84.97    2.92
   3  -3  -4   90.27    3.17
  -3  -3   4   84.53    2.91
  -3   3  -4   90.27    2.81
  -3   3  -4   90.08    3.12
   3  -3  -4   87.09    2.81
  -3   3  -4   88.52    2.74
  -3  -3   4   85.29    2.82
  -3   3   5   55.14    2.17
  -3  -3  -5   61.79    2.39
   3   3  -5   54.97    2.56
   3   3  -5   56.77    2.20
  -3  -3  -5   58.97    2.66
   3  -3   5   53.09    2.18
  -3  -3   5   57.04    2.20
   3  -3  -5   57.24    2.62
  -3   3  -5   54.26    2.51
  -3   3  -5   59.04    2.21
   3  -3  -5   57.45    2.19
  -3  -3   5   57.69    2.29
  -3   3  -5   57.73    2.12
  -3   3   6   21.82    1.38
   3   3  -6   20.47    1.77
  -3  -3  -6   23.92    1.85
  -3  -3   6   20.69    1.35
  -3   3  -6   18.98    1.37
   3  -3  -6   20.20    1.39
  -3  -3   6   19.50    1.39
  -3   3  -6   21.95    1.30
   3  -3  -6   22.37    1.82
  -3   3  -6   22.72    1.76
  -3   3   7   40.35    2.03
   3   3  -7   42.97    2.66
  -3  -3  -7   38.06    2.56
   3  -3  -7   40.93    2.66
  -3   3  -7   39.88    2.14
  -3  -3   7   36.91    1.97
  -3   3  -7   42.39    2.57
   3   3  -8    9.71    1.67
  -3   3   8    9.19    1.18
  -3  -3  -8    9.99    1.75
   3  -3  -8    8.66    1.63
  -3   3  -8    9.60    1.63
  -3  -3   8   13.06    1.36
   4   3   0   31.57    1.21
  -4  -3   0   33.17    1.19
   4  -3   0   32.35    1.18
  -4  -3   0   30.99    1.15
  -4  -3   0   32.75    1.25
  -4   3   0   29.99    1.22
  -4   3   0   29.91    1.15
  -4  -3   0   32.26    1.29
  -4   3   0   32.77    1.14
   4   3  -1  156.69    4.27
   4  -3   1  161.48    4.01
  -4  -3  -1  156.80    4.23
  -4  -3  -1  155.42    4.02
  -4   3   1  160.25    3.98
  -4  -3  -1  156.74    4.22
  -4   3   1  153.49    4.20
  -4  -3   1  156.72    4.08
   4  -3  -1  156.32    4.21
  -4   3  -1  156.07    4.18
  -4  -3   1  156.21    4.36
  -4   3  -1  157.53    4.16
  -4  -3   1  152.80    4.18
  -4   3  -1  158.16    4.28
  -4  -3   1  156.76    4.21
   4   3   1  159.68    4.06
  -4   3  -1  162.20    4.01
  -4  -3  -2   58.99    1.92
  -4  -3  -2   54.70    1.96
   4   3  -2   57.53    2.03
  -4   3   2   59.29    2.00
  -4  -3  -2   61.24    2.27
  -4   3  -2   59.47    2.17
  -4  -3   2   58.03    1.87
  -4  -3   2   59.84    2.00
  -4  -3   2   60.57    1.77
   4  -3  -2   55.84    1.97
  -4   3  -2   57.25    1.84
  -4   3  -2   56.99    1.97
  -4   3  -2   57.30    1.92
  -4  -3   2   58.06    2.11
  -4  -3  -3   60.52    1.96
   4   3  -3   59.58    2.15
  -4  -3  -3   60.33    2.15
  -4   3   3   56.87    2.10
  -4  -3  -3   60.52    2.43
  -4   3  -3   60.95    2.10
  -4   3  -3   61.25    2.36
   4  -3  -3   58.27    2.10
  -4   3  -3   59.07    1.85
  -4  -3   3   53.67    2.16
  -4  -3   3   54.83    2.09
  -4   3  -3   59.69    2.04
  -4  -3   3   57.88    1.88
  -4   3   4   34.45    1.63
  -4  -3  -4   37.26    1.97
   4  -3   4   32.64    1.65
   4   3  -4   33.97    1.62
  -4  -3  -4   37.00    1.70
  -4  -3  -4   38.03    1.42
  -4  -3   4   33.16    1.61
  -4  -3   4   33.77    1.30
  -4   3  -4   34.24    1.83
  -4   3  -4   33.28    1.56
  -4   3  -4   34.64    1.52
   4  -3  -4   32.92    1.57
  -4  -3   4   31.27    1.65
  -4  -3  -5   85.28    3.44
  -4   3   5   86.43    2.97
   4   3  -5   84.94    2.97
  -4  -3  -5   80.88    3.02
   4   3  -5   83.18    3.34
   4  -3   5   77.45    2.89
   4  -3  -5   86.21    3.38
  -4  -3   5   80.23    3.00
  -4   3  -5   81.64    2.91
  -4  -3   5   80.77    2.93
  -4   3  -5   86.30    2.87
   4  -3  -5   83.81    2.93
  -4   3  -5   79.92    3.28
   4   3  -6   14.24    1.71
  -4  -3  -6   18.05    1.89
  -4  -3  -6   18.96    1.67
   4   3  -6   19.43    1.33
  -4   3   6   17.57    1.31
   4  -3  -6   18.34    1.86
   4  -3  -6   17.73    1.29
  -4   3  -6   16.51    1.34
  -4  -3   6   16.16    1.30
  -4   3  -6   17.14    1.26
  -4   3  -6   16.25    1.77
  -4  -3   6   15.90    1.36
  -4   3   7   21.43    1.60
   4   3  -7   25.21    2.18
  -4  -3  -7   26.51    2.23
  -4  -3   7   22.72    1.65
  -4   3  -7   23.51    1.75
  -4   3  -7   26.25    2.14
   4  -3  -7   25.80    2.21
  -4  -3   7   21.78    1.65
  -4  -3  -8   15.47    2.11
  -4   3   8   12.70    1.45
   4   3  -8   14.09    2.06
  -4   3  -8   17.10    2.11
  -4  -3   8   13.99    1.47
   4  -3  -8   12.62    1.93
  -5   3   0   71.61    2.42
   5  -3   0   73.26    2.26
  -5   3   0   72.55    2.37
   5   3   0   77.32    2.33
  -5   3   0   73.83    2.25
  -5  -3   0   73.09    2.30
  -5  -3   0   70.95    2.35
  -5   3   0   74.21    2.21
  -5  -3   0   75.43    2.25
  -5   3   1   46.67    1.71
  -5  -3  -1   45.91    1.52
  -5  -3  -1   49.39    1.77
   5  -3   1   47.79    1.54
  -5  -3  -1   47.58    1.75
  -5   3   1   46.86    1.50
   5   3  -1   47.57    1.78
  -5   3  -1   48.41    1.53
  -5  -3   1   44.08    1.83
   5   3   1   46.39    1.59
   5  -3  -1   45.76    1.71
  -5  -3   1   46.18    1.62
  -5   3  -1   49.92    1.69
  -5   3  -1   46.95    1.71
  -5   3  -1   45.65    1.78
  -5  -3   1   51.05    1.77
  -5  -3   1   49.71    1.73
  -5  -3  -2   71.76    2.52
  -5  -3  -2   82.69    2.95
   5   3  -2   73.92    2.57
  -5  -3  -2   74.57    2.46
  -5   3   2   77.59    2.55
  -5  -3   2   81.27    2.34
  -5   3  -2   76.27    2.41
  -5  -3   2   78.10    2.46
  -5   3  -2   75.79    2.46
  -5  -3   2   76.93    2.68
   5  -3  -2   74.32    2.52
  -5   3  -2   75.40    2.56
  -5  -3   2   82.52    2.60
   5   3  -3   42.37    1.84
  -5  -3  -3   40.70    1.81
  -5  -3  -3   48.01    2.21
  -5   3   3   39.26    1.77
  -5  -3  -3   44.11    1.68
  -5   3  -3   46.63    1.85
  -5  -3   3   37.53    1.85
  -5  -3   3   39.02    1.59
  -5   3  -3   45.26    1.62
   5  -3  -3   42.97    1.81
  -5  -3   3   42.74    1.83
  -5   3  -3   44.40    2.07
  -5   3  -3   44.82    1.75
  -5  -3  -4   32.77    1.71
  -5  -3  -4   38.10    2.11
   5   3  -4   35.95    1.75
  -5   3   4   33.39    1.69
  -5  -3  -4   34.44    1.47
  -5  -3   4   32.83    1.41
  -5   3  -4   34.25    1.37
  -5   3  -4   33.31    1.66
  -5   3  -4   34.94    1.63
  -5  -3   4   35.22    1.71
  -5   3  -4   35.99    1.99
   5  -3  -4   36.48    1.72
  -5  -3   4   35.35    1.81
  -5   3   5   36.41    1.86
  -5  -3  -5   36.96    1.93
  -5  -3  -5   39.15    2.30
   5   3  -5   35.34    1.86
  -5  -3   5   36.52    1.89
  -5   3  -5   38.48    2.22
  -5  -3   5   37.57    1.95
  -5   3  -5   35.23    1.85
  -5   3  -5   35.10    1.76
   5  -3  -5   33.91    1.78
  -5  -3  -6   17.98    1.63
  -5   3   6   21.91    1.53
  -5  -3  -6   21.30    2.06
   5   3  -6   22.11    1.53
   5   3  -6   20.21    2.05
   5  -3  -6   20.41    1.45
   5  -3  -6   19.04    1.95
  -5   3  -6   17.90    1.60
  -5  -3   6   16.69    1.47
  -5  -3   6   23.19    1.59
  -5   3  -6   21.89    1.90
  -5   3  -6   22.35    1.47
  -5  -3  -7   19.33    2.27
  -5  -3  -7   20.54    1.94
   5   3  -7   17.31    2.08
  -5   3   7   20.09    1.63
  -5   3  -7   17.18    1.97
  -5  -3   7   21.06    1.66
  -5   3  -7   19.03    1.78
  -5  -3   7   19.61    1.63
   5  -3  -7   18.46    2.13
  -6   3   0   67.29    2.09
  -6  -3   0   63.49    2.11
  -6   3   0   61.76    2.08
  -6  -3   0   65.12    2.27
  -6  -3   0   63.64    2.19
   6  -3   0   63.77    2.12
   6   3   0   60.44    2.15
  -6   3   0   61.16    2.30
  -6   3   0   64.40    2.27
   6   3  -1   54.69    2.07
   6  -3   1   58.07    1.85
  -6   3   1   54.40    2.01
  -6   3   1   57.86    1.81
  -6  -3  -1   56.01    2.08
  -6  -3  -1   57.56    2.09
  -6   3  -1   55.87    2.16
  -6   3  -1   61.36    2.12
  -6  -3   1   55.49    2.03
   6  -3  -1   57.55    2.06
  -6  -3   1   54.44    2.06
  -6  -3   1   54.94    1.96
  -6   3  -1   56.07    1.97
   6   3   1   54.32    1.88
  -6   3   2   91.82    3.03
  -6  -3  -2   89.45    3.05
  -6  -3  -2   96.85    3.00
   6   3  -2   97.07    3.11
  -6  -3   2   93.61    2.96
  -6   3  -2   93.41    2.94
  -6  -3   2   93.36    2.84
   6  -3  -2   95.39    3.06
  -6  -3   2   87.08    3.16
  -6   3  -2   99.79    3.16
  -6  -3   2   89.17    3.01
  -6   3  -2   93.13    2.96
  -6  -3  -3   29.25    1.38
  -6  -3  -3   25.39    1.79
  -6  -3  -3   25.71    1.46
   6   3  -3   26.10    1.51
  -6   3   3   26.79    1.47
  -6  -3   3   25.90    1.32
  -6   3  -3   27.28    1.30
  -6   3  -3   25.84    1.38
  -6   3  -3   25.47    1.73
   6  -3  -3   25.43    1.44
  -6  -3   3   27.46    1.60
  -6   3  -3   24.63    1.46
  -6  -3   3   28.66    1.53
  -6  -3   3   28.12    1.25
   6   3  -4   58.92    2.49
  -6  -3  -4   57.42    2.44
  -6  -3  -4   58.21    2.85
  -6  -3  -4   57.32    2.17
  -6   3   4   59.80    2.45
  -6   3  -4   58.93    2.77
  -6  -3   4   60.56    2.47
  -6  -3   4   58.87    2.16
   6  -3  -4   58.06    2.42
  -6   3  -4   58.06    2.09
  -6  -3   4   61.13    2.58
  -6   3  -4   64.68    2.51
  -6   3  -4   59.12    2.35
   6   3  -5   13.57    1.43
  -6   3   5   13.30    1.36
  -6  -3  -5   11.32    1.50
  -6  -3  -5   12.27    1.26
  -6  -3   5   14.16    1.47
  -6   3  -5   12.66    1.28
   6  -3  -5   14.24    1.38
  -6   3  -5   14.73    1.41
  -6  -3   5   12.58    1.33
  -6   3  -5   10.68    1.45
  -6  -3  -6   39.66    2.29
   6   3  -6   40.17    2.69
   6   3  -6   39.97    2.20
  -6  -3  -6   37.99    2.66
  -6   3   6   40.34    2.16
  -6  -3   6   39.04    2.17
  -6   3  -6   32.89    2.43
   6  -3  -6   41.60    2.16
  -6  -3   6   37.59    2.18
   6  -3  -6   37.91    2.61
  -6   3  -6   39.13    2.23
  -6  -3  -7   10.93    1.85
   6   3  -7    9.80    1.76
  -6  -3  -7   11.77    1.61
  -6   3   7   11.52    1.47
  -6   3  -7   11.09    1.78
  -6  -3   7   10.84    1.43
  -6   3  -7   12.17    1.48
   6  -3  -7    8.62    1.67
  -6  -3   7   10.97    1.46
  -7  -3   0   76.05    2.66
  -7   3   0   78.95    2.83
  -7  -3   0   78.30    2.74
   7   3   0   78.87    2.61
   7  -3   0   80.29    2.58
  -7   3   0   76.59    2.48
  -7   3   0   73.25    2.69
   7   3  -1   24.48    1.37
  -7   3   1   21.83    1.21
  -7   3   1   21.47    1.35
  -7  -3  -1   22.02    1.29
   7  -3   1   21.26    1.08
  -7   3   1   21.26    1.05
  -7  -3  -1   21.73    1.30
  -7   3  -1   22.31    1.37
   7   3   1   21.91    1.15
   7  -3  -1   22.90    1.29
  -7   3  -1   21.14    1.19
  -7  -3   1   21.28    1.28
  -7  -3   1   22.14    1.22
  -7  -3   1   22.66    1.25
  -7   3  -1   21.13    1.28
   7   3  -2   97.23    3.36
  -7  -3  -2  103.30    3.33
  -7  -3  -2  103.63    3.41
  -7   3   2   99.32    3.31
  -7   3  -2  102.02    3.26
  -7  -3   2  103.00    3.34
  -7  -3   2   94.66    3.12
  -7  -3   2   96.53    3.25
  -7   3  -2  105.73    3.49
  -7   3  -2  100.88    3.26
   7  -3  -2  101.85    3.35
  -7  -3  -3    5.08    0.80
   7   3  -3    4.36    0.88
  -7   3   3    4.70    0.80
  -7  -3  -3    5.36    0.81
  -7   3  -3    3.76    0.78
  -7   3  -3    3.98    0.71
  -7  -3   3    3.78    0.60
  -7   3  -3    5.46    0.76
  -7  -3   3    4.98    0.92
  -7  -3   3    5.33    0.81
  -7  -3   3    6.80    0.94
   7  -3  -3    4.88    0.84
  -7  -3  -4   59.99    3.01
  -7  -3  -4   52.87    2.16
   7   3  -4   53.77    2.46
  -7  -3  -4   56.17    2.47
  -7   3   4   54.01    2.42
  -7   3  -4   53.93    2.84
   7  -3  -4   59.69    2.50
  -7  -3   4   50.90    2.13
  -7   3  -4   53.80    2.11
  -7   3  -4   53.37    2.33
  -7  -3   4   55.22    2.55
  -7   3  -4   52.20    2.42
  -7  -3   4   51.93    2.41
  -7  -3  -5    5.60    0.97
  -7  -3  -5    6.51    1.32
  -7   3   5    7.22    1.13
   7   3  -5    6.30    1.07
   7  -3  -5    9.58    1.24
  -7   3  -5    4.71    1.15
  -7   3  -5    7.54    1.09
  -7   3  -5    7.71    1.16
  -7  -3   5    6.22    1.10
  -7  -3   5    5.75    1.13
   7   3  -6   42.17    2.39
  -7  -3  -6   36.62    2.77
  -7   3   6   49.06    2.48
  -7  -3  -6   44.71    2.55
   7  -3  -6   44.20    2.38
   7  -3  -6   48.33    3.03
  -7   3  -6   40.80    2.40
  -7  -3   6   43.90    2.45
  -7   3  -6   43.37    2.84
  -7  -3   6   46.79    2.48
  -8  -3   0   63.92    2.48
  -8   3   0   62.95    2.26
   8  -3   0   67.00    2.37
   8   3   0   61.26    2.38
  -8   3   0   66.24    2.56
  -8   3   0   64.32    2.61
  -8  -3   0   62.59    2.51
  -8   3   1    3.87    0.79
  -8  -3  -1    3.37    0.73
   8  -3   1    3.96    0.60
  -8  -3  -1    3.78    0.73
  -8  -3   1    3.29    0.65
   8  -3  -1    4.05    0.74
   8   3   1    3.35    0.63
  -8  -3   1    2.63    0.68
  -8   3  -1    3.62    0.79
  -8   3  -1    5.39    0.83
  -8   3  -1    4.12    0.67
   8   3  -2   37.06    1.91
  -8   3   2   33.33    1.86
  -8  -3  -2   39.16    1.94
  -8  -3  -2   35.78    1.82
  -8   3   2   37.74    1.81
  -8  -3   2   35.26    1.68
  -8  -3   2   35.92    1.81
  -8   3  -2   35.37    1.76
   8   3   2   35.10    1.44
  -8  -3   2   35.47    1.78
  -8   3  -2   38.83    1.98
   8  -3  -2   37.89    1.88
  -8   3  -2   36.85    1.81
  -8  -3  -3    9.50    1.14
  -8   3   3    8.67    1.11
   8   3  -3   10.81    1.27
  -8  -3  -3    9.75    1.10
  -8   3  -3   11.05    1.12
  -8   3  -3    8.69    1.13
  -8  -3   3    6.74    1.02
  -8   3  -3    9.64    1.08
  -8  -3   3    8.01    0.99
   8  -3  -3    9.28    1.18
   8   3  -4   35.21    2.07
  -8  -3  -4   35.92    2.10
  -8  -3  -4   35.74    1.83
  -8   3   4   35.68    1.98
  -8   3  -4   35.59    1.76
   8  -3  -4   33.63    2.02
  -8   3  -4   36.36    1.97
  -8  -3   4   36.13    2.01
  -8   3  -4   36.71    2.11
  -8  -3   4   34.95    1.82
  -8  -3  -5    0.91    1.04
   8   3  -5    0.83    0.81
  -8   3   5    2.97    0.90
  -8  -3  -5    2.08    0.93
  -8  -3   5    2.54    0.88
   8  -3  -5    2.32    0.81
  -8   3  -5    2.90    0.93
   8   3  -6   35.87    2.30
  -8  -3  -6   32.89    3.05
  -8  -3  -6   30.61    2.30
  -8   3   6   33.20    2.19
   8  -3  -6   33.25    2.17
  -8   3  -6   31.33    2.63
  -8   3  -6   32.87    2.27
  -8  -3   6   34.19    2.20
   9   3   0   65.02    2.47
  -9   3   0   58.86    2.67
  -9  -3   0   61.31    2.59
  -9  -3   0   59.83    2.55
   9  -3   0   61.17    2.37
  -9  -3  -1    0.74    0.55
  -9   3   1    2.45    0.74
   9  -3   1    1.57    0.49
  -9  -3  -1    1.46    0.69
   9   3  -1    2.41    0.75
  -9  -3   1    1.96    0.62
  -9   3  -1    1.67    0.59
   9  -3  -1    1.96    0.65
  -9   3  -1    0.94    0.61
  -9   3  -1    2.73    0.75
  -9  -3   1    1.34    0.63
   9   3   1    0.61    0.54
   9   3  -2   42.53    2.21
  -9  -3  -2   44.20    2.15
  -9  -3  -2   45.02    2.26
  -9   3   2   46.00    2.29
   9  -3  -2   46.03    2.21
  -9  -3   2   43.03    2.03
  -9   3  -2   45.25    2.11
  -9  -3   2   40.95    2.12
  -9   3  -2   47.87    2.38
  -9   3  -2   48.78    2.23
  -9  -3  -3    1.08    0.64
  -9  -3  -3    1.26    0.68
  -9   3   3    1.90    0.73
   9   3  -3    0.09    0.72
  -9  -3   3    1.63    0.67
  -9   3  -3    1.09    0.60
  -9   3  -3    0.01    0.64
   9  -3  -3    0.67    0.65
  -9  -3   3    0.48    0.59
  -9   3   4   31.75    1.99
  -9  -3  -4   31.05    2.13
   9   3  -4   34.19    2.17
  -9  -3  -4   31.09    1.82
  -9  -3   4   32.89    2.06
   9  -3  -4   31.49    2.05
  -9   3  -4   32.17    2.16
  -9  -3   4   33.93    1.91
  -9  -3  -5   -0.21    0.80
   9   3  -5    1.43    0.87
  -9   3   5    0.37    0.76
  -9  -3   5    1.31    0.73
   9  -3  -5    1.14    0.75
  -9   3  -5   -0.01    0.79
 -10  -3   0   37.72    2.11
 -10  -3   0   38.70    2.13
  10  -3   0   37.31    1.85
  10   3   0   40.19    1.99
 -10   3   0   40.76    2.29
  10  -3   1    0.84    0.49
 -10  -3  -1    1.18    0.67
  10   3  -1    0.33    0.70
 -10  -3  -1    0.99    0.69
 -10   3   1    0.77    0.72
 -10  -3   1    1.62    0.74
  10   3   1    0.21    0.50
 -10  -3   1    0.71    0.64
 -10   3  -1    0.92    0.72
  10  -3  -1    1.81    0.69
  10   3  -2   37.38    2.18
 -10  -3  -2   35.05    2.16
 -10  -3  -2   36.30    2.06
 -10   3   2   38.53    2.24
 -10   3  -2   35.72    2.25
 -10  -3   2   33.69    2.00
  10  -3  -2   37.79    2.10
 -10   3   3    0.33    0.68
 -10  -3  -3    0.22    0.59
 -10  -3  -3    0.29    0.70
  10   3  -3    1.28    0.82
 -10  -3   3    0.40    0.63
  10  -3  -3   -0.30    0.58
 -10   3  -3   -0.18    0.73
  10   3  -4   36.15    2.38
 -10  -3  -4   38.28    2.49
 -10  -3  -4   40.36    2.16
 -10   3   4   33.16    2.21
  10  -3  -4   39.36    2.37
 -10   3  -4   36.83    2.46
 -11  -3   0   47.15    2.53
 -11  -3   0   48.94    2.56
  11  -3   0   47.52    2.22
  11   3   0   50.46    2.31
 -11   3   0   52.78    2.80
 -11   3   1    2.61    0.96
 -11  -3  -1    1.04    0.79
 -11  -3  -1    2.19    0.89
  11   3  -1    1.26    0.76
 -11   3  -1    0.02    0.78
 -11  -3   1    3.68    1.02
 -11  -3   1    2.04    0.79
  11  -3  -1    1.24    0.72
   0   4   0  842.69   20.76
   0  -4   0  942.51   21.35
   0  -4   0  855.36   20.76
   0  -4   1   -0.54    0.24
   0  -4  -1   -0.19    0.19
   0   4  -1   -0.32    0.23
   0  -4  -1   -0.22    0.21
   0  -4   1   -0.15    0.23
   0   4   1   -0.51    0.20
   0   4  -2  824.05   19.84
   0  -4  -2  845.19   19.99
   0  -4   2  837.41   20.10
   0  -4  -2  812.70   19.84
   0  -4   2  863.67   19.85
   0   4  -2  848.58   19.93
   0   4   2  849.06   19.88
   0  -4   3   -0.20    0.30
   0   4   3   -0.06    0.24
   0   4  -3    0.19    0.23
   0   4  -3    0.16    0.19
   0  -4  -3   -0.04    0.28
   0   4  -3   -0.31    0.25
   0  -4  -3   -0.24    0.21
   0   4  -3   -0.14    0.20
   0  -4   3   -0.27    0.23
   0   4  -4  296.08    7.44
   0  -4   4  299.39    7.43
   0   4   4  300.30    7.50
   0   4  -4  299.13    7.87
   0  -4  -4  295.07    7.47
   0  -4   4  298.06    7.76
   0  -4  -4  301.15    7.97
   0   4  -4  288.54    7.35
   0  -4  -5   -0.23    0.47
   0   4  -5   -0.02    0.48
   0   4  -5    0.15    0.26
   0   4   5    0.67    0.33
   0  -4   5   -0.04    0.43
   0  -4   5   -0.19    0.35
   0   4  -6  170.57    5.46
   0  -4  -6  163.99    5.51
   0   4   6  173.61    4.77
   0  -4   6  168.63    5.01
   0  -4   6  165.83    4.67
   0  -4  -7    0.67    0.80
   0   4   7    0.10    0.41
   0   4  -7    0.85    0.73
   0  -4   7    0.20    0.46
   0   4  -8   80.21    3.83
   0   4   8   78.18    2.82
   0  -4  -8   77.47    3.85
  -1  -4   0    8.52    0.53
  -1   4   0    8.53    0.51
   1  -4   0    8.44    0.51
   1   4   0    8.34    0.54
  -1  -4   0    8.66    0.55
  -1  -4  -1   13.30    0.53
   1   4  -1   12.47    0.66
  -1  -4  -1   13.17    0.68
   1  -4   1   11.89    0.64
  -1  -4  -1   14.07    0.66
  -1   4   1   12.12    0.64
  -1  -4  -1   12.95    0.63
   1  -4   1   11.58    0.72
  -1  -4   1   13.45    0.58
  -1   4  -1   12.78    0.65
  -1  -4   1   11.91    0.72
   1   4   1   12.49    0.68
   1  -4  -1   12.66    0.64
  -1  -4  -2   25.19    0.94
  -1  -4  -2   25.42    1.09
   1  -4   2   23.67    1.13
  -1   4   2   24.66    1.00
   1   4  -2   24.48    0.99
  -1   4  -2   22.90    0.92
  -1  -4   2   25.27    1.00
  -1   4  -2   24.95    0.90
  -1   4  -2   23.91    0.85
  -1  -4   2   26.92    1.14
   1  -4  -2   24.93    0.99
   1   4   2   24.54    0.93
  -1  -4   2   24.39    0.81
   1  -4  -2   25.45    1.06
  -1   4  -2   23.43    1.00
   1   4  -3   11.29    0.55
   1   4  -3   13.13    0.86
  -1  -4  -3   11.23    0.88
  -1  -4  -3   11.03    0.63
   1   4  -3   11.56    0.71
   1  -4   3   11.72    0.62
   1  -4   3   10.76    0.83
  -1   4   3   12.39    0.74
   1   4   3   12.18    0.65
   1  -4  -3   12.82    0.91
  -1  -4   3   11.68    0.73
  -1   4  -3   11.89    0.66
  -1   4  -3   11.33    0.64
  -1   4  -3   11.10    0.83
  -1   4  -3   11.72    0.60
   1  -4  -3   10.50    0.69
  -1  -4   3   11.99    0.85
   1   4  -4    1.07    0.37
   1  -4   4    1.35    0.35
  -1  -4  -4    0.56    0.30
  -1  -4  -4    0.72    0.33
   1   4  -4    1.28    0.54
   1   4  -4    1.15    0.28
   1  -4   4    0.93    0.49
  -1   4   4    0.98    0.37
  -1  -4  -4    1.14    0.53
   1  -4  -4    1.38    0.54
  -1   4  -4    0.82    0.29
  -1   4  -4    0.93    0.35
  -1   4  -4    1.37    0.37
  -1  -4   4    0.88    0.49
  -1   4  -4    1.38    0.50
   1   4   4    0.79    0.32
  -1  -4   4    0.95    0.41
   1  -4  -4    0.62    0.33
   1  -4   5    1.65    0.43
  -1  -4  -5    1.14    0.37
   1   4  -5    1.56    0.32
  -1  -4  -5    1.49    0.67
   1   4  -5    3.20    0.77
   1  -4   5    1.38    0.58
  -1   4   5    1.77    0.49
   1   4  -5    2.12    0.48
  -1   4  -5    2.51    0.54
   1  -4  -5    2.21    0.49
   1   4   5    2.00    0.42
  -1  -4   5    2.48    0.53
  -1  -4   5    1.26    0.60
  -1   4  -5    2.34    0.44
   1  -4  -5    1.39    0.63
  -1   4  -5    1.23    0.62
  -1   4   6    4.12    0.68
   1  -4   6    4.30    0.56
   1  -4   6    2.36    0.72
   1   4  -6    3.13    0.84
  -1  -4  -6    3.49    0.91
  -1  -4   6    3.34    0.65
   1  -4  -6    3.61    0.96
   1   4   6    3.52    0.57
  -1  -4   6    2.32    0.70
  -1   4  -6    3.12    0.56
  -1   4  -6    1.82    0.78
  -1   4   7   -0.08    0.45
  -1  -4  -7    1.59    0.88
   1   4  -7    0.25    0.73
  -1  -4   7    0.23    0.52
  -1   4  -7    0.67    0.72
   1  -4  -7   -0.61    0.66
   1   4   7    0.40    0.41
   1   4  -8    0.86    0.98
  -1   4   8    0.22    0.52
  -1  -4  -8    1.03    1.01
  -1   4  -8   -0.14    0.85
  -1  -4   8   -0.32    0.55
   1  -4  -8    0.97    0.91
  -2   4   0  480.49   11.34
  -2  -4   0  472.24   11.23
  -2  -4   0  476.84   11.36
  -2  -4   0  465.23   11.37
   2   4   0  472.59   11.37
   2  -4   0  471.88   11.33
  -2  -4  -1   35.71    1.19
  -2   4   1   36.49    1.24
  -2  -4  -1   32.92    1.19
  -2  -4  -1   33.04    1.25
  -2  -4  -1   33.70    1.09
   2   4  -1   32.83    1.23
   2  -4   1   37.55    1.17
  -2  -4  -1   32.69    1.17
  -2  -4   1   35.52    1.23
  -2   4  -1   34.59    1.19
  -2  -4   1   35.97    1.31
  -2  -4   1   36.96    1.17
  -2   4  -1   32.89    1.17
   2  -4  -1   32.64    1.21
  -2   4  -1   34.74    1.17
  -2   4  -1   34.76    1.14
   2   4   1   36.98    1.20
  -2  -4  -2  461.33   11.19
   2   4  -2  456.79   11.19
  -2  -4  -2  458.05   11.08
  -2  -4  -2  476.14   11.33
   2  -4   2  458.72   10.92
  -2  -4  -2  456.20   11.03
  -2   4   2  458.96   11.17
   2  -4   2  463.74   11.31
  -2  -4   2  452.38   11.15
   2  -4  -2  453.60   11.16
  -2   4  -2  470.04   10.93
   2   4   2  428.22   11.02
  -2  -4   2  456.20   10.94
  -2   4  -2  464.48   11.04
  -2   4  -2  462.41   11.21
  -2   4  -2  452.25   11.08
  -2  -4   2  461.17   11.30
   2  -4   3   51.39    1.98
  -2  -4  -3   50.76    1.86
  -2  -4  -3   52.61    1.69
   2   4  -3   51.05    1.81
  -2   4   3   47.70    1.79
  -2  -4  -3   56.33    2.05
  -2  -4  -3   54.93    1.67
   2  -4  -3   53.93    2.00
  -2   4  -3   53.11    1.74
  -2  -4   3   49.85    1.91
   2   4   3   50.58    1.65
  -2   4  -3   53.21    1.71
  -2  -4   3   52.69    1.81
  -2   4  -3   52.82    1.93
   2  -4  -3   51.25    1.81
   2   4  -4  288.37    7.44
  -2  -4  -4  292.10    7.21
  -2  -4  -4  292.72    7.61
  -2  -4  -4  298.68    7.87
  -2   4   4  289.50    7.47
   2  -4   4  264.57    7.54
   2   4  -4  293.89    7.76
   2  -4  -4  286.78    7.45
   2  -4  -4  287.42    7.76
  -2   4  -4  283.97    7.32
  -2  -4   4  279.12    7.57
  -2  -4   4  283.06    7.40
   2   4   4  277.22    7.12
  -2   4  -4  298.94    7.76
  -2   4  -4  292.64    7.33
  -2   4   5   11.91    0.95
   2  -4   5   12.78    1.25
  -2  -4  -5   10.97    0.73
   2   4  -5   10.22    0.86
   2   4  -5   12.05    1.31
  -2  -4  -5   13.90    1.41
  -2   4  -5    9.96    0.93
  -2   4  -5   11.34    1.22
   2   4   5   10.27    0.72
  -2  -4   5   12.75    1.07
   2  -4  -5   12.71    1.35
   2  -4  -5    9.91    0.96
  -2   4  -5   10.84    0.93
  -2  -4   5   11.16    1.14
   2   4  -6  156.44    5.27
  -2   4   6  155.56    4.67
  -2  -4  -6  159.85    5.34
  -2   4  -6  165.53    5.27
  -2   4  -6  152.16    4.65
  -2  -4   6  159.81    4.67
  -2   4  -6  158.12    4.54
  -2  -4   6  154.75    4.81
   2  -4  -6  153.93    5.29
  -2  -4  -7   15.72    1.89
   2   4  -7   12.31    1.61
  -2   4   7   13.20    1.25
   2  -4  -7   14.40    1.78
  -2   4  -7   15.37    1.86
  -2  -4   7   15.30    1.32
  -2   4   8   73.30    2.97
  -2  -4  -8   74.50    3.86
   2   4  -8   75.23    3.73
  -2  -4   8   81.07    3.01
  -2   4  -8   73.99    3.72
   2  -4  -8   74.58    3.83
  -3   4   0   14.66    0.69
   3  -4   0   16.02    0.74
  -3  -4   0   16.24    0.81
  -3  -4   0   15.62    0.74
  -3   4   0   15.65    0.74
  -3  -4   0   15.09    0.76
  -3  -4   0   15.47    0.69
   3   4   0   15.14    0.77
   3  -4   1    5.59    0.46
  -3  -4  -1    4.43    0.58
  -3  -4  -1    5.00    0.42
  -3  -4  -1    5.24    0.51
  -3   4   1    5.35    0.52
   3   4  -1    5.46    0.57
  -3  -4  -1    4.88    0.48
  -3  -4  -1    5.90    0.56
  -3   4  -1    4.88    0.48
  -3  -4   1    5.94    0.57
  -3  -4   1    4.87    0.50
   3   4   1    4.98    0.46
  -3  -4   1    6.26    0.64
  -3   4  -1    5.16    0.53
  -3  -4   1    4.92    0.36
   3  -4  -1    5.15    0.54
  -3   4  -1    4.89    0.42
  -3  -4  -2    0.88    0.41
   3   4  -2    1.04    0.36
  -3  -4  -2    0.33    0.22
  -3  -4  -2    0.31    0.26
  -3  -4  -2    0.71    0.30
  -3   4   2    0.47    0.29
   3   4   2    0.30    0.23
  -3   4  -2    0.20    0.24
  -3  -4   2    0.31    0.23
  -3  -4   2    0.39    0.32
  -3  -4   2    0.11    0.30
  -3   4  -2    1.62    0.41
   3  -4  -2    0.42    0.29
  -3  -4   2    0.36    0.16
  -3   4  -2    0.26    0.25
  -3  -4  -3    5.23    0.79
  -3  -4  -3    3.64    0.58
   3   4  -3    4.52    0.63
   3  -4   3    6.08    0.79
  -3  -4  -3    4.86    0.56
  -3   4   3    4.90    0.63
  -3  -4   3    5.55    0.77
  -3   4  -3    5.66    0.76
   3  -4  -3    3.89    0.56
  -3  -4   3    4.59    0.47
  -3  -4   3    3.85    0.59
  -3   4  -3    5.13    0.61
  -3   4  -3    4.71    0.58
  -3  -4  -4    2.81    0.47
  -3  -4  -4    2.89    0.61
  -3  -4  -4    3.23    0.72
   3   4  -4    2.27    0.58
   3  -4   4    2.91    0.70
  -3   4   4    1.92    0.52
  -3  -4   4    2.48    0.56
  -3   4  -4    3.02    0.52
   3  -4  -4    1.84    0.48
  -3  -4   4    2.82    0.65
  -3  -4   4    2.02    0.35
  -3   4  -4    2.27    0.48
   3  -4  -4    1.97    0.68
  -3   4  -4    2.40    0.64
  -3   4   5    1.69    0.58
   3   4  -5    2.92    0.85
   3   4  -5    3.01    0.63
   3  -4   5    2.42    0.66
  -3  -4  -5    2.45    0.45
  -3  -4  -5    3.38    0.82
  -3  -4  -5    3.27    0.74
   3  -4  -5    3.18    0.82
   3  -4  -5    3.18    0.62
  -3   4  -5    2.58    0.59
  -3  -4   5    1.83    0.63
  -3   4  -5    3.07    0.57
  -3   4  -5    2.27    0.70
  -3  -4   5    2.14    0.61
  -3   4   6   -0.23    0.44
   3   4  -6    0.74    0.76
  -3  -4  -6    0.03    0.66
  -3   4  -6    0.49    0.66
  -3   4  -6    0.37    0.53
  -3  -4   6   -0.31    0.48
  -3  -4   6    0.62    0.60
  -3   4  -6    0.38    0.42
   3  -4  -6    1.75    0.79
   3  -4  -6    0.63    0.55
  -3  -4  -7    0.00    0.75
  -3   4   7    0.08    0.49
   3   4  -7   -0.50    0.76
  -3  -4   7    0.34    0.60
   3  -4  -7   -1.10    0.70
  -3   4  -7    0.67    0.79
  -3  -4   7   -0.51    0.50
   3   4  -8    1.59    1.06
  -3  -4  -8   -0.30    0.90
  -3   4   8    0.24    0.59
   3  -4  -8    1.60    1.12
  -3  -4   8    0.49    0.67
  -3   4  -8   -0.19    0.85
  -4   4   0  458.51   11.22
   4  -4   0  473.61   11.31
  -4   4   0  465.12   11.29
  -4  -4   0  464.55   11.27
  -4  -4   0  472.14   11.45
  -4  -4   0  466.98   11.39
   4   4   0  469.71   11.35
  -4  -4   0  451.17   11.28
   4   4  -1  151.17    4.16
  -4  -4  -1  147.13    4.05
  -4  -4  -1  148.57    4.12
  -4   4   1  151.71    3.89
   4  -4   1  152.48    3.92
  -4  -4  -1  147.67    3.93
  -4  -4  -1  159.86    4.13
  -4   4   1  153.58    4.13
  -4  -4   1  151.61    4.11
   4   4   1  147.01    3.96
  -4   4  -1  148.14    4.16
  -4  -4   1  151.79    4.25
  -4  -4   1  151.35    3.92
   4  -4  -1  151.59    4.13
  -4   4  -1  148.97    3.92
  -4   4  -1  155.32    4.06
  -4  -4   1  151.58    4.08
  -4   4   2  266.86    6.28
  -4  -4  -2  246.31    6.30
  -4  -4  -2  260.56    6.98
  -4  -4  -2  255.78    6.62
   4   4  -2  256.99    6.75
  -4   4   2  249.69    6.67
  -4  -4  -2  258.82    6.70
  -4   4  -2  258.35    6.68
   4  -4  -2  252.35    6.68
  -4   4  -2  258.61    6.85
   4   4   2  259.84    6.36
  -4   4  -2  254.63    6.61
  -4  -4   2  259.03    6.35
  -4  -4   2  263.09    6.70
  -4  -4   2  258.10    6.85
  -4  -4   2  256.34    6.53
  -4   4   3  100.31    3.22
  -4  -4  -3  103.69    3.10
  -4  -4  -3  106.51    3.30
  -4  -4  -3  108.93    3.58
   4   4  -3  105.74    3.30
  -4  -4   3  104.15    3.25
  -4  -4   3  102.01    3.37
  -4   4  -3  108.42    3.23
  -4  -4   3  105.19    3.00
   4  -4  -3  106.77    3.26
  -4   4  -3  107.25    3.47
  -4   4  -3  107.48    3.19
   4  -4   4  174.10    5.01
   4   4  -4  164.19    4.83
  -4  -4  -4  158.21    4.85
  -4  -4  -4  172.04    5.25
  -4   4   4  170.42    4.84
  -4  -4  -4  167.52    4.57
  -4  -4   4  165.24    4.40
  -4   4  -4  168.14    5.10
  -4   4  -4  165.12    4.76
  -4   4  -4  159.25    4.70
  -4  -4   4  169.35    4.84
   4  -4  -4  157.20    4.77
  -4  -4   4  171.39    4.99
  -4  -4  -5   65.67    2.25
   4   4  -5   68.05    2.61
  -4   4   5   68.24    2.62
   4  -4   5   68.22    2.68
   4   4  -5   67.73    2.97
  -4  -4  -5   72.52    3.10
  -4  -4  -5   66.40    2.70
  -4   4  -5   69.90    2.94
  -4   4  -5   73.04    2.55
  -4  -4   5   66.25    2.60
   4  -4  -5   70.43    2.62
  -4  -4   5   66.83    2.71
   4  -4  -5   69.83    2.99
  -4   4  -5   68.82    2.57
  -4  -4  -6   73.56    3.06
   4   4  -6   72.02    2.83
  -4  -4  -6   68.07    3.31
   4   4  -6   73.10    3.36
  -4   4   6   75.48    2.90
  -4  -4   6   72.37    2.94
  -4   4  -6   72.33    2.83
   4  -4  -6   70.79    2.81
  -4   4  -6   73.32    3.28
  -4   4  -6   67.41    2.68
  -4  -4   6   76.20    2.90
   4  -4  -6   75.28    3.35
   4   4  -7   27.51    2.29
  -4  -4  -7   30.91    2.42
  -4   4   7   30.01    1.83
   4  -4  -7   30.19    2.37
  -4  -4   7   26.17    1.83
  -4   4  -7   26.67    1.83
  -4  -4   7   31.48    1.88
  -4   4  -7   28.85    2.27
  -4  -4  -8   48.36    3.19
  -4   4   8   46.32    2.40
   4   4  -8   41.10    2.99
  -4  -4   8   45.30    2.38
   4  -4  -8   46.73    3.16
  -4   4  -8   39.70    2.88
   5   4   0    0.49    0.37
  -5  -4   0    0.21    0.28
  -5  -4   0    0.03    0.32
   5  -4   0   -0.12    0.27
  -5   4   0    0.09    0.29
  -5   4   0   -0.06    0.28
  -5  -4   0    0.11    0.29
  -5  -4   0    0.14    0.32
  -5  -4  -1    1.70    0.43
  -5  -4  -1    1.26    0.40
   5  -4   1    1.56    0.36
   5   4  -1    2.01    0.50
  -5  -4  -1    1.89    0.36
  -5   4   1    1.68    0.34
  -5   4   1    2.02    0.48
  -5   4  -1    1.59    0.40
  -5   4  -1    1.71    0.37
  -5   4  -1    1.65    0.46
  -5  -4   1    1.48    0.35
  -5  -4   1    1.60    0.41
   5   4   1    1.81    0.40
   5  -4  -1    1.16    0.41
  -5  -4   1    1.25    0.42
  -5  -4   1    1.56    0.48
  -5   4   2    0.24    0.22
  -5  -4  -2    0.85    0.41
  -5  -4  -2   -0.06    0.47
   5   4  -2   -0.30    0.37
  -5   4   2    0.29    0.38
  -5  -4  -2    0.65    0.38
  -5   4  -2    0.82    0.40
  -5  -4   2    0.18    0.35
  -5  -4   2    0.29    0.33
   5   4   2    0.48    0.33
  -5  -4   2    0.62    0.43
  -5  -4   2   -0.14    0.24
   5  -4  -2    0.37    0.37
  -5   4  -2    0.87    0.35
  -5  -4  -3    5.70    0.69
  -5   4   3    3.70    0.67
  -5  -4  -3    4.77    0.71
   5   4  -3    3.95    0.73
  -5  -4  -3    5.02    0.93
  -5  -4   3    3.83    0.68
   5  -4  -3    3.10    0.62
  -5   4  -3    4.45    0.70
  -5   4  -3    5.48    0.84
  -5  -4   3    4.67    0.61
  -5   4  -3    4.03    0.65
  -5  -4   3    3.40    0.73
  -5  -4   3    2.97    0.43
  -5  -4  -4    6.32    0.86
  -5   4   4    8.53    0.99
  -5  -4  -4    7.38    1.15
   5   4  -4    7.30    0.95
  -5  -4  -4    8.29    0.83
   5  -4   4    8.91    1.05
  -5   4  -4    7.14    0.85
  -5  -4   4    9.78    1.06
  -5   4  -4    8.99    1.14
   5  -4  -4    7.86    0.95
  -5  -4   4    7.16    1.01
  -5  -4   4    5.94    0.67
  -5   4  -4    8.64    0.94
   5   4  -5    2.09    0.66
  -5  -4  -5    1.86    0.67
  -5   4   5    3.50    0.75
   5  -4   5    3.68    0.88
  -5  -4  -5    3.34    0.91
  -5  -4  -5    2.75    0.56
   5  -4  -5    2.72    0.70
  -5  -4   5    2.34    0.71
  -5   4  -5    1.76    0.62
   5  -4  -5    1.75    0.82
  -5  -4   5    3.52    0.89
  -5   4  -5    3.51    0.93
  -5   4  -5    2.87    0.71
   5   4  -6    1.31    0.62
  -5  -4  -6    0.66    0.71
  -5  -4  -6    1.26    0.83
  -5   4   6    0.93    0.65
   5   4  -6    1.09    0.86
   5  -4  -6    0.88    0.84
   5  -4  -6    2.57    0.72
  -5   4  -6    0.79    0.64
  -5  -4   6    1.04    0.66
  -5   4  -6    1.49    0.67
  -5  -4   6    2.03    0.70
  -5   4  -6    3.63    1.07
  -5  -4  -7   -0.69    0.87
  -5   4   7    0.75    0.68
   5   4  -7    1.84    1.09
   5  -4  -7   -0.06    1.01
  -5   4  -7    0.28    0.84
  -5  -4   7   -0.35    0.68
  -5  -4   7    0.33    0.70
  -5   4  -7    1.92    0.78
   6  -4   0  102.62    2.97
  -6  -4   0   95.76    2.99
  -6   4   0   92.74    2.90
  -6   4   0   97.50    3.19
  -6  -4   0   96.52    3.06
   6   4   0   98.13    3.01
  -6  -4   0   94.12    2.90
  -6   4   0   98.57    2.88
  -6   4   1  138.26    3.98
  -6  -4  -1  139.75    4.02
  -6  -4  -1  140.24    4.04
   6  -4   1  136.44    3.74
  -6   4   1  137.25    3.69
   6   4  -1  140.12    4.05
  -6  -4   1  125.73    3.95
   6  -4  -1  141.24    4.00
  -6  -4   1  134.65    3.84
  -6  -4   1  137.56    3.96
  -6   4  -1  136.81    4.11
  -6  -4   1  125.27    4.11
   6   4   1  134.94    3.80
  -6   4  -1  136.15    3.90
  -6  -4  -2   59.70    2.25
  -6   4   2   54.93    2.16
   6   4  -2   61.53    2.31
  -6  -4  -2   62.46    2.22
  -6  -4   2   56.99    2.22
  -6  -4   2   57.96    2.37
   6  -4  -2   55.53    2.18
  -6   4  -2   58.94    2.14
   6   4   2   57.64    1.87
  -6  -4   2   55.74    2.13
  -6   4  -2   62.87    2.32
  -6   4  -2   58.47    2.12
  -6  -4   2   56.56    1.96
   6   4  -3   87.18    3.10
  -6   4   3   89.37    3.05
  -6  -4  -3   86.56    3.47
  -6  -4  -3   85.35    2.90
  -6  -4  -3   87.97    3.10
  -6  -4   3   93.48    3.26
   6  -4  -3   89.08    3.07
  -6   4  -3   89.84    3.37
  -6   4  -3   90.50    2.98
  -6  -4   3   87.33    3.06
  -6  -4   3   89.60    2.88
  -6   4  -3   85.73    3.07
  -6  -4  -4   63.58    2.64
  -6  -4  -4   69.10    3.07
   6   4  -4   62.85    2.63
  -6   4   4   64.61    2.59
  -6  -4  -4   66.10    2.39
  -6   4  -4   66.67    2.91
  -6   4  -4   70.10    2.56
   6  -4  -4   64.83    2.59
  -6   4  -4   66.90    2.63
  -6  -4   4   66.04    2.63
  -6  -4   4   58.45    2.25
  -6  -4   4   66.67    2.76
  -6  -4  -5   76.61    3.12
   6   4  -5   83.33    3.18
  -6  -4  -5   80.14    3.59
  -6  -4  -5   75.03    2.67
  -6   4   5   76.82    3.07
  -6   4  -5   76.03    3.03
   6  -4  -5   80.43    3.08
  -6   4  -5   78.60    3.43
  -6  -4   5   79.81    3.21
  -6   4  -5   73.32    2.92
  -6  -4   5   85.80    3.16
   6   4  -6   38.75    2.17
  -6   4   6   38.90    2.19
  -6  -4  -6   42.43    2.76
  -6  -4  -6   39.17    2.30
   6   4  -6   38.99    2.68
  -6   4  -6   39.49    2.55
  -6  -4   6   39.94    2.18
  -6  -4   6   37.50    2.23
   6  -4  -6   37.38    2.59
  -6   4  -6   36.66    2.04
  -6   4  -6   39.11    2.20
   6  -4  -6   38.55    2.14
   6   4  -7   34.61    2.82
  -6  -4  -7   37.16    2.82
  -6  -4  -7   36.21    2.49
  -6   4   7   38.56    2.29
  -6  -4   7   33.18    2.22
   6  -4  -7   38.55    2.84
  -6   4  -7   36.46    2.67
  -6  -4   7   38.26    2.33
  -6   4  -7   37.76    2.31
  -7  -4   0   -0.18    0.34
  -7  -4   0    0.10    0.36
   7   4   0    0.36    0.45
  -7   4   0    0.27    0.42
  -7   4   0   -0.03    0.33
   7  -4   0   -0.13    0.36
  -7  -4  -1    0.61    0.45
  -7  -4  -1    0.13    0.37
  -7   4   1    0.27    0.40
  -7   4   1    0.64    0.46
  -7   4   1    0.49    0.33
   7   4  -1   -0.24    0.42
   7  -4   1    0.32    0.33
  -7  -4   1    0.06    0.43
   7  -4  -1    0.85    0.46
  -7   4  -1   -0.20    0.35
  -7  -4   1    1.08    0.42
  -7   4  -1   -0.23    0.42
  -7  -4   1    0.63    0.39
   7   4   1    0.26    0.41
   7   4  -2    3.14    0.71
  -7   4   2    4.17    0.74
  -7  -4  -2    3.84    0.71
  -7  -4  -2    3.87    0.71
  -7   4  -2    3.89    0.79
   7   4   2    3.88    0.55
   7  -4  -2    4.12    0.75
  -7  -4   2    4.49    0.76
  -7  -4   2    3.72    0.82
  -7  -4   2    4.80    0.74
  -7   4  -2    5.13    0.73
  -7   4  -2    3.12    0.64
  -7  -4   2    3.71    0.57
  -7  -4  -3    2.24    0.66
  -7  -4  -3    1.94    0.59
  -7   4   3    1.07    0.55
   7   4  -3    2.07    0.69
  -7  -4   3    0.76    0.58
  -7  -4   3    2.12    0.58
  -7   4  -3    2.16    0.68
  -7   4  -3    2.60    0.64
  -7  -4   3    2.29    0.76
   7  -4  -3    2.39    0.69
  -7  -4  -4   -0.07    0.52
  -7   4   4    0.05    0.50
  -7  -4  -4   -0.29    0.72
  -7  -4  -4   -0.16    0.39
   7   4  -4   -0.33    0.52
  -7  -4   4    1.01    0.61
  -7   4  -4   -0.53    0.66
  -7   4  -4   -0.02    0.51
  -7  -4   4   -0.20    0.43
   7  -4  -4   -0.36    0.45
  -7  -4   4    0.42    0.58
  -7   4  -4   -0.30    0.52
  -7   4   5    0.66    0.62
   7   4  -5    0.73    0.70
  -7  -4  -5    0.81    0.69
  -7  -4  -5    0.75    0.88
  -7  -4  -5    1.01    0.50
   7  -4  -5    1.12    0.66
  -7   4  -5    0.72    0.64
  -7  -4   5   -0.40    0.55
  -7  -4   5    1.29    0.77
  -7   4  -5    1.16    0.86
  -7   4  -5    2.23    0.82
  -7  -4  -6    0.05    0.76
  -7  -4  -6    0.17    0.93
  -7   4   6    1.37    0.80
   7   4  -6   -0.66    0.65
  -7  -4   6   -0.01    0.71
  -7   4  -6    1.59    0.84
  -7  -4   6    1.21    0.78
  -7   4  -6    0.21    0.90
   7  -4  -6    1.14    1.10
   7  -4  -6   -0.38    0.60
  -8   4   0   20.78    1.48
  -8  -4   0   19.50    1.34
  -8   4   0   20.28    1.19
   8   4   0   20.47    1.31
   8  -4   0   20.51    1.23
  -8  -4   0   19.58    1.32
  -8   4   1  132.16    4.37
   8  -4   1  130.03    3.85
   8   4  -1  133.41    4.20
  -8  -4  -1  132.07    4.24
  -8  -4  -1  136.42    4.27
  -8   4  -1  129.29    4.34
   8   4   1  135.38    3.94
  -8  -4   1  132.10    4.23
  -8   4  -1  135.79    4.06
   8  -4  -1  136.70    4.18
  -8  -4   1  133.81    4.09
   8   4  -2   29.46    1.74
  -8   4   2   24.72    1.53
  -8  -4  -2   27.09    1.57
  -8  -4  -2   25.78    1.63
  -8  -4   2   29.61    1.61
  -8  -4   2   28.25    1.59
  -8   4  -2   25.35    1.53
  -8  -4   2   30.22    1.49
   8  -4  -2   24.99    1.56
  -8   4  -2   27.03    1.71
   8   4   2   28.20    1.29
  -8   4   3  118.03    4.01
  -8  -4  -3  115.43    3.87
  -8  -4  -3  116.61    4.06
   8   4  -3  118.78    4.11
  -8   4  -3  123.10    4.21
  -8   4  -3  116.75    3.92
   8  -4  -3  119.32    4.05
  -8  -4   3  117.93    3.88
  -8  -4   3  116.46    4.00
  -8   4   4    8.16    1.18
  -8  -4  -4    6.21    1.07
  -8  -4  -4    8.38    1.04
   8   4  -4    8.88    1.25
  -8  -4   4   10.50    1.32
  -8  -4   4    8.01    1.01
   8  -4  -4   10.02    1.31
  -8   4  -4    7.83    1.15
  -8   4  -4    8.14    1.11
  -8  -4  -5   66.45    3.65
   8   4  -5   68.20    3.11
  -8  -4  -5   65.93    3.12
  -8   4   5   67.71    3.08
  -8   4  -5   75.67    3.22
  -8   4  -5   67.29    2.95
  -8  -4   5   72.55    3.10
   8  -4  -5   67.45    3.05
  -8  -4  -6    4.55    1.15
  -8  -4  -6    7.83    1.67
  -8   4   6    3.52    1.03
   8   4  -6    5.14    1.16
  -8   4  -6    3.48    1.22
  -8   4  -6    6.49    1.24
  -8  -4   6    7.45    1.29
   8  -4  -6    4.17    1.03
   9   4   0    1.56    0.65
  -9  -4   0    1.09    0.62
  -9  -4   0    0.78    0.59
   9  -4   0    1.03    0.52
  -9   4   0    1.72    0.73
   9   4  -1    1.93    0.72
  -9  -4  -1    3.18    0.80
  -9   4   1    0.89    0.67
  -9  -4  -1    1.62    0.67
   9  -4   1    0.73    0.48
  -9  -4   1    0.50    0.52
   9   4   1    1.40    0.60
  -9  -4   1    3.44    0.76
  -9   4  -1    2.26    0.64
  -9   4  -1    1.28    0.66
   9  -4  -1    1.37    0.60
   9   4  -2    0.09    0.63
  -9  -4  -2    0.54    0.57
  -9   4   2    0.31    0.62
  -9  -4  -2    0.50    0.59
  -9   4  -2    0.77    0.58
   9  -4  -2    0.63    0.62
  -9  -4   2    1.60    0.64
  -9   4  -2    1.15    0.67
  -9  -4  -3   -0.57    0.45
  -9  -4  -3    0.64    0.70
  -9   4   3   -0.02    0.62
   9   4  -3   -0.39    0.62
  -9   4  -3   -0.37    0.56
  -9  -4   3   -0.17    0.53
  -9   4  -3   -0.23    0.61
  -9  -4   3    0.57    0.59
   9  -4  -3    0.09    0.59
  -9  -4  -4    0.33    0.72
   9   4  -4    0.07    0.78
  -9  -4  -4    0.68    0.59
  -9   4   4    0.49    0.70
  -9   4  -4    0.40    0.63
  -9  -4   4    0.00    0.63
  -9   4  -4    0.13    0.75
   9  -4  -4    0.58    0.69
  -9  -4   4   -0.29    0.58
   9   4  -5   -0.79    0.72
  -9   4   5    0.26    0.74
  -9  -4  -5   -0.53    0.75
  -9   4  -5   -0.43    0.73
  -9  -4   5    0.47    0.76
   9  -4  -5    0.70    0.73
  10  -4   0    2.83    0.72
 -10  -4   0    2.09    0.74
 -10  -4   0    2.68    0.81
  10   4   0    3.28    0.87
 -10   4   0    3.14    0.91
  10   4  -1   59.38    2.68
 -10   4   1   65.26    2.95
 -10  -4  -1   62.75    2.77
  10  -4   1   52.94    2.46
 -10  -4  -1   61.15    2.77
  10   4   1   57.10    2.34
 -10  -4   1   60.22    2.73
 -10  -4   1   64.93    2.69
 -10   4  -1   62.10    2.95
  10  -4  -1   59.60    2.58
 -10  -4  -2    1.33    0.66
 -10  -4  -2    0.85    0.74
 -10   4   2    1.70    0.81
  10   4  -2    0.60    0.79
 -10  -4   2    2.41    0.86
 -10   4  -2    1.66    0.83
  10  -4  -2    0.56    0.68
 -10  -4  -3   55.85    2.64
  10   4  -3   62.11    2.95
 -10   4   3   58.60    2.87
 -10  -4  -3   56.28    2.86
 -10  -4   3   56.99    2.66
 -10   4  -3   56.79    2.95
  10  -4  -3   55.43    2.76
  11   4   0    2.23    0.80
 -11  -4   0    1.91    0.76
  11  -4   0    1.60    0.67
 -11  -4   0    1.20    0.79
 -11   4   0    0.98    0.84
 -11  -4  -1    1.65    0.82
  11   4  -1    1.78    0.83
 -11  -4  -1    0.02    0.71
 -11   4   1    3.09    1.00
  11  -4  -1   -0.35    0.58
 -11  -4   1    1.83    0.84
 -11   4  -1    2.79    0.98
   0   5   0    0.40    0.29
   0  -5   0   -0.19    0.25
   0  -5   0    0.17    0.25
   0   5   1  288.10    7.16
   0  -5  -1  298.77    7.10
   0  -5  -1  287.87    7.17
   0  -5   1  289.47    7.18
   0  -5   1  286.04    7.32
   0   5  -1  291.18    7.18
   0   5  -2   -0.04    0.20
   0  -5  -2   -0.23    0.21
   0   5  -2    0.11    0.23
   0  -5   2    0.31    0.25
   0  -5   2   -0.42    0.29
   0   5   2   -0.25    0.20
   0  -5  -2   -0.02    0.20
   0   5  -3  292.10    7.11
   0  -5  -3  291.60    7.20
   0   5   3  277.53    7.20
   0   5  -3  288.16    7.17
   0  -5   3  277.54    7.14
   0  -5   3  279.55    7.50
   0  -5  -3  302.19    7.48
   0   5  -3  286.87    7.34
   0  -5  -4    0.08    0.44
   0  -5   4   -0.30    0.32
   0   5  -4   -0.05    0.21
   0   5  -4   -0.39    0.35
   0  -5  -4    0.10    0.30
   0  -5   4   -0.18    0.43
   0   5   4    0.02    0.31
   0   5  -4    0.38    0.29
   0  -5  -5  163.50    5.01
   0  -5   5  155.32    4.32
   0  -5   5  157.39    4.73
   0   5   5  155.28    4.39
   0   5  -5  160.10    4.87
   0   5  -5  150.45    4.21
   0  -5   6   -0.05    0.41
   0  -5   6   -0.39    0.54
   0   5  -6   -0.86    0.50
   0  -5  -6    0.99    0.68
   0   5   6    0.08    0.36
   0   5  -7   69.52    3.23
   0   5   7   70.70    2.56
   0  -5  -7   67.40    3.31
   0  -5   7   68.73    2.45
   0  -5  -8   -0.15    0.88
   0   5   8   -0.49    0.44
   0   5  -8   -0.28    0.84
   1  -5   0   12.45    0.68
  -1  -5   0   13.36    0.74
  -1   5   0   13.72    0.69
  -1  -5   0   14.15    0.72
   1   5   0   12.35    0.72
   1  -5   1  315.44    7.94
   1   5  -1  311.79    7.78
  -1  -5  -1  326.90    7.62
  -1   5   1  313.47    7.76
   1  -5   1  303.85    7.74
  -1  -5  -1  324.00    7.68
  -1  -5  -1  318.52    7.81
  -1  -5   1  317.75    7.89
   1   5   1  304.28    7.80
  -1  -5   1  319.92    7.78
  -1   5  -1  306.82    7.75
   1  -5  -1  309.76    7.74
  -1  -5   1  324.82    7.68
   1   5  -2   18.04    0.88
  -1  -5  -2   18.70    0.87
   1  -5   2   19.26    0.82
  -1   5   2   18.44    0.89
  -1  -5  -2   18.95    0.92
   1  -5   2   18.02    1.02
   1   5  -2   18.43    0.85
   1  -5  -2   19.50    0.91
  -1   5  -2   19.42    0.81
  -1  -5   2   17.82    1.01
  -1  -5   2   18.25    0.87
  -1   5  -2   17.92    0.69
  -1   5  -2   18.96    0.85
  -1  -5   2   18.69    0.72
   1  -5  -2   17.98    0.86
   1   5   2   19.19    0.86
  -1   5   3  184.90    4.97
  -1  -5  -3  189.46    4.86
   1  -5   3  179.61    5.19
  -1  -5  -3  194.40    5.19
   1   5  -3  189.84    4.97
   1   5  -3  186.12    5.05
   1  -5   3  187.11    4.78
  -1  -5   3  186.69    4.94
  -1   5  -3  188.36    4.73
  -1  -5   3  190.22    5.21
   1   5   3  183.30    4.85
  -1   5  -3  186.36    4.79
  -1   5  -3  185.27    4.85
   1  -5  -3  188.00    4.96
   1  -5  -3  190.77    5.14
  -1   5  -3  191.64    5.07
  -1  -5  -4    5.05    0.80
   1  -5   4    6.16    0.86
   1  -5   4    7.02    0.61
   1   5  -4    5.78    0.69
   1   5  -4    6.47    0.85
  -1   5   4    5.56    0.66
  -1  -5  -4    5.15    0.55
   1   5  -4    6.46    0.53
   1  -5  -4    5.07    0.62
  -1  -5   4    6.43    0.70
   1   5   4    6.80    0.65
  -1  -5   4    5.99    0.83
  -1   5  -4    6.79    0.63
   1  -5  -4    5.78    0.83
  -1   5  -4    5.26    0.55
  -1   5  -4    4.81    0.55
  -1   5  -4    6.13    0.81
  -1  -5  -5  108.72    3.23
   1  -5   5  115.09    3.20
   1  -5   5  111.72    3.68
  -1   5   5  114.32    3.47
   1   5  -5  109.52    3.87
   1   5  -5  117.17    3.85
  -1  -5  -5  112.20    3.91
   1   5  -5  111.30    3.10
  -1   5  -5  118.75    3.85
   1   5   5  113.07    3.28
  -1   5  -5  110.78    3.29
  -1   5  -5  106.12    3.29
   1  -5  -5  115.42    3.91
  -1  -5   5  111.82    3.69
   1  -5  -5  112.21    3.41
  -1  -5   5  114.43    3.41
  -1   5   6    1.24    0.48
   1  -5   6    1.03    0.64
   1   5  -6    0.11    0.63
  -1  -5  -6    0.34    0.63
   1  -5   6    0.88    0.43
  -1   5  -6    0.65    0.40
  -1   5  -6    1.09    0.69
  -1  -5   6    0.69    0.59
  -1  -5   6    0.33    0.50
   1  -5  -6    0.22    0.61
   1   5   6    0.85    0.39
  -1   5   7   65.36    2.53
   1  -5   7   63.61    2.88
   1   5  -7   61.96    3.08
  -1  -5  -7   63.08    3.21
  -1   5  -7   65.78    3.11
   1   5   7   60.95    2.26
  -1  -5   7   66.85    2.47
   1  -5  -7   67.90    3.28
  -1   5   8    1.40    0.66
   1   5  -8    4.53    1.26
  -1  -5  -8    0.87    0.97
  -1  -5   8    2.45    0.68
  -1   5  -8    2.43    1.12
   1  -5  -8    2.94    1.23
  -2  -5   0   14.57    0.62
   2   5   0   13.78    0.74
   2  -5   0   15.34    0.73
  -2  -5   0   13.92    0.74
  -2  -5   0   14.46    0.74
  -2   5   0   14.95    0.72
  -2  -5   0   14.44    0.72
  -2   5   1  382.48    9.35
  -2  -5  -1  379.40    9.27
   2   5  -1  374.11    9.36
  -2  -5  -1  373.23    9.33
  -2  -5  -1  392.65    9.35
  -2  -5  -1  377.63    9.31
  -2  -5  -1  385.45    9.18
   2  -5   1  380.20    9.29
   2  -5  -1  382.65    9.34
  -2  -5   1  385.63    9.46
  -2  -5   1  386.14    9.25
  -2   5  -1  377.71    9.28
  -2  -5   1  381.50    9.35
   2   5   1  369.74    9.30
  -2   5  -1  388.95    9.23
  -2  -5  -2   55.72    1.89
  -2  -5  -2   61.65    2.01
   2   5  -2   59.27    1.93
   2  -5   2   59.03    2.07
  -2  -5  -2   58.43    1.84
   2  -5   2   55.62    1.74
  -2  -5  -2   59.35    1.88
  -2   5   2   58.07    1.92
  -2  -5   2   56.86    1.90
  -2  -5   2   59.32    1.72
   2   5   2   56.31    1.84
  -2   5  -2   58.34    1.85
  -2   5  -2   62.28    1.91
  -2   5  -2   58.55    1.77
  -2  -5   2   58.66    2.05
  -2   5  -2   55.93    1.74
   2  -5  -2   58.67    1.91
   2  -5   3  239.58    6.42
   2  -5   3  240.52    5.81
  -2  -5  -3  243.19    6.06
  -2   5   3  234.26    6.15
  -2  -5  -3  237.82    6.00
  -2  -5  -3  228.63    6.20
   2   5  -3  228.75    6.14
  -2  -5  -3  226.61    6.31
  -2  -5   3  228.28    5.75
  -2  -5   3  238.35    6.35
   2  -5  -3  232.19    6.12
  -2   5  -3  230.44    6.03
  -2   5  -3  229.13    5.95
   2  -5  -3  236.88    6.29
  -2   5  -3  232.49    5.81
   2   5   3  237.60    6.00
  -2  -5   3  237.42    6.12
  -2   5  -3  237.50    6.22
  -2  -5  -4    6.53    0.65
   2  -5   4    5.92    0.86
  -2   5   4    4.82    0.68
  -2  -5  -4    5.64    0.86
   2   5  -4    5.31    0.69
   2   5  -4    4.21    0.73
  -2   5  -4    6.78    0.85
  -2   5  -4    6.30    0.67
   2  -5  -4    5.59    0.69
  -2  -5   4    5.10    0.68
  -2  -5   4    6.75    0.88
  -2   5  -4    6.20    0.64
   2   5   4    7.35    0.67
   2  -5  -4    4.45    0.79
  -2  -5  -5  123.77    3.53
  -2  -5  -5  122.49    4.23
   2  -5   5  125.65    4.02
  -2   5   5  126.74    3.83
   2   5  -5  121.35    3.76
   2   5  -5  129.89    4.18
  -2   5  -5  128.66    4.15
  -2   5  -5  120.39    3.66
  -2  -5   5  121.68    3.78
  -2   5  -5  123.23    3.67
   2  -5  -5  120.91    4.17
   2   5   5  125.42    3.51
   2  -5  -5  124.62    3.79
  -2  -5   5  126.11    4.02
   2   5  -6   12.20    1.40
   2  -5   6   14.01    1.34
  -2  -5  -6    9.25    1.34
  -2   5   6    9.90    1.06
  -2   5  -6   10.17    0.99
  -2   5  -6   11.43    1.40
  -2  -5   6   11.98    1.14
   2   5   6   10.93    0.82
   2  -5  -6   10.29    1.40
  -2  -5   6   12.17    1.29
  -2  -5  -7   64.73    3.28
  -2   5   7   60.68    2.53
   2   5  -7   64.11    3.09
  -2  -5   7   65.08    2.50
  -2   5  -7   58.95    3.01
  -2   5  -7   57.91    2.34
   2  -5  -7   56.07    3.04
  -2  -5   7   61.24    2.69
  -2   5   8    3.33    0.86
  -2  -5  -8    6.14    1.48
   2   5  -8    6.63    1.39
  -2  -5   8    3.69    0.83
   2  -5  -8    6.22    1.42
  -2   5  -8    3.81    1.15
  -3   5   0   49.03    1.59
  -3  -5   0   47.26    1.58
   3   5   0   48.81    1.63
  -3  -5   0   47.97    1.48
   3  -5   0   45.33    1.55
  -3  -5   0   47.31    1.61
  -3  -5   0   48.50    1.65
  -3  -5  -1  153.50    3.96
  -3  -5  -1  160.31    4.23
   3   5  -1  152.32    4.11
  -3   5   1  148.79    4.08
  -3  -5  -1  155.58    4.08
   3  -5   1  147.29    3.93
  -3  -5  -1  153.83    4.02
   3   5   1  147.37    3.98
  -3   5  -1  153.36    4.06
  -3   5  -1  150.79    3.93
  -3  -5   1  151.56    4.00
   3  -5  -1  148.84    4.06
  -3   5  -1  154.73    4.02
  -3  -5   1  148.79    3.78
  -3  -5   1  143.59    4.06
  -3  -5   1  146.67    4.17
  -3  -5  -2   23.13    1.10
  -3  -5  -2   21.67    1.03
  -3  -5  -2   22.69    0.94
   3   5  -2   21.81    1.11
  -3   5   2   22.04    1.08
   3  -5   2   21.46    0.91
  -3  -5  -2   23.69    1.25
  -3   5  -2   24.13    1.13
  -3  -5   2   22.59    0.96
  -3  -5   2   20.49    1.07
  -3   5  -2   21.52    0.92
   3   5   2   22.95    0.96
  -3  -5   2   21.47    1.18
   3  -5  -2   23.04    1.09
  -3   5  -2   22.51    1.01
  -3   5  -2   22.72    1.04
  -3  -5  -3  155.05    4.56
  -3  -5  -3  149.45    4.34
  -3   5   3  150.84    4.31
  -3  -5  -3  150.31    4.00
   3  -5   3  153.56    4.51
  -3  -5  -3  152.61    4.17
   3   5  -3  150.66    4.32
  -3   5  -3  154.20    4.22
  -3  -5   3  151.11    4.29
  -3   5  -3  159.82    4.42
   3   5   3  150.32    4.02
   3  -5  -3  151.68    4.30
  -3   5  -3  151.85    4.17
  -3  -5   3  150.38    4.46
  -3  -5   3  149.15    3.96
  -3  -5  -4   13.52    1.10
   3   5  -4   11.88    0.99
  -3  -5  -4   13.60    0.87
  -3   5   4   11.25    0.95
  -3  -5  -4   13.24    1.27
   3  -5   4   13.81    1.30
  -3  -5   4   13.07    1.01
  -3  -5   4   12.77    1.14
  -3   5  -4   14.80    0.96
   3  -5  -4   15.68    1.41
  -3   5  -4   13.48    0.93
   3  -5  -4   14.44    1.01
  -3   5  -4   14.14    1.12
   3   5  -5   79.59    2.82
   3  -5   5   78.28    3.00
   3   5  -5   84.57    3.23
  -3  -5  -5   82.34    3.28
  -3  -5  -5   79.76    2.54
  -3   5   5   82.60    2.88
  -3  -5  -5   78.06    3.00
  -3  -5   5   85.10    2.89
  -3  -5   5   79.80    3.01
  -3   5  -5   76.13    2.71
   3  -5  -5   83.18    3.22
  -3   5  -5   85.02    3.16
  -3   5  -5   80.95    2.76
   3  -5  -5   82.69    2.86
  -3  -5  -6   15.06    1.69
   3   5  -6   15.03    1.60
  -3   5   6   15.16    1.21
  -3   5  -6   15.47    1.15
  -3   5  -6   15.75    1.61
  -3  -5   6   13.95    1.28
  -3  -5   6   13.29    1.39
   3  -5  -6   17.20    1.71
  -3   5  -6   12.63    1.17
   3  -5  -6   14.43    1.99
   3   5  -7   37.63    2.50
  -3  -5  -7   36.98    2.51
  -3   5   7   35.17    1.92
  -3   5  -7   33.27    2.29
   3  -5  -7   34.25    2.43
  -3  -5   7   34.42    1.88
  -3   5  -7   34.09    1.78
  -3  -5   7   33.35    2.00
   3   5  -8   14.41    1.91
  -3  -5  -8   18.19    2.10
  -3   5   8   14.69    1.53
   3  -5  -8   17.77    2.14
  -3   5  -8   13.71    1.79
  -3  -5   8   14.91    1.50
   4  -5   0   53.81    1.73
  -4  -5   0   48.00    1.80
  -4  -5   0   52.12    1.79
  -4  -5   0   50.97    1.66
  -4   5   0   52.07    1.68
  -4  -5   0   48.73    1.71
   4   5   0   52.14    1.77
  -4   5   0   51.41    1.73
   4   5  -1  136.60    3.84
  -4   5   1  130.48    3.77
  -4  -5  -1  141.74    3.82
   4  -5   1  131.98    3.60
  -4   5   1  135.70    3.58
  -4  -5  -1  140.59    3.74
  -4  -5  -1  138.09    3.75
  -4  -5  -1  136.91    3.63
   4  -5  -1  139.68    3.80
  -4   5  -1  138.33    3.63
  -4  -5   1  133.39    3.78
  -4  -5   1  125.64    3.87
   4   5   1  130.84    3.66
  -4  -5   1  129.91    3.73
  -4  -5   1  133.59    3.54
  -4   5  -1  135.82    3.82
  -4   5  -1  137.51    3.72
  -4   5   2   53.72    1.97
  -4  -5  -2   54.41    1.70
  -4  -5  -2   58.16    2.21
   4  -5   2   54.54    1.73
  -4  -5  -2   57.24    1.99
   4   5  -2   55.63    2.04
  -4  -5  -2   53.65    1.91
  -4  -5   2   54.74    1.97
  -4   5  -2   53.23    1.89
   4  -5  -2   54.70    1.98
  -4   5  -2   57.88    1.96
  -4  -5   2   57.72    2.12
  -4  -5   2   52.22    1.82
  -4  -5   2   52.87    1.60
  -4   5  -2   54.60    2.05
  -4   5  -2   54.86    1.73
   4   5   2   53.65    1.74
  -4   5   3  114.95    3.57
  -4  -5  -3  122.12    3.88
   4   5  -3  117.81    3.61
  -4  -5  -3  113.48    3.40
  -4  -5  -3  114.02    3.57
   4  -5  -3  116.37    3.56
  -4  -5   3  116.93    3.54
  -4  -5   3  114.69    3.70
  -4  -5   3  113.22    3.26
  -4   5  -3  124.40    3.73
  -4   5  -3  113.82    3.45
  -4   5  -3  116.23    3.46
   4   5  -4   27.04    1.46
  -4  -5  -4   24.74    1.66
  -4  -5  -4   26.52    1.51
  -4   5   4   25.98    1.44
   4  -5   4   29.91    1.66
  -4  -5  -4   24.35    1.22
  -4   5  -4   27.47    1.38
  -4  -5   4   28.29    1.48
  -4  -5   4   26.92    1.56
  -4   5  -4   24.56    1.54
  -4   5  -4   25.53    1.34
  -4  -5   4   25.05    1.10
   4  -5  -4   24.70    1.39
   4   5  -5   87.92    3.38
  -4   5   5   78.23    2.94
   4   5  -5   84.50    2.99
  -4  -5  -5   79.47    2.64
   4  -5   5   82.14    3.10
  -4  -5  -5   83.77    3.10
  -4  -5  -5   79.93    3.37
   4  -5  -5   82.44    2.97
  -4   5  -5   79.42    2.83
  -4   5  -5   82.90    2.90
  -4   5  -5   83.75    3.25
  -4  -5   5   80.48    2.96
   4  -5  -5   81.51    3.32
  -4  -5   5   77.33    3.07
  -4   5   6   20.01    1.43
   4   5  -6   18.42    1.39
   4   5  -6   20.65    1.99
  -4  -5  -6   15.63    1.76
  -4   5  -6   18.01    1.37
  -4  -5   6   21.35    1.59
  -4   5  -6   17.86    1.74
   4  -5  -6   16.87    1.76
   4  -5  -6   17.00    1.33
  -4  -5   6   18.54    1.42
  -4   5  -6   20.35    1.37
   4   5  -7   32.46    2.40
  -4   5   7   27.99    1.83
  -4   5  -7   31.15    2.27
  -4   5  -7   30.38    1.79
   4  -5  -7   31.10    2.45
  -4  -5   7   31.23    2.05
  -4  -5   7   36.93    2.00
   4   5  -8   15.47    2.07
  -4  -5  -8    8.64    1.70
  -4   5   8   14.77    1.62
  -4  -5   8   12.28    1.45
   4  -5  -8   12.30    1.83
  -4   5  -8   10.67    1.71
  -5  -5   0  134.72    3.73
  -5  -5   0  134.31    3.91
  -5  -5   0  135.72    3.75
  -5   5   0  134.86    3.75
  -5   5   0  131.45    3.66
   5  -5   0  136.01    3.74
  -5  -5   0  129.40    3.82
   5   5   0  129.88    3.79
   5  -5   1   86.54    2.47
  -5   5   1   83.50    2.41
  -5  -5  -1   79.84    2.45
  -5   5   1   81.03    2.62
  -5  -5  -1   82.36    2.66
  -5  -5  -1   84.01    2.63
   5   5  -1   81.83    2.70
  -5  -5   1   83.34    2.64
   5  -5  -1   82.74    2.65
  -5  -5   1   82.27    2.80
  -5  -5   1   85.17    2.46
  -5  -5   1   80.47    2.62
  -5   5  -1   82.38    2.57
  -5   5  -1   88.31    2.79
   5   5   1   81.75    2.53
  -5   5  -1   81.10    2.45
  -5  -5  -2   61.21    2.16
  -5   5   2   59.96    1.82
  -5   5   2   58.02    2.19
  -5  -5  -2   67.72    2.58
   5   5  -2   59.84    2.27
  -5  -5  -2   63.09    2.24
   5   5   2   62.01    1.94
  -5  -5   2   62.08    2.11
  -5  -5   2   58.99    1.87
  -5   5  -2   59.50    2.21
  -5  -5   2   61.03    2.21
  -5   5  -2   61.83    2.15
  -5  -5   2   57.78    2.32
   5  -5  -2   63.29    2.24
   5   5  -3   59.42    2.30
  -5  -5  -3   57.36    2.25
  -5   5   3   54.56    2.21
  -5  -5  -3   61.13    2.58
  -5  -5  -3   57.24    2.09
  -5  -5   3   54.26    2.33
  -5   5  -3   54.42    2.17
  -5  -5   3   59.77    2.25
  -5  -5   3   58.11    2.03
  -5   5  -3   59.70    2.41
  -5   5  -3   56.80    2.14
   5  -5  -3   57.60    2.24
   5  -5   4   30.20    1.75
  -5   5   4   34.84    1.75
  -5  -5  -4   36.21    2.10
  -5  -5  -4   34.66    1.79
  -5  -5  -4   35.71    1.55
   5   5  -4   30.86    1.70
  -5   5  -4   33.72    1.64
   5  -5  -4   28.83    1.63
  -5  -5   4   34.47    1.74
  -5   5  -4   37.71    1.96
  -5  -5   4   36.54    1.89
  -5  -5   4   34.98    1.45
  -5   5  -4   34.63    1.69
  -5  -5  -5   43.87    2.16
   5   5  -5   43.88    2.10
  -5  -5  -5   43.38    2.46
  -5   5   5   41.19    2.06
   5  -5   5   44.13    2.25
  -5  -5  -5   40.96    1.75
  -5  -5   5   43.54    2.10
  -5   5  -5   41.28    2.29
  -5   5  -5   39.15    1.91
  -5  -5   5   43.34    2.21
   5  -5  -5   43.43    2.44
  -5   5  -5   41.57    2.01
   5  -5  -5   42.15    2.04
   5   5  -6   22.41    1.60
   5   5  -6   22.36    2.07
  -5  -5  -6   23.50    2.05
  -5   5   6   23.40    1.64
  -5  -5  -6   25.21    1.84
  -5  -5   6   24.30    1.70
   5  -5  -6   21.75    1.57
  -5   5  -6   22.73    1.93
  -5   5  -6   23.13    1.55
   5  -5  -6   23.81    2.06
  -5  -5   6   22.83    1.73
  -5   5  -6   22.74    1.63
  -5   5   7   15.61    1.61
  -5  -5  -7   14.92    1.98
   5   5  -7   15.51    1.92
  -5  -5   7   13.22    1.57
  -5   5  -7   16.60    1.91
   5  -5  -7   18.42    2.07
  -5  -5   7   16.76    1.63
  -5   5  -7   15.75    1.58
  -6  -5   0  137.72    4.11
  -6  -5   0  139.87    4.00
   6  -5   0  140.09    3.98
  -6  -5   0  134.83    3.94
   6   5   0  143.37    4.07
  -6   5   0  144.49    4.27
  -6  -5   0  140.53    4.21
  -6   5   0  137.58    3.97
  -6   5   0  137.66    3.90
  -6   5   1   65.11    2.10
  -6  -5  -1   69.96    2.42
  -6   5   1   67.46    2.35
   6   5  -1   68.09    2.43
  -6  -5  -1   69.62    2.38
   6  -5   1   68.36    2.17
  -6   5  -1   73.37    2.56
  -6   5  -1   61.31    2.23
   6  -5  -1   66.87    2.35
   6   5   1   66.81    2.23
  -6  -5   1   64.66    2.51
  -6  -5   1   63.45    2.33
  -6  -5   1   65.66    2.19
  -6  -5   1   64.44    2.31
  -6  -5  -2   57.69    2.25
  -6  -5  -2   61.93    2.33
  -6   5   2   64.11    2.36
   6   5  -2   62.07    2.40
  -6  -5   2   61.21    2.03
  -6   5  -2   66.41    2.44
  -6   5  -2   62.47    2.26
   6   5   2   62.89    2.02
  -6  -5   2   63.40    2.25
   6  -5  -2   60.34    2.32
  -6  -5   2   58.63    2.46
  -6  -5   2   61.03    2.31
   6   5  -3   58.56    2.39
  -6  -5  -3   61.49    2.78
  -6  -5  -3   56.53    2.34
  -6   5   3   59.53    2.37
  -6  -5  -3   57.77    2.20
  -6  -5   3   59.39    2.50
   6  -5  -3   52.69    2.28
  -6  -5   3   59.71    2.17
  -6  -5   3   58.32    2.37
  -6   5  -3   55.25    2.21
  -6   5  -3   57.15    2.34
  -6  -5  -4   56.93    2.46
  -6   5   4   54.48    2.39
   6   5  -4   60.15    2.49
  -6  -5  -4   59.91    2.23
  -6  -5  -4   56.00    2.79
  -6  -5   4   54.82    2.41
   6  -5  -4   54.80    2.39
  -6  -5   4   54.78    2.09
  -6  -5   4   56.32    2.56
  -6   5  -4   56.65    2.31
  -6   5  -4   57.13    2.67
  -6   5  -4   56.03    2.40
   6   5  -5   29.51    1.81
   6  -5   5   29.36    1.90
  -6  -5  -5   29.06    2.17
  -6  -5  -5   28.05    1.82
  -6  -5  -5   27.71    1.46
  -6   5   5   27.87    1.75
  -6   5  -5   26.66    1.65
   6  -5  -5   28.88    1.74
  -6  -5   5   22.69    1.76
  -6   5  -5   27.17    1.96
  -6  -5   5   24.50    1.68
  -6   5  -5   27.55    1.73
  -6   5   6   22.41    1.74
  -6  -5  -6   30.97    2.41
  -6  -5  -6   26.64    2.01
   6   5  -6   28.81    2.36
   6   5  -6   30.18    1.93
  -6   5  -6   26.27    2.13
  -6  -5   6   24.30    1.89
  -6   5  -6   27.26    1.75
   6  -5  -6   23.60    1.72
  -6   5  -6   27.91    1.88
  -6  -5   6   28.38    1.91
   6  -5  -6   27.44    2.28
  -6  -5  -7   10.31    1.62
   6   5  -7   16.93    2.15
  -6   5   7   15.88    1.68
  -6  -5  -7   14.29    2.04
  -6   5  -7   16.03    2.05
   6  -5  -7   15.97    2.06
  -6  -5   7   14.89    1.73
  -6  -5   7   14.14    1.59
  -6   5  -7   11.87    1.46
  -7  -5   0   51.49    2.02
   7  -5   0   51.73    1.96
  -7  -5   0   50.39    2.08
  -7   5   0   52.04    1.91
  -7   5   0   48.58    2.19
   7   5   0   48.80    2.00
  -7  -5  -1    9.32    0.96
   7  -5   1   10.63    0.83
  -7  -5  -1   11.84    1.14
  -7   5   1   11.45    0.96
  -7   5   1   10.78    0.81
   7   5  -1   11.35    1.08
   7   5   1   10.20    0.92
  -7   5  -1   10.56    0.95
  -7  -5   1   10.75    1.18
  -7  -5   1   12.30    0.94
  -7  -5   1   12.14    1.08
   7  -5  -1   11.85    0.99
  -7   5  -1   10.41    1.09
  -7  -5   1   11.68    1.11
   7   5  -2   54.29    2.32
  -7   5   2   56.66    2.29
  -7  -5  -2   56.51    2.24
  -7  -5  -2   54.55    2.27
  -7  -5   2   53.74    2.20
  -7   5  -2   55.06    2.37
  -7  -5   2   57.74    2.19
  -7   5  -2   54.34    2.18
   7   5   2   56.80    1.93
  -7  -5   2   51.52    2.40
   7  -5  -2   56.59    2.29
  -7  -5   2   57.97    2.31
  -7  -5  -3   20.63    1.44
  -7  -5  -3   20.88    1.29
  -7   5   3   19.45    1.38
   7   5  -3   16.56    1.38
  -7   5  -3   18.59    1.30
  -7  -5   3   20.19    1.51
  -7   5  -3   19.97    1.44
   7  -5  -3   16.26    1.32
  -7  -5   3   19.31    1.25
  -7  -5   3   20.33    1.42
  -7  -5  -4   41.05    1.91
  -7  -5  -4   43.22    2.20
   7   5  -4   43.65    2.23
  -7  -5  -4   41.65    2.59
  -7   5   4   41.24    2.14
  -7  -5   4   44.38    2.18
  -7  -5   4   43.11    1.91
  -7  -5   4   46.15    2.37
  -7   5  -4   43.40    2.21
   7  -5  -4   43.48    2.17
  -7   5  -4   41.73    2.06
  -7  -5  -5   15.49    1.16
  -7  -5  -5   15.88    1.56
  -7   5   5   12.91    1.47
  -7  -5  -5   14.01    1.76
   7   5  -5   13.40    1.51
  -7  -5   5   18.02    1.83
   7  -5  -5   13.40    1.47
  -7   5  -5   12.82    1.45
  -7  -5   5   17.71    1.63
  -7   5  -5   14.86    1.47
  -7   5  -5   14.14    1.67
   7   5  -6   29.84    2.01
  -7  -5  -6   27.70    2.11
  -7   5   6   28.98    1.98
  -7  -5  -6   28.68    2.51
  -7  -5   6   23.35    1.88
  -7  -5   6   28.82    2.11
  -7   5  -6   28.15    2.02
  -7   5  -6   26.84    1.89
   7  -5  -6   23.96    2.37
  -7   5  -6   28.77    2.30
   7  -5  -6   32.91    2.06
  -8   5   0   65.99    2.34
  -8  -5   0   66.44    2.52
   8  -5   0   67.53    2.42
  -8  -5   0   59.74    2.51
   8   5   0   65.18    2.47
  -8   5   0   63.93    2.72
  -8  -5  -1    4.08    0.75
   8  -5   1    6.48    0.77
  -8   5   1    5.86    0.95
  -8  -5  -1    6.16    0.87
   8   5  -1    5.86    0.90
  -8   5  -1    5.20    0.87
   8   5   1    7.36    0.83
  -8  -5   1    5.48    0.90
  -8   5  -1    7.40    0.87
  -8  -5   1    7.38    0.86
   8  -5  -1    6.36    0.86
  -8  -5  -2   38.65    2.00
  -8   5   2   42.44    2.05
  -8  -5  -2   39.30    1.95
   8   5  -2   42.21    2.08
  -8  -5   2   41.95    1.95
   8  -5  -2   41.98    2.01
  -8   5  -2   37.33    2.08
  -8  -5   2   41.31    1.98
  -8   5  -2   38.82    1.89
   8   5   2   39.83    1.62
  -8  -5  -3   11.00    1.19
  -8  -5  -3    9.17    1.15
   8   5  -3   10.17    1.27
  -8   5   3    8.09    1.08
  -8  -5   3   10.56    1.36
  -8   5  -3   10.57    1.18
  -8  -5   3    8.89    1.05
  -8  -5   3   10.34    1.20
  -8   5  -3   12.89    1.33
   8  -5  -3   11.15    1.25
  -8   5   4   37.11    2.09
  -8  -5  -4   33.18    2.08
  -8  -5  -4   40.63    1.96
   8   5  -4   38.53    2.20
  -8   5  -4   34.38    2.13
  -8  -5   4   33.41    2.18
  -8   5  -4   34.46    1.99
  -8  -5   4   36.87    2.08
   8  -5  -4   36.30    2.11
  -8  -5   4   37.25    1.86
  -8  -5  -5    3.66    1.36
  -8  -5  -5    4.00    0.80
  -8  -5  -5    5.96    1.17
   8   5  -5    5.14    1.15
  -8   5   5    5.64    1.09
  -8  -5   5    4.70    1.15
  -8   5  -5    6.21    1.10
   8  -5  -5    5.62    1.08
  -8  -5   5    5.93    1.09
  -8   5  -5    4.74    1.09
   9   5   0   46.99    2.16
  -9  -5   0   47.02    2.20
  -9   5   0   51.67    2.46
   9  -5   0   47.27    2.04
  -9   5   0   45.41    2.43
  -9  -5   0   49.36    2.31
  -9  -5  -1    1.25    0.65
  -9   5   1    2.22    0.74
   9   5  -1    3.18    0.85
  -9  -5  -1    2.48    0.73
   9  -5   1    1.67    0.55
  -9  -5   1    2.25    0.70
   9  -5  -1    2.32    0.62
  -9   5  -1    2.04    0.67
   9   5   1    1.25    0.65
  -9   5  -1    1.36    0.71
  -9  -5   1    1.34    0.58
  -9  -5  -2   52.88    2.48
  -9   5   2   52.75    2.60
   9   5  -2   53.18    2.54
  -9  -5  -2   49.72    2.38
  -9   5  -2   50.17    2.57
   9  -5  -2   54.55    2.43
  -9   5  -2   49.61    2.29
  -9  -5   2   53.27    2.39
  -9  -5  -3    2.22    0.83
  -9  -5  -3    2.24    0.74
   9   5  -3    3.24    0.94
  -9  -5   3    3.12    0.80
  -9   5  -3    2.36    0.78
   9  -5  -3    2.99    0.88
  -9  -5   3    3.07    0.89
  -9   5  -3    5.08    1.06
  -9   5   4   26.28    1.87
   9   5  -4   22.45    1.89
  -9  -5  -4   25.31    1.99
  -9  -5  -4   25.18    1.71
  -9   5  -4   24.94    1.99
  -9   5  -4   26.69    1.86
  -9  -5   4   26.76    1.71
  -9  -5   4   30.48    1.95
   9  -5  -4   22.93    1.84
  -9  -5  -5    1.14    0.90
  -9   5  -5    0.58    0.86
  -9   5  -5   -0.22    0.67
  10   5   0   34.74    1.93
 -10  -5   0   33.65    1.98
  10  -5   0   33.84    1.79
 -10  -5   0   34.48    2.02
 -10   5   1    1.08    0.77
  10   5  -1    2.47    0.85
 -10  -5  -1    1.53    0.71
  10  -5   1    2.78    0.77
 -10  -5  -1    1.87    0.77
  10   5   1    1.11    0.69
 -10   5  -1    2.00    0.88
 -10  -5   1    1.12    0.70
  10  -5  -1    0.87    0.62
 -10   5  -1    1.88    0.71
 -10  -5  -2   46.27    2.49
 -10  -5  -2   47.06    2.43
  10   5  -2   48.47    2.53
 -10   5   2   57.62    2.81
 -10   5  -2   48.85    2.68
  10  -5  -2   50.46    2.44
 -10   5  -2   46.04    2.34
 -10  -5   2   48.67    2.44
 -10  -5  -3    0.01    0.75
 -10  -5  -3    1.52    0.73
  10   5  -3    0.70    0.86
 -10   5   3    0.56    0.74
  10  -5  -3    0.00    0.63
 -10   5  -3    0.74    0.85
 -10  -5   3   -0.33    0.58
 -10   5  -3   -0.16    0.69
  11   5   0   21.33    1.63
 -11   5   0   17.82    1.89
 -11  -5   0   22.88    2.10
  11  -5   0   18.44    1.42
 -11  -5   0   18.70    1.73
 -11  -5  -1    0.36    0.67
 -11  -5  -1    1.23    0.80
 -11   5   1   -0.21    0.80
 -11   5  -1    1.54    0.95
 -11  -5   1    1.04    0.75
   0  -6   0    2.09    0.46
   0  -6   0    2.68    0.48
   0   6   0    2.23    0.45
   0   6   1    0.01    0.25
   0  -6   1   -0.32    0.27
   0  -6  -1   -0.20    0.24
   0  -6  -1   -0.16    0.25
   0   6  -1   -0.07    0.26
   0  -6   1   -0.57    0.27
   0  -6  -2   11.89    0.72
   0   6  -2   12.27    0.65
   0  -6  -2   12.08    0.73
   0   6   2   10.92    0.72
   0   6  -2   12.52    0.75
   0  -6   2   11.84    0.90
   0   6  -3   -0.01    0.30
   0  -6  -3   -0.07    0.31
   0  -6   3   -0.44    0.41
   0   6   3   -0.07    0.27
   0  -6  -3   -0.04    0.26
   0   6  -3    0.31    0.29
   0   6  -3    0.25    0.24
   0  -6   3   -0.13    0.29
   0   6  -4    7.66    0.84
   0  -6   4    6.61    0.89
   0   6   4    6.86    0.72
   0  -6  -4    6.33    0.87
   0  -6  -4    7.13    0.71
   0  -6   4    6.57    0.71
   0   6  -4    7.24    0.72
   0   6  -4    6.49    0.61
   0   6  -5   -0.18    0.25
   0   6  -5    0.10    0.51
   0  -6   5    0.46    0.58
   0   6   5   -0.53    0.30
   0  -6  -5   -0.41    0.48
   0  -6   5    0.14    0.43
   0   6   6   10.04    0.99
   0  -6   6   10.77    1.25
   0   6  -6   10.45    1.29
   0  -6  -6   11.49    1.42
   0  -6   6   10.61    0.95
   0  -6  -7   -0.46    0.72
   0   6  -7   -0.14    0.69
   0   6   7   -0.18    0.42
   0  -6   7   -0.26    0.50
   0   6  -8    7.08    1.43
   0  -6  -8    3.59    1.18
   0   6   8    4.45    0.82
   1  -6   0  598.35   14.29
   1  -6   0  606.35   14.28
   1   6   0  579.16   14.28
  -1  -6   0  605.38   14.29
  -1  -6   0  571.25   14.27
  -1   6   0  590.88   14.25
   1  -6   1    6.80    0.62
  -1  -6  -1    6.97    0.65
   1   6  -1    6.88    0.60
   1  -6   1    6.71    0.75
  -1  -6  -1    6.93    0.49
  -1  -6  -1    6.64    0.52
  -1   6   1    5.94    0.58
  -1   6  -1    6.84    0.60
   1   6   1    6.84    0.66
   1  -6  -1    6.72    0.57
  -1  -6   1    7.18    0.62
  -1  -6   1    9.01    0.84
   1  -6   2  421.90   10.46
   1   6  -2  406.11   10.17
  -1  -6  -2  404.83   10.15
   1  -6   2  414.16   10.08
   1   6  -2  405.71   10.02
  -1  -6  -2  413.85   10.17
  -1   6   2  402.68   10.17
  -1   6  -2  418.04   10.02
  -1  -6   2  406.06   10.39
   1  -6  -2  407.70   10.15
  -1  -6   2  426.89    9.96
  -1   6  -2  406.02    9.86
   1   6   2  406.57   10.16
  -1  -6   2  418.08   10.17
   1  -6  -2  420.45   10.12
  -1   6  -2  422.62   10.11
   1  -6   3    4.98    0.55
   1   6  -3    5.45    0.65
  -1  -6  -3    6.33    0.74
   1  -6   3    5.58    0.84
  -1  -6  -3    4.68    0.55
  -1   6   3    5.67    0.67
   1   6  -3    7.03    0.70
   1  -6  -3    4.66    0.59
  -1   6  -3    4.64    0.60
  -1   6  -3    5.69    0.46
  -1   6  -3    6.54    0.61
   1  -6  -3    4.94    0.66
  -1   6  -3    4.13    0.52
  -1  -6   3    5.06    0.75
  -1  -6   3    5.43    0.62
   1   6   3    4.88    0.56
  -1   6   4  262.73    6.90
   1  -6   4  242.72    7.15
  -1  -6  -4  265.85    6.74
   1   6  -4  256.10    6.84
   1   6  -4  261.20    6.57
  -1  -6  -4  263.44    7.18
   1  -6   4  265.81    6.65
   1   6  -4  273.83    7.09
  -1   6  -4  266.54    6.75
   1  -6  -4  263.23    6.86
  -1   6  -4  272.96    7.07
  -1   6  -4  249.67    6.57
   1  -6  -4  271.95    7.19
   1   6   4  256.59    6.73
  -1  -6   4  266.30    7.21
  -1  -6   4  261.08    6.82
  -1  -6  -5    7.06    0.77
   1  -6   5    6.22    0.98
   1   6  -5    7.88    0.99
   1  -6   5    6.42    0.67
   1   6  -5    6.95    0.62
  -1   6   5    7.04    0.83
  -1  -6  -5    7.29    1.04
   1  -6  -5    7.34    1.03
  -1   6  -5    6.65    0.94
  -1   6  -5    6.42    0.72
  -1  -6   5    5.28    0.72
   1   6   5    6.17    0.70
   1  -6  -5    5.27    0.72
  -1  -6   5    5.56    0.95
   1  -6   6  134.21    3.72
   1  -6   6  133.10    4.33
  -1  -6  -6  123.37    4.54
  -1   6   6  130.53    4.04
   1   6  -6  128.97    4.43
   1  -6  -6  127.60    4.55
  -1   6  -6  128.32    4.41
  -1  -6   6  130.42    4.33
  -1  -6   6  131.76    3.95
   1   6   6  123.93    3.79
  -1   6  -6  125.66    3.80
  -1  -6  -7   10.52    1.52
  -1   6   7   10.47    1.11
   1   6  -7   13.04    1.58
   1  -6   7   10.09    1.18
  -1  -6   7   11.95    1.17
  -1  -6   7   10.25    1.28
   1  -6  -7   10.53    1.57
   1   6   7   12.90    1.02
  -1   6  -7   12.36    1.55
  -1  -6  -8   83.82    4.02
  -1   6   8   84.00    3.16
   1   6  -8   85.95    3.91
  -1  -6   8   80.33    3.05
   1  -6  -8   80.64    4.01
  -1   6  -8   88.50    3.94
  -2  -6   0    8.72    0.67
  -2  -6   0    9.41    0.53
   2  -6   0    9.67    0.65
  -2  -6   0    9.27    0.66
   2   6   0    9.16    0.69
  -2  -6   0    8.76    0.66
  -2   6   0   10.50    0.67
   2   6  -1    0.37    0.33
   2  -6   1    0.36    0.32
  -2  -6  -1    0.32    0.27
  -2   6   1    0.74    0.32
  -2  -6  -1    0.12    0.27
  -2  -6  -1    0.35    0.26
  -2  -6  -1    0.44    0.26
  -2  -6  -1    0.45    0.32
  -2  -6   1    0.25    0.35
  -2  -6   1    0.61    0.29
   2   6   1    0.14    0.30
  -2  -6   1    0.55    0.31
  -2   6  -1    0.22    0.29
   2  -6  -1   -0.05    0.28
  -2  -6  -2   10.91    0.76
  -2  -6  -2    9.24    0.75
  -2  -6  -2   10.85    0.75
  -2   6   2   10.03    0.75
   2   6  -2   11.26    0.79
   2  -6   2    9.65    0.67
  -2  -6  -2   12.65    0.88
   2  -6   2    9.82    0.87
  -2   6  -2   10.80    0.71
   2   6   2   10.20    0.74
  -2  -6   2    9.58    0.73
  -2   6  -2   11.86    0.70
  -2   6  -2   11.29    0.67
   2  -6  -2   11.95    0.77
  -2  -6   2   10.06    0.62
  -2   6  -2    9.58    0.70
  -2  -6   2   10.40    0.88
   2  -6   3   -0.11    0.43
  -2   6   3    0.27    0.34
  -2  -6  -3   -0.04    0.33
  -2  -6  -3   -0.50    0.33
   2   6  -3    0.01    0.36
  -2  -6  -3    0.39    0.36
  -2  -6   3    0.41    0.46
  -2   6  -3   -0.05    0.24
   2  -6  -3   -0.01    0.31
   2   6   3   -0.14    0.33
   2  -6  -3    0.51    0.44
  -2   6  -3   -0.30    0.26
  -2  -6   3    0.33    0.25
  -2  -6   3    0.00    0.35
  -2   6  -3    0.59    0.28
  -2   6  -3    0.36    0.34
   2  -6   4    5.80    0.89
  -2  -6  -4    6.17    0.71
   2   6  -4    5.14    0.81
  -2   6   4    6.49    0.78
  -2  -6  -4    6.11    0.90
   2   6  -4    5.98    0.51
   2  -6   4    5.57    0.55
   2   6  -4    4.62    0.68
   2  -6  -4    5.59    0.86
   2   6   4    4.97    0.64
  -2   6  -4    4.81    0.73
  -2   6  -4    5.62    0.67
  -2   6  -4    5.69    0.62
   2  -6  -4    6.04    0.74
  -2  -6   4    6.86    0.79
  -2  -6   4    5.65    0.86
  -2   6   5    0.56    0.46
   2   6  -5   -0.19    0.52
  -2  -6  -5    0.75    0.41
   2  -6   5    0.55    0.63
   2   6  -5    1.13    0.49
  -2  -6  -5   -0.16    0.56
   2   6   5   -0.44    0.33
  -2   6  -5   -0.27    0.48
  -2   6  -5    0.58    0.44
  -2   6  -5    1.11    0.43
   2  -6  -5    0.98    0.61
  -2  -6   5    0.84    0.54
   2  -6  -5    0.29    0.42
  -2  -6   5    0.65    0.58
  -2  -6  -6    4.19    1.02
   2   6  -6    4.38    1.00
   2  -6   6    2.89    0.84
  -2   6   6    4.16    0.77
  -2   6  -6    3.05    0.88
   2   6   6    2.99    0.55
  -2  -6   6    5.30    0.86
  -2   6  -6    3.42    0.64
   2  -6  -6    4.90    1.04
  -2  -6   6    4.53    0.94
   2   6  -7    0.57    0.84
  -2  -6  -7   -0.18    0.81
  -2   6   7    1.08    0.62
  -2  -6   7    0.07    0.71
  -2   6  -7    0.93    0.83
  -2  -6   7    0.24    0.60
   2  -6  -7    0.25    0.82
  -2   6  -7    0.48    0.48
   2   6  -8    0.78    0.95
  -2  -6  -8    0.17    0.93
  -2   6   8    0.24    0.60
  -2   6  -8   -0.34    0.80
  -2  -6   8    0.72    0.67
   2  -6  -8    0.03    0.94
  -3  -6   0  414.71    9.92
   3   6   0  411.19   10.15
  -3   6   0  409.98   10.08
  -3  -6   0  422.25   10.17
  -3  -6   0  401.81   10.11
  -3  -6   0  410.60   10.12
   3  -6   0  402.35   10.06
  -3  -6  -1   99.74    2.88
   3   6  -1  101.40    3.02
   3  -6   1   95.14    2.84
  -3  -6  -1  104.17    2.85
  -3  -6  -1  102.85    2.98
  -3  -6  -1  104.14    3.04
  -3  -6  -1  104.63    2.91
  -3   6   1  101.07    2.98
   3   6   1  100.97    2.92
   3  -6  -1  101.26    2.96
  -3  -6   1  100.81    2.62
  -3  -6   1  100.49    2.89
  -3  -6   1  100.15    2.97
  -3  -6   1   99.97    3.06
  -3   6  -1  101.06    2.92
  -3   6  -1   97.32    2.84
   3   6  -2  277.53    7.37
   3  -6   2  287.82    7.14
  -3   6   2  286.95    7.38
  -3  -6  -2  282.81    7.19
  -3  -6  -2  284.24    7.33
  -3  -6  -2  289.30    7.32
  -3  -6  -2  293.12    7.49
  -3   6  -2  300.83    7.32
  -3  -6   2  287.50    7.16
  -3  -6   2  286.73    7.53
  -3  -6   2  278.47    7.33
   3   6   2  278.25    7.19
  -3   6  -2  289.26    7.24
  -3   6  -2  276.10    7.13
  -3   6  -2  282.87    7.26
   3  -6  -2  284.49    7.35
   3   6  -3   63.49    2.32
  -3   6   3   65.44    2.32
  -3  -6  -3   66.85    2.36
  -3  -6  -3   66.13    2.23
  -3  -6  -3   62.61    2.16
   3  -6   3   69.29    1.98
   3  -6   3   70.06    2.57
  -3  -6  -3   65.87    2.48
   3   6   3   64.24    2.12
   3  -6  -3   63.05    2.28
  -3  -6   3   63.75    1.99
  -3   6  -3   70.15    2.35
  -3  -6   3   66.54    2.32
  -3   6  -3   66.15    2.15
  -3   6  -3   64.84    2.21
  -3  -6   3   70.74    2.53
  -3   6   4  166.40    4.70
   3   6  -4  156.33    4.65
   3  -6   4  162.09    4.92
  -3  -6  -4  160.83    4.95
  -3  -6  -4  159.89    4.77
   3   6  -4  163.31    4.84
  -3  -6  -4  157.72    4.45
  -3   6  -4  160.11    4.77
   3  -6  -4  162.74    4.65
  -3   6  -4  158.12    4.46
  -3  -6   4  157.82    4.61
   3   6   4  150.81    4.30
  -3  -6   4  159.73    4.87
   3  -6  -4  157.57    4.86
  -3   6  -4  159.67    4.54
  -3  -6  -5   25.72    1.73
  -3  -6  -5   21.48    1.19
   3  -6   5   22.14    1.57
  -3   6   5   23.25    1.41
   3   6  -5   24.25    1.67
   3   6  -5   24.31    1.41
   3  -6  -5   22.25    1.36
  -3   6  -5   22.49    1.30
  -3  -6   5   23.40    1.42
  -3  -6   5   24.43    1.60
  -3   6  -5   24.22    1.30
  -3   6  -5   24.79    1.58
   3  -6  -5   25.10    1.71
  -3   6   6  114.84    3.85
   3  -6   6  105.66    3.94
  -3  -6  -6  117.55    4.38
   3   6  -6  118.24    4.27
  -3  -6   6  110.63    3.78
  -3   6  -6  112.43    3.65
   3  -6  -6  118.27    4.33
  -3  -6   6  110.42    4.01
  -3   6  -6  115.57    4.15
   3   6  -7   17.89    1.83
  -3   6   7   16.74    1.55
  -3  -6  -7   17.20    1.98
  -3   6  -7   20.54    1.40
  -3  -6   7   15.53    1.63
  -3  -6   7   18.10    1.49
   3  -6  -7   19.38    2.01
  -3   6  -7   17.66    1.85
   3   6  -8   47.47    2.99
  -3   6   8   47.90    2.45
  -3  -6  -8   46.66    3.10
   3  -6  -8   48.91    3.11
  -3   6  -8   45.38    2.85
  -3  -6   8   50.67    2.46
   4   6   0    3.72    0.54
   4  -6   0    4.15    0.53
  -4   6   0    3.69    0.54
  -4  -6   0    3.81    0.46
  -4  -6   0    4.99    0.64
  -4   6   0    4.02    0.50
  -4  -6   0    3.52    0.57
  -4  -6   0    3.98    0.53
  -4  -6  -1    3.32    0.48
  -4   6   1    3.57    0.56
  -4  -6  -1    3.31    0.51
  -4  -6  -1    4.13    0.59
  -4  -6  -1    3.62    0.51
   4   6  -1    3.75    0.61
   4  -6   1    4.01    0.50
  -4  -6   1    5.07    0.63
   4  -6  -1    4.19    0.59
  -4  -6   1    3.96    0.64
  -4   6  -1    3.95    0.49
   4   6   1    2.79    0.50
  -4  -6   1    4.39    0.61
  -4   6  -1    3.83    0.52
  -4  -6   1    3.42    0.39
  -4   6  -1    3.71    0.55
  -4  -6  -2    2.59    0.63
  -4  -6  -2    2.72    0.51
   4   6  -2    2.94    0.58
   4  -6   2    3.50    0.51
  -4  -6  -2    2.88    0.53
  -4   6   2    2.27    0.51
  -4  -6   2    3.46    0.62
  -4  -6   2    2.38    0.31
  -4   6  -2    2.73    0.49
  -4  -6   2    2.72    0.48
  -4   6  -2    2.93    0.52
   4  -6  -2    2.71    0.53
   4   6   2    2.40    0.47
  -4  -6   2    3.44    0.65
  -4   6  -2    1.60    0.49
  -4   6  -2    3.76    0.57
  -4  -6  -3    0.01    0.35
   4   6  -3    0.31    0.46
  -4   6   3   -0.23    0.36
  -4  -6  -3   -0.21    0.40
  -4  -6  -3    0.29    0.51
   4  -6  -3   -0.05    0.37
  -4   6  -3   -0.22    0.30
  -4  -6   3    0.07    0.42
  -4  -6   3    0.38    0.44
  -4   6  -3   -0.10    0.32
  -4   6  -3    0.90    0.47
  -4  -6   3    0.11    0.31
   4   6   3    0.05    0.33
  -4  -6  -4    8.02    0.96
   4   6  -4    8.17    1.00
  -4  -6  -4    8.02    1.08
   4  -6   4    7.70    1.09
  -4   6   4    6.98    0.88
  -4  -6  -4    8.11    0.80
  -4   6  -4    5.84    0.79
  -4   6  -4    6.82    0.93
  -4  -6   4    7.10    0.91
   4  -6  -4    5.54    0.80
  -4   6  -4    7.17    0.80
  -4  -6   4    7.52    1.03
  -4  -6  -5    0.03    0.65
  -4   6   5    0.79    0.51
   4   6  -5    0.37    0.67
  -4  -6  -5    0.42    0.41
   4  -6   5    0.81    0.61
   4   6  -5    0.36    0.48
  -4  -6  -5   -0.44    0.56
  -4   6  -5    1.25    0.64
  -4   6  -5    0.65    0.47
  -4   6  -5    0.89    0.49
   4  -6  -5    1.93    0.78
  -4  -6   5   -0.16    0.55
   4  -6  -5    0.85    0.52
  -4  -6   5    0.20    0.58
  -4  -6  -6    4.31    1.06
   4   6  -6    4.13    0.83
   4   6  -6    4.31    1.13
  -4   6   6    4.12    0.85
  -4   6  -6    3.53    0.79
   4  -6  -6    3.72    0.78
  -4   6  -6    5.30    1.07
  -4   6  -6    5.54    0.87
   4  -6  -6    4.92    1.13
  -4  -6   6    4.59    0.97
  -4  -6   6    3.61    0.87
  -4   6   7    0.00    0.59
   4   6  -7    2.17    1.06
  -4  -6  -7    0.62    0.90
   4  -6  -7    2.18    1.11
  -4  -6   7    0.80    0.75
  -4   6  -7    0.43    0.61
  -4   6  -7    1.22    0.86
  -4  -6   7    0.50    0.71
  -5   6   0   86.52    2.66
  -5  -6   0   86.94    2.88
  -5  -6   0   89.02    2.68
  -5   6   0   90.87    2.77
  -5  -6   0   89.22    2.84
  -5  -6   0   89.00    2.75
   5  -6   0   91.77    2.77
   5   6   0   89.23    2.82
  -5   6   1  119.86    3.35
   5  -6   1  120.84    3.41
  -5  -6  -1  121.33    3.43
  -5  -6  -1  124.02    3.55
  -5   6   1  121.12    3.60
   5   6  -1  118.99    3.65
  -5  -6  -1  122.47    3.56
  -5  -6  -1  121.36    3.63
  -5   6  -1  119.78    3.41
   5   6   1  118.14    3.47
  -5  -6   1  118.06    3.58
  -5  -6   1  117.41    3.32
  -5  -6   1  120.87    3.56
  -5  -6   1  118.68    3.74
  -5   6  -1  121.44    3.68
   5  -6  -1  120.77    3.58
  -5   6  -1  124.71    3.52
  -5   6   2  123.25    3.77
   5  -6   2  124.08    3.46
  -5  -6  -2  123.79    3.73
   5   6  -2  129.19    3.86
  -5   6   2  123.59    3.36
  -5  -6  -2  123.13    3.74
  -5   6  -2  121.92    3.67
  -5  -6   2  127.62    3.98
  -5  -6   2  123.22    3.63
  -5  -6   2  121.48    3.76
  -5   6  -2  128.01    3.80
   5   6   2  121.64    3.47
   5  -6  -2  122.64    3.76
  -5   6   3  107.71    3.45
  -5  -6  -3  107.62    3.47
  -5  -6  -3  106.61    3.73
   5   6  -3  104.97    3.48
  -5  -6  -3  106.70    3.32
   5  -6  -3  106.14    3.44
  -5  -6   3  102.98    3.16
   5   6   3  100.95    2.96
  -5  -6   3  103.62    3.40
  -5  -6   3  101.96    3.59
  -5   6  -3  106.81    3.39
  -5   6  -3  111.18    3.60
  -5   6  -3  103.46    3.32
  -5  -6  -4   82.50    2.80
   5  -6   4   87.40    3.24
  -5  -6  -4   87.73    3.40
   5   6  -4   80.09    3.02
  -5  -6  -4   82.55    3.07
  -5   6   4   83.90    3.02
  -5  -6   4   84.30    3.21
  -5   6  -4   84.01    3.16
  -5   6  -4   86.94    2.95
  -5  -6   4   80.49    2.61
  -5   6  -4   81.19    2.93
   5  -6  -4   75.02    2.91
  -5  -6   4   85.03    3.03
   5   6  -5   74.70    3.01
  -5   6   5   81.90    3.07
  -5  -6  -5   75.90    2.69
  -5  -6  -5   80.56    3.48
   5  -6   5   83.50    3.32
  -5  -6  -5   78.18    3.13
   5  -6  -5   78.03    3.34
  -5  -6   5   77.60    3.22
  -5   6  -5   82.94    2.98
   5  -6  -5   77.06    3.00
  -5  -6   5   81.50    3.07
  -5   6  -5   76.41    2.90
  -5   6  -5   81.17    3.29
   5   6  -6   42.17    2.24
   5   6  -6   49.62    2.82
  -5  -6  -6   46.65    2.77
  -5  -6  -6   45.52    2.50
  -5   6   6   45.61    2.29
  -5  -6   6   44.37    2.44
  -5   6  -6   46.62    2.27
  -5   6  -6   42.88    2.15
  -5  -6   6   47.11    2.33
  -5   6  -6   48.08    2.61
   5  -6  -6   45.84    2.70
   5  -6  -6   42.26    2.20
   5   6  -7   48.05    3.05
  -5  -6  -7   46.49    3.00
  -5   6   7   51.40    2.56
   5  -6  -7   47.94    3.01
  -5   6  -7   50.09    2.88
  -5  -6   7   45.20    2.60
  -5   6  -7   45.49    2.34
  -5  -6   7   46.10    2.47
  -6  -6   0   -0.30    0.31
  -6  -6   0    0.50    0.47
   6   6   0   -0.01    0.45
  -6  -6   0    0.39    0.38
   6  -6   0    0.30    0.37
  -6   6   0   -0.34    0.32
  -6   6   0    0.16    0.41
  -6   6   0    0.03    0.38
  -6  -6   0    0.20    0.35
  -6   6   1    0.26    0.32
  -6  -6  -1   -0.13    0.35
  -6  -6  -1   -0.05    0.37
   6   6  -1   -0.14    0.47
  -6   6   1   -0.28    0.35
   6  -6   1   -0.08    0.30
   6  -6  -1    0.23    0.38
   6   6   1   -0.01    0.44
  -6   6  -1    0.31    0.46
  -6  -6   1    0.41    0.50
  -6  -6   1   -0.03    0.29
  -6   6  -1    0.17    0.39
  -6  -6   1    0.44    0.38
  -6  -6   1    0.14    0.39
   6  -6   2    2.19    0.45
  -6  -6  -2    2.14    0.60
  -6   6   2    1.25    0.52
   6   6  -2    2.74    0.66
  -6  -6  -2    1.74    0.54
  -6   6   2    2.52    0.57
   6  -6  -2    1.62    0.51
  -6   6  -2    1.35    0.50
  -6   6  -2    2.67    0.62
   6   6   2    2.23    0.52
  -6  -6   2    2.72    0.60
  -6  -6   2    2.32    0.70
  -6  -6   2    4.03    0.70
  -6  -6  -3    0.60    0.45
  -6  -6  -3    1.95    0.80
   6   6  -3    1.34    0.64
  -6   6   3    0.77    0.50
  -6  -6  -3    0.82    0.50
   6  -6  -3    0.52    0.52
  -6   6  -3    1.48    0.56
  -6  -6   3    1.96    0.64
  -6  -6   3    0.38    0.43
  -6   6  -3    0.65    0.48
  -6  -6   3    0.50    0.58
   6   6  -4    2.99    0.79
  -6  -6  -4    2.81    0.64
  -6  -6  -4    2.17    0.71
  -6   6   4    2.38    0.67
  -6  -6  -4    2.91    0.92
  -6  -6   4    1.72    0.73
  -6  -6   4    2.41    0.56
  -6  -6   4    4.07    0.87
  -6   6  -4    4.11    0.74
   6  -6  -4    2.38    0.72
  -6   6  -4    4.18    0.80
  -6   6  -4    2.69    0.82
   6  -6   5    1.09    0.81
  -6  -6  -5    0.06    0.39
   6   6  -5   -0.33    0.54
  -6  -6  -5    0.92    0.79
  -6  -6  -5   -0.13    0.59
  -6   6   5    0.64    0.57
  -6   6  -5    0.54    0.55
  -6  -6   5    1.08    0.76
  -6   6  -5   -1.03    0.56
  -6  -6   5    0.22    0.68
   6  -6  -5    0.32    0.54
  -6   6  -5    0.45    0.59
  -6   6   6    0.18    0.58
   6   6  -6    1.94    0.77
   6   6  -6    0.36    0.94
  -6  -6  -6    1.57    0.87
  -6  -6  -6    0.87    0.90
  -6   6  -6   -0.01    0.60
  -6   6  -6    0.35    0.75
   6  -6  -6   -0.26    0.56
  -6  -6   6   -0.63    0.65
  -6   6  -6    0.62    0.69
   6  -6  -6   -0.24    0.85
  -6  -6   6    0.74    0.74
  -6   6   7   -0.21    0.65
   6   6  -7   -1.28    0.94
  -6  -6  -7    0.84    1.08
  -6  -6   7   -0.53    0.73
  -6   6  -7    0.01    0.66
   6  -6  -7   -0.02    0.98
  -6  -6   7    0.07    0.77
  -6   6  -7    1.08    0.96
  -7   6   0   36.79    1.57
  -7  -6   0   37.74    1.66
  -7   6   0   36.17    1.88
   7  -6   0   34.84    1.59
   7   6   0   37.74    1.74
  -7  -6   0   35.39    1.71
  -7   6   1  154.24    4.50
  -7   6   1  152.69    4.20
   7   6  -1  150.17    4.57
  -7  -6  -1  144.56    4.53
   7  -6   1  149.17    4.25
  -7  -6  -1  146.48    4.47
   7   6   1  151.36    4.34
  -7  -6   1  145.67    4.44
  -7   6  -1  148.66    4.70
  -7  -6   1  149.87    4.29
   7  -6  -1  153.08    4.51
  -7  -6   1  154.87    4.77
  -7  -6   1  150.79    4.54
  -7   6  -1  150.63    4.39
  -7  -6  -2   40.07    1.87
  -7  -6  -2   39.30    1.91
   7   6  -2   37.99    1.94
  -7   6   2   41.33    1.89
   7  -6   2   39.47    1.54
   7  -6  -2   41.04    1.89
  -7   6  -2   39.18    1.82
  -7  -6   2   38.43    1.80
  -7   6  -2   40.49    2.00
  -7  -6   2   37.35    2.02
  -7  -6   2   40.31    1.90
   7   6   2   38.79    1.59
   7   6  -3   84.19    3.27
  -7  -6  -3   87.14    3.11
  -7  -6  -3   87.57    3.26
  -7   6   3   88.85    3.24
  -7   6  -3   88.48    3.16
  -7  -6   3   93.54    3.51
   7  -6  -3   91.63    3.28
  -7  -6   3   85.83    3.04
  -7   6  -3   92.48    3.34
  -7  -6   3   92.03    3.30
  -7   6   4   23.49    1.61
  -7  -6  -4   21.35    1.41
  -7  -6  -4   20.97    1.62
  -7  -6  -4   25.06    2.07
   7   6  -4   25.97    1.73
  -7   6  -4   19.47    1.47
  -7  -6   4   21.67    1.61
  -7   6  -4   21.29    1.63
  -7  -6   4   23.31    1.74
  -7  -6   4   24.08    1.39
   7  -6  -4   22.07    1.58
  -7  -6  -5   81.40    3.76
  -7  -6  -5   73.03    2.77
  -7   6   5   73.68    3.11
   7   6  -5   71.68    3.14
   7  -6   5   73.02    3.30
  -7  -6  -5   74.73    3.24
  -7  -6   5   69.11    3.23
  -7   6  -5   75.31    3.45
   7  -6  -5   74.50    3.12
  -7   6  -5   71.83    3.00
  -7   6  -5   68.87    3.06
  -7  -6   5   73.33    3.12
   7   6  -6   14.06    1.92
  -7  -6  -6   11.40    1.56
   7   6  -6   11.18    1.45
  -7   6   6   13.16    1.56
  -7  -6  -6   13.22    1.92
   7  -6  -6   13.38    1.54
  -7   6  -6   15.92    1.68
  -7  -6   6   11.55    1.54
  -7   6  -6   14.68    1.49
  -7   6  -6   11.22    1.66
   7  -6  -6   11.94    1.79
  -7  -6   6   12.23    1.63
  -8  -6   0   -0.21    0.42
  -8  -6   0    0.37    0.48
  -8   6   0    0.25    0.44
   8  -6   0   -0.42    0.38
  -8   6   0    0.45    0.53
   8   6   0    0.02    0.57
  -8  -6  -1    2.54    0.68
  -8  -6  -1    2.06    0.66
   8   6  -1    2.34    0.71
  -8   6   1    1.62    0.68
   8  -6   1    2.38    0.55
  -8  -6   1    1.50    0.55
  -8  -6   1    1.56    0.57
   8  -6  -1    4.30    0.77
  -8   6  -1    1.57    0.57
  -8   6  -1    2.01    0.73
   8   6   1    1.30    0.59
  -8  -6  -2    1.75    0.63
   8  -6   2    2.36    0.61
   8   6  -2    1.86    0.72
  -8  -6  -2    1.93    0.66
  -8  -6   2    1.33    0.62
  -8  -6   2    1.98    0.78
  -8   6  -2    2.18    0.73
   8   6   2    2.38    0.58
   8  -6  -2    2.09    0.67
  -8  -6   2    2.09    0.64
  -8   6  -2    1.35    0.60
   8   6  -3    0.38    0.70
  -8   6   3   -0.01    0.54
  -8  -6  -3    1.10    0.66
  -8  -6  -3    1.24    0.53
  -8   6  -3    1.64    0.74
  -8  -6   3    0.03    0.62
  -8   6  -3    1.57    0.67
  -8  -6   3    0.28    0.59
  -8  -6   3    0.44    0.51
   8  -6  -3    0.57    0.60
  -8  -6  -4    1.72    0.78
   8   6  -4    2.62    0.91
  -8  -6  -4    1.17    0.61
  -8   6   4    1.48    0.73
  -8  -6   4    1.80    0.84
  -8  -6   4    2.12    0.79
   8  -6  -4    2.06    0.78
  -8   6  -4    2.50    0.82
  -8  -6   4    1.44    0.63
  -8   6  -4    1.69    0.80
   8   6  -5    0.38    0.78
  -8  -6  -5    0.11    0.72
  -8   6   5   -0.06    0.62
  -8  -6  -5   -0.03    0.50
   8  -6  -5    1.00    0.74
  -8  -6   5    1.15    0.92
  -8  -6   5    0.11    0.72
  -8   6  -5    0.74    0.83
  -8   6  -5    0.09    0.69
  -9   6   0    0.63    0.66
  -9  -6   0    0.48    0.51
   9   6   0    1.40    0.70
   9  -6   0    0.90    0.54
  -9   6   0    1.90    0.73
  -9  -6   0    0.83    0.61
  -9   6   1   78.79    3.28
   9  -6   1   75.59    2.69
  -9  -6  -1   76.39    3.02
  -9  -6  -1   81.28    3.12
   9   6  -1   79.52    3.07
   9   6   1   75.43    2.78
  -9  -6   1   76.41    3.05
   9  -6  -1   76.55    2.93
  -9   6  -1   80.83    3.30
  -9   6  -1   77.27    2.88
  -9  -6  -2    0.63    0.58
  -9   6   2   -0.16    0.61
  -9  -6  -2    0.49    0.65
   9   6  -2    0.65    0.77
   9  -6  -2   -0.26    0.49
  -9   6  -2    0.91    0.72
  -9   6  -2    0.03    0.62
  -9  -6   2    0.92    0.60
  -9  -6  -3   91.53    3.61
   9   6  -3   91.92    3.66
  -9  -6  -3   89.35    3.41
  -9   6  -3   86.76    3.39
   9  -6  -3   93.13    3.55
  -9   6  -3   94.84    3.77
  -9  -6   3   90.13    4.12
  -9  -6   3   82.69    3.31
  -9  -6  -4    2.93    0.79
  -9  -6  -4    4.15    1.05
  -9   6   4    3.11    0.88
   9   6  -4    3.28    0.97
  -9  -6   4    4.30    1.04
  -9  -6   4    1.88    0.77
   9  -6  -4    4.45    1.02
  -9   6  -4    3.63    1.06
  -9   6  -4    2.64    0.90
  10   6   0    0.86    0.75
 -10  -6   0    0.13    0.62
  10  -6   0    0.49    0.55
 -10   6   0   -0.02    0.72
 -10  -6   0    0.47    0.64
 -10  -6  -1    0.86    0.71
 -10   6   1    0.08    0.75
  10   6  -1    3.17    0.94
  10  -6   1    0.45    0.62
 -10  -6  -1    0.80    0.69
 -10  -6   1    0.23    0.56
 -10   6  -1   -0.08    0.57
  10   6   1    1.59    0.73
 -10   6  -1    1.39    0.82
  10  -6  -1    1.36    0.69
 -10   6   2    1.53    0.89
 -10  -6  -2   -0.56    0.63
  10   6  -2    1.19    0.87
 -10  -6  -2   -0.13    0.58
  10  -6  -2    0.53    0.61
 -10  -6   2    0.48    0.64
 -10   6  -2   -0.22    0.73
 -10   6  -2   -0.58    0.61
  10   6  -3    0.68    0.83
 -10   6   3   -0.42    0.75
 -10  -6  -3    0.19    0.65
 -10  -6  -3    0.09    0.74
  10  -6  -3    0.96    0.70
 -10   6  -3    0.26    0.71
 -10  -6   3    0.49    0.66
 -10   6  -3    1.39    0.94
   0  -7   0   -0.04    0.29
   0   7   0    0.36    0.32
   0  -7   0    0.23    0.31
   0   7   1   80.91    2.54
   0  -7   1   90.07    2.72
   0  -7   1   81.37    2.54
   0  -7  -1   83.99    2.46
   0   7  -1   79.98    2.52
   0  -7  -1   80.41    2.54
   0  -7   2    0.29    0.32
   0   7  -2   -0.18    0.20
   0  -7   2   -0.45    0.30
   0  -7  -2   -0.11    0.26
   0  -7  -2   -0.22    0.28
   0   7   2   -0.16    0.26
   0   7  -2   -0.18    0.28
   0  -7  -2    0.21    0.30
   0   7  -3  115.42    3.33
   0  -7   3  105.08    3.65
   0   7  -3  116.10    3.30
   0  -7  -3  121.75    3.47
   0   7   3  114.60    3.36
   0  -7  -3  114.93    3.35
   0  -7   3  116.96    3.33
   0   7   4    0.27    0.37
   0  -7   4   -0.11    0.40
   0  -7  -4    0.02    0.33
   0   7  -4   -0.75    0.35
   0   7  -4   -0.01    0.30
   0  -7  -4   -0.36    0.40
   0  -7   4   -0.66    0.48
   0   7  -4   -0.04    0.26
   0   7   5   83.78    2.80
   0   7  -5   83.43    2.63
   0  -7   5   86.15    2.73
   0   7  -5   83.23    3.04
   0  -7   5   82.44    3.18
   0  -7  -5   85.97    3.21
   0  -7   6    0.97    0.74
   0  -7  -6    0.18    0.63
   0  -7   6   -0.29    0.48
   0   7   6    0.59    0.45
   0   7  -6   -0.53    0.56
   0  -7   7   36.30    2.23
   0   7   7   35.73    1.79
   0   7  -7   40.20    2.34
   0  -7   7   38.11    1.77
   0  -7  -7   39.06    2.47
   0   7  -8   -0.09    0.84
   0  -7  -8   -0.31    0.84
   0   7   8    0.38    0.56
  -1   7   0    0.67    0.33
   1  -7   0    0.51    0.33
  -1  -7   0    1.47    0.41
   1  -7   0    1.43    0.40
  -1  -7   0    0.99    0.37
   1   7   0    1.11    0.39
  -1  -7  -1  253.67    6.60
   1  -7   1  274.61    6.76
  -1  -7  -1  268.97    6.79
   1   7  -1  259.37    6.75
  -1  -7  -1  264.43    6.47
   1  -7   1  267.78    6.97
  -1   7   1  255.27    6.70
  -1  -7   1  264.65    6.76
  -1  -7   1  261.04    6.89
  -1   7  -1  258.39    6.72
   1   7   1  271.75    6.81
   1  -7  -1  258.09    6.72
  -1  -7  -2   12.17    0.86
   1   7  -2   12.53    0.86
   1  -7   2   10.89    0.94
  -1  -7  -2   12.91    0.80
   1  -7   2   12.97    0.82
  -1   7   2   12.32    0.82
   1   7  -2   12.05    0.69
   1  -7  -2   12.33    0.75
  -1   7  -2   13.25    0.62
   1   7   2   12.80    0.86
   1  -7  -2   12.94    0.82
  -1   7  -2   11.10    0.77
  -1  -7   2   13.55    0.88
  -1  -7   2   11.07    0.94
  -1   7  -2   12.99    0.66
  -1  -7   2   11.80    0.71
   1   7  -3  146.05    4.01
   1  -7   3  143.98    4.38
   1  -7   3  146.69    3.95
  -1  -7  -3  142.67    4.15
   1   7  -3  143.44    4.06
  -1  -7  -3  142.91    4.02
  -1   7   3  139.30    4.07
  -1  -7   3  144.50    4.38
   1  -7  -3  139.39    4.04
   1  -7  -3  147.34    4.13
  -1   7  -3  137.32    3.68
  -1   7  -3  145.49    3.95
  -1   7  -3  143.68    3.96
  -1  -7   3  145.91    4.06
   1   7   3  141.84    4.01
  -1   7  -3  144.07    3.99
   1   7  -4    1.99    0.51
   1  -7   4    3.10    0.53
  -1  -7  -4    2.91    0.53
  -1   7   4    2.50    0.57
  -1  -7  -4    2.96    0.69
   1  -7   4    1.67    0.71
   1   7  -4    3.44    0.48
   1   7  -4    3.39    0.65
  -1  -7   4    2.41    0.71
  -1   7  -4    3.12    0.64
   1  -7  -4    2.94    0.55
  -1  -7   4    1.68    0.55
   1   7   4    3.23    0.57
   1  -7  -4    2.78    0.65
  -1   7  -4    3.39    0.53
   1  -7   5   69.12    2.34
   1   7  -5   72.07    2.27
   1  -7   5   68.79    2.89
   1   7  -5   77.46    2.84
  -1   7   5   71.64    2.60
  -1  -7  -5   74.35    2.95
   1  -7  -5   73.90    2.92
   1  -7  -5   74.54    2.58
  -1  -7   5   74.63    2.95
  -1  -7   5   72.82    2.54
  -1   7  -5   78.47    2.84
   1   7   5   70.50    2.46
  -1   7  -5   76.35    2.47
   1   7  -6   -0.24    0.59
  -1   7   6    0.42    0.48
   1  -7   6    0.81    0.49
   1  -7   6    0.37    0.70
  -1  -7  -6    0.67    0.74
   1   7   6   -0.16    0.39
  -1   7  -6    0.63    0.65
  -1  -7   6   -0.16    0.55
  -1  -7   6    0.08    0.70
  -1   7  -6    0.68    0.42
   1  -7  -6   -0.13    0.61
   1  -7   7   56.75    2.40
  -1   7   7   54.46    2.36
   1   7  -7   56.28    2.82
  -1  -7  -7   56.12    3.02
  -1  -7   7   54.76    2.29
  -1   7  -7   54.02    2.78
   1   7   7   47.77    2.11
  -1  -7   7   52.54    2.65
   1  -7  -7   62.00    3.10
  -1   7   8    0.93    0.63
   1   7  -8    1.87    1.07
  -1  -7  -8    2.03    1.03
  -1   7  -8    1.82    0.95
   1  -7  -8    0.87    1.03
  -1  -7   8    1.48    0.69
  -2  -7   0    4.40    0.57
  -2  -7   0    3.78    0.53
  -2   7   0    4.61    0.56
   2  -7   0    4.28    0.53
   2   7   0    4.23    0.56
  -2  -7   0    5.61    0.63
  -2  -7  -1  173.00    4.65
  -2  -7  -1  161.87    4.60
  -2  -7  -1  173.32    4.48
  -2  -7  -1  173.65    4.47
   2   7  -1  170.75    4.66
   2  -7   1  170.54    4.61
   2  -7   1  168.11    4.74
  -2   7   1  171.46    4.61
   2   7   1  160.49    4.61
  -2  -7   1  176.23    4.53
   2  -7  -1  171.03    4.60
  -2  -7   1  177.30    4.77
  -2   7  -1  169.40    4.61
   2   7  -2   25.93    1.26
  -2  -7  -2   27.40    1.27
  -2  -7  -2   26.59    1.21
   2  -7   2   27.29    1.17
   2  -7   2   26.38    1.41
  -2  -7  -2   27.01    1.22
  -2   7   2   28.48    1.28
  -2  -7   2   25.74    1.23
   2  -7  -2   26.11    1.14
  -2   7  -2   25.78    1.04
   2   7   2   24.61    1.21
   2  -7  -2   24.76    1.19
  -2   7  -2   24.02    1.13
  -2  -7   2   26.06    1.39
  -2   7  -2   25.49    1.06
  -2  -7   2   25.88    1.08
  -2  -7  -3  115.06    3.57
  -2  -7  -3  124.00    3.48
   2   7  -3  113.16    3.50
   2   7  -3  118.29    3.47
  -2   7   3  115.08    3.53
  -2  -7  -3  117.84    3.48
   2  -7   3  118.08    3.80
  -2   7  -3  114.79    3.22
   2  -7  -3  111.59    3.47
  -2   7  -3  114.09    3.39
   2  -7  -3  116.38    3.51
  -2  -7   3  124.22    3.81
  -2   7  -3  118.56    3.28
   2   7   3  120.01    3.48
  -2  -7   3  114.17    3.47
  -2   7  -3  117.78    3.41
  -2  -7   3  111.54    3.13
   2  -7   4   11.65    1.23
   2   7  -4   12.15    1.09
  -2   7   4   13.08    1.02
  -2  -7  -4   13.14    1.23
   2   7  -4   11.66    0.70
  -2  -7  -4   12.41    0.96
   2  -7   4   12.39    0.83
   2   7  -4   13.09    1.01
   2  -7  -4   14.00    1.16
   2  -7  -4   12.52    0.96
  -2   7  -4   11.84    0.89
   2   7   4   13.23    0.96
  -2   7  -4   13.35    0.83
  -2  -7   4   12.09    1.02
  -2  -7   4   13.52    1.33
  -2   7  -4   11.98    0.99
   2   7  -5   68.97    2.70
   2   7  -5   67.52    2.47
  -2  -7  -5   65.14    2.32
   2  -7   5   63.79    2.08
  -2   7   5   61.67    2.47
  -2  -7  -5   61.38    2.74
   2  -7   5   63.62    2.77
  -2   7  -5   70.34    2.68
  -2  -7   5   69.06    2.82
  -2  -7   5   64.71    2.44
   2  -7  -5   68.01    2.48
   2   7   5   65.06    2.32
  -2   7  -5   67.69    2.37
   2  -7  -5   66.15    2.77
  -2   7   6    7.89    1.05
  -2  -7  -6    7.74    1.28
   2  -7   6    7.87    1.22
   2   7  -6    8.11    1.19
  -2   7  -6    9.20    0.97
   2  -7  -6    9.42    1.33
  -2   7  -6    8.72    1.19
  -2  -7   6    7.96    1.19
   2   7   6    7.86    0.88
  -2  -7   6    7.48    1.00
  -2   7   7   25.78    1.64
   2   7  -7   26.13    1.98
  -2  -7  -7   24.29    2.09
  -2  -7   7   22.00    1.83
  -2   7  -7   24.30    1.48
  -2   7  -7   27.95    1.99
   2  -7  -7   30.04    2.22
  -2  -7   7   23.98    1.61
  -2   7   8    1.09    0.73
   2   7  -8    1.30    0.98
  -2  -7  -8    0.86    0.98
  -2   7  -8   -0.13    0.79
  -2  -7   8    0.96    0.71
   2  -7  -8    1.55    1.12
  -3   7   0   27.36    1.19
  -3  -7   0   26.83    1.04
  -3  -7   0   27.56    1.23
  -3  -7   0   27.86    1.25
   3   7   0   26.75    1.26
   3  -7   0   26.41    1.19
  -3  -7  -1  138.37    3.81
   3   7  -1  130.04    3.82
  -3  -7  -1  134.04    3.64
  -3  -7  -1  127.45    3.63
  -3   7   1  132.60    3.79
  -3  -7  -1  135.36    3.74
   3  -7   1  133.41    3.71
  -3   7  -1  131.47    3.69
  -3  -7   1  129.07    3.79
   3  -7  -1  132.29    3.76
   3   7   1  130.86    3.74
  -3  -7   1  132.77    3.71
  -3  -7   1  134.67    3.91
  -3  -7  -2   44.60    1.74
  -3  -7  -2   42.94    1.67
  -3   7   2   46.84    1.81
   3   7  -2   45.16    1.81
  -3  -7  -2   44.39    1.81
   3  -7   2   45.67    1.64
  -3  -7  -2   46.07    1.76
  -3  -7   2   41.74    1.76
  -3  -7   2   45.81    1.61
   3  -7  -2   46.57    1.77
   3   7   2   40.61    1.65
  -3   7  -2   46.88    1.72
  -3   7  -2   47.03    1.65
  -3   7  -2   47.26    1.65
  -3  -7   2   48.13    1.96
  -3   7  -2   44.18    1.63
   3  -7   3   89.07    3.25
  -3  -7  -3   92.68    2.96
   3   7  -3   92.15    3.06
  -3  -7  -3   95.15    3.09
  -3  -7  -3   93.16    3.15
   3  -7   3   93.45    2.71
  -3   7   3   98.34    3.08
  -3   7  -3   91.52    2.91
   3  -7  -3   91.81    3.02
   3  -7  -3   95.43    3.08
  -3  -7   3   95.30    2.72
  -3  -7   3   95.91    3.27
  -3  -7   3   94.00    3.04
  -3   7  -3   93.78    2.83
   3   7   3   89.10    2.85
  -3   7  -3  100.98    3.01
   3   7  -4   25.07    1.43
  -3  -7  -4   26.35    1.33
   3  -7   4   25.28    1.64
   3   7  -4   26.19    1.55
  -3   7   4   27.71    1.47
  -3  -7  -4   26.94    1.64
   3   7   4   23.18    1.20
  -3   7  -4   25.27    1.44
  -3  -7   4   25.29    1.44
   3  -7  -4   25.48    1.56
  -3   7  -4   24.43    1.31
  -3   7  -4   24.62    1.24
   3  -7  -4   25.78    1.40
  -3  -7   4   26.76    1.66
   3   7  -5   58.39    2.37
   3  -7   5   60.18    2.64
  -3  -7  -5   60.05    2.19
  -3  -7  -5   56.79    2.64
  -3   7   5   59.03    2.40
   3   7  -5   59.10    2.56
  -3   7  -5   60.26    2.51
   3   7   5   58.74    2.10
   3  -7  -5   58.53    2.35
  -3   7  -5   55.20    2.14
   3  -7  -5   57.76    2.62
  -3   7  -5   57.20    2.23
  -3  -7   5   54.47    2.30
  -3  -7   5   54.99    2.57
   3   7  -6   21.94    1.76
  -3   7   6   26.03    1.60
   3  -7   6   18.63    1.65
  -3  -7  -6   18.80    1.85
   3  -7  -6   24.05    1.90
  -3   7  -6   22.11    1.40
  -3  -7   6   25.90    1.61
  -3  -7   6   19.63    1.65
  -3   7  -6   21.86    1.68
  -3  -7  -7   34.40    2.44
  -3   7   7   31.15    1.90
   3   7  -7   28.81    2.18
  -3  -7   7   31.19    2.12
  -3   7  -7   30.24    2.14
  -3   7  -7   27.92    1.69
   3  -7  -7   30.59    2.32
  -3  -7   7   30.30    1.87
  -3   7   8   13.82    1.54
  -3  -7  -8   14.91    2.06
   3   7  -8   14.12    1.80
   3  -7  -8   15.68    2.01
  -3   7  -8   12.88    1.72
  -3  -7   8   16.40    1.55
  -4   7   0   41.76    1.62
  -4  -7   0   44.26    1.66
  -4  -7   0   42.68    1.67
   4  -7   0   42.94    1.62
  -4  -7   0   41.43    1.69
  -4  -7   0   43.09    1.50
   4   7   0   41.00    1.70
  -4  -7  -1   51.72    1.83
  -4  -7  -1   52.72    1.84
   4  -7   1   51.49    1.81
  -4   7   1   51.56    1.93
  -4  -7  -1   53.82    1.85
   4   7  -1   49.21    1.96
  -4  -7  -1   55.21    1.98
   4   7   1   52.45    1.90
  -4  -7   1   49.44    1.93
  -4  -7   1   48.95    1.58
  -4  -7   1   52.06    2.04
  -4   7  -1   53.62    1.82
   4  -7  -1   54.01    1.94
  -4   7  -1   50.23    1.85
  -4  -7   1   50.08    1.86
  -4   7  -1   52.38    1.94
   4   7  -2   63.59    2.36
   4  -7   2   63.34    2.12
  -4  -7  -2   64.61    2.02
  -4   7   2   65.56    2.33
  -4  -7  -2   64.73    2.43
  -4  -7  -2   64.94    2.27
  -4  -7  -2   59.56    2.24
  -4   7  -2   64.78    2.23
   4   7   2   65.49    2.17
  -4  -7   2   64.91    2.15
  -4   7  -2   64.84    2.22
  -4  -7   2   64.53    2.47
  -4  -7   2   63.86    2.31
   4  -7  -2   62.33    2.28
  -4  -7  -3   48.76    2.15
   4  -7   3   46.99    2.12
   4   7  -3   46.50    2.00
   4  -7   3   42.52    1.56
  -4  -7  -3   43.77    1.84
  -4   7   3   43.72    1.94
  -4  -7  -3   46.17    1.96
   4   7   3   47.61    1.72
  -4   7  -3   47.93    1.95
   4  -7  -3   49.03    1.96
  -4   7  -3   43.93    1.79
  -4   7  -3   46.78    1.86
  -4  -7   3   47.42    1.96
  -4  -7   3   46.62    2.12
  -4  -7   3   44.85    1.68
  -4  -7  -4   33.33    1.93
  -4   7   4   34.78    1.75
   4  -7   4   36.26    2.03
   4   7  -4   37.99    1.82
  -4  -7  -4   35.32    1.81
  -4  -7  -4   31.70    1.55
   4  -7  -4   34.23    1.70
   4  -7  -4   35.02    1.88
  -4   7  -4   34.28    1.60
  -4   7  -4   32.95    1.75
  -4  -7   4   31.07    1.84
   4   7   4   35.37    1.44
  -4  -7   4   34.74    1.73
  -4   7  -4   34.72    1.65
  -4  -7  -5   33.02    1.59
   4  -7   5   37.92    2.08
  -4  -7  -5   32.77    1.94
  -4   7   5   32.03    1.79
   4   7  -5   35.95    1.87
   4   7  -5   36.66    2.07
  -4  -7  -5   35.80    2.11
  -4  -7   5   32.48    1.99
   4  -7  -5   36.08    2.11
  -4   7  -5   34.25    1.75
  -4   7  -5   35.94    1.71
  -4  -7   5   33.59    1.82
  -4   7  -5   37.76    1.97
   4  -7  -5   31.66    1.75
   4  -7   6   16.89    1.70
   4   7  -6   17.24    1.75
  -4   7   6   15.71    1.51
  -4  -7  -6   15.83    1.73
  -4  -7   6   18.52    1.64
   4  -7  -6   17.50    1.38
  -4   7  -6   19.32    1.79
   4  -7  -6   18.70    1.88
  -4  -7   6   16.01    1.48
  -4   7  -6   17.22    1.33
   4   7  -7   32.26    2.39
  -4   7   7   32.17    2.00
  -4  -7  -7   33.11    2.48
  -4  -7   7   32.18    2.04
   4  -7  -7   32.26    2.50
  -4  -7   7   33.97    2.23
  -4   7  -7   31.56    2.22
  -5  -7   0   80.58    2.74
  -5   7   0   82.56    2.55
  -5  -7   0   79.70    2.48
  -5  -7   0   78.63    2.60
   5   7   0   81.74    2.69
  -5   7   0   83.22    2.63
  -5  -7   0   75.17    2.65
   5  -7   0   81.61    2.61
  -5  -7  -1   86.43    2.74
  -5  -7  -1   82.76    2.79
  -5   7   1   85.96    2.59
   5  -7   1   84.85    2.64
  -5   7   1   83.25    2.79
  -5  -7  -1   82.85    2.64
  -5  -7  -1   83.30    2.70
   5   7  -1   77.72    2.80
  -5  -7   1   86.07    2.81
  -5  -7   1   86.17    2.77
  -5   7  -1   83.02    2.85
  -5  -7   1   85.01    2.95
  -5  -7   1   84.70    2.48
  -5   7  -1   87.00    2.67
  -5   7  -1   85.79    2.70
   5  -7  -1   83.93    2.77
   5   7   1   84.62    2.71
  -5   7   2   51.75    2.11
   5   7  -2   55.06    2.20
   5  -7   2   54.79    1.91
  -5  -7  -2   53.21    2.07
  -5  -7  -2   55.20    2.10
  -5   7  -2   54.27    2.12
  -5  -7   2   51.33    1.97
   5   7   2   53.98    1.92
  -5  -7   2   49.52    2.07
   5  -7  -2   52.96    2.09
  -5   7  -2   53.08    2.03
  -5  -7   2   52.38    2.25
  -5  -7  -3   39.48    1.74
  -5  -7  -3   38.15    2.03
  -5   7   3   39.23    1.84
   5   7  -3   38.37    1.89
  -5  -7  -3   37.42    1.82
   5  -7  -3   37.78    1.80
  -5  -7   3   40.31    1.63
  -5   7  -3   39.93    1.88
  -5   7  -3   40.01    1.78
  -5   7  -3   38.45    1.74
  -5  -7   3   36.90    1.81
   5   7   3   40.07    1.54
  -5  -7   3   39.26    1.99
  -5   7   4   41.90    2.04
   5   7  -4   45.57    2.15
  -5  -7  -4   48.78    2.43
  -5  -7  -4   41.76    2.09
   5  -7   4   43.92    2.28
  -5  -7  -4   44.27    1.91
  -5  -7   4   45.75    2.28
  -5   7  -4   45.99    2.00
  -5   7  -4   47.89    2.05
  -5   7  -4   43.11    2.14
  -5  -7   4   45.51    2.09
   5  -7  -4   43.35    2.04
  -5  -7  -5   33.00    1.62
  -5  -7  -5   31.89    1.94
  -5  -7  -5   33.14    2.21
  -5   7   5   27.99    1.77
   5   7  -5   32.96    1.87
   5  -7  -5   32.31    2.12
  -5  -7   5   27.88    1.93
  -5   7  -5   32.94    1.78
  -5   7  -5   31.67    1.97
   5  -7  -5   32.74    1.84
  -5   7  -5   32.83    1.77
  -5  -7   5   30.42    1.86
  -5   7   6   25.92    1.77
   5   7  -6   27.08    2.11
  -5  -7  -6   25.54    2.12
   5   7  -6   24.81    1.73
   5  -7  -6   22.35    1.65
   5  -7  -6   26.37    2.09
  -5  -7   6   24.54    1.92
  -5  -7   6   21.60    1.73
  -5   7  -6   30.43    2.93
  -5   7  -6   23.36    1.92
  -5   7  -6   22.10    1.58
   5   7  -7   21.35    2.20
  -5   7   7   19.24    1.82
  -5  -7  -7   18.35    2.07
  -5   7  -7   17.91    1.91
  -5   7  -7   19.72    1.72
  -5  -7   7   20.21    2.05
  -5  -7   7   17.88    1.75
   5  -7  -7   17.47    2.03
  -6   7   0   56.52    2.09
  -6  -7   0   53.64    2.07
  -6  -7   0   53.91    2.15
  -6  -7   0   56.47    2.25
  -6  -7   0   55.65    2.00
   6  -7   0   58.07    2.09
   6   7   0   52.65    2.14
  -6   7   0   54.29    1.99
  -6   7   1   34.00    1.42
  -6  -7  -1   35.12    1.67
   6  -7   1   34.14    1.49
  -6  -7  -1   37.72    1.64
  -6  -7  -1   36.90    1.66
   6   7  -1   33.58    1.71
  -6   7   1   34.93    1.64
  -6  -7   1   34.15    1.41
  -6  -7   1   34.23    1.78
  -6  -7   1   34.92    1.64
  -6   7  -1   35.95    1.59
   6  -7  -1   37.39    1.67
  -6  -7   1   34.34    1.62
   6   7   1   35.20    1.60
  -6   7  -1   35.36    1.76
   6   7  -2   46.24    2.14
  -6   7   2   52.37    2.15
  -6  -7  -2   52.87    2.13
   6  -7   2   48.58    1.83
  -6  -7  -2   53.52    2.11
  -6   7   2   49.53    1.87
  -6   7  -2   50.46    2.17
   6   7   2   46.98    1.85
   6  -7  -2   51.82    2.11
  -6  -7   2   48.70    1.98
  -6  -7   2   49.28    2.26
  -6  -7   2   52.49    2.14
  -6   7  -2   50.16    2.05
  -6  -7  -3   17.94    1.68
   6   7  -3   21.41    1.48
  -6   7   3   19.30    1.36
  -6  -7  -3   17.46    1.35
  -6  -7  -3   19.57    1.27
   6  -7  -3   18.33    1.31
  -6  -7   3   18.00    1.48
  -6  -7   3   17.62    1.15
  -6  -7   3   16.36    1.29
  -6   7  -3   19.96    1.29
   6   7   3   18.33    1.04
  -6   7  -3   19.31    1.35
  -6  -7  -4   49.28    2.35
  -6   7   4   50.22    2.32
   6  -7   4   49.82    2.48
   6   7  -4   49.38    2.36
  -6  -7  -4   52.91    2.72
  -6  -7  -4   50.98    2.14
  -6   7  -4   51.51    2.25
  -6   7  -4   51.29    2.47
  -6  -7   4   50.26    2.34
  -6  -7   4   48.54    2.49
  -6   7  -4   48.09    2.25
   6  -7  -4   49.48    2.28
  -6  -7   4   48.02    2.37
  -6  -7  -5    5.96    1.05
   6  -7   5    7.79    1.40
  -6   7   5    5.18    1.01
   6   7  -5    3.83    0.91
  -6  -7  -5    6.77    1.23
  -6  -7  -5    5.02    0.81
  -6  -7   5    5.72    1.16
  -6   7  -5    6.24    1.02
   6  -7  -5    6.15    1.03
  -6   7  -5    7.40    1.16
  -6  -7   5    5.64    1.04
   6  -7  -5    5.18    1.19
  -6   7  -5    5.54    0.94
  -6  -7  -6   14.41    1.70
   6   7  -6   20.33    1.71
  -6  -7  -6   16.94    2.00
  -6   7   6   17.75    1.74
  -6   7  -6   18.69    1.65
   6  -7  -6   18.79    2.06
  -6   7  -6   18.90    1.70
   6  -7  -6   18.16    1.74
  -6  -7   6   22.30    1.92
  -6  -7   6   22.08    1.91
  -6   7  -6   18.92    1.89
  -7   7   0   63.21    2.29
  -7   7   0   68.40    2.72
  -7  -7   0   65.53    2.35
  -7  -7   0   64.69    2.59
  -7  -7   0   60.82    2.46
   7   7   0   61.72    2.45
   7  -7   0   65.78    2.38
   7   7  -1    8.40    1.03
  -7  -7  -1    9.64    1.08
  -7   7   1    9.22    0.84
  -7   7   1    7.56    0.98
  -7  -7  -1    9.45    0.98
   7  -7   1   10.28    0.93
  -7   7  -1   10.00    0.96
  -7  -7   1    9.33    1.07
  -7   7  -1    7.39    1.02
   7   7   1    9.43    0.97
  -7  -7   1    8.29    0.95
  -7  -7   1    8.21    0.96
   7  -7  -1    8.88    1.01
  -7  -7   1   10.05    1.22
  -7   7   2   57.60    2.40
  -7  -7  -2   58.41    2.38
   7  -7   2   56.22    2.05
  -7  -7  -2   59.62    2.42
   7   7  -2   55.04    2.45
  -7   7  -2   57.35    2.31
   7   7   2   54.47    2.09
  -7   7  -2   61.65    2.55
  -7  -7   2   58.88    2.60
  -7  -7   2   60.75    2.43
   7  -7  -2   56.98    2.37
  -7  -7   2   56.98    2.33
  -7   7   3   12.17    1.29
   7   7  -3    8.18    1.11
  -7  -7  -3   10.39    1.10
  -7  -7  -3   13.09    1.29
  -7  -7   3   13.20    1.18
  -7  -7   3   10.30    1.20
  -7  -7   3   10.33    1.34
  -7   7  -3   10.57    1.14
   7   7   3   10.21    0.86
  -7   7  -3   10.34    1.21
   7  -7  -3   10.93    1.22
   7   7  -4   61.67    2.79
  -7  -7  -4   64.14    2.57
  -7  -7  -4   63.62    2.80
  -7  -7  -4   59.40    3.12
  -7   7   4   60.81    2.73
  -7   7  -4   65.53    2.70
   7  -7  -4   64.92    2.76
  -7  -7   4   63.99    2.77
  -7  -7   4   59.33    2.80
  -7  -7   4   64.10    2.97
  -7   7  -4   67.46    2.83
  -7   7   5    7.22    1.17
   7  -7   5    8.15    1.43
   7   7  -5    7.49    1.20
  -7  -7  -5    6.71    0.96
  -7  -7  -5    6.20    1.13
  -7  -7  -5    8.16    1.48
  -7  -7   5    9.43    1.36
  -7   7  -5    8.56    1.25
  -7   7  -5    7.31    1.26
  -7   7  -5    6.26    1.07
   7  -7  -5    5.50    1.03
  -7  -7   5    6.57    1.28
  -7   7   6   38.73    2.36
  -7  -7  -6   39.23    2.83
   7   7  -6   39.08    2.88
  -7  -7  -6   39.20    2.56
   7   7  -6   40.07    2.41
  -7   7  -6   37.63    2.35
   7  -7  -6   38.18    2.74
  -7   7  -6   40.83    2.32
  -7  -7   6   39.52    2.39
  -7   7  -6   41.52    2.66
   7  -7  -6   42.23    2.41
  -7  -7   6   43.02    2.61
   8   7   0   78.12    2.94
  -8  -7   0   74.65    2.97
  -8   7   0   85.37    3.27
   8  -7   0   82.83    2.88
  -8  -7   0   83.89    2.90
  -8   7   0   78.39    2.76
   8  -7   1    1.44    0.49
   8   7  -1    1.85    0.75
  -8   7   1    2.93    0.80
  -8  -7  -1    1.37    0.59
  -8  -7  -1    3.08    0.74
  -8  -7   1    1.45    0.62
  -8   7  -1    1.61    0.71
   8   7   1    1.75    0.63
   8  -7  -1    1.97    0.62
  -8   7  -1    2.39    0.66
  -8  -7   1    1.87    0.76
  -8  -7  -2   40.55    2.02
   8   7  -2   40.23    2.16
  -8  -7  -2   42.13    2.09
  -8   7  -2   46.92    2.32
  -8  -7   2   41.38    2.03
   8  -7  -2   39.63    2.02
  -8   7  -2   40.40    1.98
  -8  -7   2   39.47    2.05
  -8  -7   2   40.03    2.24
   8   7   2   39.02    1.75
  -8  -7  -3    2.22    0.68
  -8  -7  -3    1.62    0.78
  -8   7   3    1.46    0.69
   8   7  -3    2.62    0.84
   8  -7  -3    1.76    0.72
  -8   7  -3    1.42    0.72
  -8   7  -3    2.87    0.81
  -8  -7   3    0.88    0.59
  -8  -7   3    1.15    0.88
  -8  -7   3    2.98    0.83
   8   7  -4   33.45    2.15
  -8  -7  -4   35.26    2.18
  -8   7   4   32.55    2.03
  -8  -7  -4   30.70    1.81
  -8   7  -4   36.29    2.21
   8  -7  -4   36.29    2.11
  -8  -7   4   32.28    2.07
  -8   7  -4   36.07    2.06
  -8  -7   4   32.31    2.24
  -8  -7  -5    2.50    1.01
   8   7  -5    3.77    1.00
  -8  -7  -5    2.29    0.71
  -8   7   5    2.75    0.85
  -8  -7   5    4.83    1.09
  -8  -7   5    4.50    1.22
  -8   7  -5    3.74    0.99
  -8   7  -5    4.74    1.13
   8  -7  -5    4.31    1.04
  -9  -7   0   41.15    2.02
  -9   7   0   39.36    2.68
   9   7   0   42.21    2.09
   9  -7   0   40.25    1.94
  -9   7   0   39.01    2.29
  -9  -7   0   41.48    2.14
  -9   7   1    1.49    0.76
   9   7  -1    1.75    0.79
   9  -7   1    1.05    0.57
  -9  -7  -1    2.92    0.80
  -9  -7  -1    2.13    0.73
  -9   7  -1    1.21    0.61
   9  -7  -1    2.42    0.69
  -9   7  -1    1.82    0.79
  -9  -7   1    1.55    0.71
   9   7   1    2.34    0.73
   9   7  -2   49.88    2.46
  -9  -7  -2   45.55    2.33
  -9  -7  -2   46.36    2.30
  -9   7   2   46.98    2.57
  -9   7  -2   42.96    2.46
   9  -7  -2   45.02    2.24
  -9   7  -2   41.31    2.15
   9   7   2   44.40    2.18
  -9  -7   2   42.47    2.20
   9   7  -3    3.17    1.07
  -9  -7  -3    2.23    0.89
  -9  -7  -3    2.75    0.80
  -9  -7   3    1.45    0.70
  -9   7  -3    2.27    0.88
  -9   7  -3    2.54    0.94
   9  -7  -3    2.18    0.82
   9   7  -4   31.81    2.24
  -9  -7  -4   30.15    1.89
  -9   7   4   28.85    2.03
  -9  -7  -4   32.16    2.25
  -9   7  -4   30.47    2.05
   9  -7  -4   33.08    2.13
  -9   7  -4   30.30    2.26
  -9  -7   4   32.74    2.15
  -9  -7   4   31.13    2.25
 -10  -7   0   30.22    1.97
  10   7   0   33.84    1.97
  10  -7   0   29.03    1.74
 -10   7   0   33.28    2.26
 -10  -7  -1    1.77    0.73
 -10  -7  -1    0.45    0.67
 -10   7   1    1.17    0.84
  10   7  -1    0.04    0.76
  10   7   1    0.84    0.74
  10  -7  -1    1.28    0.70
 -10   7  -1    2.20    0.96
 -10   7  -1    1.35    0.76
 -10  -7   1    1.27    0.67
  10   7  -2   28.36    2.10
 -10  -7  -2   27.16    1.88
 -10  -7  -2   30.98    2.05
 -10   7   2   29.87    2.21
  10  -7  -2   23.60    1.77
 -10   7  -2   27.04    1.85
 -10  -7   2   26.91    1.84
 -10   7  -2   32.13    2.25
 -10  -7  -3    1.15    0.86
 -10   7   3    0.00    0.78
 -10  -7  -3    2.10    0.86
  10   7  -3    0.38    0.85
  10  -7  -3    0.50    0.70
 -10   7  -3    0.03    0.70
 -10  -7   3   -0.13    0.64
 -10   7  -3    1.52    1.01
   0   8   0  473.05   11.86
   0  -8   0  485.59   11.87
   0  -8   0  476.99   11.85
   0  -8   1   -0.04    0.35
   0  -8   1   -0.21    0.35
   0  -8  -1    0.29    0.32
   0  -8  -1   -0.37    0.32
   0   8  -1   -0.02    0.35
   0   8   1   -0.36    0.32
   0   8  -2  394.86    9.93
   0  -8   2  396.43   10.24
   0   8  -2  382.41    9.54
   0  -8   2  405.29    9.95
   0  -8  -2  408.64    9.72
   0  -8  -2  387.87    9.71
   0   8   2  401.50    9.96
   0  -8  -2  394.35    9.95
   0   8   3    0.29    0.37
   0   8  -3    0.34    0.37
   0   8  -3    0.04    0.31
   0  -8   3    0.18    0.44
   0  -8  -3    0.16    0.35
   0  -8   3   -0.40    0.45
   0  -8  -3    0.30    0.39
   0  -8   4  311.36    7.85
   0  -8  -4  308.00    8.12
   0   8  -4  306.11    7.86
   0   8  -4  311.29    7.76
   0  -8  -4  305.41    7.91
   0   8  -4  297.23    7.90
   0   8   4  300.13    7.91
   0  -8   4  286.37    8.33
   0  -8  -5    0.09    0.53
   0   8   5   -0.28    0.36
   0   8  -5    0.36    0.51
   0  -8   5   -0.24    0.62
   0  -8   5   -0.08    0.45
   0   8  -5   -0.04    0.32
   0   8   6  132.07    4.12
   0  -8   6  133.93    4.01
   0   8  -6  135.84    4.48
   0  -8   6  133.73    4.64
   0  -8  -6  129.13    4.62
   0  -8   7   -0.81    0.51
   0   8  -7    0.29    0.70
   0  -8   7   -0.04    0.84
   0   8   7   -0.58    0.44
   0  -8  -7    0.70    0.79
   0  -8  -8   43.79    2.91
   0   8   8   45.80    2.16
   0   8  -8   42.32    2.67
  -1   8   0   13.63    0.91
   1  -8   0   14.51    0.94
   1  -8   0   11.44    0.87
  -1  -8   0   12.58    0.90
   1   8   0   13.20    0.94
  -1  -8   0   11.86    0.90
  -1  -8  -1    8.59    0.71
   1   8  -1    8.56    0.85
   1  -8   1    8.35    0.79
   1  -8   1   10.33    1.01
  -1  -8  -1   10.00    0.83
  -1  -8  -1    9.75    0.60
  -1   8   1    8.90    0.75
  -1  -8   1    9.31    0.94
  -1  -8   1    8.04    0.78
   1   8   1    9.33    0.84
   1  -8  -1    9.52    0.78
   1  -8  -1    9.81    0.73
  -1   8  -1    9.61    0.79
  -1   8   2    0.92    0.42
   1  -8   2    0.97    0.53
   1   8  -2    0.89    0.31
   1  -8   2    1.04    0.44
   1   8  -2    1.24    0.46
  -1  -8  -2    1.03    0.46
  -1  -8  -2    1.00    0.36
   1  -8  -2    1.12    0.40
  -1   8  -2    0.98    0.28
  -1  -8   2    0.48    0.55
  -1   8  -2    0.92    0.42
   1  -8  -2    1.81    0.39
  -1  -8   2    1.01    0.39
   1   8   2    2.40    0.54
  -1   8  -2    0.75    0.27
  -1   8   3    0.23    0.37
   1   8  -3    0.90    0.36
  -1  -8  -3    0.41    0.41
   1  -8   3   -0.02    0.53
  -1  -8  -3    1.07    0.43
   1   8  -3    0.11    0.38
   1   8   3   -0.47    0.36
  -1  -8   3    1.03    0.60
  -1   8  -3    0.43    0.24
  -1  -8   3    0.18    0.31
  -1  -8   3    0.87    0.45
   1  -8  -3    0.89    0.42
   1  -8  -3    0.00    0.36
  -1   8  -3    0.63    0.34
  -1   8  -3    0.41    0.38
   1   8  -4    1.99    0.54
  -1  -8  -4    2.63    0.67
   1  -8   4    3.37    0.90
   1   8  -4    2.07    0.42
  -1  -8  -4    1.09    0.46
   1   8  -4    1.91    0.54
  -1   8   4    1.90    0.50
   1  -8   4    3.15    0.57
   1   8   4    1.73    0.52
  -1  -8   4    2.19    0.59
   1  -8  -4    2.00    0.58
  -1   8  -4    2.18    0.49
  -1  -8   4    2.72    0.85
  -1   8  -4    3.25    0.62
   1  -8  -4    1.77    0.49
   1  -8   5    1.95    0.55
  -1  -8  -5    0.67    0.62
  -1   8   5    1.17    0.52
   1   8  -5    0.77    0.35
   1   8  -5    0.88    0.53
   1  -8   5    1.08    0.74
  -1  -8   5    0.99    0.69
  -1   8  -5    2.04    0.65
  -1  -8   5    1.40    0.63
   1   8   5    1.87    0.54
  -1   8  -5    1.07    0.42
   1  -8  -5    1.67    0.56
   1  -8  -5    0.74    0.61
   1  -8   6   -0.60    0.73
  -1  -8  -6    0.22    0.70
   1  -8   6    0.26    0.48
   1   8  -6    0.77    0.66
  -1   8   6    0.92    0.50
   1   8   6    0.12    0.43
  -1  -8   6    0.10    0.54
  -1  -8   6   -0.42    0.70
  -1   8  -6   -0.10    0.58
  -1   8  -6    0.38    0.43
   1  -8  -6   -0.19    0.65
   1   8  -7   -0.30    0.69
  -1   8   7    0.44    0.54
  -1  -8  -7   -0.64    0.71
   1  -8   7    0.51    0.58
   1  -8   7    0.71    0.91
  -1  -8   7   -0.57    0.76
   1  -8  -7   -0.10    0.77
  -1   8  -7    1.52    0.80
  -1  -8   7    0.45    0.67
   1   8   7    0.64    0.60
  -1   8   8   -0.20    0.58
  -1  -8  -8    1.10    0.92
   1   8  -8   -0.36    0.84
  -1   8  -8   -0.93    0.74
  -1  -8   8    0.32    0.65
   1  -8  -8   -0.94    0.85
  -2   8   0  169.27    4.58
  -2  -8   0  170.77    4.60
  -2  -8   0  158.02    4.60
   2   8   0  166.32    4.66
  -2  -8   0  170.96    4.64
   2  -8   0  164.47    4.58
  -2   8   1   36.75    1.52
  -2  -8  -1   38.53    1.40
  -2  -8  -1   38.56    1.45
   2  -8   1   34.66    1.63
  -2  -8  -1   39.89    1.61
   2  -8   1   39.62    1.58
   2   8  -1   39.54    1.62
  -2  -8  -1   36.71    1.57
   2   8   1   34.87    1.56
  -2  -8   1   39.43    1.52
   2  -8  -1   37.06    1.53
  -2  -8   1   36.18    1.66
  -2   8  -1   39.64    1.58
  -2   8   2  217.46    6.01
   2  -8   2  219.07    6.30
   2   8  -2  223.03    6.05
  -2  -8  -2  225.42    6.07
  -2  -8  -2  228.74    5.91
  -2  -8  -2  235.02    6.03
   2  -8   2  214.71    5.89
   2  -8  -2  226.98    6.01
  -2   8  -2  228.10    5.68
   2   8   2  219.01    5.98
  -2  -8   2  223.61    5.80
   2  -8  -2  226.84    5.82
  -2   8  -2  222.26    5.91
  -2  -8   2  225.76    6.04
  -2   8  -2  229.09    5.73
   2  -8   3   37.17    1.50
   2   8  -3   37.21    1.67
   2  -8   3   36.79    1.88
  -2   8   3   37.69    1.67
  -2  -8  -3   36.51    1.65
  -2  -8  -3   38.46    1.62
  -2  -8  -3   37.37    1.67
   2   8  -3   36.35    1.53
  -2  -8   3   37.96    1.67
  -2   8  -3   37.20    1.36
  -2   8  -3   36.37    1.55
   2   8   3   37.69    1.64
  -2  -8   3   37.15    1.89
  -2   8  -3   36.24    1.47
   2  -8  -3   36.39    1.60
  -2   8  -3   35.39    1.47
  -2  -8   3   38.85    1.38
   2  -8  -3   36.06    1.60
   2   8  -4  197.44    5.63
   2  -8   4  196.93    5.28
   2  -8   4  205.02    6.02
  -2  -8  -4  206.04    5.62
  -2  -8  -4  204.43    5.82
   2   8  -4  199.20    5.61
  -2   8   4  200.85    5.68
  -2  -8   4  196.76    5.60
   2   8   4  203.47    5.57
   2  -8  -4  195.43    5.60
  -2  -8   4  202.40    6.04
  -2   8  -4  194.83    5.55
   2  -8  -4  202.89    5.74
  -2   8  -4  199.71    5.49
   2  -8   5   15.12    1.57
   2  -8   5   12.92    0.90
  -2  -8  -5   14.30    1.43
  -2   8   5   13.57    1.14
   2   8  -5   13.69    1.30
  -2  -8  -5   13.72    1.17
   2   8  -5   12.52    1.19
  -2   8  -5   14.82    1.20
  -2  -8   5   14.59    1.53
  -2  -8   5   14.79    1.27
   2  -8  -5   12.58    1.31
  -2   8  -5   13.85    1.14
   2   8   5   14.48    1.10
   2  -8  -5   14.67    1.12
  -2  -8  -6  118.41    4.26
   2   8  -6  109.24    4.00
  -2   8   6  111.66    3.82
   2  -8   6  106.59    4.10
   2  -8   6  110.48    3.28
   2   8   6  113.40    3.60
  -2  -8   6  113.86    4.18
   2  -8  -6  113.60    4.17
  -2   8  -6  113.49    3.97
  -2  -8   6  110.17    3.73
  -2   8  -6  114.85    3.64
   2   8  -7    6.38    1.24
  -2   8   7    6.30    1.05
  -2  -8  -7    7.55    1.41
  -2   8  -7    8.00    1.03
  -2  -8   7    7.94    1.36
  -2   8  -7    5.94    1.10
  -2  -8   7    8.11    1.13
   2  -8  -7    8.65    1.46
  -2   8   8   61.54    2.76
   2   8  -8   58.65    3.21
  -2  -8  -8   58.18    3.37
   2  -8  -8   61.57    3.44
  -2  -8   8   55.89    2.61
  -2   8  -8   57.88    3.09
  -3   8   0    5.82    0.69
  -3  -8   0    6.04    0.76
  -3  -8   0    5.39    0.54
   3  -8   0    5.61    0.68
  -3  -8   0    6.15    0.71
   3   8   0    4.54    0.68
  -3  -8  -1    1.95    0.48
   3   8  -1    1.29    0.53
  -3  -8  -1    1.22    0.45
  -3  -8  -1    1.34    0.47
  -3  -8  -1    1.71    0.43
  -3   8   1    1.79    0.50
   3  -8   1    1.87    0.49
   3  -8  -1    1.82    0.45
  -3   8  -1    1.41    0.46
  -3  -8   1    1.44    0.48
   3   8   1    2.04    0.54
  -3  -8   1    1.80    0.49
  -3  -8   1    1.86    0.60
   3  -8   2    1.38    0.57
   3   8  -2    1.55    0.53
  -3  -8  -2    1.00    0.46
  -3  -8  -2    1.51    0.34
  -3  -8  -2    1.93    0.51
   3  -8   2    1.82    0.50
  -3  -8  -2    1.16    0.47
  -3  -8  -2    1.28    0.48
  -3   8   2    2.03    0.53
  -3   8  -2    0.81    0.38
  -3   8  -2    1.41    0.37
  -3  -8   2    1.15    0.49
  -3   8  -2    1.94    0.47
  -3  -8   2    0.91    0.41
  -3  -8   2    2.14    0.63
   3   8   2    1.63    0.50
   3  -8  -2    1.33    0.46
  -3   8  -2    1.07    0.40
  -3  -8  -3    9.42    0.99
   3   8  -3    7.32    0.89
  -3   8   3    7.73    0.88
   3  -8   3    9.01    1.18
  -3  -8  -3    7.16    0.83
   3  -8   3    7.71    0.73
  -3  -8   3    6.63    0.66
  -3   8  -3    5.70    0.64
   3  -8  -3    7.37    0.83
  -3  -8   3    6.86    0.84
   3  -8  -3    7.70    0.88
  -3   8  -3    8.08    0.80
   3   8   3    6.12    0.76
  -3   8  -3    7.51    0.81
  -3  -8   3    7.57    1.02
   3  -8   4   -0.48    0.58
  -3  -8  -4    0.23    0.53
   3   8  -4    0.42    0.48
   3   8  -4    0.39    0.53
  -3  -8  -4   -0.48    0.35
  -3   8   4    0.53    0.49
   3  -8   4   -0.19    0.36
   3   8   4   -0.06    0.39
  -3  -8   4   -0.56    0.52
  -3  -8   4   -0.68    0.44
   3  -8  -4   -0.06    0.40
  -3   8  -4   -0.32    0.34
  -3   8  -4    0.70    0.47
   3  -8  -4   -0.54    0.45
  -3   8  -4   -0.10    0.38
   3   8  -5    0.24    0.53
  -3  -8  -5    0.84    0.63
  -3  -8  -5   -0.25    0.43
   3  -8   5   -0.32    0.64
  -3   8   5    0.44    0.51
   3   8  -5    0.21    0.61
  -3   8  -5    1.89    0.64
  -3  -8   5   -0.16    0.68
  -3  -8   5    0.44    0.56
   3   8   5   -0.05    0.45
   3  -8  -5    0.17    0.43
   3  -8  -5    0.33    0.57
  -3   8  -5    0.65    0.48
  -3   8   6    1.21    0.66
   3  -8   6    0.74    0.83
   3   8  -6    1.89    0.82
  -3  -8  -6    0.88    0.78
   3  -8  -6    1.25    0.86
  -3  -8   6    0.71    0.74
  -3  -8   6   -0.21    0.76
  -3   8  -6    1.51    0.62
  -3   8  -6    1.72    0.72
   3   8   6    1.26    0.75
  -3  -8  -7   -0.26    0.78
   3   8  -7    0.89    0.85
  -3   8   7   -0.47    0.54
  -3   8  -7   -0.41    0.55
  -3  -8   7    1.30    0.75
  -3   8  -7    0.35    0.65
  -3  -8   7    0.75    0.85
   3  -8  -7    0.00    0.80
   4  -8   0  207.86    5.61
  -4  -8   0  206.21    5.38
   4   8   0  207.34    5.69
  -4   8   0  208.05    5.60
  -4  -8   0  214.49    5.68
  -4  -8   0  205.13    5.69
  -4  -8   0  207.85    5.67
  -4   8   1   94.00    3.01
  -4  -8  -1   90.92    2.85
  -4  -8  -1   93.41    3.02
   4   8  -1   93.26    3.06
  -4  -8  -1   92.65    2.88
   4  -8   1   92.55    2.90
  -4  -8   1   92.49    2.58
  -4  -8   1   97.26    2.97
  -4   8  -1   93.45    2.92
   4  -8  -1   90.59    2.96
  -4  -8   1   96.75    3.16
  -4   8  -1   92.24    2.88
   4   8   1   98.44    3.01
  -4  -8   1   94.32    3.03
  -4  -8  -2  204.61    5.69
  -4  -8  -2  202.36    5.62
  -4   8   2  202.87    5.73
   4   8  -2  202.45    5.77
  -4  -8  -2  210.33    5.55
  -4  -8  -2  208.15    5.82
  -4  -8  -2  210.67    5.37
   4  -8   2  201.48    5.49
  -4  -8   2  206.51    5.54
   4  -8  -2  207.02    5.71
  -4   8  -2  195.02    5.57
   4   8   2  212.55    5.59
  -4   8  -2  209.67    5.62
  -4  -8   2  206.31    5.94
  -4  -8   2  201.21    5.70
   4  -8   3   82.28    2.60
  -4   8   3   87.11    3.00
  -4  -8  -3   86.35    2.98
   4   8  -3   85.73    3.03
  -4  -8  -3   84.70    3.07
  -4  -8  -3   85.33    2.90
   4  -8   3   85.11    3.23
  -4   8  -3   79.90    2.82
  -4   8  -3   88.23    2.82
   4   8   3   83.54    2.72
  -4  -8   3   88.88    3.01
  -4  -8   3   85.48    3.20
   4  -8  -3   84.63    2.93
  -4   8  -3   87.59    2.88
  -4  -8   3   85.78    2.67
   4   8  -4  120.27    3.97
  -4   8   4  116.50    3.92
  -4  -8  -4  115.56    3.97
  -4  -8  -4  115.94    4.10
  -4  -8  -4  124.99    3.82
   4  -8   4  124.03    4.30
  -4  -8   4  124.49    4.23
   4  -8  -4  118.85    3.90
  -4   8  -4  120.31    3.72
  -4   8  -4  124.18    3.84
   4  -8  -4  127.11    4.08
  -4  -8   4  123.49    3.94
  -4   8  -4  119.92    3.90
   4   8   4  119.16    3.57
   4  -8   5   55.22    2.65
  -4  -8  -5   52.08    2.17
  -4  -8  -5   54.86    2.68
  -4   8   5   53.90    2.43
   4   8  -5   56.50    2.47
   4   8  -5   60.23    2.67
  -4  -8   5   57.38    2.71
   4  -8  -5   61.49    2.71
  -4   8  -5   51.14    2.24
   4  -8  -5   52.12    2.35
  -4  -8   5   52.66    2.39
  -4   8  -5   57.38    2.49
  -4   8  -5   54.44    2.30
   4  -8   6   65.38    3.05
  -4  -8  -6   62.49    3.14
  -4   8   6   63.56    2.80
   4   8  -6   67.31    3.08
  -4  -8   6   63.02    2.79
  -4  -8   6   65.39    3.09
  -4   8  -6   61.14    2.86
  -4   8  -6   67.21    2.69
   4  -8  -6   59.86    3.00
   4  -8  -6   66.03    2.76
  -4   8   7   18.41    1.75
  -4  -8  -7   15.79    1.93
   4   8  -7   18.08    1.94
   4  -8  -7   16.21    1.93
  -4   8  -7   16.21    1.50
  -4  -8   7   16.79    1.61
  -4  -8   7   15.98    1.87
  -4   8  -7   16.25    1.76
  -5   8   0    0.46    0.41
  -5   8   0    0.93    0.45
  -5  -8   0    0.51    0.47
  -5  -8   0    0.27    0.35
   5  -8   0    0.74    0.42
   5   8   0    0.43    0.50
  -5  -8   0    0.27    0.42
  -5  -8   0    1.00    0.50
   5  -8   1    1.16    0.47
  -5   8   1    1.08    0.48
  -5  -8  -1    1.81    0.53
  -5  -8  -1    1.63    0.51
  -5   8   1    0.97    0.41
  -5  -8  -1    0.93    0.42
  -5  -8  -1    1.91    0.48
   5   8  -1    1.14    0.56
  -5  -8   1    1.08    0.49
  -5   8  -1    1.92    0.50
  -5  -8   1    0.94    0.51
  -5  -8   1    1.59    0.47
  -5  -8   1    0.55    0.51
  -5   8  -1    0.46    0.44
   5  -8  -1    1.19    0.47
   5   8   1    0.02    0.46
  -5   8   2    6.27    0.85
  -5  -8  -2    5.64    0.77
   5  -8   2    8.17    0.85
  -5  -8  -2    7.34    0.86
   5   8  -2    6.45    0.90
   5   8   2    5.58    0.73
  -5  -8   2    5.40    0.83
   5  -8  -2    4.75    0.72
  -5   8  -2    7.45    0.89
  -5  -8   2    5.82    0.93
  -5   8  -2    5.87    0.73
  -5  -8   2    6.51    0.79
  -5  -8  -3    1.66    0.56
  -5   8   3    1.20    0.55
   5   8  -3    3.31    0.78
  -5  -8  -3    2.56    0.79
  -5  -8  -3    1.55    0.60
  -5   8  -3    1.27    0.52
  -5   8  -3    1.30    0.52
  -5  -8   3    0.94    0.63
   5   8   3    1.50    0.49
   5  -8  -3    1.47    0.54
  -5  -8   3    2.21    0.52
  -5  -8   3    1.89    0.67
   5  -8   4    0.96    0.76
   5   8  -4   -0.56    0.51
  -5   8   4    0.26    0.51
  -5  -8  -4    0.10    0.43
  -5  -8  -4    0.53    0.67
  -5  -8  -4   -0.73    0.50
   5   8   4   -0.46    0.41
  -5  -8   4    0.20    0.59
  -5   8  -4    0.53    0.50
  -5   8  -4   -0.01    0.47
  -5  -8   4    0.22    0.58
  -5   8  -4    0.81    0.57
   5  -8  -4    0.36    0.52
  -5   8   5    0.80    0.66
   5  -8   5    1.67    0.90
   5   8  -5    0.48    0.66
  -5  -8  -5    1.47    0.85
   5   8  -5    1.21    0.92
  -5  -8  -5    1.58    0.56
  -5  -8  -5    0.79    0.70
  -5   8  -5    0.93    0.67
   5  -8  -5    1.27    0.63
   5  -8  -5    2.10    0.87
  -5  -8   5    1.39    0.70
  -5  -8   5    1.88    0.86
  -5   8  -5    1.19    0.60
  -5   8  -5    1.20    0.61
  -5  -8  -6   -0.08    0.84
   5   8  -6   -0.29    0.82
   5   8  -6    1.19    0.69
   5  -8   6    0.54    0.86
  -5   8   6   -0.03    0.55
  -5  -8   6   -0.13    0.73
   5  -8  -6    0.58    0.60
  -5   8  -6   -0.50    0.53
  -5  -8   6    0.11    0.72
  -5   8  -6    0.28    0.70
   5  -8  -6    0.55    0.84
   5   8  -7    2.47    1.07
  -5   8   7    0.53    0.79
  -5  -8  -7    0.44    0.95
  -5  -8   7    1.05    0.94
  -5   8  -7    0.29    0.66
  -5  -8   7    1.21    0.88
  -5   8  -7    0.92    0.84
   5  -8  -7    1.63    1.06
  -6  -8   0   50.34    2.14
  -6  -8   0   49.04    2.00
  -6  -8   0   48.31    1.87
   6   8   0   49.90    2.10
   6  -8   0   52.26    2.01
  -6  -8   0   51.24    2.10
  -6   8   0   50.03    1.92
   6  -8   1  152.18    4.31
  -6  -8  -1  150.74    4.45
  -6  -8  -1  144.58    4.48
  -6  -8  -1  146.88    4.36
  -6   8   1  146.71    4.19
   6   8  -1  148.01    4.56
  -6   8   1  149.08    4.49
  -6  -8   1  147.75    4.66
   6  -8  -1  148.24    4.46
  -6   8  -1  150.74    4.63
   6   8   1  153.44    4.41
  -6   8  -1  147.84    4.36
  -6  -8   1  152.46    4.49
  -6  -8   1  148.22    4.46
  -6  -8  -2   37.67    1.75
  -6   8   2   33.45    1.73
   6  -8   2   31.11    1.48
  -6  -8  -2   33.60    1.69
  -6   8   2   31.77    1.40
   6   8  -2   35.23    1.83
  -6  -8   2   29.88    1.58
  -6   8  -2   35.07    1.80
  -6  -8   2   32.46    1.86
   6   8   2   30.41    1.51
   6  -8  -2   34.70    1.72
  -6  -8   2   32.35    1.71
  -6   8  -2   32.02    1.63
  -6   8   3   91.09    3.31
  -6  -8  -3   98.96    3.37
   6   8  -3   91.00    3.37
  -6  -8  -3   88.69    3.18
  -6   8  -3   92.23    3.21
   6   8   3   91.70    2.86
  -6   8  -3   94.20    3.30
  -6  -8   3   90.66    3.28
  -6  -8   3   87.72    3.03
   6  -8  -3   93.67    3.30
  -6  -8   3   91.26    3.54
  -6   8   4   33.60    1.95
  -6  -8  -4   35.48    2.02
   6  -8   4   32.78    2.14
  -6  -8  -4   38.30    2.31
  -6  -8  -4   35.31    1.80
   6   8  -4   37.14    2.08
   6  -8  -4   35.31    1.92
  -6   8  -4   35.91    1.89
  -6   8  -4   36.21    1.92
  -6  -8   4   36.72    2.20
  -6  -8   4   37.40    2.02
  -6   8  -4   37.24    2.05
   6   8  -5   54.15    2.62
  -6   8   5   57.55    2.67
  -6  -8  -5   54.75    2.34
   6  -8   5   61.29    3.00
  -6  -8  -5   54.55    2.70
  -6  -8  -5   50.50    2.92
  -6  -8   5   54.30    2.63
  -6   8  -5   50.18    2.45
  -6   8  -5   54.93    2.69
   6  -8  -5   57.78    2.61
  -6  -8   5   57.09    2.88
  -6   8  -5   56.34    2.55
   6  -8  -5   53.38    2.86
   6   8  -6   29.68    2.05
  -6   8   6   31.26    2.09
   6   8  -6   33.75    2.44
  -6  -8  -6   31.55    2.45
  -6  -8   6   34.22    2.37
  -6  -8   6   32.21    2.15
   6  -8  -6   31.42    2.05
  -6   8  -6   31.86    1.98
  -6   8  -6   29.30    2.17
   6  -8  -6   34.16    2.52
  -7  -8   0    0.25    0.42
  -7  -8   0   -0.25    0.49
  -7   8   0    0.35    0.48
   7   8   0   -0.39    0.56
   7  -8   0    0.79    0.47
  -7  -8   0    0.72    0.50
  -7   8   0   -0.35    0.49
  -7   8   1    3.40    0.60
   7   8  -1    3.54    0.86
  -7  -8  -1    2.04    0.59
  -7  -8  -1    2.71    0.73
   7  -8   1    2.98    0.61
  -7  -8   1    3.53    0.83
  -7   8  -1    2.68    0.76
  -7  -8   1    2.77    0.65
  -7  -8   1    2.74    0.65
  -7   8  -1    2.62    0.64
   7   8   1    1.53    0.63
   7  -8  -1    4.05    0.74
  -7  -8  -2    0.05    0.50
   7  -8   2    0.05    0.40
  -7  -8  -2   -0.14    0.45
   7   8  -2   -0.85    0.58
  -7   8   2    0.65    0.57
   7  -8  -2   -0.13    0.45
  -7   8  -2    0.49    0.56
  -7  -8   2    0.62    0.60
  -7  -8   2    0.13    0.49
  -7  -8   2    0.46    0.51
   7   8   2    0.34    0.53
  -7   8  -2    0.75    0.59
  -7  -8  -3    0.35    0.60
   7   8  -3    1.03    0.72
  -7   8   3    0.74    0.59
  -7  -8  -3   -0.65    0.37
  -7   8  -3    0.21    0.55
  -7  -8   3   -0.75    0.49
   7  -8  -3   -0.25    0.49
  -7  -8   3    0.59    0.72
  -7   8  -3    0.10    0.56
  -7  -8   3    0.45    0.48
   7   8   3    0.57    0.48
  -7   8   4   -0.65    0.59
  -7  -8  -4    0.11    0.50
  -7  -8  -4    0.14    0.66
   7   8  -4   -0.19    0.65
   7  -8   4    0.79    0.76
  -7   8  -4    1.41    0.72
  -7   8  -4    1.09    0.65
  -7  -8   4    0.09    0.69
  -7  -8   4    1.00    0.80
   7  -8  -4   -0.05    0.55
  -7  -8  -5    1.81    0.93
  -7   8   5    0.71    0.68
   7  -8   5    1.34    0.99
  -7  -8  -5    0.33    0.88
   7   8  -5    1.94    0.81
  -7  -8  -5    0.00    0.51
  -7  -8   5    0.44    0.77
  -7   8  -5    0.55    0.69
  -7  -8   5    0.67    0.83
  -7   8  -5    0.80    0.72
   7  -8  -5    0.13    0.62
   7   8  -6    1.57    0.88
   7   8  -6   -0.85    0.98
  -7  -8  -6    1.34    1.08
  -7   8   6    0.01    0.72
  -7  -8  -6    0.79    1.01
  -7  -8   6    0.20    0.81
  -7   8  -6   -0.94    0.74
  -7   8  -6   -0.69    0.68
  -7   8  -6    0.96    0.84
   7  -8  -6    1.07    0.84
  -7  -8   6    1.14    0.87
   7  -8  -6   -0.60    0.94
  -8  -8   0   20.76    1.37
   8  -8   0   21.69    1.40
   8   8   0   25.11    1.61
  -8   8   0   22.54    1.38
  -8   8   0   26.20    1.79
  -8  -8   0   21.10    1.48
   8   8  -1  106.92    3.76
  -8  -8  -1  106.26    3.62
  -8  -8  -1  102.58    3.71
   8  -8   1  105.17    3.43
  -8   8   1  109.51    4.02
  -8  -8   1  108.04    3.72
  -8   8  -1  100.26    3.86
  -8  -8   1  108.06    3.94
   8  -8  -1  108.11    3.66
   8   8   1  105.32    3.52
  -8   8  -1  108.88    3.57
   8   8  -2    8.99    1.22
   8  -8   2    9.04    0.94
  -8  -8  -2    9.10    1.12
  -8  -8  -2   10.49    1.23
  -8  -8   2   10.77    1.20
   8   8   2   11.36    1.07
  -8   8  -2   12.75    1.39
  -8  -8   2   10.64    1.40
  -8  -8   2   11.48    1.26
   8  -8  -2    8.95    1.11
  -8   8  -2    9.30    1.10
  -8  -8  -3   88.76    3.32
   8   8  -3   82.03    3.43
  -8   8   3   81.23    3.33
  -8  -8  -3   86.93    3.41
  -8  -8   3   84.60    3.19
  -8  -8   3   88.92    3.68
  -8   8  -3   94.99    3.60
  -8  -8   3   85.00    3.39
   8  -8  -3   81.47    3.30
  -8   8  -3   85.71    3.29
  -8   8   4    4.21    1.02
  -8  -8  -4    4.35    1.05
  -8  -8  -4    6.20    1.05
   8   8  -4    3.92    1.02
   8  -8  -4    5.23    1.05
  -8   8  -4    5.14    1.11
  -8  -8   4    5.85    1.26
  -8  -8   4    5.11    1.05
  -8   8  -4    4.35    0.95
  -8  -8  -5   44.63    2.26
  -8   8   5   48.86    2.65
   8   8  -5   43.80    2.59
  -8  -8  -5   43.57    2.69
   8  -8   5   52.64    3.00
  -8  -8   5   51.13    2.91
  -8  -8   5   46.96    2.60
  -8   8  -5   45.02    2.50
  -8   8  -5   46.87    2.65
   8  -8  -5   47.05    2.58
   9   8   0    3.49    0.85
   9  -8   0    6.10    0.94
  -9   8   0    4.85    1.07
  -9  -8   0    4.36    0.90
  -9   8   0    3.91    1.26
  -9  -8  -1    0.52    0.63
  -9  -8  -1    0.71    0.62
   9  -8   1    0.35    0.51
  -9   8   1    0.34    0.70
   9   8  -1    1.67    0.82
  -9   8  -1   -0.69    0.66
   9  -8  -1    0.33    0.55
  -9   8  -1    0.94    0.62
  -9  -8   1    0.15    0.59
   9   8   1    1.68    0.77
  -9  -8  -2   -0.57    0.58
   9   8  -2    0.51    0.81
  -9  -8  -2    0.24    0.63
   9  -8  -2   -0.47    0.49
  -9   8  -2   -0.51    0.58
  -9  -8   2    0.20    0.61
   9   8   2    0.41    0.57
  -9   8  -2    0.10    0.72
  -9  -8  -3    0.15    0.74
  -9  -8  -3    0.26    0.61
   9   8  -3    2.49    0.93
  -9   8  -3    2.75    0.99
  -9  -8   3    1.07    0.67
  -9  -8   3    1.85    0.94
   9  -8  -3   -0.08    0.63
  -9   8  -3    1.10    0.75
  -9  -8  -4   -0.18    0.59
   9   8  -4    1.43    0.92
  -9  -8  -4    0.59    0.84
  -9   8   4    1.92    0.92
   9  -8  -4    0.80    0.76
  -9  -8   4    0.69    0.77
  -9  -8   4    1.05    0.92
  -9   8  -4    0.35    0.78
  -9   8  -4   -0.11    0.82
 -10  -8   0    3.33    0.90
 -10   8   0    4.03    1.06
  10  -8   0    1.47    0.68
  10   8   0    3.30    0.95
 -10   8   1   72.44    3.51
  10   8  -1   76.30    3.23
 -10  -8  -1   72.99    3.13
 -10  -8  -1   78.29    3.29
 -10  -8   1   78.51    3.28
  10   8   1   77.13    2.96
  10  -8  -1   73.87    3.07
 -10   8  -1   82.31    3.62
 -10   8  -1   74.16    3.01
 -10   8   2    0.19    0.75
 -10  -8  -2    1.55    0.80
 -10  -8  -2    1.65    0.82
  10   8  -2    1.36    0.90
 -10   8  -2    0.91    0.90
  10  -8  -2    1.19    0.73
 -10  -8   2    1.31    0.71
 -10   8  -2    1.04    0.81
   0  -9   0   -0.46    0.33
   0   9   0   -0.16    0.36
   0  -9   0    0.08    0.35
   0  -9  -1  138.02    3.99
   0  -9  -1  142.21    3.85
   0  -9   1  131.13    4.05
   0  -9   1  130.03    3.92
   0   9  -1  128.75    3.90
   0  -9  -2    0.47    0.34
   0  -9   2   -0.07    0.42
   0   9   2    0.06    0.40
   0   9  -2    0.28    0.40
   0  -9   2    0.27    0.56
   0  -9  -2    0.03    0.28
   0   9  -2    0.04    0.22
   0  -9  -2    0.24    0.41
   0  -9  -3  155.79    4.59
   0   9  -3  163.95    4.62
   0   9   3  158.29    4.60
   0  -9   3  171.77    4.64
   0  -9  -3  157.81    4.51
   0  -9   3  160.29    5.02
   0   9  -3  162.94    4.34
   0  -9  -4    0.43    0.46
   0   9  -4   -0.41    0.30
   0   9  -4    0.23    0.43
   0   9  -4    0.69    0.43
   0  -9   4   -0.51    0.62
   0  -9   4   -0.21    0.45
   0  -9  -4   -0.12    0.44
   0   9   4   -0.28    0.39
   0  -9  -5   84.94    3.19
   0  -9   5   80.33    3.38
   0   9   5   81.54    2.92
   0   9  -5   88.59    2.78
   0  -9   5   83.10    2.85
   0   9  -5   87.03    3.04
   0  -9  -6    0.03    0.62
   0   9   6   -0.14    0.46
   0   9  -6   -0.10    0.57
   0  -9   6    0.93    0.93
   0  -9   6   -0.18    0.55
   0  -9  -7   49.68    2.79
   0  -9   7   47.21    2.80
   0   9   7   50.46    2.29
   0  -9   7   53.10    2.23
   0   9  -7   51.87    2.62
  -1  -9   0   18.30    1.12
   1  -9   0   14.63    1.04
   1  -9   0   15.44    1.07
   1   9   0   16.72    1.12
  -1  -9   0   14.99    1.05
  -1   9   0   16.43    1.08
  -1  -9  -1  246.85    6.51
  -1  -9  -1  265.58    6.71
   1  -9   1  253.77    6.82
   1  -9   1  261.56    6.63
   1   9  -1  242.45    6.65
  -1  -9  -1  246.56    6.15
  -1   9   1  242.62    6.60
   1   9   1  261.84    6.70
  -1  -9   1  239.51    6.77
   1  -9  -1  248.91    6.63
   1  -9  -1  252.43    6.57
  -1  -9   1  233.16    6.60
  -1   9  -1  251.30    6.60
   1   9  -2    2.28    0.36
  -1  -9  -2    3.68    0.67
   1   9  -2    3.45    0.62
   1  -9   2    2.28    0.58
  -1  -9  -2    2.88    0.49
   1  -9   2    3.78    0.73
  -1  -9  -2    2.69    0.45
  -1   9   2    3.77    0.62
  -1   9  -2    2.95    0.34
   1  -9  -2    4.01    0.56
  -1   9  -2    3.51    0.59
  -1   9  -2    2.81    0.37
   1  -9  -2    2.60    0.44
   1  -9  -2    2.45    0.55
  -1  -9   2    2.33    0.52
  -1  -9   2    2.55    0.71
   1   9   2    3.71    0.68
  -1  -9  -3  110.66    3.50
   1  -9   3  124.43    4.00
   1   9  -3  117.98    3.63
   1   9  -3  114.08    3.35
  -1  -9  -3  114.20    3.61
  -1   9   3  120.02    3.65
  -1  -9   3  126.26    3.66
  -1  -9   3  115.26    3.97
   1  -9  -3  114.43    3.48
   1   9   3  116.18    3.63
  -1  -9   3  122.62    3.30
  -1   9  -3  119.00    3.53
  -1   9  -3  115.22    3.30
   1  -9  -3  118.49    3.62
   1   9  -4    6.26    0.84
  -1   9   4    6.05    0.79
  -1  -9  -4    6.92    0.88
   1  -9   4    8.89    0.85
   1  -9   4    8.15    1.17
   1   9  -4    6.36    0.77
  -1  -9  -4    6.84    0.95
  -1  -9   4    7.84    0.88
  -1   9  -4    5.19    0.71
   1  -9  -4    6.29    0.85
   1  -9  -4    5.18    0.74
  -1   9  -4    7.00    0.77
   1   9   4    7.88    0.89
  -1  -9   4    7.00    1.10
   1   9  -5   91.11    3.20
  -1   9   5   96.28    3.24
   1   9  -5   92.27    2.86
   1  -9   5   90.90    3.63
  -1  -9  -5   91.81    3.41
   1  -9   5   93.35    2.99
  -1  -9   5   94.37    3.15
  -1  -9   5   96.61    3.66
  -1   9  -5   93.70    3.03
  -1   9  -5   91.02    3.20
   1   9   5   89.69    3.09
   1  -9  -5   90.30    3.38
   1  -9  -5   93.34    3.68
   1   9  -6    0.51    0.65
  -1   9   6   -0.50    0.46
  -1  -9  -6   -0.36    0.59
   1  -9   6   -0.18    0.78
   1  -9   6    0.79    0.54
   1   9   6    0.67    0.53
  -1   9  -6    0.46    0.45
  -1  -9   6   -0.73    0.80
   1  -9  -6    0.72    0.76
  -1   9  -6   -0.15    0.57
  -1  -9   6    0.62    0.59
  -1   9   7   41.22    2.07
   1   9  -7   39.95    2.33
   1  -9   7   36.96    2.50
   1  -9   7   41.53    2.03
  -1  -9  -7   34.04    2.38
  -1   9  -7   40.26    2.44
   1   9   7   38.11    1.95
   1  -9  -7   39.52    2.55
  -1  -9   7   39.36    2.01
  -1  -9   7   40.39    2.53
  -2  -9   0   31.11    1.47
  -2   9   0   32.37    1.48
   2   9   0   29.83    1.50
  -2  -9   0   35.32    1.56
  -2  -9   0   29.92    1.48
   2  -9   0   32.05    1.48
  -2  -9  -1  202.09    5.58
   2  -9   1  193.08    5.71
  -2  -9  -1  207.19    5.62
   2   9  -1  204.80    5.62
   2  -9   1  208.35    5.56
  -2  -9  -1  209.14    5.42
  -2   9   1  201.18    5.53
   2  -9  -1  199.81    5.07
  -2  -9   1  199.13    5.45
  -2  -9   1  204.15    5.73
  -2  -9   1  204.17    5.60
  -2   9  -1  201.96    5.55
   2  -9  -1  202.39    5.54
   2  -9   2    7.47    0.99
  -2  -9  -2    6.33    0.78
  -2  -9  -2    6.07    0.85
   2  -9   2    7.72    0.82
   2   9  -2    7.49    0.90
  -2   9   2    6.92    0.81
  -2  -9  -2    6.35    0.70
   2   9   2    8.00    0.84
  -2  -9   2    8.52    0.78
  -2   9  -2    7.22    0.79
  -2   9  -2    6.03    0.52
   2  -9  -2    6.50    0.80
  -2  -9   2    8.26    1.05
  -2   9  -2    7.44    0.65
  -2  -9   2    9.72    0.96
   2  -9  -2    6.39    0.64
   2  -9   3  201.49    5.87
  -2  -9  -3  195.12    5.56
  -2  -9  -3  202.02    5.48
  -2  -9  -3  196.60    5.47
   2  -9   3  192.93    5.30
   2   9  -3  195.37    5.28
   2   9  -3  190.84    5.52
  -2   9   3  195.65    5.54
   2  -9  -3  194.84    5.36
  -2   9  -3  192.01    5.72
  -2   9  -3  187.41    5.07
  -2  -9   3  198.32    5.53
  -2  -9   3  204.23    5.18
  -2   9  -3  198.17    5.41
  -2   9  -3  191.01    5.18
   2   9   3  199.67    5.50
  -2  -9   3  196.55    5.84
   2  -9   4   23.62    1.25
  -2   9   4   23.32    1.41
   2   9  -4   24.05    1.37
  -2  -9  -4   25.66    1.47
  -2  -9  -4   25.82    1.52
   2  -9   4   26.17    1.75
   2   9  -4   22.79    1.42
  -2   9  -4   23.86    1.30
  -2  -9   4   23.23    1.71
   2   9   4   24.27    1.41
   2  -9  -4   26.16    1.50
  -2  -9   4   26.95    1.50
   2  -9  -4   25.54    1.43
  -2   9  -4   22.91    1.30
   2  -9   5  115.28    3.44
   2  -9   5  116.93    4.26
  -2  -9  -5  110.37    4.00
   2   9  -5  114.19    3.87
  -2  -9  -5  120.98    3.80
  -2   9   5  111.38    3.83
   2   9  -5  118.55    4.06
   2  -9  -5  120.77    3.85
  -2  -9   5  117.51    3.81
  -2   9  -5  112.27    3.65
   2  -9  -5  116.88    4.00
   2   9   5  119.72    3.75
  -2   9  -5  117.59    3.81
  -2  -9   5  116.67    4.27
   2  -9   6    3.73    1.09
   2  -9   6    3.28    0.61
  -2  -9  -6    2.39    0.89
  -2   9   6    2.78    0.71
   2   9  -6    4.19    0.91
  -2   9  -6    3.81    0.72
  -2  -9   6    4.16    1.14
   2   9   6    3.51    0.76
  -2  -9   6    3.67    0.84
   2  -9  -6    2.50    0.88
   2   9  -7   45.53    2.52
   2  -9   7   39.62    3.18
  -2   9   7   44.89    2.28
  -2  -9  -7   41.35    2.66
  -2  -9   7   46.06    2.68
  -2  -9   7   45.81    2.26
   2  -9  -7   44.12    2.72
  -3  -9   0   33.79    1.57
  -3   9   0   34.26    1.51
   3   9   0   30.75    1.57
  -3  -9   0   33.30    1.53
   3  -9   0   32.95    1.50
  -3  -9   0   34.46    1.59
  -3  -9  -1  152.47    4.61
   3   9  -1  163.34    4.74
  -3  -9  -1  166.03    4.69
  -3   9   1  162.03    4.65
   3  -9   1  159.48    4.63
  -3  -9  -1  166.52    4.51
  -3   9  -1  164.47    4.63
  -3  -9   1  163.08    4.84
   3   9   1  157.49    4.66
   3  -9  -1  165.89    4.66
  -3  -9   1  168.94    4.73
  -3  -9   1  166.07    4.60
   3   9  -2   21.55    1.35
  -3  -9  -2   21.90    1.24
   3  -9   2   20.86    1.19
  -3  -9  -2   23.00    1.33
  -3  -9  -2   22.59    1.02
  -3  -9  -2   20.16    1.22
   3  -9   2   21.00    1.44
  -3   9   2   21.64    1.29
   3  -9  -2   23.11    1.29
  -3   9  -2   22.17    1.19
  -3   9  -2   23.22    1.14
  -3  -9   2   19.27    1.42
   3   9   2   19.52    1.23
  -3  -9   2   19.66    1.29
  -3  -9   2   19.71    1.15
  -3   9  -2   24.40    1.27
   3  -9   3  121.37    3.65
  -3   9   3  125.38    3.97
   3  -9   3  127.29    4.29
   3   9  -3  122.53    3.96
  -3  -9  -3  125.17    3.94
  -3  -9  -3  127.31    3.92
  -3  -9   3  131.73    3.98
  -3  -9   3  131.17    4.29
  -3  -9   3  130.49    3.62
  -3   9  -3  123.89    3.82
   3  -9  -3  124.19    3.83
  -3   9  -3  120.14    3.61
   3   9   3  129.93    3.86
   3  -9  -3  128.08    3.93
  -3   9  -3  127.10    3.68
  -3   9   4   25.71    1.54
   3   9  -4   26.73    1.51
  -3  -9  -4   24.19    1.44
   3   9  -4   25.31    1.54
  -3  -9  -4   23.67    1.57
   3  -9   4   23.35    1.69
   3  -9   4   24.40    1.21
   3  -9  -4   26.70    1.50
  -3   9  -4   25.02    1.41
  -3  -9   4   24.34    1.75
   3  -9  -4   24.97    1.53
  -3   9  -4   25.97    1.53
  -3   9  -4   26.02    1.40
   3   9   4   23.91    1.34
  -3  -9   4   23.61    1.49
   3  -9   5   44.63    1.65
  -3  -9  -5   42.92    1.97
   3   9  -5   45.91    2.19
   3  -9   5   46.69    2.45
  -3  -9  -5   40.96    2.24
   3   9  -5   43.02    2.10
  -3   9   5   42.44    2.10
   3   9   5   42.19    1.86
  -3  -9   5   46.86    2.15
   3  -9  -5   42.78    2.05
  -3   9  -5   42.73    2.05
  -3  -9   5   43.37    2.41
  -3   9  -5   41.13    1.94
   3  -9  -5   41.86    2.19
  -3   9   6   18.27    1.48
   3  -9   6   16.53    1.86
   3   9  -6   17.79    1.67
  -3  -9  -6   16.68    1.71
   3   9   6   19.17    1.28
  -3  -9   6   18.36    1.88
   3  -9  -6   20.39    1.73
  -3  -9   6   15.97    1.48
  -3   9  -6   16.47    1.61
  -3   9  -6   16.88    1.32
  -3  -9  -7   33.92    2.46
  -3   9   7   35.28    2.11
   3   9  -7   33.50    2.24
   3  -9  -7   40.67    2.59
  -3  -9   7   35.72    2.10
  -3   9  -7   31.37    1.85
  -3  -9   7   34.72    2.40
  -4  -9   0   69.81    2.48
  -4   9   0   65.42    2.36
  -4  -9   0   69.35    2.45
  -4  -9   0   64.43    2.11
   4   9   0   67.70    2.48
  -4  -9   0   68.95    2.44
   4  -9   0   64.39    2.34
  -4  -9  -1   69.76    2.42
   4   9  -1   72.37    2.64
  -4  -9  -1   71.59    2.39
  -4   9   1   74.76    2.59
   4  -9   1   69.40    2.48
  -4  -9  -1   68.89    2.55
  -4  -9   1   74.14    2.73
  -4  -9   1   76.47    2.53
   4   9   1   71.24    2.55
   4  -9  -1   69.90    2.51
  -4   9  -1   70.43    2.46
  -4   9  -1   70.93    2.49
  -4  -9   1   77.00    2.63
  -4  -9  -2   47.25    1.74
   4  -9   2   51.86    1.96
  -4  -9  -2   50.67    2.08
   4   9  -2   47.94    2.12
  -4  -9  -2   50.55    2.00
  -4  -9  -2   46.45    1.94
  -4  -9  -2   50.43    2.11
  -4   9   2   49.25    2.10
   4  -9  -2   50.09    2.05
  -4   9  -2   46.40    1.91
  -4  -9   2   50.81    2.29
  -4   9  -2   49.19    2.00
  -4  -9   2   52.65    2.14
  -4  -9   2   55.39    1.99
   4   9   2   49.82    2.00
   4  -9   3   50.64    1.96
  -4   9   3   53.89    2.28
  -4  -9  -3   57.09    2.37
  -4  -9  -3   59.62    2.29
   4  -9   3   49.83    2.46
  -4  -9  -3   55.84    2.29
   4   9  -3   55.09    2.33
  -4  -9   3   53.37    1.99
  -4  -9   3   52.00    2.47
  -4   9  -3   57.16    2.12
  -4   9  -3   56.20    2.10
  -4  -9   3   52.23    2.27
   4   9   3   54.90    2.11
   4  -9  -3   56.16    2.26
  -4   9  -3   54.76    2.17
   4  -9   4   30.72    2.02
  -4  -9  -4   27.23    1.76
   4   9  -4   26.53    1.67
  -4  -9  -4   29.96    1.60
  -4   9   4   31.90    1.76
  -4   9  -4   27.51    1.55
   4  -9  -4   28.98    1.73
  -4   9  -4   29.12    1.59
  -4   9  -4   25.69    1.44
   4  -9  -4   29.04    1.65
  -4  -9   4   28.86    1.92
  -4  -9   4   27.48    1.66
   4   9   4   27.59    1.44
   4  -9   5   55.09    2.69
   4   9  -5   53.90    2.53
   4   9  -5   53.04    2.42
  -4  -9  -5   52.20    2.62
  -4   9   5   52.00    2.42
  -4  -9  -5   52.53    2.23
   4  -9  -5   51.43    2.36
  -4  -9   5   48.59    2.33
   4   9   5   48.68    2.00
  -4   9  -5   48.64    2.23
  -4  -9   5   54.18    2.71
   4  -9  -5   53.21    2.53
  -4   9  -5   49.66    2.33
   4   9  -6   15.23    1.64
  -4   9   6   11.50    1.38
  -4  -9  -6   13.52    1.67
   4  -9   6   14.86    1.77
   4  -9  -6   12.41    1.34
  -4  -9   6   13.66    1.51
  -4  -9   6   13.53    1.72
   4  -9  -6   14.92    1.67
  -4   9  -6   14.29    1.37
   4   9  -7   27.70    2.21
  -4  -9  -7   24.54    2.36
  -4   9   7   23.69    1.83
  -4   9  -7   25.49    1.74
  -4  -9   7   23.82    1.90
  -4  -9   7   20.59    2.15
   4  -9  -7   27.91    2.29
  -5  -9   0   61.05    2.34
  -5  -9   0   62.23    2.41
  -5  -9   0   65.55    2.37
   5  -9   0   57.08    2.25
  -5  -9   0   58.82    2.07
  -5   9   0   62.71    2.24
  -5   9   0   62.91    2.30
   5   9   0   63.77    2.41
  -5  -9  -1   48.80    1.92
   5  -9   1   51.72    1.99
  -5  -9  -1   49.31    2.00
   5   9  -1   47.50    2.13
  -5  -9  -1   47.23    1.96
  -5   9   1   49.59    2.07
  -5  -9  -1   49.46    2.08
   5   9   1   53.18    2.09
  -5   9  -1   50.12    2.00
   5  -9  -1   47.51    2.02
  -5  -9   1   53.65    2.25
  -5  -9   1   53.20    2.09
  -5  -9   1   54.03    2.15
  -5   9  -1   46.48    2.07
  -5   9   2   43.48    1.98
  -5  -9  -2   43.08    1.93
   5   9  -2   39.39    1.98
   5  -9   2   45.01    1.83
  -5  -9  -2   42.22    1.87
  -5   9  -2   40.11    1.87
   5   9   2   44.67    1.87
  -5  -9   2   43.47    1.83
  -5  -9   2   40.05    2.09
  -5   9  -2   38.68    1.79
   5  -9  -2   43.75    1.94
  -5  -9   2   41.01    1.96
  -5  -9  -3   52.95    2.24
   5  -9   3   53.06    1.95
  -5   9   3   52.71    2.33
   5  -9   3   54.81    2.55
  -5  -9  -3   53.62    2.49
  -5  -9  -3   57.14    2.35
   5   9  -3   53.31    2.38
   5  -9  -3   53.30    2.29
  -5   9  -3   51.66    2.19
  -5  -9   3   55.59    2.58
  -5  -9   3   52.34    2.32
   5   9   3   52.05    2.06
  -5  -9   3   54.80    2.07
  -5   9  -3   52.84    2.19
  -5  -9  -4   25.34    1.71
  -5  -9  -4   21.24    1.72
  -5  -9  -4   24.39    1.50
   5   9  -4   23.67    1.66
   5  -9   4   22.43    1.82
  -5   9   4   25.20    1.66
   5   9   4   24.12    1.31
   5  -9  -4   22.55    1.53
  -5   9  -4   24.22    1.54
   5  -9  -4   22.14    1.64
  -5  -9   4   23.60    1.62
  -5   9  -4   26.51    1.54
  -5  -9   4   26.46    1.88
  -5   9  -4   23.98    1.56
  -5  -9  -5   21.21    1.85
   5   9  -5   21.40    1.83
   5   9  -5   21.56    1.68
  -5   9   5   20.17    1.61
   5  -9   5   21.67    1.88
  -5  -9  -5   24.40    1.49
  -5  -9   5   24.17    1.71
  -5   9  -5   23.70    1.81
   5  -9  -5   23.10    1.63
  -5  -9   5   22.34    1.90
   5  -9  -5   23.68    1.85
  -5   9  -5   20.77    1.53
   5   9  -6   17.28    1.84
  -5   9   6   16.13    1.64
   5   9  -6   16.53    1.66
   5  -9   6   19.54    2.00
  -5  -9  -6   16.89    1.92
   5  -9  -6   18.81    1.94
  -5  -9   6   17.29    1.70
  -5  -9   6   20.35    2.07
  -5   9  -6   16.88    1.57
   5  -9  -6   18.04    1.72
  -6  -9   0   45.02    2.07
  -6   9   0   45.95    1.87
   6   9   0   45.57    2.05
  -6  -9   0   44.35    1.77
  -6  -9   0   44.50    1.93
  -6  -9   0   43.40    1.98
   6  -9   0   43.73    1.91
  -6  -9  -1   48.87    2.18
   6  -9   1   49.11    2.02
  -6  -9  -1   50.85    2.12
  -6   9   1   53.48    2.00
   6   9  -1   48.01    2.23
  -6   9   1   53.00    2.21
  -6  -9  -1   47.50    2.01
  -6  -9   1   52.66    2.18
   6  -9  -1   55.27    2.19
  -6  -9   1   50.18    2.33
  -6   9  -1   53.21    2.12
  -6   9  -1   53.01    2.29
  -6  -9   1   50.29    2.18
   6   9   1   52.10    2.15
   6   9  -2   77.50    2.97
  -6   9   2   79.16    2.53
  -6   9   2   81.28    2.95
  -6  -9  -2   71.31    2.75
  -6  -9  -2   73.56    2.84
   6  -9   2   72.85    2.62
  -6  -9   2   76.54    2.88
   6   9   2   77.68    2.68
  -6   9  -2   73.87    2.76
  -6   9  -2   75.73    2.90
   6  -9  -2   76.76    2.85
  -6  -9   2   77.14    3.10
  -6  -9   2   73.31    2.73
  -6  -9  -3   34.34    1.89
   6   9  -3   33.89    2.00
  -6   9   3   35.16    1.92
  -6  -9  -3   32.33    1.77
  -6   9  -3   38.20    1.92
  -6  -9   3   35.21    2.10
   6   9   3   30.71    1.55
  -6  -9   3   32.60    1.87
  -6   9  -3   35.86    1.84
  -6  -9   3   34.24    1.66
   6  -9  -3   34.02    1.83
   6   9  -4   39.11    2.19
   6  -9   4   40.77    2.42
  -6   9   4   36.89    2.09
  -6  -9  -4   37.20    2.34
  -6  -9  -4   38.19    1.95
  -6  -9  -4   37.96    2.13
  -6  -9   4   36.06    2.28
  -6   9  -4   41.29    2.06
  -6  -9   4   36.83    2.08
   6  -9  -4   39.57    2.07
  -6   9  -4   35.84    1.97
  -6   9   5   22.81    1.78
  -6  -9  -5   21.99    2.08
   6   9  -5   21.65    1.76
  -6  -9  -5   22.39    1.93
  -6  -9  -5   21.18    1.48
   6  -9   5   24.63    2.08
   6  -9  -5   23.26    1.98
  -6  -9   5   22.92    1.84
  -6   9  -5   23.87    1.67
  -6  -9   5   23.94    2.02
   6  -9  -5   21.48    1.68
  -6   9  -5   21.89    1.67
   6   9  -6   23.35    1.89
   6   9  -6   26.41    2.27
  -6  -9  -6   22.89    2.26
  -6   9   6   25.62    1.98
  -6  -9   6   24.83    2.21
   6  -9  -6   29.25    2.24
   6  -9  -6   24.62    1.89
  -6   9  -6   25.61    1.85
  -6  -9   6   22.22    2.00
  -7  -9   0   23.48    1.80
  -7   9   0   23.61    1.39
   7  -9   0   22.77    1.40
  -7  -9   0   21.35    1.53
  -7  -9   0   23.97    1.53
  -7   9   0   25.51    1.70
   7   9   0   26.19    1.62
   7  -9   1   25.30    1.46
   7   9  -1   30.73    1.78
  -7  -9  -1   26.39    1.50
  -7   9   1   25.85    1.40
  -7  -9  -1   23.51    1.57
  -7  -9   1   25.38    1.57
  -7   9  -1   28.13    1.57
   7  -9  -1   26.12    1.55
  -7   9  -1   27.60    1.78
   7   9   1   28.50    1.62
  -7  -9   1   27.93    1.59
  -7  -9   1   27.83    1.79
  -7  -9  -2   51.79    2.30
  -7  -9  -2   49.59    2.29
   7  -9   2   53.31    2.11
  -7   9   2   48.50    2.31
   7   9  -2   52.94    2.48
   7  -9  -2   48.54    2.26
  -7  -9   2   55.32    2.61
   7   9   2   51.60    2.13
  -7  -9   2   48.09    2.19
  -7   9  -2   50.01    2.42
  -7   9  -2   54.31    2.32
  -7  -9   2   47.71    2.28
  -7  -9  -3   13.20    1.36
   7   9  -3   15.98    1.56
  -7   9   3   12.59    1.36
  -7  -9  -3   13.29    1.34
  -7  -9   3   12.87    1.21
  -7  -9   3   10.33    1.43
   7  -9  -3   16.27    1.36
   7   9   3   12.05    1.05
  -7   9  -3   15.48    1.47
  -7   9  -3   13.53    1.33
  -7  -9   3   15.14    1.50
   7  -9   4   29.93    2.23
  -7  -9  -4   37.65    2.22
  -7   9   4   34.01    2.10
  -7  -9  -4   36.03    1.97
   7   9  -4   34.06    2.17
  -7  -9   4   35.46    2.33
  -7  -9   4   37.68    2.19
  -7   9  -4   36.69    2.12
  -7   9  -4   36.61    2.08
   7  -9  -4   37.96    2.12
  -7   9   5   11.69    1.50
  -7  -9  -5    9.19    1.16
  -7  -9  -5   12.16    1.77
   7   9  -5   12.55    1.55
  -7  -9  -5   12.60    1.54
   7  -9   5   14.02    1.91
  -7  -9   5   12.60    1.77
  -7   9  -5   12.38    1.46
  -7  -9   5   12.51    1.53
   7  -9  -5    9.86    1.35
   7  -9  -5   10.23    1.64
  -7   9  -5   13.45    1.47
  -8   9   0   75.95    2.80
   8   9   0   75.61    2.99
  -8   9   0   78.17    3.26
   8  -9   0   78.16    2.89
  -8  -9   0   76.79    3.05
  -8  -9  -1    4.31    0.80
   8   9  -1    4.01    0.99
   8  -9   1    2.28    0.62
  -8  -9  -1    4.85    0.87
   8   9   1    3.83    0.84
  -8  -9   1    3.30    0.92
  -8  -9   1    4.24    0.84
  -8   9  -1    4.00    0.79
  -8   9  -1    3.38    0.90
   8  -9  -1    5.62    0.91
   8  -9   2   49.05    2.12
  -8  -9  -2   53.03    2.45
  -8  -9  -2   52.34    2.43
   8   9  -2   51.24    2.57
  -8   9  -2   50.97    2.58
  -8   9  -2   53.03    2.39
  -8  -9   2   48.19    2.62
   8   9   2   52.06    2.19
  -8  -9   2   53.67    2.42
  -8  -9   2   55.65    2.49
   8  -9  -2   52.21    2.42
   8   9  -3    4.49    1.10
  -8   9   3    1.80    0.79
  -8  -9  -3    4.37    0.97
  -8  -9  -3    3.13    0.80
  -8   9  -3    5.71    1.00
   8  -9  -3    1.85    0.77
  -8  -9   3    2.22    0.74
  -8  -9   3    6.05    1.27
  -8   9  -3    3.21    0.98
  -8  -9   3    2.75    0.88
   8  -9   4   24.90    2.12
  -8  -9  -4   25.67    2.00
  -8   9   4   22.56    1.84
  -8  -9  -4   23.21    1.67
   8   9  -4   22.49    1.92
   8  -9  -4   24.25    1.84
  -8   9  -4   24.25    1.94
  -8   9  -4   25.51    1.83
  -8  -9   4   26.53    1.96
  -8  -9   4   17.96    2.03
  -8  -9  -5    2.77    0.84
  -8   9   5    3.30    1.03
  -8  -9  -5    4.25    1.20
   8   9  -5    2.46    1.01
   8  -9   5    3.11    1.24
  -8  -9   5    4.72    1.19
  -8  -9   5    4.69    1.26
   8  -9  -5    2.88    0.97
  -8   9  -5    4.64    1.12
  -8   9  -5    4.58    1.11
   9   9   0   28.66    1.86
  -9   9   0   25.68    2.02
   9  -9   0   25.65    1.62
  -9  -9   0   24.91    1.79
  -9  -9  -1    1.11    0.70
   9   9  -1    1.14    0.85
   9  -9   1    1.76    0.66
  -9   9   1    1.02    0.88
  -9  -9  -1    1.45    0.71
   9  -9  -1    2.17    0.73
  -9   9  -1    1.91    0.98
  -9  -9   1    2.03    0.77
  -9   9  -1    0.20    0.61
   9   9   1    1.18    0.76
  -9  -9  -2   35.84    2.09
  -9  -9  -2   32.35    2.00
   9   9  -2   35.32    2.23
  -9  -9   2   32.55    2.01
   9  -9  -2   36.15    2.08
  -9   9  -2   31.78    1.96
  -9   9  -2   39.50    2.41
   9   9   2   31.80    1.78
  -9  -9   2   36.36    2.37
  -9  -9  -3    0.02    0.76
  -9  -9  -3   -0.23    0.52
   9   9  -3    1.04    0.89
  -9   9  -3   -0.48    0.68
  -9  -9   3    1.35    0.75
   9  -9  -3    1.21    0.74
  -9  -9   3    0.39    0.89
  -9   9  -3    0.40    0.87
 -10   9   0   50.75    2.85
 -10  -9   0   45.31    2.49
  10   9   0   49.73    2.45
  10  -9   0   44.65    2.27
  10   9  -1    0.71    0.85
 -10   9   1    0.71    0.89
 -10  -9  -1    0.74    0.74
 -10   9  -1    0.29    0.86
  10   9   1    0.39    0.72
 -10  -9   1   -0.40    0.71
 -10   9  -1    0.12    0.69
  10  -9  -1    1.41    0.74
   0  10   0    7.70    0.90
   0 -10   0    8.22    0.94
   0 -10   0    7.55    0.90
   0 -10  -1   -0.19    0.40
   0  10  -1   -0.68    0.40
   0 -10   1   -0.28    0.43
   0  10   1   -0.21    0.43
   0 -10  -1    0.14    0.48
   0 -10   1    0.07    0.49
   0 -10  -2    8.31    0.90
   0  10  -2   10.41    1.00
   0 -10   2   11.65    1.27
   0 -10   2    8.37    0.92
   0 -10  -2    8.29    0.80
   0 -10  -2    8.63    0.65
   0  10   2    8.52    0.90
   0  10   3    0.22    0.45
   0  10  -3    0.32    0.46
   0 -10   3    0.55    0.52
   0 -10  -3    0.41    0.47
   0 -10  -3    0.01    0.36
   0 -10   3    1.40    0.74
   0  10  -4   18.72    1.14
   0 -10  -4   20.29    1.29
   0 -10   4   20.58    1.31
   0 -10   4   18.00    1.62
   0  10   4   18.50    1.26
   0 -10  -4   18.51    1.26
   0  10  -4   19.55    1.86
   0  10  -5    0.21    0.39
   0  10   5   -0.67    0.41
   0 -10  -5    0.27    0.57
   0 -10   5    0.05    0.55
   0 -10   5   -1.33    0.69
   0 -10  -6    2.60    0.84
   0  10   6    3.02    0.76
   0 -10   6    5.44    1.30
   0 -10   6    2.46    0.72
   0 -10   7   -0.92    0.96
   0  10   7   -0.35    0.55
   0 -10   7   -0.83    0.60
   0 -10  -7    0.45    0.86
   1 -10   0  451.02   11.67
  -1  10   0  458.56   11.63
  -1 -10   0  469.73   11.65
  -1 -10   0  464.53   11.66
   1  10   0  459.97   11.63
   1 -10   0  453.38   11.61
   1  10  -1   13.19    1.08
  -1 -10  -1   13.43    1.06
  -1 -10  -1   12.28    0.65
  -1 -10  -1   10.51    0.94
   1 -10   1   12.16    1.01
  -1  10   1    9.36    0.95
   1 -10   1   11.80    1.16
  -1 -10   1   11.90    1.10
   1 -10  -1   12.95    1.04
  -1  10  -1   12.94    1.02
   1  10   1   12.66    1.12
  -1 -10   1   12.22    1.24
   1 -10  -1   12.40    0.98
   1 -10   2  362.47    9.45
  -1 -10  -2  345.18    8.83
  -1 -10  -2  343.50    8.76
   1 -10   2  350.45    9.12
  -1 -10  -2  353.51    9.19
   1  10  -2  356.94    9.20
  -1  10   2  359.49    9.17
  -1  10  -2  347.91    9.09
   1 -10  -2  359.72    9.17
   1 -10  -2  344.82    8.70
  -1 -10   2  354.54    9.49
   1 -10  -2  359.61    8.97
   1  10   2  368.51    9.25
  -1  10  -2  340.42    8.60
  -1  10   3    8.02    0.90
  -1 -10  -3    9.18    0.99
  -1 -10  -3    9.37    0.89
   1 -10   3    7.85    1.13
   1  10  -3   11.02    1.08
  -1  10  -3    9.02    0.96
   1 -10  -3    8.72    0.83
   1  10   3    6.67    0.91
  -1 -10   3    8.19    1.20
  -1 -10   3    8.37    0.79
  -1 -10   3    8.11    0.91
   1 -10  -3   10.70    0.81
   1 -10  -3    7.31    0.88
  -1 -10  -4  175.24    5.23
   1 -10   4  186.15    5.74
  -1  10   4  179.61    5.24
   1  10  -4  180.67    5.22
   1 -10   4  180.44    5.06
  -1 -10   4  168.18    5.62
  -1 -10   4  186.27    5.24
   1 -10  -4  174.51    5.20
   1 -10  -4  177.69    5.19
  -1  10  -4  178.24    5.07
   1  10   4  178.57    5.22
   1 -10   5   21.70    2.06
   1 -10   5   21.62    1.36
  -1 -10  -5   21.35    1.56
   1  10  -5   24.11    1.22
  -1  10   5   22.48    1.45
   1 -10  -5   21.14    1.53
  -1 -10   5   19.42    1.43
  -1 -10   5   17.20    1.78
  -1  10  -5   20.90    1.28
   1  10   5   19.70    1.37
  -1 -10  -6  127.10    4.55
   1 -10   6  127.43    3.91
   1 -10   6  118.96    4.71
  -1  10   6  129.63    4.26
   1  10   6  122.85    4.11
  -1 -10   6  126.10    4.81
  -1  10  -6  124.78    3.99
  -1 -10   6  135.02    4.16
   1 -10  -6  136.35    4.61
   1 -10   7    5.16    1.36
  -1 -10  -7    2.75    1.02
   1 -10   7    2.19    0.75
  -1  10   7    2.66    0.83
   1  10   7    1.76    0.80
  -1 -10   7    2.34    1.18
  -1 -10   7    2.17    0.87
   1 -10  -7    2.64    1.02
   2 -10   0    5.88    0.84
   2  10   0    6.30    0.84
  -2 -10   0    5.21    0.75
   2 -10   0    5.71    0.77
  -2  10   0    6.11    0.80
  -2 -10   0    5.49    0.82
  -2 -10   0    6.83    0.89
  -2 -10  -1    0.08    0.42
  -2 -10  -1    0.21    0.45
   2 -10   1    0.48    0.57
   2  10  -1   -0.22    0.46
   2 -10   1    0.46    0.46
  -2  10   1    0.55    0.45
  -2 -10  -1    0.34    0.48
   2  10   1   -0.53    0.44
  -2 -10   1    0.39    0.53
  -2 -10   1    0.22    0.49
  -2  10  -1   -0.14    0.44
  -2 -10   1    0.93    0.64
   2 -10  -1    0.61    0.46
   2 -10   2    7.56    1.09
   2  10  -2    5.01    0.85
   2 -10   2    6.16    0.81
  -2 -10  -2    5.58    0.65
  -2  10   2    5.26    0.77
  -2 -10  -2    6.10    0.67
  -2 -10  -2    5.51    0.78
  -2  10  -2    6.49    0.64
   2 -10  -2    5.99    0.59
   2  10   2    6.54    0.84
  -2 -10   2    6.43    0.76
   2 -10  -2    6.34    0.79
  -2 -10   2    5.20    0.81
  -2  10  -2    6.62    0.80
  -2 -10   2    5.98    1.02
  -2  10   3    2.64    0.64
   2 -10   3    1.29    0.56
  -2 -10  -3    0.67    0.57
   2 -10   3    2.48    0.78
  -2 -10  -3    1.46    0.51
  -2 -10  -3    0.89    0.50
   2  10  -3    0.28    0.52
  -2 -10   3    1.15    0.45
  -2 -10   3    1.14    0.55
   2  10   3    1.53    0.59
   2 -10  -3    1.03    0.47
  -2 -10   3    1.23    0.74
   2 -10  -3    0.69    0.47
  -2  10  -3    0.49    0.45
  -2 -10  -4    0.29    0.54
   2 -10   4    0.72    0.53
  -2  10   4    1.16    0.54
   2  10  -4   -0.30    0.53
   2  10  -4    1.23    0.56
   2 -10   4    0.17    0.68
  -2 -10  -4    0.41    0.58
  -2 -10   4    0.57    0.75
  -2 -10   4    1.66    0.66
   2 -10  -4    1.58    0.57
   2 -10  -4    0.59    0.48
   2  10   4    0.72    0.55
  -2  10  -4    0.34    0.40
   2 -10   5    1.49    0.86
  -2 -10  -5    1.46    0.68
  -2  10   5    0.66    0.55
  -2 -10  -5    0.42    0.62
   2 -10   5   -0.01    0.50
   2 -10  -5    0.58    0.55
  -2 -10   5    1.18    0.83
   2 -10  -5    1.26    0.64
  -2  10  -5    1.94    0.59
   2  10   5    0.67    0.60
  -2 -10   5    0.72    0.67
  -2 -10  -6   -0.04    0.71
  -2  10   6   -0.30    0.51
   2 -10   6   -0.46    0.46
   2 -10   6   -0.25    0.86
  -2 -10   6   -0.57    0.60
   2 -10  -6   -0.15    0.66
  -2  10  -6    0.41    0.55
  -2 -10   6    0.91    0.91
   2  10   6    0.01    0.61
   2 -10   7   -0.08    1.02
  -2  10   7   -0.84    0.52
  -2 -10  -7    0.03    0.80
   2 -10  -7    0.10    0.86
  -2 -10   7   -0.03    1.00
   2  10   7    0.15    0.82
  -2 -10   7   -0.99    0.68
  -3 -10   0  339.01    8.56
  -3 -10   0  318.86    8.45
   3  10   0  315.64    8.50
  -3 -10   0  316.83    8.49
   3 -10   0  324.11    8.45
  -3  10   0  321.79    8.43
  -3 -10  -1   64.75    2.49
   3 -10   1   65.57    2.60
   3  10  -1   67.03    2.56
  -3  10   1   69.59    2.48
  -3 -10  -1   65.89    2.47
  -3 -10  -1   69.90    2.37
   3 -10   1   67.53    2.47
  -3 -10   1   65.76    2.52
   3 -10  -1   66.17    2.45
   3  10   1   62.62    2.48
  -3 -10   1   71.44    2.45
  -3  10  -1   64.00    2.44
  -3 -10   1   67.62    2.63
   3  10  -2  209.64    5.94
  -3 -10  -2  211.73    5.45
  -3 -10  -2  197.13    5.62
  -3 -10  -2  211.93    5.81
   3 -10   2  203.15    6.12
   3 -10   2  210.93    5.70
  -3  10   2  208.89    5.85
  -3 -10  -2  205.94    5.89
   3  10   2  203.40    5.78
  -3 -10   2  215.90    5.67
  -3  10  -2  211.03    5.69
  -3  10  -2  199.57    5.54
   3 -10  -2  197.83    5.46
  -3 -10   2  210.29    6.15
  -3 -10   2  216.23    5.92
   3 -10  -2  199.99    5.80
  -3 -10  -3   16.61    1.24
  -3 -10  -3   18.24    1.34
  -3  10   3   15.92    1.23
   3  10  -3   15.79    1.31
   3 -10   3   17.21    1.15
   3 -10   3   17.52    1.50
  -3 -10   3   19.44    1.11
  -3  10  -3   16.71    1.18
  -3  10  -3   16.20    1.01
   3 -10  -3   17.29    1.24
   3 -10  -3   16.25    1.14
   3  10   3   19.04    1.29
  -3 -10   3   20.10    1.58
  -3 -10   3   18.08    1.36
  -3  10   4  144.76    4.61
   3 -10   4  144.37    4.17
  -3 -10  -4  144.29    4.60
   3  10  -4  149.12    4.43
   3  10  -4  152.73    4.67
   3 -10   4  149.16    4.93
  -3 -10  -4  147.93    4.54
   3  10   4  148.62    4.39
  -3 -10   4  141.91    4.57
   3 -10  -4  143.88    4.49
  -3  10  -4  145.68    4.44
   3 -10  -4  140.35    4.52
  -3 -10   4  142.48    4.96
   3  10  -5   30.14    1.88
   3 -10   5   35.93    2.22
  -3 -10  -5   31.35    1.95
  -3  10   5   34.73    1.92
   3  10  -5   32.21    1.84
  -3 -10  -5   29.20    1.73
   3 -10   5   33.61    1.48
   3 -10  -5   31.78    1.93
   3  10   5   35.22    1.70
  -3  10  -5   32.64    1.76
  -3 -10   5   35.84    2.27
   3 -10  -5   30.32    1.78
  -3 -10   5   34.70    1.92
   3 -10   6   84.13    3.66
  -3 -10  -6   74.48    3.41
  -3  10   6   85.54    3.29
  -3  10  -6   73.28    2.95
  -3 -10   6   79.00    3.60
  -3 -10   6   78.17    3.14
   3 -10  -6   71.14    3.24
  -3 -10  -7   10.23    1.60
  -3  10   7    7.04    1.18
  -3 -10   7    6.34    1.40
  -3 -10   7    8.79    1.27
  -3  10  -7   10.08    1.20
   3 -10  -7    7.66    1.39
  -4 -10   0    3.87    0.78
  -4  10   0    3.06    0.64
   4 -10   0    3.09    0.64
  -4 -10   0    2.72    0.54
  -4 -10   0    4.24    0.75
  -4 -10   0    3.93    0.75
   4  10   0    2.93    0.70
  -4 -10  -1    0.92    0.49
  -4 -10  -1    0.96    0.48
  -4 -10  -1    0.75    0.50
  -4  10   1    0.74    0.48
   4 -10   1    0.71    0.46
   4  10  -1    1.18    0.59
  -4 -10   1    0.29    0.49
  -4 -10   1    1.26    0.67
  -4  10  -1   -0.02    0.46
   4 -10  -1    0.95    0.50
  -4 -10   1    0.53    0.49
   4  10   1    1.07    0.59
  -4 -10  -2    8.89    0.94
   4 -10   2    8.72    1.11
   4  10  -2   11.76    1.17
   4 -10   2    8.22    0.91
  -4 -10  -2    9.31    1.03
  -4  10   2    7.51    0.96
  -4  10  -2    7.88    0.87
  -4  10  -2    7.09    0.87
  -4 -10   2    8.20    1.01
   4 -10  -2    7.62    0.92
  -4 -10   2    7.42    1.11
  -4 -10   2    6.49    0.85
   4  10   2    6.28    0.88
  -4 -10  -3    2.35    0.69
  -4 -10  -3    0.85    0.62
   4 -10   3    3.11    0.87
   4  10  -3    1.53    0.65
   4 -10   3    2.05    0.60
  -4  10   3    1.63    0.63
  -4 -10   3    2.51    0.71
   4 -10  -3    1.66    0.63
  -4  10  -3    1.16    0.48
  -4 -10   3    1.80    0.79
   4  10   3    1.33    0.60
   4 -10  -3    1.53    0.56
  -4 -10   3    2.27    0.55
  -4  10  -3    2.51    0.63
  -4 -10  -4    5.72    0.96
   4  10  -4    4.33    0.89
  -4  10   4    4.90    0.91
   4 -10   4    3.19    1.02
  -4 -10  -4    4.23    0.82
   4  10  -4    4.54    0.88
  -4  10  -4    4.86    0.83
   4 -10  -4    3.52    0.82
  -4 -10   4    3.79    1.01
   4  10   4    1.95    0.64
  -4 -10   4    6.89    1.04
   4 -10  -4    4.29    0.82
  -4 -10  -5   -0.32    0.50
  -4 -10  -5    1.20    0.77
   4  10  -5   -0.89    0.60
  -4  10   5   -0.08    0.54
   4  10  -5   -0.54    0.57
   4 -10   5    0.22    0.78
  -4  10  -5    0.66    0.58
  -4 -10   5    0.81    0.87
  -4 -10   5   -0.60    0.69
   4  10   5    0.79    0.56
   4 -10  -5    0.02    0.63
   4 -10  -5    0.12    0.55
  -4 -10  -6    4.97    1.14
   4 -10   6    4.27    1.23
   4  10  -6    5.64    1.54
  -4  10   6    6.27    1.10
  -4 -10   6    4.98    1.25
  -4  10  -6    5.14    0.94
  -4 -10   6    7.64    1.19
   4 -10  -6    4.17    0.91
   4 -10  -6    5.02    1.14
  -4  10   7   -0.02    0.69
  -4 -10  -7   -0.35    0.91
  -4  10  -7   -0.01    0.60
  -4 -10   7    0.79    0.85
   4 -10  -7    0.29    0.89
  -4 -10   7    0.39    0.96
   5  10   0  138.24    4.29
  -5 -10   0  138.91    4.28
   5 -10   0  130.49    4.12
  -5  10   0  138.56    4.12
  -5 -10   0  132.18    3.84
  -5  10   0  135.88    4.15
  -5 -10   0  134.09    4.22
  -5 -10   0  139.72    4.22
  -5 -10  -1   91.92    3.06
  -5 -10  -1   94.10    3.18
  -5  10   1   89.30    3.11
   5  10  -1   88.94    3.19
  -5 -10  -1   87.90    2.92
  -5 -10  -1   94.09    3.05
   5 -10   1   83.14    2.98
   5  10   1   91.75    3.13
  -5  10  -1   86.96    3.12
  -5  10  -1   89.29    3.03
   5 -10  -1   90.98    3.11
  -5 -10   1   83.52    3.23
  -5 -10   1   83.42    3.11
  -5 -10   1   90.47    3.10
  -5 -10  -2  116.97    3.87
  -5 -10  -2  125.44    4.05
   5 -10   2  127.08    3.85
  -5  10   2  126.40    4.08
   5  10  -2  116.47    4.07
   5 -10  -2  124.92    4.03
  -5 -10   2  131.06    4.34
  -5  10  -2  121.96    3.95
  -5 -10   2  127.83    3.90
   5  10   2  124.62    3.91
  -5 -10   2  129.44    4.10
  -5 -10  -3  106.85    3.66
   5  10  -3  102.30    3.74
  -5 -10  -3  106.91    3.63
   5 -10   3  104.15    3.27
  -5 -10  -3  105.07    3.77
   5 -10   3   98.71    3.92
  -5  10   3  101.18    3.67
  -5 -10   3  102.26    3.35
   5  10   3  110.06    3.45
  -5  10  -3  106.57    3.50
  -5  10  -3  103.87    3.55
   5 -10  -3  104.98    3.63
  -5 -10   3  111.61    3.75
  -5 -10   3  106.91    3.98
   5  10  -4   92.02    3.42
  -5 -10  -4   81.96    3.12
  -5 -10  -4   86.47    3.43
   5 -10   4   77.83    3.55
  -5  10   4   87.24    3.32
   5 -10  -4   88.20    3.26
  -5 -10   4   86.01    3.60
  -5 -10   4   86.91    3.32
   5  10   4   81.56    2.87
  -5  10  -4   81.56    3.03
   5 -10  -4   82.87    3.24
  -5  10  -4   84.92    3.17
   5 -10   5   56.31    2.93
   5  10  -5   53.83    2.64
  -5  10   5   52.68    2.60
  -5 -10  -5   53.12    2.40
  -5 -10  -5   54.08    2.79
   5  10  -5   54.57    2.68
  -5  10  -5   55.90    2.52
  -5 -10   5   60.04    2.73
  -5 -10   5   57.15    2.98
   5 -10  -5   51.50    2.51
   5 -10  -5   50.85    2.64
  -5  10   6   29.67    2.06
   5 -10   6   35.01    2.47
  -5 -10  -6   29.42    2.31
   5  10  -6   31.80    2.99
  -5 -10   6   34.29    2.47
   5 -10  -6   29.47    2.00
   5 -10  -6   29.53    2.18
  -5  10  -6   30.05    1.96
  -5 -10   6   28.94    2.14
  -6 -10   0    0.36    0.53
   6  10   0    0.80    0.63
  -6 -10   0    0.59    0.50
   6 -10   0    0.39    0.51
  -6 -10   0   -0.17    0.53
  -6  10   0   -0.02    0.47
  -6  10   1    1.81    0.58
   6 -10   1    3.00    0.65
  -6 -10  -1    1.98    0.61
   6  10  -1    0.69    0.70
  -6 -10  -1    1.03    0.54
  -6  10   1    2.25    0.68
  -6 -10  -1    2.61    0.62
  -6 -10   1    2.69    0.77
  -6  10  -1    3.04    0.70
  -6  10  -1    1.37    0.62
  -6 -10   1    2.71    0.69
   6 -10  -1    2.52    0.64
  -6 -10   1    2.19    0.72
   6  10   1    1.95    0.68
  -6 -10  -2    0.75    0.55
  -6  10   2    1.15    0.66
   6  10  -2    0.10    0.67
   6 -10   2    0.01    0.50
  -6  10   2    0.52    0.49
  -6 -10  -2    0.95    0.58
  -6  10  -2    1.49    0.62
   6 -10  -2    0.18    0.51
  -6  10  -2    0.47    0.55
  -6 -10   2    0.86    0.65
   6  10   2   -0.56    0.55
  -6 -10   2    0.34    0.51
  -6 -10   2    1.00    0.64
  -6 -10  -3    0.37    0.54
   6  10  -3    0.36    0.71
  -6 -10  -3    0.59    0.63
   6 -10   3    0.24    0.72
  -6  10   3    0.52    0.60
   6 -10   3    0.00    0.47
  -6 -10   3    1.10    0.77
   6 -10  -3    0.47    0.57
   6  10   3    0.02    0.58
  -6 -10   3    1.01    0.52
  -6  10  -3    0.29    0.57
  -6  10  -3    1.29    0.63
  -6 -10   3   -0.19    0.60
   6  10  -4    0.04    0.75
  -6 -10  -4    0.08    0.83
  -6 -10  -4   -0.15    0.68
  -6  10   4    0.21    0.62
   6 -10   4    1.64    0.91
  -6 -10  -4    1.80    0.70
  -6 -10   4   -0.17    0.70
  -6  10  -4    0.82    0.64
  -6  10  -4    0.30    0.66
  -6 -10   4    0.80    0.78
   6  10   4    1.01    0.62
   6 -10  -4    1.06    0.68
   6 -10   5    0.26    0.94
  -6 -10  -5    0.07    0.58
  -6  10   5    0.39    0.70
   6  10  -5    0.62    0.79
  -6 -10  -5    0.34    0.88
  -6 -10   5   -0.82    0.73
   6 -10  -5    1.01    0.72
   6 -10  -5    1.01    0.88
  -6 -10   5   -0.04    0.81
  -6  10  -5   -0.06    0.66
   6 -10   6   -0.49    0.95
   6  10  -6   -0.22    0.79
   6  10  -6    0.35    1.05
  -6  10   6   -0.17    0.66
  -6 -10  -6   -0.61    0.94
   6 -10  -6    1.10    0.79
  -6 -10   6   -0.82    0.82
  -6 -10   6   -1.19    0.73
  -6  10  -6   -0.15    0.68
   6 -10  -6    1.04    0.95
  -7 -10   0   21.13    1.51
   7  10   0   19.06    1.54
  -7  10   0   17.19    1.29
   7 -10   0   19.64    1.37
  -7 -10   0   17.87    1.46
  -7  10   0   20.29    1.63
  -7  10   1   84.18    2.88
   7 -10   1   84.02    3.00
  -7 -10  -1   79.37    3.16
  -7 -10  -1   84.15    3.00
   7  10  -1   83.65    3.25
  -7 -10  -1   81.72    3.09
   7 -10  -1   83.37    3.09
  -7  10  -1   80.44    3.29
  -7  10  -1   87.42    3.08
  -7 -10   1   85.81    3.18
  -7 -10   1   89.29    3.41
   7  10   1   86.67    3.13
  -7 -10   1   85.50    3.16
  -7 -10  -2   32.12    1.84
  -7 -10  -2   33.09    1.89
  -7  10   2   31.96    1.89
   7 -10   2   33.95    1.75
   7  10  -2   35.62    2.10
  -7 -10   2   35.75    2.18
  -7  10  -2   36.35    1.92
   7  10   2   34.85    1.80
   7 -10  -2   33.48    1.88
  -7  10  -2   31.74    1.99
  -7 -10   2   34.17    1.95
  -7 -10   2   33.48    1.84
  -7  10   3   95.45    3.56
  -7 -10  -3   92.69    3.48
  -7 -10  -3   87.44    3.38
   7  10  -3   86.51    3.55
  -7 -10   3   90.39    3.49
   7  10   3   85.25    3.02
  -7  10  -3   94.99    3.44
  -7 -10   3   93.62    3.81
  -7 -10   3   89.44    3.25
  -7  10  -3   87.84    3.48
   7 -10  -3   85.36    3.39
   7  10  -4   20.22    1.88
   7 -10   4   20.56    2.10
  -7 -10  -4   20.40    1.56
  -7 -10  -4   14.22    1.57
  -7  10   4   16.53    1.70
  -7 -10   4   19.15    2.06
  -7  10  -4   13.84    1.45
  -7 -10   4   18.50    1.77
   7 -10  -4   15.39    1.57
  -7  10  -4   16.41    1.60
  -7 -10  -5   41.21    2.58
   7  10  -5   46.11    2.57
  -7 -10  -5   36.66    2.12
   7 -10   5   39.49    2.75
  -7  10   5   36.62    2.36
  -7 -10  -5   40.24    2.74
  -7 -10   5   40.05    2.67
   7 -10  -5   42.07    2.64
   7 -10  -5   39.66    2.36
  -7  10  -5   36.31    2.29
  -7 -10   5   40.22    2.48
  -7  10  -5   41.56    2.44
  -8 -10   0    4.12    0.98
   8 -10   0    4.04    0.84
  -8 -10   0    4.78    0.95
   8  10   0    4.21    0.97
  -8  10   0    3.05    0.76
  -8  10   0    2.78    0.95
  -8 -10  -1   -0.20    0.58
   8 -10   1    0.04    0.51
  -8 -10  -1   -0.27    0.56
   8  10  -1   -0.03    0.76
   8  10   1    0.50    0.71
  -8 -10   1   -0.33    0.71
   8 -10  -1    0.37    0.56
  -8  10  -1    0.32    0.72
  -8  10  -1    0.04    0.62
  -8 -10   1    0.40    0.56
   8  10  -2    0.62    0.82
  -8 -10  -2    0.23    0.63
   8 -10   2    0.33    0.60
  -8 -10  -2    0.92    0.67
  -8 -10   2    0.01    0.62
  -8  10  -2    0.25    0.67
  -8 -10   2    1.21    0.85
   8 -10  -2    1.03    0.66
  -8  10  -2    1.21    0.85
   8  10   2    0.29    0.65
  -8 -10   2    0.00    0.83
   8  10  -3    0.15    0.86
  -8  10   3    0.41    0.69
  -8 -10  -3    0.61    0.62
  -8 -10  -3   -1.01    0.64
  -8 -10   3    0.34    0.70
  -8 -10   3    0.33    0.89
  -8  10  -3    0.34    0.70
   8 -10  -3   -0.12    0.57
  -8 -10   3   -0.09    0.61
  -8  10  -3    0.40    0.72
  -8 -10  -4    1.35    0.73
   8  10  -4    1.92    1.03
   8 -10   4    0.51    0.98
  -8  10   4    0.73    0.79
  -8 -10  -4    1.31    0.95
  -8 -10   4    1.24    0.95
  -8  10  -4    1.35    0.85
  -8  10  -4    1.72    0.88
   8 -10  -4   -0.38    0.67
  -8 -10   4    0.42    0.91
   9  10   0    7.05    1.18
  -9 -10   0    6.88    1.14
   9 -10   0    5.87    1.00
  -9  10   0    6.89    1.30
  -9 -10  -1   62.64    2.84
  -9  10   1   56.77    3.03
   9  10  -1   61.80    2.91
   9 -10   1   61.68    2.58
   9 -10  -1   60.62    2.70
  -9 -10   1   59.88    2.82
  -9  10  -1   61.51    3.08
   9  10   1   62.06    2.69
  -9  10  -1   63.99    2.72
   9  10  -2    3.42    1.08
  -9 -10  -2    3.07    0.98
  -9 -10  -2    4.49    1.01
  -9 -10   2    3.84    1.16
   9  10   2    2.89    0.84
  -9  10  -2    3.33    1.08
  -9  10  -2    3.58    0.87
   9 -10  -2    2.77    0.84
  -9 -10   2    3.42    0.90
   9  10  -3   71.38    3.28
  -9 -10  -3   65.94    2.98
  -9 -10  -3   70.75    3.17
  -9  10  -3   67.70    3.03
  -9  10  -3   64.26    3.24
  -9 -10   3   64.85    3.36
  -9 -10   3   58.22    2.81
   9 -10  -3   63.92    3.00
  10 -10   0    0.38    0.66
 -10 -10   0    0.33    0.68
 -10  10   0    1.08    0.95
   0 -11   0    0.21    0.47
   0 -11   0   -0.20    0.45
   0  11   0   -0.30    0.47
   0  11   1   73.84    2.78
   0 -11  -1   83.93    2.72
   0  11  -1   82.12    2.79
   0 -11   1   70.68    2.73
   0 -11  -1   84.56    2.85
   0 -11   1   71.75    2.84
   0  11   2   -0.26    0.48
   0 -11   2   -0.67    0.48
   0 -11  -2    0.39    0.54
   0  11  -2    0.92    0.52
   0 -11   2    0.01    0.62
   0 -11  -2    0.42    0.41
   0 -11   3  129.00    4.04
   0  11  -3  127.18    4.01
   0 -11  -3  130.20    4.10
   0 -11   3  131.44    4.46
   0  11   3  129.17    4.08
   0 -11  -3  125.42    3.74
   0  11   4    0.69    0.55
   0 -11  -4   -0.21    0.44
   0 -11   4    0.56    0.78
   0 -11  -4    0.02    0.48
   0 -11   4    0.06    0.57
   0 -11   5   71.72    2.69
   0  11   5   70.42    2.75
   0 -11   5   66.81    3.24
   0 -11  -5   70.72    2.83
   0  11  -5   66.84    2.50
   0 -11   6    0.03    1.00
   0  11   6   -0.03    0.56
   0 -11  -6   -1.48    0.56
   0 -11   6    0.46    0.66
   0 -11   7   45.76    2.20
   0 -11   7   47.22    2.96
   0  11   7   46.89    2.33
   0 -11  -7   44.59    2.66
  -1 -11   0    1.19    0.60
   1  11   0    0.55    0.56
  -1  11   0    1.21    0.58
   1 -11   0    0.93    0.57
   1 -11   0    0.03    0.51
  -1 -11   0   -0.12    0.52
   1  11  -1  202.92    5.98
  -1  11   1  208.81    6.00
   1 -11   1  209.26    6.11
  -1 -11  -1  216.83    5.90
   1 -11   1  213.99    5.95
  -1 -11  -1  220.58    6.01
   1 -11  -1  216.90    5.96
   1  11   1  223.72    6.02
   1 -11  -1  208.01    6.01
  -1 -11   1  214.55    6.03
  -1 -11   1  218.85    6.20
  -1  11  -1  208.36    5.91
  -1 -11  -2    1.29    0.59
   1 -11   2    2.06    0.63
  -1 -11  -2    2.38    0.57
   1 -11   2    0.47    0.65
  -1  11   2    2.15    0.63
   1  11  -2    1.91    0.66
   1 -11  -2    1.80    0.56
   1 -11  -2    1.37    0.59
   1  11   2    1.20    0.56
  -1  11  -2    0.92    0.56
  -1 -11   2    1.75    0.76
  -1 -11  -3   93.59    2.97
   1  11  -3  101.72    3.32
  -1 -11  -3   93.71    3.27
  -1  11   3   96.99    3.25
   1 -11   3   98.23    3.59
  -1 -11   3   87.47    3.54
  -1 -11   3   94.19    3.26
  -1 -11   3   89.53    2.92
   1 -11  -3   94.75    2.98
   1  11   3   95.78    3.31
  -1  11  -3   91.68    3.14
   1 -11  -3   94.59    3.24
  -1 -11  -4    3.07    0.68
   1 -11   4    3.36    0.96
  -1  11   4    4.17    0.81
   1  11  -4    3.13    0.75
   1 -11   4    3.53    0.75
  -1 -11   4    3.07    1.02
  -1  11  -4    2.62    0.61
  -1 -11   4    2.95    0.81
   1 -11  -4    3.19    0.74
   1 -11  -4    3.34    0.68
   1  11   4    2.07    0.66
   1 -11   5   98.69    3.95
  -1  11   5   93.48    3.41
  -1 -11  -5   93.57    3.47
   1 -11   5  100.61    3.24
   1  11  -5   94.42    3.09
  -1  11  -5   93.60    3.20
   1 -11  -5   92.77    3.42
  -1 -11   5   88.40    3.86
  -1 -11   5   99.51    3.41
   1  11   5   93.48    3.39
  -1 -11  -6    0.37    0.77
  -1 -11  -6    0.28    0.73
  -1  11   6    0.49    0.61
   1 -11   6    0.29    1.05
   1 -11   6    1.54    0.69
  -1  11  -6    0.58    0.56
   1  11   6    0.73    0.67
  -1 -11   6    0.83    0.74
  -1 -11   6   -0.72    0.95
   1 -11  -6    0.28    0.75
   1 -11   7   45.30    2.22
   1 -11   7   44.21    2.90
  -1 -11  -7   46.46    2.69
  -1  11   7   46.39    2.36
  -1 -11   7   42.42    2.23
   1 -11  -7   44.14    2.58
   1  11   7   43.16    2.27
  -1 -11   7   36.43    2.75
   2 -11   0   43.63    1.96
   2  11   0   41.94    1.97
  -2  11   0   43.16    1.96
  -2 -11   0   40.91    1.96
  -2 -11   0   46.67    1.98
   2 -11   0   40.21    1.96
  -2 -11   0   47.65    2.04
   2 -11   1   90.18    3.03
   2  11  -1   82.89    3.04
  -2  11   1   85.89    3.00
  -2 -11  -1   93.62    3.11
  -2 -11  -1   87.15    2.91
   2 -11   1   85.54    3.21
  -2  11  -1   88.26    3.02
   2 -11  -1   86.77    3.01
   2 -11  -1   84.05    2.95
  -2 -11   1   88.55    3.22
  -2 -11   1   86.14    3.07
  -2 -11   1   85.45    2.94
   2  11  -2    4.89    0.88
  -2 -11  -2    5.23    0.69
  -2 -11  -2    4.86    0.81
  -2  11   2    5.09    0.82
   2 -11   2    5.53    1.01
  -2 -11  -2    4.81    0.63
   2 -11   2    6.64    0.86
  -2 -11   2    4.84    0.85
  -2 -11   2    5.88    0.79
  -2  11  -2    4.10    0.55
   2  11   2    6.91    0.92
  -2  11  -2    5.81    0.85
  -2 -11   2    5.43    1.02
   2 -11  -2    3.57    0.70
   2  11  -3   51.02    2.23
  -2 -11  -3   45.50    1.93
  -2 -11  -3   42.17    2.12
  -2 -11  -3   51.28    2.13
  -2  11   3   50.09    2.17
   2 -11   3   49.72    2.41
   2 -11   3   43.07    1.97
  -2 -11   3   50.68    2.20
  -2 -11   3   51.47    1.92
   2 -11  -3   46.96    2.00
   2 -11  -3   47.55    2.11
   2  11   3   50.84    2.15
  -2 -11   3   49.75    2.49
   2  11  -4   11.46    1.22
  -2 -11  -4    8.75    1.04
   2 -11   4    9.99    1.04
  -2 -11  -4    8.66    1.15
  -2  11   4    8.48    1.06
   2 -11   4    8.91    1.33
  -2 -11   4    8.08    1.26
   2 -11  -4   10.49    1.13
   2 -11  -4    9.73    1.03
   2  11   4    8.61    1.04
  -2 -11   4    8.86    1.07
  -2  11  -4   10.11    1.07
   2 -11   5   31.08    1.62
  -2  11   5   37.37    1.96
   2 -11   5   35.21    2.31
  -2 -11  -5   31.81    1.89
  -2 -11  -5   33.54    1.94
   2  11   5   30.21    1.80
   2 -11  -5   36.27    1.92
  -2 -11   5   33.71    1.91
   2 -11  -5   33.60    1.89
  -2  11  -5   34.36    1.77
  -2 -11   5   34.83    2.37
   2 -11   6    4.76    0.77
   2 -11   6    4.34    1.22
  -2 -11  -6    3.71    1.01
  -2  11   6    2.79    0.82
  -2 -11  -6    4.86    1.00
   2  11   6    3.27    0.84
  -2 -11   6    4.59    1.30
  -2 -11   6    3.80    0.94
  -2  11  -6    3.29    0.79
   2 -11  -6    1.09    0.76
   2 -11   7   18.65    2.15
  -2 -11  -7   19.60    1.93
  -2  11   7   21.59    1.74
  -2 -11   7   22.06    2.34
   2  11   7   21.70    1.65
  -2 -11   7   20.69    1.75
   2 -11  -7   19.56    1.99
   3  11   0   50.76    2.21
  -3 -11   0   53.58    2.24
  -3 -11   0   47.17    2.16
  -3 -11   0   56.56    2.22
  -3  11   0   49.19    2.13
   3 -11   0   52.35    2.17
  -3 -11  -1  126.01    4.05
   3 -11   1  126.09    4.19
  -3 -11  -1  133.22    3.87
   3 -11   1  129.00    3.98
  -3 -11  -1  123.69    3.97
  -3  11   1  124.69    3.95
   3  11  -1  124.53    4.06
  -3 -11   1  127.41    4.07
   3  11   1  116.66    3.96
  -3  11  -1  124.13    3.95
  -3 -11   1  127.27    4.19
   3 -11  -1  128.50    3.98
  -3 -11   1  127.00    3.92
  -3 -11  -2   41.90    1.93
  -3 -11  -2   42.55    2.03
  -3 -11  -2   41.03    1.76
   3 -11   2   38.17    2.13
   3 -11   2   42.35    1.87
  -3  11   2   40.27    1.93
   3  11  -2   45.48    2.09
  -3 -11   2   42.85    2.23
  -3  11  -2   38.20    1.64
   3 -11  -2   42.54    1.95
   3  11   2   39.33    1.91
  -3 -11   2   37.79    1.95
  -3 -11   2   43.15    1.84
  -3  11  -2   44.71    2.01
   3 -11   3  111.16    4.11
  -3 -11  -3  108.87    3.63
   3  11  -3  118.30    3.91
  -3  11   3  119.17    3.87
   3 -11   3  107.33    3.55
  -3 -11  -3  111.16    3.85
  -3 -11   3  116.63    4.21
  -3  11  -3  117.64    3.75
   3 -11  -3  112.00    4.03
  -3 -11   3  116.25    3.52
   3 -11  -3  115.77    3.82
   3  11   3  117.69    3.77
  -3 -11   3  120.63    3.93
  -3 -11  -4   18.59    1.48
   3  11  -4   21.95    1.59
  -3  11   4   21.37    1.53
   3 -11   4   19.53    1.73
  -3 -11  -4   19.28    1.49
  -3 -11   4   25.73    1.68
   3 -11  -4   22.21    1.52
   3 -11  -4   20.70    1.38
   3  11   4   20.23    1.42
  -3 -11   4   21.82    1.87
  -3  11  -4   22.23    1.44
   3  11  -5   49.81    2.40
  -3  11   5   53.99    2.49
   3 -11   5   48.40    2.70
   3 -11   5   48.98    1.98
  -3 -11  -5   52.01    2.39
  -3 -11  -5   50.34    2.46
  -3 -11   5   47.89    2.77
   3  11   5   49.59    2.18
  -3  11  -5   48.53    2.24
  -3 -11   5   51.29    2.42
   3 -11  -5   48.30    2.35
   3 -11  -5   51.52    2.39
   3 -11   6   28.98    2.28
  -3 -11  -6   27.72    2.16
  -3 -11  -6   28.99    2.09
  -3  11   6   25.85    1.85
  -3  11  -6   27.90    1.76
  -3 -11   6   22.08    1.80
   3 -11  -6   29.48    2.01
   3  11   6   26.71    1.64
  -3 -11   6   27.86    2.29
  -3 -11  -7   36.82    2.57
   3 -11   7   37.33    2.65
  -3  11   7   41.86    2.38
  -3 -11   7   39.82    2.35
  -3  11  -7   38.16    2.13
  -3 -11   7   36.17    2.72
   3 -11  -7   37.16    2.53
  -4 -11   0   26.19    1.58
  -4  11   0   27.89    1.53
  -4 -11   0   25.48    1.54
  -4 -11   0   28.86    1.65
   4  11   0   28.54    1.68
   4 -11   0   28.87    1.57
  -4 -11  -1   32.02    1.60
   4 -11   1   33.68    1.73
  -4  11   1   31.62    1.70
   4  11  -1   32.93    1.82
  -4 -11  -1   32.96    1.75
  -4 -11   1   33.40    1.87
  -4 -11   1   35.91    1.84
  -4 -11   1   32.73    1.70
   4  11   1   30.13    1.74
  -4  11  -1   31.43    1.67
   4 -11  -1   34.08    1.72
   4  11  -2   35.24    1.90
  -4  11   2   35.94    1.83
   4 -11   2   32.72    1.67
   4 -11   2   31.96    1.96
  -4 -11  -2   31.87    1.79
  -4 -11   2   38.26    1.93
  -4 -11   2   32.49    1.66
   4  11   2   29.51    1.70
  -4 -11   2   34.04    2.02
  -4  11  -2   36.19    1.76
   4 -11  -2   35.88    1.80
  -4  11  -2   34.73    1.65
  -4 -11  -3   49.89    2.22
   4 -11   3   45.72    1.99
   4 -11   3   43.09    2.48
   4  11  -3   52.24    2.37
  -4  11   3   48.42    2.26
  -4 -11  -3   51.48    2.29
   4 -11  -3   45.06    2.71
  -4 -11   3   46.00    1.96
   4 -11  -3   51.45    2.25
  -4 -11   3   51.92    2.33
  -4  11  -3   45.65    1.95
  -4 -11   3   46.23    2.49
   4  11   3   43.73    2.11
  -4  11  -3   50.95    2.17
  -4 -11  -4   22.85    1.67
  -4 -11  -4   25.88    1.68
  -4  11   4   25.25    1.70
   4 -11   4   25.40    1.93
   4  11  -4   25.06    1.77
  -4  11  -4   22.31    1.54
   4 -11  -4   21.65    1.58
   4 -11  -4   21.91    1.53
  -4 -11   4   25.28    1.99
  -4 -11   4   24.92    1.75
   4  11   4   23.93    1.50
  -4 -11  -5   59.87    2.57
  -4  11   5   55.87    2.63
   4  11  -5   51.74    2.57
   4 -11   5   56.11    2.93
  -4 -11  -5   51.34    2.66
   4 -11  -5   56.71    2.59
   4  11   5   51.82    2.26
  -4 -11   5   51.38    2.92
  -4  11  -5   54.90    2.48
   4 -11  -5   54.78    2.55
  -4 -11   5   52.86    2.59
  -4  11   6   12.69    1.50
   4 -11   6   14.20    1.86
  -4 -11  -6   10.26    1.42
  -4  11  -6   10.70    1.29
  -4 -11   6    8.78    1.60
   4 -11  -6   12.25    1.97
  -4 -11   6   13.47    1.51
   4 -11  -6   11.99    1.55
  -5 -11   0   47.19    2.12
  -5 -11   0   43.07    2.07
   5 -11   0   47.28    2.07
  -5 -11   0   46.01    2.14
  -5  11   0   43.26    2.00
   5  11   0   50.92    2.26
  -5 -11  -1   50.49    2.13
   5  11  -1   49.69    2.34
   5 -11   1   55.10    2.25
  -5 -11  -1   51.34    2.30
  -5 -11  -1   51.58    2.30
  -5  11   1   52.20    2.26
  -5 -11  -1   50.72    2.07
  -5 -11   1   51.63    2.22
  -5 -11   1   50.19    2.41
  -5 -11   1   51.91    2.31
  -5  11  -1   47.21    2.19
   5 -11  -1   49.81    2.21
   5  11   1   51.76    2.30
  -5  11  -1   51.09    2.19
  -5 -11  -2   35.93    1.91
  -5 -11  -2   32.83    1.76
   5 -11   2   35.20    1.73
   5  11  -2   35.45    2.00
   5 -11   2   30.78    1.99
  -5  11   2   31.35    1.84
  -5 -11   2   33.73    2.08
  -5 -11   2   33.99    1.89
   5  11   2   34.72    1.84
  -5  11  -2   34.25    1.77
  -5  11  -2   33.93    1.78
  -5 -11   2   30.74    1.71
   5 -11  -2   32.31    1.78
  -5  11   3   61.80    2.66
   5 -11   3   60.61    2.32
   5 -11   3   59.01    2.92
   5  11  -3   57.48    2.71
  -5 -11  -3   62.00    2.64
  -5  11  -3   55.45    2.47
  -5 -11   3   63.68    2.96
  -5  11  -3   58.35    2.43
  -5 -11   3   64.49    2.42
   5 -11  -3   57.25    2.55
  -5 -11   3   64.69    2.76
   5  11   3   62.91    2.49
  -5 -11  -4   21.80    1.77
   5  11  -4   26.41    1.86
  -5  11   4   26.92    1.80
   5 -11   4   25.13    2.07
  -5 -11  -4   24.81    1.67
   5  11   4   24.84    1.56
   5 -11  -4   23.76    1.70
  -5 -11   4   26.37    2.06
  -5  11  -4   26.42    1.69
  -5 -11   4   25.17    1.81
   5 -11  -4   26.64    1.76
  -5 -11  -5   16.70    1.77
   5 -11   5   18.20    1.93
  -5  11   5   18.19    1.72
   5  11  -5   18.50    1.77
  -5 -11  -5   16.94    1.57
  -5  11  -5   20.67    1.72
  -5 -11   5   16.02    1.92
   5 -11  -5   17.15    1.66
  -5 -11   5   20.71    1.84
   5 -11  -5   16.34    1.58
  -5  11   6   13.68    1.58
  -5 -11  -6   13.64    1.75
   5 -11   6   16.56    1.94
   5 -11  -6   17.51    1.72
  -5 -11   6   18.80    1.86
  -5 -11   6   18.45    2.13
  -5  11  -6   14.16    1.54
   5 -11  -6   17.11    1.76
   6  11   0   53.53    2.43
  -6  11   0   52.78    2.24
  -6 -11   0   51.21    2.37
   6 -11   0   56.64    2.35
  -6 -11   0   54.72    2.37
  -6 -11   0   50.98    2.39
  -6 -11  -1   12.25    1.19
  -6  11   1   11.38    1.08
   6 -11   1   10.86    1.16
  -6  11   1   11.39    1.24
  -6 -11  -1   11.38    1.24
   6  11  -1   10.97    1.33
  -6 -11  -1   10.21    1.04
   6 -11  -1   12.27    1.26
  -6  11  -1   11.12    1.22
  -6 -11   1   14.47    1.34
  -6  11  -1   11.25    1.15
   6  11   1   12.98    1.30
  -6 -11   1   13.10    1.32
  -6 -11   1   10.87    1.35
  -6  11   2   63.80    2.69
  -6 -11  -2   58.21    2.59
  -6 -11  -2   61.96    2.53
   6 -11   2   58.59    2.40
   6  11  -2   60.46    2.75
  -6  11   2   61.40    2.33
  -6 -11   2   61.62    2.70
  -6 -11   2   61.33    2.53
  -6  11  -2   61.85    2.57
   6  11   2   60.95    2.53
   6 -11  -2   59.58    2.56
  -6 -11   2   62.98    2.90
  -6  11  -2   54.62    2.53
   6 -11   3   11.50    1.54
  -6  11   3   11.52    1.33
   6  11  -3   12.18    1.47
  -6 -11  -3   13.04    1.36
  -6 -11  -3   12.53    1.36
   6 -11   3   14.19    1.15
  -6  11  -3   14.49    1.40
  -6 -11   3   17.52    1.63
  -6 -11   3   13.13    1.62
  -6  11  -3   15.04    1.38
   6  11   3   13.82    1.26
   6 -11  -3   14.77    1.47
  -6 -11   3   12.95    1.20
   6  11  -4   19.59    1.82
   6 -11   4   21.74    2.16
  -6 -11  -4   16.38    1.73
  -6  11   4   20.96    1.71
  -6 -11  -4   12.94    1.43
   6 -11  -4   19.95    1.62
   6 -11  -4   15.69    2.13
  -6 -11   4   19.73    2.09
  -6 -11   4   21.71    1.78
  -6  11  -4   17.37    1.60
   6  11   4   19.43    1.41
  -6  11  -4   18.70    1.52
  -6 -11  -5    2.68    0.84
  -6  11   5    4.77    1.13
   6 -11   5    7.42    1.58
  -6 -11  -5    5.71    1.29
   6  11  -5    5.41    1.27
  -6 -11   5    3.11    1.16
  -6 -11   5    6.27    1.22
   6 -11  -5    4.38    1.03
  -6  11  -5    5.71    1.12
   6 -11  -5    3.56    1.11
  -7 -11   0   48.87    2.37
  -7  11   0   45.56    2.45
   7 -11   0   47.80    2.23
  -7 -11   0   51.50    2.44
  -7  11   0   49.97    2.20
   7  11   0   51.09    2.44
   7  11  -1   14.31    1.53
  -7  11   1   19.31    1.34
  -7 -11  -1   16.00    1.89
  -7 -11  -1   16.98    1.56
   7 -11   1   15.87    1.34
  -7 -11  -1   18.93    1.64
  -7  11  -1   16.56    1.40
  -7 -11   1   17.38    1.60
   7  11   1   20.36    1.56
   7 -11  -1   16.93    1.40
  -7 -11   1   16.92    1.51
  -7 -11   1   20.22    1.68
  -7  11  -1   19.76    1.61
   7 -11   2   56.69    2.45
  -7  11   2   58.80    2.69
  -7 -11  -2   59.82    2.69
  -7 -11  -2   61.36    2.61
   7  11  -2   61.55    2.87
   7  11   2   60.13    2.53
   7 -11  -2   58.73    2.62
  -7  11  -2   57.18    2.58
  -7 -11   2   63.77    2.76
  -7  11  -2   56.03    2.71
  -7 -11   2   61.63    2.98
  -7 -11   2   61.60    2.61
  -7  11   3   14.89    1.54
   7  11  -3   16.25    1.72
  -7 -11  -3   18.31    1.70
   7 -11   3   18.17    1.96
  -7 -11  -3   14.67    1.50
  -7  11  -3   15.39    1.52
  -7 -11   3   16.83    1.68
  -7 -11   3   22.64    1.96
  -7 -11   3   18.58    1.44
   7 -11  -3   18.85    1.57
  -7  11  -3   20.69    1.71
   7  11   3   17.59    1.40
  -7  11   4   55.30    2.79
  -7 -11  -4   54.16    2.82
  -7 -11  -4   56.16    2.64
   7  11  -4   57.00    2.91
   7 -11   4   49.43    3.02
  -7 -11   4   55.40    3.09
  -7 -11   4   54.03    2.79
  -7  11  -4   50.62    2.64
  -7  11  -4   58.89    2.75
   7 -11  -4   59.06    2.77
   7 -11   5   15.78    2.14
   7  11  -5   12.81    1.64
  -7  11   5   11.20    1.53
  -7 -11  -5   12.78    1.47
   7 -11  -5   10.45    1.38
  -7 -11   5   11.30    1.59
  -7  11  -5   12.47    1.56
  -7 -11   5   11.94    1.82
   8  11   0   38.18    2.21
  -8  11   0   42.27    2.07
   8 -11   0   43.88    2.16
  -8 -11   0   39.18    2.27
  -8 -11   0   37.26    2.16
  -8  11   0   43.68    2.47
  -8 -11  -1    3.73    0.90
   8 -11   1    2.36    0.75
   8  11  -1    2.24    0.98
  -8  11  -1    1.71    0.85
   8 -11  -1    1.88    0.79
  -8  11  -1    3.18    0.84
  -8 -11   1    1.20    0.83
   8  11   1    0.89    0.73
  -8 -11   1    1.91    0.73
  -8 -11  -2   28.30    1.91
   8 -11   2   29.45    1.77
  -8 -11  -2   32.83    2.03
   8  11  -2   29.49    2.15
  -8  11  -2   30.54    1.95
  -8 -11   2   32.88    1.94
  -8  11  -2   32.69    2.16
   8 -11  -2   31.47    1.97
  -8 -11   2   29.44    2.22
   8  11   2   30.65    1.84
  -8 -11  -3    1.12    0.82
   8  11  -3    2.86    1.07
  -8 -11  -3    3.93    0.93
  -8  11  -3    3.65    1.03
  -8 -11   3    4.28    0.90
  -8 -11   3    4.57    1.25
  -8 -11   3    4.28    1.07
  -8  11  -3    4.19    1.03
   8 -11  -3    3.01    0.92
  -8  11   4   31.25    2.20
  -8 -11  -4   31.82    2.30
   8  11  -4   33.79    2.37
  -8 -11  -4   31.07    2.02
   8 -11   4   29.07    2.49
   8 -11  -4   31.09    2.13
  -8  11  -4   28.61    2.09
  -8 -11   4   32.50    2.29
  -8  11  -4   30.71    2.22
  -8 -11   4   30.37    2.42
  -9  11   0   22.61    2.11
   9 -11   0   29.16    1.83
  -9 -11   0   27.25    1.91
   9  11   0   26.64    1.95
  -9  11   1    1.45    0.94
   9 -11   1    2.22    0.81
  -9 -11  -1    2.19    0.88
   9  11  -1    1.51    0.94
  -9  11  -1    1.54    0.73
  -9 -11   1    2.24    0.88
   9  11   1    2.32    0.92
   9 -11  -1    1.87    0.83
  -9 -11   1    0.42    0.85
  -9  11  -1    1.87    0.95
  -9 -11  -2   31.26    2.27
  -9 -11  -2   32.73    2.15
   9  11  -2   32.93    2.32
   9  11   2   33.54    1.96
  -9  11  -2   32.79    2.36
   9 -11  -2   40.76    2.24
  -9  11  -2   30.67    2.08
  -9 -11   2   32.41    2.06
  -9 -11   2   35.55    2.46
   0  12   0  332.06    8.91
   0 -12   0  341.37    8.96
   0 -12   0  339.86    8.99
   0 -12   1   -0.38    0.55
   0 -12   1   -0.69    0.51
   0  12  -1   -0.13    0.50
   0 -12  -1   -0.04    0.45
   0 -12  -1   -0.35    0.49
   0  12   1    0.86    0.61
   0 -12  -2  173.56    5.29
   0 -12  -2  177.32    4.96
   0  12   2  181.21    5.35
   0  12  -2  171.38    5.18
   0 -12   2  187.82    5.60
   0 -12   2  169.19    5.20
   0  12  -3    0.69    0.57
   0  12   3    0.77    0.55
   0 -12   3    0.54    0.75
   0 -12  -3    0.80    0.62
   0  12   4  157.78    4.95
   0 -12   4  156.93    5.41
   0 -12  -4  160.57    4.98
   0 -12   4  160.38    4.87
   0 -12   5    0.28    0.96
   0 -12  -5    0.56    0.76
   0  12   5   -0.56    0.53
   0 -12   5    0.60    0.68
   0  12  -5    0.41    0.50
   0  12   6   76.44    3.09
   0 -12   6   71.44    3.63
   0 -12  -6   77.01    3.27
   0 -12   6   74.99    2.94
   0 -12  -7    0.18    0.79
   0  12   7   -0.08    0.69
   0 -12   7   -0.88    0.65
   0 -12   7    0.39    1.04
   1 -12   0    7.62    1.03
  -1 -12   0    8.89    1.07
  -1  12   0    9.22    1.03
  -1 -12   0    8.30    1.06
   1 -12   0    8.41    1.04
   1  12   0    8.50    1.00
  -1  12   1   10.67    1.14
   1 -12   1   12.00    1.13
  -1 -12  -1   10.83    1.09
   1  12  -1    9.43    1.09
   1 -12   1   10.39    1.21
  -1 -12  -1   12.62    1.15
  -1  12  -1   10.26    1.07
   1 -12  -1    9.76    1.08
   1 -12  -1   12.07    1.27
  -1 -12   1    9.91    1.13
  -1 -12   1   10.96    1.28
   1  12   1   10.59    1.07
  -1 -12  -2    2.29    0.61
   1 -12   2    0.89    0.64
  -1  12   2    0.96    0.60
   1  12  -2    4.52    0.86
   1 -12   2    2.57    0.83
  -1 -12  -2    1.92    0.67
   1  12   2    1.52    0.65
  -1 -12   2    2.67    0.87
  -1 -12   2    2.41    0.74
  -1  12  -2    2.09    0.63
   1 -12  -2    3.52    0.71
   1 -12  -2    2.41    0.70
   1 -12   3    3.65    0.81
   1  12  -3    1.78    0.72
  -1 -12  -3    3.03    0.75
   1 -12   3    4.20    1.05
  -1  12   3    4.06    0.83
  -1 -12   3    3.55    0.69
   1  12   3    3.11    0.77
  -1 -12   3    2.96    0.79
   1 -12  -3    3.54    0.77
  -1 -12   3    2.12    0.90
  -1  12  -3    3.22    0.73
   1  12  -4    2.60    0.75
   1 -12   4    1.59    0.89
  -1  12   4    2.79    0.70
   1 -12   4    3.13    0.83
  -1 -12   4    3.00    0.85
   1 -12  -4    2.07    0.70
  -1  12  -4    2.38    0.60
  -1 -12   4    1.40    0.97
   1  12   4    2.42    0.75
   1 -12   5    0.02    0.61
  -1 -12  -5    0.35    0.61
  -1  12   5    0.81    0.65
   1 -12   5   -0.23    0.91
   1  12  -5    0.02    0.44
  -1 -12   5   -0.27    0.95
  -1 -12   5   -0.51    0.65
   1  12   5   -0.49    0.55
  -1  12  -5    0.17    0.48
   1 -12   6    2.62    1.30
  -1 -12  -6    2.49    0.95
   1 -12   6    3.42    0.81
  -1  12   6    2.57    0.84
  -1 -12  -6    3.83    0.98
  -1  12  -6    2.47    0.69
   1  12   6    2.52    0.81
  -1 -12   6    2.06    0.90
  -1 -12   6    2.13    1.21
   1 -12  -6    2.97    1.14
  -1  12   7    1.82    0.84
   1 -12   7    1.96    1.27
  -1 -12  -7    1.72    0.96
   1 -12   7    2.10    0.87
  -1 -12   7    2.06    1.29
  -1 -12   7    1.76    0.89
   1 -12  -7    1.92    1.09
   1  12   7    2.23    0.89
  -2 -12   0  120.86    3.86
  -2  12   0  118.91    3.85
  -2 -12   0  112.71    3.82
   2 -12   0  112.27    3.79
   2  12   0  119.89    3.86
  -2 -12   0  109.91    3.75
   2 -12   0  114.34    3.88
   2 -12   1   21.73    1.57
  -2 -12  -1   19.72    1.34
  -2 -12  -1   23.92    1.51
   2 -12   1   20.57    1.39
   2  12  -1   22.95    1.52
  -2  12   1   17.99    1.38
  -2 -12   1   17.56    1.53
  -2 -12   1   17.92    1.44
   2 -12  -1   22.17    1.44
   2 -12  -1   20.25    1.42
   2  12   1   21.27    1.45
  -2 -12   1   19.11    1.38
  -2  12  -1   25.06    1.47
  -2 -12  -2  171.10    4.92
   2 -12   2  160.47    5.15
   2  12  -2  156.02    4.93
   2 -12   2  162.41    4.83
  -2  12   2  153.25    4.86
   2 -12  -2  162.87    4.92
  -2  12  -2  168.71    4.82
  -2 -12   2  159.64    4.96
   2  12   2  166.38    4.89
  -2 -12   2  152.47    5.16
  -2 -12   2  150.25    4.66
   2 -12  -2  162.53    4.75
   2  12  -3   31.07    1.84
  -2  12   3   31.35    1.77
   2 -12   3   33.26    1.72
   2 -12   3   35.66    2.07
  -2 -12  -3   29.83    1.82
  -2 -12  -3   29.03    1.69
  -2 -12   3   31.99    1.57
   2  12   3   32.02    1.75
   2 -12  -3   32.16    1.78
  -2 -12   3   30.68    2.10
  -2 -12   3   30.23    1.79
   2 -12  -3   30.81    2.10
  -2  12   4  159.92    5.03
  -2 -12  -4  149.47    5.03
   2 -12   4  151.71    4.73
   2 -12   4  156.27    5.38
   2  12  -4  164.51    5.06
  -2 -12  -4  156.12    5.57
  -2 -12   4  152.48    5.44
   2 -12  -4  170.42    5.08
  -2  12  -4  165.32    4.91
  -2 -12   4  166.11    5.06
   2  12   4  158.96    4.94
  -2  12   5    6.69    1.06
  -2 -12  -5    7.11    1.05
   2 -12   5    9.88    1.63
  -2 -12  -5    7.21    1.17
   2 -12   5    7.13    0.99
   2 -12  -5    7.75    1.06
  -2  12  -5    8.09    1.02
   2  12   5    7.05    1.03
  -2 -12   5    4.97    1.03
  -2 -12   5    8.32    1.47
   2 -12   6   92.96    3.12
   2 -12   6   89.19    4.05
  -2  12   6   88.97    3.53
  -2 -12  -6   89.03    3.62
  -2 -12  -6   90.30    3.53
  -2 -12   6   87.71    4.12
  -2 -12   6   90.97    3.50
   2  12   6   91.37    3.40
  -2  12  -6   83.62    3.27
  -2  12   7   10.32    1.37
  -2 -12  -7    8.75    1.44
   2 -12   7    9.01    1.65
  -2 -12   7    6.21    1.58
   2  12   7    7.05    1.15
  -2 -12   7    6.71    1.19
   3 -12   0    1.98    0.72
   3  12   0    0.68    0.67
   3 -12   0    0.17    0.51
  -3 -12   0    1.16    0.65
  -3  12   0    1.06    0.59
  -3 -12   0    0.32    0.58
  -3 -12   0    0.31    0.61
  -3 -12  -1    6.81    1.00
   3 -12   1    7.44    1.14
  -3 -12  -1    5.92    0.99
  -3  12   1    5.27    0.90
   3  12  -1    4.97    0.90
  -3 -12  -1    7.09    0.91
   3 -12   1    5.70    0.88
  -3  12  -1    7.73    0.97
  -3 -12   1    6.72    1.10
   3 -12  -1    6.18    0.90
   3  12   1    6.86    1.01
  -3 -12   1    6.75    0.93
   3 -12   2    2.40    0.85
   3 -12   2    4.67    0.78
  -3  12   2    3.70    0.79
  -3 -12  -2    3.68    0.87
   3  12  -2    4.48    0.93
  -3 -12  -2    4.64    0.85
  -3 -12   2    3.76    0.75
   3  12   2    2.94    0.78
  -3 -12   2    2.92    0.76
   3 -12  -2    2.88    0.71
  -3 -12   2    3.19    0.97
  -3  12  -2    2.31    0.55
   3  12  -3    3.74    0.85
   3 -12   3    2.96    0.91
  -3 -12  -3    2.82    0.83
   3 -12   3    2.09    0.69
  -3  12   3    3.66    0.86
   3  12   3    2.91    0.77
  -3 -12   3    1.86    0.83
   3 -12  -3    2.12    0.71
  -3 -12   3    3.60    0.69
  -3 -12   3    3.67    1.03
  -3  12  -3    2.14    0.66
   3  12  -4    0.77    0.71
  -3  12   4    0.82    0.66
  -3 -12  -4    0.81    0.67
  -3 -12  -4   -0.18    0.55
   3 -12   4    0.85    0.87
   3  12   4    1.17    0.67
  -3  12  -4   -0.66    0.46
   3 -12  -4   -0.34    0.56
  -3 -12   4   -0.06    0.66
  -3 -12   4    0.92    0.89
  -3  12   5    0.68    0.70
   3 -12   5    2.24    1.09
  -3 -12  -5    1.20    0.74
   3 -12   5    1.14    0.68
   3  12  -5    0.71    0.75
  -3 -12  -5    1.42    0.74
   3 -12  -5    0.66    0.69
  -3 -12   5    1.12    0.95
   3  12   5    1.41    0.70
  -3 -12   5    1.52    0.89
  -3  12  -5    1.31    0.68
  -3 -12  -6    0.74    0.81
  -3  12   6    1.08    0.74
   3 -12   6    0.19    1.03
  -3 -12  -6   -0.65    0.69
  -3 -12   6    0.85    0.86
   3  12   6    0.11    0.60
  -3 -12   6    1.00    1.06
  -3  12  -6    0.26    0.62
  -4 -12   0   89.35    3.27
  -4 -12   0   85.58    3.24
   4 -12   0   89.80    3.23
  -4 -12   0   93.23    3.31
  -4  12   0   92.11    3.24
   4  12   0   90.77    3.34
  -4  12   1   88.68    3.18
  -4 -12  -1   86.67    3.19
  -4 -12  -1   84.36    3.23
   4  12  -1   92.99    3.36
  -4 -12  -1   88.87    3.07
   4 -12   1   85.53    3.36
   4 -12   1   87.37    3.18
  -4 -12   1   85.46    3.25
  -4 -12   1   92.07    3.19
  -4 -12   1   90.55    3.42
   4 -12  -1   88.14    3.19
   4  12   1   83.91    3.20
  -4  12  -1   91.04    3.24
   4 -12   2  132.47    4.08
   4  12  -2  128.68    4.33
  -4  12   2  131.64    4.26
   4 -12   2  125.78    4.53
  -4 -12  -2  134.75    4.34
   4  12   2  121.48    4.13
   4 -12  -2  126.86    4.21
  -4 -12   2  130.26    4.33
  -4  12  -2  131.86    4.17
  -4  12  -2  121.08    3.95
  -4 -12   2  131.31    4.08
  -4 -12   2  128.48    4.54
   4  12  -3   50.01    2.46
  -4 -12  -3   45.93    2.38
  -4 -12  -3   48.81    2.37
  -4  12   3   49.83    2.36
   4 -12   3   50.50    2.15
   4 -12   3   47.88    2.63
  -4 -12   3   50.02    2.69
  -4  12  -3   46.25    2.21
  -4 -12   3   48.95    2.09
   4 -12  -3   51.11    2.37
   4  12   3   50.58    2.29
  -4 -12   3   53.68    2.48
  -4 -12  -4   57.16    2.64
   4 -12   4   59.38    2.96
   4  12  -4   60.41    2.76
  -4  12   4   56.77    2.64
  -4 -12  -4   53.29    2.52
   4 -12  -4   54.71    2.59
  -4  12  -4   56.07    2.51
  -4 -12   4   56.67    2.70
  -4 -12   4   56.21    2.96
   4  12   4   56.57    2.45
   4  12  -5   32.67    2.09
  -4 -12  -5   30.75    2.08
  -4 -12  -5   28.41    1.93
   4 -12   5   37.68    2.50
  -4  12   5   28.66    2.03
   4 -12  -5   35.00    2.09
   4  12   5   33.45    1.87
  -4 -12   5   35.54    2.55
  -4 -12   5   32.67    2.13
  -4  12  -5   32.01    1.94
  -4  12   6   39.06    2.42
   4 -12   6   42.47    2.85
  -4 -12  -6   44.63    2.58
  -4 -12  -6   43.35    2.57
  -4 -12   6   42.92    2.49
  -4 -12   6   46.29    2.98
  -4  12  -6   48.41    2.44
  -5  12   0    3.79    0.79
  -5 -12   0    3.17    0.82
  -5 -12   0    2.37    0.74
  -5 -12   0    1.45    0.70
   5  12   0    2.60    0.83
   5 -12   0    1.75    0.63
   5  12  -1   11.48    1.29
   5 -12   1    9.31    1.12
  -5 -12  -1    9.82    1.10
  -5 -12  -1    9.15    1.20
  -5  12   1   10.83    1.23
  -5 -12   1   11.34    1.20
  -5  12  -1    9.99    1.08
   5  12   1   10.21    1.24
  -5 -12   1    9.97    1.30
   5 -12  -1   10.19    1.16
  -5 -12   1    9.27    1.18
  -5 -12  -2    4.36    0.90
   5 -12   2    4.24    0.83
   5 -12   2    4.28    1.03
  -5  12   2    4.48    0.96
   5  12  -2    3.98    0.98
  -5 -12   2    3.38    0.78
  -5  12  -2    3.06    0.77
  -5 -12   2    5.23    1.02
  -5  12  -2    2.86    0.73
   5  12   2    3.95    0.86
  -5 -12   2    4.56    1.04
   5 -12  -2    4.60    0.86
   5 -12   3   -0.10    0.58
   5  12  -3   -1.22    0.71
  -5 -12  -3    0.78    0.71
   5 -12   3    0.21    0.75
  -5  12   3    0.28    0.62
   5 -12  -3    0.25    0.62
  -5 -12   3    1.03    0.60
  -5  12  -3    0.75    0.65
  -5  12  -3    0.95    0.56
  -5 -12   3    0.26    0.82
  -5 -12   3    1.31    0.81
   5  12   3    0.83    0.75
   5 -12   4    2.27    1.07
   5  12  -4    2.46    0.91
  -5 -12  -4    3.07    0.91
  -5 -12  -4    3.03    0.88
  -5  12   4    2.77    0.87
  -5  12  -4    3.67    0.90
  -5 -12   4    4.15    1.20
  -5 -12   4    3.10    0.94
   5 -12  -4    2.68    0.84
   5  12   4    2.44    0.80
   5 -12   5    1.65    1.07
   5  12  -5   -0.11    0.83
  -5 -12  -5    0.43    0.73
  -5 -12  -5    1.82    0.93
  -5  12   5    1.93    0.85
  -5 -12   5   -0.05    1.03
   5 -12  -5    1.52    0.83
  -5 -12   5    2.35    1.02
  -5  12  -5    1.80    0.82
   5  12   5    1.21    1.16
   5 -12   6    0.86    1.08
  -5 -12  -6    0.68    0.91
  -5  12   6   -0.52    0.68
  -5 -12   6   -1.31    0.90
  -5 -12   6    0.12    0.90
   5 -12  -6   -0.25    0.74
  -5  12  -6   -0.47    0.69
   6  12   0   29.31    1.88
   6 -12   0   29.04    1.74
  -6 -12   0   27.21    1.74
  -6 -12   0   27.28    1.77
  -6 -12   0   20.60    2.29
  -6  12   0   25.74    1.63
  -6  12   1   98.19    3.25
  -6 -12  -1   86.37    3.32
   6 -12   1   86.79    3.28
   6  12  -1   92.55    3.56
  -6  12   1   90.28    3.37
  -6 -12  -1   91.75    3.45
   6 -12  -1   88.71    3.34
  -6 -12   1   92.61    3.44
   6  12   1   92.64    3.42
  -6 -12   1   88.86    3.58
  -6  12  -1   90.28    3.28
  -6  12  -1   82.66    3.36
  -6 -12   1   93.71    3.43
  -6 -12  -2   26.51    1.73
  -6 -12  -2   28.91    1.84
   6  12  -2   32.41    2.07
   6 -12   2   26.79    1.64
  -6  12   2   27.59    1.81
  -6  12  -2   26.69    1.76
  -6 -12   2   28.00    1.90
   6  12   2   26.55    1.77
  -6 -12   2   25.22    1.99
  -6 -12   2   27.43    1.72
  -6  12  -2   28.55    1.77
   6 -12  -2   30.29    1.86
   6 -12   3   65.56    3.31
   6 -12   3   68.77    2.60
  -6 -12  -3   68.29    2.95
   6  12  -3   72.41    3.16
  -6  12   3   71.25    3.05
  -6 -12   3   67.82    2.72
  -6  12  -3   65.70    2.86
  -6 -12   3   66.88    3.29
   6 -12  -3   69.05    2.95
   6  12   3   68.19    2.77
  -6  12  -3   63.88    2.80
  -6 -12   3   66.86    3.01
   6  12  -4   34.72    2.27
  -6 -12  -4   30.57    1.99
   6 -12   4   33.05    2.53
  -6  12   4   30.98    2.08
  -6  12  -4   31.04    2.03
  -6 -12   4   30.54    2.15
  -6 -12   4   30.31    2.38
   6 -12  -4   35.62    2.13
   6  12   4   28.86    1.79
  -6 -12  -5   57.61    2.76
  -6 -12  -5   56.51    3.05
  -6  12   5   58.24    2.94
   6  12  -5   57.19    2.98
   6 -12   5   56.15    3.23
   6 -12  -5   58.39    2.88
  -6 -12   5   59.96    3.00
  -6 -12   5   58.31    3.33
  -6  12  -5   55.28    2.80
  -7 -12   0    0.09    0.65
   7 -12   0    0.92    0.66
  -7  12   0    0.22    0.61
   7  12   0    0.53    0.81
  -7 -12   0    0.96    0.66
   7 -12   1    1.83    0.79
   7  12  -1    0.70    0.83
  -7 -12  -1    0.62    0.67
  -7  12   1    1.67    0.66
   7 -12  -1    1.57    0.72
  -7 -12   1    1.51    0.76
  -7  12  -1    1.77    0.78
   7  12   1    1.82    0.86
  -7  12  -1    2.80    0.79
  -7 -12   1    2.03    0.91
   7 -12   2    1.81    0.73
  -7  12   2    3.42    1.01
   7  12  -2    1.46    0.92
  -7 -12  -2    2.64    0.86
  -7 -12  -2    0.92    0.71
  -7 -12   2    2.74    0.83
  -7 -12   2    1.71    0.80
   7 -12  -2    1.08    0.72
  -7  12  -2    0.56    0.65
  -7  12  -2    0.25    0.72
  -7 -12   2    0.59    0.86
   7  12   2   -0.63    0.70
  -7 -12  -3    0.39    0.83
  -7 -12  -3   -0.06    0.66
   7  12  -3   -1.28    0.79
   7 -12   3    1.69    0.99
  -7  12   3    0.09    0.75
  -7  12  -3    0.45    0.73
  -7  12  -3    0.16    0.71
  -7 -12   3   -0.02    0.85
  -7 -12   3   -0.36    0.55
   7 -12  -3   -0.38    0.62
  -7 -12   3    0.13    0.77
   7  12   3    0.35    0.73
   7 -12   4    0.30    1.07
  -7  12   4    1.10    0.86
  -7 -12  -4   -0.07    0.65
   7  12  -4    1.08    0.94
  -7 -12   4    1.10    0.91
   7 -12  -4    0.32    0.72
  -7  12  -4    0.25    0.85
  -7 -12   4   -0.22    0.95
  -7  12  -4    2.20    0.93
   8 -12   0   11.97    1.34
  -8 -12   0    8.74    1.28
  -8  12   0    9.60    1.16
  -8 -12   0   11.39    1.44
   8  12   0   10.60    1.38
  -8  12   0    9.50    1.34
   8 -12   1   91.15    3.51
   8  12  -1   95.30    3.78
  -8 -12  -1   96.56    3.75
   8 -12  -1   88.42    3.55
  -8 -12   1   93.73    3.88
   8  12   1   97.51    3.64
  -8 -12   1   94.30    3.66
  -8  12  -1   84.67    3.73
  -8  12  -1   95.04    3.56
  -8 -12  -2    2.25    0.86
   8  12  -2    2.84    1.11
  -8 -12  -2    2.82    1.40
   8 -12   2    2.57    0.80
   8 -12  -2    1.80    0.84
  -8 -12   2    2.31    1.11
  -8  12  -2    1.78    0.93
   8  12   2    0.96    0.84
  -8 -12   2    2.90    0.88
  -8  12  -2    4.51    1.03
  -8 -12  -3   61.14    2.99
   8 -12   3   58.43    3.32
  -8 -12  -3   59.72    3.00
   8  12  -3   67.45    3.28
   8 -12  -3   68.53    3.08
  -8  12  -3   69.36    3.07
  -8  12  -3   61.52    3.10
  -8 -12   3   75.57    3.28
  -8 -12   3   68.37    3.48
  -8 -12   3   64.69    2.89
   8  12   3   65.06    3.34
   9  12   0    0.76    0.89
   9 -12   0   -0.04    0.66
  -9  12   0    0.78    0.85
  -9 -12   0   -0.12    0.65
  -9 -12  -1    2.05    0.81
  -9  12   1    0.56    0.89
   9 -12   1    1.62    0.78
   9  12  -1    0.79    0.95
  -9 -12   1    1.83    0.97
   9  12   1    0.63    0.88
  -9 -12   1    0.23    0.74
  -9  12  -1    0.46    0.77
   9 -12  -1    0.82    0.74
  -9  12  -1    1.18    0.95
  -9 -12  -2    0.52    0.75
   9  12  -2    0.63    0.96
  -9 -12   2    1.40    0.80
  -9 -12   2    0.03    0.92
   9  12   2   -0.48    0.73
   9 -12  -2    0.69    0.77
  -9  12  -2    0.89    0.87
  -9  12  -2    2.10    0.99
   0 -13   0    0.52    0.64
   0  13   0    0.68    0.63
   0 -13   0   -0.65    0.50
   0  13  -1   95.98    3.27
   0 -13  -1   86.98    3.25
   0 -13   1   87.64    3.38
   0  13   1   91.56    3.30
   0 -13   1   90.81    3.27
   0 -13  -1   90.00    3.15
   0  13  -2   -0.11    0.54
   0  13   2   -0.27    0.59
   0 -13  -2   -0.23    0.47
   0 -13   2   -0.30    0.61
   0 -13   2   -0.06    0.65
   0 -13  -2   -0.29    0.59
   0  13  -3   85.21    3.24
   0 -13   3   93.10    3.72
   0  13   3   89.73    3.37
   0 -13  -3   93.18    3.40
   0 -13  -4    0.13    0.65
   0  13   4   -0.02    0.63
   0 -13   4   -0.80    0.72
   0 -13   4   -0.05    0.67
   0 -13   5   68.03    3.39
   0  13   5   67.76    2.91
   0  13  -5   59.77    2.54
   0 -13   5   66.75    2.76
   0 -13   6    0.19    1.22
   0  13   6    0.79    0.75
   0 -13   6    0.88    0.79
   1  13   0    4.37    0.88
  -1  13   0    5.86    0.96
   1 -13   0    4.48    0.87
  -1 -13   0    5.07    0.93
   1 -13   0    4.76    0.91
  -1 -13   0    6.03    0.99
  -1  13   1  128.25    4.27
   1 -13   1  139.04    4.25
   1  13  -1  129.93    4.26
   1 -13   1  127.35    4.31
  -1 -13  -1  126.24    4.17
  -1 -13  -1  128.13    4.10
  -1  13  -1  129.61    4.18
  -1 -13   1  143.90    4.35
   1  13   1  131.70    4.20
  -1 -13   1  140.86    4.49
   1 -13  -1  122.44    4.08
   1 -13  -1  118.67    4.19
   1  13  -2   26.83    1.72
  -1 -13  -2   27.58    1.69
   1 -13   2   29.38    1.72
   1 -13   2   28.97    1.88
  -1  13   2   29.59    1.77
  -1  13  -2   28.15    1.64
   1 -13  -2   26.79    1.72
   1 -13  -2   27.62    1.52
  -1 -13   2   31.06    1.97
   1  13   2   31.29    1.76
  -1 -13   2   24.31    1.68
  -1 -13  -3   85.14    3.20
  -1  13   3   87.41    3.27
   1 -13   3   84.67    3.14
   1  13  -3   79.61    3.17
   1 -13   3   89.02    3.56
  -1 -13   3   83.50    3.22
   1  13   3   85.04    3.22
  -1 -13   3   83.49    2.90
   1 -13  -3   87.01    3.28
  -1 -13   3   87.49    3.62
   1 -13   4    0.95    0.90
   1  13  -4    0.51    0.78
   1 -13   4    0.91    0.74
  -1  13   4    0.88    0.66
  -1 -13   4    1.86    1.01
  -1 -13   4    0.36    0.75
  -1  13  -4    0.51    0.54
   1 -13  -4    2.42    0.77
   1  13   4    0.41    0.68
  -1  13   5   55.83    2.59
   1 -13   5   53.79    3.01
   1  13  -5   49.80    2.57
   1 -13   5   50.42    2.35
  -1  13  -5   51.78    2.29
   1  13   5   49.38    2.48
  -1 -13   5   48.84    2.44
  -1 -13   5   46.95    2.94
   1 -13   6    3.79    0.87
  -1  13   6    2.17    0.87
   1 -13   6   -1.72    1.00
  -1 -13  -6    2.37    0.96
  -1  13  -6    2.16    0.77
   1  13   6    2.34    0.90
  -1 -13   6    1.34    0.86
  -1 -13   6    3.34    1.29
   2 -13   0   11.74    1.31
   2  13   0   10.24    1.18
  -2  13   0   13.97    1.35
  -2 -13   0   12.68    1.27
  -2 -13   0   11.78    1.29
  -2 -13   0   12.13    1.28
   2 -13   0    9.00    1.12
  -2  13   1  127.34    4.16
  -2 -13  -1  117.95    3.93
  -2 -13  -1  131.45    4.15
   2  13  -1  118.65    4.09
   2 -13   1  124.65    4.26
  -2 -13  -1  126.80    4.16
   2 -13   1  124.93    4.03
  -2 -13   1  123.29    4.28
  -2 -13   1  114.75    3.95
  -2  13  -1  124.96    4.00
   2 -13  -1  120.53    4.10
   2 -13  -1  125.62    4.09
  -2 -13   1  121.54    4.13
   2  13   1  128.47    4.08
  -2 -13  -2   16.68    1.45
   2  13  -2   15.87    1.51
   2 -13   2   11.65    1.40
   2 -13   2   13.94    1.29
  -2  13   2   14.44    1.36
   2 -13  -2   14.18    1.33
  -2 -13   2   10.53    1.22
   2  13   2   12.30    1.26
  -2 -13   2   15.80    1.33
  -2  13  -2   14.39    1.28
  -2 -13   2   12.16    1.50
   2 -13  -2   13.97    1.28
   2 -13   3   90.03    3.20
  -2 -13  -3   90.61    3.68
  -2 -13  -3   82.74    3.36
   2  13  -3   89.04    3.38
   2 -13   3   82.58    3.53
  -2  13   3   89.13    3.34
  -2 -13   3   87.99    3.36
  -2 -13   3   87.00    3.71
   2  13   3   88.36    3.23
   2 -13  -3   95.78    3.42
  -2 -13   3   87.24    3.02
   2 -13   4    9.07    1.13
  -2  13   4    8.78    1.16
   2 -13   4   11.04    1.54
  -2 -13  -4    7.59    1.24
   2  13  -4    6.45    1.07
  -2  13  -4    7.53    1.06
   2  13   4    7.46    1.08
   2 -13  -4    7.17    1.15
  -2 -13   4    7.88    1.21
  -2 -13   4    7.57    1.38
  -2 -13  -5   48.01    2.55
   2 -13   5   57.15    3.06
   2 -13   5   47.66    2.26
  -2  13   5   48.13    2.52
  -2  13  -5   56.21    2.43
  -2 -13   5   54.28    2.63
   2  13   5   50.72    2.45
  -2 -13   5   45.98    2.98
   2 -13  -5   56.78    2.67
   2 -13   6    5.86    1.52
  -2 -13  -6    3.23    1.01
   2 -13   6    3.48    0.84
  -2  13   6    5.46    1.12
  -2  13  -6    4.12    0.91
   2  13   6    4.28    1.01
  -2 -13   6    4.94    1.47
  -2 -13   6    5.06    1.12
  -3  13   0    2.84    0.79
  -3 -13   0    2.49    0.82
   3 -13   0    1.74    0.71
  -3 -13   0    2.06    0.76
  -3 -13   0    3.24    0.83
   3  13   0    2.87    0.83
   3 -13   0    2.86    0.88
  -3 -13  -1   84.09    3.07
  -3 -13  -1   94.75    3.30
  -3 -13  -1   84.53    3.26
   3 -13   1   82.06    3.39
   3  13  -1   82.30    3.26
  -3  13   1   86.17    3.23
   3 -13   1   84.08    3.15
   3 -13  -1   83.40    3.20
   3  13   1   84.96    3.22
  -3  13  -1   90.22    3.20
  -3 -13   1   83.44    3.40
   3 -13  -1   89.42    3.23
  -3 -13   1   85.67    3.14
  -3 -13  -2   14.39    1.41
   3  13  -2   19.73    1.71
   3 -13   2   15.83    1.34
  -3  13   2   18.38    1.46
  -3 -13  -2   19.25    1.47
   3 -13   2   14.86    1.66
   3 -13  -2   16.30    1.29
   3  13   2   18.14    1.48
  -3 -13   2   16.11    1.36
   3 -13  -2   18.56    1.47
  -3 -13   2   14.16    1.60
  -3 -13   2   15.91    1.57
  -3  13   3   64.74    2.76
   3 -13   3   64.77    3.00
   3 -13   3   66.60    2.60
   3  13  -3   61.13    2.77
  -3 -13  -3   57.14    2.74
   3  13   3   68.24    2.70
  -3 -13   3   63.96    2.46
   3 -13  -3   59.50    2.70
  -3 -13   3   63.32    2.81
  -3  13  -3   58.82    2.58
  -3 -13   3   63.14    3.11
   3 -13   4   11.01    1.52
  -3  13   4   11.59    1.38
   3  13  -4   13.73    1.50
  -3 -13  -4   12.18    1.43
   3  13   4   16.58    1.46
  -3 -13   4    9.74    1.57
   3 -13  -4   14.32    1.46
  -3  13  -4   10.15    1.16
  -3 -13   4   13.13    1.48
   3 -13   5   23.47    2.36
   3 -13   5   19.31    1.45
  -3  13   5   23.95    1.84
  -3 -13  -5   18.76    1.74
  -3 -13   5   22.82    1.85
  -3  13  -5   24.88    1.71
   3 -13  -5   24.17    1.80
   3  13   5   19.66    1.60
  -3 -13   5   19.46    2.19
   3 -13   6    8.12    1.67
  -3  13   6    4.87    1.07
  -3 -13  -6    7.73    1.33
   3  13   6    6.05    1.05
  -3 -13   6    3.01    1.37
  -3 -13   6    6.50    1.25
  -3  13  -6    4.94    1.01
  -4 -13   0   25.01    1.69
   4 -13   0   25.47    1.68
   4  13   0   25.49    1.77
   4 -13   0   24.72    1.75
  -4 -13   0   26.82    1.75
  -4  13   0   25.38    1.67
   4  13  -1   43.33    2.29
   4 -13   1   39.27    2.06
  -4 -13  -1   46.07    2.07
  -4 -13  -1   42.27    2.18
  -4  13   1   41.14    2.13
   4 -13   1   42.33    2.35
  -4 -13  -1   44.58    2.18
  -4 -13   1   44.34    2.37
  -4 -13   1   40.38    2.09
   4  13   1   42.52    2.20
   4 -13  -1   40.17    2.10
  -4 -13   1   41.68    2.20
   4 -13   2   28.85    2.08
  -4 -13  -2   35.10    2.00
   4 -13   2   31.06    1.74
  -4  13   2   31.71    1.90
   4  13  -2   34.51    2.08
  -4 -13   2   31.48    2.00
   4 -13  -2   32.85    1.90
  -4  13  -2   31.64    1.83
   4  13   2   31.25    1.88
  -4 -13   2   33.67    2.20
  -4  13  -2   27.73    1.59
  -4 -13   2   33.36    1.81
   4 -13   3   44.71    2.08
   4  13  -3   47.87    2.45
   4 -13   3   37.47    2.43
  -4  13   3   40.70    2.22
  -4 -13  -3   43.66    2.30
   4  13   3   43.08    2.20
  -4 -13   3   42.82    2.01
  -4  13  -3   41.94    2.16
  -4 -13   3   43.29    2.59
  -4 -13   3   39.91    2.29
   4 -13  -3   41.01    2.20
  -4  13   4   28.55    1.96
   4 -13   4   28.83    2.19
   4  13  -4   30.59    2.09
  -4 -13  -4   32.21    2.05
  -4 -13   4   25.83    2.24
  -4 -13   4   30.66    2.13
  -4  13  -4   31.71    1.91
   4  13   4   29.94    1.85
   4 -13  -4   31.97    2.01
  -4 -13  -5   27.75    2.01
   4  13  -5   24.82    2.01
  -4  13   5   30.73    2.05
   4 -13   5   30.19    2.35
   4  13   5   29.33    1.85
   4 -13  -5   28.62    2.04
  -4 -13   5   31.60    2.17
  -4  13  -5   33.17    2.01
  -4 -13   5   24.14    2.47
  -4  13   6   12.44    1.53
   4 -13   6   16.56    2.15
  -4 -13  -6   10.27    1.37
  -4 -13   6   13.57    1.65
  -4  13  -6    9.67    1.35
  -4 -13   6   10.84    1.86
  -5  13   0   79.88    4.20
  -5 -13   0   68.05    2.91
  -5 -13   0   67.11    2.91
  -5 -13   0   69.07    2.92
   5  13   0   71.27    3.01
   5 -13   0   69.98    2.89
  -5 -13  -1   49.79    2.44
   5 -13   1   48.36    2.56
  -5  13   1   47.84    2.34
   5 -13   1   47.87    2.34
   5  13  -1   51.23    2.55
  -5 -13  -1   48.99    2.25
  -5 -13   1   49.65    2.36
  -5  13  -1   48.95    2.31
   5  13   1   50.79    2.45
   5 -13  -1   52.13    2.39
  -5 -13   1   48.09    2.55
  -5 -13   1   49.66    2.46
  -5 -13  -2   32.83    1.98
   5  13  -2   25.50    1.97
   5 -13   2   31.41    1.78
   5 -13   2   31.80    2.21
  -5  13   2   33.88    1.98
  -5 -13   2   29.39    1.79
  -5  13  -2   26.08    1.69
  -5 -13   2   30.12    1.99
  -5  13  -2   26.23    1.77
   5 -13  -2   27.84    1.82
   5  13   2   31.04    1.91
  -5 -13   2   28.34    2.10
   5 -13   3   27.17    1.65
   5  13  -3   25.94    2.00
   5 -13   3   25.27    2.17
  -5 -13  -3   26.07    1.89
  -5  13   3   24.15    1.80
  -5 -13   3   27.74    1.66
  -5 -13   3   31.58    2.08
  -5  13  -3   27.96    1.79
   5 -13  -3   26.52    1.84
  -5 -13   3   26.20    2.15
   5  13   3   24.47    1.78
  -5  13   4   31.16    2.09
   5  13  -4   33.99    2.25
   5 -13   4   32.02    2.40
  -5 -13  -4   30.18    2.07
  -5  13  -4   37.00    2.12
  -5 -13   4   35.06    2.25
   5  13   4   31.87    1.98
   5 -13  -4   36.07    2.18
  -5 -13   4   33.63    2.51
   5  13  -5   23.28    2.08
   5 -13   5   23.02    2.32
  -5  13   5   24.84    1.97
  -5 -13  -5   16.75    1.73
   5 -13  -5   22.00    1.86
  -5  13  -5   20.01    1.80
  -5 -13   5   22.66    1.99
   5  13   5   20.44    1.67
  -5 -13   5   19.54    2.22
  -6 -13   0   54.53    2.64
   6 -13   0   59.55    2.64
  -6 -13   0   58.16    2.69
   6  13   0   61.02    2.81
  -6  13   0   59.97    2.58
   6  13  -1   32.31    2.10
  -6  13   1   31.44    1.80
  -6 -13  -1   28.19    1.89
   6 -13   1   27.84    1.86
  -6  13  -1   27.23    1.86
  -6 -13   1   29.67    2.07
  -6  13  -1   31.59    1.89
  -6 -13   1   29.42    1.89
   6  13   1   28.43    1.97
  -6 -13   1   30.19    1.95
   6 -13  -1   29.77    1.87
  -6 -13  -2   45.38    2.42
   6  13  -2   49.44    2.65
  -6  13   2   45.15    2.39
   6 -13   2   47.98    2.71
   6 -13   2   44.12    2.18
  -6 -13   2   49.09    2.72
   6  13   2   46.76    2.37
  -6  13  -2   46.87    2.34
  -6 -13   2   47.33    2.50
  -6  13  -2   41.53    2.26
  -6 -13   2   44.87    2.27
   6 -13  -2   43.85    2.35
   6  13  -3   17.56    1.87
   6 -13   3   16.37    1.42
  -6 -13  -3   18.45    1.76
   6 -13   3   13.97    1.84
  -6  13   3   16.46    1.64
  -6  13  -3   15.28    1.45
  -6  13  -3   18.28    1.63
   6 -13  -3   16.80    1.65
  -6 -13   3   16.31    1.88
   6  13   3   16.72    1.55
  -6 -13   3   15.00    1.68
  -6 -13   3   18.34    1.45
   6  13  -4   36.11    2.41
  -6 -13  -4   35.94    2.22
  -6  13   4   33.31    2.22
   6 -13   4   34.61    2.64
  -6  13  -4   34.63    2.19
   6  13   4   34.54    2.02
  -6 -13   4   35.30    2.38
   6 -13  -4   27.94    2.08
  -6 -13   4   35.36    2.62
   6 -13   5   12.17    1.83
  -6  13   5   12.18    1.61
  -6 -13  -5   13.06    1.54
   6  13  -5    7.43    1.38
  -6  13  -5   11.20    1.45
   6 -13  -5   14.70    1.65
  -6 -13   5   12.46    1.63
  -6 -13   5   10.99    1.86
   7  13   0   28.66    2.06
  -7 -13   0   28.96    1.99
  -7 -13   0   26.54    1.91
  -7  13   0   29.12    1.84
   7 -13   0   28.62    1.87
  -7  13   1   21.41    1.55
   7  13  -1   17.95    1.77
   7 -13   1   19.24    1.60
  -7 -13  -1   14.66    1.55
  -7 -13   1   15.87    1.61
  -7  13  -1   12.88    1.44
   7  13   1   21.35    1.78
  -7  13  -1   18.31    1.61
  -7 -13   1   18.05    1.87
   7 -13  -1   20.35    1.67
  -7 -13  -2   13.73    1.53
   7 -13   2   15.02    1.39
   7  13  -2   16.60    1.84
   7 -13   2   12.71    1.70
  -7 -13   2   10.75    1.32
  -7 -13   2   13.32    1.56
  -7  13  -2   12.08    1.43
   7 -13  -2   13.16    1.48
  -7 -13   2   13.03    1.72
  -7  13  -2   13.87    1.47
   7  13   2   13.90    1.47
  -7  13   3    2.53    0.96
   7  13  -3    1.59    0.96
   7 -13   3    1.11    1.16
  -7 -13  -3    0.72    0.79
  -7 -13   3    2.08    0.79
  -7 -13   3    1.19    1.09
  -7  13  -3    1.51    0.88
   7  13   3    1.46    0.82
   7 -13  -3    1.61    0.86
  -7 -13   3    1.07    0.95
  -7  13  -3    0.18    0.71
  -7  13   4   21.54    2.04
   7 -13   4   23.34    2.53
  -7 -13  -4   21.54    1.98
   7  13  -4   26.68    2.24
  -7  13  -4   26.75    2.08
   7 -13  -4   26.87    2.03
  -7 -13   4   24.20    2.53
  -7 -13   4   26.85    2.13
   8 -13   0   38.78    2.26
  -8  13   0   42.35    2.24
  -8 -13   0   39.81    2.41
   8  13   0   43.15    2.52
  -8  13   0   37.12    2.45
  -8 -13   0   41.71    2.39
   8 -13   1    2.86    0.92
  -8 -13  -1    2.22    0.89
   8  13  -1    2.78    1.10
  -8  13  -1    3.75    0.96
   8  13   1    2.25    0.98
  -8  13  -1    2.30    0.96
  -8 -13   1    1.37    0.99
  -8 -13   1    3.08    0.99
   8 -13  -1    1.13    0.82
   8 -13   2   35.82    2.06
  -8 -13  -2   38.76    2.38
   8  13  -2   35.34    2.51
  -8  13  -2   40.26    2.36
  -8 -13   2   35.41    2.20
   8 -13  -2   41.22    2.37
   8  13   2   37.06    2.21
  -8 -13   2   37.28    2.60
  -8  13  -2   38.03    2.44
   8 -13   3    1.35    1.17
  -8 -13  -3    1.24    0.90
  -8 -13  -3    0.90    0.97
   8  13  -3    0.36    1.02
  -8  13  -3    0.91    0.91
  -8  13  -3    0.73    0.81
   8  13   3    0.41    0.85
  -8 -13   3    0.99    0.80
   8 -13  -3    1.01    0.88
  -8 -13   3    1.76    1.19
  -8 -13   3    0.44    0.81
  -9 -13   0   24.71    1.99
   0 -14   0    0.26    0.62
   0 -14   0    1.09    0.73
   0  14   0    0.95    0.67
   0 -14  -1   -0.12    0.60
   0 -14  -1   -0.52    0.58
   0  14  -1    0.05    0.62
   0 -14   1   -0.60    0.61
   0 -14   1    0.92    0.70
   0  14   1   -0.02    0.62
   0 -14   2   10.66    1.23
   0 -14  -2   11.92    1.50
   0 -14  -2    8.71    1.16
   0  14   2    9.58    1.18
   0  14  -2   10.76    1.21
   0 -14   2   11.14    1.44
   0 -14   3    1.90    0.95
   0  14  -3    0.52    0.62
   0 -14  -3    0.42    0.69
   0  14   3   -0.23    0.68
   0 -14   4    2.94    1.18
   0 -14   4    4.00    1.01
   0 -14  -4    3.99    1.04
   0  14   4    3.13    0.90
   0 -14   5   -0.89    1.01
   0 -14   5   -0.06    0.77
   0  14  -5   -0.08    0.57
   0  14   5    1.24    0.84
   0  14   6    3.56    1.01
   0 -14   6    2.12    0.90
   0 -14   6    2.44    1.35
   1  14   0  225.68    6.43
  -1 -14   0  226.31    6.51
   1 -14   0  217.58    6.42
  -1 -14   0  228.40    6.49
  -1  14   0  218.94    6.40
   1 -14   0  204.43    6.34
   1 -14   1    0.18    0.68
  -1  14   1    0.35    0.63
   1 -14   1   -0.34    0.62
  -1 -14  -1    0.01    0.60
  -1 -14  -1   -0.21    0.59
   1  14  -1    1.12    0.69
   1 -14  -1    0.60    0.66
  -1 -14   1   -1.05    0.69
   1 -14  -1    0.40    0.59
   1  14   1    0.53    0.67
  -1  14  -1    1.11    0.66
  -1 -14   1   -1.15    0.57
   1  14  -2  229.74    6.80
   1 -14   2  234.39    7.04
   1 -14   2  241.62    6.76
  -1 -14  -2  231.28    6.75
  -1  14   2  223.49    6.83
   1  14   2  234.85    6.76
  -1 -14   2  239.02    7.10
   1 -14  -2  226.87    6.47
  -1 -14   2  227.52    6.79
  -1  14  -2  236.41    6.72
   1 -14  -2  226.47    6.83
  -1 -14   2  243.44    6.61
  -1  14   3    4.62    0.98
  -1 -14  -3    5.81    0.98
   1 -14   3    6.82    1.07
   1  14  -3    6.02    1.10
   1 -14   3    5.51    1.18
  -1 -14   3    4.70    1.01
  -1 -14   3    5.30    1.22
   1  14   3    5.67    1.05
   1 -14  -3    4.32    0.99
   1 -14   4  147.27    5.25
   1 -14   4  132.86    4.55
  -1  14   4  148.64    4.87
   1  14   4  144.18    4.75
  -1 -14   4  139.03    4.73
  -1 -14   4  141.72    5.23
  -1  14  -4  141.84    4.61
   1 -14  -4  137.08    4.76
   1 -14   5    4.11    1.33
   1 -14   5    6.18    1.13
  -1  14   5    3.42    1.01
  -1 -14   5    5.43    1.13
  -1  14  -5    4.95    0.91
  -1 -14   5    5.78    1.50
   1  14   5    4.26    0.97
  -1  14   6   74.79    3.30
   1 -14   6   76.86    3.88
   1 -14   6   67.76    2.95
  -1 -14  -6   68.77    3.27
  -1  14  -6   75.22    3.03
   1  14   6   72.67    3.21
  -1 -14   6   69.76    3.80
  -1 -14   6   74.71    3.17
   2 -14   0    1.80    0.77
  -2 -14   0    0.80    0.72
   2 -14   0    0.24    0.68
  -2 -14   0    1.59    0.76
  -2 -14   0    0.22    0.62
   2  14   0    1.86    0.79
  -2  14   0    1.01    0.74
   2  14  -1    3.90    0.94
  -2 -14  -1    1.45    0.72
   2 -14   1    2.56    0.76
   2 -14   1    2.55    0.88
  -2 -14  -1    2.69    0.80
  -2  14   1    4.48    0.96
  -2 -14  -1    1.95    0.75
  -2  14  -1    2.29    0.74
   2  14   1    3.28    0.88
   2 -14  -1    4.38    0.94
  -2 -14   1    5.06    1.04
  -2 -14   1    2.58    0.81
   2 -14  -1    3.55    0.90
  -2 -14   1    4.32    1.06
  -2 -14  -2    2.58    0.88
   2 -14   2    2.60    0.79
   2 -14   2    3.00    0.91
   2  14  -2    1.96    0.81
  -2  14   2    2.08    0.82
  -2 -14  -2    0.91    0.70
  -2 -14   2    1.34    0.73
  -2 -14   2    2.67    1.02
   2 -14  -2    1.62    0.78
  -2  14  -2    1.60    0.71
  -2 -14   2    3.89    0.93
   2 -14  -2    1.90    0.73
   2  14   2    2.28    0.80
   2 -14   3    1.46    0.79
   2  14  -3    1.61    0.82
  -2  14   3   -0.38    0.68
   2 -14   3   -0.25    0.79
  -2 -14  -3    0.05    0.74
  -2 -14   3    0.38    0.80
  -2 -14   3   -0.36    0.97
   2 -14  -3    1.83    0.79
   2  14   3   -0.74    0.57
  -2 -14   3   -0.28    0.87
   2 -14   4    1.62    1.07
   2 -14   4    0.21    0.68
  -2 -14  -4    0.00    0.80
   2  14  -4    1.62    0.76
  -2  14   4    0.23    0.69
  -2 -14   4    2.44    0.94
   2  14   4    1.01    0.73
  -2 -14   4   -0.36    0.95
   2 -14  -4   -0.62    0.62
  -2  14  -4   -0.34    0.57
  -2 -14  -5    4.47    1.15
   2 -14   5    3.71    1.26
  -2  14   5    2.88    1.00
   2 -14   5    3.16    0.93
  -2 -14   5    1.93    1.01
  -2 -14   5    0.85    1.19
   2  14   5    2.10    0.85
  -2  14  -5    2.36    0.83
  -2 -14  -6    0.66    0.92
  -2  14   6    0.70    0.87
   2 -14   6    0.57    0.78
   2 -14   6    0.92    1.24
   2  14   6   -0.20    0.76
  -2 -14   6   -0.43    0.87
  -2 -14   6   -0.35    1.22
  -2  14  -6    0.32    0.65
   3 -14   0  188.10    5.74
  -3 -14   0  189.11    5.78
  -3 -14   0  176.88    5.71
   3  14   0  189.63    5.76
  -3 -14   0  184.57    5.71
  -3  14   0  188.57    5.75
   3 -14   0  185.99    5.85
   3 -14   1   55.72    2.51
  -3 -14  -1   53.86    2.54
  -3 -14  -1   52.65    2.42
   3 -14   1   58.55    2.80
  -3  14   1   56.83    2.63
  -3 -14  -1   53.92    2.59
   3  14  -1   57.28    2.66
  -3 -14   1   58.34    2.82
   3  14   1   57.88    2.60
   3 -14  -1   57.55    2.61
  -3 -14   1   56.65    2.52
  -3  14  -1   58.13    2.52
   3 -14  -1   60.31    2.65
  -3 -14  -2  151.74    4.71
   3 -14   2  144.86    4.57
   3  14  -2  137.18    4.76
   3 -14   2  134.29    4.88
  -3  14   2  144.65    4.74
  -3 -14  -2  142.93    4.78
  -3 -14   2  133.27    4.97
   3  14   2  148.70    4.68
   3 -14  -2  145.53    4.60
  -3 -14   2  133.15    4.45
  -3 -14   2  131.61    4.68
   3 -14  -2  137.95    4.68
   3 -14   3   40.88    2.09
  -3  14   3   39.16    2.24
   3 -14   3   42.75    2.48
  -3 -14  -3   37.77    2.29
   3  14  -3   46.16    2.40
   3 -14  -3   39.36    2.24
  -3  14  -3   41.99    2.16
  -3 -14   3   40.46    2.34
  -3 -14   3   39.76    2.57
   3  14   3   41.98    2.15
  -3 -14   3   41.01    2.10
   3  14  -4  115.57    4.35
  -3 -14  -4  114.29    4.37
   3 -14   4  126.76    4.74
  -3  14   4  124.18    4.38
  -3 -14   4  116.92    4.33
   3 -14  -4  121.41    4.35
   3  14   4  124.57    4.20
  -3  14  -4  121.91    4.20
  -3 -14   4  114.26    4.78
   3 -14   5   13.93    1.90
  -3 -14  -5   12.03    1.55
   3 -14   5   10.45    1.20
  -3  14   5   12.45    1.51
   3 -14  -5   13.60    1.58
  -3 -14   5    9.70    1.70
  -3 -14   5   13.95    1.65
   3  14   5   13.88    1.44
  -3  14  -5   14.23    1.46
  -3  14   6   77.85    3.45
   3 -14   6   74.56    3.84
  -3 -14  -6   65.18    3.21
   3  14   6   69.08    3.00
  -3 -14   6   75.46    3.36
  -3 -14   6   62.96    3.75
  -3  14  -6   76.49    3.21
  -4 -14   0   10.73    1.33
  -4  14   0    7.76    1.18
  -4 -14   0   13.81    1.45
   4 -14   0   10.64    1.42
   4 -14   0   10.14    1.31
   4  14   0   12.02    1.45
   4 -14   1    0.77    0.68
   4  14  -1    0.51    0.84
  -4 -14  -1    0.54    0.65
  -4 -14  -1    0.12    0.63
   4 -14   1   -0.02    0.72
  -4 -14  -1   -0.15    0.63
  -4  14   1    0.06    0.64
  -4 -14   1   -0.69    0.67
   4 -14  -1   -0.44    0.65
   4 -14  -1   -0.71    0.62
  -4 -14   1    0.49    0.84
  -4 -14   1    0.65    0.71
   4  14   1    0.01    0.74
  -4 -14  -2    1.78    0.88
   4 -14   2    2.33    1.09
  -4  14   2    0.30    0.70
   4 -14   2    1.78    0.75
   4  14  -2    0.74    0.87
  -4 -14   2    0.19    0.91
   4 -14  -2    1.27    0.75
  -4 -14   2    0.74    0.75
  -4  14  -2   -0.21    0.62
  -4 -14   2    2.82    0.95
   4  14   2    0.70    0.75
  -4 -14  -3    1.88    0.89
   4  14  -3    2.03    0.96
  -4  14   3    2.46    0.90
   4 -14   3    1.24    0.76
   4 -14   3    1.45    0.99
  -4 -14   3    1.25    0.91
   4  14   3    2.46    0.87
   4 -14  -3    1.38    0.79
  -4 -14   3    1.40    0.71
  -4 -14   3    1.42    1.07
  -4  14  -3    1.19    0.72
   4  14  -4    4.08    1.15
  -4  14   4    4.40    1.07
  -4 -14  -4    3.04    1.00
   4 -14   4    2.58    1.15
   4  14   4    1.73    0.87
  -4  14  -4    1.84    0.81
  -4 -14   4    2.21    1.00
   4 -14  -4    3.48    0.97
  -4 -14   4    2.11    1.20
   4  14  -5    1.49    0.91
   4 -14   5    0.07    1.07
  -4  14   5    0.26    0.82
  -4 -14  -5   -0.34    0.87
  -4 -14   5   -1.02    0.86
  -4  14  -5    0.19    0.77
   4  14   5   -0.55    0.72
  -4 -14   5    0.07    1.16
   4 -14  -5    0.01    0.77
  -5 -14   0  109.92    3.99
  -5 -14   0  106.96    3.97
   5  14   0  103.81    3.98
   5 -14   0  110.97    3.97
  -5 -14   0  107.20    3.97
  -5 -14  -1   41.18    2.32
  -5  14   1   43.69    2.32
   5  14  -1   44.96    2.49
   5 -14   1   42.69    2.23
   5 -14   1   44.55    2.57
   5  14   1   38.94    2.31
  -5  14  -1   45.45    2.28
  -5 -14   1   42.48    2.47
  -5 -14   1   42.90    2.38
  -5 -14   1   42.24    2.26
   5 -14  -1   44.31    2.32
  -5 -14  -2   57.23    2.82
   5 -14   2   61.68    3.13
  -5  14   2   65.59    2.89
   5  14  -2   65.50    3.03
   5 -14   2   61.61    2.62
   5  14   2   58.82    2.80
  -5 -14   2   63.78    3.00
  -5  14  -2   61.31    2.62
  -5 -14   2   59.92    2.69
   5 -14  -2   57.90    2.76
  -5 -14   2   64.75    3.20
  -5  14  -2   61.31    2.76
   5 -14   3   51.04    3.02
   5 -14   3   57.32    2.49
  -5  14   3   54.35    2.74
   5  14  -3   52.25    2.84
  -5 -14  -3   54.75    2.77
  -5 -14   3   51.01    2.41
  -5 -14   3   52.25    3.04
  -5 -14   3   60.41    2.92
   5 -14  -3   51.22    2.66
   5  14   3   58.49    2.70
  -5  14  -3   58.98    2.68
  -5 -14  -4   39.13    2.44
   5  14  -4   35.54    2.47
  -5  14   4   39.02    2.40
   5 -14   4   42.74    2.77
  -5 -14   4   41.79    2.56
  -5  14  -4   40.59    2.35
   5  14   4   43.61    2.32
  -5 -14   4   41.49    2.84
   5 -14  -4   40.22    2.41
  -5 -14  -5   34.16    2.30
   5 -14   5   40.75    2.83
   5  14  -5   38.28    2.53
  -5  14   5   34.41    2.38
  -5  14  -5   39.35    2.41
  -5 -14   5   44.46    2.65
  -5 -14   5   32.06    2.77
   5  14   5   39.69    2.20
   5 -14  -5   42.46    2.53
  -6  14   0    0.26    0.69
  -6 -14   0    0.20    0.75
   6  14   0    0.46    0.92
  -6 -14   0    0.59    0.82
   6 -14   0    0.53    0.74
   6  14  -1    1.37    0.97
   6 -14   1    1.62    0.76
  -6  14   1    0.65    0.68
   6 -14   1    2.74    1.10
  -6 -14  -1    0.30    0.73
   6 -14  -1    0.85    0.79
  -6 -14   1    1.55    0.87
  -6  14  -1   -0.08    0.63
  -6 -14   1    2.34    0.90
  -6  14  -1    1.49    0.80
  -6 -14   1   -0.52    0.79
   6  14   1    0.29    0.87
  -6  14   2   -0.22    0.72
   6 -14   2    0.25    0.92
  -6 -14  -2    0.55    0.77
   6  14  -2    0.08    0.91
   6 -14   2    0.47    0.69
  -6  14  -2    0.39    0.71
   6 -14  -2   -0.50    0.71
  -6 -14   2   -0.14    0.96
   6  14   2   -1.22    0.77
  -6 -14   2    1.25    0.76
  -6 -14   2    0.11    0.86
  -6  14  -2   -0.31    0.72
   6  14  -3    3.19    1.16
   6 -14   3    1.76    0.83
  -6 -14  -3    1.88    0.95
   6 -14   3    3.34    1.35
  -6  14   3    1.66    0.95
  -6 -14   3    2.32    0.83
  -6 -14   3    1.67    0.99
   6 -14  -3    2.10    0.91
   6  14   3    1.32    0.91
  -6 -14   3    1.99    1.20
  -6  14  -3    2.94    0.92
   6 -14   4    3.89    1.33
  -6  14   4    0.90    0.79
  -6 -14  -4    2.54    1.01
   6  14  -4    0.01    0.97
   6 -14  -4    0.24    0.76
  -6 -14   4    0.79    1.10
  -6 -14   4    2.25    1.11
  -6  14  -4    2.05    0.94
   6  14   4    0.35    0.85
  -7 -14   0   22.98    2.02
   7 -14   0   25.21    1.87
  -7  14   0   22.83    1.74
   7  14   0   18.90    1.89
  -7 -14   0   19.04    1.88
  -7  14   1   93.09    3.43
   7  14  -1   93.50    3.86
  -7 -14  -1   93.22    3.79
   7 -14   1   80.79    3.45
  -7  14  -1   88.52    3.64
   7 -14  -1   88.62    3.58
  -7 -14   1   82.85    3.78
  -7 -14   1   88.13    3.60
   7  14   1   88.71    3.63
  -7  14  -1   86.19    3.47
   7 -14   2   28.76    2.40
  -7 -14  -2   26.71    2.08
   7 -14   2   27.46    1.87
   7  14  -2   30.83    2.40
  -7 -14   2   30.49    2.01
   7 -14  -2   30.38    2.07
  -7  14  -2   29.08    2.05
  -7 -14   2   30.95    2.24
  -7 -14   2   24.68    2.24
  -7  14  -2   25.03    1.97
   7  14   2   26.61    1.97
  -7 -14  -3   53.59    2.88
   7  14  -3   49.84    2.97
  -7  14   3   52.38    2.82
   7 -14   3   51.82    3.24
  -7 -14   3   54.74    3.22
   7 -14  -3   54.64    2.83
  -7  14  -3   54.42    2.82
   7  14   3   53.66    2.62
  -7 -14   3   55.16    2.95
   8  14   0   -0.04    0.97
  -8  14   0    0.55    0.86
   8 -14   0   -0.31    0.73
  -8 -14   0    0.03    0.75
  -8  14   0    0.61    0.79
   8 -14   1   -0.21    0.80
  -8 -14  -1    1.89    1.01
   8  14  -1    0.14    0.97
  -8  14  -1    1.04    0.84
  -8 -14   1    0.45    0.79
   8 -14  -1    2.26    0.92
  -8 -14   1    0.54    0.92
   8  14   1    0.53    0.96
  -8  14  -1    1.58    0.95
   8  14  -2    2.67    1.15
   8 -14   2    2.22    1.13
   8 -14   2    2.71    0.94
  -8 -14  -2    1.14    0.85
  -8  14  -2    0.63    0.95
  -8 -14   2    1.42    1.05
  -8  14  -2    0.77    0.91
  -8 -14   2    1.79    0.84
   8  14   2    0.12    0.88
   8 -14  -2    2.95    0.99
   0 -15   0   -0.37    0.67
   0  15   0    0.24    0.70
   0 -15   0    0.27    0.68
   0 -15   1   66.70    3.02
   0  15   1   65.07    2.83
   0 -15   1   67.50    2.90
   0 -15  -1   71.13    2.91
   0 -15  -1   73.26    2.86
   0  15  -1   67.90    2.89
   0  15   2    0.49    0.71
   0  15  -2    0.58    0.69
   0 -15   2    0.89    0.81
   0 -15  -2   -0.76    0.60
   0 -15   2   -1.21    0.67
   0 -15   3   79.64    3.62
   0  15   3   82.49    3.37
   0 -15  -3   84.22    3.36
   0  15  -3   81.56    3.27
   0 -15   4   -0.20    0.91
   0 -15   4   -0.29    0.81
   0  15   4    0.22    0.79
   0  15  -5   39.24    2.17
   0 -15   5   50.70    3.12
   0 -15   5   43.83    2.46
   0  15   5   47.35    2.59
   0  15   6    0.28    0.88
   0 -15   6   -1.19    0.79
   0 -15   6   -0.57    1.24
   1 -15   0   14.74    1.49
  -1 -15   0   13.92    1.47
  -1  15   0   13.07    1.32
  -1 -15   0   14.39    1.49
   1  15   0   10.98    1.30
   1 -15   0   12.32    1.33
  -1 -15  -1  115.10    4.08
  -1  15   1  108.37    4.04
  -1 -15  -1  116.98    3.96
   1 -15   1  119.21    4.09
   1  15  -1  123.56    4.15
   1 -15   1  113.68    4.16
   1  15   1  118.34    4.09
   1 -15  -1  113.64    4.08
  -1 -15   1  117.50    4.25
   1 -15  -1  115.72    3.95
  -1  15  -1  116.02    4.03
  -1 -15   1  119.43    4.15
  -1 -15  -2    3.55    0.88
   1  15  -2    4.64    1.03
  -1  15   2    5.47    1.08
   1 -15   2    4.39    0.97
   1 -15   2    4.10    1.07
   1  15   2    6.45    1.04
  -1  15  -2    3.87    0.93
  -1 -15   2    3.96    0.93
  -1 -15   2    6.73    1.31
  -1 -15   2    5.87    1.12
   1 -15  -2    3.26    0.92
   1 -15  -2    4.90    0.92
  -1 -15  -3  135.98    4.51
   1 -15   3  129.71    4.83
   1  15  -3  124.01    4.48
   1 -15   3  127.88    4.42
  -1  15   3  134.95    4.65
  -1 -15   3  141.56    5.01
   1 -15  -3  128.94    4.58
   1  15   3  128.10    4.45
  -1 -15   3  119.96    4.44
   1 -15   4    0.51    1.08
   1 -15   4    1.69    0.90
  -1  15   4    2.12    0.87
   1  15   4    3.21    0.97
  -1 -15   4    1.62    0.95
  -1  15  -4    1.97    0.74
   1 -15  -4    2.83    0.96
  -1 -15   4    1.71    1.15
   1 -15   5   59.38    3.36
  -1  15   5   61.57    3.04
   1 -15   5   59.74    2.79
  -1 -15   5   62.52    3.49
  -1 -15   5   60.47    2.91
   1  15   5   64.12    2.94
  -1  15  -5   57.22    2.69
   1 -15   6    0.28    1.18
  -1 -15  -6   -1.60    0.96
  -1  15   6    1.04    0.99
   1 -15   6   -0.34    0.83
   1  15   6    0.56    0.88
  -1  15  -6    1.31    0.96
  -1 -15   6   -0.47    1.16
  -1 -15   6    0.86    0.94
   2  15   0   15.98    1.54
   2 -15   0   18.58    1.58
  -2 -15   0   17.19    1.62
  -2  15   0   17.21    1.57
  -2 -15   0   16.23    1.61
   2 -15   0   16.41    1.52
  -2 -15   0   13.26    1.45
  -2 -15  -1   59.56    2.61
  -2  15   1   59.84    2.79
   2 -15   1   60.08    2.82
   2 -15   1   56.86    2.61
   2  15  -1   64.46    2.82
  -2 -15  -1   61.30    2.75
  -2 -15  -1   58.84    2.74
   2 -15  -1   55.26    2.72
  -2  15  -1   59.28    2.61
   2 -15  -1   61.14    2.69
   2  15   1   61.03    2.72
  -2 -15   1   59.43    2.78
  -2 -15   1   63.18    2.95
  -2 -15   1   64.44    2.71
   2 -15   2    4.64    1.12
  -2 -15  -2    4.29    0.99
  -2 -15  -2    5.45    1.07
   2 -15   2    5.26    1.04
   2  15  -2    3.74    0.99
  -2  15   2    5.83    1.14
  -2 -15   2    5.27    1.07
  -2 -15   2    5.44    1.28
  -2 -15   2    3.68    0.92
   2  15   2    3.86    0.92
   2 -15  -2    2.83    0.81
   2 -15  -2    3.87    1.00
  -2 -15  -3   34.54    2.19
   2  15  -3   29.74    2.09
   2 -15   3   32.87    1.99
  -2  15   3   34.62    2.18
   2 -15   3   38.03    2.39
  -2 -15   3   32.46    2.19
   2  15   3   34.66    2.06
   2 -15  -3   36.98    2.23
  -2 -15   3   36.70    2.49
   2 -15   4    3.35    0.93
   2  15  -4    2.60    0.94
  -2 -15  -4    3.62    1.12
   2 -15   4    3.62    1.24
  -2  15   4    2.64    0.96
  -2  15  -4    3.95    0.94
   2 -15  -4    4.89    1.09
  -2 -15   4    3.07    1.08
   2  15   4    2.83    0.90
  -2 -15   4    2.50    1.15
  -2  15   5   28.46    2.14
  -2 -15  -5   21.73    2.05
   2 -15   5   29.57    2.75
   2 -15   5   27.46    1.84
  -2  15  -5   25.64    1.82
  -2 -15   5   20.61    2.45
   2  15   5   23.48    1.79
  -2 -15   5   21.89    1.98
  -2 -15  -6    3.09    1.25
   2 -15   6    2.41    1.29
  -2  15   6    3.51    1.16
   2 -15   6    4.43    1.08
  -2  15  -6    3.44    1.03
  -2 -15   6    4.69    1.58
   2  15   6    4.74    1.09
  -2 -15   6    3.54    1.16
   3  15   0   14.23    1.53
   3 -15   0   13.29    1.45
  -3 -15   0   14.66    1.54
  -3 -15   0   16.03    1.59
  -3  15   0   11.61    1.39
  -3 -15   0   11.53    1.42
   3 -15   0   15.92    1.72
   3  15  -1   93.06    3.66
   3 -15   1   93.02    3.49
  -3  15   1   94.49    3.66
   3 -15   1   94.71    3.79
  -3 -15  -1   85.04    3.43
  -3 -15  -1   88.64    3.59
  -3 -15  -1   95.64    3.61
   3  15   1  102.40    3.66
  -3 -15   1   92.93    3.82
  -3 -15   1   92.64    3.51
  -3  15  -1   94.55    3.47
   3 -15  -1   93.02    3.61
   3 -15  -1   88.55    3.60
  -3 -15  -2   10.43    1.36
   3 -15   2   13.69    1.65
   3  15  -2   11.19    1.45
   3 -15   2   12.77    1.36
  -3  15   2   12.92    1.47
  -3 -15  -2   12.84    1.54
  -3 -15   2   12.01    1.32
   3  15   2   11.33    1.34
  -3 -15   2   13.85    1.74
   3 -15  -2   12.39    1.46
   3 -15  -2   11.57    1.34
  -3 -15   2   11.12    1.43
  -3  15   3   56.68    2.82
   3 -15   3   59.25    2.62
   3 -15   3   54.84    2.96
   3  15  -3   57.40    2.87
  -3 -15  -3   56.74    2.88
   3  15   3   59.19    2.70
  -3  15  -3   56.94    2.68
  -3 -15   3   56.87    3.16
  -3 -15   3   60.83    2.93
   3 -15  -3   58.02    2.82
   3 -15   4   18.69    2.06
  -3  15   4   16.69    1.74
  -3 -15  -4   19.77    1.95
   3  15  -4   17.43    1.83
  -3 -15   4   22.02    1.95
   3 -15  -4   15.74    1.71
  -3 -15   4   17.83    2.13
   3  15   4   20.19    1.70
  -3  15  -4   18.95    1.68
  -3 -15  -5   52.09    2.88
   3 -15   5   53.15    3.23
  -3  15   5   61.37    3.01
   3 -15   5   50.59    2.46
  -3 -15   5   54.46    2.95
  -3  15  -5   55.27    2.71
  -3 -15   5   53.72    3.36
   3 -15  -5   55.54    2.89
   3  15   5   62.67    2.79
   4 -15   0   22.54    1.89
  -4  15   0   18.54    1.72
   4 -15   0   20.28    1.72
  -4 -15   0   24.04    1.85
   4  15   0   24.10    1.89
  -4 -15   0   24.00    1.84
  -4 -15  -1   30.32    2.04
   4  15  -1   27.90    2.10
  -4 -15  -1   30.93    2.02
  -4  15   1   31.65    2.10
   4 -15   1   30.18    1.93
   4 -15   1   31.55    2.27
  -4 -15   1   30.51    1.99
   4 -15  -1   30.23    2.03
   4  15   1   36.41    2.16
  -4 -15   1   30.04    2.19
   4 -15  -1   28.48    2.01
  -4 -15   1   31.55    2.13
   4 -15   2   22.12    2.10
  -4  15   2   17.65    1.69
   4  15  -2   21.95    1.96
  -4 -15  -2   15.62    1.66
   4 -15   2   22.18    1.65
  -4 -15   2   16.38    1.55
  -4 -15   2   16.35    1.90
   4 -15  -2   21.12    1.76
  -4  15  -2   16.32    1.58
   4 -15  -2   21.48    1.66
  -4 -15   2   19.24    1.81
   4  15   2   20.02    1.77
   4 -15   3   32.67    2.41
  -4 -15  -3   31.41    2.21
   4  15  -3   35.86    2.36
   4 -15   3   31.52    1.91
  -4  15   3   38.11    2.30
   4  15   3   35.78    2.15
  -4 -15   3   34.42    2.36
  -4  15  -3   31.59    2.06
  -4 -15   3   29.69    2.44
   4 -15  -3   34.88    2.23
  -4  15   4    8.55    1.34
   4  15  -4    7.96    1.51
  -4 -15  -4    6.79    1.33
   4 -15   4   10.71    1.73
   4  15   4   10.34    1.35
  -4 -15   4   11.15    1.61
   4 -15  -4    8.11    1.28
  -4  15  -4    9.15    1.33
  -4 -15   4    6.71    1.50
   4 -15   5   39.19    2.84
  -4  15   5   42.16    2.61
  -4 -15  -5   37.32    2.51
  -4 -15   5   40.09    3.00
   4  15   5   45.74    2.41
  -4  15  -5   41.38    2.44
   4 -15  -5   41.58    2.57
  -4 -15   5   38.53    2.60
   5 -15   0   42.25    2.38
   5 -15   0   41.93    2.50
  -5 -15   0   37.52    2.29
  -5 -15   0   38.14    2.32
   5  15   0   39.44    2.42
  -5 -15   0   44.11    2.44
   5 -15   1   46.21    2.75
   5  15  -1   46.48    2.67
  -5  15   1   47.28    2.55
   5 -15   1   45.43    2.40
  -5 -15  -1   46.40    2.56
  -5 -15   1   44.17    2.65
   5 -15  -1   49.52    2.57
   5  15   1   50.48    2.63
   5 -15  -1   51.17    2.62
  -5 -15   1   43.89    2.56
  -5 -15   1   48.21    2.50
  -5  15  -1   51.42    2.51
   5  15  -2   37.84    2.47
   5 -15   2   36.60    2.64
   5 -15   2   40.82    2.15
  -5 -15  -2   39.84    2.40
  -5  15   2   41.54    2.39
  -5 -15   2   32.62    2.50
   5 -15  -2   40.21    2.36
  -5 -15   2   40.01    2.51
   5  15   2   38.64    2.33
  -5 -15   2   39.37    2.21
  -5  15  -2   37.09    2.23
   5  15  -3   39.27    2.55
   5 -15   3   41.15    2.77
  -5  15   3   40.43    2.44
   5 -15   3   36.59    2.10
  -5 -15  -3   37.98    2.42
  -5 -15   3   35.97    2.67
  -5  15  -3   43.33    2.39
   5 -15  -3   41.13    2.41
  -5 -15   3   39.55    2.50
   5  15   3   32.68    2.27
  -5  15   4   17.29    1.83
  -5 -15  -4   14.18    1.73
   5 -15   4   18.27    2.13
   5  15  -4   17.17    1.94
  -5  15  -4   19.08    1.82
   5 -15  -4   19.33    1.85
  -5 -15   4   13.46    1.95
   5  15   4   16.87    1.67
  -5 -15   4   18.02    1.94
  -6 -15   0   27.71    2.06
   6  15   0   33.12    2.25
   6 -15   0   29.98    2.10
  -6  15   0   29.76    2.00
  -6 -15   0   30.30    2.14
   6 -15   1    8.35    1.57
   6  15  -1    7.35    1.36
  -6 -15  -1    9.02    1.46
   6 -15   1    5.38    1.12
  -6  15  -1    7.96    1.17
   6  15   1    4.96    1.22
  -6 -15   1    4.80    1.28
  -6 -15   1    5.13    1.22
  -6  15  -1    6.20    1.06
  -6 -15   1    4.50    1.11
   6 -15  -1    6.65    1.18
   6 -15   2   25.30    1.84
   6  15  -2   35.33    2.43
  -6 -15  -2   27.06    2.12
  -6  15   2   32.53    2.20
   6 -15   2   25.42    2.46
  -6  15  -2   31.68    2.10
  -6  15  -2   31.80    2.02
  -6 -15   2   29.91    2.23
  -6 -15   2   27.63    2.36
  -6 -15   2   28.45    2.01
   6  15   2   27.89    2.14
   6 -15  -2   26.98    2.04
   6 -15   3   15.29    2.06
   6  15  -3   10.03    1.60
   6 -15   3   14.33    1.44
  -6  15   3   12.59    1.67
  -6 -15  -3   11.14    1.55
  -6 -15   3   13.54    1.75
   6 -15  -3   10.54    1.46
   6  15   3   12.27    1.49
  -6  15  -3   10.59    1.41
  -6 -15   3   11.41    1.87
  -6  15   4   18.70    1.96
   6  15  -4   16.53    1.97
  -6 -15  -4   14.85    1.75
   6 -15   4   16.63    2.12
  -6 -15   4   12.96    1.81
   6  15   4   16.36    1.64
   6 -15  -4   18.45    1.82
  -6 -15   4   15.89    2.13
  -6  15  -4   16.50    1.74
   7  15   0   36.92    2.54
  -7 -15   0   42.47    2.51
  -7  15   0   42.15    2.34
   7 -15   0   40.81    2.45
   7  15  -1   14.11    1.79
  -7 -15  -1   12.05    1.65
   7 -15   1   14.57    1.89
   7 -15   1    9.25    1.33
  -7  15   1   10.96    1.32
  -7 -15   1   12.31    1.80
  -7  15  -1   11.71    1.42
  -7 -15   1   11.98    1.51
  -7  15  -1   10.26    1.36
   7  15   1   14.12    1.76
   7 -15  -1   12.14    1.55
  -7 -15  -2   39.40    2.55
   7 -15   2   33.27    2.09
   7 -15   2   32.63    2.69
   7  15  -2   41.37    2.73
   7 -15  -2   32.20    2.27
  -7 -15   2   39.37    2.75
  -7 -15   2   37.86    2.33
   7  15   2   33.56    2.27
  -7  15  -2   33.71    2.27
  -7  15  -2   42.63    2.45
  -7 -15   2   38.13    2.55
  -7  15   3   12.85    1.69
  -7 -15  -3    8.54    1.47
   7  15  -3   13.60    1.81
   7 -15   3   11.39    1.94
   7 -15  -3    7.94    1.40
  -7 -15   3    9.39    1.58
  -7  15  -3    7.66    1.35
   7  15   3   12.65    1.50
  -7 -15   3   11.33    1.88
  -8 -15   0   27.54    2.15
   8 -15   0   21.27    2.00
  -8  15   0   29.82    2.05
   8  15   0   29.52    2.36
  -8  15   0   28.35    2.27
   0  16   0  181.57    5.57
   0 -16   0  167.62    5.51
   0 -16   0  172.13    5.56
   0  16   1    0.95    0.78
   0 -16  -1    2.24    0.85
   0 -16   1   -0.96    0.71
   0 -16   1    0.56    0.86
   0  16  -1    0.41    0.76
   0 -16  -1    0.25    0.68
   0  16  -2  157.34    5.13
   0 -16   2  155.84    5.45
   0 -16  -2  150.24    5.14
   0  16   2  160.43    5.22
   0 -16   2  159.99    5.19
   0  16   3   -0.40    0.78
   0 -16   3   -0.37    0.96
   0 -16  -3   -0.10    0.74
   0  16   4   60.97    2.99
   0 -16   4   56.17    2.88
   0 -16   4   64.45    3.37
   0 -16   5    0.00    0.97
   0  16   5    0.85    0.99
   0  16  -5   -0.79    0.66
   0 -16   5   -0.35    1.12
   1 -16   0    4.00    1.03
   1 -16   0    3.62    0.93
  -1 -16   0    3.72    0.95
  -1  16   0    3.89    1.00
   1  16   0    5.01    1.08
  -1 -16   0    3.67    0.98
   1 -16   1    0.64    0.79
   1 -16   1    1.80    0.94
   1  16  -1    0.20    0.74
  -1 -16  -1    0.67    0.68
  -1  16   1    2.18    0.89
  -1 -16  -1    0.53    0.77
   1 -16  -1    0.99    0.70
   1  16   1   -0.18    0.76
  -1 -16   1   -0.34    0.70
   1 -16  -1    0.04    0.77
  -1 -16   1   -0.48    0.77
  -1  16  -1    0.86    0.78
   1  16  -2    4.76    1.06
   1 -16   2    3.96    1.01
  -1 -16  -2    2.40    0.86
  -1  16   2    2.46    1.02
   1 -16   2    2.92    1.12
  -1 -16   2    3.63    1.17
  -1 -16   2    2.62    0.90
   1  16   2    1.92    0.82
  -1  16  -2    1.88    0.86
   1 -16  -2    2.34    0.94
   1 -16   3    2.18    0.97
  -1  16   3    1.45    0.92
  -1 -16  -3    2.53    0.86
   1 -16   3    3.47    1.21
   1  16  -3    2.79    1.00
   1 -16  -3    3.08    1.02
  -1 -16   3    1.70    1.10
  -1 -16   3    2.85    1.08
   1  16   3    2.27    0.90
   1 -16   4    4.72    1.15
   1 -16   4    2.74    1.22
  -1  16   4    4.11    1.18
  -1 -16   4    3.66    1.34
  -1 -16   4    3.75    1.10
   1 -16  -4    4.03    1.12
   1  16   4    4.09    1.09
  -1  16   5    0.14    0.90
  -1 -16  -5    1.88    1.13
   1 -16   5    0.81    1.10
   1 -16   5    1.46    0.99
   1  16   5    0.26    0.87
  -1  16  -5    1.45    0.78
  -1 -16   5    1.54    1.03
  -1 -16   5    0.87    1.20
  -2 -16   0  128.64    4.40
  -2 -16   0  128.47    4.44
  -2  16   0  121.35    4.33
   2  16   0  122.28    4.37
   2 -16   0  117.53    4.33
  -2 -16   0  127.85    4.46
   2 -16   0  120.46    4.33
   2  16  -1   13.69    1.53
  -2 -16  -1   16.03    1.56
  -2  16   1   15.22    1.60
  -2 -16  -1   12.93    1.44
   2 -16   1   17.87    1.77
  -2 -16  -1   16.21    1.66
   2 -16   1   14.16    1.54
  -2 -16   1   16.83    1.70
  -2 -16   1   15.98    1.76
   2 -16  -1   14.82    1.55
   2  16   1   17.58    1.68
  -2  16  -1   17.19    1.61
   2 -16  -1   13.60    1.51
  -2 -16   1   18.78    1.69
   2 -16   2  115.80    4.50
   2  16  -2  120.81    4.40
  -2 -16  -2  119.90    4.29
  -2 -16  -2  124.70    4.43
   2 -16   2  120.99    4.25
  -2  16   2  112.22    4.39
   2 -16  -2  122.58    4.47
  -2 -16   2  124.41    4.46
   2 -16  -2  122.91    4.90
  -2 -16   2  118.44    4.14
   2  16   2  113.06    4.20
  -2 -16   2  121.83    4.68
   2 -16   3   14.40    1.51
  -2  16   3   10.83    1.45
  -2 -16  -3   10.81    1.54
   2  16  -3   10.89    1.58
   2 -16   3   12.95    1.75
   2  16   3   11.69    1.47
  -2 -16   3   10.28    1.49
  -2 -16   3    9.41    1.65
   2 -16  -3   14.91    1.69
  -2 -16  -4   93.06    3.86
   2 -16   4   88.81    3.56
   2 -16   4   92.77    4.14
  -2  16   4   96.73    3.94
  -2  16  -4   84.50    3.51
  -2 -16   4   86.64    4.15
   2  16   4   90.15    3.59
  -2 -16   4   82.93    3.74
   2 -16  -4   95.15    3.89
  -2  16   5    7.71    1.47
  -2 -16  -5    7.82    1.50
   2 -16   5   11.35    1.86
   2 -16   5    7.29    1.24
  -2 -16   5    9.39    1.53
  -2  16  -5    4.93    1.10
   2  16   5    9.36    1.35
  -2 -16   5    7.27    1.74
   3 -16   0    1.45    0.83
   3  16   0    1.72    0.88
  -3 -16   0    0.73    0.85
   3 -16   0    0.27    0.84
  -3 -16   0    0.65    0.82
  -3 -16   0    0.28    0.82
  -3  16   0    0.21    0.77
  -3 -16  -1    0.04    0.79
   3 -16   1    0.05    0.73
  -3  16   1    0.74    0.88
  -3 -16  -1   -1.81    0.63
   3 -16   1    0.89    0.91
   3  16  -1   -0.42    0.85
   3 -16  -1    1.56    0.84
   3  16   1    0.67    0.80
  -3 -16   1    0.10    0.77
  -3 -16   1    0.18    0.91
   3 -16  -1    0.50    0.78
   3  16  -2    6.54    1.31
  -3 -16  -2    7.62    1.31
  -3  16   2    7.65    1.33
   3 -16   2    8.57    1.44
   3 -16   2    7.53    1.20
   3  16   2    5.44    1.12
  -3 -16   2    7.26    1.32
  -3 -16   2    6.62    1.48
   3 -16  -2    8.03    1.28
  -3 -16   2    2.61    0.94
   3 -16  -2    7.35    1.28
   3  16  -3    0.11    0.94
   3 -16   3    0.57    0.96
  -3  16   3   -0.44    0.79
   3 -16   3    1.30    0.84
  -3 -16  -3    0.28    0.89
   3  16   3    0.56    0.90
  -3  16  -3    0.12    0.74
  -3 -16   3   -0.19    1.14
  -3 -16   3   -1.97    0.79
   3 -16  -3   -0.27    0.80
   3  16  -4    6.24    1.32
  -3  16   4    6.16    1.33
   3 -16   4    8.12    1.62
  -3 -16  -4    4.13    1.21
  -3  16  -4    5.41    1.12
  -3 -16   4    5.67    1.33
   3 -16  -4    7.01    1.34
  -3 -16   4    6.00    1.52
   3  16   4    5.56    1.13
  -3  16   5    1.33    0.99
   3 -16   5    0.61    1.17
  -3 -16  -5    1.15    1.05
   3 -16   5    0.46    0.79
   3 -16  -5    1.73    1.05
  -3 -16   5    2.28    1.16
  -3  16  -5    0.05    0.82
  -3 -16   5    2.26    1.33
   3  16   5    1.46    0.93
   4  16   0   90.64    3.75
   4 -16   0   96.31    3.96
   4 -16   0   95.43    3.73
  -4  16   0   94.42    3.73
  -4 -16   0   89.68    3.71
  -4 -16   0   86.62    3.67
   4  16  -1   53.88    2.86
  -4 -16  -1   49.84    2.70
   4 -16   1   53.46    2.97
  -4  16   1   53.05    2.78
   4 -16   1   53.92    2.65
  -4 -16   1   54.82    2.94
   4  16   1   55.21    2.79
   4 -16  -1   54.46    2.81
  -4 -16   1   51.77    2.66
  -4 -16   1   49.91    2.75
   4 -16  -1   53.26    2.81
   4 -16   2   52.47    3.02
  -4 -16  -2   55.50    2.88
   4  16  -2   51.74    2.91
   4 -16   2   58.45    2.70
  -4  16   2   59.18    2.95
   4 -16  -2   54.87    2.86
   4 -16  -2   55.47    2.76
   4  16   2   62.79    2.86
  -4 -16   2   56.74    2.95
  -4  16  -2   50.64    2.70
  -4 -16   2   53.30    3.07
  -4 -16   2   55.34    2.71
   4  16  -3   31.55    2.30
   4 -16   3   28.24    2.32
  -4  16   3   32.21    2.26
   4 -16   3   31.70    1.99
  -4 -16  -3   26.39    2.14
  -4  16  -3   30.42    2.10
  -4 -16   3   25.62    2.31
   4 -16  -3   29.53    2.21
   4  16   3   32.44    2.13
  -4 -16   3   23.93    2.43
  -4  16   4   50.59    2.87
   4 -16   4   51.14    3.12
  -4 -16  -4   47.93    2.84
   4  16  -4   49.60    2.91
  -4  16  -4   49.77    2.67
  -4 -16   4   49.26    3.25
   4  16   4   52.18    2.69
  -4 -16   4   48.95    2.91
   4 -16  -4   52.29    2.88
  -5 -16   0    0.67    0.91
   5 -16   0    1.05    0.89
   5 -16   0    0.85    0.95
  -5 -16   0    1.81    0.97
   5  16   0    2.10    1.11
  -5 -16   0    1.24    0.92
   5  16  -1    3.89    1.22
  -5 -16  -1    3.06    1.12
   5 -16   1    1.41    1.14
   5 -16   1    4.54    1.11
  -5  16   1    3.60    1.12
  -5 -16   1    4.93    1.32
  -5 -16   1    3.98    1.09
   5 -16  -1    2.84    1.02
  -5 -16   1    2.68    1.01
  -5  16  -1    3.23    0.85
   5  16   1    4.38    1.24
   5 -16  -1    3.05    1.11
  -5  16  -1    4.20    0.99
   5 -16   2    0.45    0.80
  -5 -16  -2    1.25    0.90
   5 -16   2    2.22    1.26
  -5  16   2    0.31    0.90
   5  16  -2    0.83    1.06
  -5 -16   2    1.95    0.93
  -5 -16   2    1.69    1.03
  -5 -16   2    0.77    1.09
   5  16   2    2.18    1.08
  -5  16  -2    1.93    0.88
   5 -16  -2    1.05    0.89
   5 -16  -2    0.02    0.82
   5 -16   3    1.00    1.15
  -5 -16  -3    0.51    0.96
   5  16  -3   -0.43    0.98
   5 -16   3    1.42    0.90
  -5  16   3   -0.06    0.83
   5 -16  -3   -0.47    0.83
  -5 -16   3   -0.93    1.03
  -5  16  -3    2.20    0.98
  -5 -16   3   -0.55    0.93
   5  16   3    1.17    1.01
   5  16  -4    2.20    1.15
  -5 -16  -4    2.31    1.04
  -5  16   4    0.72    0.94
   5 -16   4    3.18    1.33
   5 -16  -4    1.46    0.92
  -5 -16   4    2.25    1.21
  -5 -16   4    2.15    1.37
   5  16   4    0.89    0.98
  -5  16  -4    1.11    0.88
  -6  16   0   25.41    1.93
  -6 -16   0   22.99    2.04
   6 -16   0   23.14    2.05
   6  16   0   18.49    1.98
   6 -16   0   27.16    2.28
  -6 -16  -1   53.39    2.93
   6 -16   1   50.70    2.68
   6 -16   1   51.13    3.15
   6  16  -1   54.55    3.04
   6 -16  -1   51.29    2.86
  -6 -16   1   61.80    3.10
  -6  16  -1   53.79    2.78
   6  16   1   53.21    2.92
  -6 -16   1   54.30    2.86
  -6 -16   1   50.63    3.00
  -6  16  -1   54.99    2.72
   6 -16  -1   57.22    3.02
  -6  16   2   21.00    1.95
   6  16  -2   22.32    2.21
   6 -16   2   23.99    2.48
  -6 -16  -2   19.97    1.99
   6 -16   2   20.76    1.75
   6 -16  -2   24.25    2.19
   6  16   2   20.75    1.98
  -6 -16   2   22.74    2.33
  -6 -16   2   20.88    2.06
  -6 -16   2   19.21    1.85
  -6  16  -2   18.00    1.78
   6 -16   3   50.24    2.49
  -6  16   3   47.76    2.80
   6  16  -3   48.88    2.99
  -6 -16  -3   42.13    2.72
   6 -16   3   47.47    3.18
  -6  16  -3   45.20    2.69
   6 -16  -3   44.67    2.71
  -6 -16   3   46.38    3.14
  -6 -16   3   45.63    2.95
   6  16   3   45.30    2.65
  -7  16   0   -0.46    0.79
   7 -16   0    1.16    1.00
  -7  16   0    1.93    0.96
   7 -16   0    1.33    1.09
  -7 -16   0    2.04    1.01
   7  16   0   -0.20    1.06
   7  16  -1    1.44    1.15
   7 -16   1   -0.25    0.81
   7 -16   1    0.16    1.09
  -7 -16  -1   -0.04    0.99
  -7  16   1    0.42    0.84
   7 -16  -1   -0.20    0.81
   7  16   1    1.17    1.05
  -7  16  -1   -0.21    0.80
  -7 -16   1    0.44    0.84
  -7 -16   1    0.39    1.11
  -7  16  -1    0.21    0.79
  -7 -16   2    0.70    0.87
   0 -17   0   -0.03    0.80
   0 -17   0    0.98    0.86
   0  17   0    0.86    0.84
   0 -17  -1   75.85    3.33
   0 -17   1   82.74    3.56
   0 -17  -1   81.08    3.27
   0 -17   1   83.56    3.41
   0  17  -1   81.71    3.39
   0  17   1   81.43    3.39
   0 -17   2   -1.05    0.71
   0  17   2    0.35    0.83
   0 -17   2   -0.61    0.86
   0  17  -2   -0.47    0.75
   0 -17  -2   -0.30    0.78
   0 -17   3   58.28    3.20
   0  17   3   59.11    2.97
   0 -17  -3   61.19    2.97
   0 -17   4   -0.84    1.03
   0  17   4    0.69    0.87
   0 -17   4   -1.39    0.85
   0 -17   5   45.65    3.14
   0 -17   5   42.75    2.64
   0  17  -5   40.21    2.36
   0  17   5   40.76    2.63
  -1  17   0    2.66    0.93
   1 -17   0    2.17    0.92
  -1 -17   0    2.55    0.94
  -1 -17   0    2.02    0.95
   1 -17   0    4.16    1.06
   1  17   0    2.45    1.01
   1 -17   1   49.13    2.69
  -1  17   1   51.93    2.64
  -1 -17  -1   43.88    2.58
  -1 -17  -1   48.81    2.59
   1 -17   1   49.51    2.58
   1  17  -1   48.50    2.56
   1  17   1   52.58    2.62
  -1  17  -1   45.86    2.46
  -1 -17   1   51.70    2.78
   1 -17  -1   49.39    2.46
  -1 -17   1   51.32    2.66
   1 -17  -1   48.73    2.62
   1  17  -2    1.93    1.00
   1 -17   2    1.78    1.05
  -1 -17  -2    1.47    0.90
  -1  17   2    1.24    0.97
   1 -17   2    3.44    1.07
  -1 -17   2    2.38    1.15
   1 -17  -2    3.03    1.00
   1  17   2    1.31    0.95
  -1 -17   2    2.31    0.95
  -1  17  -2    1.63    0.79
   1 -17   3   38.50    2.63
  -1 -17  -3   37.61    2.63
  -1  17   3   37.73    2.45
   1  17  -3   39.03    2.41
  -1 -17   3   37.99    2.44
   1 -17  -3   34.65    2.38
  -1 -17   3   37.77    2.69
   1  17   3   41.11    2.36
   1 -17   4    5.49    1.24
  -1  17   4    4.84    1.32
   1 -17   4    5.44    1.45
  -1 -17   4    4.14    1.37
   1 -17  -4    4.53    1.23
   1  17   4    5.11    1.17
  -1 -17   4    5.66    1.28
  -1 -17  -5   29.60    2.52
   1 -17   5   30.09    2.17
  -1  17   5   32.84    2.45
   1 -17   5   32.54    2.70
  -1 -17   5   24.06    2.56
  -1  17  -5   26.46    2.02
  -1 -17   5   28.58    2.26
   1  17   5   30.46    2.21
  -2 -17   0    5.23    1.18
   2  17   0    5.19    1.18
   2 -17   0    4.67    1.11
  -2 -17   0    5.41    1.23
  -2  17   0    6.75    1.14
  -2 -17   0    4.03    1.11
   2 -17   0    5.76    1.17
   2 -17   1   79.66    3.56
   2 -17   1   83.29    3.44
  -2 -17  -1   79.53    3.47
  -2 -17  -1   82.26    3.46
  -2  17   1   86.79    3.59
   2  17  -1   89.53    3.60
  -2 -17   1   84.86    3.41
  -2 -17   1   85.29    3.58
   2 -17  -1   82.98    3.52
  -2  17  -1   83.91    3.42
  -2 -17   1   84.82    3.70
   2 -17  -1   77.28    3.30
   2  17   1   81.45    3.46
   2  17  -2   14.76    1.64
  -2 -17  -2   14.19    1.59
  -2  17   2   16.74    1.82
  -2 -17  -2   15.68    1.76
   2 -17   2   13.64    1.75
   2 -17   2   11.69    1.49
  -2 -17   2   13.52    1.49
   2 -17  -2   15.20    1.67
  -2 -17   2   11.64    1.73
  -2 -17   2   14.69    1.68
   2  17   2   13.94    1.57
   2  17  -3   40.28    2.59
  -2  17   3   44.93    2.73
   2 -17   3   46.26    2.53
   2 -17   3   45.71    2.86
  -2 -17  -3   44.66    2.69
   2  17   3   45.71    2.57
  -2 -17   3   42.28    2.68
  -2 -17   3   46.97    2.95
   2 -17  -3   48.42    2.77
   2 -17   4    1.32    1.15
  -2  17   4    4.08    1.25
   2 -17   4    2.29    1.00
  -2 -17  -4    3.76    1.27
  -2 -17   4    3.72    1.29
  -2 -17   4    4.20    1.39
   2  17   4    0.78    0.95
  -2  17  -4    2.88    1.02
   2 -17  -4    1.40    1.17
   2 -17   5   25.78    2.59
  -2 -17  -5   22.50    2.22
   2 -17   5   22.80    1.92
  -2 -17   5   24.09    2.71
  -2 -17   5   23.85    2.16
  -2  17  -5   20.01    1.82
  -3 -17   0    9.33    1.43
  -3 -17   0    7.88    1.33
   3  17   0   10.17    1.46
  -3  17   0    7.55    1.32
   3 -17   0   10.58    1.55
   3 -17   0    9.05    1.35
  -3 -17   0    7.84    1.34
  -3  17   1   36.02    2.36
   3  17  -1   35.43    2.37
  -3 -17  -1   34.00    2.23
   3 -17   1   33.05    2.33
   3 -17   1   31.99    2.13
  -3 -17  -1   36.36    2.38
   3 -17  -1   33.89    2.24
   3  17   1   35.37    2.27
  -3 -17   1   38.65    2.57
  -3 -17   1   32.20    2.17
   3 -17   2    6.33    1.37
  -3 -17  -2    5.26    1.22
  -3  17   2    4.01    1.15
   3 -17   2    4.96    1.14
   3  17  -2    5.72    1.28
  -3 -17   2    3.66    1.09
   3  17   2    4.53    1.19
   3 -17  -2    4.68    1.28
  -3 -17   2    5.50    1.50
  -3 -17   2    2.65    1.11
   3 -17   3   37.73    2.32
  -3 -17  -3   45.63    2.70
   3  17  -3   36.91    2.57
  -3  17   3   41.91    2.66
   3 -17   3   42.76    2.76
  -3 -17   3   38.99    2.62
  -3  17  -3   37.56    2.37
  -3 -17   3   42.43    2.96
   3 -17  -3   43.49    2.66
   3  17   3   40.30    2.41
   3  17  -4    8.69    1.51
  -3 -17  -4   11.74    1.63
   3 -17   4   11.20    1.82
  -3  17   4    9.97    1.60
  -3 -17   4    9.97    1.87
  -3 -17   4    9.78    1.59
  -3  17  -4   10.72    1.48
   3 -17  -4    9.92    1.58
   3  17   4   10.58    1.49
   4  17   0   15.36    1.78
  -4 -17   0   17.77    1.80
   4 -17   0   16.45    1.73
  -4 -17   0   15.90    1.79
   4 -17   0   24.16    2.24
  -4 -17   0   20.74    1.94
   4 -17   1   33.49    2.52
  -4  17   1   38.54    2.52
   4  17  -1   43.13    2.63
   4 -17   1   35.66    2.24
  -4 -17  -1   36.28    2.41
  -4 -17   1   34.13    2.51
  -4 -17   1   35.00    2.32
  -4 -17   1   35.85    2.45
   4 -17  -1   40.03    2.53
   4  17   1   35.45    2.41
   4 -17  -1   38.81    2.54
  -4  17   2   19.41    1.99
  -4 -17  -2   18.16    2.01
   4  17  -2   23.26    2.21
   4 -17   2   22.70    1.86
   4 -17   2   22.52    2.23
  -4 -17   2   18.66    1.84
  -4 -17   2   16.07    2.02
   4  17   2   20.35    1.87
  -4 -17   2   14.68    1.81
   4 -17  -2   19.45    1.90
   4 -17  -2   21.82    1.95
   4  17  -3   28.88    2.36
   4 -17   3   30.41    2.07
  -4 -17  -3   27.75    2.43
   4 -17   3   33.30    2.58
  -4  17   3   27.80    2.33
  -4  17  -3   23.93    2.08
   4 -17  -3   31.73    2.37
  -4 -17   3   29.26    2.63
  -4 -17   3   32.63    2.52
   4  17   3   35.09    2.27
  -4 -17  -4   15.01    1.89
   4  17  -4   16.26    1.94
   4 -17   4   14.57    2.05
  -4  17   4   18.42    2.00
  -4 -17   4   12.63    2.04
  -4 -17   4   15.16    1.92
  -4  17  -4   13.53    1.60
   4 -17  -4   15.29    1.82
   4  17   4   16.67    1.70
  -5 -17   0   22.46    2.14
   5 -17   0   26.93    2.32
   5 -17   0   26.48    2.09
   5  17   0   23.27    2.15
  -5 -17   0   16.44    2.07
   5 -17   1   17.13    1.72
  -5 -17  -1   14.05    1.72
   5  17  -1   12.57    1.78
   5 -17   1   18.54    2.17
   5 -17  -1   18.16    1.98
  -5  17  -1   11.79    1.51
   5 -17  -1   16.20    1.83
  -5 -17   1   14.29    1.75
  -5 -17   1   15.05    1.92
   5  17   1   13.22    1.68
  -5 -17   1   14.59    1.66
   5  17  -2   22.39    2.15
  -5 -17  -2   21.20    2.09
   5 -17   2   27.25    2.59
   5 -17   2   23.12    1.91
  -5  17   2   29.96    2.34
   5 -17  -2   22.63    2.18
  -5 -17   2   21.78    2.33
  -5 -17   2   30.29    2.39
   5  17   2   25.85    2.14
  -5 -17   2   21.25    1.94
   5 -17  -2   24.01    2.11
  -5  17  -2   19.02    1.87
   5 -17   3   10.02    1.71
   5  17  -3    8.35    1.52
   5 -17   3    6.64    1.20
  -5  17   3    7.28    1.40
  -5 -17  -3    8.73    1.50
  -5  17  -3    8.10    1.30
   5  17   3    5.71    1.32
  -5 -17   3    8.91    1.52
  -5 -17   3    8.27    1.81
   5 -17  -3    8.26    1.46
   6  17   0   47.87    2.88
   6 -17   0   47.51    3.01
   6 -17   0   46.99    2.75
  -6 -17   0   43.64    2.71
  -6  17   0   42.13    2.51
  -6 -17  -1   12.68    1.74
   6 -17   1   17.42    2.16
   6  17  -1   15.23    1.89
   6 -17   1   12.03    1.60
  -6 -17   1   12.85    1.83
  -6 -17   1   13.44    2.02
   6 -17  -1   17.46    2.00
   6  17   1   14.67    1.75
  -6  17  -1   11.94    1.53
   6 -17  -1   13.75    1.76
  -6 -17   1    9.71    1.54
  -6 -17  -2   21.85    2.18
   6 -17   2   22.17    1.87
   6  17  -2   21.04    2.20
   6 -17   2   24.97    2.62
  -6 -17   2   20.44    2.26
  -6 -17   2   22.57    2.24
  -6  17  -2   20.35    1.97
   6 -17  -2   27.74    2.20
   6 -17  -2   22.01    2.08
   6  17   2   21.63    2.05
  -6 -17   2   19.61    1.96
   0 -18   0    1.45    0.92
   0  18   0   -0.34    0.77
   0 -18   0    1.74    1.02
   0 -18  -1    0.66    0.90
   0  18   1   -0.56    0.85
   0 -18   1    0.35    0.98
   0 -18   1    0.02    0.83
   0  18  -1    0.22    0.87
   0  18  -2    2.19    0.98
   0 -18   2    1.35    1.13
   0 -18   2    0.80    0.97
   0  18   2    1.05    0.92
   0 -18  -2    1.72    0.92
   0 -18  -3    0.53    0.93
   0 -18   3   -0.12    1.10
   0  18   3   -0.17    0.92
   0 -18   4   -0.07    1.21
   0  18   4    0.74    1.03
   0 -18   4   -0.46    1.06
  -1 -18   0  119.11    4.46
   1 -18   0  115.57    4.46
  -1  18   0  125.23    4.53
   1  18   0  129.12    4.56
   1 -18   0  121.18    4.51
  -1 -18   0  122.76    4.55
  -1 -18  -1    3.59    1.16
   1 -18   1    0.75    0.91
  -1  18   1    1.75    0.96
   1  18  -1    2.49    1.04
   1 -18   1    2.69    1.08
  -1 -18   1    1.05    0.96
  -1 -18   1    2.15    1.00
   1 -18  -1    1.91    0.99
   1  18   1    0.14    0.85
  -1 -18   1    1.00    1.08
  -1  18  -1    1.75    0.91
   1 -18  -1    2.76    1.02
   1  18  -2  110.77    4.29
   1 -18   2  107.62    4.21
  -1 -18  -2  110.78    4.26
   1 -18   2  105.86    4.46
  -1  18   2  104.89    4.26
  -1 -18   2  113.31    4.07
  -1 -18   2  114.88    4.61
   1 -18  -2  109.36    4.31
   1  18   2  113.58    4.28
   1 -18   3    1.08    1.23
   1  18  -3    1.47    1.20
  -1  18   3    1.61    1.07
   1  18   3    2.45    1.04
   1 -18  -3    2.38    1.11
  -1 -18   3    0.98    1.21
  -1 -18   3    0.26    1.00
   1 -18   4  111.83    4.32
   1 -18   4  105.23    4.76
  -1  18   4  108.14    4.49
  -1 -18   4  108.52    4.88
   1  18   4  110.30    4.26
  -1 -18   4  111.21    4.43
   2 -18   0    0.34    0.87
  -2 -18   0    0.78    0.97
  -2 -18   0    0.52    0.96
  -2  18   0    1.56    0.93
   2  18   0    0.75    0.88
  -2 -18   0    1.65    1.08
   2 -18   0    1.37    0.96
   2 -18   1   -0.12    0.90
  -2  18   1    1.46    1.00
   2 -18   1   -0.38    0.88
   2  18  -1   -0.28    0.99
  -2 -18  -1   -0.80    0.83
  -2 -18  -1    0.47    0.97
  -2 -18   1   -0.85    0.85
  -2 -18   1   -0.04    0.97
  -2  18  -1    0.51    0.81
  -2 -18   1    2.01    1.16
   2 -18  -1   -0.57    0.78
   2 -18  -1    0.76    0.99
   2  18   1    1.01    0.97
  -2 -18  -2    0.55    0.88
  -2 -18  -2   -0.83    0.94
   2 -18   2    0.31    0.88
  -2  18   2    0.73    0.98
   2  18  -2    0.24    0.92
   2 -18   2   -1.88    0.95
   2 -18  -2    1.06    0.96
   2  18   2   -0.35    0.89
  -2 -18   2    0.93    1.01
  -2 -18   2   -0.06    0.85
  -2 -18   2    0.18    1.16
   2 -18   3    0.20    0.91
  -2  18   3   -0.29    1.02
  -2 -18  -3   -0.66    1.03
   2 -18   3    1.56    1.12
   2  18  -3    0.91    1.05
  -2 -18   3    0.56    1.06
   2 -18  -3    1.24    0.99
  -2 -18   3   -0.87    1.09
   2  18   3   -0.02    0.89
   2 -18   4    0.82    0.98
   2 -18   4    1.33    1.30
  -2 -18  -4    0.04    1.09
  -2  18   4   -0.55    1.02
   2  18   4   -0.89    0.86
   2 -18  -4   -0.16    1.00
  -2 -18   4    0.05    1.23
  -2 -18   4    0.13    1.06
  -2  18  -4    0.19    0.84
  -3 -18   0   82.56    3.62
  -3 -18   0   80.28    3.61
  -3 -18   0   81.25    3.52
   3 -18   0   75.33    3.46
   3  18   0   82.32    3.61
   3 -18   0   77.39    3.55
  -3  18   0   79.66    3.49
  -3  18   1   19.56    1.94
   3 -18   1   25.17    2.02
   3 -18   1   25.50    2.20
  -3 -18  -1   21.35    2.02
   3  18  -1   22.18    2.05
  -3 -18  -1   24.33    2.20
  -3 -18   1   27.76    2.35
  -3 -18   1   24.04    2.07
   3  18   1   28.03    2.13
  -3 -18   1   21.94    2.05
   3 -18  -1   25.42    2.04
   3 -18  -1   27.78    2.18
   3 -18   2   84.38    3.91
   3 -18   2   83.14    3.55
  -3 -18  -2   81.83    3.74
  -3  18   2   86.07    3.87
   3  18  -2   79.32    3.75
   3 -18  -2   80.72    3.77
  -3 -18   2   81.41    3.99
  -3 -18   2   80.97    3.48
  -3 -18   2   89.45    3.87
   3  18   2   82.00    3.61
  -3 -18  -3   24.59    2.33
   3 -18   3   22.51    2.35
  -3  18   3   30.39    2.41
   3  18  -3   27.35    2.38
   3 -18   3   27.38    2.07
  -3 -18   3   21.65    2.41
  -3  18  -3   17.65    1.86
  -3 -18   3   19.63    2.09
   3  18   3   22.15    2.00
   3 -18  -3   22.88    2.26
  -3 -18  -4   55.98    3.10
   4 -18   0    2.13    1.19
  -4 -18   0    2.89    1.18
   4 -18   0    0.77    1.01
  -4 -18   0    1.90    1.08
   4  18   0    1.29    1.05
  -4 -18  -1    0.76    1.04
   4  18  -1    1.48    1.09
   4 -18   1    3.99    1.41
   4 -18   1    1.79    1.05
  -4  18   1    1.82    1.14
  -4 -18   1    1.05    1.00
   4 -18  -1    1.82    1.12
  -4 -18   1    1.07    0.99
  -4 -18   1    1.60    1.20
   4 -18  -1    0.34    0.94
   4  18   1    2.42    1.15
  -4  18   2    0.10    1.04
  -4 -18  -2   -0.73    0.92
   4  18  -2    0.33    1.18
   4 -18   2   -0.19    1.06
   4 -18   2    2.65    1.05
  -4 -18   2    1.29    1.15
   4  18   2   -0.47    0.98
  -4 -18   2    0.82    1.02
  -4  18  -2    0.25    0.89
  -4 -18   2   -1.00    1.07
   4 -18  -2   -0.82    0.97
   4  18  -3    1.24    1.14
   4 -18   3    0.74    1.11
  -4  18   3    1.55    1.09
  -4 -18  -3   -1.52    0.90
   4 -18   3    0.17    0.94
   4 -18  -3    1.93    1.15
  -4 -18   3    2.46    1.26
   4  18   3    1.04    1.00
  -4 -18   3    0.01    1.23
  -4  18  -3    0.73    0.88
   5  18   0   42.70    2.75
   5 -18   0   42.10    2.88
   5 -18   0   37.28    2.51
  -5 -18   0   36.22    2.57
   5 -18   1   36.28    2.80
   5 -18   1   34.26    2.33
   5  18  -1   36.80    2.70
  -5 -18  -1   36.62    2.56
  -5  18  -1   34.98    2.37
   5 -18  -1   36.73    2.62
  -5 -18   1   32.59    2.60
  -5 -18   1   33.52    2.40
   5 -18  -1   37.75    2.66
   5  18   1   37.36    2.59
  -5 -18   1   39.44    2.67
   5  18  -2   51.89    3.08
  -5 -18  -2   48.36    2.98
  -5  18   2   46.93    2.99
   5 -18   2   54.75    3.29
   5 -18   2   51.96    2.73
   5 -18  -2   50.82    3.06
  -5 -18   2   47.11    3.19
   5 -18  -2   53.69    4.06
  -5 -18   2   49.04    3.10
   5  18   2   50.25    2.91
  -5 -18   2   48.61    2.74
   0 -19   0   -1.17    0.89
   0 -19   0    0.61    1.01
   0  19   0    1.09    1.00
   0 -19   1   56.13    2.94
   0  19  -1   56.34    2.94
   0  19   1   52.37    2.91
   0 -19   1   54.83    3.07
   0 -19  -1   56.67    2.99
   0  19  -2    1.77    1.01
   0 -19  -2    2.14    1.05
   0  19   2   -0.58    0.95
   0 -19   2    1.83    1.24
   0 -19   2    0.25    0.99
   0 -19   3   37.72    2.53
   0  19   3   35.92    2.46
   0 -19  -3   34.80    2.44
   0 -19   3   35.39    2.75
   1 -19   0   -0.23    0.89
   1  19   0    0.11    1.01
  -1  19   0    0.89    0.93
   1 -19   0    0.35    0.92
  -1 -19   0    0.33    0.91
  -1 -19   0    0.94    0.96
   1  19  -1   69.39    3.24
   1 -19   1   62.24    3.29
   1 -19   1   63.60    3.15
  -1  19   1   66.57    3.21
  -1 -19  -1   61.34    3.16
  -1 -19   1   64.11    3.22
   1  19   1   65.92    3.19
  -1 -19   1   65.30    3.35
  -1  19  -1   72.23    3.26
   1 -19  -1   67.06    3.22
  -1 -19   1   65.10    3.11
  -1 -19  -2    2.50    1.06
   1 -19   2    0.57    0.97
   1 -19   2    3.07    1.29
  -1  19   2    2.39    1.05
   1  19  -2    0.17    1.03
   1  19   2    0.88    1.04
  -1 -19   2    2.82    1.29
  -1 -19   2    0.49    0.96
   1 -19  -2   -0.49    0.91
  -1  19   3   73.08    3.55
   1 -19   3   68.40    3.70
   1 -19  -3   72.01    3.53
   1  19   3   71.96    3.42
  -1 -19   3   67.31    3.45
  -1 -19   3   71.18    3.77
  -2 -19   0    3.93    1.19
   2 -19   0    2.77    1.07
   2  19   0    3.54    1.22
  -2 -19   0    2.49    1.15
  -2  19   0    4.59    1.19
  -2 -19   0    3.57    1.24
   2 -19   0    3.52    1.16
   2 -19   1   51.05    2.93
  -2  19   1   47.28    2.77
   2  19  -1   45.76    2.78
  -2 -19  -1   51.65    2.87
   2 -19   1   46.55    2.71
  -2 -19  -1   47.59    2.76
   2 -19  -1   45.46    2.59
  -2 -19   1   50.63    2.77
   2 -19  -1   42.74    2.71
  -2 -19   1   45.62    2.84
   2  19   1   50.20    2.85
  -2 -19  -2    2.07    1.34
   2 -19   2    2.16    1.16
   2  19  -2    4.26    1.27
  -2 -19  -2    2.84    1.12
   2 -19   2    3.92    1.33
  -2  19   2    4.14    1.26
  -2 -19   2    2.52    1.29
   2  19   2    2.06    1.12
  -2 -19   2    2.31    1.12
  -2 -19   2    1.79    0.99
   2 -19  -2    2.70    1.17
  -2 -19  -3   28.44    2.53
   2  19  -3   32.26    2.51
   2 -19   3   33.29    2.35
  -2  19   3   34.47    2.59
   2 -19   3   33.67    2.72
   2 -19  -3   30.46    2.45
   2  19   3   34.03    2.34
  -2 -19   3   36.71    2.82
  -2 -19   3   32.97    2.56
   3 -19   0   10.37    1.65
  -3  19   0   10.44    1.50
   3 -19   0   11.64    1.57
   3  19   0   13.32    1.73
  -3 -19   0   11.03    1.62
   3  19  -1   59.56    3.16
  -3 -19  -1   56.75    3.05
   3 -19   1   54.50    2.94
   3 -19   1   54.49    3.12
  -3  19   1   59.97    3.17
  -3 -19  -1   52.02    3.00
   3 -19  -1   57.29    3.00
   3 -19  -1   55.45    3.10
  -3 -19   1   54.93    3.24
  -3 -19   1   55.26    2.94
  -3 -19   1   53.77    3.08
   3  19   1   55.53    2.98
  -3 -19  -2   15.81    1.90
   3 -19   2   15.41    1.70
   3  19  -2   16.30    1.93
  -3  19   2   14.12    1.85
   3 -19   2   14.03    1.91
  -3 -19   2   14.60    1.89
   3  19   2   14.91    1.74
  -3 -19   2   12.24    1.60
  -3 -19   2   14.44    2.03
   3 -19  -2   12.95    1.81
   3  19  -3   51.79    3.11
   3 -19   3   51.58    2.83
   3 -19   3   52.15    3.25
  -3  19   3   51.43    3.19
  -3 -19  -3   52.60    3.09
  -3 -19   3   54.76    3.46
   3 -19  -3   54.31    3.19
  -3  19  -3   52.35    2.88
   3  19   3   52.29    2.94
  -3 -19   3   48.65    3.09
   4  19   0   14.34    1.84
   4 -19   0   15.32    1.97
   4 -19   0   12.67    1.72
  -4 -19   0   13.43    1.77
  -4 -19   0   12.30    1.77
   4 -19   1   28.67    2.43
  -4 -19  -1   20.44    2.13
  -4  19   1   24.07    2.23
   4  19  -1   20.84    2.18
   4 -19   1   27.63    2.19
   4 -19  -1   21.80    2.14
  -4 -19   1   25.06    2.33
   4 -19  -1   23.38    2.26
  -4 -19   1   20.80    2.29
  -4 -19   1   21.19    2.10
   4  19   1   24.47    2.23
   4 -19   2   12.08    1.65
   4  19  -2   15.29    2.00
   4 -19   2   12.75    1.92
  -4  19   2    8.26    1.60
  -4 -19  -2   11.12    1.75
  -4 -19   2   13.84    1.82
  -4 -19   2   11.33    1.58
   4  19   2   13.83    1.77
  -4  19  -2   10.00    1.49
   4 -19  -2   12.89    1.86
  -4 -19   2   11.14    1.91
  -5 -19   0   18.34    1.99
   0 -20   0  145.81    5.23
   0  20   0  143.94    5.19
   0 -20   0  136.98    5.15
   0 -20   1    0.50    1.03
   0  20   1    0.07    0.96
   0 -20   1   -0.81    0.91
   0  20  -1    0.83    0.97
   0 -20  -1    0.27    1.00
   0 -20   2   82.64    3.76
   0  20   2   83.40    3.79
   0 -20   2   81.14    3.93
   0 -20  -2   81.97    3.76
   0 -20   2   77.09    4.04
   1  20   0    2.40    1.12
  -1 -20   0   -0.51    1.00
  -1  20   0    4.31    1.22
   1 -20   0    2.43    1.19
  -1 -20   0    1.20    1.15
  -1 -20   0    1.85    1.16
   1 -20   0    0.56    1.08
   1  20  -1    2.40    1.14
  -1  20   1    0.72    1.06
  -1 -20  -1    0.30    1.02
   1 -20   1    3.35    1.30
   1 -20   1    0.57    0.99
  -1 -20   1    2.37    1.20
  -1 -20   1    0.13    1.02
  -1  20  -1    1.57    1.07
   1  20   1    0.64    1.06
  -1 -20   1    0.23    1.09
   1 -20  -1    1.85    1.15
  -1  20   2    5.59    1.33
   1  20  -2    6.65    1.48
  -1 -20  -2    6.44    1.48
   1 -20   2    4.45    1.49
   1 -20   2    4.54    1.25
  -1 -20   2    5.36    1.51
  -1 -20   2    7.25    1.46
   1  20   2    3.91    1.22
   1 -20  -2    4.27    1.26
  -2  20   0  102.81    4.25
   2  20   0  103.81    4.23
   2 -20   0   99.78    4.21
   2 -20   0  102.00    4.25
  -2 -20   0   96.12    4.20
  -2 -20   0  106.96    4.25
  -2  20   1   12.61    1.62
   2 -20   1    9.96    1.71
  -2 -20  -1   10.52    1.60
  -2 -20  -1   14.10    1.80
   2 -20   1   10.57    1.62
   2  20  -1   12.75    1.78
  -2 -20   1    9.16    1.65
   2  20   1   15.55    1.79
  -2 -20   1    8.19    1.49
   2 -20  -1    9.04    1.49
   2 -20   2   83.67    4.03
   2  20  -2   76.93    3.73
  -2  20   2   80.60    3.81
  -2 -20  -2   80.95    3.77
   2 -20   2   74.81    3.59
   2  20   2   80.87    3.69
  -2 -20   2   79.26    3.94
  -2 -20   2   75.14    3.75
  -2 -20   2   80.40    3.71
   2 -20  -2   82.57    3.81
   3 -20   0    2.99    1.17
  -3 -20   0    2.37    1.19
   3  20   0    2.91    1.21
   3 -20   0    3.97    1.31
  -3  20   1   -0.65    1.01
  -3 -20  -1    0.37    0.94
   3 -20   1   -0.81    1.04
   3  20  -1   -0.74    1.11
   3 -20   1    0.99    1.09
  -3 -20  -1   -0.15    1.05
   3  20   1    2.35    1.21
   3 -20  -1    2.54    1.57
  -3 -20   1   -0.13    1.03
   3 -20  -1    1.92    1.13
  -3 -20   1   -0.14    0.99
  -3 -20   1    2.92    1.39
   0  21   0    1.35    1.05
   0 -21   0    1.13    1.06
   0 -21   0   -0.26    1.37
   1 -21   0    5.48    1.40
  -1 -21   0    3.74    1.26
  -1 -21   0    2.04    1.28
   1 -21   0    4.91    1.31
   0   0   0    0.00    0.00
;
_shelx_hkl_checksum              85885
_olex2_submission_special_instructions 'No special instructions were received'
loop_
_space_group_symop_operation_xyz
'x, y, z'
'-x, -y, z+1/2'
'-x+1/2, y+1/2, z+1/2'
'x+1/2, -y+1/2, z'
loop_
_atom_site_label
_atom_site_type_symbol
_atom_site_fract_x
_atom_site_fract_y
_atom_site_fract_z
_atom_site_U_iso_or_equiv
_atom_site_adp_type
_atom_site_occupancy
_atom_site_site_symmetry_order
_atom_site_calc_flag
_atom_site_refinement_flags_posn
C1 C 0.8628(4) 0.22765(19) 0.3848(5) 0.0107(6) Uani 1 1 d .
C2 C 0.9604(4) 0.1988(2) 0.1992(5) 0.0134(6) Uani 1 1 d .
C3 C 1.0219(4) 0.2693(2) 0.0533(7) 0.0166(8) Uani 1 1 d .
H3 H 1.0823 0.2527 -0.0706 0.020 Uiso 1 1 calc R
C4 C 0.9945(4) 0.35531(19) 0.0919(10) 0.0160(6) Uani 1 1 d .
H4 H 1.0384 0.3986 -0.0033 0.019 Uiso 1 1 calc R
C5 C 0.8976(4) 0.3856(2) 0.2789(5) 0.0128(6) Uani 1 1 d .
C6 C 0.8335(4) 0.3152(2) 0.4300(5) 0.0107(6) Uani 1 1 d .
C7 C 0.7256(4) 0.4252(2) 0.6847(6) 0.0159(6) Uani 1 1 d .
H7A H 0.6618 0.4611 0.5829 0.024 Uiso 1 1 calc GR
H7B H 0.8350 0.4521 0.7048 0.024 Uiso 1 1 calc GR
H7C H 0.6673 0.4233 0.8218 0.024 Uiso 1 1 calc GR
I1 I 0.77508(2) 0.12610(2) 0.58004(10) 0.01189(5) Uani 1 1 d .
O1 O 0.9939(3) 0.12055(15) 0.1641(4) 0.0195(5) Uani 1 1 d .
O2 O 0.8696(3) 0.46459(15) 0.3054(4) 0.0168(5) Uani 1 1 d .
O3 O 0.7443(3) 0.33548(14) 0.6027(7) 0.0146(6) Uani 1 1 d .
loop_
_atom_site_aniso_label
_atom_site_aniso_U_11
_atom_site_aniso_U_22
_atom_site_aniso_U_33
_atom_site_aniso_U_23
_atom_site_aniso_U_13
_atom_site_aniso_U_12
C1 0.0119(14) 0.0099(14) 0.0102(14) 0.0030(11) 0.0000(11) -0.0014(11)
C2 0.0156(15) 0.0133(15) 0.0114(16) 0.0015(12) -0.0001(12) -0.0022(11)
C3 0.0194(13) 0.0166(14) 0.014(2) 0.0020(14) 0.0028(15) -0.0027(10)
C4 0.0211(13) 0.0141(13) 0.0128(15) 0.002(2) -0.002(2) -0.0036(9)
C5 0.0142(14) 0.0119(15) 0.0123(14) 0.0025(12) -0.0045(11) -0.0035(11)
C6 0.0101(13) 0.0105(14) 0.0115(14) -0.0011(11) -0.0016(11) -0.0009(11)
C7 0.0201(16) 0.0091(15) 0.0186(17) -0.0031(13) 0.0045(13) -0.0007(12)
I1 0.01485(8) 0.00789(7) 0.01294(8) 0.00180(15) 0.0015(3) -0.00061(6)
O1 0.0280(13) 0.0102(11) 0.0204(11) -0.0012(9) 0.0050(10) 0.0010(10)
O2 0.0223(12) 0.0093(11) 0.0189(12) 0.0018(9) -0.0021(10) 0.0010(9)
O3 0.0205(10) 0.0076(8) 0.0157(17) -0.0020(12) 0.0053(13) -0.0003(7)
loop_
_atom_type_symbol
_atom_type_description
_atom_type_scat_dispersion_real
_atom_type_scat_dispersion_imag
_atom_type_scat_source
C C 0.0033 0.0016 'International Tables Vol C Tables 4.2.6.8 and 6.1.1.4'
H H 0.0000 0.0000 'International Tables Vol C Tables 4.2.6.8 and 6.1.1.4'
I I -0.4742 1.8119 'International Tables Vol C Tables 4.2.6.8 and 6.1.1.4'
O O 0.0106 0.0060 'International Tables Vol C Tables 4.2.6.8 and 6.1.1.4'
loop_
_geom_angle_atom_site_label_1
_geom_angle_atom_site_label_2
_geom_angle_atom_site_label_3
_geom_angle
C2 C1 I1 115.7(2)
C6 C1 C2 122.7(3)
C6 C1 I1 121.6(2)
C1 C2 C3 117.3(3)
O1 C2 C1 122.9(3)
O1 C2 C3 119.8(3)
C2 C3 H3 119.3
C4 C3 C2 121.5(4)
C4 C3 H3 119.3
C3 C4 H4 119.0
C3 C4 C5 122.0(4)
C5 C4 H4 119.0
C4 C5 C6 117.7(3)
O2 C5 C4 120.3(3)
O2 C5 C6 122.0(3)
C1 C6 C5 118.8(3)
O3 C6 C1 118.8(3)
O3 C6 C5 122.4(3)
H7A C7 H7B 109.5
H7A C7 H7C 109.5
H7B C7 H7C 109.5
O3 C7 H7A 109.5
O3 C7 H7B 109.5
O3 C7 H7C 109.5
C6 O3 C7 123.7(3)
loop_
_geom_bond_atom_site_label_1
_geom_bond_atom_site_label_2
_geom_bond_distance
C1 C2 1.470(4)
C1 C6 1.362(4)
C1 I1 2.076(3)
C2 C3 1.482(5)
C2 O1 1.223(4)
C3 H3 0.9500
C3 C4 1.329(4)
C4 H4 0.9500
C4 C5 1.480(6)
C5 C6 1.508(4)
C5 O2 1.216(4)
C6 O3 1.335(4)
C7 H7A 0.9800
C7 H7B 0.9800
C7 H7C 0.9800
C7 O3 1.447(4)
loop_
_geom_torsion_atom_site_label_1
_geom_torsion_atom_site_label_2
_geom_torsion_atom_site_label_3
_geom_torsion_atom_site_label_4
_geom_torsion
C1 C2 C3 C4 2.1(5)
C1 C6 O3 C7 170.5(3)
C2 C1 C6 C5 2.6(4)
C2 C1 C6 O3 -179.6(3)
C2 C3 C4 C5 -1.7(6)
C3 C4 C5 C6 1.5(5)
C3 C4 C5 O2 -177.3(4)
C4 C5 C6 C1 -2.0(4)
C4 C5 C6 O3 -179.7(3)
C5 C6 O3 C7 -11.8(5)
C6 C1 C2 C3 -2.6(4)
C6 C1 C2 O1 176.2(3)
I1 C1 C2 C3 178.6(2)
I1 C1 C2 O1 -2.5(4)
I1 C1 C6 C5 -178.7(2)
I1 C1 C6 O3 -0.9(4)
O1 C2 C3 C4 -176.8(4)
O2 C5 C6 C1 176.8(3)
O2 C5 C6 O3 -0.9(5)
