#------------------------------------------------------------------------------
#$Date: 2019-11-24 16:16:12 +0200 (Sun, 24 Nov 2019) $
#$Revision: 238522 $
#$URL: file:///home/coder/svn-repositories/cod/cif/1/55/53/1555345.cif $
#------------------------------------------------------------------------------
#
# This file is available in the Crystallography Open Database (COD),
# http://www.crystallography.net/
#
# All data on this site have been placed in the public domain by the
# contributors.
#
data_1555345
loop_
_publ_author_name
'Wright, Stephen W.'
'Choi, Chulho'
'Chung, Seungwon'
'Boscoe, Brian P.'
'Drozda, Susan E.'
'Mousseau, James J.'
'Trzupek, John D.'
_publ_section_title
;
 Reversal of Diastereoselection in the Conjugate Addition of Cuprates to
 Unsaturated Lactams.
;
_journal_issue                   21
_journal_name_full               'Organic letters'
_journal_page_first              5204
_journal_page_last               5207
_journal_paper_doi               10.1021/acs.orglett.5b02533
_journal_volume                  17
_journal_year                    2015
_chemical_absolute_configuration rm
_chemical_formula_sum            'C15 H19 N O3'
_chemical_formula_weight         261.31
_space_group_crystal_system      monoclinic
_space_group_IT_number           4
_space_group_name_Hall           'P 2yb'
_space_group_name_H-M_alt        'P 1 21 1'
_atom_sites_solution_hydrogens   geom
_audit_creation_method           SHELXL-2014/7
_cell_angle_alpha                90
_cell_angle_beta                 94.530(5)
_cell_angle_gamma                90
_cell_formula_units_Z            2
_cell_length_a                   5.8171(5)
_cell_length_b                   7.1215(7)
_cell_length_c                   16.2736(15)
_cell_measurement_temperature    123(2)
_cell_volume                     672.05(11)
_computing_structure_refinement  'SHELXL-2014/7 (Sheldrick, 2014)'
_diffrn_ambient_temperature      123(2)
_diffrn_measured_fraction_theta_full 0.981
_diffrn_measured_fraction_theta_max 0.981
_diffrn_measurement_device_type  'Bruker D8 QUEST diffractometer'
_diffrn_radiation_type           CuK\a
_diffrn_radiation_wavelength     1.54178
_diffrn_reflns_av_R_equivalents  0.0547
_diffrn_reflns_av_unetI/netI     0.0584
_diffrn_reflns_Laue_measured_fraction_full 0.981
_diffrn_reflns_Laue_measured_fraction_max 0.981
_diffrn_reflns_limit_h_max       6
_diffrn_reflns_limit_h_min       -6
_diffrn_reflns_limit_k_max       8
_diffrn_reflns_limit_k_min       -8
_diffrn_reflns_limit_l_max       19
_diffrn_reflns_limit_l_min       -18
_diffrn_reflns_number            5278
_diffrn_reflns_point_group_measured_fraction_full 0.834
_diffrn_reflns_point_group_measured_fraction_max 0.834
_diffrn_reflns_theta_full        67.452
_diffrn_reflns_theta_max         67.452
_diffrn_reflns_theta_min         2.724
_exptl_absorpt_coefficient_mu    0.728
_exptl_crystal_density_diffrn    1.291
_exptl_crystal_description       blade
_exptl_crystal_F_000             280
_exptl_crystal_size_max          0.180
_exptl_crystal_size_mid          0.140
_exptl_crystal_size_min          0.020
_refine_diff_density_max         0.201
_refine_diff_density_min         -0.177
_refine_diff_density_rms         0.047
_refine_ls_abs_structure_details
;
 Flack x determined using 532 quotients [(I+)-(I-)]/[(I+)+(I-)]
 (Parsons, Flack and Wagner, Acta Cryst. B69 (2013) 249-259).
;
_refine_ls_abs_structure_Flack   0.2(4)
_refine_ls_extinction_method     none
_refine_ls_goodness_of_fit_ref   1.061
_refine_ls_hydrogen_treatment    constr
_refine_ls_matrix_type           full
_refine_ls_number_parameters     175
_refine_ls_number_reflns         2009
_refine_ls_number_restraints     1
_refine_ls_restrained_S_all      1.060
_refine_ls_R_factor_all          0.0607
_refine_ls_R_factor_gt           0.0497
_refine_ls_shift/su_max          0.000
_refine_ls_shift/su_mean         0.000
_refine_ls_structure_factor_coef Fsqd
_refine_ls_weighting_details
'w=1/[\s^2^(Fo^2^)+(0.0795P)^2^+0.0546P] where P=(Fo^2^+2Fc^2^)/3'
_refine_ls_weighting_scheme      calc
_refine_ls_wR_factor_gt          0.1277
_refine_ls_wR_factor_ref         0.1372
_reflns_Friedel_coverage         0.563
_reflns_Friedel_fraction_full    0.659
_reflns_Friedel_fraction_max     0.658
_reflns_number_gt                1713
_reflns_number_total             2009
_reflns_threshold_expression     'I > 2\s(I)'
_cod_data_source_file            ol5b02533_si_006.cif
_cod_data_source_block           Z597
_cod_original_sg_symbol_H-M      'P 21'
_cod_database_code               1555345
_shelx_space_group_comment
;
The symmetry employed for this shelxl refinement is uniquely defined
by the following loop, which should always be used as a source of
symmetry information in preference to the above space-group names.
They are only intended as comments.
;
_shelx_estimated_absorpt_t_min   0.880
_shelx_estimated_absorpt_t_max   0.986
_shelx_res_file
;

    Z597.res created by SHELXL-2014/7

TITL Z597 in P2(1)
CELL 1.54178 5.8171 7.1215 16.2736 90 94.53 90
ZERR 2 0.0005 0.0007 0.0015 0 0.005 0
LATT -1
SYMM -X,0.5+Y,-Z
SFAC C  H  N  O
UNIT 30  38  2  6
OMIT -4 135
L.S. 12
ACTA 135
BOND
FMAP 2
PLAN 0
SIZE 0.02 0.14 0.18
WPDB -2
TEMP -150
WGHT    0.079500    0.054600
FVAR       0.45082
N1    3    0.745825    0.828805    0.705798    11.00000    0.03612    0.04458 =
         0.03570   -0.00032    0.00314   -0.00227
O1    4    0.810355    0.901880    1.098364    11.00000    0.03738    0.03335 =
         0.03819   -0.00047    0.00188    0.00371
O2    4    0.405147    0.961175    0.725668    11.00000    0.04200    0.03714 =
         0.04789    0.00108   -0.00715    0.00724
O3    4    0.820599    0.532607    0.654879    11.00000    0.06044    0.06598 =
         0.05416   -0.01321    0.00117    0.02336
C1    1    0.842483    0.779686    0.880144    11.00000    0.02679    0.02328 =
         0.03997    0.00071    0.00793    0.00423
AFIX  43
H1    2    0.944006    0.722622    0.844598    11.00000   -1.20000
AFIX   0
C2    1    0.909981    0.795738    0.963615    11.00000    0.02640    0.02407 =
         0.04327    0.00233    0.00318    0.00226
AFIX  43
H2    2    1.055830    0.749210    0.984826    11.00000   -1.20000
AFIX   0
C3    1    0.763943    0.879768    1.015751    11.00000    0.03100    0.02187 =
         0.03691    0.00293    0.00169   -0.00201
C4    1    1.015973    0.817014    1.135130    11.00000    0.04611    0.03507 =
         0.03852    0.00172   -0.00399    0.00192
AFIX 137
H4A   2    1.010101    0.681185    1.125530    11.00000   -1.50000
H4B   2    1.028788    0.841698    1.194559    11.00000   -1.50000
H4C   2    1.150082    0.869940    1.110520    11.00000   -1.50000
AFIX   0
C5    1    0.553286    0.950558    0.983175    11.00000    0.03193    0.02842 =
         0.04245   -0.00285    0.01034    0.00411
AFIX  43
H5    2    0.454292    1.012385    1.018215    11.00000   -1.20000
AFIX   0
C6    1    0.487430    0.931639    0.900630    11.00000    0.02835    0.03354 =
         0.04152    0.00115    0.00099    0.00070
AFIX  43
H6    2    0.341759    0.978484    0.879397    11.00000   -1.20000
AFIX   0
C7    1    0.630992    0.844897    0.847739    11.00000    0.03128    0.02453 =
         0.03739    0.00143    0.00390    0.00042
C8    1    0.551510    0.812655    0.756844    11.00000    0.02934    0.02877 =
         0.04266    0.00304    0.00193    0.00115
C9    1    0.418221    0.631319    0.745678    11.00000    0.04381    0.03872 =
         0.04132   -0.00409    0.00079   -0.00369
AFIX 137
H9A   2    0.277389    0.639269    0.774807    11.00000   -1.50000
H9B   2    0.513520    0.527030    0.768128    11.00000   -1.50000
H9C   2    0.377239    0.609957    0.686851    11.00000   -1.50000
AFIX   0
C10   1    0.556207    1.114542    0.709664    11.00000    0.08433    0.02984 =
         0.05090    0.00273   -0.01115   -0.00634
AFIX  23
H10A  2    0.589776    1.191254    0.759915    11.00000   -1.20000
H10B  2    0.485534    1.196080    0.665319    11.00000   -1.20000
AFIX   0
C11   1    0.775820    1.023421    0.683229    11.00000    0.06119    0.04902 =
         0.04103    0.00224   -0.00408   -0.02755
AFIX  13
H11   2    0.913297    1.077280    0.715757    11.00000   -1.20000
AFIX   0
C12   1    0.822137    1.011488    0.591649    11.00000    0.08913    0.07579 =
         0.03885    0.00638   -0.00098   -0.04639
AFIX  13
H12   2    0.930359    1.113487    0.577484    11.00000   -1.20000
AFIX   0
C13   1    0.601942    1.018577    0.533584    11.00000    0.11865    0.06533 =
         0.04237    0.00487   -0.01530   -0.00079
AFIX 137
H13A  2    0.640135    0.994028    0.476993    11.00000   -1.50000
H13B  2    0.531393    1.143126    0.536468    11.00000   -1.50000
H13C  2    0.493380    0.923113    0.550133    11.00000   -1.50000
AFIX   0
C14   1    0.940234    0.821314    0.588574    11.00000    0.04568    0.12177 =
         0.03523   -0.00420    0.00530   -0.00993
AFIX  23
H14A  2    0.915438    0.765362    0.532889    11.00000   -1.20000
H14B  2    1.108078    0.833280    0.603124    11.00000   -1.20000
AFIX   0
C15   1    0.828524    0.702796    0.651381    11.00000    0.03125    0.07118 =
         0.03820   -0.00574   -0.00241    0.00440
HKLF 4

REM  Z597 in P2(1)
REM R1 =  0.0497 for    1713 Fo > 4sig(Fo)  and  0.0607 for all    2009 data
REM    175 parameters refined using      1 restraints

END

WGHT      0.0813      0.0357

REM Highest difference peak  0.201,  deepest hole -0.177,  1-sigma level  0.047
Q1    1   0.5962  0.9505  0.8765  11.00000  0.05    0.20
Q2    1   0.5104  0.7992  0.8765  11.00000  0.05    0.19
Q3    1   0.8685  0.7273  0.7184  11.00000  0.05    0.19
Q4    1   0.7776  0.7691  0.9847  11.00000  0.05    0.19
Q5    1   0.6661  0.8900  1.1197  11.00000  0.05    0.19
Q6    1   0.7988  0.5079  0.7135  11.00000  0.05    0.16
Q7    1   0.8825  0.8732  1.2828  11.00000  0.05    0.16
Q8    1   0.6921  0.9701  0.9836  11.00000  0.05    0.16
Q9    1   0.4554  1.2447  0.7169  11.00000  0.05    0.15
Q10   1   0.3788  0.9607  0.6646  11.00000  0.05    0.15
Q11   1   0.3983  1.1007  0.7191  11.00000  0.05    0.15
Q12   1   0.8288  0.8969  1.1584  11.00000  0.05    0.15
Q13   1   0.4136  1.0328  0.6780  11.00000  0.05    0.15
Q14   1   0.8400  0.3837  0.6407  11.00000  0.05    0.14
Q15   1   1.0891  0.7008  1.1380  11.00000  0.05    0.14
Q16   1   0.8744  0.8952  0.9910  11.00000  0.05    0.14
Q17   1   0.3771  1.0166  0.8618  11.00000  0.05    0.13
Q18   1   0.3369  0.9260  0.7204  11.00000  0.05    0.13
Q19   1   0.4190  0.9498  1.0135  11.00000  0.05    0.13
Q20   1   0.8065  1.0047  0.6455  11.00000  0.05    0.13
;
_shelx_res_checksum              91025
_shelx_hkl_file
;
  -1   0   0   69.50    4.85
   1   0   0   63.27    4.78
   1   0   0   76.72    4.62
  -2   0   0   16.68    1.51
   2   0   0   16.75    1.31
   2   0   0   15.28    1.44
  -3   0   0  191.30   12.93
   3   0   0  176.08   11.46
   3   0   0  197.56   12.73
   3   0   0  184.97   12.34
  -4   0   0   -0.83    0.56
   4   0   0   -0.29    0.66
   4   0   0    0.29    0.49
   5   0   0   28.67    2.28
   5   0   0   32.77    1.53
   5   0   0   32.31    1.62
   5   0   0   31.98    2.22
   6  -1   0    0.54    0.51
  -6   1   0    0.18    0.95
   5  -1   0   10.12    0.81
   5  -1   0    9.77    1.08
  -4   1   0    6.97    0.90
   3  -1   0    2.90    0.48
   3  -1   0    2.15    0.62
   3  -1   0    2.52    0.67
  -3   1   0    2.57    0.62
   2  -1   0  169.41   10.59
   2  -1   0  154.07   10.90
  -2   1   0  160.77    9.28
  -2   1   0  159.47   11.08
   1  -1   0  769.01   53.03
   1  -1   0  844.30   51.53
  -1   1   0  742.33   45.00
  -1   1   0  792.38   53.85
   0   1   0   -0.70    0.14
   0   1   0   -0.81    0.31
   0   1   0   -0.79    0.20
   1   1   0  704.52   51.18
   1   1   0  819.62   49.62
   1   1   0  754.48   51.93
  -2  -1   0  151.49   10.68
   2   1   0  153.70   10.18
   2   1   0  159.54   10.53
  -3  -1   0    2.76    0.63
   3   1   0    2.30    0.57
   3   1   0    2.39    0.52
   3   1   0    2.61    0.54
  -4  -1   0    8.46    1.15
   4   1   0    9.88    1.05
   4   1   0    8.01    0.98
   5   1   0    7.89    0.66
   5   1   0    8.08    0.65
   5   1   0    8.05    0.63
   5   1   0    8.18    1.15
   5   1   0    6.91    0.76
   6   1   0    0.91    0.46
   6   1   0    0.07    0.95
   6   1   0   -0.03    0.49
   6  -2   0    0.02    0.52
  -6   2   0   -0.46    0.80
  -5   2   0    3.44    0.98
  -4   2   0    3.60    0.80
   3  -2   0   21.78    1.66
  -3   2   0   20.14    1.80
   2  -2   0   12.57    1.12
   2  -2   0   13.24    1.15
  -2   2   0   12.78    1.13
  -2   2   0   13.30    1.26
   1  -2   0  315.49   19.59
   1  -2   0  280.76   20.15
  -1   2   0  297.36   20.47
  -1   2   0  302.71   17.12
   0  -2   0  472.76   31.71
   0   2   0  488.86   30.78
   0   2   0  433.19   26.88
   0   2   0  488.01   32.19
   1   2   0  272.66   18.45
   1   2   0  283.53   19.04
   1   2   0  289.51   19.31
  -2  -2   0   10.66    1.28
   2   2   0   10.96    1.00
   2   2   0   12.65    1.27
  -3  -2   0   22.36    1.84
   3   2   0   21.16    1.77
  -4  -2   0    7.26    0.91
   4   2   0    4.12    0.73
   4   2   0    6.17    0.58
   4   2   0    5.59    0.54
   4   2   0    6.54    0.89
   5   2   0    5.04    0.62
   5   2   0    5.08    0.59
   5   2   0    6.10    1.09
   6   2   0    0.34    0.47
   6   2   0    1.09    0.47
   6   2   0   -0.58    0.90
   4  -3   0    1.41    0.68
   3  -3   0   47.86    3.51
  -3   3   0   52.98    3.32
   2  -3   0   31.09    2.25
  -2   3   0   31.41    1.97
  -2   3   0   31.42    2.29
  -2   3   0   29.36    2.14
   1  -3   0  120.74    7.72
  -1   3   0  122.12    6.72
  -1   3   0  104.74    7.13
  -1   3   0  117.49    8.02
   0  -3   0   -0.43    0.49
   0  -3   0   -0.19    0.33
   0   3   0    0.00    0.33
   0   3   0    0.01    0.23
   1   3   0  115.15    7.96
   1   3   0  113.28    8.05
   1   3   0  120.78    7.72
  -2  -3   0   28.34    2.19
   2   3   0   27.76    2.16
   2   3   0   27.45    2.04
  -3  -3   0   47.79    3.41
   3   3   0   44.98    3.37
   4   3   0    1.60    0.84
   4   3   0    0.81    0.46
   4   3   0    1.84    0.52
   5   3   0    4.17    0.58
   5   3   0    3.47    0.58
   5   3   0    3.85    1.02
   6   3   0    1.54    0.46
   6   3   0    1.72    0.81
   6   3   0    1.25    0.44
   4  -4   0    5.04    0.86
  -4   4   0    5.34    0.97
   3  -4   0    9.01    1.25
  -3   4   0    9.58    1.03
  -3   4   0   13.39    1.35
  -3   4   0   12.75    0.95
  -3   4   0   13.48    0.97
   2  -4   0    2.61    0.69
  -2   4   0    1.44    0.45
  -2   4   0    2.95    0.63
   1  -4   0   58.10    4.14
  -1   4   0   61.29    3.77
  -1   4   0   62.42    3.56
   0  -4   0   32.28    2.31
   2   4   0    0.88    0.55
   3   4   0   10.18    0.69
   3   4   0    9.73    0.72
   3   4   0   10.62    1.03
   4   4   0    5.15    0.93
   4   4   0    4.27    0.61
   4   4   0    4.81    0.59
   5   4   0    2.30    0.91
   5   4   0    0.70    0.56
   5   4   0    2.06    0.50
   6   4   0    2.42    0.37
   6   4   0    2.19    0.37
   5  -5   0    0.90    0.59
  -5   5   0    0.11    0.47
   4  -5   0    5.63    0.89
  -4   5   0    6.39    0.88
  -4   5   0    5.43    0.67
  -3   5   0    7.28    0.85
  -3   5   0    7.87    0.91
  -3   5   0    6.40    0.68
   2  -5   0   12.76    1.27
  -2   5   0   11.02    0.99
  -2   5   0   14.73    0.92
  -2   5   0   15.54    1.16
  -2   5   0   14.89    1.16
   1  -5   0    6.34    0.86
  -1   5   0    6.34    0.69
  -1   5   0    6.15    0.43
  -1   5   0    4.64    0.52
   0  -5   0    1.08    0.63
  -1  -5   0    9.42    0.99
   3   5   0    4.57    0.64
   4   5   0    3.79    0.55
   4   5   0    4.37    0.62
   5   5   0    1.42    0.49
   5   5   0    1.80    0.44
   4  -6   0    2.83    0.73
  -4   6   0    1.42    0.48
  -3   6   0    7.01    0.63
  -3   6   0    6.00    0.81
  -2   6   0   46.69    2.64
  -2   6   0   50.00    2.27
  -1   6   0   16.09    1.36
   0   6   0   22.55    1.53
   1   6   0   13.48    1.19
  -2   7   0    8.29    0.83
  -1   7   0    1.35    0.71
   0   7   0    1.44    0.71
   0   8   0    1.90    0.57
   0   8  -1    2.53    0.65
  -1   8  -1    4.42    0.67
   1   7  -1    5.20    0.80
   0   7  -1   14.56    1.33
  -1   7  -1   14.87    1.33
  -2   7  -1   12.86    1.16
   1   6  -1   18.92    1.42
   0   6  -1   15.23    1.28
  -1   6  -1   10.95    0.96
  -2   6  -1    2.23    0.73
  -2   6  -1    1.71    0.42
  -3   6  -1   16.28    1.04
  -3   6  -1   14.10    1.29
  -4   6  -1    1.58    0.49
   4  -6   1    2.32    0.69
   5   5  -1    2.79    0.51
   5   5  -1    2.74    0.41
   4   5  -1    3.96    0.56
   4   5  -1    4.45    0.63
   3   5  -1   19.82    1.18
  -1  -5   1    3.31    0.65
   0  -5   1   21.48    1.71
  -1   5  -1   11.10    0.83
  -1   5  -1    9.35    0.71
  -1   5  -1    8.41    0.65
   1  -5   1    9.15    1.03
  -2   5  -1    9.77    0.64
  -2   5  -1    8.58    0.95
  -2   5  -1    9.76    0.86
   2  -5   1    7.05    1.02
  -3   5  -1    3.07    0.75
  -3   5  -1    1.43    0.55
  -3   5  -1    2.84    0.76
  -4   5  -1    2.03    0.77
  -4   5  -1    2.71    0.57
  -5   5  -1   -0.46    0.46
   6   4  -1    0.71    0.36
   6   4  -1    0.44    0.37
   5   4  -1   12.64    1.38
   5   4  -1   12.85    0.93
   5   4  -1   11.98    0.96
   4   4  -1   31.90    1.56
   4   4  -1   29.07    1.58
   4   4  -1   28.94    2.16
   3   4  -1   15.15    1.57
   3   4  -1   15.80    1.01
   3   4  -1   16.82    1.05
   2   4  -1   90.67    6.10
   1   4  -1  170.97   11.03
  -1  -4   1  162.60   11.32
   0   4  -1   43.28    2.56
   0   4  -1   45.87    2.57
   0  -4   1   43.67    3.09
  -1   4  -1   45.35    2.69
  -1   4  -1   45.89    2.87
   1  -4   1   44.00    3.15
  -2   4  -1    8.66    0.84
  -2   4  -1    6.62    0.79
   2  -4   1    7.41    0.98
  -3   4  -1   13.82    1.29
  -3   4  -1   11.95    0.98
  -3   4  -1   10.92    1.06
  -3   4  -1   11.51    0.94
   3  -4   1    9.10    1.20
  -4   4  -1    5.50    0.99
   6   3  -1    3.90    0.51
   6   3  -1    3.56    0.50
   5   3  -1    5.05    0.61
   5   3  -1    5.00    1.05
   5   3  -1    3.89    0.60
   4   3  -1    8.21    0.68
   4   3  -1    8.45    1.02
   3   3  -1   18.64    1.67
  -3  -3   1   20.02    1.70
   2   3  -1   39.61    2.98
   2   3  -1   39.65    2.83
  -2  -3   1   42.19    2.97
   1   3  -1  189.04   12.91
   1   3  -1  186.67   12.37
   0   3  -1    4.76    0.40
   0   3  -1    5.46    0.48
   0   3  -1    5.72    0.75
   0   3  -1    5.03    0.67
  -1   3  -1   23.58    1.48
  -1   3  -1   19.56    1.63
   1  -3   1   23.04    1.72
  -2   3  -1    2.87    0.47
  -2   3  -1    2.43    0.61
   2  -3   1    3.09    0.67
  -3   3  -1    4.46    0.78
   3  -3   1    3.69    0.75
   6   2  -1    0.14    0.91
   6   2  -1    1.17    0.48
   6   2  -1    0.11    0.47
   5   2  -1   13.04    1.52
   5   2  -1   13.35    1.03
   5   2  -1   13.46    0.97
   4   2  -1   18.19    1.09
   4   2  -1   20.30    1.14
   4   2  -1   19.48    1.60
   4   2  -1   19.97    1.14
   4   2  -1   19.73    1.66
  -4  -2   1   18.27    1.70
   3   2  -1   47.79    3.41
   3   2  -1   50.13    3.55
  -3  -2   1   51.01    3.61
   2   2  -1   93.29    6.36
   2   2  -1   97.54    6.59
  -2  -2   1   96.46    6.67
   1   2  -1  116.61    8.11
   1   2  -1  121.48    7.86
   0   2  -1  575.61   37.97
   0   2  -1  596.55   39.70
   0  -2   1  570.48   39.12
  -1   2  -1   12.53    1.14
   1  -2   1   15.15    1.22
   1  -2   1   12.88    1.20
  -2   2  -1    7.51    0.73
  -2   2  -1    7.48    0.82
   2  -2   1    7.25    0.95
   2  -2   1    8.21    0.95
  -3   2  -1   70.07    5.02
   3  -2   1   71.94    4.80
  -5   2  -1   -0.58    0.99
   6  -2   1    0.58    0.52
   6   1  -1    5.13    0.55
   6   1  -1    4.10    0.48
   6   1  -1    3.41    0.55
   5   1  -1    0.07    0.49
   5   1  -1    0.81    0.49
   5   1  -1    0.39    0.53
   5   1  -1    0.52    0.98
   4   1  -1   11.93    1.12
   4   1  -1   10.04    1.08
  -4  -1   1    8.40    1.20
   3   1  -1   19.51    1.52
   3   1  -1   22.43    1.65
   3   1  -1   22.44    1.75
  -3  -1   1   20.74    1.79
   2   1  -1    5.03    0.70
   2   1  -1    6.31    0.68
  -2  -1   1    6.56    0.72
   1   1  -1  513.26   29.73
   1   1  -1  457.42   30.65
   1   1  -1  424.78   25.98
  -1  -1   1  423.89   31.10
   0   1  -1  605.33   40.93
   0   1  -1  617.45   39.20
   0  -1   1  573.93   40.35
  -1   1  -1   89.31    6.20
   1  -1   1   86.53    6.13
   1  -1   1   93.68    5.94
  -2   1  -1   67.94    4.12
  -2   1  -1   70.96    4.90
   2  -1   1   67.64    4.82
   2  -1   1   72.60    4.67
  -3   1  -1    7.26    0.79
   3  -1   1    6.75    0.81
   3  -1   1    5.30    0.73
   3  -1   1    6.76    0.89
  -4   1  -1   24.67    2.23
   4  -1   1   29.94    2.09
   5  -1   1    1.08    0.78
   5  -1   1    0.11    0.58
   5  -1   1    2.32    1.01
  -6   1  -1    0.84    0.96
   6  -1   1    3.00    0.53
   6   0  -1   -0.61    0.47
   6   0  -1   -0.28    0.54
  -6   0   1   -0.37    0.98
   5   0  -1   -0.19    0.65
   5   0  -1   -0.42    0.52
   5   0  -1   -0.50    0.97
   5   0  -1    0.26    0.46
   4   0  -1    1.02    0.49
   4   0  -1    1.06    0.63
  -4   0   1   -0.13    0.59
   3   0  -1   13.16    1.23
   3   0  -1   11.65    1.22
   3   0  -1   11.66    1.19
  -3   0   1   12.65    1.31
   2   0  -1  309.72   19.89
   2   0  -1  304.03   20.51
  -2   0   1  297.23   20.81
   1   0  -1  400.68   28.35
   1   0  -1  453.10   27.52
  -1   0   1  408.47   28.78
   0   0  -1   68.94    4.77
   0   0   1   69.81    4.92
   0   0   1   79.06    4.99
   0   0   1   73.06    4.17
  -1   0  -1  424.27   29.57
   1   0   1  430.31   28.22
   1   0   1  440.86   29.11
  -2   0  -1   60.12    4.23
   2   0   1   58.21    4.15
   2   0   1   59.95    3.97
  -3   0  -1    0.02    0.55
   3   0   1   -0.34    0.45
   3   0   1    0.06    0.43
   3   0   1   -0.05    0.66
  -4   0  -1    7.76    1.00
   4   0   1   11.53    1.26
   4   0   1   11.10    1.09
   5   0   1    1.33    0.50
   5   0   1    2.03    0.70
   5   0   1    1.98    0.54
   5   0   1    2.25    1.03
   6   0   1   -0.25    0.45
  -6   1   1    4.70    0.99
   5  -1  -1    0.74    0.72
   5  -1  -1    0.22    0.56
   4  -1  -1    8.47    1.06
   4  -1  -1   10.97    1.24
  -4   1   1    7.45    0.95
   3  -1  -1   23.50    1.75
   3  -1  -1   19.77    1.78
   3  -1  -1   21.97    1.74
  -3   1   1   23.70    1.90
   2  -1  -1    6.28    0.85
   2  -1  -1    6.76    0.73
  -2   1   1    7.00    0.63
  -2   1   1    7.07    0.74
   1  -1  -1  450.80   32.83
   1  -1  -1  519.60   31.89
  -1   1   1  481.88   33.33
  -1   1   1  497.67   27.86
   0  -1  -1  517.99   36.22
   0   1   1  580.82   37.89
   0   1   1  529.72   37.31
   0   1   1  587.41   31.67
   1   1   1   85.19    5.75
   1   1   1   78.84    5.67
   1   1   1   83.81    5.44
  -2  -1  -1   62.58    4.48
   2   1   1   67.47    4.41
   2   1   1   59.44    4.18
  -3  -1  -1    5.88    0.76
   3   1   1    5.47    0.65
   3   1   1    5.01    0.70
  -4  -1  -1   26.51    2.16
   4   1   1   25.55    2.07
   4   1   1   27.75    1.86
   5   1   1    0.24    0.49
   5   1   1    1.42    0.49
   5   1   1    0.83    0.51
   5   1   1    0.70    1.01
   5   1   1    1.35    0.47
   6   1   1    2.10    0.47
   6   1   1    2.32    1.01
  -6   2   1    0.68    0.82
  -5   2   1   14.36    1.61
   4  -2  -1   19.41    1.28
   4  -2  -1   19.99    1.59
  -4   2   1   14.96    1.79
  -4   2   1   18.28    1.64
   3  -2  -1   52.82    3.63
  -3   2   1   53.15    3.83
   2  -2  -1  106.57    6.87
  -2   2   1  105.08    6.02
  -2   2   1   98.63    7.18
   1  -2  -1  129.70    8.50
  -1   2   1  129.68    7.42
  -1   2   1  126.84    8.88
   0  -2  -1  551.72   37.21
   0   2   1  585.05   38.92
   0   2   1  571.08   32.53
   1   2   1   12.25    1.22
   1   2   1   11.96    1.07
   1   2   1   11.73    1.24
   2   2   1    6.81    0.73
   2   2   1    6.78    0.76
  -3  -2  -1   65.24    4.72
   3   2   1   67.47    4.66
  -4  -2  -1    5.92    0.87
   4   2   1    5.46    0.46
   4   2   1    5.66    0.54
   4   2   1    7.64    0.96
   4   2   1    5.51    0.75
   4   2   1    7.44    0.61
   5   2   1    0.45    0.51
   5   2   1    0.70    0.99
   5   2   1    0.63    0.51
   6   2   1    0.74    0.93
   6   2   1    1.37    0.48
   6   2   1    1.39    0.46
   4  -3  -1    6.52    0.79
   3  -3  -1   19.61    1.62
  -3   3   1   19.59    1.70
  -3   3   1   21.54    1.67
   2  -3  -1   47.95    3.15
  -2   3   1   41.19    2.93
  -2   3   1   47.67    2.74
  -2   3   1   43.70    3.26
   1  -3  -1  200.81   12.70
  -1   3   1  185.67   13.25
  -1   3   1  205.32   11.08
  -1   3   1  180.02   11.75
   0  -3  -1    4.85    0.68
   0   3   1    5.38    0.50
   0   3   1    4.96    0.60
   1   3   1   20.60    1.74
   1   3   1   21.99    1.75
   1   3   1   21.36    1.63
   2   3   1    1.88    0.56
  -3  -3  -1    8.05    1.11
   4   3   1   10.33    1.07
   4   3   1    8.54    0.65
   4   3   1    8.07    0.69
   5   3   1   16.15    1.09
   5   3   1   14.75    1.64
   5   3   1   16.32    1.03
   6   3   1    1.09    0.43
   6   3   1    1.57    0.44
   6   3   1    1.09    0.80
   5  -4  -1   16.34    1.27
   4  -4  -1   37.22    2.18
  -4   4   1   39.46    2.69
   3  -4  -1   19.74    1.78
  -3   4   1   23.17    1.45
  -3   4   1   25.48    1.75
  -3   4   1   23.73    1.31
  -3   4   1   20.26    1.54
   2  -4  -1  101.43    7.05
  -2   4   1  105.46    6.12
  -2   4   1  108.93    6.51
   1  -4  -1  184.60   12.41
  -1   4   1  192.72   10.80
  -1   4   1  186.80   11.44
   0  -4  -1   47.41    3.28
   0   4   1   47.76    3.40
  -1  -4  -1   42.10    2.86
   1   4   1   40.46    3.01
   2   4   1    4.17    0.68
   3   4   1    6.57    0.92
   3   4   1    8.49    0.62
   3   4   1    7.88    0.63
   3   4   1    9.65    1.00
   4   4   1    2.49    0.57
   4   4   1    3.10    0.54
   4   4   1    3.48    0.90
   5   4   1    5.97    0.59
   5   4   1    5.08    0.61
   5   4   1    6.34    1.00
   6   4   1    1.18    0.35
   6   4   1    0.72    0.36
   5  -5  -1    2.96    0.63
  -5   5   1    1.77    0.50
   4  -5  -1    3.76    0.82
  -4   5   1    2.90    0.62
  -4   5   1    5.08    0.82
  -3   5   1   24.10    1.44
  -3   5   1   24.89    1.82
  -3   5   1   25.25    1.59
   2  -5  -1   11.16    1.17
  -2   5   1   12.03    0.87
  -2   5   1   12.68    1.03
  -2   5   1   13.25    1.12
  -2   5   1   10.62    0.90
   1  -5  -1    1.29    0.66
  -1   5   1    0.82    0.59
  -1   5   1    0.82    0.28
  -1   5   1    0.82    0.36
   0  -5  -1   21.87    1.68
   3   5   1    1.35    0.51
   4   5   1    0.15    0.57
   4   5   1    0.90    0.50
   4   5   1    0.48    0.84
   5   5   1    0.62    0.46
   5   5   1    1.03    0.41
   4  -6  -1    5.55    0.75
  -4   6   1    2.74    0.52
  -3   6   1   10.63    0.87
  -3   6   1    9.34    0.90
  -2   6   1   17.58    1.41
  -2   6   1   17.53    0.99
  -1   6   1   15.70    1.25
   0   6   1   16.61    1.35
  -2   7   1    4.73    0.74
  -1   7   1    5.31    0.80
   0   7   1   13.66    1.24
  -1   8   1    2.88    0.62
   0   8  -2    5.43    0.71
  -1   8  -2    2.24    0.57
  -2   8  -2    3.54    0.53
   1   7  -2    2.28    0.73
   0   7  -2    4.47    0.79
  -1   7  -2   10.34    0.95
  -2   7  -2    1.04    0.67
   2   6  -2    7.73    0.84
   1   6  -2   47.25    2.57
   0   6  -2   14.85    1.30
  -1   6  -2    2.12    0.71
  -2   6  -2   12.14    1.02
  -2   6  -2   11.00    0.82
  -3   6  -2    0.25    0.48
  -3   6  -2    0.75    0.72
  -4   6  -2    5.04    0.56
   4  -6   2    6.40    0.82
   5   5  -2    2.78    0.42
   5   5  -2    2.81    0.47
   4   5  -2   17.85    1.12
   4   5  -2   19.28    1.15
   3   5  -2   39.36    1.87
   2   5  -2   10.28    0.84
   1   5  -2    1.06    0.58
   0  -5   2    9.85    1.09
  -1   5  -2    4.69    0.57
  -1   5  -2    5.95    0.43
  -1   5  -2    6.86    0.71
   1  -5   2    6.46    0.88
  -2   5  -2   12.68    1.20
  -2   5  -2   14.44    0.95
  -2   5  -2   15.02    1.24
  -3   5  -2    3.17    0.79
  -3   5  -2    1.53    0.52
  -3   5  -2    2.61    0.76
  -4   5  -2    9.30    0.79
  -4   5  -2   10.46    1.05
  -5   5  -2   -0.66    0.45
   6   4  -2    1.66    0.38
   6   4  -2    1.84    0.38
   5   4  -2    4.02    0.61
   5   4  -2    4.85    0.94
   5   4  -2    4.98    0.60
   4   4  -2   22.74    1.31
   4   4  -2   20.48    1.30
   3   4  -2   13.67    1.02
   3   4  -2   12.49    1.01
   2   4  -2   27.16    2.17
  -2  -4   2   29.70    2.12
   1   4  -2   28.35    2.16
  -1  -4   2   29.67    2.18
   0   4  -2   16.80    1.04
   0  -4   2   15.83    1.35
  -1   4  -2   12.05    0.92
  -1   4  -2   11.27    1.08
   1  -4   2   12.83    1.17
  -2   4  -2   11.06    0.97
  -2   4  -2   10.63    1.18
   2  -4   2   10.02    1.19
  -3   4  -2    2.15    0.52
  -3   4  -2    2.33    0.83
  -3   4  -2    2.47    0.66
  -3   4  -2    2.41    0.57
   3  -4   2    0.58    0.79
  -4   4  -2   12.47    1.44
   6   3  -2    1.40    0.44
   6   3  -2    1.44    0.45
   5   3  -2   16.58    1.13
   5   3  -2   16.35    1.66
   5   3  -2   19.18    1.16
   4   3  -2   99.81    4.30
   4   3  -2  103.58    5.99
   4   3  -2   99.30    4.38
   3   3  -2   11.17    1.27
   3   3  -2   12.48    1.17
  -3  -3   2   11.57    1.31
   2   3  -2  247.79   16.54
   2   3  -2  247.65   17.05
  -2  -3   2  258.88   17.27
   1   3  -2  138.72    8.86
  -1  -3   2  128.82    9.10
   0   3  -2    3.71    0.45
   0   3  -2    4.60    0.44
   0   3  -2    3.93    0.73
   0  -3   2    4.84    0.57
  -1   3  -2   83.35    5.49
  -1   3  -2   93.94    5.17
   1  -3   2   90.70    6.08
   1  -3   2   86.87    5.94
  -2   3  -2   70.23    4.00
  -2   3  -2   67.45    4.28
   2  -3   2   64.34    4.56
  -3   3  -2   52.05    3.26
   3  -3   2   46.27    3.42
   6   2  -2    1.64    0.50
   6   2  -2    1.13    0.48
   5   2  -2    5.56    1.05
   5   2  -2    5.74    0.63
   5   2  -2    5.17    0.60
   4   2  -2   19.57    1.12
   4   2  -2   21.19    1.72
   4   2  -2   20.80    1.10
   4   2  -2   20.58    1.56
   4   2  -2   19.49    1.14
  -4  -2   2   18.45    1.75
   3   2  -2    1.17    0.57
   3   2  -2    1.40    0.68
  -3  -2   2    1.41    0.61
   2   2  -2   24.39    1.95
   2   2  -2   23.87    1.80
  -2  -2   2   23.37    1.91
   1   2  -2  368.78   21.18
   1   2  -2  380.40   24.27
   1   2  -2  375.01   25.02
  -1  -2   2  358.68   25.36
   0   2  -2  131.15    8.41
   0   2  -2  117.92    7.31
   0  -2   2  133.67    8.66
  -1   2  -2   11.65    1.02
   1  -2   2   11.76    1.14
   1  -2   2   14.97    1.26
  -2   2  -2   52.35    3.85
  -2   2  -2   53.55    3.25
   2  -2   2   55.13    3.81
   2  -2   2   57.25    3.70
  -3   2  -2   67.65    4.92
   3  -2   2   71.48    4.70
   6  -2   2    1.92    0.53
   6   1  -2    0.86    0.49
   6   1  -2    1.32    0.49
   6   1  -2    0.74    0.43
   5   1  -2   10.91    1.26
   5   1  -2   11.75    0.95
   5   1  -2   10.95    1.02
   5   1  -2   12.07    0.88
   4   1  -2    8.81    1.13
   4   1  -2    9.63    1.04
  -4  -1   2   11.07    1.21
   3   1  -2   34.46    2.54
   3   1  -2   32.47    2.30
   3   1  -2   36.44    2.60
  -3  -1   2   38.28    2.68
   2   1  -2    6.69    0.73
   2   1  -2    7.15    0.94
  -2  -1   2    8.95    1.10
   1   1  -2  409.02   24.82
   1   1  -2  456.22   29.29
   1   1  -2  467.33   28.41
  -1  -1   2  405.15   29.70
   0   1  -2  119.26    7.54
   0  -1   2  109.94    7.78
  -1   1  -2   86.49    6.14
   1  -1   2   93.90    5.89
   1  -1   2   86.55    6.09
  -2   1  -2   32.66    2.37
   2  -1   2   32.57    2.21
   2  -1   2   29.35    2.33
  -3   1  -2   16.16    1.53
   3  -1   2   18.28    1.40
   3  -1   2   14.70    1.27
   3  -1   2   15.69    1.46
  -4   1  -2   11.20    1.27
   4  -1   2   15.15    1.27
   4  -1   2   18.73    1.60
   5  -1   2    8.35    1.11
   5  -1   2    7.43    0.73
   5  -1   2    7.63    1.02
  -6   1  -2    1.90    0.98
   6  -1   2    5.20    0.57
   6   0  -2   -0.13    0.49
   6   0  -2    0.10    0.55
  -6   0   2    0.43    0.96
   5   0  -2   21.14    1.61
   5   0  -2   18.24    1.76
   5   0  -2   19.45    1.17
   4   0  -2   36.00    2.58
   4   0  -2   33.34    2.57
   4   0  -2   36.03    2.42
  -4   0   2   34.15    2.69
   3   0  -2   43.65    3.12
   3   0  -2   46.98    3.17
   3   0  -2   39.07    2.89
  -3   0   2   46.94    3.27
   2   0  -2  117.41    7.64
   2   0  -2  114.14    7.87
  -2   0   2  114.89    8.00
   1   0  -2   18.73    1.34
   1   0  -2   16.88    1.38
  -1   0   2   18.88    1.42
  -1   0   2   13.05    1.15
   0   0  -2   88.37    5.73
   0   0   2   87.31    5.02
   0   0   2   83.73    5.92
   0   0   2   89.63    5.99
   1   0   2  935.03   61.87
   1   0   2 1000.00   64.80
   1   0   2  907.57   63.83
  -2   0  -2  144.57    9.89
   2   0   2  142.96    9.74
   2   0   2  142.27    9.40
  -3   0  -2   81.64    6.00
   3   0   2   87.83    5.36
   3   0   2   86.77    5.89
  -4   0  -2   15.56    1.65
   4   0   2   19.44    1.52
   4   0   2   18.65    1.51
   5   0   2    4.53    0.60
   5   0   2    3.65    1.01
   5   0   2    4.92    0.58
   5   0   2    4.81    0.79
   6   0   2    2.39    0.48
   6   0   2    1.95    0.48
  -6   1   2    1.45    0.87
   5  -1  -2   10.79    1.28
   5  -1  -2   11.00    0.91
  -5   1   2    7.15    1.22
   4  -1  -2   11.84    1.40
   4  -1  -2   10.04    1.16
  -4   1   2    9.23    1.08
   3  -1  -2   38.45    2.75
   3  -1  -2   39.71    2.79
   3  -1  -2   37.07    2.66
  -3   1   2   40.70    2.92
   2  -1  -2    9.51    1.03
   2  -1  -2    7.53    0.95
  -2   1   2    8.44    0.71
  -2   1   2    9.14    0.84
   1  -1  -2  475.91   29.68
   1  -1  -2  436.06   30.56
  -1   1   2  445.36   25.94
  -1   1   2  458.13   31.05
   0  -1  -2   93.76    6.85
   0   1   2   96.31    7.06
   0   1   2  107.86    7.20
   0   1   2  119.54    6.00
   1   1   2   77.78    5.10
   1   1   2   84.71    5.43
   1   1   2   70.58    5.33
   2   1   2   26.26    1.97
   2   1   2   25.87    1.71
   2   1   2   22.52    1.74
  -3  -1  -2   15.29    1.40
   3   1   2   15.34    1.27
   3   1   2   12.81    1.31
  -4  -1  -2   15.86    1.48
   4   1   2   14.58    0.93
   4   1   2   15.48    1.33
   4   1   2   14.57    1.36
   4   1   2   13.57    0.90
   4   1   2   15.45    1.27
   5   1   2    5.09    0.62
   5   1   2    5.97    0.61
   5   1   2    8.33    1.13
   5   1   2    5.98    0.61
   5   1   2    5.97    0.57
   6   1   2    4.14    1.05
   6   1   2    4.31    0.53
  -6   2   2    0.96    0.80
  -5   2   2    6.10    1.02
   4  -2  -2   23.33    1.35
   4  -2  -2   21.65    1.78
  -4   2   2   20.91    1.79
  -4   2   2   20.29    1.85
   3  -2  -2    1.44    0.60
  -3   2   2    0.89    0.59
   2  -2  -2   25.67    1.85
  -2   2   2   23.81    1.60
  -2   2   2   24.45    1.98
   1  -2  -2  410.78   26.95
  -1   2   2  409.87   23.55
  -1   2   2  414.50   28.19
   0  -2  -2  124.53    8.35
   0   2   2  122.55    8.56
   0   2   2  126.88    8.75
   0   2   2  133.01    7.27
   1   2   2   10.03    1.11
   1   2   2   10.22    1.23
   2   2   2   48.48    3.42
   2   2   2   47.31    3.48
  -3  -2  -2   62.72    4.59
   3   2   2   65.62    4.52
  -4  -2  -2    0.65    0.63
   4   2   2    0.39    0.34
   4   2   2   -0.13    0.44
   4   2   2    1.10    0.86
   4   2   2    0.24    0.45
   4   2   2    0.65    0.53
   5   2   2    6.25    1.13
   5   2   2    4.99    0.60
   5   2   2    4.50    0.57
   6   2   2    2.60    0.96
   6   2   2    2.68    0.49
   6   2   2    1.98    0.46
   5  -3  -2   16.70    1.31
  -5   3   2   17.60    1.58
   4  -3  -2  123.14    6.00
  -4   3   2  122.52    7.22
   3  -3  -2   11.42    1.19
  -3   3   2   12.63    1.28
  -3   3   2   14.40    1.33
   2  -3  -2  285.11   18.87
  -2   3   2  279.46   17.49
  -2   3   2  307.26   16.49
  -2   3   2  277.32   19.72
   1  -3  -2  156.56   10.19
  -1   3   2  149.24   10.65
  -1   3   2  153.91    9.43
  -1   3   2  157.92    8.88
   0  -3  -2    4.16    0.62
   0   3   2    3.55    0.58
   0   3   2    3.69    0.34
  -1  -3  -2   82.42    5.54
   1   3   2   83.15    5.73
   1   3   2   84.61    5.84
   2   3   2   57.92    4.11
   2   3   2   58.94    4.19
  -3  -3  -2   43.87    3.24
   4   3   2    1.08    0.51
   4   3   2    1.85    0.87
   4   3   2    1.20    0.50
   5   3   2    1.38    0.52
   5   3   2    1.94    1.00
   5   3   2    2.21    0.55
   6   3   2    2.16    0.83
   6   3   2    2.35    0.44
   6   3   2    2.27    0.44
   5  -4  -2    5.37    0.81
   4  -4  -2   23.56    1.60
  -4   4   2   24.63    1.93
   3  -4  -2   13.79    1.43
  -3   4   2   19.55    1.50
  -3   4   2   16.65    1.26
  -3   4   2   17.72    1.26
  -3   4   2   15.18    1.12
   2  -4  -2   31.33    2.37
  -2   4   2   32.27    2.01
  -2   4   2   33.19    2.19
   1  -4  -2   30.39    2.17
  -1   4   2   27.78    1.94
  -1   4   2   28.78    1.81
  -1   4   2   32.31    2.26
   0  -4  -2   18.17    1.41
   0   4   2   16.51    1.51
   1   4   2    9.25    1.08
   3   4   2    1.86    0.51
   3   4   2    2.17    0.83
   3   4   2    1.50    0.43
   3   4   2    1.07    0.59
   4   4   2    6.76    0.65
   4   4   2    8.19    0.69
   4   4   2    7.09    1.05
   5   4   2    5.97    0.61
   5   4   2    6.13    1.02
   5   4   2    6.23    0.60
   6   4   2   -0.06    0.35
   6   4   2    0.74    0.33
   5  -5  -2    6.25    0.78
   4  -5  -2   22.07    1.50
  -4   5   2   22.00    1.69
  -3   5   2   57.74    3.66
  -3   5   2   55.62    3.01
  -3   5   2   57.96    2.75
  -2   5   2   12.20    1.15
  -2   5   2   14.04    1.12
  -2   5   2   13.00    0.97
   1  -5  -2    0.96    0.67
  -1   5   2    1.02    0.28
  -1   5   2    0.94    0.39
  -1   5   2    2.34    0.60
   0  -5  -2    8.86    0.99
   3   5   2    1.18    0.87
   3   5   2    0.83    0.50
   4   5   2    6.29    0.98
   4   5   2    5.87    0.65
   4   5   2    6.26    0.59
   5   5   2    0.45    0.44
   5   5   2    0.63    0.39
   5   5   2    0.40    0.71
   4  -6  -2    8.32    0.80
  -4   6   2    6.82    0.63
  -3   6   2    7.65    0.66
  -2   6   2    9.86    0.92
  -2   6   2   10.17    0.72
  -1   6   2   47.84    2.58
   0   6   2   15.32    1.28
   3  -7  -2   23.04    1.39
  -2   7   2    3.17    0.70
  -1   7   2    0.62    0.69
   2  -8  -2    4.68    0.49
   1   8  -3    1.20    0.52
   0   8  -3    0.17    0.55
  -1   8  -3    1.58    0.59
  -2   8  -3    1.70    0.46
   1   7  -3    2.91    0.73
   0   7  -3    1.55    0.73
  -1   7  -3    6.10    0.82
  -2   7  -3    1.57    0.70
  -3   7  -3    0.53    0.54
   4   6  -3    1.66    0.49
   2   6  -3   17.58    1.36
   1   6  -3    4.64    0.77
   0   6  -3   -0.05    0.67
  -1   6  -3   25.52    1.70
  -2   6  -3   17.68    1.01
  -2   6  -3   15.99    1.40
  -3   6  -3   12.76    1.21
  -3   6  -3   13.78    0.94
  -4   6  -3    4.64    0.53
   4  -6   3    4.88    0.77
   5   5  -3    0.26    0.45
   5   5  -3   -0.05    0.43
   4   5  -3   21.33    1.26
   4   5  -3   20.52    1.20
   3   5  -3   17.78    1.15
   2   5  -3   16.74    1.59
   2   5  -3   17.14    1.24
   2   5  -3   15.14    1.12
   1   5  -3   26.53    1.62
   0   5  -3   10.43    0.87
   0  -5   3   11.22    1.11
  -1   5  -3    4.85    0.42
  -1   5  -3    6.27    0.72
  -1   5  -3    4.12    0.48
   1  -5   3    5.75    0.85
  -2   5  -3    2.44    0.48
  -2   5  -3    2.52    0.74
  -2   5  -3    3.92    0.67
  -3   5  -3    4.56    0.85
  -3   5  -3    4.13    0.61
  -3   5  -3    3.88    0.80
  -4   5  -3    2.10    0.76
  -4   5  -3    1.57    0.52
  -5   5  -3    2.78    0.48
   6   4  -3    0.37    0.36
   6   4  -3    0.71    0.35
   5   4  -3   11.27    0.93
   5   4  -3   11.64    0.96
   4   4  -3   18.53    1.22
   4   4  -3   18.22    1.23
   3   4  -3    3.74    0.60
   3   4  -3    4.19    0.55
   2   4  -3    8.52    1.16
  -2  -4   3   13.00    1.14
   1   4  -3   51.50    3.70
  -1  -4   3   54.94    3.77
   0   4  -3    5.62    0.56
  -1   4  -3   20.04    1.30
  -1   4  -3   17.90    1.43
   1  -4   3   19.28    1.57
  -2   4  -3   88.35    5.39
  -2   4  -3   86.23    5.06
   2  -4   3   83.59    5.83
  -3   4  -3    1.68    0.81
  -3   4  -3    0.35    0.67
  -3   4  -3    1.90    0.60
   3  -4   3   -0.66    0.78
  -4   4  -3    3.02    0.93
   6   3  -3    3.45    0.49
   6   3  -3    3.62    0.50
  -6  -3   3    0.44    0.82
   5   3  -3   17.47    1.19
   5   3  -3   15.06    1.60
   5   3  -3   17.27    1.14
   4   3  -3   34.64    2.36
   4   3  -3   32.82    1.69
   4   3  -3   33.07    1.72
   3   3  -3    9.61    1.05
   3   3  -3    7.38    0.92
   2   3  -3   14.50    1.35
   1   3  -3   20.67    1.63
   1   3  -3   20.26    1.22
  -1  -3   3   19.83    1.72
   0   3  -3   45.61    3.13
   0   3  -3   40.67    2.81
   0  -3   3   48.49    3.22
  -1   3  -3   46.24    2.97
   1  -3   3   43.63    3.20
   1  -3   3   47.17    3.29
  -2   3  -3   46.92    2.78
  -2   3  -3   44.49    2.99
   2  -3   3   44.79    3.18
  -3   3  -3    6.27    0.85
   3  -3   3    4.09    0.84
   6   2  -3    7.36    0.64
   6   2  -3    6.58    0.61
   5   2  -3   20.11    1.72
   5   2  -3   20.18    1.24
   5   2  -3   19.26    1.18
   5   2  -3   18.48    1.10
   4   2  -3   37.04    1.86
   4   2  -3   39.08    1.77
   4   2  -3   37.76    2.47
   4   2  -3   38.56    1.85
   4   2  -3   40.05    2.85
  -4  -2   3   36.00    2.88
   3   2  -3   30.75    2.28
   3   2  -3   29.99    2.20
   3   2  -3   27.28    1.89
  -3  -2   3   30.39    2.28
   2   2  -3   72.32    4.93
   2   2  -3   64.06    4.33
   2   2  -3   70.49    4.77
  -2  -2   3   76.32    4.96
   1   2  -3   47.57    2.96
   1   2  -3   42.52    2.48
  -1  -2   3   36.77    2.99
  -1  -2   3   43.80    3.05
   0   2  -3   94.12    6.05
   0   2  -3   82.04    5.24
   0  -2   3   97.16    6.24
   1  -2   3   40.21    2.78
   1  -2   3   36.28    2.65
  -2   2  -3   65.98    4.48
   2  -2   3   75.58    4.96
   2  -2   3   72.78    4.79
   3  -2   3   17.85    1.50
   6  -2   3   11.79    0.85
   6   1  -3    5.59    0.53
   6   1  -3    5.77    0.58
   6   1  -3    5.21    0.58
  -6  -1   3    2.86    1.03
   5   1  -3   68.18    3.18
   5   1  -3   72.57    3.11
   5   1  -3   70.04    4.45
   5   1  -3   75.60    3.36
   5   1  -3   71.14    4.39
   4   1  -3   13.54    1.16
   4   1  -3   10.05    1.20
   4   1  -3   12.26    1.19
  -4  -1   3    9.18    1.28
   3   1  -3    9.75    1.03
   3   1  -3   11.13    1.20
   3   1  -3   10.70    1.21
  -3  -1   3   10.94    1.23
   2   1  -3   39.22    2.87
   2   1  -3   45.57    3.15
   2   1  -3   50.03    3.25
  -2  -1   3   46.57    3.27
   1   1  -3    6.00    0.72
   1   1  -3    5.26    0.58
   0   1  -3    3.52    0.56
   0  -1   3    3.61    0.52
  -1   1  -3  147.78   10.52
   1  -1   3  157.16   10.07
   1  -1   3  155.37   10.42
  -2   1  -3  154.61   10.18
   2  -1   3  148.69   10.05
   2  -1   3  139.94    9.71
  -3   1  -3   20.71    1.80
   3  -1   3   21.83    1.70
   3  -1   3   20.85    1.64
   4  -1   3    5.94    0.94
   4  -1   3    6.84    0.89
   4  -1   3    6.53    0.56
   5  -1   3    1.90    0.52
   5  -1   3    1.29    0.60
   5  -1   3    0.97    1.04
   5  -1   3    1.02    0.80
   6  -1   3    1.01    0.49
   6   0  -3    6.04    0.65
  -6   0   3    5.52    1.06
   5   0  -3    2.24    0.71
   4   0  -3   17.67    1.41
   4   0  -3   15.26    1.37
   4   0  -3   15.53    1.45
  -4   0   3   12.08    1.47
   3   0  -3    1.87    0.60
   3   0  -3    1.43    0.47
   3   0  -3    2.17    0.72
  -3   0   3    1.87    0.61
   2   0  -3   67.29    4.77
   2   0  -3   70.33    4.66
  -2   0   3   69.67    4.88
   1   0  -3   38.93    2.71
  -1   0   3   42.89    2.85
  -1   0   3   35.15    2.35
   0   0  -3  449.98   29.26
   0   0   3  427.82   30.18
   0   0   3  473.53   25.60
   0   0   3  440.22   30.61
   1   0   3   26.34    2.06
   1   0   3   24.20    1.74
   1   0   3   28.40    2.01
  -2   0  -3  113.93    7.62
   2   0   3  105.45    7.21
   2   0   3  110.41    7.51
  -3   0  -3  327.22   22.86
   3   0   3  332.87   20.27
   3   0   3  339.10   22.52
  -4   0  -3   -0.72    0.58
   4   0   3    0.45    0.43
   4   0   3   -0.01    0.71
   4   0   3    0.68    0.48
   5   0   3    6.45    0.65
   5   0   3    6.31    0.88
   5   0   3    7.09    1.10
   5   0   3    5.32    0.63
   6   0   3   15.57    0.92
   6   0   3   16.48    0.96
   6  -1  -3    6.46    0.74
  -6   1   3    6.45    0.98
   5  -1  -3   79.73    4.80
   5  -1  -3   76.36    3.51
  -5   1   3   69.00    4.62
   4  -1  -3   13.17    1.29
   4  -1  -3   10.98    1.20
  -4   1   3    8.87    1.07
   3  -1  -3   11.75    1.03
   3  -1  -3   10.57    1.19
  -3   1   3   10.22    1.28
   2  -1  -3   44.01    3.11
   2  -1  -3   47.04    3.08
  -2   1   3   42.04    2.67
  -2   1   3   45.08    3.24
   1  -1  -3    7.86    0.87
  -1   1   3    5.29    0.66
  -1   1   3    6.09    0.54
  -1   1   3    7.10    0.69
   0   1   3    3.89    0.39
   0   1   3    2.07    0.49
   0   1   3    2.60    0.38
   1   1   3  134.05    9.34
   1   1   3  140.84    9.49
   2   1   3  108.83    7.42
   2   1   3  133.91    8.28
  -3  -1  -3   19.70    1.72
   3   1   3   18.80    1.49
   3   1   3   20.14    1.63
  -4  -1  -3    6.42    0.88
   4   1   3    5.22    0.72
   4   1   3    4.43    0.89
   4   1   3    5.86    0.52
   4   1   3    5.21    0.56
   4   1   3    3.83    0.68
   4   1   3    5.47    0.50
   5   1   3    2.50    1.07
   5   1   3    1.55    0.53
   5   1   3    0.56    0.49
   5   1   3    2.29    0.48
   5   1   3    1.14    0.43
   6   1   3    0.32    1.00
   6   1   3    0.90    0.45
  -6   2   3    9.52    1.04
   5  -2  -3   21.48    1.59
  -5   2   3   24.56    1.87
   4  -2  -3   41.96    2.30
   4  -2  -3   42.70    3.10
  -4   2   3   45.21    2.86
  -4   2   3   44.47    3.24
   3  -2  -3   31.05    2.28
  -3   2   3   31.03    2.39
   2  -2  -3   74.08    4.91
  -2   2   3   73.12    5.15
  -2   2   3   67.53    4.56
  -2   2   3   77.01    4.30
   1  -2  -3   48.87    3.49
  -1   2   3   55.09    3.05
  -1   2   3   50.23    3.69
   0  -2  -3   95.29    6.27
   0   2   3   94.50    6.60
   0   2   3   94.81    5.47
  -1  -2  -3   33.92    2.32
   1   2   3   33.47    2.49
   1   2   3   34.96    2.60
   2   2   3   66.16    4.56
   2   2   3   64.11    4.66
  -3  -2  -3   17.43    1.54
   3   2   3   15.15    1.47
   4   2   3   12.29    1.22
   4   2   3   11.03    0.85
   4   2   3   10.77    0.73
   4   2   3   10.69    1.19
   4   2   3   11.54    0.74
   5   2   3    2.34    0.54
   5   2   3    2.79    0.54
   5   2   3    2.62    1.07
   6   2   3    9.88    0.76
   6   2   3   10.31    0.80
   6   2   3   11.95    1.24
  -6   3   3    5.40    0.76
   5  -3  -3   17.05    1.34
  -5   3   3   18.27    1.62
   4  -3  -3   39.55    2.17
  -4   3   3   38.43    2.60
   3  -3  -3   10.32    1.18
  -3   3   3   12.20    1.24
  -3   3   3   12.59    1.19
   2  -3  -3   15.64    1.37
  -2   3   3   17.78    1.18
  -2   3   3   15.77    1.46
  -2   3   3   14.74    1.32
   1  -3  -3   24.09    1.76
  -1   3   3   22.49    1.62
  -1   3   3   24.41    1.49
  -1   3   3   21.69    1.88
   0  -3  -3   50.26    3.18
   0   3   3   47.07    3.39
   0   3   3   45.72    2.72
   0   3   3   43.39    2.86
   1   3   3   40.40    2.88
   1   3   3   40.66    3.00
   2   3   3   37.12    2.69
   2   3   3   36.04    2.77
   3   3   3    4.07    0.70
   4   3   3    8.75    1.13
   4   3   3    7.01    0.67
   4   3   3    7.99    0.64
   5   3   3    9.59    0.73
   5   3   3    9.47    0.73
   5   3   3   10.65    1.29
   6   3   3    0.51    0.78
   6   3   3    1.27    0.41
   6   3   3    0.72    0.39
   5  -4  -3   12.91    1.18
   4  -4  -3   22.44    1.51
  -4   4   3   21.25    1.79
   3  -4  -3    2.85    0.79
  -3   4   3    4.51    0.69
  -3   4   3    5.84    0.63
  -3   4   3    4.21    0.59
  -3   4   3    5.59    0.81
   2  -4  -3    9.69    1.09
  -2   4   3   12.58    1.15
  -2   4   3   10.58    1.08
  -2   4   3    9.69    0.89
   1  -4  -3   63.20    4.16
  -1   4   3   59.90    3.56
  -1   4   3   59.66    3.79
  -1   4   3   60.97    4.33
   0  -4  -3    6.64    0.83
   0   4   3    5.37    0.74
   1   4   3   16.44    1.47
   2   4   3   70.94    5.05
   3   4   3    1.37    0.87
   3   4   3    0.93    0.50
   3   4   3    0.85    0.45
   4   4   3    1.71    0.50
   4   4   3    2.67    0.98
   4   4   3    1.95    0.56
   5   4   3    2.55    0.52
   5   4   3    1.47    0.48
   5   4   3    2.83    0.92
   5  -5  -3    0.53    0.58
  -5   5   3   -0.05    0.47
   4  -5  -3   28.03    1.76
  -4   5   3   27.61    1.55
  -4   5   3   27.81    2.00
  -3   5   3   27.26    1.72
  -3   5   3   26.55    1.92
  -3   5   3   26.12    1.52
  -2   5   3   20.69    1.42
  -2   5   3   21.77    1.53
  -2   5   3   21.01    1.22
   1  -5  -3   32.18    2.30
  -1   5   3   29.97    1.78
  -1   5   3   30.79    1.87
  -1   5   3   31.87    1.51
   2   5   3    2.69    0.84
   3   5   3    3.26    0.52
   3   5   3    2.91    0.93
   4   5   3    0.65    0.46
   4   5   3    0.03    0.89
   5   5   3    3.32    0.69
   5   5   3    2.94    0.37
   5   5   3    2.05    0.45
   4  -6  -3    4.51    0.67
  -4   6   3    4.08    0.53
  -3   6   3   12.32    0.93
  -2   6   3   18.95    1.01
  -2   6   3   19.71    1.36
  -1   6   3    6.78    0.81
   3  -7  -3   10.44    0.89
  -2   7   3    9.14    0.84
  -1   7   3    2.01    0.69
   1   8  -4   -0.42    0.50
   0   8  -4    2.54    0.57
  -1   8  -4    0.00    0.55
   2   7  -4    1.94    0.68
   1   7  -4    0.72    0.71
   0   7  -4   14.24    1.10
  -1   7  -4    4.15    0.79
  -2   7  -4    0.59    0.68
   4   6  -4    1.53    0.49
   3   6  -4   13.80    0.98
   2   6  -4    4.62    0.80
   1   6  -4    5.56    0.81
   0   6  -4   15.99    1.40
  -1   6  -4   20.14    1.43
  -2   6  -4    5.88    0.51
  -2   6  -4    7.25    0.90
  -3   6  -4    2.32    0.76
  -3   6  -4    2.55    0.49
  -4   6  -4    4.83    0.50
   5   5  -4   -0.52    0.42
   5   5  -4    0.95    0.46
   4   5  -4    2.21    0.56
   4   5  -4    2.48    0.62
   3   5  -4    4.63    0.64
   3   5  -4    5.30    0.71
   2   5  -4   25.45    1.53
   2   5  -4   21.54    1.32
   1   5  -4    2.16    0.62
   0   5  -4   11.44    1.15
   0  -5   4   14.83    1.27
  -1   5  -4   28.86    1.38
  -1   5  -4   25.68    1.70
  -1   5  -4   28.35    1.72
   1  -5   4   26.98    2.13
  -2   5  -4    0.90    0.70
  -2   5  -4    1.79    0.66
  -2   5  -4    0.89    0.47
  -3   5  -4   -0.65    0.75
  -3   5  -4    0.12    0.77
  -3   5  -4    0.39    0.54
  -4   5  -4    2.49    0.79
  -4   5  -4    1.66    0.53
  -5   5  -4    1.32    0.44
   6   4  -4    1.06    0.35
   5   4  -4    2.97    0.59
   5   4  -4    3.76    0.59
   4   4  -4    4.64    0.65
   4   4  -4    3.94    0.66
   3   4  -4   12.94    1.03
   3   4  -4   12.67    1.03
   3   4  -4   14.28    1.16
   3   4  -4   10.63    1.30
   2   4  -4   28.82    2.35
  -2  -4   4   32.85    2.33
   1   4  -4   10.86    1.21
  -1  -4   4   10.78    1.18
   0   4  -4    4.32    0.85
   0  -4   4    4.74    0.79
  -1   4  -4   41.02    2.60
  -1   4  -4   39.54    2.41
   1  -4   4   38.10    2.83
  -2   4  -4    4.57    0.76
  -2   4  -4    4.42    0.56
   2  -4   4    3.87    0.83
  -3   4  -4   19.68    1.72
  -3   4  -4   18.69    1.30
  -4   4  -4    5.57    1.03
   6   3  -4    1.64    0.45
   6   3  -4    2.32    0.45
   5   3  -4   17.29    1.15
   5   3  -4   15.93    1.10
   5   3  -4   13.55    1.53
   4   3  -4    4.25    0.61
   4   3  -4    5.50    0.65
   3   3  -4   12.57    1.29
   2   3  -4    2.38    0.75
  -2  -3   4    3.22    0.58
   1   3  -4    3.77    0.77
  -1  -3   4    2.98    0.60
   0   3  -4    3.71    0.79
   0   3  -4    3.60    0.55
   0  -3   4    4.21    0.66
   1  -3   4   57.83    3.97
   1  -3   4   58.21    4.12
  -2   3  -4   37.22    2.56
   2  -3   4   38.86    2.76
   2  -3   4   36.51    2.68
  -3   3  -4    5.29    0.87
   6   2  -4   10.79    0.90
   6   2  -4   12.05    0.82
   5   2  -4    6.23    0.68
   5   2  -4    6.25    0.68
   5   2  -4    7.42    1.07
   5   2  -4    5.38    0.51
   4   2  -4   14.82    0.97
   4   2  -4   13.76    0.99
   4   2  -4   13.57    1.42
   4   2  -4   15.34    1.44
   4   2  -4   14.25    1.07
   3   2  -4   11.45    0.91
   3   2  -4   11.01    1.21
   3   2  -4   10.00    1.19
  -3  -2   4    8.80    1.18
   2   2  -4   38.62    2.61
   2   2  -4   40.23    2.94
  -2  -2   4   45.99    3.01
   1   2  -4   36.02    2.25
   1   2  -4   40.02    2.70
   1   2  -4   34.05    2.41
  -1  -2   4   40.75    2.70
  -1  -2   4   40.40    2.81
   0   2  -4   37.69    2.66
   0  -2   4   37.94    2.81
   1  -2   4   27.95    2.21
   2  -2   4   30.48    2.35
   2  -2   4   31.29    2.20
   3  -2   4   19.29    1.60
   6  -2   4    0.93    0.50
   6   1  -4    2.30    0.51
   6   1  -4    2.40    0.46
  -6  -1   4    1.74    0.94
   5   1  -4   45.07    2.92
   5   1  -4   46.49    2.17
   5   1  -4   45.10    2.11
   5   1  -4   45.75    2.29
   4   1  -4   19.75    1.48
   4   1  -4   19.60    1.59
   4   1  -4   20.92    1.59
   4   1  -4   17.09    1.57
   4   1  -4   17.61    1.21
   4   1  -4   16.67    1.06
  -4  -1   4   15.77    1.65
   3   1  -4    2.25    0.55
   3   1  -4    2.74    0.74
   3   1  -4    1.98    0.56
  -3  -1   4    2.04    0.64
   2   1  -4   49.07    3.21
   2   1  -4   52.90    3.60
   2   1  -4   49.62    3.50
  -2  -1   4   50.71    3.62
   1   1  -4  193.69   12.11
  -1  -1   4  173.28   12.47
  -1  -1   4  185.29   12.63
   0   1  -4    8.36    0.92
   0  -1   4   10.75    1.24
   0  -1   4    7.29    0.79
   0  -1   4    8.74    0.73
  -1   1  -4   22.51    1.63
   1  -1   4   20.59    1.83
  -2   1  -4   16.62    1.34
   2  -1   4   14.36    1.13
   2  -1   4   13.89    1.40
  -3   1  -4   17.21    1.61
   3  -1   4   16.95    1.59
   3  -1   4   19.25    1.52
   4  -1   4    8.70    1.03
   4  -1   4    9.88    0.77
   4  -1   4    9.11    1.10
   5  -1   4   11.57    0.99
   5  -1   4   12.44    0.90
   5  -1   4   14.41    1.47
   6  -1   4   12.42    0.87
   6   0  -4   74.49    3.38
  -6   0   4   70.32    4.40
   5   0  -4    0.71    0.66
   5   0  -4    0.27    0.68
  -5   0   4    0.96    1.04
   4   0  -4    0.81    0.75
   4   0  -4   -0.02    0.66
  -4   0   4   -1.80    0.59
   3   0  -4    0.27    0.44
   3   0  -4    1.00    0.73
   3   0  -4    1.45    0.57
  -3   0   4    0.54    0.59
   2   0  -4  215.31   14.19
   2   0  -4  213.62   14.59
  -2   0   4  218.12   14.82
   1   0  -4  598.37   36.31
  -1   0   4  515.23   31.73
  -1   0   4  589.48   37.97
  -1   0   4  517.75   37.40
   0   0  -4    0.52    0.49
   0   0   4    0.49    0.50
   0   0   4   -0.19    0.41
   0   0   4    1.21    0.44
   1   0   4  794.12   52.22
   1   0   4  679.66   49.87
   1   0   4  818.64   51.47
  -2   0  -4    3.38    0.60
   2   0   4    3.26    0.61
   2   0   4    2.74    0.55
  -3   0  -4   82.93    5.89
   3   0   4   82.00    5.78
   3   0   4   86.18    5.24
  -4   0  -4    1.32    0.68
   4   0   4    1.71    0.76
   4   0   4    1.29    0.47
   4   0   4    1.38    0.51
   4   0   4    1.53    0.88
   4   0   4    1.43    0.49
   5   0   4    3.48    0.57
   5   0   4    2.29    0.75
   5   0   4    3.62    1.02
   5   0   4    1.78    0.56
   6   0   4   22.55    1.12
   6   0   4   21.24    1.16
   6  -1  -4    1.99    0.59
  -6   1   4    2.32    0.86
   5  -1  -4   47.84    2.67
   5  -1  -4   49.18    3.28
  -5   1   4   50.28    3.20
   4  -1  -4   21.99    1.60
   4  -1  -4   17.79    1.63
   4  -1  -4   19.86    1.29
  -4   1   4   16.18    1.67
  -4   1   4   17.39    1.65
   3  -1  -4    1.25    0.68
   3  -1  -4    2.03    0.66
  -3   1   4    2.14    0.63
   2  -1  -4   51.39    3.61
  -2   1   4   52.62    3.17
  -2   1   4   54.50    3.79
   1  -1  -4  201.04   12.75
  -1   1   4  193.88   13.34
  -1   1   4  178.55   13.10
  -1   1   4  203.32   11.15
   0  -1  -4   10.36    0.81
   0   1   4    8.00    0.72
   0   1   4    6.83    0.79
   0   1   4    9.74    0.88
   1   1   4   19.34    1.69
   1   1   4   20.07    1.78
   2   1   4   13.18    1.18
   2   1   4   13.26    1.32
   2   1   4   13.52    1.40
  -3  -1  -4   16.63    1.54
   3   1   4   16.94    1.43
   3   1   4   15.17    1.32
  -4  -1  -4    9.14    1.23
   4   1   4    8.55    1.01
   4   1   4    8.75    0.65
   4   1   4    7.62    0.62
   4   1   4    8.63    1.03
   4   1   4    8.37    0.62
   4   1   4    7.55    1.07
   5   1   4   10.88    0.86
   5   1   4   11.64    1.34
   5   1   4   11.23    0.91
   5   1   4   11.19    0.77
   6   1   4   11.85    1.28
   6   1   4   11.98    0.84
  -6   2   4   11.49    1.22
   5  -2  -4    7.82    0.84
  -5   2   4    7.75    1.08
   4  -2  -4   13.60    1.44
   4  -2  -4   17.12    1.24
  -4   2   4   13.89    1.46
  -4   2   4   18.00    1.52
   3  -2  -4   11.08    1.11
  -3   2   4   10.67    1.19
   2  -2  -4   46.82    3.06
  -2   2   4   44.06    3.22
  -2   2   4   45.69    2.68
  -2   2   4   39.44    2.83
   1  -2  -4   43.83    3.09
  -1   2   4   43.37    3.29
  -1   2   4   47.68    2.71
   0  -2  -4   38.52    2.49
   0   2   4   37.48    2.18
   0   2   4   35.89    2.73
   0   2   4   33.64    2.51
   1   2   4   21.38    1.57
   1   2   4   25.15    1.86
   1   2   4   27.03    2.02
   2   2   4   26.31    2.07
   2   2   4   22.46    1.63
   2   2   4   26.97    1.97
  -3  -2  -4   21.18    1.72
   3   2   4   16.90    1.60
   4   2   4    6.33    1.08
   4   2   4    6.55    0.60
   4   2   4    6.48    0.50
   4   2   4    6.47    0.62
   5   2   4    2.70    0.54
   5   2   4    3.57    1.13
   5   2   4    2.58    0.55
   6   2   4    0.05    0.42
   6   2   4    0.53    0.90
   6   2   4    0.74    0.41
  -6   3   4    2.29    0.68
   5  -3  -4   17.07    1.34
  -5   3   4   17.72    1.61
   4  -3  -4    6.52    0.75
  -4   3   4    6.99    0.96
   3  -3  -4   13.53    1.35
  -3   3   4   17.11    1.42
  -3   3   4   16.31    1.41
   2  -3  -4    2.73    0.72
  -2   3   4    3.05    0.50
  -2   3   4    3.22    0.62
  -2   3   4    2.99    0.61
   1  -3  -4    3.93    0.69
  -1   3   4    3.71    0.46
  -1   3   4    3.83    0.56
  -1   3   4    3.14    0.62
   0  -3  -4    5.53    0.63
   0   3   4    3.96    0.45
   0   3   4    3.86    0.43
   0   3   4    3.55    0.67
   1   3   4   53.57    3.88
   2   3   4   30.88    2.40
   2   3   4   29.95    2.30
   3   3   4    4.28    0.95
   3   3   4    2.23    0.60
   3   3   4    2.29    0.44
   4   3   4    0.59    0.97
   4   3   4    0.92    0.49
   4   3   4    1.13    0.52
   5   3   4    1.93    1.02
   5   3   4    2.12    0.53
   5   3   4    2.22    0.55
   6   3   4    0.36    0.37
   6   3   4    0.27    0.74
   6   3   4    0.47    0.38
   5  -4  -4    4.58    0.78
  -5   4   4    4.01    0.82
   4  -4  -4    5.67    0.77
  -4   4   4    4.80    0.93
  -4   4   4    4.89    0.94
  -3   4   4   15.35    1.47
  -3   4   4   13.79    1.15
  -3   4   4   15.36    1.23
  -3   4   4   18.89    1.45
  -3   4   4   16.37    1.47
   2  -4  -4   33.62    2.52
  -2   4   4   33.12    2.12
  -2   4   4   35.89    2.59
  -2   4   4   35.08    2.33
   1  -4  -4   10.52    1.09
  -1   4   4   10.40    0.95
  -1   4   4   10.31    0.82
  -1   4   4   11.84    1.18
   0  -4  -4    5.88    0.72
   0   4   4    4.80    0.46
   0   4   4    4.16    0.72
   1   4   4   34.71    2.62
   2   4   4    2.20    0.71
   3   4   4   14.92    1.54
   3   4   4   12.76    0.93
   4   4   4    3.38    0.54
   4   4   4    3.87    0.57
   4   4   4    3.21    1.02
   5   4   4    5.94    0.57
   5   4   4    7.67    1.04
   5   4   4    5.97    0.58
   5  -5  -4   -0.12    0.55
  -5   5   4    0.39    0.47
   4  -5  -4    5.09    0.76
  -4   5   4    5.62    0.82
  -4   5   4    5.96    0.69
  -3   5   4    6.85    0.69
  -3   5   4    6.25    0.82
  -2   5   4   27.58    1.76
  -2   5   4   28.83    1.91
  -2   5   4   28.07    1.52
   1  -5  -4    1.48    0.73
  -1   5   4    2.75    0.36
  -1   5   4    3.63    0.39
  -1   5   4    4.06    0.67
   1   5   4   23.66    2.07
   1   5   4   28.09    1.96
   2   5   4    1.89    0.92
   3   5   4   -0.12    0.46
   3   5   4    0.28    0.92
   4   5   4    2.08    0.92
   4   5   4    1.68    0.46
   5   5   4    0.85    0.38
   5   5   4    0.99    0.67
   4  -6  -4    2.97    0.59
  -4   6   4    2.01    0.48
   3  -6  -4   20.87    1.45
  -3   6   4   23.36    1.27
  -2   6   4    4.00    0.75
  -1   6   4    6.71    0.81
   3  -7  -4    5.38    0.60
  -1   7   4    0.93    0.67
   1   8  -5   -0.12    0.47
   0   8  -5    0.27    0.51
  -1   8  -5    1.78    0.53
   2   7  -5    7.87    0.84
   1   7  -5    1.55    0.72
   0   7  -5    9.74    0.94
  -1   7  -5    2.31    0.74
  -2   7  -5    2.40    0.70
   4   6  -5    1.66    0.49
   3   6  -5    2.29    0.59
   3   6  -5    2.87    0.70
   2   6  -5    5.16    0.80
   1   6  -5   10.19    0.97
   0   6  -5    3.94    0.80
  -1   6  -5    2.04    0.76
  -2   6  -5    5.50    0.86
  -2   6  -5    4.45    0.47
  -3   6  -5    5.36    0.54
  -3   6  -5    4.46    0.78
  -4   6  -5    0.92    0.40
   5   5  -5    3.33    0.47
   4   5  -5    1.45    0.53
   4   5  -5    0.56    0.57
   3   5  -5    6.02    0.76
   3   5  -5    6.51    0.71
   2   5  -5    5.33    0.64
   2   5  -5    4.31    0.70
   1   5  -5    9.97    0.84
   1   5  -5    8.86    1.19
   0   5  -5   27.17    1.68
   0  -5   5   27.53    2.10
  -1   5  -5    3.84    0.50
  -1   5  -5    4.57    0.53
  -1   5  -5    3.19    0.75
  -2   5  -5   10.29    1.14
  -2   5  -5    8.29    0.93
  -2   5  -5    9.46    0.75
  -3   5  -5    9.55    1.06
  -3   5  -5    8.31    0.77
  -4   5  -5    0.81    0.51
  -5   5  -5    0.87    0.40
   6   4  -5    0.19    0.33
   5   4  -5    1.80    0.54
   5   4  -5    1.72    0.55
   4   4  -5    2.63    0.62
   4   4  -5    3.38    0.65
   3   4  -5    2.04    0.56
   3   4  -5    0.94    0.54
   3   4  -5    0.26    0.63
   2   4  -5    4.88    0.95
  -2  -4   5    7.52    0.94
   1   4  -5   -0.13    0.81
  -1  -4   5    0.48    0.57
   0   4  -5    1.64    0.81
   0   4  -5    1.99    0.41
   0  -4   5    0.50    0.71
  -1   4  -5    3.09    0.64
   1  -4   5    4.24    0.82
  -2   4  -5   35.55    2.40
  -2   4  -5   32.88    1.82
   2  -4   5   32.94    2.53
  -3   4  -5   21.10    1.78
  -3   4  -5   19.88    1.38
  -4   4  -5    0.78    0.91
   6   3  -5    3.56    0.48
   6   3  -5    3.82    0.47
   5   3  -5    5.78    0.68
   5   3  -5    7.00    0.71
   4   3  -5    1.85    0.57
   4   3  -5    0.68    0.60
   4   3  -5   -0.09    0.63
   3   3  -5    6.66    1.00
   3   3  -5    8.01    0.65
   2   3  -5   16.92    1.55
  -2  -3   5   19.30    1.56
   1   3  -5  103.24    6.88
   1   3  -5  101.62    6.28
  -1  -3   5  103.64    7.07
   0   3  -5    5.57    0.67
   0   3  -5    5.46    0.91
   0  -3   5    6.32    0.81
  -1   3  -5    9.01    0.91
   1  -3   5    8.58    0.98
   1  -3   5   11.16    1.11
  -2   3  -5   35.90    2.46
   2  -3   5   34.16    2.58
   2  -3   5   33.43    2.49
  -3   3  -5    3.83    0.87
   6   2  -5   13.24    0.87
   6   2  -5   13.20    0.92
  -6  -2   5   12.82    1.25
   5   2  -5    3.87    0.63
   5   2  -5    3.35    0.46
   5   2  -5    3.43    0.64
   4   2  -5    5.95    0.74
   4   2  -5    6.95    0.98
   4   2  -5    5.35    0.64
   4   2  -5    5.93    0.58
   4   2  -5    5.21    0.60
   4   2  -5    5.49    0.99
   3   2  -5   11.81    0.98
   3   2  -5   12.22    1.25
  -3  -2   5    8.22    1.23
   2   2  -5   63.89    4.48
   2   2  -5   67.50    4.07
  -2  -2   5   64.97    4.56
   1   2  -5    0.55    0.43
   1   2  -5    0.79    0.70
  -1  -2   5    0.39    0.51
   0   2  -5   17.75    1.48
   0   2  -5   12.92    1.25
   0  -2   5   20.99    1.60
  -1   2  -5   22.99    1.76
   1  -2   5   24.70    1.97
  -2   2  -5    3.81    0.71
   2  -2   5    4.01    0.66
   2  -2   5    4.40    0.58
   3  -2   5    1.42    0.53
   4  -2   5    0.30    0.51
   5  -2   5    5.81    1.04
   6  -2   5   -0.26    0.46
   6   1  -5    8.07    0.62
  -6  -1   5    9.11    1.07
   5   1  -5   11.62    1.05
   5   1  -5   12.87    1.15
   5   1  -5   14.17    0.93
   5   1  -5   12.71    0.97
   5   1  -5   12.90    1.07
   4   1  -5    0.97    0.50
   4   1  -5    1.99    0.63
   4   1  -5    1.46    0.49
   4   1  -5    1.59    0.77
   4   1  -5    1.65    0.67
   4   1  -5    0.90    0.54
   4   1  -5    1.85    0.79
   3   1  -5   57.96    3.61
   3   1  -5   57.13    4.00
   3   1  -5   53.85    3.92
  -3  -1   5   57.41    4.06
   2   1  -5  192.01   12.62
   2   1  -5  186.59   11.66
  -2  -1   5  195.16   13.15
   1   1  -5   10.01    1.13
  -1  -1   5   11.57    1.08
  -1  -1   5    8.72    1.21
   0   1  -5  160.26   10.18
   0  -1   5  155.72   10.52
   0  -1   5  154.75   10.60
   0  -1   5  147.03    8.92
  -1   1  -5    9.24    0.91
   1  -1   5    8.71    0.88
  -2   1  -5   28.48    2.06
   2  -1   5   26.34    2.17
   3  -1   5   58.49    4.47
   3  -1   5   70.01    4.14
   4  -1   5   10.39    0.86
   4  -1   5   11.79    1.16
   4  -1   5   12.55    1.48
   5  -1   5    5.35    0.68
   5  -1   5    4.38    0.94
   5  -1   5    4.44    0.60
   6  -1   5    4.50    0.52
   6   0  -5   24.18    1.41
  -6   0   5   26.29    1.85
   5   0  -5    1.50    0.72
   5   0  -5    2.26    0.57
   5   0  -5    2.42    0.68
   5   0  -5    1.17    0.67
  -5   0   5    3.27    1.08
   4   0  -5    8.62    0.95
   4   0  -5    6.61    1.06
   4   0  -5    8.39    0.80
   3   0  -5   45.74    3.27
   3   0  -5   46.83    3.00
   3   0  -5   43.07    3.23
  -3   0   5   47.34    3.36
   2   0  -5    6.04    0.88
  -2   0   5    6.07    0.75
  -2   0   5    6.52    0.64
   1   0  -5   10.55    1.13
  -1   0   5    8.97    1.00
  -1   0   5   11.84    1.25
  -1   0   5   10.26    1.14
   0   0  -5  339.26   21.75
   0   0   5  314.98   19.04
   0   0   5  347.32   22.44
   0   0   5  328.01   22.76
   1   0   5  403.39   26.22
   1   0   5  373.21   26.59
  -2   0  -5   32.05    2.44
   2   0   5   30.41    2.23
   2   0   5   33.07    2.43
  -3   0  -5    2.04    0.62
   3   0   5    1.21    0.50
   3   0   5    1.20    0.73
  -4   0  -5   15.58    1.73
   4   0   5   15.54    1.57
   4   0   5   19.22    1.05
   4   0   5   17.16    1.12
   4   0   5   22.23    1.65
   4   0   5   16.81    1.51
   5   0   5   22.24    2.09
   5   0   5   28.54    1.40
   5   0   5   28.00    1.47
   5   0   5   28.53    2.01
   6   0   5    1.14    0.40
   6   0   5    1.34    0.44
   6  -1  -5    7.41    0.76
  -6   1   5    8.40    1.01
   5  -1  -5   14.76    1.47
   5  -1  -5   12.74    1.27
   5  -1  -5   13.85    1.25
  -5   1   5   16.03    1.54
   4  -1  -5    1.28    0.75
   4  -1  -5    1.92    0.61
   4  -1  -5    1.81    0.74
  -4   1   5   -0.30    0.61
  -4   1   5    1.95    0.90
   3  -1  -5   56.44    4.01
  -3   1   5   59.98    4.18
   2  -1  -5  201.12   12.65
  -2   1   5  198.05   13.21
  -2   1   5  180.02   12.96
  -2   1   5  188.74   11.04
   1  -1  -5    9.59    0.95
  -1   1   5    8.97    0.92
  -1   1   5    7.81    0.92
  -1   1   5    8.87    1.14
   0  -1  -5  148.95    9.90
   0   1   5  142.65   10.22
   0   1   5  162.17    8.69
   0   1   5  149.41   10.40
   1   1   5    7.59    0.77
   1   1   5    8.53    0.89
   2   1   5   24.98    1.85
   2   1   5   18.68    1.60
   2   1   5   23.54    1.92
  -3  -1  -5   56.36    4.12
   3   1   5   57.16    4.02
   3   1   5   57.02    3.62
   4   1   5   13.33    0.95
   4   1   5   13.56    1.25
   4   1   5    9.70    1.20
   4   1   5   11.59    0.91
   4   1   5   13.10    0.88
   5   1   5    3.13    1.14
   5   1   5    4.44    0.57
   5   1   5    4.69    0.54
   5   1   5    3.96    0.60
   6   1   5    4.57    0.48
   6   1   5    3.79    0.98
   6  -2  -5   16.29    1.09
  -6   2   5   13.60    1.32
   5  -2  -5    3.25    0.75
  -5   2   5    4.36    0.99
   4  -2  -5    6.30    0.73
   4  -2  -5    4.69    0.91
  -4   2   5    8.23    0.98
   3  -2  -5   12.37    1.22
  -3   2   5   13.22    1.28
   2  -2  -5   73.76    4.99
  -2   2   5   77.25    4.37
  -2   2   5   74.19    5.23
  -2   2   5   71.09    4.64
   1  -2  -5    1.07    0.58
  -1   2   5    0.91    0.42
  -1   2   5    0.51    0.53
  -1   2   5    0.81    0.55
   0  -2  -5   21.28    1.44
   0   2   5   19.52    1.29
   0   2   5   17.29    1.66
   0   2   5   18.35    1.41
   0   2   5   18.78    1.41
   1   2   5   23.83    1.76
   1   2   5   20.16    1.49
   1   2   5   22.35    1.92
   2   2   5    3.18    0.59
   2   2   5    3.42    0.76
   2   2   5    3.03    0.49
  -3  -2  -5    3.51    0.71
   3   2   5    0.82    0.51
   3   2   5    0.83    0.40
   4   2   5    0.59    0.48
   4   2   5    1.10    1.08
   4   2   5    0.58    0.50
   4   2   5    0.44    0.36
   5   2   5    4.55    0.58
   5   2   5    5.61    1.16
   5   2   5    4.62    0.58
   6   2   5   -0.04    0.40
   6   2   5   -0.34    0.39
   6   2   5   -0.49    0.85
   6  -3  -5    5.66    0.68
  -6   3   5    6.03    0.77
   5  -3  -5    6.95    0.85
  -5   3   5    8.17    1.02
   4  -3  -5    0.52    0.62
  -4   3   5    0.98    0.83
   3  -3  -5   11.60    0.87
   3  -3  -5    8.05    1.05
  -3   3   5   10.72    1.12
  -3   3   5   10.41    1.18
   2  -3  -5   20.40    1.61
  -2   3   5   18.72    1.54
  -2   3   5   20.84    1.69
  -2   3   5   20.38    1.38
   1  -3  -5  113.92    7.48
  -1   3   5  111.64    6.92
  -1   3   5  111.81    6.51
  -1   3   5  113.03    7.84
   0  -3  -5    5.29    0.64
   0   3   5    5.47    0.56
   0   3   5    4.90    0.49
   0   3   5    4.43    0.75
   1   3   5    8.94    1.19
   2   3   5   28.13    2.17
   2   3   5   27.96    2.26
   3   3   5    3.05    0.46
   3   3   5    2.67    0.51
   3   3   5    2.18    0.61
   3   3   5    3.14    0.96
   4   3   5   29.53    2.24
   4   3   5   29.09    1.53
   4   3   5   28.62    1.47
   5   3   5    6.63    1.18
   5   3   5    5.92    0.62
   5   3   5    5.61    0.60
   6   3   5    2.58    0.72
   6   3   5    2.78    0.35
   6   3   5    1.32    0.36
   5  -4  -5    1.80    0.69
  -5   4   5    2.12    0.78
   4  -4  -5    2.14    0.70
  -4   4   5    2.68    0.87
  -4   4   5    1.99    0.84
  -4   4   5    1.26    0.64
   3  -4  -5    1.32    0.70
  -3   4   5    1.70    0.75
  -3   4   5    1.92    0.78
  -3   4   5    0.86    0.58
   2  -4  -5    4.59    0.86
  -2   4   5    6.31    0.74
  -2   4   5    5.17    0.57
   1  -4  -5   -0.52    0.61
  -1   4   5    0.42    0.35
  -1   4   5    0.63    0.56
  -1   4   5    0.09    0.50
   0   4   5    1.77    0.65
   0   4   5    2.77    0.35
   1   4   5    2.27    0.67
   2   4   5   24.06    2.08
   2   4   5   27.45    1.90
   2   4   5   23.64    1.33
   3   4   5   17.09    1.68
   3   4   5   15.57    1.10
   4   4   5    0.65    1.02
   4   4   5    0.29    0.48
   4   4   5    0.50    0.53
   5   4   5    2.85    0.47
   5   4   5    2.69    0.47
   5   4   5    3.22    0.89
   5  -5  -5    3.21    0.58
  -5   5   5    1.62    0.47
   4  -5  -5    1.98    0.67
  -4   5   5    3.50    0.65
  -4   5   5    3.04    0.70
   3  -5  -5    9.20    0.90
  -3   5   5    8.57    0.92
  -3   5   5    7.81    0.77
  -2   5   5    6.76    0.74
  -2   5   5    8.03    0.80
  -2   5   5    6.14    0.97
  -2   5   5    7.45    0.65
  -1   5   5    9.61    0.72
  -1   5   5   11.27    0.89
  -1   5   5   10.37    0.78
  -1   5   5   13.97    1.52
   0   5   5   32.44    2.63
   0   5   5   36.66    2.43
   1   5   5    2.49    0.93
   2   5   5    7.65    1.10
   3   5   5    6.33    1.08
   3   5   5    6.38    0.61
   4   5   5    1.32    0.90
   4   5   5    0.94    0.43
   5   5   5    0.76    0.35
   5   5   5    0.79    0.65
   4  -6  -5    2.08    0.55
  -4   6   5    1.09    0.46
   3  -6  -5    2.87    0.69
  -3   6   5    2.96    0.52
  -1   6   5    9.28    0.87
   2   6   5    4.27    1.02
   3   6   5    3.78    0.93
   4   6   5   -0.16    0.66
   3  -7  -5    2.67    0.49
   2  -7  -5    8.12    0.76
   1   8  -6    1.65    0.48
   0   8  -6    0.35    0.48
   2   7  -6    0.30    0.62
   1   7  -6    0.77    0.70
   0   7  -6    1.11    0.70
  -1   7  -6    8.75    0.91
  -2   7  -6    1.32    0.64
   4   6  -6    1.24    0.47
   3   6  -6    3.54    0.58
   3   6  -6    4.13    0.75
   2   6  -6    3.33    0.75
   2   6  -6    2.31    0.62
   1   6  -6    5.19    0.84
   0   6  -6   17.55    1.48
  -1   6  -6    3.74    0.82
  -2   6  -6    6.65    0.52
  -2   6  -6    6.58    0.90
  -3   6  -6    1.50    0.44
  -4   6  -6   -0.14    0.32
   5   5  -6    1.72    0.45
   4   5  -6    2.09    0.51
   4   5  -6    1.97    0.66
   4   5  -6    2.21    0.61
   3   5  -6    1.66    0.64
   3   5  -6    2.79    0.69
   2   5  -6   24.28    1.38
   2   5  -6   24.08    1.60
   1   5  -6    0.02    0.61
   1   5  -6    1.72    0.63
   0   5  -6    0.38    0.34
   0   5  -6    0.49    0.66
  -1   5  -6    0.17    0.47
  -1   5  -6   -0.28    0.72
  -1   5  -6   -0.21    0.49
  -2   5  -6   12.18    1.05
  -2   5  -6   12.79    1.22
  -2   5  -6   10.12    1.01
  -3   5  -6    5.04    0.91
  -3   5  -6    4.68    0.68
  -4   5  -6    1.92    0.53
   5   4  -6    3.26    0.58
   5   4  -6    4.35    0.57
   4   4  -6    2.62    0.73
   4   4  -6    2.50    0.62
   4   4  -6    3.10    0.64
   3   4  -6    1.39    0.59
   3   4  -6    1.97    0.56
   3   4  -6    0.90    0.65
   2   4  -6    3.73    0.57
   2   4  -6    3.56    0.66
   2   4  -6    1.97    0.86
  -2  -4   6    3.20    0.65
   1   4  -6   23.47    1.98
  -1  -4   6   23.88    1.96
   0   4  -6   13.71    1.09
   0   4  -6   11.47    1.30
   0  -4   6   11.42    1.24
  -1   4  -6   20.42    1.70
   1  -4   6   23.16    1.83
  -2   4  -6   20.90    1.66
  -2   4  -6   18.02    1.32
   2  -4   6   17.76    1.66
  -3   4  -6    9.73    1.12
  -3   4  -6    8.83    0.86
  -4   4  -6    8.80    1.15
   6   3  -6    3.83    0.45
   5   3  -6    9.68    0.78
   5   3  -6    9.07    0.79
   4   3  -6    6.03    0.70
   4   3  -6    4.70    0.78
   4   3  -6    6.58    0.67
   3   3  -6   43.59    2.13
   3   3  -6   46.01    2.10
   3   3  -6   45.17    2.12
   3   3  -6   48.92    2.48
   3   3  -6   40.84    3.26
  -3  -3   6   49.32    3.29
   2   3  -6    4.31    0.89
  -2  -3   6    7.27    0.94
   1   3  -6    3.44    0.85
   1   3  -6    3.63    0.52
  -1  -3   6    4.09    0.68
   0   3  -6    6.26    0.97
   0   3  -6    7.12    0.76
   0  -3   6    7.04    0.90
  -1   3  -6    3.75    0.72
   1  -3   6    4.50    0.73
   1  -3   6    2.04    0.69
  -2   3  -6   82.85    5.06
   2  -3   6   75.90    5.52
   2  -3   6   79.13    5.35
   6   2  -6    7.35    0.58
  -6  -2   6    6.44    0.88
   5   2  -6    2.89    0.74
   5   2  -6    1.80    0.44
   5   2  -6    1.96    0.59
   5   2  -6    2.19    0.61
  -5  -2   6    0.33    1.04
   4   2  -6    2.97    0.57
   4   2  -6    2.45    0.72
   4   2  -6    3.24    0.56
   4   2  -6    2.99    0.49
   4   2  -6    2.59    0.52
   3   2  -6   62.75    4.83
   3   2  -6   75.99    4.40
  -3  -2   6   72.61    4.92
   2   2  -6    3.22    0.85
   2   2  -6    4.40    0.59
  -2  -2   6    4.84    0.65
   1   2  -6   31.99    2.31
   1   2  -6   29.41    2.08
  -1  -2   6   31.21    2.35
   0   2  -6    8.65    0.83
   0   2  -6    9.45    1.08
   0  -2   6   10.28    1.34
  -1   2  -6   23.23    1.83
   1  -2   6   25.99    2.05
   2  -2   6    2.14    0.61
   3  -2   6    1.17    0.56
   4  -2   6   10.71    0.77
   5  -2   6   -0.05    0.86
   6  -2   6    1.38    0.45
   6   1  -6    1.44    0.42
  -6  -1   6    0.65    0.79
   5   1  -6    5.64    0.67
   5   1  -6    6.29    0.85
   5   1  -6    7.36    0.74
   5   1  -6    6.52    0.76
  -5  -1   6    4.27    1.16
   4   1  -6    5.12    0.92
   4   1  -6    5.22    0.81
   4   1  -6    4.91    0.58
   4   1  -6    4.36    0.73
   4   1  -6    4.55    0.58
   4   1  -6    5.56    0.65
   3   1  -6    0.76    0.63
   3   1  -6    0.38    0.75
  -3  -1   6   -1.48    0.51
   2   1  -6  175.56   12.06
   2   1  -6  178.50   11.16
  -2  -1   6  197.72   12.58
  -2  -1   6  178.79   12.40
   1   1  -6  110.16    7.39
  -1  -1   6  114.60    7.68
  -1  -1   6  108.68    7.60
   0   1  -6  165.30   10.94
   0  -1   6  167.11   11.32
  -1   1  -6  106.73    7.36
   1  -1   6  116.64    7.67
   2  -1   6   70.71    4.95
   3  -1   6    1.45    0.78
   3  -1   6    1.15    0.55
   4  -1   6    3.64    0.57
   4  -1   6    3.05    0.97
   5  -1   6    1.78    0.56
   5  -1   6    1.96    0.82
   5  -1   6    0.88    0.63
   6  -1   6    0.37    0.42
   6  -1   6    0.00    0.40
   6   0  -6   -0.29    0.50
  -6   0   6    0.59    0.80
   5   0  -6    0.01    0.66
   5   0  -6    0.17    0.74
   5   0  -6    0.46    0.68
   5   0  -6    0.35    0.52
  -5   0   6   -0.20    1.01
   4   0  -6    2.67    0.77
   4   0  -6    2.97    0.53
   4   0  -6    3.00    0.66
   4   0  -6    3.52    0.69
   4   0  -6    3.31    0.90
  -4   0   6    2.57    0.98
   3   0  -6   53.80    3.90
   3   0  -6   57.33    3.59
  -3   0   6   58.15    3.88
  -3   0   6   52.60    4.00
   2   0  -6   39.25    2.69
   2   0  -6   40.65    2.90
  -2   0   6   40.42    2.97
  -2   0   6   40.96    2.91
   1   0  -6    3.37    0.71
  -1   0   6    2.66    0.56
  -1   0   6    2.63    0.47
  -1   0   6    2.70    0.50
   0   0  -6    2.90    0.57
   0   0   6    2.58    0.56
   0   0   6    2.35    0.55
   0   0   6    3.08    0.59
   1   0   6   48.38    3.48
   1   0   6   47.40    3.46
   2   0   6   63.78    4.25
   2   0   6   69.79    4.69
  -3   0  -6    7.07    0.80
   3   0   6    4.07    0.68
   3   0   6    4.59    0.84
   4   0   6    5.66    0.65
   4   0   6    5.46    0.94
   4   0   6    6.19    0.61
   5   0   6    1.28    0.56
   5   0   6    1.99    0.57
   5   0   6    1.68    0.73
   6   0   6    1.12    0.37
   6   0   6    0.99    0.43
   6  -1  -6    1.14    0.58
   6  -1  -6    0.78    0.57
  -6   1   6    1.55    0.78
   5  -1  -6    6.46    0.98
   5  -1  -6    6.46    0.82
  -5   1   6    9.08    1.11
   4  -1  -6    4.18    0.86
   4  -1  -6    3.51    0.89
   4  -1  -6    3.97    0.69
  -4   1   6    2.08    0.70
  -4   1   6    6.57    0.99
   3  -1  -6   -0.18    0.70
  -3   1   6   -0.45    0.57
   2  -1  -6  191.63   12.73
  -2   1   6  193.94   13.29
   1  -1  -6  118.05    7.66
  -1   1   6  116.56    8.03
  -1   1   6  112.08    6.69
  -1   1   6  115.54    7.86
   0  -1  -6  162.72   10.48
   0   1   6  159.86    9.19
   0   1   6  161.16   10.82
   0   1   6  154.16   11.00
   1   1   6   96.52    6.28
   1   1   6  103.41    7.12
   1   1   6  105.48    6.99
   2   1   6   71.84    4.88
   2   1   6   68.62    4.39
   2   1   6   68.70    5.00
  -3  -1  -6    4.38    0.72
   3   1   6    1.97    0.72
   3   1   6    0.87    0.52
   4   1   6    3.44    0.51
   4   1   6    3.30    0.55
   4   1   6    3.49    0.74
   4   1   6    3.91    0.55
   4   1   6    3.68    1.02
   5   1   6    1.22    1.13
   5   1   6    1.38    0.47
   5   1   6    1.76    0.52
   5   1   6    1.46    0.55
   6   1   6    0.35    0.86
   6   1   6    0.25    0.39
   6  -2  -6    9.71    0.81
  -6   2   6    9.20    1.06
   5  -2  -6    3.02    0.72
  -5   2   6    2.57    0.96
   4  -2  -6    2.81    0.66
  -4   2   6    3.96    0.94
   3  -2  -6   74.35    5.09
  -3   2   6   75.31    5.29
   2  -2  -6    5.17    0.78
  -2   2   6    4.08    0.68
  -2   2   6    4.36    0.58
  -2   2   6    5.29    0.70
   1  -2  -6   32.05    2.25
  -1   2   6   31.78    1.96
  -1   2   6   31.00    2.13
  -1   2   6   29.73    2.39
   0  -2  -6    7.78    0.84
   0   2   6    8.59    1.00
   0   2   6    9.81    0.85
   0   2   6    7.82    0.89
   1   2   6   24.01    2.05
   1   2   6   26.13    1.90
   1   2   6   22.83    1.68
   2   2   6    2.11    0.76
   2   2   6    3.16    0.57
   2   2   6    1.59    0.51
   3   2   6    1.03    0.36
   3   2   6    0.09    0.47
   3   2   6    0.63    0.50
   3   2   6    0.12    0.46
   4   2   6    8.96    0.71
   4   2   6    8.28    0.68
   4   2   6    8.29    0.71
   4   2   6    9.17    1.24
   5   2   6    0.17    0.50
   5   2   6   -0.13    0.50
   5   2   6    0.27    1.08
   6   2   6    1.20    0.37
   6   2   6    0.88    0.78
   6   2   6    0.10    0.36
   6  -3  -6    5.50    0.66
  -6   3   6    5.77    0.74
   5  -3  -6   10.08    0.92
  -5   3   6    9.71    1.09
   4  -3  -6    8.30    0.84
  -4   3   6    7.75    1.05
   3  -3  -6   49.17    3.61
   3  -3  -6   48.90    2.66
  -3   3   6   53.46    3.23
  -3   3   6   50.73    3.73
  -3   3   6   55.16    3.37
   2  -3  -6    5.09    0.84
  -2   3   6    5.44    0.73
  -2   3   6    7.21    0.80
  -2   3   6    5.96    0.61
   1  -3  -6    2.51    0.67
  -1   3   6    2.92    0.63
  -1   3   6    4.27    0.63
  -1   3   6    3.32    0.47
   0   3   6    5.93    0.64
   0   3   6    6.44    0.58
   0   3   6    5.83    0.83
   1   3   6    2.73    0.69
   2   3   6   64.13    4.63
   3   3   6    5.81    0.57
   3   3   6    5.41    0.81
   3   3   6    6.56    1.09
   3   3   6    5.97    0.59
   4   3   6    3.67    1.13
   4   3   6    2.92    0.56
   4   3   6    2.92    0.57
   5   3   6    7.28    0.62
   5   3   6    6.41    0.61
   5   3   6    8.12    1.17
   5  -4  -6    5.62    0.78
  -5   4   6    6.00    0.87
   4  -4  -6    2.96    0.72
  -4   4   6    2.14    0.84
  -4   4   6    2.86    0.87
  -4   4   6    2.01    0.67
   3  -4  -6    1.91    0.70
  -3   4   6    1.83    0.61
  -3   4   6    2.10    0.80
  -3   4   6    2.76    0.77
   2  -4  -6    1.02    0.76
  -2   4   6    4.44    0.79
  -2   4   6    4.03    0.67
  -2   4   6    2.71    0.48
  -2   4   6    3.18    0.56
  -2   4   6    3.79    0.73
   1  -4  -6   21.38    1.89
  -1   4   6   27.98    2.04
  -1   4   6   26.29    1.73
  -1   4   6   24.26    1.58
   0   4   6   12.98    0.92
   0   4   6   14.00    1.40
   1   4   6   17.83    1.63
   2   4   6   13.13    1.48
   2   4   6   14.54    1.58
   2   4   6   14.92    1.01
   3   4   6    7.03    1.19
   3   4   6    6.84    0.63
   4   4   6    7.92    1.17
   4   4   6    5.22    0.61
   4   4   6    7.26    0.63
   5   4   6    2.17    0.88
   5   4   6    0.77    0.40
   5   4   6    0.67    0.43
   5  -5  -6    1.94    0.59
  -5   5   6    0.58    0.44
   4  -5  -6    3.40    0.70
  -4   5   6    4.29    0.85
  -4   5   6    3.02    0.71
  -4   5   6    3.16    0.63
   3  -5  -6    3.11    0.74
  -3   5   6    2.43    0.63
  -3   5   6    2.21    0.89
  -3   5   6    2.54    0.68
  -2   5   6   34.16    2.27
  -2   5   6   30.15    2.07
  -2   5   6   30.51    1.66
  -1   5   6    0.66    0.46
  -1   5   6    0.70    0.92
   0   5   6    0.28    0.93
   1   5   6   -0.12    0.97
   2   5   6   10.08    1.24
   3   5   6    3.13    0.53
   3   5   6    4.04    1.07
   4   5   6    1.42    0.42
   4   5   6    2.20    0.89
   4  -6  -6    1.23    0.50
  -4   6   6    0.70    0.41
   3  -6  -6    6.39    0.74
  -3   6   6    5.04    0.56
   2  -6  -6    3.88    0.74
   0   6   6   20.94    1.94
   1   6   6    4.61    1.08
   2   6   6    7.38    1.14
   3   6   6    2.60    0.88
   4   6   6    0.58    0.64
   3  -7  -6    0.07    0.41
   2   7  -7    2.07    0.61
   1   7  -7    8.36    0.87
   0   7  -7    1.63    0.70
  -1   7  -7    2.12    0.70
  -2   7  -7    0.29    0.57
   4   6  -7    0.57    0.43
   3   6  -7    0.31    0.54
   3   6  -7    0.36    0.67
   2   6  -7    1.10    0.72
   2   6  -7   -0.02    0.59
   1   6  -7    2.65    0.79
   0   6  -7   15.53    1.43
  -1   6  -7    0.03    0.78
  -2   6  -7    7.96    0.91
  -2   6  -7    6.34    0.52
  -3   6  -7    8.72    0.72
  -4   6  -7    2.18    0.33
   5   5  -7   -0.46    0.41
   4   5  -7    2.36    0.66
   4   5  -7    1.07    0.57
   3   5  -7   14.30    1.09
   3   5  -7   15.05    1.32
   2   5  -7    3.51    0.73
   2   5  -7    3.30    0.64
   1   5  -7   12.78    0.86
   1   5  -7   12.66    1.14
   0   5  -7    2.78    0.39
   0   5  -7    2.14    0.76
  -1   5  -7   10.08    1.00
  -1   5  -7    9.19    0.75
  -1   5  -7   11.46    0.97
  -2   5  -7   10.08    1.00
  -2   5  -7   10.18    0.83
  -2   5  -7   10.76    1.17
  -3   5  -7    0.25    0.79
  -3   5  -7    0.55    0.58
  -4   5  -7    0.81    0.49
   5   4  -7    1.62    0.52
   4   4  -7   20.91    1.25
   4   4  -7   20.00    1.28
   4   4  -7   18.04    1.49
   3   4  -7    2.19    0.59
   3   4  -7    1.85    0.70
   3   4  -7    1.51    0.56
   2   4  -7    1.25    0.85
   2   4  -7    1.54    0.52
   2   4  -7    0.83    0.65
  -2  -4   7    1.08    0.58
   1   4  -7    2.32    0.95
   1   4  -7    4.81    0.71
   1   4  -7    3.63    0.41
  -1  -4   7    3.01    0.76
   0   4  -7   10.16    1.22
   0  -4   7    9.22    1.12
  -1   4  -7   18.57    1.50
  -1   4  -7   17.05    1.19
  -1   4  -7   14.61    1.33
   1  -4   7   14.91    1.65
   1  -4   7   22.32    1.63
  -2   4  -7    5.97    0.95
  -2   4  -7    5.80    0.75
  -3   4  -7    4.77    0.79
  -3   4  -7    5.58    1.01
  -4   4  -7    5.83    1.02
   6   3  -7    4.54    0.45
   5   3  -7    0.95    0.56
   5   3  -7    0.65    0.69
   5   3  -7    0.05    0.55
   4   3  -7    5.47    0.70
   4   3  -7    5.00    0.80
   4   3  -7    6.82    0.70
   3   3  -7    1.07    0.52
   3   3  -7    1.71    0.51
   3   3  -7    1.59    0.45
   3   3  -7    1.99    0.86
   3   3  -7    1.96    0.64
  -3  -3   7    3.20    0.58
   2   3  -7    8.57    1.10
   2   3  -7    9.25    0.83
  -2  -3   7    8.97    1.04
   1   3  -7   27.45    2.21
   1   3  -7   28.63    1.93
  -1  -3   7   29.00    2.22
   0   3  -7    2.85    0.86
   0   3  -7    2.97    0.68
   0  -3   7    3.33    0.76
  -1   3  -7   19.55    1.67
   1  -3   7   15.51    1.71
   1  -3   7   24.00    1.64
   2  -3   7   19.49    1.70
   3  -3   7   12.99    0.90
   5   2  -7    1.50    0.57
   5   2  -7    1.20    0.75
   5   2  -7    1.94    0.59
   5   2  -7    1.58    0.46
   4   2  -7   26.62    1.80
   4   2  -7   27.77    1.55
   4   2  -7   26.00    1.51
   4   2  -7   27.21    1.44
   4   2  -7   27.84    1.72
   3   2  -7    0.74    0.56
   3   2  -7    2.06    0.88
  -3  -2   7    3.05    0.57
   2   2  -7    5.22    0.92
   2   2  -7    5.59    0.67
  -2  -2   7    6.14    0.74
   1   2  -7    7.49    0.75
   1   2  -7    6.85    0.96
  -1  -2   7    6.42    0.81
   0   2  -7   70.85    4.56
   0   2  -7   60.77    4.22
   0  -2   7   69.22    4.74
  -1   2  -7   97.58    6.33
   1  -2   7  105.79    7.03
   2  -2   7   30.47    2.35
   3  -2   7   15.18    1.06
   3  -2   7   14.83    1.41
   4  -2   7    5.40    0.64
   5  -2   7    5.04    0.59
   6  -2   7    0.75    0.40
   6   1  -7    0.96    0.38
  -6  -1   7    1.22    0.77
   5   1  -7    1.57    0.64
   5   1  -7    1.90    0.75
   5   1  -7    1.03    0.58
   5   1  -7    0.95    0.54
  -5  -1   7    2.08    1.01
   4   1  -7    8.87    0.68
   4   1  -7    8.98    0.78
   4   1  -7    9.13    0.86
   4   1  -7    8.44    0.73
   4   1  -7   11.09    1.21
  -4  -1   7    4.83    1.14
   3   1  -7   14.47    1.29
  -3  -1   7   10.82    1.34
   2   1  -7   22.45    1.73
   2   1  -7   22.44    1.82
  -2  -1   7   24.41    1.84
  -2  -1   7   22.68    1.88
   1   1  -7   83.25    5.49
   1   1  -7   90.20    5.91
  -1  -1   7   90.73    6.09
   0   1  -7    5.11    0.78
   0  -1   7    5.62    0.77
   1  -1   7   99.47    6.88
   2  -1   7   20.08    1.72
   3  -1   7    1.18    0.95
   3  -1   7    1.65    0.58
   4  -1   7    4.74    0.62
   4  -1   7    5.08    1.04
   5  -1   7    3.85    0.89
   5  -1   7    3.24    0.65
   5  -1   7    3.43    0.59
   6  -1   7    0.99    0.39
   6  -1   7    1.83    0.38
   6   0  -7    5.01    0.71
   6   0  -7    4.29    0.61
  -6   0   7    4.72    0.85
   5   0  -7    3.71    0.83
   5   0  -7    2.84    0.73
   5   0  -7    3.91    0.76
  -5   0   7    4.33    1.00
   4   0  -7    3.90    0.86
   4   0  -7    5.43    0.73
   4   0  -7    3.51    0.69
   4   0  -7    3.79    0.58
   4   0  -7    3.91    0.94
  -4   0   7    4.24    0.97
   3   0  -7   48.68    3.66
   3   0  -7   56.95    3.40
  -3   0   7   49.95    3.74
   2   0  -7   -0.08    0.75
   2   0  -7    0.06    0.62
  -2   0   7    0.60    0.58
  -2   0   7    0.30    0.44
   1   0  -7   42.12    2.93
  -1   0   7   41.89    3.03
  -1   0   7   39.13    3.01
   0   0  -7  340.47   22.03
   0   0   7  336.56   19.30
   0   0   7  332.21   22.73
   1   0   7  175.21   11.96
   1   0   7  177.87   11.81
   1   0   7  167.03   10.64
   2   0   7   45.28    3.29
   2   0   7   44.93    3.02
   3   0   7    7.58    0.98
   3   0   7    5.80    0.91
   4   0   7   12.96    1.03
   4   0   7   13.86    1.50
   4   0   7   12.05    0.97
   5   0   7    0.86    0.56
   5   0   7    1.19    0.54
   5   0   7    0.86    0.70
   6   0   7   10.43    0.63
   6   0   7   10.58    0.70
   6  -1  -7    0.67    0.56
   6  -1  -7    0.79    0.57
  -6   1   7    1.03    0.72
   5  -1  -7    1.25    0.69
   5  -1  -7    0.35    0.76
  -5   1   7    1.83    0.98
   4  -1  -7    9.29    0.92
   4  -1  -7   11.81    1.41
  -4   1   7   12.15    1.18
   3  -1  -7   15.28    1.47
  -3   1   7   15.08    1.42
   2  -1  -7   24.34    1.92
  -2   1   7   25.18    2.00
   1  -1  -7   88.08    5.71
  -1   1   7   86.10    5.84
  -1   1   7   79.38    5.96
  -1   1   7   87.28    5.00
   0   1   7    4.27    0.61
   0   1   7    4.64    0.61
   0   1   7    4.61    0.70
   0   1   7    4.30    0.70
   1   1   7   90.35    6.12
   1   1   7   84.54    5.51
   1   1   7   90.58    6.24
   2   1   7   19.36    1.60
   2   1   7   18.39    1.84
   2   1   7   20.49    1.68
   3   1   7    1.41    0.74
   4   1   7    4.04    0.60
   4   1   7    5.13    0.59
   4   1   7    4.83    0.58
   4   1   7    4.86    0.82
   4   1   7    5.57    1.09
   5   1   7    4.35    0.51
   5   1   7    2.87    0.58
   5   1   7    2.75    0.54
   5   1   7    3.10    1.12
   6   1   7    1.06    0.37
   6  -2  -7    1.22    0.54
   6  -2  -7    1.93    0.53
  -6   2   7    0.83    0.67
   5  -2  -7    1.40    0.71
  -5   2   7    1.12    0.92
   4  -2  -7   27.27    1.70
  -4   2   7   28.58    2.07
   3  -2  -7   -0.61    0.72
  -3   2   7    1.30    0.57
   2  -2  -7    4.57    0.84
  -2   2   7    4.67    0.60
  -2   2   7    5.41    0.74
  -2   2   7    6.20    0.76
   1  -2  -7    5.37    0.78
  -1   2   7    6.87    0.75
  -1   2   7    4.99    0.76
  -1   2   7    6.89    0.65
   0   2   7   63.81    4.69
   0   2   7   66.83    3.89
   0   2   7   66.38    4.14
   1   2   7  100.61    6.70
   1   2   7   97.19    6.86
   1   2   7   95.29    6.02
   2   2   7   28.19    2.13
   2   2   7   27.74    2.28
   2   2   7   26.49    1.88
   3   2   7   14.66    1.35
   3   2   7   11.96    0.90
   3   2   7   11.49    0.92
   3   2   7   12.96    1.08
   3   2   7   13.21    1.29
   3   2   7   11.65    0.82
   4   2   7    4.25    0.45
   4   2   7    3.78    0.60
   4   2   7    3.12    0.60
   4   2   7    4.10    1.19
   5   2   7    2.38    1.09
   5   2   7    4.62    0.57
   5   2   7    4.32    0.56
   6   2   7    0.87    0.34
   6  -3  -7    6.58    0.63
  -6   3   7    6.13    0.72
   5  -3  -7    0.59    0.67
  -5   3   7    0.35    0.85
   4  -3  -7    5.18    0.77
  -4   3   7    5.29    0.97
   3  -3  -7    1.97    0.65
   3  -3  -7   -0.71    0.76
  -3   3   7    1.63    0.77
  -3   3   7    2.53    0.59
  -3   3   7    2.47    0.78
   2  -3  -7    8.19    1.07
  -2   3   7   11.06    1.12
  -2   3   7   10.88    1.11
  -2   3   7    9.96    0.88
   1  -3  -7   26.87    2.14
  -1   3   7   30.78    2.31
  -1   3   7   30.53    2.05
  -1   3   7   29.77    1.88
   0   3   7    2.72    0.71
   0   3   7    3.31    0.57
   0   3   7    3.27    0.49
   1   3   7   17.99    1.21
   1   3   7   16.19    1.59
   2   3   7   14.42    1.49
   3   3   7    8.23    0.68
   3   3   7    9.05    0.70
   3   3   7   10.55    1.30
   4   3   7    0.99    0.56
   4   3   7    2.48    0.55
   4   3   7    0.27    1.12
   5   3   7    3.10    0.49
   5   3   7    2.98    0.49
   5   3   7    1.79    0.95
   5  -4  -7    2.74    0.67
  -5   4   7    1.00    0.76
   4  -4  -7   21.63    1.51
  -4   4   7   20.62    1.72
  -4   4   7   22.99    1.82
   3  -4  -7    2.57    0.69
  -3   4   7    1.53    0.85
  -3   4   7    2.54    0.80
  -3   4   7    2.53    0.64
   2  -4  -7   -1.96    0.70
   2  -4  -7    1.57    0.63
  -2   4   7    0.64    0.81
  -2   4   7    1.12    0.70
  -2   4   7    0.16    0.53
  -2   4   7    0.41    0.42
  -2   4   7    2.29    0.61
  -1   4   7    4.62    0.55
  -1   4   7    4.67    0.94
  -1   4   7    5.30    0.80
  -1   4   7    5.91    0.62
  -1   4   7    6.19    0.72
   0   4   7   13.54    0.97
   0   4   7   14.18    1.44
   1   4   7   15.71    1.51
   1   4   7   13.85    1.46
   2   4   7    4.58    1.12
   2   4   7    6.23    0.60
   3   4   7    4.80    0.59
   3   4   7    4.16    1.17
   4   4   7    3.65    0.54
   4   4   7    4.98    1.13
   5   4   7    2.02    0.40
   5   4   7    1.44    0.78
   5   4   7    1.68    0.41
   5  -5  -7   -0.42    0.50
  -5   5   7   -0.31    0.39
   4  -5  -7    3.64    0.66
  -4   5   7    3.20    0.64
  -4   5   7    3.96    0.84
   3  -5  -7   18.03    1.33
  -3   5   7   20.57    1.70
  -3   5   7   18.26    1.21
  -3   5   7   17.66    1.42
   2  -5  -7    5.47    0.78
  -2   5   7    4.77    1.01
  -2   5   7    5.19    0.66
  -2   5   7    4.82    0.64
  -1   5   7   17.11    1.04
  -1   5   7   14.49    1.71
   0   5   7    1.96    1.04
   1   5   7    6.50    1.17
   2   5   7    9.39    1.27
   3   5   7   -0.18    1.03
   3   5   7    0.35    0.49
   4   5   7    0.16    0.84
   4   5   7    0.37    0.41
   4  -6  -7    0.87    0.45
   3  -6  -7    0.24    0.57
  -3   6   7    0.00    0.43
   2  -6  -7   -0.23    0.65
  -1   6   7    2.39    1.06
   0   6   7    9.42    1.27
   1   6   7   -0.65    1.03
   2   6   7    7.12    1.13
   3   6   7    8.56    1.02
   2   7  -8    3.18    0.67
   1   7  -8    2.50    0.68
   0   7  -8    3.08    0.69
  -1   7  -8    8.93    0.82
   4   6  -8    1.35    0.36
   3   6  -8    1.54    0.53
   3   6  -8    1.51    0.68
   2   6  -8   13.95    1.26
   2   6  -8   12.31    0.99
   1   6  -8    1.28    0.78
   0   6  -8    6.19    0.92
  -1   6  -8    7.28    0.93
  -2   6  -8    3.36    0.42
  -2   6  -8    3.33    0.79
  -3   6  -8    2.77    0.41
   5   5  -8   -0.34    0.36
   4   5  -8   -0.01    0.59
   4   5  -8    1.06    0.55
   3   5  -8    3.18    0.68
   3   5  -8    2.87    0.75
   2   5  -8    1.34    0.72
   2   5  -8    0.77    0.66
   1   5  -8   11.04    0.97
   1   5  -8   10.69    0.82
   0   5  -8    2.16    0.43
   0   5  -8    2.39    0.77
   0   5  -8    2.53    0.62
  -1   5  -8    0.05    0.77
  -1   5  -8    0.16    0.54
  -1   5  -8    0.03    0.53
  -2   5  -8    5.77    0.86
  -2   5  -8    5.69    0.74
  -3   5  -8    0.91    0.58
  -3   5  -8    0.98    0.78
  -4   5  -8    0.49    0.46
   5   4  -8    0.71    0.57
   5   4  -8    1.02    0.51
   4   4  -8    4.60    0.67
   4   4  -8    4.23    0.79
   3   4  -8    1.83    0.63
   3   4  -8    1.07    0.73
   2   4  -8    6.04    0.67
   2   4  -8    4.27    0.79
   1   4  -8   17.13    1.63
   1   4  -8   19.81    1.05
   1   4  -8   17.88    1.15
   1   4  -8   16.94    1.30
  -1  -4   8   13.52    1.83
   0   4  -8    2.06    0.65
   0   4  -8    1.51    0.94
   0   4  -8    3.06    0.51
   0   4  -8    2.65    0.52
   0  -4   8   -0.71    0.77
  -1   4  -8   12.26    1.27
  -1   4  -8   10.12    0.86
  -1   4  -8    8.49    0.77
   1  -4   8    6.51    1.03
   1  -4   8    9.17    0.79
  -2   4  -8    4.93    0.96
  -2   4  -8    5.35    0.77
  -3   4  -8    1.89    0.97
  -3   4  -8    1.81    0.74
   5   3  -8    2.21    0.72
   5   3  -8    2.36    0.58
   4   3  -8    8.36    0.94
   4   3  -8   10.68    0.81
   4   3  -8   10.54    0.82
   3   3  -8    2.67    0.44
   3   3  -8    2.19    0.59
   3   3  -8    2.80    0.54
   3   3  -8    1.74    0.70
   2   3  -8    2.64    0.66
   2   3  -8    3.31    0.54
   2   3  -8    2.43    0.87
   2   3  -8    3.73    0.54
  -2  -3   8    3.65    0.65
   1   3  -8    7.22    0.75
   1   3  -8    6.27    1.01
  -1  -3   8    5.97    0.87
   0   3  -8    3.78    0.75
   0   3  -8    4.63    0.92
   0  -3   8    2.69    0.77
  -1   3  -8   10.28    1.22
   1  -3   8    8.57    1.02
   2  -3   8    4.97    0.79
   2  -3   8    4.99    0.68
   3  -3   8    6.00    0.74
   5   2  -8    3.13    0.48
   5   2  -8    4.45    0.61
   5   2  -8    3.29    0.78
   4   2  -8    5.09    0.68
   4   2  -8    5.22    0.64
   4   2  -8    5.13    0.83
   4   2  -8    5.29    0.65
   4   2  -8    4.86    0.64
   3   2  -8    0.29    0.82
   3   2  -8   -0.03    0.50
   3   2  -8   -0.01    0.64
   3   2  -8   -0.03    0.61
   3   2  -8    0.26    0.47
   3   2  -8    0.21    0.50
  -3  -2   8    1.72    0.51
   2   2  -8   15.74    1.57
   2   2  -8   19.48    1.43
  -2  -2   8   17.50    1.55
   1   2  -8   43.29    3.14
   1   2  -8   47.17    2.95
  -1  -2   8   42.47    3.25
   0   2  -8   28.12    2.20
   0   2  -8   30.56    2.25
   0  -2   8   30.61    2.40
  -1   2  -8   34.63    2.46
   1  -2   8   35.09    2.65
   2  -2   8    6.56    0.83
   3  -2   8   12.18    0.87
   4  -2   8    4.52    0.64
   5  -2   8    1.60    0.52
   6   1  -8    1.65    0.53
  -6  -1   8    1.44    0.70
   5   1  -8    6.60    0.75
   5   1  -8    4.77    0.83
   5   1  -8    5.07    0.70
  -5  -1   8    6.25    0.98
   4   1  -8    2.82    0.61
   4   1  -8    2.65    0.73
   4   1  -8    4.03    0.80
   4   1  -8    4.51    0.72
  -4  -1   8    3.38    0.95
   3   1  -8   23.57    2.07
   3   1  -8   27.34    1.98
  -3  -1   8   27.90    2.06
   2   1  -8    6.07    0.81
   2   1  -8    5.70    0.93
  -2  -1   8    6.54    0.76
   1   1  -8   17.29    1.51
   1   1  -8   16.18    1.55
  -1  -1   8   17.42    1.67
   0   1  -8  177.83   11.54
   0   1  -8  165.50   10.74
   0  -1   8  181.46   11.93
   1  -1   8   10.12    1.29
   2  -1   8   18.32    1.64
   3  -1   8    9.78    0.74
   3  -1   8    8.93    1.12
   3  -1   8    7.53    1.14
   4  -1   8   29.30    1.52
   4  -1   8   31.82    2.35
   5  -1   8    7.78    0.68
   5  -1   8    7.97    0.74
   5  -1   8    7.24    1.01
   6  -1   8    7.96    0.58
   6   0  -8    1.14    0.57
   6   0  -8    0.86    0.48
  -6   0   8    1.21    0.71
   5   0  -8   17.38    1.33
   5   0  -8   17.16    1.48
   5   0  -8   17.04    1.35
  -5   0   8   14.91    1.47
   4   0  -8    3.43    0.77
   4   0  -8    3.06    0.72
   4   0  -8    3.72    0.90
  -4   0   8    2.65    0.91
   3   0  -8    1.00    0.81
   3   0  -8    0.87    0.73
  -3   0   8   -0.05    0.53
   2   0  -8   37.85    2.63
   2   0  -8   37.55    2.76
  -2   0   8   39.13    2.82
  -2   0   8   37.60    2.80
   1   0  -8    2.01    0.75
  -1   0   8    1.26    0.57
  -1   0   8    1.52    0.55
   0   0   8  124.93    8.59
   0   0   8  127.48    7.31
   0   0   8  123.92    8.70
   1   0   8   27.57    2.32
   1   0   8   28.85    2.34
   1   0   8   31.24    2.17
   2   0   8    3.73    0.67
   2   0   8    2.65    0.79
   3   0   8    8.08    1.02
   3   0   8    8.29    0.68
   3   0   8    6.77    1.03
   4   0   8   14.18    1.15
   4   0   8   14.18    1.03
   4   0   8   16.75    1.59
   5   0   8    0.55    0.52
   5   0   8   -0.19    0.52
   5   0   8    0.17    0.61
   6   0   8    0.98    0.36
   6  -1  -8    1.34    0.54
   6  -1  -8    1.76    0.57
  -6   1   8    1.67    0.70
   5  -1  -8    5.61    0.79
   5  -1  -8    5.23    0.94
  -5   1   8    7.76    1.05
   4  -1  -8    3.72    0.92
   4  -1  -8    3.32    0.74
  -4   1   8    3.70    0.97
  -3   1   8   25.68    2.03
   2  -1  -8    5.36    0.88
  -2   1   8    6.12    0.78
   1  -1  -8   17.38    1.43
  -1   1   8   15.68    1.48
  -1   1   8   14.58    1.32
  -1   1   8   16.29    1.29
   0   1   8  180.42    9.73
   0   1   8  164.86   11.62
   0   1   8  176.47   11.43
   0   1   8  150.94   10.30
   1   1   8   11.00    1.21
   1   1   8    9.49    0.99
   1   1   8    9.67    1.33
   2   1   8   17.14    1.53
   2   1   8   17.68    1.51
   2   1   8   14.08    1.67
   3   1   8    7.05    0.96
   3   1   8    9.28    1.08
   3   1   8    8.40    0.68
   3   1   8    7.13    1.11
   3   1   8    9.55    0.68
   3   1   8    7.55    0.70
   4   1   8   28.33    1.47
   4   1   8   28.66    1.44
   4   1   8   28.04    1.48
   4   1   8   23.78    2.11
   5   1   8    7.68    0.67
   5   1   8    7.93    0.59
   5   1   8    5.54    1.18
   6   1   8    6.85    0.50
   6  -2  -8    9.99    0.84
   6  -2  -8    8.23    0.73
  -6   2   8   10.28    0.97
   5  -2  -8    3.60    0.73
  -5   2   8    2.42    0.95
   4  -2  -8    4.49    0.78
  -4   2   8    6.77    1.04
   3  -2  -8   -0.27    0.79
   3  -2  -8    0.76    0.62
  -3   2   8    1.19    0.55
  -3   2   8    0.96    0.80
   2  -2  -8   17.88    1.53
  -2   2   8   16.63    1.52
  -2   2   8   17.15    1.47
   1  -2  -8   41.88    3.03
  -1   2   8   42.96    2.84
  -1   2   8   43.94    2.64
  -1   2   8   42.90    3.17
   0   2   8   28.69    2.02
   0   2   8   29.72    1.89
   0   2   8   29.02    2.33
   1   2   8   33.70    2.24
   1   2   8   32.38    2.58
   2   2   8    6.50    0.79
   2   2   8    8.05    1.00
   2   2   8    4.65    0.88
   3   2   8    9.12    0.70
   3   2   8    9.67    0.71
   3   2   8    8.57    0.74
   3   2   8    8.24    1.24
   4   2   8    4.61    0.62
   4   2   8    3.95    0.48
   4   2   8    4.73    1.23
   4   2   8    4.46    0.61
   5   2   8    0.13    0.98
   5   2   8    1.92    0.50
   5   2   8    1.41    0.47
   6  -3  -8    0.50    0.41
  -6   3   8    0.10    0.51
   5  -3  -8    2.11    0.69
  -5   3   8    3.51    0.90
   4  -3  -8   12.59    1.04
  -4   3   8   12.15    1.28
   3  -3  -8    2.52    0.71
  -3   3   8    2.59    0.82
  -3   3   8    3.22    0.88
   2  -3  -8    1.72    0.75
  -2   3   8    3.30    0.55
  -2   3   8    3.42    0.83
  -2   3   8    3.16    0.75
  -2   3   8    2.84    0.63
  -1   3   8    8.43    0.83
  -1   3   8    6.00    0.87
  -1   3   8    7.90    0.87
   0   3   8    4.14    0.79
   0   3   8    4.19    0.66
   0   3   8    4.47    0.55
   1   3   8    8.92    1.20
   1   3   8    9.53    0.90
   2   3   8    4.52    0.55
   2   3   8    4.31    0.89
   2   3   8    5.32    0.46
   2   3   8    5.42    1.08
   3   3   8    4.72    0.58
   3   3   8    3.40    0.59
   3   3   8    4.91    1.22
   4   3   8   10.20    0.74
   4   3   8    8.51    0.71
   4   3   8    9.09    1.29
   5   3   8   11.69    1.28
   5   3   8   11.66    0.78
   5   3   8   12.79    0.82
   5  -4  -8    0.29    0.60
  -5   4   8    0.43    0.74
   4  -4  -8    4.56    0.76
  -4   4   8    4.01    0.87
  -4   4   8    4.20    0.72
  -4   4   8    5.49    0.99
   3  -4  -8    2.27    0.71
  -3   4   8    0.95    0.63
  -3   4   8    0.32    0.87
  -3   4   8    0.90    0.78
   2  -4  -8    6.81    0.80
  -2   4   8    7.35    0.73
  -2   4   8    7.39    0.91
  -2   4   8    6.41    0.99
  -1   4   8   18.92    1.38
  -1   4   8   19.90    1.80
  -1   4   8   21.78    1.81
  -1   4   8   21.17    1.28
  -1   4   8   23.11    1.56
   0   4   8    3.58    0.51
   0   4   8    2.23    0.75
   0   4   8    3.46    1.04
   1   4   8    9.18    1.22
   1   4   8    8.80    1.20
   1   4   8    9.29    0.69
   2   4   8    5.70    1.18
   2   4   8    4.12    0.58
   3   4   8    1.66    0.55
   3   4   8    0.99    1.12
   4   4   8    9.72    1.19
   4   4   8   10.26    0.71
   5   4   8    1.87    0.70
   5   4   8    1.22    0.36
   5  -5  -8    0.10    0.42
  -5   5   8    0.34    0.38
   4  -5  -8    1.92    0.61
  -4   5   8    1.03    0.56
  -4   5   8    1.34    0.80
   3  -5  -8    4.44    0.75
  -3   5   8    3.73    0.67
  -3   5   8    3.86    0.70
  -3   5   8    3.92    0.96
   2  -5  -8    2.11    0.71
  -2   5   8    1.44    0.95
  -2   5   8    1.49    0.53
  -2   5   8    1.44    0.58
  -1   5   8   11.35    0.92
  -1   5   8   10.09    1.28
   0   5   8    1.48    1.10
   1   5   8    1.18    1.10
   2   5   8    5.30    0.60
   2   5   8    3.86    1.17
   3   5   8    0.42    1.00
   3   5   8    0.74    0.48
   4   5   8    0.29    0.80
   4   5   8    0.51    0.38
   4  -6  -8    2.48    0.44
   3  -6  -8    1.74    0.55
  -2   6   8   16.75    1.71
  -1   6   8   -0.57    1.02
   0   6   8    5.23    1.15
   1   6   8    6.42    1.17
   2   6   8    3.15    1.02
   3   6   8    2.77    0.79
   2   7  -9   -0.46    0.50
   1   7  -9   -0.24    0.58
   0   7  -9    2.09    0.62
  -1   7  -9    4.89    0.63
   3   6  -9    2.85    0.68
   3   6  -9    1.80    0.47
   2   6  -9    5.93    0.63
   2   6  -9    5.34    0.78
   1   6  -9   -0.13    0.77
   0   6  -9    8.81    0.99
  -1   6  -9    1.94    0.79
  -2   6  -9    4.52    0.42
  -3   6  -9    0.98    0.30
   4   5  -9    4.53    0.60
   4   5  -9    5.36    0.72
   3   5  -9    4.38    0.67
   3   5  -9    4.64    0.76
   2   5  -9   18.48    1.20
   2   5  -9   17.29    1.42
   1   5  -9    3.49    0.65
   1   5  -9    2.37    0.76
   0   5  -9    4.28    0.87
   0   5  -9    3.16    0.51
  -1   5  -9   51.11    2.39
  -1   5  -9   45.59    2.63
  -1   5  -9   47.40    3.05
  -2   5  -9    5.86    0.75
  -2   5  -9    5.36    0.85
  -3   5  -9    3.18    0.61
  -4   5  -9    2.30    0.46
   5   4  -9    2.47    0.61
   5   4  -9    2.30    0.49
   4   4  -9    1.05    0.76
   4   4  -9    2.02    0.62
   3   4  -9    9.38    0.97
   3   4  -9   10.28    0.83
   2   4  -9    0.74    0.39
   2   4  -9    0.37    0.57
   2   4  -9   -0.15    0.73
   1   4  -9   -0.12    0.51
   1   4  -9    0.38    0.53
   1   4  -9   -0.09    0.68
   0   4  -9    1.99    1.02
   0   4  -9    3.92    0.59
   0   4  -9    3.91    0.55
   0   4  -9    3.57    0.71
  -1   4  -9    3.97    0.86
  -1   4  -9    4.14    0.69
   1  -4   9    3.30    0.74
  -2   4  -9    1.70    0.78
  -2   4  -9    1.40    0.96
   2  -4   9    3.87    0.74
  -3   4  -9    4.14    0.82
  -3   4  -9    5.20    1.03
   5   3  -9    0.40    0.52
   5   3  -9    0.41    0.68
   4   3  -9    3.16    0.64
   4   3  -9    1.64    0.76
   3   3  -9    0.59    0.52
   3   3  -9    0.10    0.68
   3   3  -9    0.81    0.58
   2   3  -9   19.53    1.36
   2   3  -9   14.08    1.60
   2   3  -9   17.70    1.10
   2   3  -9   18.59    1.40
   2   3  -9   18.12    1.18
  -2  -3   9   16.46    1.57
   1   3  -9   13.73    1.39
   1   3  -9   12.42    1.20
  -1  -3   9   10.76    1.41
   0   3  -9    5.22    0.84
   0   3  -9    4.60    0.98
   0  -3   9    2.29    0.80
  -1   3  -9    4.66    0.90
   1  -3   9    1.93    0.74
   1  -3   9    3.25    0.63
   2  -3   9    4.25    0.70
   3  -3   9   23.66    1.40
   4  -3   9    4.43    0.63
   5   2  -9    0.13    0.71
   5   2  -9   -0.64    0.51
   4   2  -9    4.62    0.64
   4   2  -9    3.88    0.80
   4   2  -9    4.59    0.63
   4   2  -9    3.63    0.62
   3   2  -9    1.55    0.67
   3   2  -9    1.47    0.54
   3   2  -9    1.37    0.85
   3   2  -9    1.38    0.70
   3   2  -9    1.76    0.58
  -3  -2   9    1.37    0.53
   2   2  -9   10.13    1.25
   2   2  -9   13.12    1.22
  -2  -2   9   11.30    1.26
   1   2  -9    3.17    0.84
   1   2  -9    4.26    0.75
  -1  -2   9    2.29    0.73
   0   2  -9    4.55    0.89
   0   2  -9    5.68    0.83
   0  -2   9    5.08    0.83
  -1   2  -9    6.75    0.94
   1  -2   9    4.84    0.83
   2  -2   9   12.39    1.03
   2  -2   9   12.92    1.33
   3  -2   9   45.78    2.18
   4  -2   9   17.94    1.11
   5  -2   9    2.77    0.51
   6   1  -9    0.42    0.49
  -6  -1   9   -0.15    0.46
   5   1  -9    3.78    0.62
   5   1  -9    3.47    0.78
   5   1  -9    4.53    0.71
  -5  -1   9    3.78    0.88
   4   1  -9    1.16    0.74
   4   1  -9    1.55    0.74
   4   1  -9    1.35    0.70
   3   1  -9   18.76    1.58
   3   1  -9   17.15    1.30
   3   1  -9   14.24    1.52
   3   1  -9   17.83    1.30
  -3  -1   9   18.94    1.58
   2   1  -9   21.05    1.63
   2   1  -9   18.15    1.68
  -2  -1   9   20.01    1.75
   1   1  -9   47.71    3.22
   1   1  -9   47.46    3.42
  -1  -1   9   50.82    3.57
   0   1  -9   42.21    2.98
   0  -1   9   44.55    3.22
   1  -1   9    4.54    0.76
   2  -1   9    3.82    0.71
   3  -1   9   18.61    1.80
   3  -1   9   15.23    1.09
   4  -1   9   63.71    2.85
   4  -1   9   65.66    4.30
   5  -1   9   -0.20    0.49
   5  -1   9    0.30    0.56
   6   0  -9    2.40    0.55
   6   0  -9    3.20    0.50
  -6   0   9    2.65    0.67
   5   0  -9    1.64    0.72
   5   0  -9    1.44    0.73
   5   0  -9    1.87    0.70
  -5   0   9    1.84    0.87
   4   0  -9   -0.39    0.67
   4   0  -9   -0.61    0.84
   4   0  -9    0.71    0.76
  -4   0   9   -0.43    0.88
   3   0  -9    7.04    0.77
   3   0  -9    5.26    1.01
   3   0  -9    7.33    0.99
  -3   0   9    8.37    0.99
   2   0  -9    3.84    0.77
   2   0  -9    3.43    0.85
  -2   0   9    3.30    0.63
  -2   0   9    4.06    0.67
   1   0  -9   10.73    1.15
  -1   0   9   10.74    1.03
  -1   0   9   10.83    1.18
   0   0   9   45.94    3.35
   1   0   9    1.52    0.76
   1   0   9    1.52    0.61
   2   0   9   15.30    1.49
   2   0   9   16.46    1.68
   3   0   9   94.71    4.77
   3   0   9  105.79    4.42
   3   0   9  110.80    6.53
   4   0   9   23.31    1.29
   4   0   9   19.99    1.36
   4   0   9   25.56    1.99
   5   0   9    5.54    0.60
   5   0   9    5.99    0.61
   6  -1  -9    0.58    0.51
   6  -1  -9    0.17    0.50
  -6   1   9    1.26    0.63
   5  -1  -9    3.90    0.87
   5  -1  -9    4.81    0.73
  -5   1   9    3.61    0.96
   4  -1  -9    0.68    0.68
  -4   1   9    1.05    0.91
  -4   1   9    0.59    0.67
   3  -1  -9   17.63    1.31
   3  -1  -9   16.24    1.57
  -3   1   9   13.12    1.04
  -3   1   9   16.92    1.46
  -3   1   9   15.78    1.42
   2  -1  -9   20.17    1.71
  -2   1   9   21.16    1.74
   1  -1  -9   51.51    3.36
  -1   1   9   46.17    3.47
  -1   1   9   45.40    3.15
  -1   1   9   47.89    2.95
   0   1   9   44.16    3.24
   0   1   9   46.11    3.35
   0   1   9   42.90    2.98
   0   1   9   46.54    2.82
   1   1   9    3.47    0.76
   1   1   9    4.74    0.69
   1   1   9    4.42    0.83
   2   1   9    3.85    0.70
   2   1   9    3.14    0.85
   2   1   9    3.21    0.82
   3   1   9   16.24    1.14
   3   1   9   16.33    1.13
   3   1   9   15.95    1.50
   3   1   9   15.68    1.05
   4   1   9   53.15    3.71
   4   1   9   61.41    2.76
   4   1   9   60.15    2.68
   4   1   9   58.88    2.60
   5   1   9    1.38    0.51
   5   1   9    0.47    0.39
   6  -2  -9    0.45    0.45
   6  -2  -9    0.27    0.46
  -6   2   9   -0.33    0.55
   5  -2  -9   -1.41    0.64
  -5   2   9   -0.36    0.81
   4  -2  -9    3.43    0.77
  -4   2   9    2.97    0.94
   3  -2  -9    1.83    0.85
   3  -2  -9    1.39    0.65
  -3   2   9    1.14    0.78
  -3   2   9    2.52    0.62
   2  -2  -9   10.21    1.16
  -2   2   9   12.27    1.17
  -2   2   9   10.28    1.24
  -1   2   9    2.13    0.54
  -1   2   9    4.18    0.75
  -1   2   9    2.95    0.69
   0   2   9    5.89    0.80
   0   2   9    5.38    0.87
   0   2   9    5.33    0.67
   1   2   9    5.90    0.78
   1   2   9    5.26    0.87
   2   2   9   11.72    0.79
   2   2   9   11.77    1.26
   2   2   9   12.64    1.32
   2   2   9   10.29    0.95
   2   2   9   12.58    1.24
   3   2   9   40.57    1.87
   3   2   9   37.12    1.78
   3   2   9   34.61    2.69
   3   2   9   37.15    1.89
   3   2   9   38.24    2.47
   4   2   9   17.43    1.60
   4   2   9   16.10    1.07
   4   2   9   16.55    1.13
   4   2   9   16.15    0.96
   5   2   9    1.75    0.46
   5   2   9    2.60    0.93
   5   2   9    3.38    0.49
   5  -3  -9    0.83    0.64
  -5   3   9   -1.21    0.80
   4  -3  -9    2.42    0.76
  -4   3   9    3.48    0.97
   3  -3  -9    1.59    0.67
  -3   3   9    0.36    0.84
  -3   3   9    0.15    0.87
   2  -3  -9   15.62    1.24
   2  -3  -9   16.48    1.57
  -2   3   9   18.68    1.52
  -2   3   9   16.78    1.30
  -2   3   9   18.45    1.28
  -2   3   9   17.57    1.54
  -2   3   9   21.09    1.51
  -1   3   9   13.68    1.08
  -1   3   9   15.43    1.35
  -1   3   9   12.71    1.36
   0   3   9    5.32    0.74
   0   3   9    3.77    0.82
   0   3   9    5.39    0.60
   1   3   9    4.14    1.08
   1   3   9    3.49    0.54
   1   3   9    3.75    0.53
   1   3   9    2.30    0.76
   1   3   9    3.53    0.62
   2   3   9    2.92    0.45
   2   3   9    3.19    0.57
   2   3   9    2.39    1.13
   3   3   9   17.68    1.20
   3   3   9   17.36    1.76
   4   3   9    2.48    0.52
   4   3   9    2.81    0.57
   4   3   9    2.29    1.08
   5   3   9    8.58    0.59
   5   3   9    8.32    0.65
   5   3   9    6.64    0.93
   5  -4  -9    2.88    0.58
  -5   4   9    1.49    0.52
  -5   4   9    3.27    0.74
   4  -4  -9    0.96    0.69
  -4   4   9    1.67    0.93
  -4   4   9    1.30    0.64
  -4   4   9    2.82    0.76
   3  -4  -9   12.42    1.15
  -3   4   9   11.88    1.20
  -3   4   9   11.22    0.93
  -3   4   9    9.34    1.21
  -2   4   9    0.97    0.72
  -2   4   9   -0.06    0.61
  -2   4   9    1.28    0.88
  -1   4   9    0.03    0.57
  -1   4   9   -0.68    0.62
  -1   4   9   -0.44    0.91
   0   4   9    3.63    1.13
   0   4   9    4.36    0.56
   1   4   9    4.27    1.12
   1   4   9    3.89    0.58
   2   4   9    2.14    0.56
   2   4   9    0.71    1.16
   3   4   9    5.44    1.27
   3   4   9    5.14    0.64
   4   4   9    2.64    0.48
   4   4   9    2.97    0.94
   5   4   9    3.02    0.35
   4  -5  -9    4.59    0.64
  -4   5   9    4.31    0.62
  -4   5   9    6.30    0.88
   3  -5  -9    6.35    0.78
  -3   5   9    6.68    1.04
  -3   5   9    6.30    0.74
  -3   5   9    8.27    0.74
  -2   5   9   19.46    1.27
  -2   5   9   21.65    1.91
  -1   5   9    1.47    1.09
  -1   5   9    3.27    0.52
   0   5   9    2.97    1.20
   1   5   9   40.18    2.93
   2   5   9    4.97    1.25
   2   5   9    5.51    0.61
   3   5   9    2.43    1.01
   3   5   9    2.02    0.47
   4   5   9    3.09    0.75
   4   5   9    1.93    0.31
   3  -6  -9    3.07    0.55
  -3   6   9    2.49    0.80
  -2   6   9    6.73    1.06
  -1   6   9    0.57    1.01
   0   6   9    8.62    1.27
   1   6   9    2.03    1.09
   2   6   9    4.24    1.00
   3   6   9    1.20    0.73
   2   7 -10    0.49    0.46
   1   7 -10    1.57    0.53
   0   7 -10    3.12    0.57
   3   6 -10    2.26    0.47
   3   6 -10    2.46    0.59
   2   6 -10    0.00    0.64
   2   6 -10    0.73    0.52
   1   6 -10    5.59    0.85
   0   6 -10    9.24    0.97
  -1   6 -10   10.14    0.94
   4   5 -10    0.29    0.54
   4   5 -10    0.90    0.47
   3   5 -10    4.86    0.65
   3   5 -10    3.50    0.73
   2   5 -10    3.79    0.78
   2   5 -10    5.90    0.72
   1   5 -10    4.62    0.83
   1   5 -10    3.99    0.67
   0   5 -10    4.52    0.57
   0   5 -10    4.14    0.88
   0  -5  10    3.98    0.73
  -1   5 -10    0.60    0.64
  -1   5 -10    0.20    0.48
   1  -5  10    1.04    0.71
  -2   5 -10    3.49    0.73
  -2   5 -10    2.50    0.69
  -3   5 -10    5.98    0.67
  -4   5 -10    0.82    0.38
   5   4 -10    0.04    0.47
   5   4 -10    0.61    0.40
  -5  -4  10    0.29    0.47
   4   4 -10   11.85    1.00
   4   4 -10   10.81    0.82
   3   4 -10    0.48    0.76
   3   4 -10    1.08    0.65
   2   4 -10    4.51    0.46
   2   4 -10    5.02    0.69
   2   4 -10    5.85    0.84
   1   4 -10    7.52    0.89
   1   4 -10    7.95    0.68
   1   4 -10    8.31    0.74
   0   4 -10   10.64    0.85
   0   4 -10   12.18    0.99
  -1   4 -10   22.33    1.53
   1  -4  10   21.57    1.28
  -2   4 -10   36.70    2.11
  -2   4 -10   39.20    2.75
   2  -4  10   38.02    1.90
  -3   4 -10    6.86    1.10
  -3   4 -10    7.62    0.90
   3  -4  10    6.76    0.75
   5   3 -10    1.86    0.63
   5   3 -10    2.47    0.53
   4   3 -10   15.65    1.15
   4   3 -10   16.70    1.38
   3   3 -10    4.05    0.58
   3   3 -10    4.10    0.64
   3   3 -10    3.77    0.80
   2   3 -10    2.12    0.58
   2   3 -10    1.99    0.65
   2   3 -10    1.90    0.73
   2   3 -10    1.78    0.58
   1   3 -10    7.79    0.84
   1   3 -10    7.20    0.83
   1   3 -10    6.24    0.70
   1   3 -10    5.34    1.07
   1   3 -10    7.15    0.64
  -1  -3  10    3.74    0.92
   0   3 -10    5.43    0.68
   0   3 -10    4.92    0.90
   0   3 -10    3.75    0.55
   0  -3  10    1.39    0.81
  -1   3 -10    3.76    0.97
  -1   3 -10    2.76    0.70
   1  -3  10    3.12    0.63
   1  -3  10    1.54    0.75
  -2   3 -10   20.73    1.88
   2  -3  10   20.67    1.30
   3  -3  10    6.94    0.78
   4  -3  10    3.00    0.58
  -6  -2  10    0.36    0.40
   5   2 -10    1.11    0.70
   4   2 -10    5.68    0.67
   4   2 -10    5.23    0.85
   4   2 -10    5.43    0.67
   4   2 -10    4.47    0.68
   3   2 -10    6.97    0.87
   3   2 -10    6.91    0.75
   3   2 -10    6.45    0.67
   3   2 -10    6.20    0.86
   2   2 -10   10.60    1.21
   2   2 -10   10.46    0.81
   2   2 -10    9.60    0.73
   2   2 -10   11.85    1.08
   2   2 -10    6.69    1.13
  -2  -2  10    8.25    1.01
   1   2 -10    2.13    0.88
   1   2 -10    2.64    0.80
  -1  -2  10    1.07    0.73
   0   2 -10   46.89    3.07
   0  -2  10   41.85    3.28
  -1   2 -10   10.38    1.12
   1  -2  10    6.22    0.91
   2  -2  10   20.29    1.22
   3  -2  10   55.35    2.55
   4  -2  10    5.42    0.66
   5  -2  10    0.82    0.43
   5  -2  10   -0.04    0.53
   6   1 -10    0.52    0.43
  -6  -1  10   -0.77    0.40
   5   1 -10    6.69    0.88
   5   1 -10    7.89    0.82
   5   1 -10    8.82    0.77
   4   1 -10   12.67    1.32
   4   1 -10    9.02    1.03
   4   1 -10   14.28    1.01
   3   1 -10    3.64    0.90
   3   1 -10    4.71    0.76
   3   1 -10    3.93    0.72
   3   1 -10    4.53    0.86
   2   1 -10   27.27    2.13
  -2  -1  10   27.78    2.25
   1   1 -10   14.11    1.44
   1   1 -10   14.21    1.38
  -1  -1  10   12.13    1.54
   0  -1  10    3.28    0.72
   1  -1  10   81.31    5.70
   2  -1  10   23.22    1.96
   2  -1  10   24.60    1.37
   3  -1  10   44.75    3.24
   3  -1  10   44.51    2.11
   4  -1  10    3.51    0.62
   4  -1  10    2.20    1.00
   4  -1  10    2.59    0.74
   5  -1  10    1.32    0.51
   5  -1  10    1.41    0.47
   6   0 -10    0.31    0.47
   6   0 -10    0.47    0.39
  -6   0  10    0.58    0.58
   5   0 -10    0.54    0.68
   5   0 -10    0.62    0.68
   5   0 -10    0.31    0.71
  -5   0  10    0.99    0.82
  -5   0  10    0.09    0.61
   4   0 -10    3.81    0.91
   4   0 -10    3.39    0.77
   4   0 -10    4.23    0.83
  -4   0  10    4.20    0.90
   3   0 -10    3.02    0.87
   3   0 -10    3.36    0.67
   3   0 -10    2.08    0.89
   2   0 -10    0.67    0.73
   2   0 -10    1.38    0.79
   1   0 -10   27.56    2.06
  -1   0  10   26.78    2.21
   0   0  10    3.17    0.66
   1   0  10    9.36    1.20
   1   0  10    7.05    1.00
   2   0  10   35.98    2.49
   2   0  10   30.01    1.64
   2   0  10   33.81    2.56
   3   0  10   44.90    2.94
   3   0  10   40.23    1.95
   3   0  10   38.22    2.12
   4   0  10   30.32    1.55
   4   0  10   31.14    2.35
   4   0  10   29.62    1.64
   5   0  10    2.04    0.47
   5   0  10    2.02    0.50
   6  -1 -10    0.25    0.41
   6  -1 -10    0.22    0.46
  -6   1  10    0.57    0.55
   5  -1 -10    8.76    0.97
   5  -1 -10    7.40    0.88
   5  -1 -10    7.57    0.82
  -5   1  10    6.43    1.00
   4  -1 -10    9.46    0.97
  -4   1  10   11.56    0.84
  -4   1  10   11.64    1.29
   3  -1 -10    4.38    0.73
   3  -1 -10    4.92    0.95
  -3   1  10    2.61    0.64
  -3   1  10    4.64    0.72
  -3   1  10    2.91    0.81
   2  -1 -10   28.76    2.26
  -2   1  10   29.69    2.27
  -1   1  10   14.22    1.38
   0   1  10    5.25    0.84
   0   1  10    5.07    0.70
   0   1  10    5.08    0.85
   1   1  10   75.98    5.39
   1   1  10   83.10    4.93
   1   1  10   72.91    5.50
   2   1  10   20.99    1.40
   2   1  10   23.51    1.85
   2   1  10   21.15    1.19
   2   1  10   23.78    1.87
   2   1  10   19.56    1.23
   3   1  10   39.87    1.99
   3   1  10   35.70    1.92
   3   1  10   40.54    1.84
   3   1  10   38.14    2.69
   4   1  10    4.18    0.60
   4   1  10    4.13    0.62
   4   1  10    5.20    0.64
   5   1  10    1.07    0.46
   6  -2 -10    1.20    0.43
  -6   2  10    1.21    0.51
   5  -2 -10    0.25    0.64
  -5   2  10   -0.65    0.77
   4  -2 -10    3.55    0.80
  -4   2  10    5.82    1.03
   3  -2 -10    8.19    0.86
  -3   2  10    8.39    1.07
   2  -2 -10    9.65    1.20
  -2   2  10   10.51    1.27
  -2   2  10   10.42    1.10
  -2   2  10   10.89    1.17
  -1   2  10    2.38    0.84
  -1   2  10    3.26    0.61
  -1   2  10    2.85    0.71
   0   2  10   42.13    3.34
   0   2  10   45.64    2.77
   0   2  10   46.37    2.98
   1   2  10    7.56    1.01
   1   2  10    7.47    0.91
   2   2  10   15.92    1.71
   2   2  10   18.60    1.12
   2   2  10   17.77    1.53
   2   2  10   17.71    1.12
   2   2  10   14.93    1.74
   3   2  10   46.62    2.15
   3   2  10   38.37    2.99
   3   2  10   43.25    2.04
   3   2  10   47.71    2.14
   4   2  10    5.05    1.13
   4   2  10    5.62    0.64
   4   2  10    5.57    0.62
   5   2  10    0.74    0.40
   5   2  10   -1.65    0.75
   5   2  10   -0.03    0.38
   5  -3 -10    3.19    0.62
  -5   3  10    2.05    0.76
   4  -3 -10   15.86    1.35
  -4   3  10   17.11    1.55
   3  -3 -10    5.73    0.80
  -3   3  10    4.55    0.94
  -3   3  10    5.76    1.02
  -2   3  10    1.52    0.86
  -2   3  10    1.18    0.86
  -2   3  10    1.51    0.53
  -2   3  10    1.44    0.69
  -1   3  10    6.52    0.78
  -1   3  10    9.08    1.02
  -1   3  10    9.17    0.83
  -1   3  10    9.68    1.13
  -1   3  10    7.68    1.11
   0   3  10    3.11    0.79
   0   3  10    4.56    0.62
   0   3  10    5.62    0.69
   0   3  10    4.55    0.57
   0   3  10    2.92    1.14
   0   3  10    5.58    0.79
   1   3  10    2.79    0.81
   1   3  10    3.57    0.58
   1   3  10    3.20    0.56
   1   3  10    2.55    0.66
   1   3  10    1.48    1.10
   2   3  10   15.66    1.79
   2   3  10   17.82    1.24
   2   3  10   19.18    1.08
   3   3  10    5.63    0.67
   3   3  10    6.80    1.24
   4   3  10    1.81    0.48
   4   3  10    2.04    0.97
   4   3  10    2.25    0.51
   5   3  10    0.46    0.67
   5   3  10   -0.28    0.32
   5  -4 -10    0.60    0.44
  -5   4  10    0.11    0.46
  -5   4  10    1.32    0.63
   4  -4 -10   12.97    1.14
  -4   4  10   13.07    1.35
  -4   4  10   12.41    1.04
   3  -4 -10    1.00    0.71
  -3   4  10    1.58    0.99
  -3   4  10    1.51    0.73
  -3   4  10    0.60    0.67
  -2   4  10    5.70    0.74
  -2   4  10    4.32    1.05
  -2   4  10    5.67    0.87
  -1   4  10    6.46    1.24
  -1   4  10    9.80    1.00
  -1   4  10    9.39    0.83
   0   4  10   13.01    0.98
   0   4  10   11.20    1.44
   1   4  10   17.86    1.19
   1   4  10   18.41    1.85
   2   4  10   33.04    2.48
   2   4  10   32.46    1.70
   3   4  10    4.93    1.18
   3   4  10    5.89    0.64
   4   4  10    0.37    0.41
   4   4  10    2.35    0.85
   4  -5 -10   -0.04    0.48
  -4   5  10   -0.39    0.71
  -4   5  10    0.71    0.48
   3  -5 -10    6.74    0.74
  -3   5  10    4.83    1.03
  -3   5  10    5.74    0.68
  -2   5  10    4.76    0.65
  -2   5  10    3.64    1.07
  -1   5  10    5.52    0.56
  -1   5  10    3.92    1.20
   0   5  10    3.22    1.23
   1   5  10    1.90    1.18
   2   5  10    1.64    1.08
   2   5  10    2.55    0.52
   3   5  10    5.79    0.50
   3   5  10    3.94    0.98
   4   5  10   -0.38    0.62
  -3   6  10    3.40    0.80
  -2   6  10    0.95    0.90
  -1   6  10    3.57    1.06
   0   6  10    7.24    1.21
   1   6  10    9.39    1.21
   2   6  10    3.61    0.92
   3   6  10    4.50    0.71
   0   7  10    4.01    0.75
   3   6 -11    0.66    0.51
   3   6 -11    1.30    0.40
   2   6 -11    1.29    0.62
   1   6 -11    0.57    0.70
  -1  -6  11   -0.36    0.53
   0   6 -11    7.67    0.85
   4   5 -11    3.27    0.47
   4   5 -11    1.70    0.51
   3   5 -11    1.66    0.63
   3   5 -11    0.26    0.55
   2   5 -11    3.82    0.66
   2   5 -11    5.25    0.78
   1   5 -11   40.63    2.30
   1   5 -11   40.85    1.95
   0   5 -11   12.69    1.13
   0   5 -11   12.09    1.01
   0  -5  11   13.98    1.08
  -1   5 -11    3.90    0.69
   1  -5  11    5.66    0.74
  -2   5 -11   32.56    1.76
  -3   5 -11    2.12    0.49
   4   4 -11   -0.26    0.55
   4   4 -11    0.06    0.68
  -4  -4  11    0.36    0.56
   3   4 -11    4.74    0.69
   3   4 -11    5.52    0.84
   2   4 -11    5.32    0.87
   2   4 -11    5.62    0.53
   2   4 -11    5.87    0.72
   1   4 -11    3.21    0.59
   1   4 -11    2.69    0.64
   1   4 -11    3.04    0.78
   0   4 -11   42.03    2.42
   0   4 -11   44.03    2.23
  -1   4 -11    9.08    0.93
   1  -4  11    9.14    0.85
  -2   4 -11   18.48    1.78
  -2   4 -11   19.40    1.48
   2  -4  11   18.90    1.26
  -3   4 -11   11.47    1.02
   3  -4  11   12.37    0.95
   5   3 -11    2.51    0.47
   5   3 -11    2.00    0.58
  -5  -3  11    1.96    0.54
   4   3 -11    3.89    0.78
   4   3 -11    4.25    0.66
   3   3 -11    8.85    0.94
   3   3 -11    8.95    0.75
   3   3 -11    8.70    0.79
   2   3 -11    1.08    0.76
   2   3 -11    1.53    0.59
   2   3 -11    1.70    0.68
   2   3 -11    0.62    0.61
  -2  -3  11    0.61    0.68
   1   3 -11   14.27    1.38
   1   3 -11   13.99    1.11
   1   3 -11   14.12    1.24
   1   3 -11   13.87    1.00
   0   3 -11   14.44    1.07
   0   3 -11   15.22    1.52
  -1   3 -11   13.64    1.52
  -1   3 -11   10.42    1.01
   1  -3  11   11.68    0.90
   2  -3  11   24.19    1.44
   3  -3  11    4.31    0.71
   4  -3  11    2.95    0.54
   5   2 -11    0.49    0.66
  -5  -2  11    1.36    0.57
   4   2 -11    7.44    0.75
   4   2 -11    8.88    0.76
   4   2 -11    6.77    0.91
   4   2 -11    7.48    0.70
   3   2 -11   19.63    1.53
   3   2 -11   18.22    1.19
   3   2 -11   18.44    1.42
   3   2 -11   17.03    1.29
   2   2 -11    0.74    0.56
   2   2 -11    0.34    0.64
   2   2 -11    1.62    0.71
   2   2 -11    0.60    0.86
   2   2 -11    1.39    0.80
  -2  -2  11    1.33    0.68
   1   2 -11   16.23    1.59
   1   2 -11   17.08    1.09
   1   2 -11   20.53    1.58
  -1  -2  11   14.69    1.72
  -1  -2  11   18.24    1.10
   0   2 -11   24.61    1.86
   0  -2  11   19.25    1.88
   1  -2  11    0.99    0.62
   1  -2  11   -0.49    0.66
   2  -2  11   88.05    3.82
   3  -2  11    0.06    0.67
   4  -2  11   -0.53    0.54
   5  -2  11    0.92    0.38
   5  -2  11    2.03    0.45
   5   1 -11    2.18    0.58
   5   1 -11    1.56    0.70
  -5  -1  11    3.01    0.63
   4   1 -11    3.69    0.81
   4   1 -11    2.55    0.82
   4   1 -11    3.91    0.77
   3   1 -11   17.26    1.58
   3   1 -11   15.73    1.43
   3   1 -11   14.14    1.32
  -3  -1  11   17.00    1.13
   2   1 -11    5.56    1.03
   2   1 -11    7.06    0.80
   2   1 -11    5.83    0.62
   2   1 -11    6.33    0.98
  -2  -1  11    6.88    0.71
   1   1 -11    4.85    0.88
  -1  -1  11    0.53    0.71
   0  -1  11   28.57    2.30
   1  -1  11   25.62    2.15
   1  -1  11   25.88    1.35
   2  -1  11    2.56    0.64
   3  -1  11   16.60    1.18
   4  -1  11    0.03    0.89
   4  -1  11   -0.20    0.69
   4  -1  11   -0.34    0.54
   5  -1  11    4.35    0.51
   5  -1  11    4.83    0.50
   6   0 -11    1.46    0.35
   5   0 -11    6.84    0.79
   5   0 -11    5.75    0.80
  -5   0  11    6.08    0.66
  -5   0  11    5.75    0.89
   4   0 -11    1.27    0.76
   4   0 -11    0.62    0.78
   4   0 -11    0.33    0.76
  -4   0  11    1.03    0.67
  -4   0  11    0.37    0.83
   3   0 -11    2.22    0.89
   3   0 -11    0.78    0.67
  -3   0  11    1.78    0.67
   2   0 -11    6.09    0.96
  -2   0  11    7.69    0.71
  -1   0  11   58.68    4.18
   0   0  11    0.35    0.59
   1   0  11   30.78    2.47
   1   0  11   33.57    2.40
   2   0  11    3.00    0.70
   2   0  11    2.26    0.99
   2   0  11    2.34    0.65
   2   0  11    2.56    0.61
   3   0  11   18.78    1.24
   3   0  11   20.82    1.86
   3   0  11   19.23    1.38
   3   0  11   20.56    1.21
   4   0  11   -0.11    0.62
   4   0  11    0.80    0.54
   4   0  11    0.41    0.76
   5   0  11    0.20    0.41
   5   0  11    0.43    0.38
   5  -1 -11    2.18    0.67
   5  -1 -11    2.13    0.68
  -5   1  11    1.96    0.78
   4  -1 -11    3.22    0.76
  -4   1  11    3.75    0.67
  -4   1  11    2.89    0.90
   3  -1 -11   16.27    1.33
  -3   1  11   14.62    1.40
  -3   1  11   15.38    1.13
   2  -1 -11    6.18    1.00
  -2   1  11    8.33    1.04
  -2   1  11    5.99    0.67
  -2   1  11    6.31    0.92
  -1   1  11    3.66    0.72
   0   1  11   35.03    2.47
   1   1  11   22.38    1.36
   1   1  11   27.76    2.03
   2   1  11    1.54    0.56
   2   1  11    1.80    0.90
   2   1  11    1.55    0.68
   2   1  11    1.39    0.57
   3   1  11   14.82    1.52
   3   1  11   14.87    1.02
   3   1  11   14.14    1.17
   3   1  11   17.14    1.15
   4   1  11   -0.25    0.51
   4   1  11   -0.17    0.49
   4   1  11    0.69    0.50
   4   1  11   -0.09    0.53
   5   1  11    4.42    0.48
   5  -2 -11    0.55    0.59
  -5   2  11    0.30    0.74
   4  -2 -11    7.99    0.88
  -4   2  11    6.31    1.04
   3  -2 -11   18.64    1.41
  -3   2  11   18.47    1.15
  -3   2  11   17.76    1.59
  -2   2  11    1.05    0.52
  -2   2  11    1.41    0.91
  -2   2  11    0.76    0.87
  -1   2  11   18.21    1.21
  -1   2  11   19.52    1.51
  -1   2  11   20.21    1.77
  -1   2  11   21.96    1.78
  -1   2  11   20.05    1.70
   0   2  11   23.00    1.90
   0   2  11   22.77    1.43
   0   2  11   23.15    1.36
   0   2  11   24.25    1.80
   1   2  11    0.47    0.54
   1   2  11    1.33    0.76
   1   2  11    2.13    1.11
   1   2  11    1.05    0.67
   1   2  11    0.25    0.61
   2   2  11   78.24    4.91
   2   2  11   77.42    5.03
   2   2  11   82.92    3.71
   2   2  11   79.64    3.55
   3   2  11    0.64    1.16
   3   2  11    1.34    0.55
   3   2  11    0.97    0.49
   3   2  11    0.97    0.59
   4   2  11   -0.50    0.49
   4   2  11   -0.40    0.49
   4   2  11   -0.82    0.98
   5   2  11    0.37    0.33
   5   2  11    1.59    0.36
   5  -3 -11    2.37    0.54
  -5   3  11    2.38    0.71
   4  -3 -11    5.37    0.78
  -4   3  11    3.27    0.96
   3  -3 -11   10.49    0.94
  -3   3  11    9.05    1.12
  -3   3  11    7.75    1.17
  -2   3  11    1.09    0.71
  -2   3  11    1.49    0.89
  -2   3  11    0.72    0.91
  -1   3  11   15.15    1.65
  -1   3  11   15.66    1.07
  -1   3  11   15.64    1.52
  -1   3  11   15.10    1.33
   0   3  11   14.01    1.06
   0   3  11   14.56    1.32
   0   3  11   13.58    1.15
   0   3  11   10.43    1.48
   1   3  11    7.82    1.39
   1   3  11   11.03    0.80
   1   3  11   11.20    0.82
   2   3  11   23.95    1.28
   2   3  11   22.01    2.02
   2   3  11   23.06    1.36
   3   3  11    4.23    1.16
   3   3  11    4.73    0.65
   4   3  11    2.09    0.90
   4   3  11    2.12    0.51
   5  -4 -11    1.02    0.37
  -5   4  11    1.78    0.57
   4  -4 -11    0.42    0.61
  -4   4  11    1.13    0.85
  -4   4  11    0.08    0.57
   3  -4 -11    5.61    0.79
  -3   4  11    4.73    0.74
  -3   4  11    5.02    0.85
  -3   4  11    2.78    1.02
  -2   4  11    6.27    1.17
  -2   4  11    8.25    0.83
  -2   4  11    6.94    0.93
  -1   4  11    4.42    0.72
  -1   4  11    3.51    0.72
  -1   4  11    4.27    1.20
   0   4  11   46.46    3.29
   0   4  11   49.71    2.36
   1   4  11    9.82    0.76
   1   4  11    7.30    1.37
   2   4  11   16.14    1.12
   2   4  11   14.59    1.66
   3   4  11    8.80    0.73
   3   4  11   11.17    1.30
   4   4  11    1.32    0.75
   4   4  11    1.81    0.39
   4  -5 -11    2.13    0.44
  -4   5  11    2.10    0.46
  -4   5  11    2.53    0.68
  -3   5  11    1.20    0.89
  -3   5  11    1.12    0.55
  -2   5  11    4.94    0.63
  -2   5  11    4.25    1.09
  -1   5  11   47.45    3.20
   0   5  11    9.11    1.42
   1   5  11    3.30    1.17
   2   5  11   26.36    1.41
   2   5  11   30.12    2.15
   3   5  11    2.12    0.84
   3   5  11    1.94    0.35
  -2   6  11    0.53    0.82
  -1   6  11    0.16    0.95
   0   6  11   10.19    1.26
   1   6  11   33.05    2.31
   2   6  11    1.11    0.78
   2   6 -12    4.34    0.61
   1   6 -12    0.11    0.58
  -1  -6  12    0.45    0.48
   0   6 -12    3.14    0.63
   4   5 -12   -0.31    0.34
   3   5 -12    1.47    0.50
   3   5 -12    0.58    0.56
   2   5 -12    0.69    0.65
   2   5 -12    0.92    0.57
   1   5 -12   13.34    1.27
   0   5 -12   23.20    1.33
   0   5 -12   23.80    1.60
   0  -5  12   23.31    1.31
  -1   5 -12    4.40    0.67
   1  -5  12    4.62    0.70
  -2   5 -12    4.12    0.63
  -3   5 -12    3.29    0.47
   4   4 -12    0.32    0.61
   4   4 -12    0.51    0.48
  -4  -4  12   -0.20    0.50
   3   4 -12    0.71    0.60
   3   4 -12    0.60    0.71
   2   4 -12    3.04    0.80
   2   4 -12    2.70    0.66
   2   4 -12    1.96    0.47
   1   4 -12    4.31    0.69
   1   4 -12    5.31    0.68
   1   4 -12    6.76    0.86
   0   4 -12    5.86    0.78
   0  -4  12    5.42    0.76
  -1   4 -12    3.42    0.96
  -1   4 -12    3.08    0.78
   1  -4  12    2.62    0.71
  -2   4 -12    0.87    0.78
  -2   4 -12    1.56    0.96
   2  -4  12    1.46    0.70
  -3   4 -12    0.98    0.68
   3  -4  12    0.32    0.52
   5   3 -12    1.11    0.50
  -5  -3  12    0.96    0.45
   4   3 -12    1.64    0.55
   4   3 -12    1.30    0.71
  -4  -3  12    1.65    0.60
   3   3 -12    3.53    0.81
   3   3 -12    3.22    0.67
   3   3 -12    2.91    0.62
  -3  -3  12    4.94    0.68
   2   3 -12    3.33    0.66
   2   3 -12    3.61    0.73
   2   3 -12    2.07    0.81
   2   3 -12    2.45    0.68
  -2  -3  12    2.91    0.69
   1   3 -12   43.69    2.06
   1   3 -12   45.69    2.93
   1   3 -12   41.90    2.43
   1   3 -12   42.47    2.27
   0   3 -12    5.57    0.82
   0   3 -12    4.25    1.01
   0  -3  12    5.06    0.73
  -1   3 -12    6.62    0.94
  -1   3 -12    7.09    1.13
   1  -3  12    8.34    0.81
   2  -3  12   20.46    1.33
   3  -3  12    5.35    0.70
   4  -3  12   -0.24    0.43
   5   2 -12    0.79    0.60
  -5  -2  12    1.12    0.52
   4   2 -12    3.60    0.65
   4   2 -12    2.96    0.77
   4   2 -12    4.26    0.60
  -4  -2  12    5.47    0.70
   3   2 -12    1.67    0.77
   3   2 -12    2.79    0.79
   3   2 -12    1.25    0.70
   3   2 -12    2.64    0.61
  -3  -2  12    2.98    0.68
   2   2 -12   11.46    0.95
   2   2 -12   11.61    0.99
   2   2 -12   11.45    0.84
   2   2 -12   11.47    1.36
  -2  -2  12   10.23    0.88
   1   2 -12   31.50    1.96
   1   2 -12   33.90    1.65
   1   2 -12   35.23    2.45
  -1  -2  12   32.62    1.71
   0   2 -12    7.37    1.09
   0  -2  12    7.12    0.74
   1  -2  12   34.47    1.76
   2  -2  12    5.92    0.75
   3  -2  12    5.22    0.73
   4  -2  12    1.14    0.51
   5   1 -12    6.25    0.62
   5   1 -12    5.10    0.73
  -5  -1  12    6.13    0.65
   4   1 -12   -0.11    0.68
   4   1 -12    0.87    0.70
   4   1 -12   -0.22    0.78
  -4  -1  12    1.83    0.65
   3   1 -12    5.52    0.98
   3   1 -12    5.81    0.87
   3   1 -12    5.99    0.84
  -3  -1  12    7.43    0.78
   2   1 -12   42.66    2.86
   2   1 -12   41.74    2.32
  -2  -1  12   40.03    2.01
   1   1 -12   21.18    1.81
   1   1 -12   19.76    1.17
  -1  -1  12   17.97    1.20
   0  -1  12    9.91    0.75
   0  -1  12   10.04    0.79
   1  -1  12    9.01    0.75
   1  -1  12    8.45    0.76
   2  -1  12   34.61    1.80
   3  -1  12    4.24    0.67
   3  -1  12    2.75    1.12
   4  -1  12    1.39    0.64
   4  -1  12    0.35    0.52
   5  -1  12    1.38    0.36
   5  -1  12    1.18    0.36
   5   0 -12   -0.05    0.63
   5   0 -12   -0.60    0.56
  -5   0  12    0.28    0.51
   4   0 -12   -0.31    0.76
   4   0 -12   -0.59    0.77
   4   0 -12   -0.53    0.73
  -4   0  12    0.48    0.65
   3   0 -12    2.93    0.77
   3   0 -12    3.74    0.96
  -3   0  12    3.37    0.71
   2   0 -12    6.90    0.81
  -2   0  12    8.31    0.75
  -1   0  12   26.01    1.47
   0   0  12    1.43    0.64
   0   0  12    2.35    0.59
   1   0  12   11.93    1.00
   1   0  12   14.28    1.42
   1   0  12   15.61    1.58
   1   0  12   11.65    1.00
   2   0  12   12.26    1.00
   2   0  12   14.04    1.06
   2   0  12   10.99    1.39
   3   0  12    2.86    0.77
   3   0  12    4.01    0.63
   3   0  12    2.75    0.98
   4   0  12    1.79    0.57
   4   0  12    0.66    0.52
   5   0  12    6.05    0.50
   5   0  12    6.18    0.49
   5  -1 -12    5.43    0.73
   5  -1 -12    5.76    0.74
  -5   1  12    5.88    0.80
   4  -1 -12    0.41    0.72
  -4   1  12    1.09    0.63
  -4   1  12   -0.31    0.83
   3  -1 -12    4.53    0.77
  -3   1  12    5.06    0.91
  -3   1  12    4.35    0.69
  -2   1  12   41.49    2.01
  -1   1  12   18.22    1.19
   0   1  12   11.10    0.80
   0   1  12    9.09    1.14
   1   1  12    7.86    1.06
   1   1  12    7.93    0.75
   1   1  12    6.80    0.86
   2   1  12   27.59    1.51
   2   1  12   30.61    2.19
   2   1  12   26.43    1.39
   2   1  12   24.94    1.66
   3   1  12    2.15    0.84
   3   1  12    2.29    0.66
   3   1  12    3.54    0.62
   3   1  12    2.63    0.57
   4   1  12    0.71    0.48
   4   1  12    0.48    0.47
   4   1  12    0.21    0.50
   5   1  12    1.82    0.36
   5  -2 -12    1.02    0.55
  -5   2  12    0.49    0.65
   4  -2 -12    3.13    0.74
  -4   2  12    4.74    0.93
   3  -2 -12    2.01    0.75
  -3   2  12    3.47    0.59
  -3   2  12    2.79    0.94
  -2   2  12   11.55    0.81
  -2   2  12   11.38    1.23
  -2   2  12   11.62    1.39
  -1   2  12   36.12    2.44
  -1   2  12   32.14    1.68
  -1   2  12   29.76    2.32
   0   2  12    3.78    0.83
   0   2  12    4.83    1.19
   0   2  12    6.72    0.99
   0   2  12    6.41    0.69
   0   2  12    7.00    0.80
   1   2  12   33.71    1.91
   1   2  12   36.22    1.81
   1   2  12   30.25    2.51
   1   2  12   40.10    2.52
   2   2  12    4.22    0.67
   2   2  12    3.82    1.18
   2   2  12    2.40    0.83
   2   2  12    6.23    0.70
   3   2  12    5.22    1.14
   3   2  12    4.03    0.56
   3   2  12    3.93    0.54
   3   2  12    5.18    0.67
   4   2  12    0.66    0.47
   4   2  12    2.02    0.45
   5  -3 -12    1.03    0.43
  -5   3  12    0.63    0.60
   4  -3 -12    1.13    0.63
  -4   3  12    0.67    0.83
   3  -3 -12    3.42    0.77
  -3   3  12    3.90    0.92
  -3   3  12    3.92    1.02
  -2   3  12    1.18    1.01
  -2   3  12    2.34    0.76
  -2   3  12    3.45    0.92
  -1   3  12   48.53    3.16
  -1   3  12   45.10    2.45
  -1   3  12   46.77    2.22
  -1   3  12   48.07    3.16
   0   3  12    3.58    1.25
   0   3  12    4.67    0.65
   0   3  12    5.58    0.88
   0   3  12    5.37    0.73
   1   3  12    7.48    0.72
   1   3  12    5.71    1.31
   1   3  12    6.50    0.72
   2   3  12   19.49    1.86
   2   3  12   19.39    1.33
   2   3  12   22.16    1.19
   3   3  12    2.60    1.07
   3   3  12    3.51    0.61
   4   3  12   -0.60    0.40
   4   3  12   -0.09    0.78
   4  -4 -12    0.51    0.50
  -4   4  12    1.03    0.74
  -4   4  12   -0.32    0.53
  -3   4  12    1.07    0.93
  -3   4  12    1.20    0.66
  -3   4  12    1.83    0.66
  -2   4  12    3.12    1.09
  -2   4  12    2.65    0.70
  -2   4  12    2.24    0.73
  -1   4  12    5.59    0.75
  -1   4  12    5.17    1.28
  -1   4  12    6.06    0.75
   0   4  12    6.31    0.67
   0   4  12    4.25    1.28
   0   4  12    7.25    0.67
   1   4  12    3.79    0.61
   1   4  12    2.37    1.22
   2   4  12    1.53    0.55
   2   4  12    1.50    1.11
   3   4  12    1.08    0.91
   3   4  12    0.35    0.46
   4   4  12    1.81    0.31
  -3   5  12    1.47    0.86
  -3   5  12    2.03    0.51
  -2   5  12    1.42    0.48
  -2   5  12    2.34    1.02
  -1   5  12   16.94    1.67
   0   5  12   21.94    1.94
   1   5  12    5.20    1.14
   2   5  12    3.51    0.43
   2   5  12    3.77    0.99
   3   5  12    1.89    0.30
   3   5  12    2.52    0.73
  -2   6  12    3.30    0.78
  -1   6  12    0.07    0.85
   0   6  12    4.17    0.96
   1   6  12    9.09    1.04
   2   6  12    0.20    0.63
   1   6 -13    0.36    0.50
  -1  -6  13    0.13    0.39
   3   5 -13    0.80    0.43
   3   5 -13    0.15    0.48
   2   5 -13    2.03    0.63
   1   5 -13    0.94    0.70
  -1  -5  13    1.31    0.57
   0   5 -13   12.70    0.89
   0  -5  13   13.86    0.97
  -1   5 -13    6.09    0.64
   1  -5  13    6.96    0.69
  -2   5 -13    1.50    0.47
   4   4 -13    1.35    0.52
   4   4 -13    1.10    0.42
   3   4 -13    0.78    0.65
   3   4 -13    0.49    0.55
   2   4 -13   -0.75    0.59
   2   4 -13    0.28    0.74
   1   4 -13   16.21    1.21
   1   4 -13   17.18    1.35
   0   4 -13    6.25    0.80
   0  -4  13    5.92    0.76
  -1   4 -13   27.25    1.70
  -1   4 -13   28.42    2.11
   1  -4  13   27.93    1.53
  -2   4 -13    2.90    0.78
   2  -4  13    2.34    0.67
  -3   4 -13    0.21    0.57
   3  -4  13    0.27    0.45
   4   3 -13    1.26    0.49
   4   3 -13    1.33    0.65
  -4  -3  13    0.05    0.54
   3   3 -13   13.21    1.06
   3   3 -13   14.04    1.26
   3   3 -13   13.54    1.06
  -3  -3  13   13.37    0.99
   2   3 -13   22.59    1.34
   2   3 -13   22.95    1.60
   2   3 -13   22.45    1.70
   2   3 -13   22.80    1.50
  -2  -3  13   21.69    1.26
   1   3 -13   19.56    1.67
   1   3 -13   20.42    1.46
   1   3 -13   18.58    1.27
   0   3 -13    6.61    0.89
   0   3 -13    6.04    1.04
   0  -3  13    6.84    0.79
  -1   3 -13    3.99    1.00
  -1   3 -13    4.31    0.86
   1  -3  13    2.28    0.71
   2  -3  13   13.75    0.99
   3  -3  13    0.50    0.55
   4  -3  13    0.45    0.36
   5   2 -13    1.52    0.52
  -5  -2  13    2.33    0.48
   4   2 -13    2.32    0.72
   4   2 -13    1.97    0.61
  -4  -2  13    3.17    0.64
   3   2 -13   18.43    1.16
   3   2 -13   19.29    1.54
   3   2 -13   20.58    1.48
   3   2 -13   18.44    1.37
  -3  -2  13   18.85    1.23
   2   2 -13   14.05    1.05
   2   2 -13   12.27    1.34
   2   2 -13   11.40    0.86
   2   2 -13   10.44    1.04
  -2  -2  13   12.53    0.91
   1   2 -13   27.15    1.78
   1   2 -13   26.95    1.45
   1   2 -13   29.07    2.14
  -1  -2  13   26.90    1.49
   0   2 -13    0.09    0.94
   0  -2  13    1.00    0.63
   1  -2  13    1.99    0.69
   2  -2  13    0.28    0.71
   3  -2  13   17.42    1.09
   4  -2  13   -0.21    0.43
   5   1 -13    2.66    0.58
   5   1 -13    4.06    0.51
  -5  -1  13    4.10    0.53
   4   1 -13    5.05    0.79
   4   1 -13    5.11    0.83
   4   1 -13    5.74    0.82
  -4  -1  13    6.08    0.72
   3   1 -13    3.77    0.84
   3   1 -13    2.90    0.84
   3   1 -13    4.32    0.83
  -3  -1  13    4.63    0.72
   2   1 -13  126.39    7.74
   2   1 -13  121.42    6.10
  -2  -1  13  124.22    5.38
   1   1 -13   10.94    1.30
  -1  -1  13   10.66    0.84
   0  -1  13    1.13    0.65
   0  -1  13    0.70    0.62
   1  -1  13   19.75    1.27
   1  -1  13   20.84    1.28
   2  -1  13    3.08    0.74
   3  -1  13   -0.13    0.59
   3  -1  13    0.69    1.01
   4  -1  13    2.21    0.55
   4  -1  13    1.82    0.47
   5   0 -13    0.71    0.50
   5   0 -13   -0.56    0.56
  -5   0  13    0.54    0.44
   4   0 -13    7.38    0.96
   4   0 -13    6.58    0.90
   4   0 -13    8.74    0.91
  -4   0  13    6.81    0.74
   3   0 -13   33.48    2.00
   3   0 -13   31.38    2.38
  -3   0  13   30.49    1.68
  -2   0  13    2.33    0.67
  -1   0  13   37.37    1.89
   0   0  13   10.82    0.83
   0   0  13   10.47    0.87
   1   0  13    3.77    0.66
   1   0  13    4.28    0.68
   2   0  13    0.48    0.66
   2   0  13   -0.22    0.58
   2   0  13    0.41    1.06
   3   0  13    0.83    0.90
   3   0  13    0.57    0.69
   3   0  13    0.60    0.58
   4   0  13    1.06    0.51
   4   0  13    1.42    0.46
   5  -1 -13    3.61    0.59
   5  -1 -13    3.17    0.60
  -5   1  13    3.59    0.66
   4  -1 -13    5.49    0.82
  -4   1  13    5.23    0.86
  -4   1  13    5.82    0.63
   3  -1 -13    1.88    0.76
  -3   1  13    1.91    0.63
  -3   1  13    2.42    0.89
  -2   1  13  125.07    5.40
  -1   1  13   10.57    0.81
   0   1  13    0.47    0.63
   0   1  13    0.62    0.97
   1   1  13   16.42    1.39
   1   1  13   18.73    1.20
   1   1  13   19.98    1.76
   2   1  13    2.37    0.73
   2   1  13    2.57    0.94
   2   1  13    3.36    0.55
   2   1  13    2.35    0.62
   3   1  13   -0.08    0.53
   3   1  13    0.57    0.60
   3   1  13    0.31    0.52
   3   1  13    0.19    0.70
   4   1  13    1.60    0.41
   4   1  13    0.89    0.42
   4   1  13    1.46    0.44
   5  -2 -13    1.42    0.48
  -5   2  13    2.19    0.60
   4  -2 -13    2.79    0.69
  -4   2  13    1.32    0.81
   3  -2 -13   19.68    1.35
  -3   2  13   18.64    1.12
  -3   2  13   17.52    1.59
  -2   2  13   10.91    1.30
  -2   2  13   11.42    0.83
  -2   2  13   14.20    1.50
  -1   2  13   28.19    2.18
  -1   2  13   28.39    2.15
  -1   2  13   26.79    1.48
  -1   2  13   26.41    1.73
   0   2  13   -1.04    1.10
   0   2  13   -0.20    0.71
   0   2  13    0.20    0.59
   0   2  13    0.52    0.92
   1   2  13    1.22    1.17
   1   2  13    1.59    0.84
   1   2  13    1.01    0.64
   1   2  13    0.68    0.68
   2   2  13    1.65    0.58
   2   2  13    0.27    0.72
   2   2  13    0.80    0.63
   3   2  13   16.24    0.99
   3   2  13   15.03    1.10
   4   2  13    0.51    0.40
   4   2  13   -0.11    0.37
   4  -3 -13   -0.02    0.56
  -4   3  13    0.27    0.77
  -3   3  13   14.53    1.39
  -3   3  13   11.37    1.00
  -3   3  13   12.91    1.32
  -2   3  13   20.94    1.48
  -2   3  13   22.28    1.79
  -2   3  13   23.16    1.86
  -1   3  13   17.66    1.41
  -1   3  13   19.38    1.86
  -1   3  13   20.74    1.26
  -1   3  13   20.16    1.65
   0   3  13    5.60    0.88
   0   3  13    3.06    1.26
   0   3  13    6.88    0.69
   0   3  13    6.28    0.76
   1   3  13    4.52    0.67
   1   3  13    2.88    1.19
   1   3  13    1.65    0.63
   1   3  13    4.28    0.65
   2   3  13   12.08    0.84
   2   3  13   12.66    1.40
   2   3  13   11.75    0.87
   3   3  13    0.69    0.90
   3   3  13    0.60    0.51
   4   3  13    0.64    0.34
  -4   4  13    1.75    0.70
  -4   4  13    0.60    0.49
  -3   4  13   -0.60    0.59
  -3   4  13    1.12    0.87
  -2   4  13    1.24    0.67
  -2   4  13    0.24    0.58
  -2   4  13    1.28    1.07
  -1   4  13   19.07    1.85
  -1   4  13   19.32    1.24
   0   4  13    5.95    0.61
   0   4  13    4.51    1.25
   0   4  13    5.98    0.63
   1   4  13   23.26    1.97
   1   4  13   23.34    1.34
   2   4  13    2.28    0.52
   2   4  13    2.60    1.02
   3   4  13   -0.12    0.76
   3   4  13    0.50    0.40
  -3   5  13    1.22    0.73
  -3   5  13    1.31    0.35
  -2   5  13    1.68    0.93
  -1   5  13    1.19    0.97
   0   5  13   14.00    1.55
   1   5  13    5.86    1.06
   2   5  13    1.11    0.36
   2   5  13    1.79    0.84
  -1   6  13   -0.15    0.71
   0   6  13    3.79    0.79
   1   6  13    2.93    0.70
   2   5 -14    0.49    0.52
  -2  -5  14    1.24    0.46
   1   5 -14    2.13    0.62
  -1  -5  14    1.95    0.52
   0  -5  14    1.16    0.52
  -1   5 -14    0.40    0.43
   1  -5  14    0.61    0.50
  -2   5 -14    4.00    0.43
   3   4 -14    1.90    0.50
   3   4 -14    0.94    0.57
   2   4 -14    0.88    0.66
   1   4 -14   -0.21    0.58
  -1  -4  14    1.12    0.60
   0   4 -14    1.13    0.68
   0  -4  14    1.99    0.64
  -1   4 -14    0.23    0.67
   1  -4  14    0.25    0.61
  -2   4 -14    0.13    0.64
   2  -4  14    0.90    0.58
  -3   4 -14    2.52    0.51
   4   3 -14    0.92    0.54
   4   3 -14    2.08    0.43
  -4  -3  14    0.71    0.46
   3   3 -14    8.43    0.69
   3   3 -14    8.67    0.71
   3   3 -14    6.73    0.85
  -3  -3  14    8.86    0.67
   2   3 -14    4.34    0.84
   2   3 -14    5.29    0.78
   2   3 -14    5.05    0.74
   2   3 -14    4.72    0.68
  -2  -3  14    4.34    0.60
   1   3 -14    7.78    0.89
   1   3 -14    7.85    1.01
   0   3 -14    1.16    0.85
   0   3 -14    1.37    0.79
   0  -3  14    3.15    0.70
  -1   3 -14    0.34    0.79
  -1   3 -14   -0.02    0.94
   1  -3  14   -0.23    0.67
   2  -3  14    1.80    0.67
   3  -3  14    0.10    0.46
   4   2 -14    1.02    0.53
   4   2 -14    1.04    0.62
  -4  -2  14    1.06    0.53
   3   2 -14   15.67    1.29
   3   2 -14   14.03    1.19
   3   2 -14   14.01    1.30
   3   2 -14   14.66    1.00
  -3  -2  14   14.65    1.07
   2   2 -14    7.45    0.92
   2   2 -14    7.54    0.71
   2   2 -14    6.86    0.97
   2   2 -14    7.71    0.91
  -2  -2  14    6.66    0.72
   1   2 -14    1.00    0.80
   1   2 -14    1.13    0.82
  -1  -2  14    1.17    0.61
  -1  -2  14    0.76    0.64
   0   2 -14    2.18    0.94
   0  -2  14    2.06    0.70
   1  -2  14   -0.23    0.68
   2  -2  14    4.01    0.75
   3  -2  14    7.90    0.67
   4  -2  14    1.31    0.37
   5   1 -14    0.99    0.45
   5   1 -14    0.05    0.34
  -5  -1  14    0.75    0.39
   4   1 -14    2.43    0.70
   4   1 -14    2.23    0.64
  -4  -1  14    2.64    0.58
   3   1 -14   10.83    1.26
   3   1 -14   11.68    1.05
   3   1 -14   12.83    1.06
  -3  -1  14   13.74    1.11
   2   1 -14   12.44    1.40
  -2  -1  14   11.98    0.91
  -1  -1  14    8.21    0.75
  -1  -1  14    6.65    0.71
   0  -1  14    2.02    0.68
   0  -1  14    1.07    0.64
   1  -1  14   19.54    1.20
   1  -1  14   16.25    1.12
   2  -1  14    0.53    0.67
   3  -1  14    1.12    0.54
   4  -1  14    5.42    0.48
   4  -1  14    4.80    0.53
   5   0 -14    4.80    0.53
   5   0 -14    4.96    0.55
  -5   0  14    4.46    0.43
   4   0 -14    0.08    0.65
   4   0 -14   -0.11    0.68
  -4   0  14    0.27    0.54
   3   0 -14   17.02    1.53
   3   0 -14   18.66    1.44
  -3   0  14   17.59    1.19
  -2   0  14   59.51    2.75
  -1   0  14    2.12    0.64
   0   0  14    1.29    0.68
   1   0  14   14.19    1.07
   1   0  14   12.08    1.01
   2   0  14   30.02    1.51
   2   0  14   28.42    1.52
   3   0  14    0.55    0.52
   3   0  14    0.26    0.63
   4   0  14    0.08    0.39
   4   0  14    1.02    0.41
   5  -1 -14    0.36    0.43
   4  -1 -14    1.21    0.69
  -4   1  14    1.95    0.50
   3  -1 -14    9.66    0.97
  -3   1  14   10.26    0.78
  -2   1  14   10.42    0.81
  -1   1  14    8.64    0.78
   0   1  14    2.36    0.69
   0   1  14    1.69    1.05
   1   1  14   15.22    1.17
   1   1  14   16.75    1.64
   1   1  14   14.68    1.30
   2   1  14    1.21    0.53
   2   1  14    0.19    0.56
   2   1  14    1.20    0.91
   2   1  14    0.85    0.69
   3   1  14    0.79    0.53
   3   1  14    0.32    0.51
   3   1  14    0.89    0.48
   4   1  14    4.97    0.45
   4  -2 -14    1.63    0.60
  -4   2  14    0.40    0.72
  -3   2  14   13.70    0.94
  -3   2  14   13.44    1.36
  -2   2  14    5.67    1.12
  -2   2  14    6.54    1.09
  -2   2  14    7.66    0.69
  -1   2  14    0.87    0.81
  -1   2  14    1.20    0.61
  -1   2  14    0.94    0.92
  -1   2  14   -0.05    1.12
   0   2  14    2.42    0.64
   0   2  14    0.82    0.75
   0   2  14    0.91    0.90
   1   2  14    0.13    0.62
   1   2  14    0.00    0.68
   1   2  14   -0.01    0.80
   2   2  14    2.51    0.69
   2   2  14    3.65    0.64
   2   2  14    3.62    0.67
   3   2  14    6.37    0.54
   3   2  14    8.14    0.65
   4   2  14    0.71    0.33
  -4   3  14    0.35    0.68
  -3   3  14    8.32    1.09
  -2   3  14    5.26    0.60
  -2   3  14    4.00    0.77
  -2   3  14    4.44    1.09
  -2   3  14    4.95    0.88
  -1   3  14    8.13    0.85
  -1   3  14    8.21    0.72
  -1   3  14    6.23    1.27
  -1   3  14    7.85    0.99
   0   3  14    2.30    1.17
   0   3  14    1.98    0.70
   0   3  14    2.11    0.60
   0   3  14    3.08    0.74
   1   3  14   -0.26    1.12
   1   3  14   -0.43    0.56
   1   3  14   -0.24    0.56
   2   3  14    0.64    0.55
   2   3  14   -0.17    0.99
   3   3  14    0.15    0.44
  -3   4  14    1.40    0.82
  -3   4  14    2.19    0.56
  -2   4  14    0.02    0.58
  -2   4  14   -0.72    0.93
  -1   4  14    0.21    1.04
  -1   4  14    0.19    0.56
   0   4  14    1.93    1.10
   0   4  14    1.21    0.47
   0   4  14    1.78    0.50
   1   4  14   -0.12    0.47
   1   4  14   -0.64    1.02
   2   4  14    0.06    0.89
   2   4  14    0.12    0.43
   3   4  14    2.27    0.32
  -2   5  14    1.41    0.79
  -1   5  14    1.07    0.88
   0   5  14    0.96    0.91
   1   5  14    1.01    0.82
   2   5  14    3.17    0.72
  -2  -5  15    0.37    0.37
  -1  -5  15    1.70    0.43
   0  -5  15    3.80    0.50
   3   4 -15    6.89    0.66
   2   4 -15   -0.43    0.53
  -2  -4  15    0.59    0.49
   1   4 -15    1.69    0.53
  -1  -4  15    1.84    0.56
   0   4 -15    4.16    0.68
   0  -4  15    5.43    0.64
  -1   4 -15    0.45    0.62
   1  -4  15    1.49    0.57
  -2   4 -15    3.38    0.60
   2  -4  15    6.08    0.54
   4   3 -15    1.81    0.43
   3   3 -15    3.73    0.47
   3   3 -15    3.79    0.65
  -3  -3  15    3.31    0.48
   2   3 -15    0.21    0.61
   2   3 -15    0.66    0.69
   1   3 -15    1.36    0.68
   1   3 -15    2.33    0.80
  -1  -3  15    3.14    0.63
   0   3 -15   -0.04    0.79
   0   3 -15   -1.36    0.71
   0  -3  15    1.54    0.64
  -1   3 -15    5.08    0.88
   1  -3  15    3.70    0.69
   2  -3  15    0.47    0.57
   3  -3  15    1.16    0.38
   4   2 -15    6.92    0.57
  -4  -2  15    7.68    0.59
   3   2 -15    4.33    0.73
   3   2 -15    2.64    0.72
  -3  -2  15    2.65    0.58
   2   2 -15    0.78    0.71
   2   2 -15    1.28    0.75
  -2  -2  15    0.07    0.55
   1   2 -15    1.59    0.81
   1   2 -15    0.79    0.79
  -1  -2  15    1.02    0.62
  -1  -2  15    1.23    0.59
   0   2 -15    4.93    1.00
   0  -2  15    6.42    0.74
   1  -2  15    4.47    0.73
   2  -2  15    4.84    0.71
   3  -2  15    4.70    0.53
   4   1 -15    3.12    0.61
   4   1 -15    2.41    0.60
  -4  -1  15    2.15    0.49
   3   1 -15    2.89    0.80
   3   1 -15    2.98    0.73
   3   1 -15    3.29    0.79
  -3  -1  15    3.44    0.62
   2   1 -15    8.10    1.06
  -2  -1  15    9.54    0.78
  -1  -1  15    8.82    0.76
  -1  -1  15    6.61    0.70
   0  -1  15    0.62    0.64
   0  -1  15    0.64    0.63
   1  -1  15   14.80    1.07
   1  -1  15   14.24    1.01
   2  -1  15    4.75    0.70
   3  -1  15    2.23    0.50
   4   0 -15    1.99    0.61
   4   0 -15    1.65    0.61
  -4   0  15    1.79    0.48
   3   0 -15    9.97    1.19
  -3   0  15   13.02    0.96
  -2   0  15   -0.35    0.59
  -1   0  15    4.35    0.72
   0   0  15   -0.22    0.66
   1   0  15   -0.13    0.62
   1   0  15    0.67    0.63
   2   0  15    1.09    0.56
   2   0  15    1.13    0.57
   2   0  15    0.89    0.70
   2   0  15    1.01    0.94
   3   0  15   -0.62    0.45
   3   0  15    0.19    0.52
   4   0  15    1.19    0.31
   4  -1 -15    2.36    0.58
  -4   1  15    2.76    0.44
  -3   1  15    2.91    0.57
  -2   1  15   10.19    0.82
  -1   1  15    6.74    0.73
   0   1  15    0.94    1.01
   0   1  15   -0.21    0.64
   1   1  15   13.16    1.18
   1   1  15   15.30    1.61
   1   1  15   14.43    1.11
   2   1  15    2.30    0.85
   2   1  15    5.04    0.65
   2   1  15    3.99    0.68
   3   1  15    2.40    0.43
   3   1  15    2.30    0.47
   3   1  15    1.78    0.49
  -4   2  15    5.21    0.73
  -3   2  15    3.61    0.89
  -3   2  15    4.65    0.55
  -2   2  15    1.11    0.99
  -2   2  15    0.39    0.55
  -2   2  15    0.37    0.79
  -1   2  15    1.58    0.76
  -1   2  15    0.99    0.62
  -1   2  15    0.39    0.84
   0   2  15    6.47    1.03
   0   2  15    5.73    0.72
   0   2  15    6.23    0.82
   1   2  15    4.81    0.73
   1   2  15    2.29    0.80
   1   2  15    4.99    0.70
   2   2  15    4.26    0.61
   2   2  15    5.94    0.66
   3   2  15    3.59    0.50
  -3   3  15    2.67    0.63
  -3   3  15    3.31    0.85
  -2   3  15    1.29    0.49
  -2   3  15   -0.99    0.64
  -2   3  15   -0.80    0.94
  -1   3  15    1.90    0.54
  -1   3  15    2.92    1.08
  -1   3  15    1.00    0.65
  -1   3  15    1.23    0.72
   0   3  15    1.48    1.11
   0   3  15    0.85    0.64
   0   3  15    0.68    0.61
   0   3  15    0.86    0.54
   1   3  15    4.24    0.56
   1   3  15    4.41    1.09
   1   3  15    4.02    0.61
   2   3  15    0.78    0.47
   3   3  15    1.29    0.38
  -3   4  15    7.60    0.66
  -3   4  15    6.97    0.85
  -2   4  15   -0.57    0.83
  -2   4  15   -0.56    0.48
  -1   4  15    1.11    0.96
  -1   4  15    1.49    0.50
   0   4  15    3.09    1.03
   0   4  15    5.07    0.50
   1   4  15    0.59    0.44
   1   4  15   -0.03    0.89
   2   4  15    4.71    0.42
   2   4  15    4.47    0.82
  -2   5  15    0.75    0.64
  -1   5  15    1.30    0.74
   0   5  15    3.01    0.78
   1   5  15    1.98    0.69
  -2  -4  16    1.73    0.43
   1   4 -16    2.00    0.46
  -1  -4  16    3.08    0.50
   0   4 -16    1.33    0.51
   0  -4  16    0.68    0.49
  -1   4 -16    0.06    0.50
   1  -4  16    0.42    0.47
   3   3 -16    1.38    0.47
  -3  -3  16    0.79    0.40
  -3  -3  16    1.94    0.36
   2   3 -16    2.50    0.58
  -2  -3  16    1.95    0.48
   1   3 -16    1.71    0.64
  -1  -3  16    1.64    0.55
   0   3 -16   13.81    1.17
   0  -3  16   15.02    1.00
  -1   3 -16    1.91    0.69
   1  -3  16    1.86    0.59
   2  -3  16    0.95    0.48
  -4  -2  16    1.23    0.34
   3   2 -16    3.32    0.61
   3   2 -16    4.46    0.63
  -3  -2  16    3.58    0.50
   2   2 -16    0.17    0.68
  -2  -2  16    0.00    0.50
  -2  -2  16    0.62    0.51
   1   2 -16    7.65    0.92
   1   2 -16    7.93    0.95
  -1  -2  16    6.16    0.66
  -1  -2  16    6.69    0.64
   0   2 -16    6.65    0.99
   0  -2  16    7.42    0.73
   1  -2  16    1.71    0.64
   2  -2  16    1.97    0.56
   3  -2  16    4.03    0.43
   4   1 -16    0.16    0.45
   4   1 -16    0.00    0.44
  -4  -1  16    0.44    0.37
   3   1 -16    1.24    0.65
  -3  -1  16    1.06    0.50
   2   1 -16    3.00    0.81
  -2  -1  16    2.02    0.58
  -1  -1  16   -0.32    0.59
   0  -1  16    5.18    0.66
   0  -1  16    4.88    0.65
   1  -1  16   12.67    0.99
   2  -1  16    0.89    0.54
   3  -1  16    0.03    0.39
   3  -1  16   -0.41    0.46
   4   0 -16    0.58    0.45
   4   0 -16    0.58    0.52
  -4   0  16    0.31    0.38
  -3   0  16    2.32    0.53
  -2   0  16    0.05    0.56
  -1   0  16    5.95    0.74
   0   0  16   30.55    1.62
   1   0  16    3.83    0.57
   1   0  16    3.73    0.63
   2   0  16    0.39    0.63
   2   0  16    1.13    0.51
   2   0  16    0.08    0.47
   3   0  16    0.95    0.44
   3   0  16    1.03    0.39
  -4   1  16    0.52    0.34
  -3   1  16    0.67    0.48
  -2   1  16    1.42    0.56
  -1   1  16   -0.88    0.59
   0   1  16    4.63    1.04
   0   1  16    5.20    0.73
   1   1  16   10.20    0.90
   1   1  16   12.97    0.99
   1   1  16    8.35    1.18
   2   1  16    1.03    0.52
   2   1  16    0.59    0.59
   3   1  16    0.88    0.38
   3   1  16    0.26    0.37
  -3   2  16    4.27    0.49
  -2   2  16    0.72    0.52
  -1   2  16    7.47    1.05
  -1   2  16    8.04    0.73
  -1   2  16    6.60    0.81
   0   2  16    6.62    0.97
   0   2  16    7.32    0.82
   0   2  16    7.62    0.72
   1   2  16    1.98    0.63
   1   2  16    1.04    0.54
   2   2  16    2.76    0.55
   2   2  16    1.62    0.48
   3   2  16    3.07    0.39
  -3   3  16    0.94    0.49
  -3   3  16    1.40    0.68
  -2   3  16    2.52    0.44
  -2   3  16    2.53    0.59
  -2   3  16    2.74    0.86
  -1   3  16    1.35    0.60
  -1   3  16    0.50    0.94
  -1   3  16    1.71    0.48
   0   3  16   13.69    0.95
   0   3  16   12.53    1.46
   0   3  16   15.27    1.01
   1   3  16    1.57    0.49
   1   3  16    1.27    0.42
   2   3  16    0.61    0.41
  -2   4  16    1.49    0.38
  -2   4  16    1.32    0.68
  -1   4  16    2.44    0.84
  -1   4  16    3.41    0.40
   0   4  16    1.07    0.38
   0   4  16    0.65    0.80
   1   4  16    0.43    0.73
   1   4  16    0.10    0.35
  -1  -4  17    1.49    0.38
   0   4 -17    1.97    0.38
   0  -4  17    3.22    0.43
   2   3 -17    0.31    0.40
  -2  -3  17    0.75    0.40
   1   3 -17    2.52    0.55
  -1  -3  17    2.34    0.48
   0   3 -17    0.72    0.57
   0  -3  17    2.25    0.51
  -1   3 -17    0.34    0.57
   1  -3  17    0.14    0.48
   3   2 -17    5.52    0.55
  -3  -2  17    5.37    0.47
   2   2 -17    0.22    0.57
  -2  -2  17    0.87    0.45
   1   2 -17    2.06    0.68
  -1  -2  17    2.25    0.52
   0  -2  17    1.23    0.55
   1  -2  17    0.75    0.53
   2  -2  17    0.52    0.41
   3   1 -17    3.27    0.63
  -3  -1  17    4.82    0.49
   2   1 -17    1.92    0.70
  -2  -1  17    0.50    0.49
  -1  -1  17   10.11    0.85
   0  -1  17    1.74    0.56
   0  -1  17    1.27    0.55
   1  -1  17    2.06    0.52
   2  -1  17    5.84    0.50
  -3   0  17    1.48    0.44
  -2   0  17    1.52    0.52
  -1   0  17    0.63    0.58
   0   0  17    6.11    0.68
   1   0  17    1.26    0.53
   2   0  17   -0.01    0.38
   2   0  17    0.77    0.56
  -3   1  17    4.84    0.51
  -2   1  17    1.05    0.50
  -1   1  17    9.78    0.78
   0   1  17    0.82    0.69
   0   1  17    0.57    0.56
   1   1  17    2.10    0.53
   1   1  17    1.11    0.63
   2   1  17    6.10    0.54
   2   1  17    4.78    0.56
  -3   2  17    7.90    0.62
  -2   2  17    0.24    0.58
  -2   2  17    1.13    0.46
  -1   2  17    2.64    0.65
  -1   2  17    2.05    0.52
   0   2  17    1.98    0.63
   0   2  17    1.77    0.52
   1   2  17    0.12    0.50
   1   2  17    0.43    0.47
   2   2  17    0.96    0.29
   2   2  17    1.05    0.40
  -2   3  17    0.51    0.46
  -1   3  17    2.68    0.43
  -1   3  17    2.99    0.54
   0   3  17    1.87    0.46
   0   3  17    1.70    0.42
   1   3  17    0.76    0.40
   1   3 -18    1.43    0.41
   0   3 -18    0.77    0.46
   0  -3  18    0.95    0.39
   2   2 -18   -0.11    0.45
  -2  -2  18    0.76    0.36
   1   2 -18    0.94    0.55
  -1  -2  18    1.40    0.42
   0  -2  18    1.33    0.46
   1  -2  18    1.23    0.40
   3   1 -18    1.44    0.44
  -3  -1  18    1.54    0.35
   2   1 -18    1.76    0.58
  -2  -1  18    1.39    0.43
  -1  -1  18    2.71    0.49
   0  -1  18    1.14    0.44
   1  -1  18    4.40    0.43
  -3   0  18   -0.06    0.34
  -2   0  18   -0.56    0.42
  -1   0  18    4.06    0.57
   0   0  18    6.55    0.60
   1   0  18   11.41    0.80
   2   0  18    2.20    0.42
  -2   1  18    1.80    0.46
  -1   1  18    2.15    0.51
   0   1  18    0.11    0.59
   0   1  18    0.09    0.48
   1   1  18    5.17    0.51
   1   1  18    4.18    0.56
   2   1  18    3.20    0.36
  -2   2  18    0.43    0.35
  -2   2  18   -0.22    0.45
  -1   2  18    1.75    0.54
  -1   2  18    1.47    0.43
   0   2  18    0.91    0.42
   0   2  18    0.91    0.50
   1   2  18    0.80    0.37
   1   2  18    0.85    0.40
  -1   3  18    1.47    0.35
   0   3  18    0.29    0.33
  -2   0  19    0.23    0.34
  -1   0  19    7.95    0.63
   0   0  19   -0.11    0.36
  -1   1  19    3.54    0.43
   0   1  19    3.43    0.40
   0   1  19    2.15    0.48
   0   0   0    0.00    0.00
;
_shelx_hkl_checksum              74369
loop_
_space_group_symop_operation_xyz
'x, y, z'
'-x, y+1/2, -z'
loop_
_atom_site_label
_atom_site_type_symbol
_atom_site_fract_x
_atom_site_fract_y
_atom_site_fract_z
_atom_site_U_iso_or_equiv
_atom_site_adp_type
_atom_site_occupancy
_atom_site_site_symmetry_order
_atom_site_calc_flag
_atom_site_refinement_flags_posn
_atom_site_refinement_flags_adp
N1 N 0.7458(5) 0.8288(5) 0.70580(19) 0.0388(9) Uani 1 1 d . .
O1 O 0.8104(5) 0.9019(4) 1.09836(16) 0.0364(7) Uani 1 1 d . .
O2 O 0.4051(5) 0.9612(4) 0.72567(17) 0.0429(8) Uani 1 1 d . .
O3 O 0.8206(6) 0.5326(6) 0.6549(2) 0.0604(10) Uani 1 1 d . .
C1 C 0.8425(6) 0.7797(6) 0.8801(2) 0.0297(8) Uani 1 1 d . .
H1 H 0.9440 0.7226 0.8446 0.036 Uiso 1 1 calc R U
C2 C 0.9100(6) 0.7957(6) 0.9636(2) 0.0312(9) Uani 1 1 d . .
H2 H 1.0558 0.7492 0.9848 0.037 Uiso 1 1 calc R U
C3 C 0.7639(6) 0.8798(6) 1.0158(2) 0.0300(8) Uani 1 1 d . .
C4 C 1.0160(7) 0.8170(7) 1.1351(2) 0.0403(10) Uani 1 1 d . .
H4A H 1.0101 0.6812 1.1255 0.060 Uiso 1 1 calc R U
H4B H 1.0288 0.8417 1.1946 0.060 Uiso 1 1 calc R U
H4C H 1.1501 0.8699 1.1105 0.060 Uiso 1 1 calc R U
C5 C 0.5533(7) 0.9506(6) 0.9832(2) 0.0339(9) Uani 1 1 d . .
H5 H 0.4543 1.0124 1.0182 0.041 Uiso 1 1 calc R U
C6 C 0.4874(6) 0.9316(6) 0.9006(2) 0.0346(9) Uani 1 1 d . .
H6 H 0.3418 0.9785 0.8794 0.041 Uiso 1 1 calc R U
C7 C 0.6310(6) 0.8449(5) 0.8477(2) 0.0310(9) Uani 1 1 d . .
C8 C 0.5515(6) 0.8127(6) 0.7568(2) 0.0336(9) Uani 1 1 d . .
C9 C 0.4182(8) 0.6313(7) 0.7457(3) 0.0414(10) Uani 1 1 d . .
H9A H 0.2774 0.6393 0.7748 0.062 Uiso 1 1 calc R U
H9B H 0.5135 0.5270 0.7681 0.062 Uiso 1 1 calc R U
H9C H 0.3772 0.6100 0.6869 0.062 Uiso 1 1 calc R U
C10 C 0.5562(10) 1.1145(7) 0.7097(3) 0.0559(13) Uani 1 1 d . .
H10A H 0.5898 1.1913 0.7599 0.067 Uiso 1 1 calc R U
H10B H 0.4855 1.1961 0.6653 0.067 Uiso 1 1 calc R U
C11 C 0.7758(8) 1.0234(7) 0.6832(3) 0.0508(13) Uani 1 1 d . .
H11 H 0.9133 1.0773 0.7158 0.061 Uiso 1 1 calc R U
C12 C 0.8221(11) 1.0115(9) 0.5916(3) 0.0682(18) Uani 1 1 d . .
H12 H 0.9304 1.1135 0.5775 0.082 Uiso 1 1 calc R U
C13 C 0.6019(12) 1.0186(10) 0.5336(3) 0.0766(18) Uani 1 1 d . .
H13A H 0.6401 0.9940 0.4770 0.115 Uiso 1 1 calc R U
H13B H 0.5314 1.1431 0.5365 0.115 Uiso 1 1 calc R U
H13C H 0.4934 0.9231 0.5501 0.115 Uiso 1 1 calc R U
C14 C 0.9402(8) 0.8213(10) 0.5886(3) 0.0674(18) Uani 1 1 d . .
H14A H 0.9154 0.7654 0.5329 0.081 Uiso 1 1 calc R U
H14B H 1.1081 0.8333 0.6031 0.081 Uiso 1 1 calc R U
C15 C 0.8285(7) 0.7028(9) 0.6514(3) 0.0471(12) Uani 1 1 d . .
loop_
_atom_site_aniso_label
_atom_site_aniso_U_11
_atom_site_aniso_U_22
_atom_site_aniso_U_33
_atom_site_aniso_U_23
_atom_site_aniso_U_13
_atom_site_aniso_U_12
N1 0.0361(17) 0.045(3) 0.0357(17) -0.0003(16) 0.0031(13) -0.0023(17)
O1 0.0374(14) 0.0334(18) 0.0382(15) -0.0005(12) 0.0019(11) 0.0037(12)
O2 0.0420(15) 0.0371(19) 0.0479(16) 0.0011(13) -0.0072(12) 0.0072(13)
O3 0.060(2) 0.066(3) 0.054(2) -0.0132(19) 0.0012(14) 0.023(2)
C1 0.0268(18) 0.023(2) 0.040(2) 0.0007(16) 0.0079(14) 0.0042(16)
C2 0.0264(17) 0.024(2) 0.043(2) 0.0023(18) 0.0032(14) 0.0023(17)
C3 0.0310(17) 0.022(2) 0.0369(19) 0.0029(16) 0.0017(14) -0.0020(15)
C4 0.046(2) 0.035(3) 0.039(2) 0.0017(19) -0.0040(17) 0.002(2)
C5 0.0319(19) 0.028(2) 0.042(2) -0.0029(18) 0.0103(15) 0.0041(17)
C6 0.0283(18) 0.034(3) 0.042(2) 0.0012(18) 0.0010(15) 0.0007(17)
C7 0.0313(18) 0.025(2) 0.037(2) 0.0014(17) 0.0039(15) 0.0004(17)
C8 0.0293(17) 0.029(2) 0.043(2) 0.0030(17) 0.0019(14) 0.0011(17)
C9 0.044(2) 0.039(3) 0.041(2) -0.0041(19) 0.0008(16) -0.004(2)
C10 0.084(4) 0.030(3) 0.051(3) 0.003(2) -0.011(2) -0.006(3)
C11 0.061(3) 0.049(3) 0.041(2) 0.002(2) -0.0041(19) -0.028(3)
C12 0.089(4) 0.076(5) 0.039(2) 0.006(2) -0.001(2) -0.046(4)
C13 0.119(5) 0.065(4) 0.042(3) 0.005(3) -0.015(3) -0.001(4)
C14 0.046(2) 0.122(6) 0.035(2) -0.004(3) 0.0053(18) -0.010(3)
C15 0.031(2) 0.071(4) 0.038(2) -0.006(2) -0.0024(16) 0.004(2)
loop_
_atom_type_symbol
_atom_type_description
_atom_type_scat_dispersion_real
_atom_type_scat_dispersion_imag
_atom_type_scat_source
C C 0.0181 0.0091 'International Tables Vol C Tables 4.2.6.8 and 6.1.1.4'
H H 0.0000 0.0000 'International Tables Vol C Tables 4.2.6.8 and 6.1.1.4'
N N 0.0311 0.0180 'International Tables Vol C Tables 4.2.6.8 and 6.1.1.4'
O O 0.0492 0.0322 'International Tables Vol C Tables 4.2.6.8 and 6.1.1.4'
loop_
_geom_angle_atom_site_label_1
_geom_angle_atom_site_label_2
_geom_angle_atom_site_label_3
_geom_angle
C15 N1 C11 114.0(4)
C15 N1 C8 129.9(4)
C11 N1 C8 109.5(4)
C3 O1 C4 117.4(3)
C8 O2 C10 105.8(3)
C7 C1 C2 121.4(3)
C3 C2 C1 119.7(3)
O1 C3 C2 125.0(3)
O1 C3 C5 115.8(3)
C2 C3 C5 119.2(3)
C6 C5 C3 120.4(3)
C5 C6 C7 120.9(4)
C1 C7 C6 118.3(3)
C1 C7 C8 120.7(3)
C6 C7 C8 120.9(3)
O2 C8 N1 101.9(3)
O2 C8 C9 107.8(3)
N1 C8 C9 114.4(3)
O2 C8 C7 111.0(3)
N1 C8 C7 110.5(3)
C9 C8 C7 110.9(3)
O2 C10 C11 105.4(4)
N1 C11 C10 102.4(4)
N1 C11 C12 103.1(4)
C10 C11 C12 120.8(4)
C14 C12 C13 111.5(5)
C14 C12 C11 101.3(4)
C13 C12 C11 113.2(5)
C15 C14 C12 104.8(4)
O3 C15 N1 127.2(4)
O3 C15 C14 127.5(5)
N1 C15 C14 105.2(5)
loop_
_geom_bond_atom_site_label_1
_geom_bond_atom_site_label_2
_geom_bond_distance
N1 C15 1.374(6)
N1 C11 1.448(6)
N1 C8 1.459(5)
O1 C3 1.359(4)
O1 C4 1.429(5)
O2 C8 1.426(5)
O2 C10 1.438(6)
O3 C15 1.214(6)
C1 C7 1.380(5)
C1 C2 1.389(5)
C2 C3 1.383(5)
C3 C5 1.391(5)
C5 C6 1.374(6)
C6 C7 1.390(5)
C7 C8 1.532(5)
C8 C9 1.510(6)
C10 C11 1.525(7)
C11 C12 1.538(6)
C12 C14 1.521(9)
C12 C13 1.531(8)
C14 C15 1.511(7)
