#------------------------------------------------------------------------------
#$Date: 2019-11-24 17:37:05 +0200 (Sun, 24 Nov 2019) $
#$Revision: 238867 $
#$URL: file:///home/coder/svn-repositories/cod/cif/1/55/55/1555536.cif $
#------------------------------------------------------------------------------
#
# This file is available in the Crystallography Open Database (COD),
# http://www.crystallography.net/
#
# All data on this site have been placed in the public domain by the
# contributors.
#
data_1555536
loop_
_publ_author_name
'Pagire, Santosh K.'
'Paria, Suva'
'Reiser, Oliver'
_publ_section_title
;
 Synthesis of \b-Hydroxysulfones from Sulfonyl Chlorides and Alkenes
 Utilizing Visible Light Photocatalytic Sequences.
;
_journal_issue                   9
_journal_name_full               'Organic letters'
_journal_page_first              2106
_journal_page_last               2109
_journal_paper_doi               10.1021/acs.orglett.6b00734
_journal_volume                  18
_journal_year                    2016
_chemical_absolute_configuration ad
_chemical_formula_moiety         'C15 H15 Br O3 S'
_chemical_formula_sum            'C15 H15 Br O3 S'
_chemical_formula_weight         355.24
_space_group_crystal_system      monoclinic
_space_group_IT_number           4
_space_group_name_Hall           'P 2yb'
_space_group_name_H-M_alt        'P 1 21 1'
_atom_sites_solution_hydrogens   geom
_audit_creation_date             2015-10-28
_audit_creation_method
;
Olex2 1.2-alpha
(compiled 2015.09.30 svn.r3233 for OlexSys, GUI svn.r5103)
;
_cell_angle_alpha                90
_cell_angle_beta                 103.755(2)
_cell_angle_gamma                90
_cell_formula_units_Z            2
_cell_length_a                   5.92604(15)
_cell_length_b                   12.2676(3)
_cell_length_c                   9.9444(2)
_cell_measurement_reflns_used    4600
_cell_measurement_temperature    123.0(2)
_cell_measurement_theta_max      72.5910
_cell_measurement_theta_min      3.6220
_cell_volume                     702.21(3)
_computing_cell_refinement       'CrysAlisPro 1.171.38.37b (Rigaku OD, 2015)'
_computing_data_collection       'CrysAlisPro 1.171.38.37b (Rigaku OD, 2015)'
_computing_data_reduction        'CrysAlisPro 1.171.38.37b (Rigaku OD, 2015)'
_computing_molecular_graphics    'Olex2 (Dolomanov et al., 2009)'
_computing_publication_material  'Olex2 (Dolomanov et al., 2009)'
_computing_structure_refinement  'ShelXL (Sheldrick, 2015)'
_computing_structure_solution
;
Superflip (Palatinus & Chapuis, 2007;Palatinus & van der Lee, 2008;
Palatinus et al., 2012)
;
_diffrn_ambient_environment      N~2~
_diffrn_ambient_temperature      123.0(2)
_diffrn_detector                 'CCD plate'
_diffrn_detector_area_resol_mean 4.1818
_diffrn_detector_type            TitanS2
_diffrn_measured_fraction_theta_full 1.000
_diffrn_measured_fraction_theta_max 0.989
_diffrn_measurement_details
;
List of Runs (angles in degrees, time in seconds):

  # Type    Start    End  Width  t~exp~   \w     \q     \k     \f   Frames
--------------------------------------------------------------------------
  1  \w   -123.00 -90.00   1.00    1.00    --  -42.89 -99.00 -30.00   33
  2  \w    -61.00  27.00   1.00    1.00    --  -42.89  57.00 -90.00   88
  3  \w   -112.00 -80.00   1.00    1.00    --  -42.89 -99.00   0.00   32
  4  \w     79.00 166.00   1.00    1.00    --  104.50  30.00   0.00   87
  5  \w     31.00  91.00   1.00    1.00    --  104.50 -30.00  30.00   60
  6  \w     32.00  81.00   1.00    1.00    --  104.50 -30.00  90.00   49
  7  \w     42.00  90.00   1.00    1.00    --  104.50 -30.00-150.00   48
  8  \w     47.00  82.00   1.00    1.00    --  104.50 -30.00 -30.00   35
  9  \w     49.00 114.00   1.00    1.00    --  104.50 -61.00 -90.00   65
 10  \w     11.00 117.00   1.00    1.00    --   42.89  77.00 150.00  106
 11  \w     17.00 113.00   1.00    1.00    --   42.89  57.00 -60.00   96
 12  \w     31.00 121.00   1.00    1.00    --  104.50-125.00 -90.00   90
 13  \w     78.00 178.00   1.00    1.00    --  104.50  30.00  60.00  100
 14  \w     73.00 178.00   1.00    1.00    --  104.50  77.00 -90.00  105
 15  \w     65.00 178.00   1.00    1.00    --  104.50  15.00-180.00  113
 16  \w     34.00 130.00   1.00    1.00    --   42.89-178.00-180.00   96
 17  \w     11.00 117.00   1.00    1.00    --   42.89  77.00  30.00  106
 18  \w     73.00 128.00   1.00    1.00    --  104.50  77.00-150.00   55
;
_diffrn_measurement_device       'four-circle diffractometer'
_diffrn_measurement_device_type  'GV1000, TitanS2'
_diffrn_measurement_method       '\w scans'
_diffrn_orient_matrix_type
'CrysAlisPro convention (1999,Acta A55,543-557)'
_diffrn_orient_matrix_UB_11      0.0022009000
_diffrn_orient_matrix_UB_12      -0.0392986000
_diffrn_orient_matrix_UB_13      0.1473981000
_diffrn_orient_matrix_UB_21      -0.2159427000
_diffrn_orient_matrix_UB_22      0.0701932000
_diffrn_orient_matrix_UB_23      -0.0009077000
_diffrn_orient_matrix_UB_31      -0.1580660000
_diffrn_orient_matrix_UB_32      -0.0964158000
_diffrn_orient_matrix_UB_33      -0.0610168000
_diffrn_radiation_monochromator  mirror
_diffrn_radiation_probe          x-ray
_diffrn_radiation_type           CuK\a
_diffrn_radiation_wavelength     1.54184
_diffrn_reflns_av_R_equivalents  0.0348
_diffrn_reflns_av_unetI/netI     0.0344
_diffrn_reflns_Laue_measured_fraction_full 1.000
_diffrn_reflns_Laue_measured_fraction_max 0.989
_diffrn_reflns_limit_h_max       6
_diffrn_reflns_limit_h_min       -7
_diffrn_reflns_limit_k_max       14
_diffrn_reflns_limit_k_min       -15
_diffrn_reflns_limit_l_max       12
_diffrn_reflns_limit_l_min       -12
_diffrn_reflns_number            5956
_diffrn_reflns_point_group_measured_fraction_full 0.960
_diffrn_reflns_point_group_measured_fraction_max 0.932
_diffrn_reflns_theta_full        67.500
_diffrn_reflns_theta_max         73.353
_diffrn_reflns_theta_min         4.578
_diffrn_source                   'gradient vaccum rotating-anode X-ray tube'
_diffrn_source_type              'GV1000 (Cu) X-ray Source'
_exptl_absorpt_coefficient_mu    5.423
_exptl_absorpt_correction_T_max  0.807
_exptl_absorpt_correction_T_min  0.638
_exptl_absorpt_correction_type   analytical
_exptl_absorpt_process_details
;
CrysAlisPro 1.171.38.37b (Rigaku Oxford Diffraction, 2015)
Analytical numeric absorption correction using a multifaceted crystal
			model based on expressions derived by R.C. Clark & J.S. Reid.
(Clark, R. C. & Reid, J. S. (1995). Acta Cryst. A51, 887-897)
Empirical absorption correction using spherical harmonics,
 implemented in SCALE3 ABSPACK scaling algorithm.
;
_exptl_crystal_colour            'clear colourless'
_exptl_crystal_colour_lustre     clear
_exptl_crystal_colour_primary    colourless
_exptl_crystal_density_diffrn    1.680
_exptl_crystal_description       prism
_exptl_crystal_F_000             360
_exptl_crystal_size_max          0.213
_exptl_crystal_size_mid          0.184
_exptl_crystal_size_min          0.102
_refine_diff_density_max         1.071
_refine_diff_density_min         -0.978
_refine_diff_density_rms         0.094
_refine_ls_abs_structure_details
;
 Flack x determined using 1138 quotients [(I+)-(I-)]/[(I+)+(I-)]
 (Parsons, Flack and Wagner, Acta Cryst. B69 (2013) 249-259).
;
_refine_ls_abs_structure_Flack   0.06(4)
_refine_ls_extinction_method     none
_refine_ls_goodness_of_fit_ref   1.032
_refine_ls_hydrogen_treatment    constr
_refine_ls_matrix_type           full
_refine_ls_number_parameters     183
_refine_ls_number_reflns         2628
_refine_ls_number_restraints     1
_refine_ls_restrained_S_all      1.031
_refine_ls_R_factor_all          0.0421
_refine_ls_R_factor_gt           0.0419
_refine_ls_shift/su_max          0.000
_refine_ls_shift/su_mean         0.000
_refine_ls_structure_factor_coef Fsqd
_refine_ls_weighting_details
'w=1/[\s^2^(Fo^2^)+(0.0720P)^2^+1.0276P] where P=(Fo^2^+2Fc^2^)/3'
_refine_ls_weighting_scheme      calc
_refine_ls_wR_factor_gt          0.1079
_refine_ls_wR_factor_ref         0.1082
_reflns_Friedel_coverage         0.798
_reflns_Friedel_fraction_full    0.915
_reflns_Friedel_fraction_max     0.870
_reflns_number_gt                2616
_reflns_number_total             2628
_reflns_threshold_expression     'I > 2\s(I)'
_cod_data_source_file            ol6b00734_si_002.cif
_cod_data_source_block           o086
_cod_database_code               1555536
_chemical_oxdiff_formula         'C16 H19 S O2 Br'
_chemical_oxdiff_usercomment     'Reiser, Pagire'
_shelx_space_group_comment
;
The symmetry employed for this shelxl refinement is uniquely defined
by the following loop, which should always be used as a source of
symmetry information in preference to the above space-group names.
They are only intended as comments.
;
_reflns_odcompleteness_completeness 100.00
_reflns_odcompleteness_iscentric 1
_reflns_odcompleteness_theta     66.97
_olex2_refinement_description
;
1. Fixed Uiso
 At 1.2 times of:
  All C(H) groups, All C(H,H) groups
 At 1.5 times of:
  All C(H,H,H) groups, All O(H) groups
2.a Secondary CH2 refined with riding coordinates:
 C7(H7A,H7B)
2.b Aromatic/amide H refined with riding coordinates:
 C3(H3), C2(H2), C15(H15), C11(H11), C13(H13), C14(H14), C4(H4), C5(H5),
 C12(H12)
2.c Idealised Me refined as rotating group:
 C9(H9A,H9B,H9C)
2.d Idealised tetrahedral OH refined as rotating group:
 O3(H3A)
;
_shelx_res_file
;
    o086.res created by SHELXL-2014/7

TITL O086 in P21
CELL 1.54184 5.926042 12.267631 9.944368 90 103.7554 90
ZERR 2 0.000148 0.00027 0.00023 0 0.0023 0
LATT -1
SYMM -X,0.5+Y,-Z
SFAC C H Br O S
UNIT 30 30 2 6 2

L.S. 4 0 0
PLAN  20
MORE -1
BOND $H
CONF
fmap 2 53
acta 135
REM <olex2.extras>
REM <HklSrc "%.\\O086.hkl">
REM </olex2.extras>

WGHT    0.072000    1.027600
FVAR       0.86572
BR1   3    1.014283    0.153970    0.140823    11.00000    0.02533    0.02479 =
         0.02791   -0.00443    0.00477    0.00440
S1    5    0.624004    0.232149    0.325457    11.00000    0.02491    0.02412 =
         0.02391    0.00173    0.00766   -0.00074
O1    4    0.614840    0.116485    0.307880    11.00000    0.04373    0.02364 =
         0.03932    0.00034    0.01290   -0.00466
O2    4    0.435428    0.284444    0.372128    11.00000    0.02525    0.04282 =
         0.03514   -0.00114    0.01559    0.00120
C1    1    0.785242    0.263109    0.084488    11.00000    0.01934    0.02127 =
         0.02574   -0.00111    0.00300   -0.00080
C3    1    0.615185    0.395147   -0.088385    11.00000    0.04287    0.02939 =
         0.02095    0.00124    0.00080   -0.00326
AFIX  43
H3    2    0.611593    0.430086   -0.171864    11.00000   -1.20000
AFIX   0
C2    1    0.777658    0.314431   -0.040757    11.00000    0.03181    0.02747 =
         0.01783   -0.00268    0.00522   -0.00298
AFIX  43
H2    2    0.882137    0.294532   -0.092931    11.00000   -1.20000
AFIX   0
C10   1    0.836772    0.470660    0.412613    11.00000    0.03039    0.02173 =
         0.01975   -0.00594    0.00480    0.00270
C15   1    0.654332    0.541148    0.404589    11.00000    0.03023    0.02326 =
         0.02217   -0.00085    0.00596    0.00059
AFIX  43
H15   2    0.562351    0.535032    0.468070    11.00000   -1.20000
AFIX   0
C7    1    0.887686    0.266711    0.446657    11.00000    0.03097    0.02071 =
         0.02006   -0.00139   -0.00138    0.00511
AFIX  23
H7A   2    0.920649    0.210646    0.517410    11.00000   -1.20000
H7B   2    1.012688    0.265633    0.398966    11.00000   -1.20000
AFIX   0
C11   1    0.981526    0.484661    0.318336    11.00000    0.02470    0.03041 =
         0.02377   -0.00287    0.00650    0.00441
AFIX  43
H11   2    1.110446    0.440046    0.324428    11.00000   -1.20000
AFIX   0
C8    1    0.890109    0.377451    0.518047    11.00000    0.04243    0.02578 =
         0.02065   -0.00475    0.00020    0.01158
C13   1    0.741827    0.632160    0.208530    11.00000    0.03221    0.02584 =
         0.02763    0.00484    0.00254    0.00000
AFIX  43
H13   2    0.706554    0.684653    0.139222    11.00000   -1.20000
AFIX   0
C6    1    0.630247    0.293008    0.165107    11.00000    0.02072    0.01828 =
         0.02338   -0.00267   -0.00040   -0.00127
C14   1    0.604377    0.621557    0.303326    11.00000    0.02801    0.02400 =
         0.03127    0.00146    0.00497    0.00609
AFIX  43
H14   2    0.479155    0.668213    0.298983    11.00000   -1.20000
AFIX   0
C4    1    0.457620    0.423782   -0.011159    11.00000    0.03193    0.02609 =
         0.02547    0.00052   -0.00678    0.00567
AFIX  43
H4    2    0.346207    0.476926   -0.043952    11.00000   -1.20000
AFIX   0
C5    1    0.465729    0.373624    0.114213    11.00000    0.02653    0.02908 =
         0.02489   -0.00437   -0.00177    0.00310
AFIX  43
H5    2    0.360113    0.393821    0.165489    11.00000   -1.20000
AFIX   0
C12   1    0.930337    0.564578    0.217791    11.00000    0.03514    0.03158 =
         0.02671    0.00199    0.01105   -0.00268
AFIX  43
H12   2    1.024262    0.572805    0.155686    11.00000   -1.20000
AFIX   0
O3    4    0.720463    0.374979    0.604773    11.00000    0.06757    0.03992 =
         0.03212    0.00250    0.02712    0.00594
AFIX 147
H3A   2    0.600138    0.346053    0.561736    11.00000   -1.50000
AFIX   0
C9    1    1.123808    0.392032    0.613054    11.00000    0.06304    0.02082 =
         0.05474   -0.00408   -0.03695    0.00037
AFIX 137
H9A   2    1.238408    0.399073    0.559695    11.00000   -1.50000
H9B   2    1.159656    0.329867    0.672975    11.00000   -1.50000
H9C   2    1.123921    0.456552    0.667700    11.00000   -1.50000
AFIX   0
HKLF 4

REM  O086 in P21
REM R1 =  0.0419 for    2616 Fo > 4sig(Fo)  and  0.0421 for all    2628 data
REM    183 parameters refined using      1 restraints

END

WGHT      0.0720      1.0276

REM Highest difference peak  1.071,  deepest hole -0.978,  1-sigma level  0.094
Q1    1   0.7875  0.4055  0.4426  11.00000  0.05    0.65
Q2    1   0.8641  0.4016  0.6471  11.00000  0.05    0.56
Q3    1   1.1213  0.1574  0.2343  11.00000  0.05    0.48
Q4    1   1.1310  0.3798  0.6437  11.00000  0.05    0.43
Q5    1   0.9155  0.1526  0.0424  11.00000  0.05    0.42
Q6    1   1.1307  0.4112  0.3571  11.00000  0.05    0.42
Q7    1   1.1800  0.1018  0.1966  11.00000  0.05    0.34
Q8    1   0.9851  0.1156  0.3642  11.00000  0.05    0.33
Q9    1   0.9876  0.1812  0.3646  11.00000  0.05    0.32
Q10   1   0.2346  0.4086 -0.1588  11.00000  0.05    0.32
Q11   1   1.2678  0.1548  0.1325  11.00000  0.05    0.31
Q12   1   0.9995  0.4057  0.5057  11.00000  0.05    0.31
Q13   1   0.8458  0.1412  0.3193  11.00000  0.05    0.28
Q14   1   0.8614  0.4346  0.3579  11.00000  0.05    0.27
Q15   1   0.5225  0.2417  0.2207  11.00000  0.05    0.26
Q16   1   0.8110  0.4384  0.2490  11.00000  0.05    0.26
Q17   1   0.2632  0.6630  0.2596  11.00000  0.05    0.24
Q18   1   0.9321  0.1492  0.4413  11.00000  0.05    0.24
Q19   1   1.1268  0.1582  0.3738  11.00000  0.05    0.23
Q20   1   0.3033  0.1556  0.3009  11.00000  0.05    0.23
;
_shelx_res_checksum              6698
_shelx_hkl_file
;
   0 -15   0   -1.09    1.00
   0 -15   1  287.19   11.08
   0 -15   2   58.37    4.75
   0 -14   0  175.17   10.89
   0 -14   1  121.56    9.13
   0 -14  -1  124.37    8.58
   0 -14   2   47.28    5.59
   0 -14   3  176.19   10.20
   0 -14   4  164.53    8.77
   0 -13   0    1.07    0.65
   0 -13   1  306.36   16.95
   0 -13   1  281.86   13.55
   0 -13  -1  263.32   15.02
   0 -13   2  180.79   12.77
   0 -13  -2  168.25   11.09
   0 -13   3   22.58    4.32
   0 -13  -3   16.06    3.72
   0 -13  -4    6.27    2.24
   0 -13   4    7.00    2.21
   0 -13   5  443.68   15.80
   0 -13  -5  359.19   16.33
   0 -12   1  245.14   14.17
   0 -12  -2   71.80    8.99
   0 -12   2   87.96    8.67
   0 -12   2   82.04    9.60
   0 -12   3   83.68    9.22
   0 -12  -3   68.17    9.26
   0 -12   3   76.54    8.10
   0 -12  -4  266.76   17.92
   0 -12   4  277.85   15.91
   0 -12   5   42.64    5.54
   0 -12  -5   52.37    7.86
   0 -12   6  160.61    9.22
   0 -12  -6  144.77   11.58
   0 -12  -7   56.70    6.02
   0 -11   0    3.02    1.79
   0 -11   1  246.46   14.92
   0 -11  -2  258.05   18.73
   0 -11   2  296.76   16.83
   0 -11   3  277.54   16.51
   0 -11  -3  252.49   19.22
   0 -11   3  273.71   17.80
   0 -11   4   40.56    6.30
   0 -11   4   36.89    6.12
   0 -11  -4   34.62    7.18
   0 -11   5  433.78   19.98
   0 -11  -5  397.62   23.84
   0 -11   6  265.25   13.72
   0 -11  -6  250.72   17.96
   0 -11  -7   75.71    8.77
   0 -11  -8   15.84    3.34
   0 -10   0  567.67   22.19
   0 -10  -1  143.39   13.54
   0 -10   1  145.72   11.33
   0 -10  -2  140.11   13.94
   0 -10   2  163.77   12.51
   0 -10   3  873.62   30.53
   0 -10  -3  850.73   36.74
   0 -10   4  536.65   23.99
   0 -10  -4  496.71   28.58
   0 -10   4  508.69   23.96
   0 -10   5   23.59    4.68
   0 -10  -5   30.55    6.65
   0 -10  -6  206.75   17.61
   0 -10   6  187.94   12.68
   0 -10  -7  206.40   16.39
   0 -10  -8  182.99   13.26
   0 -10  -9   24.96    3.69
   0  -9   0    2.65    1.88
   0  -9  -1  463.13   24.35
   0  -9  -1  495.15   20.43
   0  -9   1  539.50   21.27
   0  -9  -2 1493.05   46.73
   0  -9  -2 1489.77   37.79
   0  -9   2 1475.20   38.54
   0  -9   3  295.28   17.07
   0  -9  -3  318.44   16.69
   0  -9   4  163.93   13.16
   0  -9  -4  148.76   15.27
   0  -9  -4  150.44   11.73
   0  -9   4  145.77   12.51
   0  -9  -5  312.21   23.24
   0  -9   5  343.07   18.85
   0  -9   6  333.49   15.54
   0  -9  -6  339.87   24.03
   0  -9   6  317.21   16.97
   0  -9  -7   40.10    7.70
   0  -9   7   36.17    4.81
   0  -9   8  154.38    9.15
   0  -9  -8  152.47   13.54
   0  -9   9  224.70    9.21
   0  -9  -9  244.04   14.01
   0  -8   0 2539.99   46.09
   0  -8   1  889.07   24.55
   0  -8  -1  925.94   26.86
   0  -8  -2  138.17   10.35
   0  -8   2  134.43   10.33
   0  -8  -3 1527.92   38.25
   0  -8   3 1539.44   39.20
   0  -8  -3 1527.97   47.51
   0  -8  -4  955.16   29.98
   0  -8   4  950.55   31.91
   0  -8  -4  943.66   38.56
   0  -8   5  286.68   17.54
   0  -8   5  286.93   16.99
   0  -8   5  297.24   15.06
   0  -8  -5  261.25   15.78
   0  -8  -5  290.06   22.04
   0  -8  -6   22.92    6.53
   0  -8   6   29.10    4.73
   0  -8   7  313.04   15.81
   0  -8  -7  283.69   21.90
   0  -8  -8  473.57   26.03
   0  -8   8  441.45   17.83
   0  -8  -9   72.27    8.48
   0  -8   9   68.88    6.05
   0  -8  10  113.09    6.05
   0  -7   0    6.32    1.89
   0  -7  -1  516.24   18.33
   0  -7   1  534.53   17.25
   0  -7  -2 1027.41   28.04
   0  -7   2 1100.92   26.26
   0  -7  -3  611.29   22.20
   0  -7   4 1283.70   34.10
   0  -7   4 1199.86   34.43
   0  -7  -4 1138.23   32.02
   0  -7  -4 1228.51   42.59
   0  -7  -5  444.88   20.14
   0  -7   5  438.70   20.24
   0  -7   5  444.29   21.50
   0  -7   5  481.49   22.05
   0  -7  -5  463.00   27.13
   0  -7   5  423.16   18.43
   0  -7   6  169.31   13.97
   0  -7  -6  187.29   13.57
   0  -7   6  166.30   11.87
   0  -7  -6  186.24   17.97
   0  -7  -7  230.06   19.79
   0  -7   7  209.69   13.51
   0  -7   8  310.08   16.04
   0  -7  -8  309.82   21.86
   0  -7   9  411.11   17.07
   0  -7  -9  390.98   21.68
   0  -7  10   32.04    3.88
   0  -7 -10   31.07    4.60
   0  -6   0  506.99   15.76
   0  -6  -1 1177.68   26.35
   0  -6   1 1161.80   24.89
   0  -6  -2  236.60   12.00
   0  -6   3 1359.26   30.34
   0  -6  -3 1336.12   32.41
   0  -6  -4  520.79   19.87
   0  -6   4  521.73   20.13
   0  -6   5   11.29    3.55
   0  -6   5   11.18    3.05
   0  -6   5   11.19    3.18
   0  -6  -5   11.74    3.13
   0  -6  -5    9.26    3.91
   0  -6   6  211.62   15.20
   0  -6   6  204.85   13.30
   0  -6  -6  187.70   13.38
   0  -6  -6  191.98   17.88
   0  -6   7  802.07   32.24
   0  -6   7  862.33   29.07
   0  -6  -7  869.16   39.42
   0  -6  -7  847.26   30.34
   0  -6  -8  256.71   20.15
   0  -6   8  243.34   14.72
   0  -6  -9  123.71   12.53
   0  -6   9  118.87    9.48
   0  -6 -10  207.73   13.02
   0  -6  10  226.70   11.52
   0  -6  11  140.21    6.69
   0  -5   0    0.64    0.48
   0  -5  -1  233.05   10.02
   0  -5   2 4658.19   58.69
   0  -5  -2 4421.75   62.46
   0  -5   3  556.97   18.05
   0  -5  -3  546.95   18.69
   0  -5  -4  663.96   21.58
   0  -5   4  705.06   23.28
   0  -5   5  738.84   26.60
   0  -5  -5  707.93   23.77
   0  -5  -6  480.83   20.90
   0  -5   6  498.09   23.68
   0  -5  -6  489.66   21.23
   0  -5  -6  509.25   28.53
   0  -5   6  464.56   20.07
   0  -5  -7  181.35   13.52
   0  -5   7  190.21   13.15
   0  -5   7  177.62   15.21
   0  -5  -7  177.05   13.31
   0  -5  -7  195.54   17.80
   0  -5  -8  522.79   29.06
   0  -5   8  502.12   22.19
   0  -5   9  535.02   21.91
   0  -5  -9  564.05   27.70
   0  -5 -10  192.54   13.00
   0  -5  10  177.86   10.87
   0  -5  11   -0.59    0.56
   0  -4   0 2418.76   33.87
   0  -4  -1 1448.58   25.03
   0  -4   1 1346.32   22.01
   0  -4  -2   80.70    5.87
   0  -4   2   70.22    5.12
   0  -4   3 2042.99   37.24
   0  -4  -3 1852.00   35.08
   0  -4  -4  688.00   20.66
   0  -4   4  632.99   21.81
   0  -4   5  291.34   16.29
   0  -4  -5  309.96   14.62
   0  -4  -6  368.58   23.01
   0  -4  -6  325.76   16.57
   0  -4   6  338.21   16.74
   0  -4   6  342.78   19.55
   0  -4  -6  338.83   17.46
   0  -4  -7  826.14   36.04
   0  -4   7  746.33   31.61
   0  -4  -7  800.30   28.56
   0  -4  -7  802.38   29.16
   0  -4   7  731.05   26.71
   0  -4   8  561.26   23.45
   0  -4  -8  586.57   30.48
   0  -4  -8  542.34   24.68
   0  -4   9  154.90   11.59
   0  -4  -9  148.48   14.17
   0  -4  10   27.30    4.42
   0  -4  11  110.09    7.10
   0  -3   0    1.03    0.59
   0  -3   1 4271.88   48.44
   0  -3  -1 4566.29   51.31
   0  -3   2 1642.24   27.95
   0  -3  -2 1545.23   27.02
   0  -3  -3 1609.33   29.99
   0  -3   3 1554.16   31.15
   0  -3  -4   15.11    2.77
   0  -3   4   14.31    3.08
   0  -3   5  773.63   26.73
   0  -3  -5  752.85   22.70
   0  -3   6  824.64   30.66
   0  -3   6  830.06   26.22
   0  -3  -6  799.19   25.67
   0  -3  -7   27.63    6.27
   0  -3  -7   27.99    4.91
   0  -3   7   30.25    6.46
   0  -3   7   28.80    5.14
   0  -3  -8  602.63   29.98
   0  -3   8  536.62   27.82
   0  -3   8  528.98   22.90
   0  -3  -8  574.70   25.55
   0  -3  -9  242.34   16.61
   0  -3   9  272.95   15.85
   0  -3  -9  285.96   19.40
   0  -3  10  198.34   12.34
   0  -3  11   10.91    2.28
   0  -2   1  844.81   14.79
   0  -2  -1  833.34   22.69
   0  -2  -2 4117.65   50.59
   0  -2   2 4114.70   52.02
   0  -2   3 1036.02   24.17
   0  -2  -3 1135.95   22.33
   0  -2   4  830.07   24.41
   0  -2  -4  948.67   22.18
   0  -2   5  744.85   25.75
   0  -2  -5  744.18   21.75
   0  -2  -6  973.46   27.82
   0  -2   6  998.71   33.27
   0  -2  -7  740.00   26.73
   0  -2  -7  623.90   24.73
   0  -2  -7  659.22   21.68
   0  -2  -7  770.55   32.88
   0  -2   7  718.73   25.33
   0  -2   7  753.93   31.48
   0  -2  -8    9.68    2.40
   0  -2  -8    8.80    3.36
   0  -2   8   12.24    3.22
   0  -2   8    8.02    2.58
   0  -2  -8   10.93    4.17
   0  -2  -9   42.34    6.79
   0  -2   9   46.73    6.48
   0  -2  10  276.28   14.45
   0  -2 -10  288.92   16.94
   0  -2  11  307.58   12.46
   0  -1   0    6.78    1.33
   0  -1  -1 3457.81   33.99
   0  -1  -1 3544.28   36.55
   0  -1   2 1226.71   22.21
   0  -1  -2 1333.45   20.48
   0  -1  -2 1160.85   23.29
   0  -1  -2 1288.74   17.48
   0  -1  -3 1078.11   18.77
   0  -1   3 1103.86   24.35
   0  -1  -3 1055.53   16.96
   0  -1   4   71.21    6.74
   0  -1  -4   84.42    5.37
   0  -1  -4   75.29    5.65
   0  -1  -4   77.52    4.18
   0  -1   5 3189.14   57.16
   0  -1  -5 3041.31   49.01
   0  -1   6 1501.69   41.07
   0  -1   7   84.43    8.23
   0  -1  -7   74.86    7.21
   0  -1  -7   79.81    8.36
   0  -1   7   78.20    9.68
   0  -1  -7   77.24    8.30
   0  -1   8  130.19   10.66
   0  -1  -8  113.58   10.31
   0  -1  -8  124.68    9.40
   0  -1  -8  128.63   11.42
   0  -1   8  141.05   14.06
   0  -1  -9  439.21   17.78
   0  -1  -9  472.37   22.79
   0  -1   9  464.34   20.37
   0  -1 -10  170.30   13.00
   0  -1  10  146.60   10.36
   0  -1  11  137.82    8.04
   0   0  -1    5.38    0.62
   0   0  -1    7.57    0.84
   0   0   1    7.55    0.98
   0   0  -2  165.27    4.79
   0   0   2  167.68    6.85
   0   0  -2  180.34    5.88
   0   0   3    9.62    2.29
   0   0  -3    8.77    1.01
   0   0  -3   10.47    1.70
   0   0  -3   11.28    1.45
   0   0  -4 4614.89   58.03
   0   0  -4 4408.41   49.75
   0   0   4 4483.85   64.90
   0   0   5  201.72   12.77
   0   0  -5  205.59   10.46
   0   0  -6  711.29   21.95
   0   0   6  771.98   28.23
   0   0  -7  637.94   23.73
   0   0   7  672.27   29.02
   0   0   7  606.14   22.34
   0   0  -7  618.19   21.46
   0   0   8   23.11    5.98
   0   0  -8   21.04    4.42
   0   0  -8   23.65    4.47
   0   0   8   28.01    4.81
   0   0  -8   23.77    4.77
   0   0  -9   32.97    4.84
   0   0  -9   36.14    6.36
   0   0   9   27.48    4.96
   0   0  10   14.31    3.19
   0   0 -10   14.44    2.83
   0   0 -10   14.03    3.30
   0   0 -11  448.33   18.57
   0   1   0    0.33    0.15
   0   1   1 3468.54   35.73
   0   1  -1 3293.27   35.16
   0   1  -2 1222.51   18.47
   0   1  -2 1185.08   17.72
   0   1   2 1208.91   19.88
   0   1  -3  988.96   17.58
   0   1   3 1040.36   22.40
   0   1   4   67.45    6.39
   0   1  -4   59.72    4.00
   0   1   5 3076.36   55.38
   0   1  -5 3001.68   49.51
   0   1   6 1488.12   40.11
   0   1  -6 1520.54   35.95
   0   1  -7   78.43    7.95
   0   1   7   68.12    9.10
   0   1   7   66.83    7.11
   0   1  -7   68.85    7.13
   0   1  -7   61.99    7.11
   0   1  -8  129.91   11.12
   0   1   8  124.06    9.88
   0   1   8  113.57   12.40
   0   1  -8  123.57    9.97
   0   1   9  416.13   18.22
   0   1  -9  449.44   21.74
   0   1  -9  442.90   18.68
   0   1 -10  172.99   12.85
   0   1 -10  164.58   10.04
   0   1 -11  146.48   10.30
   0   2   0 2114.53   24.06
   0   2   1  814.85   11.20
   0   2  -1  761.23   11.81
   0   2  -2 3545.03   40.90
   0   2   2 3690.01   42.74
   0   2  -3  998.92   18.77
   0   2  -3 1026.57   20.10
   0   2   4  964.57   24.63
   0   2  -4  837.54   18.67
   0   2   5  749.73   24.64
   0   2  -6  878.30   27.45
   0   2   6  907.32   30.28
   0   2  -7  663.45   23.62
   0   2   7  686.66   28.75
   0   2  -7  668.37   23.20
   0   2  -7  685.34   26.33
   0   2   8   12.48    4.45
   0   2  -8    7.27    2.70
   0   2  -8   10.75    3.23
   0   2  -9   30.02    4.65
   0   2  -9   36.33    5.97
   0   2 -10  296.91   13.71
   0   2 -10  285.14   16.29
   0   2  11  232.95   11.98
   0   2 -11  259.17   13.40
   0   3   0    2.03    0.58
   0   3  -1 4374.50   47.18
   0   3   2 1240.73   19.77
   0   3  -2 1260.69   20.06
   0   3   3 1516.53   27.16
   0   3  -3 1486.50   24.97
   0   3  -4   21.02    3.23
   0   3   4   28.89    4.02
   0   3  -4   27.57    3.25
   0   3   5  638.51   22.48
   0   3  -6  676.29   24.92
   0   3   6  667.62   25.49
   0   3   7   33.80    6.06
   0   3  -7   29.08    4.97
   0   3  -7   25.30    4.40
   0   3  -7   27.07    5.39
   0   3  -8  500.02   21.36
   0   3  -8  496.02   20.75
   0   3  -9  255.02   14.46
   0   3  -9  238.66   15.04
   0   3 -10  157.10   10.07
   0   3 -10  170.51   12.05
   0   3  11    8.08    2.30
   0   3 -11   12.85    2.86
   0   3 -11    8.63    1.66
   0   4   0 2031.44   27.77
   0   4   1 1277.46   21.02
   0   4  -1 1227.42   19.85
   0   4  -2   47.38    3.53
   0   4   2   55.37    3.50
   0   4  -3 1629.44   27.06
   0   4   3 1565.57   27.61
   0   4  -4  635.66   19.63
   0   4   4  612.76   19.16
   0   4   5  246.51   13.51
   0   4  -6  301.72   15.39
   0   4  -6  292.11   13.94
   0   4  -7  698.81   28.76
   0   4  -7  688.37   23.89
   0   4  -7  724.78   25.27
   0   4  -8  523.58   21.59
   0   4  -8  470.68   20.47
   0   4  -9  135.27   10.41
   0   4  -9  119.51   10.12
   0   4 -10   26.68    4.11
   0   4 -10   27.43    4.56
   0   4  11   91.93    7.48
   0   4 -11   94.59    5.68
   0   5   0    0.51    0.59
   0   5   1  159.44    7.28
   0   5  -1  158.99    6.75
   0   5  -2 4335.61   52.48
   0   5   2 4109.12   47.93
   0   5  -3  416.62   13.14
   0   5  -4  632.16   21.59
   0   5  -4  560.69   17.20
   0   5  -5  619.86   19.64
   0   5  -6  444.13   19.22
   0   5  -6  393.47   16.42
   0   5  -7  154.80   13.99
   0   5  -7  173.31   12.37
   0   5  -7  153.70   10.79
   0   5  -8  432.24   18.97
   0   5  -8  468.74   20.65
   0   5  -9  476.14   19.69
   0   5  -9  518.80   20.46
   0   5 -10  139.37    9.35
   0   5 -10  166.96    9.86
   0   5  11    1.51    0.63
   0   5 -11    1.10    0.65
   0   6   0  392.94   12.38
   0   6  -1 1024.72   20.93
   0   6   1 1040.53   22.15
   0   6  -2  228.22    9.52
   0   6   2  220.61   10.22
   0   6  -3 1242.90   26.00
   0   6  -4  571.93   22.43
   0   6  -4  468.18   16.53
   0   6  -5   10.85    2.65
   0   6  -6  180.82   12.52
   0   6  -7  768.48   27.05
   0   6  -7  698.37   31.49
   0   6  -8  224.45   12.97
   0   6  -8  257.61   15.12
   0   6  -9  120.83    9.45
   0   6  -9   96.66    7.94
   0   6 -10  226.38   10.91
   0   6  11  156.22    8.29
   0   7   0    1.67    0.90
   0   7  -1  467.51   14.55
   0   7   1  476.96   15.44
   0   7  -2  926.83   22.24
   0   7   2  975.37   24.28
   0   7   3  532.29   18.42
   0   7  -3  518.48   17.10
   0   7  -4 1050.56   26.88
   0   7   4 1011.21   28.18
   0   7  -5  416.51   17.37
   0   7  -6  152.82   11.82
   0   7  -7  195.85   13.50
   0   7  -8  291.03   15.66
   0   7  -9  394.70   16.42
   0   7 -10   32.47    3.80
   0   7  10   26.75    4.23
   0   8   0 2131.83   38.22
   0   8   1  866.00   22.93
   0   8  -1  798.68   21.44
   0   8  -2  109.88    7.89
   0   8   2  107.08    8.14
   0   8  -3 1328.98   30.54
   0   8   3 1332.72   32.70
   0   8  -4  800.82   24.39
   0   8   4  813.62   26.12
   0   8   5  231.49   14.32
   0   8  -5  238.14   13.48
   0   8  -6   23.12    4.60
   0   8  -7  291.12   16.13
   0   8  -8  422.77   18.28
   0   8  -9   69.39    6.26
   0   8  10  130.88    8.09
   0   8 -10  135.10    6.84
   0   9   0   10.11    2.50
   0   9  -1  454.28   17.11
   0   9   1  459.95   17.37
   0   9   2 1315.07   32.44
   0   9  -2 1328.87   31.92
   0   9   3  267.21   14.48
   0   9  -3  251.04   13.21
   0   9  -4  149.71   10.64
   0   9   4  156.91   11.72
   0   9  -4  176.07   15.34
   0   9  -6  313.79   16.83
   0   9  -7   34.42    5.26
   0   9  -8  154.19   10.04
   0   9  -9  235.45   10.47
   0   9   9  212.63   11.44
   0  10   0  487.80   18.92
   0  10   1  118.81    9.14
   0  10  -1   99.92    8.35
   0  10   2  119.35    9.46
   0  10  -2  121.26    9.41
   0  10  -3  882.91   37.64
   0  10   3  691.30   24.47
   0  10  -5   27.76    4.88
   0  10  -6  173.03   11.85
   0  10   7  149.68   11.06
   0  10  -7  210.32   12.08
   0  10   8  146.41    9.45
   0  10  -8  174.05    9.56
   0  10  -9   26.61    2.87
   0  11  -5  355.99   16.80
   0  11  -6  245.56   12.92
   0  11  -7   70.68    6.11
   0  11  -8   14.95    2.37
   0  12   0  600.23   20.34
   0  12  -4  208.35   12.00
   0  12  -5   47.12    5.28
   0  12  -6  143.48    8.43
   0  12  -7   62.86    4.67
   0  13   1  225.32   11.27
   0  13  -3   11.38    2.43
   0  13  -4    5.46    1.44
   0  13  -5  355.78   12.25
   0  14   3  100.71    5.85
   1 -15   0   11.57    2.16
   1 -15   1  115.38    6.65
  -1 -14   4  145.75    8.59
  -1 -14   3   66.73    6.15
  -1 -14   2  135.50    9.18
   1 -14  -2  115.31    8.07
  -1 -14   1  182.28   10.59
   1 -14  -1  169.17   10.64
   1 -14   0   77.10    7.41
  -1 -14   0   77.49    6.48
   1 -14   1   55.81    5.28
   1 -14   1   57.18    6.11
   1 -14   2    1.57    0.86
   1 -14   3  359.39   13.44
  -1 -13   6   39.56    4.14
  -1 -13   5  122.21    8.73
  -1 -13   4   79.95    7.64
  -1 -13   3  178.19   12.18
  -1 -13   2  439.24   19.69
   1 -13  -1   31.54    4.62
  -1 -13   1   26.73    4.91
  -1 -13   0   59.46    6.79
   1 -13   0   51.76    5.98
  -1 -13  -1   80.68    7.33
   1 -13   1   99.06    8.56
  -1 -13  -1   83.52    8.89
  -1 -13  -2  372.52   19.12
   1 -13   2  428.19   17.95
   1 -13   2  402.10   18.77
   1 -13   3    2.35    1.32
  -1 -13  -3    4.76    2.07
   1 -13   4   55.83    5.54
  -1 -13  -4   48.14    6.18
  -1 -13  -5  127.59    9.14
   1 -12  -7  180.18   11.21
   1 -12  -6   14.11    3.59
  -1 -12   6   25.85    4.17
   1 -12  -5   91.30    9.84
  -1 -12   5  117.13    9.83
   1 -12  -4  314.48   18.52
  -1 -12   4  388.56   19.18
  -1 -12   3  239.73   15.68
   1 -12  -2   55.78    6.47
  -1 -12   2   61.27    7.96
   1 -12  -1  144.57   10.96
  -1 -12   1  135.85   11.76
  -1 -12   0  582.94   24.15
   1 -12   0  575.30   22.95
   1 -12   1  197.55   13.56
  -1 -12  -1  193.07   15.45
  -1 -12  -1  202.13   13.31
   1 -12   2  227.36   14.47
  -1 -12  -2  201.14   15.89
  -1 -12  -3  322.46   20.15
   1 -12   3  350.11   18.44
   1 -12   3  388.49   18.82
  -1 -12  -4  238.49   16.72
   1 -12   4  255.17   14.15
  -1 -12  -5   18.38    4.02
   1 -12   5   11.48    2.25
  -1 -12  -6   59.97    6.69
   1 -11  -8   87.54    8.12
  -1 -11   7   48.87    5.41
   1 -11  -7   53.09    7.37
  -1 -11   6  240.74   14.27
   1 -11  -6  219.73   16.71
  -1 -11   5  547.76   23.51
   1 -11  -5  420.58   24.36
   1 -11  -4  104.32   11.79
  -1 -11   4  135.77   12.05
  -1 -11   3  468.88   23.43
   1 -11  -3  480.97   19.66
  -1 -11   2  535.14   24.97
   1 -11  -2  557.82   21.89
   1 -11  -1  233.36   14.42
  -1 -11   1  222.97   15.85
  -1 -11   0   22.12    5.00
  -1 -11   0   22.19    5.56
   1 -11   0   37.50    6.12
  -1 -11  -1  280.73   16.64
  -1 -11  -1  254.59   18.84
   1 -11   1  281.33   16.76
  -1 -11  -2  712.12   32.56
   1 -11   2  772.23   28.84
  -1 -11  -3  105.53   12.35
   1 -11   3   90.70    9.55
   1 -11   4  124.67   11.06
  -1 -11  -4   95.24   11.73
   1 -11   4  112.66   10.17
  -1 -11  -5  201.40   16.32
   1 -11   5  201.19   12.18
  -1 -11  -6  239.30   16.17
  -1 -11  -7    4.58    2.00
   1 -10  -9   29.89    4.54
   1 -10  -8  257.24   16.69
   1 -10  -7  333.75   21.41
  -1 -10   7  326.90   16.14
   1 -10  -6   44.01    8.14
  -1 -10   6   42.84    6.30
   1 -10  -5  275.94   21.17
  -1 -10   5  312.10   18.44
  -1 -10   4  596.03   26.20
   1 -10  -4  515.23   28.27
   1 -10  -3  779.70   33.77
  -1 -10   3  833.67   31.51
  -1 -10   3  792.96   27.76
   1 -10  -3  791.36   31.06
  -1 -10   2  181.91   12.39
  -1 -10   2  192.25   14.82
   1 -10  -2  172.00   12.18
   1 -10  -2  179.27   14.22
   1 -10  -1  298.18   18.26
   1 -10  -1  323.58   14.76
   1 -10  -1  353.27   17.64
  -1 -10   0 1104.73   39.81
   1 -10   0 1133.70   30.18
   1 -10   0 1175.80   34.38
   1 -10   1  756.35   27.78
  -1 -10  -1  748.50   33.19
  -1 -10  -2   79.64   11.00
   1 -10   2   81.48    9.07
   1 -10   3  552.65   24.50
  -1 -10  -3  505.40   28.39
  -1 -10  -4  227.47   19.27
   1 -10   4  238.10   16.06
   1 -10   5    3.19    1.67
  -1 -10  -5    2.56    1.27
  -1 -10  -6  218.41   17.14
   1 -10   6  244.98   11.95
   1 -10   7  220.02   10.15
  -1 -10  -7  216.69   15.23
  -1 -10  -8   13.76    3.06
   1  -9  -9  103.21    9.95
   1  -9  -8  179.17   15.65
  -1  -9   8  183.41    9.72
  -1  -9   7   10.67    3.04
  -1  -9   7   10.69    2.47
   1  -9  -7   14.81    4.90
  -1  -9   6  731.54   28.09
   1  -9  -6  750.48   35.83
  -1  -9   5  468.02   22.81
   1  -9  -5  426.65   26.68
   1  -9  -4  412.55   25.25
  -1  -9   4  412.06   21.50
   1  -9  -4  399.71   21.61
   1  -9  -3  247.90   18.59
  -1  -9   3  282.65   17.79
  -1  -9   3  269.89   15.70
   1  -9  -3  260.18   17.20
   1  -9  -2  644.28   26.31
  -1  -9   2  615.08   22.96
   1  -9  -1  602.09   22.49
   1  -9  -1  579.83   19.43
  -1  -9   1  536.79   25.82
   1  -9  -1  561.41   23.97
   1  -9   0   64.58    6.58
   1  -9   0   63.54    7.95
   1  -9   0   73.16    7.83
  -1  -9   0   61.71    8.72
  -1  -9  -1  943.16   37.29
   1  -9   1 1013.36   31.45
   1  -9   1  966.75   27.71
   1  -9   1 1037.58   32.44
  -1  -9  -2  152.51   15.21
   1  -9   2  167.27   12.74
   1  -9   3  316.26   18.31
  -1  -9  -3  318.84   22.55
  -1  -9  -4  121.82   14.30
   1  -9   4  121.55    9.74
   1  -9   4  123.53   11.56
   1  -9   5  359.22   18.33
   1  -9   5  387.40   17.60
   1  -9   5  396.42   20.83
  -1  -9  -5  385.01   25.37
  -1  -9  -6  192.79   17.32
   1  -9   6  174.50   11.38
  -1  -9  -7   40.95    7.11
   1  -9   7   42.42    5.19
  -1  -9  -8  154.15   11.84
   1  -9   8  160.35    8.84
   1  -8 -10  135.09   10.08
  -1  -8  10  117.95    6.45
  -1  -8   9   15.76    2.90
   1  -8  -9   18.58    4.47
  -1  -8   8  105.05    8.40
   1  -8  -8  103.02   12.83
  -1  -8   7  519.70   22.55
   1  -8  -7  549.34   31.12
  -1  -8   7  555.69   20.72
   1  -8  -6  159.19   16.95
  -1  -8   6  164.39   13.02
  -1  -8   6  179.77   11.38
  -1  -8   5  671.86   27.04
   1  -8  -5  623.15   32.80
   1  -8  -5  695.22   27.59
  -1  -8   4  301.94   17.80
  -1  -8   4  307.78   17.10
   1  -8  -4  289.40   17.71
   1  -8  -4  292.67   20.99
   1  -8  -3  607.69   28.80
   1  -8  -3  589.25   24.86
  -1  -8   3  654.61   26.17
  -1  -8   3  631.14   23.62
   1  -8  -2  455.90   20.92
   1  -8  -1  611.66   23.57
   1  -8   0  764.03   26.20
   1  -8   0  822.03   25.44
   1  -8   1  122.55    8.85
   1  -8   1  131.78   10.16
   1  -8   1  127.48   10.58
  -1  -8  -1  130.30   12.86
   1  -8   2   87.26    8.86
   1  -8   2   87.93    8.84
  -1  -8  -2   85.40   10.69
   1  -8   2   87.60    7.78
  -1  -8  -3  518.50   28.12
   1  -8   3  482.34   19.39
   1  -8   3  529.95   22.74
  -1  -8  -3  484.01   18.99
  -1  -8  -4 1097.77   43.39
   1  -8   4 1145.74   35.46
   1  -8   4 1036.99   30.46
  -1  -8  -4 1012.07   30.21
   1  -8   5  124.89   11.77
  -1  -8  -5  131.03   15.01
   1  -8   5  114.83   10.05
   1  -8   6  359.14   17.68
  -1  -8  -6  359.06   24.30
   1  -8   7  402.15   18.05
  -1  -8  -7  382.98   23.52
  -1  -8  -8   85.86    9.71
   1  -8   8   81.11    7.34
  -1  -8  -9  100.30    7.97
   1  -8   9   90.62    6.36
  -1  -7  10  112.65    7.49
   1  -7 -10  138.54   11.39
  -1  -7   9  131.50    9.60
   1  -7  -9  125.45   13.08
  -1  -7   8   70.87    7.39
   1  -7  -8   60.25    9.97
  -1  -7   7   38.50    5.45
   1  -7  -7   37.80    8.37
  -1  -7   7   34.26    5.63
  -1  -7   6 1025.98   29.55
   1  -7  -6 1078.93   34.61
  -1  -7   6  988.68   32.46
   1  -7  -6 1026.11   43.04
   1  -7  -5  440.81   21.20
  -1  -7   5  448.38   21.09
   1  -7  -5  430.08   26.55
  -1  -7   5  421.14   17.48
   1  -7  -4   89.02   11.40
   1  -7  -4   93.53    9.53
  -1  -7   4   84.58    8.47
  -1  -7   4   99.80    9.68
   1  -7  -3   28.76    5.04
   1  -7  -2 1475.14   36.75
   1  -7  -1 2308.69   45.86
   1  -7   0  337.13   16.12
  -1  -7  -1  602.76   17.53
   1  -7   1  570.90   21.28
  -1  -7  -2  801.55   22.14
  -1  -7  -3  485.44   18.38
   1  -7   3  472.46   20.19
  -1  -7  -3  509.78   26.88
  -1  -7  -4  122.71   13.56
   1  -7   4  136.04   11.25
   1  -7   4  137.30   10.57
  -1  -7  -4  118.56    9.67
   1  -7   5 1137.17   33.33
  -1  -7  -5 1179.75   44.63
  -1  -7  -5 1134.61   33.17
   1  -7   5 1116.19   35.22
  -1  -7  -6  336.01   23.68
   1  -7   6  326.16   17.43
  -1  -7  -7   13.05    4.26
   1  -7   7   15.50    3.87
   1  -7   8   39.69    5.39
  -1  -7  -8   37.30    6.90
   1  -7   9  332.34   14.04
  -1  -7  -9  324.56   16.19
   1  -7  10  273.13    9.89
  -1  -6  11  314.81   11.20
  -1  -6  10   12.13    2.79
   1  -6 -10   10.27    3.12
   1  -6  -9  140.79   14.59
  -1  -6   9  128.98   10.14
  -1  -6   8   53.53    6.89
   1  -6  -8   48.31    9.34
   1  -6  -7 1055.49   34.61
   1  -6  -7 1051.19   44.16
  -1  -6   7 1087.50   31.82
  -1  -6   7 1106.65   39.36
  -1  -6   6  420.72   22.30
  -1  -6   6  364.76   18.73
   1  -6  -6  393.42   19.80
  -1  -6   6  385.38   17.78
   1  -6  -6  413.15   26.36
   1  -6  -5  488.17   21.60
  -1  -6   5  412.31   17.40
   1  -6  -5  456.53   25.99
  -1  -6   5  473.18   21.96
  -1  -6   5  432.70   19.68
   1  -6  -4  662.49   24.44
   1  -6  -3  228.54   13.49
   1  -6  -2  169.17   10.72
   1  -6  -1 1314.52   30.84
   1  -6   0 2453.25   44.43
  -1  -6   0 2432.59   35.50
  -1  -6  -1  726.20   18.20
  -1  -6  -1  730.13   38.51
  -1  -6  -2   87.40   13.65
  -1  -6  -2   98.43    7.00
   1  -6   2   88.77    6.25
   1  -6   3  289.83   13.71
  -1  -6  -3  260.76   12.58
   1  -6   4 1949.19   44.25
  -1  -6  -4 2043.56   55.88
   1  -6   4 2032.39   44.29
   1  -6   4 1896.72   42.23
  -1  -6  -4 1915.00   40.89
   1  -6   5  158.61   12.29
  -1  -6  -5  178.37   12.26
  -1  -6  -5  189.78   16.89
   1  -6   5  163.97   12.00
   1  -6   5  157.82   12.79
  -1  -6  -6  581.12   30.95
   1  -6   6  583.68   26.67
   1  -6   6  590.60   24.08
  -1  -6  -7  308.45   21.93
   1  -6   7  296.53   16.85
   1  -6   8   96.89    9.09
  -1  -6  -8  108.17   11.88
   1  -6   9    5.52    1.70
  -1  -6  -9    9.70    2.87
   1  -6  10  226.13   10.12
  -1  -5  11   22.18    3.35
  -1  -5  10  154.19   10.42
   1  -5 -10  150.27   13.44
  -1  -5   9  106.04    9.51
   1  -5  -9  108.45   13.34
   1  -5  -8  383.39   25.99
  -1  -5   8  359.71   18.37
   1  -5  -8  355.04   15.83
  -1  -5   7  244.75   14.73
   1  -5  -7  258.97   13.51
   1  -5  -7  251.71   16.12
   1  -5  -7  261.38   21.39
  -1  -5   7  226.95   16.91
   1  -5  -6  665.49   24.99
  -1  -5   6  640.83   23.14
   1  -5  -6  634.40   31.94
   1  -5  -6  627.52   20.81
  -1  -5   6  683.70   27.65
   1  -5  -5  883.75   28.16
  -1  -5   5  843.91   28.50
  -1  -5   4   11.71    3.06
   1  -5  -4   16.43    3.71
   1  -5  -3   92.28    7.79
  -1  -5   3   82.35    7.10
   1  -5  -2 2220.34   40.95
  -1  -5   2 2469.79   59.97
   1  -5  -1 1153.18   26.99
  -1  -5   1 1175.41   18.06
  -1  -5   0  205.50    7.55
  -1  -5   0  217.56   18.26
  -1  -5  -1 1991.98   31.51
   1  -5   1 1998.06   29.12
  -1  -5  -1 2022.77   60.13
  -1  -5  -2 1182.13   24.51
  -1  -5  -2 1119.90   45.30
  -1  -5  -3   11.00    5.59
  -1  -5  -3    8.30    2.17
   1  -5   3    8.96    2.61
  -1  -5  -4  153.09   10.14
   1  -5   4  128.66   10.41
  -1  -5  -5 1974.58   43.55
   1  -5   5 1926.96   44.62
  -1  -5  -5 2109.25   57.11
   1  -5   5 2155.84   50.66
   1  -5   5 2089.48   45.25
   1  -5   6  145.43   11.59
  -1  -5  -6  152.76   14.84
   1  -5   6  152.01   13.65
   1  -5   7   18.99    4.50
   1  -5   7   15.85    3.87
  -1  -5  -7   11.30    3.46
  -1  -5  -8   29.66    6.18
  -1  -5  -8   26.36    4.82
   1  -5   8   27.62    5.05
   1  -5   9  535.90   20.51
   1  -5  10   95.32    6.99
  -1  -4  11  299.39   13.05
   1  -4 -10  338.95   20.83
  -1  -4  10  360.56   16.81
   1  -4  -9  170.17   16.27
   1  -4  -9  146.65    9.89
  -1  -4   9  156.97   12.09
   1  -4  -8  417.13   26.81
   1  -4  -8  371.83   19.93
  -1  -4   8  386.48   22.97
   1  -4  -8  399.66   17.64
  -1  -4   8  414.71   19.86
  -1  -4   7  242.77   16.98
   1  -4  -7  266.22   13.88
  -1  -4   7  267.35   15.28
   1  -4  -7  264.71   15.90
   1  -4  -6  366.84   15.65
   1  -4  -6  395.31   19.34
  -1  -4   6  391.81   17.53
   1  -4  -6  405.45   18.34
  -1  -4   6  409.12   20.39
  -1  -4   5   27.60    4.63
   1  -4  -5   38.96    5.30
   1  -4  -4 2779.13   49.30
  -1  -4   4 2788.88   49.04
   1  -4  -3  742.88   21.48
  -1  -4   3  776.06   21.41
   1  -4  -2  121.07    7.58
  -1  -4   2  137.15   11.86
   1  -4  -1  417.45   13.94
  -1  -4   1  385.25    7.63
  -1  -4   0 1396.08   19.84
  -1  -4   0 1422.79   41.60
  -1  -4  -1   32.59    3.10
  -1  -4  -1   29.55    6.30
   1  -4   1   30.72    2.97
  -1  -4  -2  301.28   10.99
   1  -4   2  325.07   12.41
   1  -4   3 2920.84   49.60
  -1  -4  -3 2917.08   45.27
  -1  -4  -4 1326.77   30.56
   1  -4   4 1275.84   34.02
   1  -4   5   36.20    6.03
  -1  -4  -5   24.80    4.34
  -1  -4  -5   23.30    4.37
   1  -4   5   29.01    4.79
  -1  -4  -6  844.05   35.22
   1  -4   6  830.51   28.04
   1  -4   6  862.54   33.40
  -1  -4  -6  777.27   25.82
   1  -4   7  501.64   27.01
  -1  -4  -7  563.28   28.49
   1  -4   7  514.95   22.50
  -1  -4  -7  525.56   22.31
  -1  -4  -8  414.84   20.04
   1  -4   8  422.00   20.00
  -1  -4  -8  473.73   24.99
  -1  -4  -9   62.94    7.31
   1  -4   9   71.37    7.61
   1  -4  10  229.87   11.55
  -1  -3  11    9.49    2.27
   1  -3 -10  171.72   14.83
  -1  -3  10  156.38   11.50
   1  -3 -10  172.74   10.10
   1  -3  -9  800.93   36.21
  -1  -3   9  754.03   27.23
   1  -3  -9  771.43   24.92
   1  -3  -8  517.07   22.97
   1  -3  -8  497.19   19.98
  -1  -3   8  462.40   25.02
   1  -3  -8  508.25   25.11
  -1  -3   8  511.92   22.35
   1  -3  -8  494.67   28.65
   1  -3  -7   59.51    7.98
   1  -3  -7   61.00    6.83
   1  -3  -7   50.88    6.74
  -1  -3   7   47.92    6.38
  -1  -3   7   50.51    7.93
   1  -3  -6  637.21   22.19
  -1  -3   6  610.10   24.92
  -1  -3   5 2007.33   43.22
   1  -3  -5 1890.16   38.44
   1  -3  -5 1889.48   35.94
  -1  -3   4  557.14   19.18
   1  -3  -4  594.03   17.30
   1  -3  -4  543.64   18.45
   1  -3  -3 1531.97   28.23
   1  -3  -3 1573.03   30.45
   1  -3  -2 1640.03   28.05
  -1  -3   2 1679.13   29.25
   1  -3  -2 1661.62   29.53
   1  -3  -1 1146.88   21.28
   1  -3  -1 1163.65   22.60
  -1  -3   0 1187.54   32.75
  -1  -3   0 1253.77   16.23
  -1  -3  -1 6315.35   63.60
  -1  -3  -1 6183.68   90.84
  -1  -3  -2 2449.19   55.64
   1  -3   2 2448.10   39.99
  -1  -3  -3  204.26    9.73
   1  -3   3  207.86   11.35
  -1  -3  -4  228.29   17.26
  -1  -3  -4  247.54   12.09
   1  -3   4  204.83   12.92
   1  -3   5 1445.11   39.95
  -1  -3  -6  463.73   24.96
  -1  -3  -6  427.46   18.49
   1  -3   6  429.55   19.49
   1  -3   6  460.87   24.12
  -1  -3  -6  415.99   20.12
   1  -3   7   54.22    8.73
  -1  -3  -7   60.10    7.34
   1  -3   7   53.20    6.98
  -1  -3  -7   53.76    7.45
   1  -3   8  323.10   17.49
  -1  -3  -8  311.45   17.53
  -1  -3  -9  346.64   17.90
   1  -3   9  336.82   16.56
   1  -3  10   33.57    4.46
   1  -3  11   35.56    3.34
  -1  -2  12   19.24    2.37
   1  -2 -11  243.74   10.22
  -1  -2  11  256.80   12.48
   1  -2 -10  262.27   13.19
  -1  -2  10  277.38   15.39
   1  -2 -10  283.71   18.80
   1  -2  -9   45.61    5.97
   1  -2  -9   53.51    9.37
   1  -2  -9   44.21    7.27
  -1  -2   9   47.49    6.81
   1  -2  -8 1270.60   33.35
   1  -2  -8 1270.09   39.50
  -1  -2   8 1274.07   36.16
  -1  -2   8 1202.71   41.04
   1  -2  -7  438.16   21.42
  -1  -2   7  462.48   19.86
  -1  -2   7  433.35   22.54
   1  -2  -7  454.64   18.59
   1  -2  -7  440.60   19.12
   1  -2  -6   13.24    3.02
   1  -2  -6   19.30    3.25
   1  -2  -5   92.89    7.17
   1  -2  -5   89.69    6.61
  -1  -2   5   85.99    8.08
  -1  -2   4 2883.41   48.79
   1  -2  -4 2927.01   45.71
   1  -2  -4 2915.98   44.01
   1  -2  -3 3526.19   49.36
  -1  -2   3 3438.16   50.06
   1  -2  -3 3525.16   48.27
  -1  -2   2  574.06   17.69
  -1  -2   2  522.15   13.95
   1  -2  -2  534.59   13.67
   1  -2  -2  575.30   14.30
  -1  -2   1 1907.78   35.34
   1  -2  -1 1871.59   27.38
   1  -2   0 1968.78   24.01
  -1  -2   0 2065.66   39.11
   1  -2   0 2011.40   26.72
  -1  -2   0 2037.26   23.05
  -1  -2  -1 9999.00   96.38
  -1  -2  -1 9620.52  115.85
  -1  -2  -2 1300.90   22.88
   1  -2   2 1320.65   25.19
  -1  -2  -3 3892.33   51.59
   1  -2   3 3768.11   56.96
  -1  -2  -4  836.52   29.96
   1  -2   4  941.11   28.19
   1  -2   5   72.63    8.50
  -1  -2  -6  479.22   19.20
   1  -2   6  524.49   21.07
   1  -2   6  533.46   25.73
   1  -2   7 1170.03   42.10
  -1  -2  -7 1193.65   33.72
  -1  -2  -7 1119.29   34.90
   1  -2   7 1234.08   34.90
  -1  -2  -8  279.71   17.27
  -1  -2  -8  297.15   16.87
   1  -2   8  297.96   16.54
   1  -2   9   55.29    6.76
  -1  -2  -9   66.86    7.91
  -1  -2 -10  132.76   10.11
   1  -2  10  119.17    8.45
   1  -1 -11   44.73    4.57
  -1  -1  11   40.44    4.88
  -1  -1  10   34.33    5.37
   1  -1 -10   40.27    5.32
   1  -1  -9  773.85   25.86
   1  -1  -9  768.80   34.49
  -1  -1   9  789.23   27.91
   1  -1  -9  800.38   31.45
  -1  -1   8  198.08   15.85
   1  -1  -8  195.50   14.95
   1  -1  -8  195.64   12.65
  -1  -1   8  199.63   13.40
   1  -1  -7  181.47   11.76
  -1  -1   7  191.86   12.56
  -1  -1   7  186.80   14.44
   1  -1  -7  174.47   12.88
   1  -1  -7  178.57   11.65
  -1  -1   6  444.51   20.43
   1  -1  -6  417.00   16.50
   1  -1  -6  463.08   16.06
   1  -1  -5 1876.67   34.31
   1  -1  -5 1853.80   34.27
  -1  -1   5 1882.06   40.23
   1  -1  -4  888.67   20.35
   1  -1  -4  833.53   13.96
   1  -1  -4  892.11   21.08
   1  -1  -3 2454.87   34.68
  -1  -1   3 2441.11   31.83
   1  -1  -3 2351.22   35.62
   1  -1  -2 4763.05   58.23
   1  -1  -2 4821.60   56.03
   1  -1  -1  353.42    9.62
  -1  -1   1  398.18   12.79
   1  -1   0 2355.52   29.02
  -1  -1   0 2557.34   39.83
  -1  -1  -1   78.14    6.48
   1  -1   1   74.73    4.20
   1  -1   1   83.95    2.87
  -1  -1  -2 2325.56   43.43
   1  -1   2 2472.09   36.62
  -1  -1  -3   84.40    7.54
   1  -1   3   91.44    7.08
  -1  -1  -4  744.73   24.68
   1  -1   4  854.86   25.95
   1  -1   5  220.86   14.72
   1  -1   6 1253.97   40.11
  -1  -1  -6 1270.82   32.11
  -1  -1  -6 1178.34   33.18
   1  -1   6 1215.18   32.32
   1  -1   7   85.14   11.28
   1  -1   7   89.04    8.63
  -1  -1  -7   93.43    8.97
  -1  -1  -7   98.62    9.83
  -1  -1  -8  886.10   29.79
  -1  -1  -8  817.03   29.54
   1  -1   8  822.26   27.48
   1  -1   9  266.74   14.34
  -1  -1  -9  285.43   16.42
  -1  -1  -9  252.69   15.32
  -1  -1 -10   37.49    5.38
   1  -1  10   38.85    4.70
   1   0 -11   73.31    6.16
  -1   0  11   60.36    5.73
  -1   0  10  701.41   24.24
   1   0 -10  731.35   28.80
   1   0 -10  733.99   24.09
   1   0  -9   85.28    9.99
   1   0  -9   93.41    8.80
  -1   0   9   93.51    9.37
   1   0  -8  609.95   23.32
  -1   0   8  576.52   27.39
  -1   0   8  631.90   24.21
   1   0  -8  605.30   25.69
   1   0  -7  113.92    9.54
  -1   0   7  101.11    9.04
  -1   0   7  118.94   11.20
   1   0  -7  110.08    9.81
  -1   0   6  158.81   11.84
   1   0  -6  165.54    9.49
   1   0  -6  147.96    9.21
   1   0  -5    3.48    1.33
   1   0  -5    4.71    1.44
  -1   0   5    3.71    1.35
   1   0  -5    2.63    1.24
  -1   0   4  481.09   16.42
   1   0  -4  472.48   13.27
   1   0  -4  491.00   15.72
   1   0  -3 3580.06   49.44
   1   0  -3 3451.11   43.49
  -1   0   3 3472.85   43.12
  -1   0   2  944.48   16.74
  -1   0   2  936.16   19.12
   1   0  -2  950.73   15.60
   1   0  -2  899.90   18.80
   1   0  -1  812.63   16.06
  -1   0   1  813.67   13.25
  -1   0   0  309.96    5.33
  -1   0   0  323.68   11.44
  -1   0   0  320.75    8.27
   1   0   0  320.46    8.02
  -1   0  -1 2668.08   31.14
  -1   0  -1 3012.34   36.32
  -1   0  -1 2899.89   35.87
  -1   0  -1 2880.67   42.74
   1   0   1 2661.45   29.22
  -1   0  -2  400.55   12.30
   1   0   2  389.71   11.98
  -1   0  -2  398.70   11.13
  -1   0  -3 5392.11   63.24
   1   0   3 5441.12   69.22
  -1   0  -4  289.96   10.76
  -1   0  -4  281.26   12.86
   1   0   4  282.61   14.17
  -1   0  -4  248.30   12.12
   1   0   5    9.65    3.32
  -1   0  -5   14.13    3.21
  -1   0  -6    3.51    2.10
  -1   0  -6    3.18    1.60
   1   0   6    9.19    3.68
  -1   0  -7  902.51   29.61
  -1   0  -7  974.22   29.65
   1   0   7  993.53   37.92
   1   0   7  925.90   28.24
  -1   0  -8  143.89   11.85
   1   0   8  135.31   14.13
  -1   0  -8  147.67   11.81
   1   0   8  134.15   10.47
  -1   0  -9  355.92   18.41
  -1   0  -9  307.61   16.60
   1   0   9  312.66   15.08
  -1   0 -10   80.41    8.03
  -1   0 -11  217.35   10.95
   1   1 -11   44.33    4.86
  -1   1  11   43.97    4.65
  -1   1  10   44.58    5.89
  -1   1  10   41.65    6.57
   1   1 -10   43.05    5.68
   1   1 -10   39.34    6.28
   1   1  -9  674.21   27.85
   1   1  -9  728.67   25.60
   1   1  -8  197.79   13.08
   1   1  -8  183.94   13.49
  -1   1   8  164.22   11.97
  -1   1   8  151.29   13.39
  -1   1   7  154.67   11.04
   1   1  -7  167.31   11.82
  -1   1   7  165.47   12.99
   1   1  -7  176.18   11.98
   1   1  -6  479.60   17.22
  -1   1   6  455.77   20.14
   1   1  -6  437.47   16.18
   1   1  -5 1817.04   35.56
  -1   1   5 1660.01   36.79
   1   1  -4  829.37   17.12
  -1   1   4  796.31   21.21
   1   1  -3 2168.51   28.58
  -1   1   3 2255.51   33.76
   1   1  -2 4819.53   49.83
   1   1  -2 4862.75   60.97
   1   1  -1  295.48    4.77
  -1   1   1  311.45    6.40
   1   1   0 2473.29   33.33
  -1   1   0 2680.75   31.77
  -1   1  -1   66.28    3.22
  -1   1  -1   70.34    4.36
   1   1   1   71.29    3.67
  -1   1  -2 2104.94   28.25
   1   1   2 1890.90   23.56
  -1   1  -2 2365.21   34.78
  -1   1  -2 1936.33   36.59
   1   1   2 2258.87   32.65
  -1   1  -3   94.66    7.02
  -1   1  -3   91.69    5.39
  -1   1  -3   76.43    6.19
  -1   1  -4  770.93   19.17
   1   1   4  760.46   23.28
  -1   1  -4  770.87   23.41
   1   1   5  152.04   11.99
  -1   1  -5  165.56   11.31
  -1   1  -5  163.40    8.70
  -1   1  -6 1120.41   30.90
  -1   1  -6 1120.51   32.68
  -1   1  -6 1162.41   34.56
  -1   1  -6 1230.89   31.20
   1   1   6 1184.61   38.85
  -1   1  -7   83.57    8.38
   1   1   7   84.00   10.77
  -1   1  -7   85.60    8.80
  -1   1  -8  854.85   28.95
  -1   1  -8  778.36   27.66
  -1   1  -9  244.77   14.48
  -1   1  -9  265.93   15.78
  -1   1 -10   43.16    5.79
  -1   1 -11   20.60    3.38
  -1   2  11  198.00   11.91
   1   2 -11  246.29   11.52
   1   2 -10  228.34   14.88
  -1   2  10  209.13   11.68
   1   2  -9   50.27    6.72
  -1   2   9   44.35    5.85
   1   2  -9   47.69    7.13
   1   2  -8 1247.12   34.49
  -1   2   8 1135.19   31.95
   1   2  -8 1180.40   35.11
  -1   2   7  418.83   20.53
   1   2  -7  412.57   18.41
  -1   2   7  390.65   17.60
   1   2  -7  445.07   19.22
   1   2  -6   24.09    3.97
  -1   2   6   29.31    4.84
   1   2  -5   77.15    6.98
  -1   2   5   69.96    6.69
   1   2  -4 2802.37   46.11
  -1   2   4 2520.42   41.08
  -1   2   3 3280.84   42.68
   1   2  -3 3577.69   51.81
   1   2  -2  516.39   15.90
  -1   2   2  539.41   10.00
  -1   2   1 1678.35   22.35
   1   2  -1 1628.76   17.99
  -1   2   0 1600.08   21.02
  -1   2  -1 7939.91   80.19
  -1   2  -2 1129.04   19.54
   1   2   2 1091.27   21.45
  -1   2  -3 3590.93   53.50
  -1   2  -3 3515.08   45.97
   1   2   4  807.45   24.08
  -1   2  -4  853.93   25.07
  -1   2  -5   89.71    6.93
   1   2   5  105.27    9.83
  -1   2  -5   99.65    9.36
  -1   2  -6  452.71   21.34
  -1   2  -6  409.00   17.74
  -1   2  -6  442.19   20.87
   1   2   6  421.37   22.51
  -1   2  -7 1153.20   32.77
  -1   2  -7 1091.11   29.41
   1   2   7 1156.88   41.14
  -1   2  -7 1180.13   32.58
  -1   2  -8  277.39   15.99
  -1   2  -8  251.22   13.40
  -1   2  -8  253.68   15.07
  -1   2  -9   60.10    7.28
  -1   2  -9   54.49    6.58
  -1   2 -10  149.27   10.62
  -1   2 -11   13.90    2.74
  -1   3  11    7.77    2.35
   1   3 -11   13.43    2.61
   1   3 -10  155.12   10.91
   1   3 -10  133.37   11.07
   1   3  -9  751.45   26.96
   1   3  -9  680.69   26.39
   1   3  -8  479.11   21.09
   1   3  -8  421.52   19.75
   1   3  -7   52.59    6.86
   1   3  -7   51.71    6.36
   1   3  -7   56.18    6.85
   1   3  -6  587.86   21.45
  -1   3   6  579.34   21.20
  -1   3   5 1492.58   32.42
   1   3  -5 1758.64   37.86
   1   3  -4  549.06   19.43
  -1   3   4  485.35   14.50
   1   3  -3 1209.67   20.10
  -1   3   3 1310.38   20.46
   1   3  -2 1773.18   33.35
   1   3  -2 1381.05   19.28
  -1   3   1 1062.60   18.37
   1   3  -1 1053.51   13.96
  -1   3   0  964.21   16.66
   1   3   0  999.73   14.11
  -1   3  -1 4834.44   54.44
   1   3   2 2368.32   35.02
  -1   3  -2 2162.99   32.17
  -1   3  -3  180.88    8.41
   1   3   3  175.90    9.31
   1   3   4  242.41   12.78
  -1   3  -4  231.15   10.71
  -1   3  -4  243.77   13.50
  -1   3  -5 1385.34   37.27
   1   3   5 1387.18   37.58
  -1   3  -6  410.26   20.44
  -1   3  -6  375.94   16.67
   1   3   6  411.08   22.20
  -1   3  -6  388.79   17.12
  -1   3  -6  428.71   21.92
  -1   3  -7   47.78    7.31
  -1   3  -7   48.63    6.32
  -1   3  -7   51.24    6.41
  -1   3  -7   47.25    5.94
   1   3   7   47.08    7.86
  -1   3  -8  294.10   14.85
  -1   3  -8  308.21   16.62
  -1   3  -8  269.14   15.08
  -1   3  -9  336.76   16.94
  -1   3  -9  307.41   13.96
  -1   3 -10   29.91    4.56
  -1   3 -11   33.76    3.97
   1   4 -11  304.08   12.38
  -1   4  11  304.47   14.89
   1   4 -10  333.10   15.81
   1   4 -10  256.53   14.27
   1   4  -9  153.88   11.60
   1   4  -9  139.14   11.11
   1   4  -8  359.80   18.37
   1   4  -8  324.54   16.94
   1   4  -7  285.92   15.88
   1   4  -7  239.22   13.58
   1   4  -6  355.28   17.61
   1   4  -6  349.84   16.42
   1   4  -5   52.24    6.63
   1   4  -4 2749.01   52.38
   1   4  -3  696.33   14.94
   1   4  -3  832.29   25.13
  -1   4   2  100.75    5.77
   1   4  -2   92.11    4.33
   1   4  -1  314.75    7.51
  -1   4   1  335.60   10.28
   1   4   0 1306.31   19.11
  -1   4   0 1233.22   21.53
  -1   4  -1   40.07    3.34
   1   4   2  267.73   10.45
  -1   4  -2  307.13   10.82
  -1   4  -3 2415.33   38.31
   1   4   3 2436.29   41.17
   1   4   4 1209.05   30.58
  -1   4  -4 1263.78   27.72
  -1   4  -5   28.71    5.79
   1   4   5   25.36    4.76
  -1   4  -6  697.99   23.53
   1   4   6  713.23   29.63
  -1   4  -6  743.47   24.53
  -1   4  -7  468.01   24.66
  -1   4  -7  466.68   19.56
  -1   4  -7  455.76   19.53
  -1   4  -7  474.48   20.01
  -1   4  -8  351.65   16.59
  -1   4  -8  355.27   16.85
  -1   4  -8  382.45   18.34
  -1   4  -9   58.25    6.08
  -1   4  -9   57.08    6.81
  -1   4 -10  216.52   11.80
   1   5 -11   24.33    3.25
  -1   5  11   23.35    3.98
   1   5 -10  154.94   10.44
  -1   5  10  160.38   12.69
   1   5  -9  112.75    9.81
   1   5  -8  348.35   18.09
   1   5  -7  238.39   14.67
   1   5  -6  586.27   22.21
   1   5  -6  573.20   24.08
   1   5  -5  846.06   29.19
   1   5  -4   10.72    2.07
   1   5  -4   12.21    3.36
   1   5  -3   69.21    4.67
   1   5  -3   83.62    8.45
  -1   5   2 2038.83   33.74
   1   5  -2 1994.14   28.86
  -1   5   1 1044.06   21.55
   1   5  -1 1042.77   17.46
  -1   5   0  193.96    8.38
   1   5   0  190.72    6.94
  -1   5  -1 1895.38   30.04
   1   5   1 1722.34   27.28
  -1   5  -2  956.10   21.84
   1   5   2  978.03   22.01
   1   5   3    4.23    1.52
  -1   5  -3    6.14    1.74
   1   5   4  118.90    9.28
  -1   5  -4  122.06    8.44
  -1   5  -5 1743.12   42.19
   1   5   5 1706.06   43.00
  -1   5  -5 1666.80   36.81
  -1   5  -5 1868.48   47.59
  -1   5  -5 1952.24   39.58
  -1   5  -6  114.11   12.11
  -1   5  -6  124.24   10.07
  -1   5  -6  108.57    9.04
  -1   5  -7   15.19    3.53
  -1   5  -7   19.92    3.83
  -1   5  -7   13.19    3.27
  -1   5  -7   18.85    3.96
  -1   5  -8   27.28    4.62
  -1   5  -8   25.78    4.39
  -1   5  -9  462.33   17.00
  -1   5  -9  442.43   18.12
  -1   5 -10   67.28    5.91
  -1   6  11  314.43   13.31
   1   6 -11  311.80   10.91
   1   6 -10   12.00    2.67
  -1   6  10   12.79    3.16
   1   6  -9  112.31    9.52
   1   6  -8   47.97    6.59
   1   6  -7 1016.09   31.55
   1   6  -6  365.48   17.78
   1   6  -5  424.34   21.59
   1   6  -5  375.10   17.21
   1   6  -4  544.02   16.19
  -1   6   4  600.50   20.13
   1   6  -3  170.58    7.97
  -1   6   3  168.28    9.80
  -1   6   2  188.09    9.71
   1   6  -2  181.10    7.72
   1   6  -1 1261.29   21.70
  -1   6   1 1245.47   26.24
  -1   6   0 2325.24   36.50
   1   6   0 2124.32   31.86
  -1   6  -1  597.54   16.67
   1   6   1  600.65   15.64
  -1   6  -2   90.75    6.64
   1   6   2   81.08    6.20
   1   6   2  104.01    6.60
   1   6   3  186.39   10.63
  -1   6  -3  232.10   11.34
  -1   6  -4 1710.51   36.53
  -1   6  -5  141.65    9.92
  -1   6  -5  166.65   11.24
  -1   6  -5  133.62   11.07
  -1   6  -5  160.82   13.93
  -1   6  -6  571.70   23.01
  -1   6  -6  572.34   28.43
  -1   6  -6  546.23   20.67
  -1   6  -7  245.61   13.76
  -1   6  -7  259.57   14.98
  -1   6  -8   86.10    8.05
  -1   6  -8   87.91    7.90
  -1   6  -9    7.70    2.18
  -1   6  -9    6.36    2.04
  -1   6 -10  157.60    7.94
  -1   7  10  128.17    9.96
   1   7 -10  121.66    8.03
   1   7  -9  122.17    9.52
   1   7  -8   77.27    8.10
   1   7  -7   34.35    5.56
  -1   7   6  969.50   31.49
   1   7  -6  921.81   29.46
   1   7  -5  401.47   22.59
   1   7  -5  393.40   18.15
  -1   7   5  422.33   19.04
   1   7  -4   95.91   10.79
   1   7  -4   79.28    6.25
  -1   7   4   86.51    8.08
   1   7  -3   27.95    3.47
   1   7  -3   30.29    5.97
  -1   7   3   35.52    4.93
  -1   7   2 1269.91   29.46
   1   7  -2 1219.20   24.16
   1   7  -1 2090.13   32.68
  -1   7   1 2167.28   38.53
  -1   7   0  318.15   12.71
   1   7   0  270.57   10.24
   1   7   1  531.39   15.61
  -1   7  -1  528.59   17.17
  -1   7  -2  655.08   20.20
   1   7   2  631.28   18.61
   1   7   3  421.71   15.97
  -1   7  -3  418.67   16.57
  -1   7  -4  118.30    9.24
  -1   7  -4  101.81    8.15
  -1   7  -5 1059.16   38.52
  -1   7  -5  958.74   27.93
  -1   7  -6  292.05   16.34
  -1   7  -6  286.82   14.21
  -1   7  -7   11.42    2.84
  -1   7  -7   10.22    2.68
  -1   7  -8   34.17    4.83
  -1   7  -8   33.12    4.48
  -1   7  -9  303.36   12.53
   1   8 -10  119.65    7.08
  -1   8  10  114.49    8.16
   1   8  -9   15.52    3.10
  -1   8   9   13.38    3.47
   1   8  -8   91.45    8.45
   1   8  -7  526.73   21.78
   1   8  -6  141.74   11.24
   1   8  -5  618.41   29.54
  -1   8   5  652.02   24.95
   1   8  -5  569.49   22.44
  -1   8   4  256.14   14.70
   1   8  -4  296.73   20.39
   1   8  -3  688.95   30.62
  -1   8   3  599.24   21.80
  -1   8   2  449.72   17.69
   1   8  -1  553.14   16.25
  -1   8   1  637.50   20.39
  -1   8   0  746.14   21.98
   1   8   0  711.06   18.60
   1   8   1  105.20    7.20
  -1   8  -1  110.28    8.28
  -1   8  -2   86.92    7.63
   1   8   2   73.54    6.43
  -1   8  -2   69.05    6.69
   1   8   3  416.32   16.76
  -1   8  -3  393.75   16.58
  -1   8  -4 1044.27   29.90
   1   8   4  927.85   26.96
  -1   8  -5  120.87   10.21
   1   8   5   98.90    9.14
  -1   8  -5  104.23   12.23
  -1   8  -6  313.84   17.06
  -1   8  -7  328.28   16.36
  -1   8  -8   80.15    7.08
  -1   8  -9   89.92    6.09
  -1   9   9   79.56    7.35
   1   9  -9   78.82    6.24
   1   9  -8  169.43   10.66
  -1   9   8  146.08   11.83
   1   9  -7   10.81    2.89
  -1   9   7    8.86    3.82
   1   9  -6  654.46   24.05
  -1   9   6  611.33   27.10
   1   9  -5  367.75   17.92
   1   9  -4  334.43   16.63
  -1   9   4  373.26   18.70
   1   9  -4  397.53   24.92
  -1   9   3  247.36   14.33
   1   9  -3  260.45   19.80
  -1   9   2  588.46   21.94
  -1   9   1  554.67   20.36
  -1   9   0   68.47    6.84
  -1   9  -1  710.04   23.51
  -1   9  -1  845.16   25.55
  -1   9  -2  161.81   11.26
  -1   9  -2  135.78    9.79
  -1   9  -3  244.79   13.38
  -1   9  -3  284.45   15.19
  -1   9  -4  101.12    9.30
  -1   9  -4   90.50    8.00
  -1   9  -6  178.26   12.44
  -1   9  -7   34.40    4.96
  -1   9  -8  150.60    9.05
  -1   9  -9   37.09    3.30
   1  10  -9   22.71    2.79
   1  10  -8  220.12   10.80
  -1  10   8  194.08   11.36
  -1  10   7  271.55   15.31
   1  10  -7  328.26   14.95
   1  10  -6   38.40    5.54
   1  10  -5  232.48   13.58
   1  10  -4  443.33   18.92
  -1  10   3  772.66   26.83
   1  10  -3  835.99   37.54
   1  10  -2  196.51   18.12
  -1  10   2  164.54   11.71
  -1  10   1  295.63   15.52
  -1  10   0 1072.53   30.57
  -1  10  -1  554.62   21.07
  -1  10  -1  641.59   23.22
  -1  10  -2   71.06    7.74
  -1  10  -2   63.74    6.79
  -1  10  -3  396.02   17.00
  -1  10  -6  223.79   13.20
  -1  10  -7  223.93   11.67
  -1  10  -8    9.79    1.93
   1  11  -8   77.03    5.22
   1  11  -7   47.60    4.90
   1  11  -6  193.19   10.92
   1  11  -5  410.26   16.94
   1  11  -4  106.64    8.67
  -1  11   0   15.80    3.60
  -1  11  -1  230.59   13.33
  -1  11  -2  628.65   21.72
  -1  11  -3   80.02    7.22
  -1  11  -5  193.06   12.22
  -1  11  -6  225.19   11.82
  -1  11  -7    5.85    1.76
   1  12  -7  158.62    6.98
   1  12  -6   19.01    2.72
   1  12  -5   86.83    6.60
  -1  12   0  445.55   18.49
  -1  12  -1  145.64   10.09
  -1  12  -2  175.05   10.47
  -1  12  -5   13.05    2.62
  -1  12  -6   56.08    4.97
  -1  13   2  334.08   14.73
  -1  13   1   32.06    4.41
  -1  13   0   47.00    5.31
  -1  13  -1   79.10    6.50
  -1  13  -4   49.00    4.89
  -1  13  -5  133.90    7.20
  -1  14   4  100.51    5.97
  -1  14   3   47.40    4.37
  -1  14   2  110.45    6.96
  -1  14   1  142.05    7.79
  -1  14   0   56.14    4.61
  -1  14  -2    2.92    1.21
  -1  14  -3  281.19   10.18
  -2 -14   4  168.72    8.68
  -2 -14   3   86.54    6.50
  -2 -14   2   14.66    2.78
   2 -14  -1  265.60   11.09
   2 -14   0  236.30   10.77
   2 -14   0  225.34   11.62
   2 -14   1   31.77    4.07
   2 -14   1   33.38    3.95
   2 -14   2    7.09    1.69
  -2 -13   6  177.13    8.81
  -2 -13   5  138.81    9.14
  -2 -13   4   50.06    5.80
   2 -13  -3   45.46    4.92
  -2 -13   3   40.35    5.43
   2 -13  -2  465.02   17.74
  -2 -13   2  483.61   19.14
   2 -13  -1  189.21   11.50
  -2 -13   1  186.26   11.43
   2 -13   0  211.77   12.42
  -2 -13   0  159.57   12.06
  -2 -13  -1  110.61   10.22
   2 -13   1  145.29   10.17
   2 -13   2  174.84   10.98
   2 -13   2  189.21   11.27
  -2 -13  -2  166.37   12.19
   2 -13   3  171.33   10.02
  -2 -13  -3  147.51   10.78
   2 -13   3  140.34    8.49
  -2 -13  -4   57.22    5.96
  -2 -12   7  248.13   10.86
  -2 -12   6   37.99    5.05
  -2 -12   5  174.22   11.95
  -2 -12   4  135.82   11.00
   2 -12  -4  134.58    9.30
   2 -12  -3  184.26   11.82
  -2 -12   3  214.37   14.29
   2 -12  -2   70.50    7.50
  -2 -12   2   74.29    8.21
  -2 -12   1  183.07   14.72
   2 -12  -1  211.99   13.68
  -2 -12   1  209.10   13.61
  -2 -12   0  306.21   19.48
  -2 -12   0  327.48   16.30
  -2 -12  -1   50.96    7.94
   2 -12   1   46.83    6.62
   2 -12   2   20.68    4.38
  -2 -12  -2   19.67    4.76
   2 -12   3  239.06   13.59
   2 -12   3  271.57   14.78
  -2 -12  -3  272.94   17.44
  -2 -12  -4  307.69   17.38
  -2 -12  -5   33.41    5.06
   2 -11  -8   96.27    8.00
  -2 -11   7   43.86    5.58
   2 -11  -7   36.03    5.77
   2 -11  -6  397.86   14.87
  -2 -11   6  354.17   17.82
  -2 -11   5  200.29   14.13
   2 -11  -5  154.70   13.34
   2 -11  -4   40.37    5.73
  -2 -11   4   40.00    6.17
   2 -11  -3   58.55    5.90
   2 -11  -3   61.77    7.40
  -2 -11   3   60.85    8.13
   2 -11  -2  559.11   23.33
   2 -11  -2  528.92   19.37
  -2 -11   2  563.59   24.90
   2 -11  -1  325.22   15.47
  -2 -11   1  310.27   20.72
   2 -11  -1  346.75   18.34
  -2 -11   1  316.75   18.01
   2 -11   0  181.85   13.41
  -2 -11   0  159.33   15.13
  -2 -11   0  152.00   11.84
  -2 -11  -1   44.99    8.19
   2 -11   1   57.09    7.62
   2 -11   2  275.23   16.84
  -2 -11  -2  276.47   19.88
  -2 -11  -3   61.33    8.98
   2 -11   3   59.72    7.41
   2 -11   4  121.86   10.21
   2 -11   4  104.85    8.54
  -2 -11  -4  105.55   11.38
  -2 -11  -5  313.33   18.26
  -2 -11  -6  104.60    8.98
   2 -10  -9  133.79    9.43
   2 -10  -8   82.74    9.22
  -2 -10   8   77.39    6.86
  -2 -10   7  219.64   14.04
   2 -10  -7  194.94   15.75
  -2 -10   6  145.90   12.29
   2 -10  -6  111.85   12.59
   2 -10  -5   88.89   11.23
  -2 -10   5   98.19   10.49
  -2 -10   4  408.97   21.72
   2 -10  -3  309.76   14.45
  -2 -10   3  307.19   18.81
  -2 -10   2  186.91   16.17
   2 -10  -2  210.87   12.34
  -2 -10   2  211.71   15.35
   2 -10  -1  623.30   22.14
  -2 -10   1  613.09   26.04
   2 -10  -1  645.42   25.57
  -2 -10   1  562.76   28.86
   2 -10  -1  569.57   27.68
   2 -10   0  419.75   18.47
   2 -10   0  383.16   22.56
  -2 -10   0  428.05   25.37
   2 -10   0  442.88   21.30
  -2 -10   0  413.66   20.33
   2 -10   1  570.49   24.62
   2 -10   1  545.13   21.47
  -2 -10  -1  549.95   29.31
  -2 -10  -2  417.11   25.54
   2 -10   2  456.35   22.06
   2 -10   3  611.43   25.67
  -2 -10  -3  579.68   30.30
  -2 -10  -4  329.48   21.98
   2 -10   4  332.34   15.43
   2 -10   4  343.48   18.57
  -2 -10  -5   34.95    6.59
   2 -10   5   35.55    4.68
  -2 -10  -6   94.87    9.82
   2 -10   6  102.33    7.19
  -2 -10  -7  311.33   14.63
   2 -10   7  336.72   11.10
   2  -9  -9  282.71   16.71
   2  -9  -8   41.82    7.45
  -2  -9   8   37.77    5.34
   2  -9  -7   46.69    8.52
  -2  -9   7   51.93    7.27
   2  -9  -6  325.29   23.21
  -2  -9   6  417.52   21.73
   2  -9  -5  823.31   36.72
  -2  -9   5  906.98   33.07
   2  -9  -4   90.37   10.80
   2  -9  -4   99.68   12.17
  -2  -9   4  122.08   11.72
   2  -9  -3  750.56   23.25
   2  -9  -3  770.59   32.14
  -2  -9   3  774.62   30.16
   2  -9  -2  454.79   18.16
  -2  -9   2  444.21   25.04
   2  -9  -2  463.53   24.21
  -2  -9   2  473.89   23.19
  -2  -9   1  264.46   19.46
   2  -9  -1  264.60   13.87
  -2  -9   1  258.12   16.51
   2  -9  -1  269.27   18.25
   2  -9   0   53.89    6.35
  -2  -9   0   62.02    9.53
   2  -9   0   56.18    7.36
   2  -9   0   52.58    7.89
  -2  -9   0   63.51    7.96
   2  -9   1 1391.31   35.08
  -2  -9  -1 1336.06   46.48
   2  -9   1 1391.76   38.72
   2  -9   1 1332.55   42.78
  -2  -9  -2  265.81   20.69
   2  -9   2  294.46   19.75
   2  -9   2  272.33   16.86
   2  -9   2  279.86   15.23
   2  -9   2  261.25   14.81
   2  -9   3  144.80   12.38
  -2  -9  -3  167.04   16.40
   2  -9   3  138.22   10.95
  -2  -9  -4  124.29   13.93
   2  -9   4  141.37   10.89
   2  -9   4  143.93   12.14
   2  -9   5  394.21   19.75
  -2  -9  -5  403.86   24.67
   2  -9   5  408.09   18.34
  -2  -9  -6  353.79   21.31
   2  -9   6  336.19   15.52
   2  -9   7    6.81    2.02
  -2  -9  -7    3.93    1.84
   2  -9   8  248.10    9.44
   2  -8 -10  133.71   10.39
   2  -8  -9   17.15    4.68
  -2  -8   9   17.33    2.84
   2  -8  -8  755.13   35.00
  -2  -8   8  692.93   25.79
  -2  -8   8  722.64   21.57
   2  -8  -7  418.92   27.20
  -2  -8   7  450.53   22.31
   2  -8  -6  126.37   15.08
  -2  -8   6  169.05   14.07
   2  -8  -5  168.37   16.58
   2  -8  -5  184.28   15.32
  -2  -8   5  195.21   14.93
   2  -8  -4 1594.57   50.67
  -2  -8   4 1716.88   45.80
   2  -8  -4 1613.05   46.75
   2  -8  -4 1622.30   34.66
  -2  -8   3  617.95   25.98
   2  -8  -3  607.91   20.30
  -2  -8   3  578.76   27.86
   2  -8  -3  633.27   27.58
  -2  -8   2  265.56   18.62
   2  -8  -2  269.09   13.42
   2  -8  -2  283.50   17.93
  -2  -8   2  265.11   16.50
  -2  -8   1  211.91   16.97
   2  -8  -1  206.47   11.81
   2  -8  -1  216.41   15.56
  -2  -8   1  222.86   14.86
  -2  -8   0  845.93   34.63
   2  -8   0  768.33   30.10
   2  -8   0  803.65   24.40
  -2  -8   0  784.33   27.78
   2  -8   1  467.59   23.67
   2  -8   1  495.98   21.28
  -2  -8  -1  521.11   27.59
   2  -8   1  480.60   19.08
   2  -8   2  227.41   13.41
  -2  -8  -2  240.49   19.45
   2  -8   2  219.33   14.82
   2  -8   2  261.53   14.83
   2  -8   3  607.51   25.30
  -2  -8  -3  619.19   32.08
   2  -8   3  542.33   22.74
   2  -8   4  227.72   15.44
  -2  -8  -4  228.93   19.59
   2  -8   4  219.27   14.26
   2  -8   5   22.96    4.78
  -2  -8  -5   27.07    6.78
   2  -8   5   26.55    4.81
  -2  -8  -6  184.89   16.02
   2  -8   6  206.40   13.13
   2  -8   7  552.99   20.04
  -2  -8  -7  554.60   24.57
   2  -8   8   27.74    3.68
   2  -7 -10  114.95   10.84
  -2  -7  10   98.85    6.70
   2  -7  -9  679.46   31.72
  -2  -7   9  666.03   21.18
  -2  -7   8   16.31    4.14
  -2  -7   8   14.05    3.29
   2  -7  -8   20.63    6.13
   2  -7  -7   42.75    9.07
  -2  -7   7   41.04    5.63
  -2  -7   7   42.56    6.95
   2  -7  -6  237.92   16.54
  -2  -7   6  192.22   14.97
   2  -7  -6  185.97   18.64
  -2  -7   6  189.48   11.63
   2  -7  -5  465.11   27.65
  -2  -7   5  391.16   21.10
   2  -7  -5  439.62   23.09
   2  -7  -4  210.59   11.39
   2  -7  -4  194.87   16.65
   2  -7  -4  214.64   15.45
  -2  -7   4  207.08   14.64
   2  -7  -3 1429.41   31.41
  -2  -7   3 1342.96   41.64
  -2  -7   3 1433.10   39.15
   2  -7  -3 1431.47   40.15
   2  -7  -2  691.49   26.46
  -2  -7   2  695.50   25.87
   2  -7  -1  206.74   14.20
  -2  -7   1  223.70   23.70
   2  -7   0  203.41   11.30
  -2  -7   0  221.43   23.92
  -2  -7   0  208.18   16.06
   2  -7   0  206.65   14.33
  -2  -7  -1 1319.68   43.02
   2  -7   1 1282.71   33.71
   2  -7   1 1284.42   30.72
  -2  -7  -1 1275.89   60.42
   2  -7   2 1172.76   30.11
  -2  -7  -2 1083.88   57.00
  -2  -7  -2 1205.85   42.60
   2  -7   2 1169.47   32.94
   2  -7   3  266.73   15.65
   2  -7   3  270.04   15.90
  -2  -7  -3  270.58   20.25
   2  -7   3  281.93   14.52
   2  -7   4  471.85   21.41
   2  -7   4  440.23   21.02
  -2  -7  -4  459.38   27.24
   2  -7   5  357.74   19.06
  -2  -7  -5  417.15   25.81
   2  -7   5  375.64   19.29
  -2  -7  -6  152.82   14.89
   2  -7   6  155.63   12.01
  -2  -7  -7   40.39    6.86
   2  -7   7   43.63    5.91
   2  -7   8  281.26   13.36
   2  -7   9   48.22    4.31
   2  -6 -11   64.94    6.74
  -2  -6  11   52.39    4.37
   2  -6 -10  337.07   20.33
  -2  -6  10  316.00   13.79
   2  -6  -9   51.68    9.14
  -2  -6   9   51.16    6.28
  -2  -6   8  300.57   17.76
   2  -6  -8  347.91   25.43
  -2  -6   8  335.53   16.67
   2  -6  -7  241.28   16.44
   2  -6  -7  229.24   21.03
  -2  -6   7  257.87   14.63
  -2  -6   7  228.72   16.06
  -2  -6   6  174.93   13.76
   2  -6  -6  176.86   14.01
  -2  -6   6  167.80   11.40
   2  -6  -5  111.58   11.09
  -2  -6   5  101.53   10.29
   2  -6  -4 2316.13   51.72
  -2  -6   4 2320.37   50.83
   2  -6  -3  293.80   16.32
  -2  -6   3  347.06   25.50
  -2  -6   2  406.24   28.08
   2  -6  -2  383.16   18.21
  -2  -6   1  188.50   19.51
   2  -6  -1  186.36   12.59
  -2  -6   0  904.62   44.38
  -2  -6  -1  325.69   27.50
  -2  -6  -2 1237.64   41.00
  -2  -6  -2 1128.64   53.83
   2  -6   3 1118.07   28.76
   2  -6   3 1095.98   31.49
  -2  -6  -3 1181.45   42.21
   2  -6   4  514.47   21.93
  -2  -6  -4  581.13   29.88
   2  -6   4  525.39   22.48
   2  -6   5  380.13   19.49
   2  -6   5  341.16   18.12
  -2  -6  -5  383.07   24.38
  -2  -6  -6  164.42   15.51
   2  -6   6  185.54   13.50
  -2  -6  -7  882.12   33.87
   2  -6   7  867.10   28.89
   2  -6   8   39.50    5.30
   2  -6   9   35.32    4.14
   2  -5 -11   18.71    3.98
  -2  -5  11   17.42    2.98
   2  -5 -10  115.68   12.54
  -2  -5  10  119.12    9.04
   2  -5  -9  589.18   31.95
  -2  -5   9  562.39   22.26
   2  -5  -8   73.89    7.79
   2  -5  -8   70.33   11.26
  -2  -5   8   68.86    7.81
   2  -5  -7  329.60   16.15
  -2  -5   7  294.66   15.98
   2  -5  -7  319.22   18.45
  -2  -5   6   20.87    5.21
   2  -5  -6   17.88    4.20
   2  -5  -6   18.93    3.64
  -2  -5   6   21.91    3.71
   2  -5  -5 1274.00   30.37
   2  -5  -5 1181.91   35.10
  -2  -5   5 1222.86   35.59
  -2  -5   4   62.52    8.86
   2  -5  -4   68.92    7.83
   2  -5  -3 1005.87   29.44
  -2  -5   3 1106.62   41.74
   2  -5  -2 1070.87   29.79
  -2  -5   2 1134.38   42.94
   2  -5  -1 1628.06   37.30
  -2  -5   1 1793.90   56.38
  -2  -5   0  310.80   23.37
  -2  -5  -1 1330.36   51.03
   2  -5   2 3156.89   52.19
  -2  -5  -2 3159.21   84.30
  -2  -5  -3  482.18   32.77
   2  -5   3  515.84   20.98
   2  -5   4  711.15   24.77
  -2  -5  -4  846.02   34.78
   2  -5   4  781.45   28.87
  -2  -5  -4  653.95   39.83
   2  -5   4  769.28   26.97
  -2  -5  -4  732.27   26.41
   2  -5   5  113.61    9.85
  -2  -5  -5  124.58   13.29
   2  -5   5  118.59   12.02
   2  -5   5  123.15   10.86
  -2  -5  -5  131.54   11.47
  -2  -5  -6  880.85   36.15
   2  -5   6  820.88   29.33
  -2  -5  -7  138.26   13.21
   2  -5   7  140.14   11.40
   2  -5   8  312.25   15.92
   2  -5   9   68.34    6.15
   2  -4 -11   85.40    8.80
  -2  -4  11   75.50    6.42
   2  -4 -10  209.74   17.23
   2  -4 -10  213.80   11.72
  -2  -4  10  229.27   13.17
   2  -4  -9   20.55    5.23
   2  -4  -9   21.50    4.16
  -2  -4   9   20.21    4.33
   2  -4  -8  347.86   17.11
  -2  -4   8  340.25   17.93
   2  -4  -7 1062.28   30.53
   2  -4  -7 1041.03   32.48
  -2  -4   7 1022.55   31.12
   2  -4  -6  107.64    9.72
  -2  -4   6  109.59    9.28
  -2  -4   6  110.92   10.46
   2  -4  -6  117.49    9.11
   2  -4  -6  122.63   10.30
   2  -4  -5  350.64   17.64
   2  -4  -5  388.96   17.43
   2  -4  -4  923.50   27.95
  -2  -4   4 1015.99   35.02
   2  -4  -4 1004.33   27.39
   2  -4  -3 1483.42   34.19
   2  -4  -3 1500.75   32.93
   2  -4  -2   12.92    2.95
   2  -4  -2   11.87    2.54
  -2  -4   2   17.07    5.14
   2  -4  -1 2499.59   40.98
  -2  -4   1 2611.69   61.69
  -2  -4   0 1541.77   47.04
   2  -4   0 1262.73   22.38
  -2  -4  -1 1666.04   51.57
   2  -4   1 1493.63   29.18
   2  -4   2   42.91    5.28
  -2  -4  -2   51.25    9.15
   2  -4   3  604.65   22.96
  -2  -4  -3  548.85   32.03
   2  -4   4  562.25   24.49
  -2  -4  -4  553.47   22.15
  -2  -4  -4  524.97   32.63
   2  -4   4  561.56   21.87
   2  -4   5  455.03   21.01
  -2  -4  -5  457.17   21.30
   2  -4   5  430.49   23.32
   2  -4   6  449.95   25.33
   2  -4   6  445.11   21.05
  -2  -4  -6  382.92   20.34
   2  -4   7  413.33   19.96
  -2  -4  -7  399.35   20.87
   2  -4   8  261.71   14.70
  -2  -4  -8  237.63   13.11
   2  -4   9   56.56    5.84
   2  -4  10  130.91    6.68
  -2  -3  12   71.96    4.83
   2  -3 -11  118.94   10.71
  -2  -3  11  115.02    8.26
   2  -3 -10  162.55   10.57
   2  -3 -10  161.69   15.47
  -2  -3  10  167.78   11.79
   2  -3  -9  178.10   12.16
  -2  -3   9  147.07   11.72
  -2  -3   8   35.89    5.75
   2  -3  -8   34.75    5.77
   2  -3  -8   26.41    5.03
  -2  -3   8   35.40    6.96
  -2  -3   7    4.83    2.75
   2  -3  -7   13.11    3.20
   2  -3  -7    7.25    2.68
  -2  -3   7   11.16    3.60
   2  -3  -7   13.16    3.48
  -2  -3   7   11.91    3.69
   2  -3  -6 1509.79   35.70
   2  -3  -6 1471.62   36.40
  -2  -3   6 1477.04   36.09
   2  -3  -6 1609.01   38.23
  -2  -3   6 1469.55   41.79
   2  -3  -5  707.44   23.37
  -2  -3   5  705.44   25.59
   2  -3  -4   64.66    6.46
  -2  -3   4   58.80    7.18
   2  -3  -4   54.60    6.10
   2  -3  -3  372.75   14.82
   2  -3  -3  360.17   14.73
   2  -3  -2 2286.61   40.06
   2  -3  -2 2221.97   38.54
   2  -3  -1 1251.07   25.33
   2  -3  -1 1221.41   18.88
   2  -3   0  212.17    8.87
   2  -3   0  188.12    7.54
  -2  -3   0  204.83   15.17
  -2  -3  -1 1009.68   35.83
   2  -3   1  891.76   21.02
  -2  -3  -2 2003.07   54.98
   2  -3   2 2046.83   38.89
   2  -3   3   14.58    3.57
  -2  -3  -3    6.97    3.62
  -2  -3  -4  201.48   18.30
   2  -3   4  261.19   16.50
   2  -3   5 1316.57   41.77
  -2  -3  -5 1251.86   35.47
   2  -3   5 1247.88   34.76
   2  -3   6  833.00   35.19
  -2  -3  -6  781.57   25.35
   2  -3   6  827.64   28.52
  -2  -3  -6  778.49   28.89
  -2  -3  -7   70.65    7.58
  -2  -3  -7   68.86    8.50
   2  -3   7   63.38    7.61
  -2  -3  -8   96.29    8.78
   2  -3   8  113.78    9.80
  -2  -3  -8   91.79    9.41
  -2  -3  -9  239.01   12.52
   2  -3   9  233.80   12.16
   2  -3  10   11.92    2.10
  -2  -2  12   84.19    5.42
   2  -2 -11  278.78   12.30
   2  -2 -11  248.80   15.72
  -2  -2  11  281.30   13.36
   2  -2 -10  146.57   10.44
  -2  -2  10  141.36   10.90
   2  -2 -10  136.30   14.26
   2  -2  -9  282.65   15.87
  -2  -2   9  287.09   16.58
   2  -2  -8  319.06   16.79
  -2  -2   8  293.03   16.73
   2  -2  -8  259.47   15.16
  -2  -2   8  270.08   19.30
  -2  -2   7 1124.92   32.86
   2  -2  -7 1151.35   33.10
   2  -2  -7 1148.50   32.00
   2  -2  -7 1186.62   32.65
  -2  -2   7 1099.48   37.30
   2  -2  -6   10.30    3.12
   2  -2  -6   11.86    2.88
  -2  -2   6   11.57    3.57
   2  -2  -5  450.10   17.53
   2  -2  -5  478.19   19.14
  -2  -2   5  420.16   19.12
   2  -2  -4  566.96   19.69
  -2  -2   4  556.58   20.49
   2  -2  -4  523.12   17.71
   2  -2  -3  738.53   19.72
   2  -2  -3  725.57   21.00
  -2  -2   3  722.55   25.28
   2  -2  -2  613.93   17.02
  -2  -2   2  652.87   24.60
   2  -2  -1 2757.49   41.69
  -2  -2   1 3021.06   58.77
   2  -2   0 1659.26   27.46
  -2  -2   0 1779.69   45.19
   2  -2   1 1227.89   20.18
   2  -2   1 1187.55   24.20
  -2  -2  -1 1172.99   37.42
  -2  -2  -2   73.92    9.30
   2  -2   2   71.83    6.39
   2  -2   3 1364.88   33.34
  -2  -2  -3 1223.46   40.67
  -2  -2  -4 1845.95   53.19
   2  -2   4 2062.66   47.94
   2  -2   5  258.10   17.96
  -2  -2  -5  273.10   13.57
   2  -2   5  264.86   14.89
  -2  -2  -5  249.47   14.69
  -2  -2  -6  326.58   17.99
   2  -2   6  319.82   21.77
  -2  -2  -6  329.05   16.08
   2  -2   7  600.69   23.76
  -2  -2  -7  594.27   25.71
  -2  -2  -7  634.86   23.52
  -2  -2  -8  118.15   10.00
  -2  -2  -8  119.49   10.86
   2  -2   8  107.13    9.31
  -2  -2  -9    1.32    0.88
   2  -2   9    1.49    0.67
  -2  -2 -10  377.28   13.54
   2  -2  10  324.70   10.68
   2  -1 -12  202.49    7.80
  -2  -1  12  192.20    8.25
   2  -1 -11   88.21    7.05
  -2  -1  11   80.49    7.13
   2  -1 -10  149.91   10.85
  -2  -1  10  146.72   11.18
   2  -1  -9  226.69   14.29
  -2  -1   9  204.12   13.89
   2  -1  -8  813.67   28.33
   2  -1  -8  809.24   27.35
  -2  -1   8  719.08   31.43
  -2  -1   8  797.88   28.05
   2  -1  -7   85.49    8.86
   2  -1  -7   77.57    7.89
   2  -1  -7   72.13    7.90
  -2  -1   7   76.22    8.04
   2  -1  -7   64.42    6.83
  -2  -1   7   61.47    8.36
   2  -1  -6 1305.27   30.02
  -2  -1   6 1245.45   36.25
   2  -1  -5  550.55   20.52
   2  -1  -5  516.59   17.09
  -2  -1   5  495.16   19.79
  -2  -1   4  595.17   19.84
   2  -1  -4  598.34   20.71
  -2  -1   4  634.90   21.35
   2  -1  -3  292.05   11.12
   2  -1  -3  310.58   13.76
  -2  -1   3  296.39   14.87
   2  -1  -2 4019.68   52.81
   2  -1  -2 4136.64   58.14
   2  -1  -1 1328.26   25.96
  -2  -1   1 1359.44   34.67
   2  -1   0  387.59   11.53
  -2  -1   0  409.83   19.05
  -2  -1  -1 1853.35   44.80
   2  -1   1 1932.29   26.54
  -2  -1  -2  676.89   27.28
   2  -1   2  688.94   19.87
  -2  -1  -3  855.53   32.18
   2  -1   3  934.59   26.68
   2  -1   4  708.06   25.98
  -2  -1  -4  616.79   27.44
  -2  -1  -5 1234.98   33.43
  -2  -1  -5 1274.13   33.92
   2  -1   5 1303.24   33.53
   2  -1   5 1347.90   41.87
  -2  -1  -6   10.63    3.46
  -2  -1  -6   15.34    3.99
  -2  -1  -6   12.95    2.82
   2  -1   6   19.82    5.27
   2  -1   6   14.18    4.52
  -2  -1  -7    3.53    2.11
  -2  -1  -7    1.54    1.59
   2  -1   7    1.14    0.76
   2  -1   7   -2.63    2.28
   2  -1   8  151.26   10.73
  -2  -1  -8  156.35   11.54
  -2  -1  -8  154.91   12.31
  -2  -1  -9  535.14   20.52
   2  -1   9  518.75   17.56
  -2  -1  -9  506.90   20.59
  -2  -1 -10   47.55    5.01
   2   0 -12  175.78    7.59
  -2   0  12  148.76    6.94
   2   0 -11  206.49   11.20
  -2   0  11  172.55   10.38
   2   0 -10   21.59    4.22
  -2   0  10   20.00    4.25
  -2   0  10   13.14    3.08
   2   0  -9   33.64    5.50
   2   0  -9   38.86    6.04
  -2   0   9   37.71    6.17
  -2   0   9   33.82    5.69
   2   0  -8  673.96   25.02
   2   0  -8  600.82   26.32
  -2   0   8  600.10   25.55
  -2   0   8  569.79   27.01
  -2   0   8  677.39   25.49
   2   0  -7 2812.65   58.62
   2   0  -7 3146.99   57.10
  -2   0   7 2956.72   59.41
  -2   0   7 2723.24   60.16
  -2   0   7 3119.19   57.87
   2   0  -7 3214.36   59.11
   2   0  -6  155.33   11.38
  -2   0   6  127.94   10.67
   2   0  -6  132.08    8.35
   2   0  -5 1842.07   32.37
  -2   0   5 1784.34   39.20
   2   0  -4   45.97    4.18
   2   0  -4   52.19    6.21
  -2   0   4   47.43    5.56
  -2   0   3 2860.77   49.63
   2   0  -3 2816.95   48.24
   2   0  -2  463.72   11.71
   2   0  -2  448.36   15.61
  -2   0   2  483.16   18.61
  -2   0   1 2149.57   32.65
   2   0  -1 2043.88   34.87
  -2   0   0 2292.16   36.40
   2   0   0 2321.26   34.81
  -2   0  -1   28.26    5.16
  -2   0  -1   22.90    2.17
  -2   0  -1   29.76    3.78
   2   0   1   25.84    2.55
  -2   0  -2  138.62   11.42
  -2   0  -2  148.88    8.91
   2   0   2  155.88    9.03
  -2   0  -3   75.69    6.58
   2   0   3   70.26    6.91
  -2   0  -3   55.29    7.58
  -2   0  -4 2259.98   42.67
   2   0   4 2143.80   47.39
  -2   0  -5   11.23    3.54
  -2   0  -5    8.80    2.47
   2   0   5   11.43    3.64
  -2   0  -6 1508.29   36.34
  -2   0  -6 1448.57   40.41
   2   0   6 1481.06   48.24
  -2   0  -6 1423.49   37.83
   2   0   6 1400.66   35.34
  -2   0  -7    9.65    2.60
  -2   0  -7   11.19    3.26
   2   0   7    6.97    3.12
   2   0   7   10.66    3.09
  -2   0  -8  186.17   12.74
  -2   0  -8  189.30   13.50
  -2   0  -9    8.77    2.62
  -2   0  -9    8.49    2.82
  -2   0 -10  320.56   13.56
   2   1 -12  214.16    8.58
   2   1 -11   79.63    7.01
  -2   1  11   74.93    6.38
   2   1 -10  124.55    9.79
   2   1 -10  155.97   11.30
  -2   1  10  128.02   11.29
  -2   1  10  130.22   10.17
   2   1  -9  203.92   14.43
  -2   1   9  216.00   14.25
   2   1  -9  225.17   14.34
  -2   1   9  233.10   16.18
  -2   1   8  731.30   29.33
   2   1  -8  802.41   27.64
   2   1  -8  658.34   27.06
  -2   1   8  655.66   28.21
  -2   1   8  743.66   26.61
   2   1  -7   79.31    8.20
   2   1  -7   77.55    8.48
  -2   1   7   69.30    8.33
  -2   1   7   79.44    8.11
   2   1  -7   65.44    7.84
   2   1  -6 1389.76   36.76
  -2   1   6 1101.83   31.96
  -2   1   5  512.09   18.71
   2   1  -5  445.15   13.00
  -2   1   4  591.80   21.13
   2   1  -4  620.45   22.26
  -2   1   3  313.90   15.38
   2   1  -3  335.86   15.17
   2   1  -3  283.63    8.17
  -2   1   2 3608.81   47.06
   2   1  -2 3728.64   41.24
  -2   1   2 3590.79   41.11
   2   1  -1 1293.56   27.61
  -2   1   1 1298.49   17.65
  -2   1   1 1293.14   24.39
   2   1   0  347.68   12.14
  -2   1   0  343.83   12.27
  -2   1   0  350.74   17.42
  -2   1   0  329.25    8.12
  -2   1  -1 1861.08   26.50
  -2   1  -1 1908.17   34.27
  -2   1  -1 1928.56   44.81
  -2   1  -2  555.36   18.04
  -2   1  -2  576.18   18.23
   2   1   2  616.81   18.45
  -2   1  -2  558.66   14.02
  -2   1  -3  960.07   25.33
  -2   1  -3  917.69   25.97
   2   1   3 1002.35   27.07
  -2   1  -4  695.20   24.51
   2   1   4  753.50   26.36
  -2   1  -4  745.77   23.22
   2   1   5 1280.85   39.87
  -2   1  -5 1334.67   35.22
  -2   1  -5 1386.21   33.56
  -2   1  -5 1235.10   32.67
  -2   1  -6   13.02    3.77
  -2   1  -6    3.11    1.23
   2   1   6    9.49    4.21
  -2   1  -7    0.46    0.55
   2   1   7   -1.99    2.20
  -2   1  -8  165.46   12.00
  -2   1  -8  158.99   12.17
  -2   1  -9  544.08   20.89
  -2   1  -9  519.70   20.27
  -2   1 -10   44.61    4.94
   2   2 -12   96.22    5.64
  -2   2  11  208.92   12.41
  -2   2  11  220.67   10.27
   2   2 -10  118.95    9.89
   2   2 -10  144.04   10.82
  -2   2  10  111.98   10.85
  -2   2  10  119.43    9.29
  -2   2   9  244.68   17.25
   2   2  -9  267.13   15.73
  -2   2   9  228.39   14.31
   2   2  -8  310.89   17.08
  -2   2   8  309.06   16.54
   2   2  -7 1125.85   32.12
  -2   2   7 1069.69   30.87
   2   2  -7 1111.66   34.48
   2   2  -6    5.48    1.86
  -2   2   6    9.48    2.85
   2   2  -5  448.73   20.37
  -2   2   5  396.49   15.77
   2   2  -4  607.38   22.82
   2   2  -3  789.37   24.76
  -2   2   3  707.97   15.73
   2   2  -2  530.87   18.99
  -2   2   2  501.04   11.61
   2   2  -1 2437.30   42.26
  -2   2   1 2220.46   29.26
  -2   2   0 1377.39   21.36
   2   2   0 1380.01   29.12
  -2   2  -1 1013.31   23.57
  -2   2  -1  942.78   17.86
  -2   2  -2   68.81    6.64
   2   2   2   53.85    4.22
  -2   2  -2   74.09    5.08
  -2   2  -2   66.97    8.42
   2   2   2   75.43    6.34
  -2   2  -3 1316.03   26.61
  -2   2  -3 1347.27   34.11
   2   2   3 1359.20   32.49
  -2   2  -3 1360.78   32.01
  -2   2  -4 1942.49   45.07
   2   2   4 1976.28   45.41
  -2   2  -4 2056.95   42.22
  -2   2  -5  235.27   13.43
  -2   2  -5  214.74   14.77
  -2   2  -5  248.72   13.97
   2   2   5  237.61   16.46
  -2   2  -5  255.19   14.96
   2   2   6  294.23   20.51
  -2   2  -6  332.16   17.32
  -2   2  -6  328.42   18.78
  -2   2  -7  624.96   23.70
  -2   2  -7  591.58   23.98
  -2   2  -8  118.60   10.09
  -2   2  -8  127.56   10.63
  -2   2  -9    2.78    1.40
  -2   2  -9    2.27    0.98
  -2   2 -10  385.96   14.69
   2   3 -12   85.58    5.09
  -2   3  11  101.04    8.55
   2   3 -11  112.13    8.07
  -2   3  10  147.22   12.48
   2   3 -10  170.30   11.67
   2   3  -9  165.03   12.31
  -2   3   9  147.00   10.80
  -2   3   9  173.32   14.88
   2   3  -8   33.70    5.67
  -2   3   8   33.83    5.28
   2   3  -8   39.38    6.07
   2   3  -7    6.74    3.07
  -2   3   7    7.89    2.54
   2   3  -7    7.11    2.60
   2   3  -7    9.20    3.15
   2   3  -6 1392.83   40.44
   2   3  -6 1375.91   34.07
   2   3  -5  693.01   26.94
   2   3  -4   68.37    7.75
  -2   3   3  281.85   10.36
   2   3  -3  322.69   16.33
   2   3  -2 2113.90   43.12
  -2   3   2 1902.73   29.75
  -2   3   1 1085.29   20.08
  -2   3   1 1059.74   19.27
  -2   3   0  163.44    8.37
  -2   3   0  158.32    6.61
   2   3   0  143.95    9.56
  -2   3  -1  881.02   18.34
  -2   3  -1  921.32   23.97
  -2   3  -2 2094.88   41.85
  -2   3  -2 1989.07   32.04
  -2   3  -3    3.81    1.57
  -2   3  -3    4.40    1.47
   2   3   3    8.37    2.55
  -2   3  -4  220.16   14.76
  -2   3  -4  234.60   11.70
  -2   3  -4  221.38   13.39
   2   3   4  192.51   13.29
  -2   3  -5 1175.97   33.14
  -2   3  -5 1214.97   38.20
  -2   3  -5 1199.50   34.70
   2   3   5 1127.79   36.95
  -2   3  -5 1091.44   30.71
  -2   3  -6  752.19   30.63
  -2   3  -6  759.32   29.23
   2   3   6  711.11   32.28
  -2   3  -6  724.16   25.95
  -2   3  -7   64.03    7.30
  -2   3  -7   66.28    7.73
  -2   3  -8  115.00    9.80
  -2   3  -8  105.40    9.43
  -2   3  -9  224.27   12.14
  -2   3  -9  244.03   13.00
  -2   3 -10   13.96    2.59
   2   4 -11   89.86    6.85
  -2   4  11   75.84    7.46
  -2   4  10  206.16   14.77
   2   4 -10  212.52   12.71
   2   4  -9   21.96    4.52
  -2   4   9   23.08    5.58
   2   4  -8  297.64   16.81
   2   4  -7  901.91   28.96
   2   4  -7  896.75   33.56
   2   4  -6  118.52   11.85
   2   4  -6  119.41    9.62
   2   4  -5  343.37   19.33
   2   4  -4  937.40   31.93
  -2   4   4  914.06   22.79
   2   4  -3 1431.44   38.51
  -2   4   3 1340.37   26.73
  -2   4   2   22.07    2.85
   2   4  -2   19.75    4.13
  -2   4   1 2005.14   32.39
  -2   4   1 2013.58   31.76
   2   4   0 1231.21   31.94
  -2   4   0 1240.49   27.00
   2   4   1 1384.06   33.39
  -2   4  -1 1386.25   31.77
   2   4   2   23.16    3.93
  -2   4  -2   20.69    4.08
  -2   4  -2   24.90    3.28
  -2   4  -3  539.14   22.73
  -2   4  -3  527.32   17.32
  -2   4  -3  440.64   23.47
   2   4   3  467.36   18.99
  -2   4  -4  523.85   24.34
  -2   4  -4  508.96   18.29
  -2   4  -4  505.34   20.16
  -2   4  -4  465.23   18.22
  -2   4  -5  446.65   23.54
  -2   4  -5  426.88   20.35
   2   4   5  416.46   22.07
  -2   4  -5  422.44   20.12
  -2   4  -5  414.49   18.44
  -2   4  -6  367.85   16.45
  -2   4  -6  372.58   22.05
  -2   4  -6  400.70   21.18
   2   4   6  331.77   21.52
  -2   4  -6  366.37   17.86
  -2   4  -7  389.54   16.43
  -2   4  -7  396.18   18.86
  -2   4  -8  252.66   14.23
  -2   4  -8  237.06   13.74
  -2   4  -9   60.74    6.23
  -2   4  -9   47.98    5.16
  -2   4 -10  130.05    7.44
   2   5 -11   21.34    3.14
  -2   5  11   21.24    3.77
  -2   5  10  103.10   10.16
   2   5 -10  110.83    8.67
   2   5  -9  533.49   21.75
  -2   5   9  546.31   26.68
   2   5  -8   65.27    7.69
  -2   5   8   78.38   10.45
   2   5  -7  250.56   14.88
   2   5  -7  231.44   17.11
   2   5  -6   18.60    5.40
   2   5  -6   20.93    4.21
   2   5  -5 1256.27   40.46
  -2   5   5 1277.20   31.47
   2   5  -4   55.44    7.86
  -2   5   4   60.73    6.03
   2   5  -3  949.27   32.48
  -2   5   3  940.75   23.47
  -2   5   2  950.90   22.35
   2   5  -2 1008.52   32.32
  -2   5   1 1418.98   26.91
   2   5  -1 1500.83   38.76
  -2   5   0  260.11   10.42
   2   5   0  233.41   14.47
  -2   5   0  217.24   11.34
  -2   5  -1 1084.77   23.60
  -2   5  -1  991.20   28.03
  -2   5  -2 3001.97   46.74
  -2   5  -2 2667.49   54.08
  -2   5  -3  461.84   16.95
   2   5   3  400.04   18.03
  -2   5  -3  434.86   21.24
  -2   5  -4  735.54   30.39
  -2   5  -4  732.05   23.21
   2   5   4  641.95   25.65
  -2   5  -4  693.78   24.91
  -2   5  -4  679.58   22.96
  -2   5  -5  113.89   12.33
  -2   5  -5  111.31   10.76
  -2   5  -5  121.27   11.20
   2   5   5  109.71   11.28
  -2   5  -5  119.85    9.94
  -2   5  -6  748.45   32.85
  -2   5  -6  736.69   29.37
  -2   5  -6  767.99   25.12
  -2   5  -6  769.36   26.37
  -2   5  -7  129.35   10.17
  -2   5  -7  107.97    8.63
  -2   5  -7  104.58    9.22
  -2   5  -8  242.30   11.43
  -2   5  -8  267.80   14.00
  -2   5  -8  255.82   13.55
  -2   5  -9   57.45    5.67
  -2   6  11   58.24    5.63
   2   6 -11   53.65    4.50
   2   6 -10  291.18   13.52
  -2   6  10  328.40   17.47
   2   6  -9   56.64    6.66
  -2   6   9   70.40    9.30
   2   6  -8  298.17   16.41
  -2   6   8  299.69   20.52
  -2   6   7  211.26   17.28
  -2   6   7  225.27   14.98
   2   6  -7  206.54   13.62
   2   6  -6  166.91   15.03
   2   6  -6  127.44   10.29
  -2   6   6  182.66   12.70
  -2   6   6  150.31   13.93
  -2   6   5   96.94   10.40
  -2   6   5  116.22   10.18
   2   6  -5   85.43    7.91
   2   6  -5  109.44   12.19
   2   6  -4 2378.23   58.71
  -2   6   4 2329.15   45.37
   2   6  -3  321.98   19.85
  -2   6   3  273.59   13.05
  -2   6   2  340.61   13.82
   2   6  -2  359.89   20.10
  -2   6   1  180.69    9.63
   2   6  -1  187.99   14.32
  -2   6   0  748.11   20.00
  -2   6   0  572.84   20.35
  -2   6  -1  346.47   13.81
  -2   6  -1  259.12   14.57
   2   6   2  907.18   26.73
  -2   6  -2  893.71   30.46
   2   6   3  943.74   29.28
  -2   6  -3  931.97   27.63
  -2   6  -3 1000.64   27.63
  -2   6  -3  995.94   34.36
  -2   6  -4  467.70   24.83
  -2   6  -4  426.90   19.67
   2   6   4  381.38   19.78
  -2   6  -4  454.70   18.80
  -2   6  -4  404.70   17.91
  -2   6  -5  358.73   22.88
  -2   6  -5  311.84   18.89
  -2   6  -5  377.52   18.02
  -2   6  -5  320.72   18.26
  -2   6  -5  332.87   16.84
  -2   6  -6  149.70   10.92
  -2   6  -6  137.76   10.68
  -2   6  -7  705.27   23.01
  -2   6  -7  720.66   24.11
  -2   6  -7  759.78   24.59
  -2   6  -8   36.97    4.32
  -2   6  -8   40.38    5.00
  -2   6  -8   36.87    4.76
  -2   6  -9   31.48    3.77
   2   7 -10   92.81    6.90
  -2   7  10  117.18    9.49
  -2   7   9  615.04   26.07
   2   7  -9  648.21   21.88
   2   7  -8   15.72    3.73
  -2   7   8   15.80    4.67
  -2   7   7   31.71    6.80
   2   7  -7   26.95    4.78
  -2   7   6  214.65   16.75
   2   7  -6  183.01   16.21
   2   7  -6  171.87   11.97
  -2   7   5  369.94   21.10
   2   7  -5  444.33   26.06
  -2   7   5  438.20   19.74
   2   7  -5  374.21   17.15
   2   7  -4  191.62   16.59
  -2   7   4  181.03   13.61
  -2   7   4  216.96   13.08
   2   7  -3 1454.02   46.32
  -2   7   3 1432.25   33.98
   2   7  -2  723.00   30.89
  -2   7   2  697.43   21.69
  -2   7   1  186.80   10.50
   2   7  -1  186.54   15.32
  -2   7   0  197.82   10.81
  -2   7   0  132.36   10.07
  -2   7  -1 1117.48   27.44
  -2   7  -1  981.41   26.75
   2   7   2  836.66   26.18
  -2   7  -2  818.21   30.85
  -2   7  -3  225.10   13.01
  -2   7  -3  212.60   12.92
  -2   7  -3  192.01   15.44
  -2   7  -3  207.89   12.54
  -2   7  -4  350.14   22.28
  -2   7  -4  382.87   17.87
  -2   7  -4  338.69   17.58
  -2   7  -4  341.83   16.68
  -2   7  -5  315.83   17.96
  -2   7  -5  339.63   16.87
  -2   7  -6  143.45   10.77
  -2   7  -6  129.69   10.10
  -2   7  -7   38.31    4.96
  -2   7  -7   41.34    5.19
  -2   7  -7   33.60    4.76
  -2   7  -8  229.36   10.41
  -2   7  -8  232.44   11.11
  -2   8  10  105.00    7.75
   2   8 -10  103.39    6.26
   2   8  -9   18.57    3.33
  -2   8   9   23.60    4.61
  -2   8   8  759.43   29.73
   2   8  -8  664.24   22.44
  -2   8   7  389.90   22.21
   2   8  -7  368.50   17.19
   2   8  -6  130.87   10.13
  -2   8   6  125.22   12.38
  -2   8   5  142.63   13.09
   2   8  -5  172.12   16.69
  -2   8   5  167.26   12.56
   2   8  -5  143.05   10.36
   2   8  -4 1623.64   51.97
  -2   8   4 1619.32   39.83
  -2   8   3  561.35   21.36
   2   8  -3  564.67   29.77
  -2   8   2  274.90   14.21
   2   8  -2  262.20   19.64
  -2   8   1  207.47   12.03
   2   8  -1  199.20   16.76
  -2   8   0  733.73   23.27
   2   8   0  721.20   32.31
  -2   8  -1  445.21   18.27
  -2   8  -1  404.11   17.57
  -2   8  -2  288.92   15.14
  -2   8  -2  255.11   14.11
  -2   8  -3  535.39   21.28
  -2   8  -3  489.11   26.02
  -2   8  -4  166.33   16.03
  -2   8  -4  172.37   12.26
  -2   8  -4  160.61   11.40
  -2   8  -5   19.07    3.92
  -2   8  -6  167.75   11.40
  -2   8  -6  155.30   10.56
  -2   8  -6  167.58   10.28
  -2   8  -7  454.60   15.91
  -2   8  -7  471.07   17.31
  -2   8  -7  458.80   16.35
  -2   8  -8   24.75    3.05
   2   9  -9  234.30   10.28
  -2   9   9  247.12   12.83
   2   9  -8   42.88    4.93
  -2   9   8   42.17    6.26
  -2   9   7   61.97    8.18
   2   9  -7   48.78    5.79
  -2   9   6  344.79   19.62
   2   9  -6  303.95   14.99
   2   9  -5  648.50   22.22
  -2   9   4   88.84    8.90
   2   9  -4   77.16   11.69
  -2   9   3  777.02   26.48
   2   9  -3  756.82   36.29
  -2   9   2  447.52   19.19
   2   9  -2  433.53   26.83
   2   9  -1  227.90   18.93
  -2   9   1  229.76   13.50
  -2   9   0   36.85    5.42
  -2   9   0   46.49    6.03
   2   9   0   35.96    7.59
   2   9   1  980.16   39.61
  -2   9  -1 1039.13   30.39
   2   9   2  158.12   15.53
  -2   9  -2  226.34   13.99
  -2   9  -2  148.53   14.29
  -2   9  -2  202.99   12.79
  -2   9  -3  122.40    9.92
  -2   9  -4  110.59    9.33
  -2   9  -5  338.15   15.79
  -2   9  -6  322.22   15.26
  -2   9  -6  305.06   13.68
  -2   9  -7    3.95    1.15
  -2  10   8   62.44    6.09
   2  10  -8   72.97    5.54
  -2  10   7  153.05   10.82
   2  10  -7  179.67    9.81
   2  10  -6  109.29    8.10
   2  10  -1  488.12   29.16
  -2  10   1  502.50   21.21
  -2  10   0  343.53   17.52
   2  10   0  340.03   23.96
  -2  10   0  387.59   18.59
  -2  10  -1  469.80   19.95
  -2  10  -2  369.57   17.59
  -2  10  -3  468.59   19.40
  -2  10  -4  280.36   14.21
  -2  10  -5   29.29    4.66
  -2  10  -5   27.48    4.10
  -2  10  -6   93.45    7.38
  -2  10  -7  280.67   10.69
  -2  11   1  256.70   14.95
  -2  11   0  140.58   10.93
  -2  11  -1   36.56    5.40
  -2  11  -2  212.03   12.68
  -2  11  -3   49.91    5.83
  -2  11  -4   86.06    7.12
  -2  11  -5  304.02   13.85
  -2  11  -6   87.64    6.31
  -2  12   2   64.45    7.07
  -2  12   1  147.41   10.57
  -2  12   0  281.37   14.51
  -2  12  -1   43.06    5.47
  -2  12  -2   19.22    3.43
  -2  12  -3  210.36   10.76
  -2  12  -4  289.55   13.22
  -2  12  -5   35.84    3.96
  -2  13   6  153.07    7.15
  -2  13   5  105.20    6.96
  -2  13   4   42.72    4.76
  -2  13   3   33.24    4.35
  -2  13   2  369.71   15.43
  -2  13   1  158.26    9.91
  -2  13   0  153.62    9.50
  -2  13  -1   91.97    6.98
  -2  13  -2  151.26    8.31
  -2  13  -4   52.71    4.51
  -2  14   4  142.17    6.83
  -2  14   3   78.23    5.45
  -2  14   2   20.77    2.90
  -2  14   1  223.26    9.59
  -2  14   0  185.35    8.36
  -2  14  -2    5.94    1.44
  -3 -13   5  312.42   12.10
  -3 -13   4    6.21    1.77
   3 -13  -4    7.94    1.85
   3 -13  -3  219.08   10.59
  -3 -13   3  208.43   10.70
   3 -13  -2  100.53    7.55
  -3 -13   2   95.93    6.96
   3 -13  -1  131.83    8.76
   3 -13   0    3.03    1.48
   3 -13   1  280.77   12.62
   3 -13   2   98.25    6.74
  -3 -12   6   46.07    5.16
   3 -12  -5  141.43    8.52
  -3 -12   5  141.98    9.97
   3 -12  -4  419.98   16.49
  -3 -12   4  422.98   18.20
   3 -12  -3   95.35    8.13
  -3 -12   3   79.83    7.83
  -3 -12   2    2.56    1.59
   3 -12  -2    3.28    1.68
   3 -12  -1  100.86    8.92
  -3 -12   1   96.75    7.97
  -3 -12   0  379.70   20.62
   3 -12   0  412.61   18.28
  -3 -12  -1  128.77   11.67
   3 -12   1  141.02   10.41
   3 -12   2  132.84    9.48
  -3 -12  -2  120.94   10.74
   3 -12   3  119.43    8.29
  -3 -12  -3  116.28    9.73
  -3 -12  -4   57.87    5.92
   3 -11  -7   73.22    5.29
  -3 -11   7   54.72    5.81
   3 -11  -6  177.60   10.03
  -3 -11   6  183.56   12.24
  -3 -11   5  287.92   16.43
   3 -11  -4   37.62    4.54
   3 -11  -4   46.19    5.97
  -3 -11   4   49.20    6.93
   3 -11  -3  529.77   18.53
   3 -11  -3  550.28   22.18
  -3 -11   3  504.14   22.50
   3 -11  -2  236.53   12.79
   3 -11  -2  252.19   15.07
  -3 -11   2  237.17   15.09
   3 -11  -1  125.97    9.52
  -3 -11   1  115.94   12.58
   3 -11  -1  118.59   10.51
  -3 -11   1  136.87   10.83
   3 -11   0   89.90    8.13
  -3 -11   0   78.92   10.34
   3 -11   0   92.36    9.25
  -3 -11  -1  490.35   25.78
   3 -11   1  528.09   22.41
   3 -11   2  256.17   14.79
  -3 -11  -2  231.07   16.99
   3 -11   3    3.53    1.25
  -3 -11  -3    3.08    1.87
  -3 -11  -4   66.98    7.74
  -3 -11  -5  148.88    9.81
   3 -10  -8  223.61   12.95
  -3 -10   8  252.90   12.42
   3 -10  -7  166.45   12.68
  -3 -10   7  207.90   13.33
  -3 -10   6   88.63    9.44
   3 -10  -5   36.16    4.41
  -3 -10   5   30.65    5.87
   3 -10  -4  636.22   20.95
  -3 -10   4  653.63   27.75
   3 -10  -3  141.13   10.18
  -3 -10   3  160.53   13.49
  -3 -10   2   22.05    5.00
   3 -10  -2   29.95    4.85
   3 -10  -2   26.48    5.33
   3 -10  -1  491.11   20.05
  -3 -10   1  470.43   26.98
   3 -10  -1  504.11   22.86
  -3 -10   1  458.48   21.52
   3 -10   0  463.06   19.54
  -3 -10   0  455.85   26.71
   3 -10   0  454.45   21.65
   3 -10   1   24.08    4.41
   3 -10   1   32.30    5.68
  -3 -10  -1   21.84    6.10
  -3 -10  -2  133.28   13.96
   3 -10   2  156.17   12.21
   3 -10   2  134.71   10.00
   3 -10   3  223.53   14.07
   3 -10   3  217.10   12.40
  -3 -10  -3  241.26   18.03
   3 -10   4  289.27   14.87
  -3 -10  -4  335.32   19.79
   3 -10   4  299.93   13.73
  -3 -10  -5   63.92    7.53
   3 -10   5   80.94    6.22
  -3 -10  -6   98.46    7.29
   3 -10   6  109.68    5.97
   3  -9  -9  280.50   14.99
   3  -9  -8   54.88    7.81
  -3  -9   8   39.53    5.62
  -3  -9   7    4.02    2.08
   3  -9  -7    1.50    2.04
   3  -9  -6  210.72   17.43
  -3  -9   6  287.76   18.40
   3  -9  -5  369.98   15.92
  -3  -9   5  352.16   20.89
   3  -9  -4   81.24    7.72
  -3  -9   4   78.87    9.77
   3  -9  -3   50.71    6.20
  -3  -9   3   44.87    7.33
   3  -9  -2  938.84   28.55
  -3  -9   2  946.26   39.32
  -3  -9   2  997.10   34.29
   3  -9  -1   75.90    7.84
  -3  -9   1   75.64   10.84
   3  -9  -1   69.93    8.30
  -3  -9   1   72.57    8.58
   3  -9   0  223.07   13.55
  -3  -9   0  218.24   18.83
   3  -9   0  216.45   14.77
   3  -9   1  247.44   14.32
  -3  -9  -1  252.47   20.24
   3  -9   1  252.72   15.92
   3  -9   2  224.09   13.65
  -3  -9  -2  237.78   19.33
   3  -9   2  227.68   15.16
   3  -9   2  216.37   14.02
   3  -9   3  128.21   11.03
  -3  -9  -3  135.18   14.17
   3  -9   3  119.42   10.06
   3  -9   4  450.95   19.89
  -3  -9  -4  472.43   25.51
   3  -9   4  488.67   20.09
  -3  -9  -5  420.59   21.65
   3  -9   5  433.35   17.50
  -3  -9  -6  185.15   11.83
   3  -9   6  200.07   10.31
   3  -9   7   69.82    4.76
   3  -8 -10   22.27    3.81
   3  -8  -9   71.17    8.77
   3  -8  -8  178.04   15.90
  -3  -8   8  159.77   12.35
   3  -8  -7  452.33   27.37
  -3  -8   7  511.98   24.47
   3  -8  -6  244.97   12.61
   3  -8  -6  209.99   18.75
  -3  -8   6  256.97   17.90
   3  -8  -5  124.09    9.48
  -3  -8   5  103.21   11.43
   3  -8  -4  216.18   12.80
   3  -8  -4  229.86   17.95
  -3  -8   4  212.73   16.23
   3  -8  -3  908.46   27.43
   3  -8  -3  937.18   36.73
  -3  -8   3  983.15   34.88
   3  -8  -2  135.21   10.29
  -3  -8   2  126.68   14.22
   3  -8  -2  142.60   13.79
  -3  -8   2  133.27   20.37
  -3  -8   2  132.81   12.17
   3  -8  -1 1170.86   31.64
  -3  -8   1 1138.50   43.47
   3  -8  -1 1168.69   41.09
  -3  -8   1 1232.48   64.96
  -3  -8   1 1130.80   35.66
   3  -8   0  416.55   18.53
  -3  -8   0  420.76   25.99
   3  -8   0  431.25   24.90
   3  -8   0  389.30   19.52
  -3  -8   0  408.52   37.81
  -3  -8  -1   36.02    7.50
   3  -8   1   37.92    5.48
   3  -8   1   43.55    8.14
   3  -8   1   36.44    5.85
  -3  -8  -1   22.01    9.48
   3  -8   2  465.44   19.68
  -3  -8  -2  487.20   28.19
   3  -8   2  463.37   21.56
   3  -8   3  934.96   31.04
  -3  -8  -3 1038.25   41.17
   3  -8   3  949.72   32.01
   3  -8   4  656.41   24.96
  -3  -8  -4  750.13   33.63
   3  -8   4  704.57   26.19
  -3  -8  -5  141.90   13.29
   3  -8   5  155.28   11.52
  -3  -8  -6   48.37    6.60
   3  -8   6   52.94    5.91
   3  -8   7  230.92   10.73
   3  -7 -10   57.90    7.26
   3  -7  -9  221.09   17.33
  -3  -7   9  206.65   10.25
   3  -7  -8  293.52   22.04
  -3  -7   8  304.66   13.65
  -3  -7   8  274.80   17.40
   3  -7  -7  108.85   14.10
  -3  -7   7  134.15   12.84
   3  -7  -6  813.40   25.16
  -3  -7   6  788.53   32.08
   3  -7  -5   65.97    7.03
   3  -7  -5   66.20    9.30
  -3  -7   5   68.56    9.23
   3  -7  -5   42.72    8.63
   3  -7  -4  138.28   10.27
   3  -7  -4  129.29   12.96
  -3  -7   4  163.68   14.01
   3  -7  -3   77.28    7.44
  -3  -7   3   94.78   16.21
   3  -7  -3   74.15    9.54
  -3  -7   3   73.65    9.02
   3  -7  -2 1604.08   37.18
  -3  -7   2 1592.61   50.76
  -3  -7   2 1638.15   44.27
   3  -7  -2 1630.49   46.81
   3  -7  -1  247.07   13.62
  -3  -7   1  276.41   20.17
   3  -7  -1  263.58   18.21
  -3  -7   1  284.61   28.68
  -3  -7   1  232.35   15.24
   3  -7   0  261.80   14.07
  -3  -7   0  268.42   20.18
   3  -7   0  282.06   19.20
  -3  -7   0  249.60   27.52
   3  -7   1  253.85   13.82
  -3  -7  -1  238.15   18.98
   3  -7   1  196.86   13.36
  -3  -7  -1  240.79   27.70
   3  -7   2 1432.36   35.14
  -3  -7  -2 1548.81   50.42
   3  -7   2 1395.15   37.80
  -3  -7  -2 1471.57   71.05
   3  -7   3  436.97   18.55
   3  -7   3  422.90   20.06
  -3  -7  -3  493.25   27.79
  -3  -7  -3  410.84   37.14
   3  -7   3  434.79   21.23
   3  -7   4  440.13   20.09
  -3  -7  -4  439.43   25.94
   3  -7   4  469.35   22.42
  -3  -7  -5  629.39   29.22
   3  -7   5  603.62   24.56
  -3  -7  -6   11.75    3.69
   3  -7   6    7.38    2.59
   3  -7   7   14.65    2.75
   3  -7   8  278.69   10.55
   3  -6 -11   21.74    3.78
   3  -6 -10   45.67    7.23
  -3  -6  10   36.69    4.15
   3  -6  -9    8.19    3.01
  -3  -6   9    8.10    2.32
   3  -6  -8  221.98   19.90
  -3  -6   8  223.14   12.98
  -3  -6   8  203.54   15.36
   3  -6  -7  645.50   22.01
  -3  -6   7  616.71   22.32
  -3  -6   7  620.11   28.57
   3  -6  -6  663.07   29.45
   3  -6  -6  689.81   23.59
  -3  -6   6  617.16   21.70
  -3  -6   6  693.68   30.17
   3  -6  -5  546.89   20.88
   3  -6  -5  532.90   25.84
  -3  -6   5  498.74   25.37
   3  -6  -4  625.23   22.40
   3  -6  -4  633.43   27.60
  -3  -6   4  674.46   28.40
   3  -6  -3 1207.52   31.62
   3  -6  -3 1243.95   38.41
  -3  -6   3 1301.93   39.05
   3  -6  -2  223.64   12.52
  -3  -6   2  223.54   17.48
   3  -6  -2  228.95   15.89
  -3  -6   2  224.72   23.36
  -3  -6   2  220.80   14.99
   3  -6  -1 1431.74   33.71
  -3  -6   1 1492.74   46.91
   3  -6  -1 1498.67   42.76
  -3  -6   1 1420.36   60.70
  -3  -6   1 1401.88   38.17
   3  -6   0  544.23   19.80
  -3  -6   0  597.91   29.11
  -3  -6   0  590.44   39.46
   3  -6   1   84.22    7.58
  -3  -6  -1   97.56   11.87
   3  -6   1   80.72    7.97
  -3  -6  -1  114.12   17.75
  -3  -6  -2    5.91    3.21
   3  -6   2   12.66    3.06
   3  -6   2   12.28    3.16
  -3  -6  -2   16.64    5.30
   3  -6   3  660.56   22.45
   3  -6   3  674.07   24.64
   3  -6   4  174.81   12.19
   3  -6   4  188.32   13.95
  -3  -6  -5   31.64    6.80
   3  -6   5   35.55    5.81
   3  -6   6  146.08   11.25
   3  -6   7  291.92   14.53
   3  -6   8  172.89    9.10
  -3  -5  11   12.11    2.25
   3  -5 -11   14.60    3.39
   3  -5 -10   80.63   10.44
  -3  -5  10   75.93    6.71
   3  -5  -9  211.89   19.01
  -3  -5   9  228.83   13.21
   3  -5  -8  423.51   17.40
  -3  -5   8  404.01   18.61
  -3  -5   8  366.00   21.32
   3  -5  -7  523.60   20.87
   3  -5  -7  475.86   23.01
  -3  -5   7  501.81   20.72
  -3  -5   7  491.06   25.42
   3  -5  -6  607.55   26.84
   3  -5  -6  640.81   23.48
  -3  -5   6  606.11   22.30
  -3  -5   6  648.31   28.91
  -3  -5   5  115.28    8.90
   3  -5  -5  124.94    9.83
   3  -5  -5  140.00   12.16
   3  -5  -5  133.69   12.04
  -3  -5   5  145.67   13.31
   3  -5  -4   54.48    6.38
   3  -5  -4   53.14    7.38
  -3  -5   4   58.75   10.11
  -3  -5   4   61.94    8.24
   3  -5  -4   55.99    7.38
   3  -5  -3  471.11   18.39
   3  -5  -3  502.99   21.29
   3  -5  -3  492.04   22.16
  -3  -5   3  496.41   31.42
  -3  -5   3  501.11   22.84
   3  -5  -2 1187.75   35.33
  -3  -5   2 1246.27   50.59
   3  -5  -1  456.26   21.36
  -3  -5   1  466.19   31.43
  -3  -5   0  100.72   15.15
   3  -5   1  336.89   14.62
  -3  -5  -1  380.95   22.59
  -3  -5  -1  334.02   28.05
   3  -5   2  671.00   21.39
   3  -5   2  647.97   22.67
  -3  -5  -2  694.96   42.13
   3  -5   3  359.14   15.52
  -3  -5  -3  352.49   30.58
  -3  -5  -3  374.30   17.88
  -3  -5  -4  985.93   37.83
   3  -5   4  928.67   31.66
  -3  -5  -4  865.56   29.61
  -3  -5  -5  486.12   25.52
   3  -5   5  454.01   21.74
   3  -5   6   34.75    5.51
   3  -5   7   61.98    6.75
   3  -5   8  124.46    8.18
  -3  -4  11  130.34    7.88
   3  -4 -11  157.64   12.04
   3  -4 -10   61.33    9.34
  -3  -4  10   70.21    6.94
   3  -4  -9   68.39    7.27
  -3  -4   9   62.57    7.22
   3  -4  -8  136.08   11.23
   3  -4  -8  136.25   10.40
  -3  -4   8  122.90   10.54
  -3  -4   8  107.86   11.58
   3  -4  -7  947.32   30.03
   3  -4  -7  964.35   29.99
   3  -4  -7 1016.52   34.71
  -3  -4   7  931.25   29.67
  -3  -4   7  910.26   35.31
   3  -4  -6  247.05   16.15
   3  -4  -6  266.09   14.50
   3  -4  -6  242.09   14.67
  -3  -4   6  243.91   17.62
   3  -4  -6  254.95   16.76
  -3  -4   6  233.00   13.81
   3  -4  -5  186.74   13.81
   3  -4  -5  195.62   11.65
   3  -4  -5  175.64   11.83
  -3  -4   5  161.83   10.78
   3  -4  -5  169.31   12.86
  -3  -4   5  174.10   14.18
  -3  -4   4 1550.01   51.92
   3  -4  -4 1575.16   36.42
   3  -4  -4 1554.00   40.01
   3  -4  -4 1548.47   39.44
  -3  -4   4 1564.11   43.13
  -3  -4   3  866.80   38.30
   3  -4  -3  845.71   27.61
   3  -4  -3  850.62   27.18
   3  -4  -2  313.40   16.50
   3  -4  -2  316.46   15.26
  -3  -4   2  298.47   22.68
   3  -4  -1 1185.93   29.12
  -3  -4   1 1160.99   46.09
  -3  -4   0  702.40   36.88
  -3  -4  -1  151.53   17.18
   3  -4   1  139.68    9.59
  -3  -4  -2  491.00   32.72
   3  -4   2  532.04   21.90
  -3  -4  -3  687.62   40.42
   3  -4   3  691.66   28.55
  -3  -4  -3  774.55   25.69
  -3  -4  -4  133.92   18.22
   3  -4   4  129.64   12.97
   3  -4   4  148.90   12.03
  -3  -4  -4  153.65   11.94
  -3  -4  -5  272.16   16.63
   3  -4   5  271.20   16.61
   3  -4   5  244.33   18.69
   3  -4   6  190.34   13.35
  -3  -4  -6  200.82   14.19
   3  -4   7   72.99    7.63
   3  -4   8  163.18    9.77
   3  -4   9   51.96    4.02
   3  -3 -11   46.46    6.83
  -3  -3  11   51.23    5.22
   3  -3 -10  351.83   15.83
   3  -3 -10  327.56   21.88
  -3  -3  10  324.17   15.65
   3  -3  -9  243.11   14.39
   3  -3  -9  228.10   12.96
  -3  -3   9  249.59   14.96
   3  -3  -8   71.00    8.09
   3  -3  -8   73.09    8.08
  -3  -3   8   86.61    9.03
  -3  -3   8   54.28    8.25
   3  -3  -7  272.95   15.48
   3  -3  -7  262.10   15.78
   3  -3  -7  251.11   14.93
   3  -3  -7  280.51   17.74
  -3  -3   7  253.45   15.31
  -3  -3   7  246.97   17.93
   3  -3  -6  969.08   30.85
   3  -3  -6 1033.25   29.46
   3  -3  -6 1066.17   32.42
   3  -3  -6 1101.61   35.14
  -3  -3   6  964.84   29.33
  -3  -3   6  929.04   34.77
   3  -3  -5  619.44   20.98
   3  -3  -5  645.96   23.66
   3  -3  -5  670.70   26.27
  -3  -3   5  610.01   21.44
   3  -3  -5  594.46   23.17
  -3  -3   5  648.15   27.51
   3  -3  -4   26.51    4.81
   3  -3  -4   27.51    4.71
  -3  -3   4   22.08    5.28
   3  -3  -3 1386.18   33.89
   3  -3  -3 1352.97   34.72
  -3  -3   3 1351.22   44.89
   3  -3  -2  779.24   24.57
   3  -3  -2  767.28   23.86
  -3  -3   2  727.18   33.56
   3  -3  -1  649.06   20.33
  -3  -3   1  683.97   33.23
   3  -3  -1  618.45   16.70
   3  -3   0  202.88   10.12
  -3  -3   0  220.19   19.30
   3  -3   0  205.05   10.49
  -3  -3  -1 1422.80   51.00
   3  -3   1 1445.62   33.19
  -3  -3  -2  555.55   32.68
   3  -3   2  593.56   22.76
  -3  -3  -3   65.59   11.19
   3  -3   3   63.72    8.20
  -3  -3  -3   74.37    7.42
  -3  -3  -4   57.57   11.04
   3  -3   4   59.94    8.66
   3  -3   4   59.35    7.37
  -3  -3  -4   60.54    7.26
   3  -3   5  892.99   37.28
   3  -3   5  953.82   31.32
  -3  -3  -5  901.56   30.83
   3  -3   6  242.10   15.01
  -3  -3  -6  259.05   16.23
   3  -3   7   75.37    7.67
  -3  -3  -7   58.49    7.44
   3  -3   8   98.43    7.57
   3  -3   9  191.01    7.81
  -3  -2  12   31.01    3.08
   3  -2 -11  242.94   11.28
   3  -2 -11  241.58   15.73
  -3  -2  11  226.40   11.51
   3  -2 -10  198.41   12.11
  -3  -2  10  190.40   12.38
   3  -2  -9  169.08   12.30
   3  -2  -9  149.54   11.44
  -3  -2   9  153.52   12.04
   3  -2  -8  742.26   26.63
   3  -2  -8  691.38   27.03
   3  -2  -8  639.23   27.05
  -3  -2   8  675.18   26.24
   3  -2  -7  479.61   23.20
   3  -2  -7  435.78   19.70
   3  -2  -7  454.63   21.89
  -3  -2   7  437.64   20.32
   3  -2  -6 1014.52   29.04
   3  -2  -6 1088.42   30.81
   3  -2  -6 1186.04   35.42
   3  -2  -6 1233.61   37.50
  -3  -2   6 1104.22   31.76
  -3  -2   6 1029.48   36.34
   3  -2  -5  322.41   18.00
   3  -2  -5  276.86   14.55
   3  -2  -4 2354.91   49.96
  -3  -2   4 2287.16   57.39
   3  -2  -4 2187.59   42.99
   3  -2  -3  169.48   10.23
  -3  -2   3  161.87   14.95
   3  -2  -3  165.09   11.38
   3  -2  -2   45.50    5.39
   3  -2  -2   45.04    5.50
  -3  -2   2   45.07    7.99
   3  -2  -1  220.53   11.47
  -3  -2   1  239.08   18.55
   3  -2   0 3073.67   46.80
   3  -2   0 3003.06   48.15
  -3  -2  -1  330.82   23.57
   3  -2   1  317.87   14.59
  -3  -2  -2  316.65   23.46
   3  -2   2  354.93   17.20
  -3  -2  -3  482.03   29.47
   3  -2   3  519.90   23.14
  -3  -2  -3  543.50   20.39
  -3  -2  -4  115.83   14.94
   3  -2   4  125.43   12.67
  -3  -2  -4  135.56   10.16
  -3  -2  -4  127.94   10.50
  -3  -2  -5   10.99    2.89
  -3  -2  -5   19.87    4.27
  -3  -2  -5   13.90    3.03
   3  -2   5   24.61    6.26
   3  -2   5   17.40    3.76
  -3  -2  -6  114.44    9.16
   3  -2   6   99.41    9.39
  -3  -2  -6   99.83   10.08
  -3  -2  -7  743.12   23.48
   3  -2   7  712.17   24.26
  -3  -2  -7  735.32   27.04
  -3  -2  -8    6.48    2.20
  -3  -2  -8    7.65    2.15
   3  -2   8    2.82    1.02
  -3  -1  12   34.73    3.31
   3  -1 -11   46.06    5.02
   3  -1 -11   45.15    6.83
  -3  -1  11   44.41    5.05
   3  -1 -10  242.18   13.79
   3  -1 -10  201.57   11.91
  -3  -1  10  231.01   13.90
   3  -1  -9  723.13   27.03
   3  -1  -9  787.38   27.36
  -3  -1   9  758.44   27.67
   3  -1  -8  113.05   11.07
   3  -1  -8  106.96    9.96
  -3  -1   8  100.88    9.70
   3  -1  -8  104.96   10.69
  -3  -1   8  103.07   10.06
   3  -1  -7  214.32   15.35
   3  -1  -7  165.56   12.08
  -3  -1   7  178.44   13.10
   3  -1  -7  206.74   15.31
  -3  -1   7  222.24   14.28
   3  -1  -6  386.12   20.10
   3  -1  -6  348.70   16.45
  -3  -1   6  371.52   17.96
   3  -1  -6  399.72   21.04
  -3  -1   6  402.84   18.28
  -3  -1   6  325.14   19.91
   3  -1  -5 2178.34   49.67
   3  -1  -5 1869.39   37.94
   3  -1  -4  291.82   16.39
  -3  -1   4  300.08   19.04
   3  -1  -4  290.85   12.97
   3  -1  -3 1022.49   24.50
  -3  -1   3 1069.64   36.71
   3  -1  -3 1013.12   30.27
   3  -1  -2  792.77   21.46
   3  -1  -2  757.17   24.18
   3  -1  -1  445.44   16.93
  -3  -1   1  491.00   25.25
  -3  -1   0   12.66    4.16
   3  -1   0   19.94    2.98
  -3  -1  -1 1814.98   54.26
   3  -1   1 1846.58   37.99
  -3  -1  -2  969.98   40.68
   3  -1   2  959.75   28.59
  -3  -1  -3    6.46    3.73
   3  -1   3   10.30    2.95
  -3  -1  -4  146.68   10.61
   3  -1   4  141.42   13.06
   3  -1   4  141.32   10.70
  -3  -1  -4  128.93   10.38
   3  -1   5  663.42   32.10
  -3  -1  -5  664.04   25.09
   3  -1   5  661.87   24.42
  -3  -1  -5  644.67   25.21
  -3  -1  -6  623.98   22.58
  -3  -1  -6  585.25   24.53
   3  -1   6  599.57   22.84
  -3  -1  -6  605.16   24.99
  -3  -1  -7  179.48   11.60
   3  -1   7  166.31   10.97
  -3  -1  -7  172.05   12.73
  -3  -1  -8  443.50   17.12
  -3  -1  -8  450.08   19.33
  -3  -1  -9   55.92    4.92
   3   0 -12   21.38    2.60
   3   0 -11  385.48   15.25
  -3   0  11  370.68   14.99
   3   0 -10  350.10   16.73
   3   0 -10  414.91   18.21
  -3   0  10  393.75   17.93
  -3   0   9   80.96    8.80
   3   0  -9  103.94   10.22
   3   0  -9  105.96    9.77
  -3   0   9  109.59   10.32
   3   0  -8    1.14    1.05
  -3   0   8    4.00    1.29
  -3   0   8    4.91    2.92
   3   0  -8    1.65    0.71
   3   0  -7   70.97    9.10
   3   0  -7   57.13    6.97
  -3   0   7   65.74    8.35
   3   0  -7   65.39    8.93
  -3   0   7   63.00    7.71
   3   0  -6  649.13   26.79
   3   0  -6  604.87   21.83
  -3   0   6  603.87   24.46
   3   0  -6  687.33   28.36
  -3   0   6  648.61   23.26
   3   0  -5  483.79   23.05
   3   0  -4 2695.40   56.40
  -3   0   4 2785.66   60.92
   3   0  -3   30.54    4.97
   3   0  -3   34.90    3.83
  -3   0   3   32.76    6.35
   3   0  -2    4.38    1.35
   3   0  -2    4.69    2.06
  -3   0   2    3.99    2.23
   3   0  -1   50.13    5.85
  -3   0   1   46.38    5.25
  -3   0   1   48.82    7.78
   3   0   0 1945.64   36.36
  -3   0   0 2023.00   53.99
  -3   0   0 1931.95   39.49
  -3   0  -1  576.91   28.79
  -3   0  -1  581.51   21.20
  -3   0  -2 3142.64   57.07
   3   0   2 3107.29   55.69
  -3   0  -3  671.15   33.76
   3   0   3  743.68   27.51
   3   0   4  289.30   18.73
  -3   0  -4  288.05   15.17
  -3   0  -4  264.01   14.77
   3   0   5  125.87   13.62
  -3   0  -5  114.06   10.35
   3   0   5   92.09    8.63
  -3   0  -5  116.50   10.17
  -3   0  -6  649.91   23.27
  -3   0  -6  593.14   24.69
  -3   0  -6  611.71   25.69
  -3   0  -7  984.40   28.65
  -3   0  -7  956.58   31.24
  -3   0  -8   29.87    4.37
  -3   0  -8   34.63    5.29
  -3   0  -9   23.46    3.34
  -3   0  -9   24.22    3.68
   3   1 -12   40.88    3.57
   3   1 -11   49.56    5.26
  -3   1  11   40.13    4.65
   3   1 -10  203.43   13.20
   3   1 -10  234.20   13.59
  -3   1  10  199.10   13.23
  -3   1  10  222.95   13.28
  -3   1   9  715.28   28.31
   3   1  -9  751.20   29.32
   3   1  -9  771.48   27.21
  -3   1   9  755.61   27.09
   3   1  -8  107.14   11.33
   3   1  -8   94.34    9.28
  -3   1   8  107.07   11.00
   3   1  -8   86.60   10.39
  -3   1   8  112.90   10.38
   3   1  -7  198.50   13.22
  -3   1   7  190.38   14.71
   3   1  -7  204.08   15.80
  -3   1   7  178.18   12.68
   3   1  -6  333.05   15.93
  -3   1   6  326.95   18.62
  -3   1   6  361.46   17.13
   3   1  -5 2266.75   54.51
  -3   1   5 2032.40   51.03
   3   1  -4  289.10   17.56
  -3   1   4  272.38   17.90
   3   1  -3  881.82   29.47
  -3   1   3  880.78   32.95
   3   1  -2  686.36   24.71
  -3   1   2  657.42   20.01
  -3   1   1  400.21    9.55
   3   1  -1  381.10   16.83
  -3   1   1  405.62   16.07
  -3   1   0   19.38    3.71
  -3   1   0   18.22    2.16
   3   1   0   19.69    3.52
  -3   1   0   19.41    5.13
  -3   1  -1 1766.19   39.40
  -3   1  -1 1729.31   51.58
  -3   1  -1 1840.45   28.84
  -3   1  -2  883.86   36.51
   3   1   2  970.00   28.58
  -3   1  -2  948.27   28.93
  -3   1  -3    9.20    2.50
  -3   1  -3   10.24    2.46
  -3   1  -3    7.49    3.07
  -3   1  -3    9.80    3.19
   3   1   3   11.80    3.65
   3   1   4  132.34   12.37
  -3   1  -4  171.43   11.86
  -3   1  -4  144.45   10.81
  -3   1  -4  151.35   12.16
   3   1   5  611.74   30.12
  -3   1  -5  655.92   25.83
  -3   1  -5  606.98   23.77
  -3   1  -6  603.36   25.87
  -3   1  -6  610.56   24.56
  -3   1  -7  183.74   11.92
  -3   1  -7  173.76   12.65
  -3   1  -8  471.46   18.08
  -3   1  -8  455.33   19.12
  -3   1  -9   66.07    5.74
  -3   1  -9   63.67    5.83
   3   2 -12   31.31    3.04
  -3   2  11  178.65   10.37
  -3   2  11  198.57    9.71
   3   2 -11  166.52    9.38
   3   2 -11  216.32   11.03
   3   2 -10  179.22   12.54
   3   2 -10  194.85   12.19
  -3   2  10  165.93   12.54
  -3   2  10  180.73   11.39
   3   2  -9  130.67   12.22
   3   2  -9  136.42   11.01
  -3   2   9  123.12   11.96
  -3   2   9  124.52   10.60
   3   2  -8  611.84   24.06
  -3   2   8  641.89   28.35
  -3   2   8  635.04   24.85
   3   2  -7  395.37   18.67
  -3   2   7  402.92   22.08
   3   2  -7  383.06   22.62
  -3   2   7  411.51   19.66
   3   2  -6  939.68   28.17
  -3   2   6 1006.07   34.40
   3   2  -6 1153.14   39.66
  -3   2   6 1073.96   30.65
  -3   2   5  276.02   16.42
   3   2  -5  305.46   19.30
  -3   2   5  276.27   11.43
  -3   2   5  271.25   18.05
  -3   2   4 2089.39   33.26
  -3   2   4 2129.35   55.49
  -3   2   3  148.00    8.98
  -3   2   3  169.59    7.12
  -3   2   3  178.41   15.33
   3   2  -3  172.30   13.42
  -3   2   2   45.07    5.12
  -3   2   2   38.55    3.11
   3   2  -2   40.01    6.13
  -3   2   2   43.55    7.67
  -3   2   1  240.22    8.11
   3   2  -1  219.30   13.72
  -3   2   1  229.64   12.28
  -3   2   0 2751.49   65.84
  -3   2   0 2601.05   48.43
  -3   2   0 2651.04   36.38
  -3   2  -1  296.87   10.67
  -3   2  -1  277.51   19.60
  -3   2  -1  289.93   15.31
  -3   2  -2  344.69   17.40
  -3   2  -2  359.03   12.89
  -3   2  -2  312.42   21.44
   3   2   2  341.65   16.81
  -3   2  -3  562.83   23.48
  -3   2  -3  513.82   28.21
   3   2   3  566.53   24.07
  -3   2  -3  591.32   20.85
  -3   2  -3  555.23   20.21
  -3   2  -4  145.14   12.27
   3   2   4  154.86   13.54
  -3   2  -4  144.70   11.10
  -3   2  -4  135.61   10.51
  -3   2  -5   16.92    4.13
  -3   2  -5   14.41    3.84
   3   2   5   10.97    3.84
  -3   2  -6  110.72   10.98
  -3   2  -6  108.10   10.10
  -3   2  -7  789.28   25.64
  -3   2  -7  756.91   26.89
  -3   2  -8    9.44    2.70
  -3   2  -8    9.35    2.52
  -3   2  -9   28.49    3.71
  -3   2  -9   26.60    3.64
   3   3 -11   44.65    4.84
   3   3 -11   53.02    5.19
  -3   3  11   34.77    4.67
  -3   3  10  264.21   13.19
   3   3 -10  281.52   15.77
   3   3 -10  295.16   14.71
  -3   3  10  296.42   17.13
   3   3  -9  228.26   14.01
  -3   3   9  209.56   15.92
  -3   3   9  204.14   12.89
   3   3  -8   75.52    8.14
  -3   3   8   77.49   10.05
  -3   3   8   62.53    7.62
   3   3  -7  241.39   14.45
  -3   3   7  268.21   18.51
   3   3  -7  258.74   18.94
  -3   3   7  260.43   14.98
   3   3  -6  970.69   37.52
  -3   3   6 1021.00   26.89
  -3   3   6  989.32   28.98
  -3   3   6  936.66   34.19
  -3   3   5  537.28   23.84
   3   3  -5  632.48   28.68
  -3   3   5  585.15   18.30
  -3   3   5  567.99   28.90
  -3   3   5  550.31   20.40
  -3   3   4   24.25    3.31
   3   3  -4   25.85    5.39
   3   3  -3 1278.62   39.07
  -3   3   3 1244.66   23.94
   3   3  -2  622.55   25.75
  -3   3   2  598.92   20.24
  -3   3   1  515.04   19.60
  -3   3   1  562.60   14.45
   3   3  -1  577.82   23.35
  -3   3   0  156.87   11.14
  -3   3   0  172.11    8.13
   3   3   0  132.14   10.65
  -3   3   0  170.62   16.01
  -3   3  -1 1420.85   26.92
  -3   3  -1 1331.73   35.53
  -3   3  -1 1423.51   48.53
  -3   3  -2  626.49   18.31
  -3   3  -2  610.49   24.40
  -3   3  -2  589.55   30.28
   3   3   2  601.39   22.98
  -3   3  -3   51.26    9.02
   3   3   3   59.07    7.71
  -3   3  -3   62.74    6.84
  -3   3  -3   53.85    6.36
  -3   3  -3   56.62    7.51
  -3   3  -3   55.70    5.67
  -3   3  -4   51.75    7.28
   3   3   4   53.36    7.92
  -3   3  -4   58.47    7.22
  -3   3  -4   47.94    6.33
  -3   3  -5  837.04   31.19
   3   3   5  832.54   34.96
  -3   3  -5  932.56   31.82
  -3   3  -5  917.06   29.43
  -3   3  -6  240.63   16.43
  -3   3  -6  237.29   14.76
  -3   3  -7   65.05    7.03
  -3   3  -7   57.53    7.01
  -3   3  -8  103.00    8.12
  -3   3  -8  100.08    8.25
  -3   3  -9  212.69    9.88
  -3   3  -9  202.60    9.51
   3   4 -11  136.39    7.89
  -3   4  11  123.37    8.65
   3   4 -10   67.90    7.59
   3   4 -10   67.72    6.64
  -3   4  10   62.73    7.73
   3   4  -9   56.91    6.76
  -3   4   9   43.90    5.60
  -3   4   9   56.49    8.28
   3   4  -8  129.44   10.67
  -3   4   8  155.59   14.38
  -3   4   8  138.34   10.55
  -3   4   7  870.15   34.77
   3   4  -7  897.29   37.46
  -3   4   7  916.18   28.30
  -3   4   7  847.91   27.18
   3   4  -6  258.60   19.42
   3   4  -6  205.94   12.71
  -3   4   6  241.58   17.51
  -3   4   6  262.47   13.96
  -3   4   6  234.51   13.44
  -3   4   5  172.19   11.11
  -3   4   5  169.98   13.84
   3   4  -5  181.14   16.09
  -3   4   5  196.99   11.20
  -3   4   4 1316.58   37.24
   3   4  -4 1426.16   44.25
  -3   4   4 1420.07   29.79
  -3   4   3  780.74   19.72
   3   4  -3  786.17   31.78
  -3   4   2  231.98   13.05
  -3   4   2  281.47   10.80
   3   4  -2  262.09   17.40
  -3   4   1 1041.27   22.21
   3   4  -1  990.89   33.70
  -3   4   0  609.68   16.93
   3   4   0  491.08   22.07
  -3   4  -1  119.51    9.61
  -3   4  -1  130.61   11.12
  -3   4  -1  130.61    7.96
   3   4   1  104.13    9.43
  -3   4  -1  127.24   14.79
  -3   4  -2  435.58   20.42
  -3   4  -2  484.75   22.60
  -3   4  -2  497.36   17.16
  -3   4  -2  474.65   28.63
   3   4   2  459.89   20.42
  -3   4  -2  499.70   18.85
  -3   4  -2  460.96   17.93
  -3   4  -3  682.28   21.67
  -3   4  -3  570.09   25.63
  -3   4  -3  696.87   27.93
  -3   4  -3  584.26   31.51
   3   4   3  638.18   26.26
  -3   4  -3  723.06   24.40
  -3   4  -3  637.82   22.80
  -3   4  -4  149.12   13.08
   3   4   4  130.17   12.53
  -3   4  -4  140.31   11.31
  -3   4  -4  143.82   11.02
  -3   4  -5  241.16   16.08
   3   4   5  209.74   16.98
  -3   4  -5  222.57   14.17
  -3   4  -6  185.31   14.22
  -3   4  -6  187.07   13.02
  -3   4  -7   67.60    6.97
  -3   4  -7   62.78    7.08
  -3   4  -8  153.10    9.69
  -3   4  -8  160.05    9.99
  -3   4  -9   52.98    4.60
  -3   4  -9   40.88    3.80
   3   5 -11    9.31    2.02
  -3   5  11   15.49    2.87
   3   5 -11   12.64    2.19
   3   5 -10   58.47    6.81
   3   5 -10   69.35    6.33
  -3   5  10   80.99    8.48
   3   5  -9  194.07   12.07
  -3   5   9  220.65   16.13
   3   5  -8  371.80   17.82
  -3   5   8  408.29   23.43
   3   5  -7  444.64   19.61
   3   5  -7  442.49   26.30
  -3   5   7  432.18   19.04
  -3   5   6  592.61   27.98
   3   5  -6  632.65   31.44
  -3   5   6  676.78   23.75
  -3   5   5  149.69   13.43
   3   5  -5  151.78   15.29
  -3   5   5  146.40   10.19
  -3   5   4   51.98    7.14
   3   5  -4   57.80    8.94
  -3   5   4   61.01    6.16
  -3   5   3  436.06   15.65
   3   5  -3  440.45   24.46
  -3   5   2 1049.95   24.21
   3   5  -2  932.55   35.61
  -3   5   1  425.21   14.70
   3   5  -1  341.39   20.22
  -3   5   0   84.54    7.67
   3   5   0   69.45    8.95
  -3   5  -1  238.96   14.49
  -3   5  -1  310.42   13.37
   3   5   1  207.43   14.41
  -3   5  -1  288.46   13.66
  -3   5  -1  261.96   13.24
  -3   5  -2  501.42   23.32
  -3   5  -2  584.12   26.14
  -3   5  -2  593.85   19.91
  -3   5  -2  526.07   31.72
   3   5   2  545.57   22.90
  -3   5  -2  586.42   21.03
  -3   5  -2  550.96   20.46
  -3   5  -3  297.56   18.98
  -3   5  -3  341.47   20.29
  -3   5  -3  364.04   16.25
  -3   5  -3  327.55   24.25
   3   5   3  314.56   18.80
  -3   5  -3  353.63   17.20
  -3   5  -3  378.04   17.43
  -3   5  -4  705.02   30.94
   3   5   4  694.87   30.49
  -3   5  -4  829.70   29.18
  -3   5  -4  815.97   31.98
  -3   5  -4  823.45   27.42
  -3   5  -5  374.63   20.02
  -3   5  -5  355.44   17.89
  -3   5  -6   29.75    5.71
  -3   5  -6   34.81    5.36
  -3   5  -7   51.86    5.95
  -3   5  -7   42.25    5.62
  -3   5  -8  123.93    8.10
  -3   5  -8  113.62    7.80
  -3   5  -9  152.71    7.16
  -3   6  11   21.12    2.95
   3   6 -10   28.53    4.54
   3   6 -10   30.91    3.86
  -3   6  10   39.05    5.56
  -3   6   9    8.47    3.11
   3   6  -9    7.80    2.21
   3   6  -8  195.99   12.28
  -3   6   8  225.79   16.88
   3   6  -7  544.65   21.27
  -3   6   7  646.41   29.90
  -3   6   6  650.38   29.36
   3   6  -6  629.85   32.40
  -3   6   6  712.53   25.30
  -3   6   5  459.65   23.54
   3   6  -5  439.75   26.49
  -3   6   5  486.69   19.84
  -3   6   4  552.41   24.41
   3   6  -4  630.00   31.28
  -3   6   4  621.58   21.38
  -3   6   3 1051.29   32.28
  -3   6   3 1147.84   28.36
   3   6  -3 1148.88   42.19
  -3   6   2  229.75   11.66
   3   6  -2  189.13   16.23
  -3   6   1 1157.59   29.64
  -3   6   1 1203.93   28.36
  -3   6   0  495.84   17.61
   3   6   0  397.78   22.59
  -3   6   0  435.00   16.77
  -3   6   0  465.94   18.22
  -3   6  -1   56.67    7.32
  -3   6  -1   75.80    7.00
   3   6   1   51.43    7.76
  -3   6  -1   61.37    6.58
  -3   6  -1   63.15    6.79
  -3   6  -2   11.38    3.12
  -3   6  -2    8.76    2.56
  -3   6  -2   10.11    3.88
  -3   6  -2   13.74    3.13
  -3   6  -2   10.82    4.86
   3   6   2   11.49    3.67
  -3   6  -3  463.13   24.75
  -3   6  -3  567.28   27.53
  -3   6  -3  598.41   21.82
   3   6   3  464.17   23.03
  -3   6  -3  576.68   22.82
  -3   6  -3  555.68   21.87
  -3   6  -4  206.10   13.09
  -3   6  -4  158.93   14.86
  -3   6  -4  167.05   14.68
  -3   6  -4  186.41   13.68
  -3   6  -4  193.88   12.99
  -3   6  -5   34.49    6.02
  -3   6  -5   29.62    4.43
  -3   6  -5   31.92    5.28
  -3   6  -6  126.45   11.18
  -3   6  -6  133.04   10.25
  -3   6  -7  244.41   12.34
  -3   6  -7  234.22   12.52
  -3   6  -8  161.78    8.48
  -3   6  -8  160.08    8.34
   3   7 -10   39.90    4.77
   3   7 -10   39.40    3.76
  -3   7  10   52.65    5.87
   3   7  -9  184.81    9.96
  -3   7   9  220.07   14.33
   3   7  -8  257.18   13.14
  -3   7   8  298.11   18.74
   3   7  -7  103.95    8.66
  -3   7   7  107.00   11.64
  -3   7   6  747.36   31.15
  -3   7   5   62.41    8.53
   3   7  -5   60.28   10.23
  -3   7   5   61.69    7.25
  -3   7   4  117.86   11.00
  -3   7   4  136.13   10.25
   3   7  -4  140.32   15.27
  -3   7   3   93.01    8.10
   3   7  -3   74.80   11.09
  -3   7   2 1618.67   35.85
   3   7  -2 1414.15   48.32
  -3   7   1  204.20   12.54
  -3   7   1  230.70   12.65
   3   7  -1  191.66   16.97
  -3   7   0  245.97   13.21
  -3   7   0  217.56   12.89
  -3   7  -1  213.43   12.59
  -3   7  -1  191.15   11.44
  -3   7  -1  192.86   12.34
  -3   7  -2 1341.67   33.80
   3   7   2 1058.84   34.62
  -3   7  -2 1163.05   31.70
  -3   7  -2 1251.32   33.63
  -3   7  -3  345.95   22.03
  -3   7  -3  395.32   18.28
  -3   7  -3  339.72   17.68
  -3   7  -3  377.65   18.06
  -3   7  -4  357.92   18.64
  -3   7  -4  352.61   17.72
  -3   7  -5  506.16   19.34
  -3   7  -5  478.14   21.97
  -3   7  -5  515.12   21.09
  -3   7  -6   11.42    2.98
  -3   7  -6    9.12    2.28
  -3   7  -7   12.21    2.57
  -3   7  -7    9.41    2.04
  -3   7  -8  221.97    8.67
  -3   8  10   25.59    3.36
   3   8 -10   18.62    2.87
   3   8  -9   53.87    4.57
  -3   8   9   65.96    6.97
   3   8  -8  151.25    8.96
  -3   8   8  186.81   13.54
  -3   8   7  453.39   22.65
  -3   8   6  241.69   16.64
  -3   8   5  110.30   10.99
  -3   8   4  207.52   13.27
   3   8  -4  190.60   18.36
  -3   8   3  972.07   28.91
   3   8  -3  887.78   39.69
  -3   8   2  134.77   10.09
   3   8  -2  110.56   13.53
  -3   8   1  953.77   29.49
  -3   8   1 1041.90   29.73
  -3   8   0  371.45   17.27
  -3   8   0  328.07   16.58
  -3   8  -1   32.75    5.09
  -3   8  -1   22.87    4.53
  -3   8  -2  398.44   18.63
  -3   8  -3  787.17   26.82
  -3   8  -3  894.48   28.30
  -3   8  -4  577.46   23.08
  -3   8  -4  681.60   24.37
  -3   8  -5  124.66    9.21
  -3   8  -5  139.30   10.15
  -3   8  -6   41.72    4.62
  -3   8  -6   38.42    4.26
  -3   8  -6   36.95    4.74
  -3   8  -7  189.07    8.52
  -3   8  -7  188.75    8.83
  -3   9   9  246.86   11.18
  -3   9   8   57.12    6.47
  -3   9   7    6.47    2.54
  -3   9   6  211.67   14.17
  -3   9   2  856.88   28.10
  -3   9   1   70.86    8.02
  -3   9   0  187.61   12.79
  -3   9  -1  195.87   13.09
  -3   9  -2  180.67   12.31
  -3   9  -3  129.50   10.35
  -3   9  -4  415.32   17.98
  -3   9  -5  359.88   14.90
  -3   9  -5  360.76   15.41
  -3   9  -6  156.21    7.72
  -3   9  -6  172.15    8.30
  -3   9  -6  179.06    9.24
  -3  10   3  115.53   10.01
  -3  10   2   19.18    4.06
  -3  10   1  452.76   20.19
  -3  10   0  369.13   17.93
  -3  10  -1   30.46    5.06
  -3  10  -2  119.91    9.83
  -3  10  -3  202.17   12.33
  -3  10  -4  291.74   13.85
  -3  10  -5   54.63    5.10
  -3  10  -5   54.16    5.17
  -3  11   7   54.84    4.58
  -3  11   6  161.54    9.44
  -3  11   5  243.06   12.79
  -3  11   4   44.59    5.67
  -3  11   3  459.51   19.35
  -3  11   2  237.72   13.93
  -3  11   1   83.85    8.15
  -3  11   0   77.36    7.91
  -3  11  -1  452.48   18.59
  -3  11  -2  197.80   11.67
  -3  11  -3    1.38    0.82
  -3  11  -4   65.76    5.83
  -3  11  -4   72.15    5.84
  -3  11  -5  156.59    7.36
  -3  12   6   30.89    3.38
  -3  12   5  129.30    8.08
  -3  12   4  356.78   14.80
  -3  12   3   78.84    7.14
  -3  12   2    7.10    2.23
  -3  12   1   74.86    7.20
  -3  12   0  331.70   14.75
  -3  12  -1  118.66    8.44
  -3  12  -2  106.62    7.54
  -3  12  -3  108.76    6.83
  -3  12  -4   58.65    4.50
  -3  13   5  281.71    9.63
  -3  13   4    4.75    1.44
  -3  13   3  210.70    9.96
  -3  13   2   91.60    6.76
  -3  13   1  122.68    7.83
  -3  13   0    2.70    1.13
  -3  13  -1  250.30   10.36
  -3  13  -2   77.54    5.07
   4 -12  -4  123.34    7.50
  -4 -12   4  109.12    7.26
   4 -12  -3  168.35    9.42
   4 -12  -2   32.96    4.31
   4 -12  -1  124.98    8.27
   4 -12   0  143.18    8.59
   4 -12   1   41.47    4.26
   4 -11  -6  111.67    6.97
  -4 -11   6   99.68    7.69
   4 -11  -5   77.81    6.75
  -4 -11   5   82.50    7.59
   4 -11  -4   60.63    5.22
   4 -11  -4   63.24    6.30
  -4 -11   4   63.85    6.92
   4 -11  -3  155.10    9.11
   4 -11  -3  162.84   10.71
  -4 -11   3  143.47   10.27
   4 -11  -2  465.39   16.77
   4 -11  -2  468.78   18.78
   4 -11  -1   42.15    4.95
   4 -11  -1   43.98    5.55
   4 -11   0  115.39    8.88
   4 -11   1  111.54    8.36
   4 -11   2  135.06    8.27
  -4 -10   7   96.89    8.06
  -4 -10   6   40.76    5.83
   4 -10  -5  235.92   11.13
  -4 -10   5  230.21   14.62
   4 -10  -4  362.95   15.06
  -4 -10   4  354.04   18.54
   4 -10  -3  427.66   17.09
   4 -10  -3  441.36   19.35
  -4 -10   3  417.85   20.19
   4 -10  -2   36.95    5.26
   4 -10  -2   40.13    5.90
  -4 -10   2   34.59    5.48
   4 -10  -1  434.37   17.88
   4 -10  -1  442.30   19.61
   4 -10   0  355.68   15.78
   4 -10   0  339.50   16.87
   4 -10   0  302.31   14.33
  -4 -10  -1   91.24   10.59
   4 -10   1   78.59    7.74
   4 -10   1   76.59    7.12
  -4 -10  -2  199.01   14.74
   4 -10   2  180.37   10.90
   4 -10   2  195.42   10.76
   4 -10   3  367.99   13.89
  -4 -10  -3  424.81   19.68
   4 -10   3  415.79   14.68
   4 -10   4  190.15    8.43
  -4  -9   7   14.33    3.48
   4  -9  -6  260.66   11.83
  -4  -9   6  248.41   16.01
   4  -9  -5  327.67   14.76
  -4  -9   5  353.73   19.95
   4  -9  -4  123.93    9.50
  -4  -9   4  127.16   11.98
   4  -9  -3  306.68   15.47
  -4  -9   3  268.08   17.48
   4  -9  -2  439.51   18.90
   4  -9  -2  438.57   20.53
  -4  -9   2  423.36   21.25
   4  -9  -1  186.30   12.21
   4  -9  -1  185.01   13.16
   4  -9   0   41.23    5.65
   4  -9   0   41.15    6.16
  -4  -9   0   39.89    7.45
   4  -9   1  760.51   24.48
  -4  -9  -1  774.68   33.80
   4  -9   1  717.42   25.47
   4  -9   1  724.39   25.40
  -4  -9  -2  341.48   21.20
   4  -9   2  292.88   15.06
   4  -9   2  328.33   16.29
   4  -9   3   24.16    3.77
  -4  -9  -3   30.81    5.96
   4  -9   3   22.18    3.90
  -4  -9  -4   46.20    6.09
   4  -9   4   60.31    5.83
   4  -9   5  212.23    9.43
   4  -8  -9  105.12    8.51
   4  -8  -8   64.55    8.16
  -4  -8   8   63.33    7.20
   4  -8  -7  280.58   12.10
  -4  -8   7  284.71   17.46
   4  -8  -6   35.49    4.80
  -4  -8   6   42.51    7.21
   4  -8  -5  375.87   17.06
  -4  -8   5  363.53   21.62
   4  -8  -4  288.79   15.38
  -4  -8   4  311.99   19.98
   4  -8  -3  245.69   14.40
  -4  -8   3  265.42   18.35
   4  -8  -2   46.59    6.05
  -4  -8   2   39.10    6.71
   4  -8  -1  321.67   16.42
  -4  -8   1  297.71   22.36
   4  -8  -1  310.46   17.18
   4  -8   0  539.38   21.28
  -4  -8   0  555.07   30.21
   4  -8   0  515.07   22.07
   4  -8   1   70.07    7.33
  -4  -8  -1   82.22   11.34
   4  -8   1   60.44    7.31
   4  -8   2  420.61   17.64
  -4  -8  -2  408.66   24.64
   4  -8   2  370.02   17.58
   4  -8   2  392.41   19.30
   4  -8   3  187.74   11.48
  -4  -8  -3  196.87   15.89
   4  -8   3  225.52   13.87
  -4  -8  -4  185.41   13.52
   4  -8   4  217.64   12.73
   4  -8   5   32.15    4.14
   4  -8   6  286.15   10.62
   4  -7  -9   79.54    8.90
   4  -7  -8   61.14    5.32
   4  -7  -8   46.26    7.87
  -4  -7   8   51.20    7.24
   4  -7  -7   42.13    5.16
  -4  -7   7   42.04    7.18
   4  -7  -7   34.97    7.21
   4  -7  -6  319.62   15.67
  -4  -7   6  336.96   21.14
   4  -7  -5  491.48   20.41
  -4  -7   5  470.34   25.57
   4  -7  -4  115.47    9.81
  -4  -7   4   96.23   11.33
   4  -7  -3  300.45   15.90
  -4  -7   3  305.58   19.87
   4  -7  -2  230.69   13.80
   4  -7  -2  222.21   17.92
  -4  -7   2  235.01   27.79
  -4  -7   2  227.34   16.40
   4  -7  -1  265.58   14.81
  -4  -7   1  260.18   20.91
   4  -7  -1  256.64   19.64
  -4  -7   1  257.36   29.48
   4  -7   0  136.25   10.41
  -4  -7   0  123.57   14.40
   4  -7   0  128.85   10.75
   4  -7   1  562.28   21.37
   4  -7   1  545.79   22.13
   4  -7   2   96.27    8.35
  -4  -7  -2  115.46   13.20
   4  -7   2   90.37    8.64
  -4  -7  -3   33.93    6.92
   4  -7   3   28.68    5.42
  -4  -7  -4   37.95    6.55
   4  -7   4   33.62    5.41
   4  -7   5  604.48   21.07
   4  -7   6  151.91    8.77
   4  -6 -10   50.71    6.61
   4  -6  -9  103.01   11.25
  -4  -6   9   80.20    5.91
   4  -6  -8   48.72    5.37
   4  -6  -8   44.03    8.29
  -4  -6   8   54.01    5.44
  -4  -6   8   46.30    7.36
   4  -6  -7   86.34    8.15
  -4  -6   7   89.69   10.97
   4  -6  -6  187.21   12.53
  -4  -6   6  202.16   16.75
   4  -6  -5  486.03   21.04
  -4  -6   5  467.08   26.02
   4  -6  -4  869.11   28.66
   4  -6  -4  863.11   34.51
  -4  -6   4  902.30   36.22
   4  -6  -3   61.03    7.20
   4  -6  -3   55.24    8.53
  -4  -6   3   64.80   13.26
  -4  -6   3   61.42    8.83
   4  -6  -2   59.83    6.93
   4  -6  -2   56.28    8.69
  -4  -6   2   53.78   11.50
  -4  -6   2   67.04    9.03
   4  -6  -1  280.01   14.99
  -4  -6   1  307.94   22.67
   4  -6  -1  298.33   20.55
  -4  -6   1  271.29   28.61
   4  -6   0 1396.00   34.97
  -4  -6   0 1555.27   51.64
   4  -6   0 1490.43   48.14
   4  -6   0 1361.71   35.66
  -4  -6   0 1358.15   66.07
   4  -6   1    7.26    2.38
   4  -6   1    6.25    2.26
  -4  -6  -1   10.34    4.69
  -4  -6  -1   11.86    7.08
   4  -6   2  265.68   13.97
  -4  -6  -2  289.92   21.15
  -4  -6  -3  114.20   12.82
   4  -6   3   86.29    9.40
  -4  -6  -4  147.54   13.16
   4  -6   4  143.46   11.57
   4  -6   5   11.00    2.91
   4  -6   6  343.60   14.59
   4  -6   7  123.32    6.88
   4  -5 -10  364.38   19.60
  -4  -5  10  297.22   11.27
   4  -5  -9  265.38   11.72
   4  -5  -9  263.23   19.54
  -4  -5   9  258.02   12.38
   4  -5  -8    6.63    2.25
  -4  -5   8    7.00    1.96
  -4  -5   7   24.00    5.82
   4  -5  -7   24.92    4.46
  -4  -5   7   16.72    3.45
   4  -5  -6 1474.33   38.16
  -4  -5   6 1367.17   33.23
  -4  -5   6 1401.60   46.43
   4  -5  -5  591.08   23.66
   4  -5  -5  617.78   28.15
   4  -5  -5  532.66   26.09
  -4  -5   5  619.20   30.50
  -4  -5   4    7.25    2.21
   4  -5  -4    8.60    3.41
   4  -5  -4    9.25    2.86
   4  -5  -4   11.06    3.82
  -4  -5   4    0.98    4.70
   4  -5  -3  315.63   16.28
   4  -5  -3  295.57   18.91
  -4  -5   3  278.36   26.56
  -4  -5   3  306.52   19.95
   4  -5  -2  599.96   27.57
  -4  -5   2  620.54   40.58
  -4  -5   2  627.72   27.84
   4  -5  -1  314.26   15.57
  -4  -5   1  350.01   23.54
   4  -5  -1  331.27   20.82
  -4  -5   1  327.27   29.46
   4  -5   0   21.72    3.94
   4  -5   0   27.46    4.56
  -4  -5   0   21.37    6.92
  -4  -5   0   16.37    6.80
   4  -5   1  854.33   25.51
  -4  -5  -1  796.49   49.19
   4  -5   2  194.46   11.52
  -4  -5  -2  243.83   19.01
  -4  -5  -2  197.58   24.56
  -4  -5  -3  112.44   12.51
   4  -5   4  192.15   13.96
   4  -5   5  463.33   20.28
   4  -5   6  114.36    8.68
   4  -5   7  136.89    7.74
  -4  -4  11   92.55    5.86
  -4  -4  11  112.73    5.94
   4  -4 -10  117.00   11.80
  -4  -4  10  100.06    7.22
   4  -4  -9  103.51    8.07
  -4  -4   9  105.15    8.51
   4  -4  -8  397.64   18.39
  -4  -4   8  387.04   17.63
   4  -4  -7  610.97   24.27
  -4  -4   7  586.35   22.49
  -4  -4   7  557.00   28.74
   4  -4  -6  159.82   12.43
   4  -4  -6  177.96   15.08
  -4  -4   6  129.49   10.03
  -4  -4   6  146.27   14.58
  -4  -4   5   23.95    6.15
   4  -4  -5   20.34    4.77
   4  -4  -5   33.13    5.41
   4  -4  -5   28.52    5.70
  -4  -4   5   28.89    4.64
   4  -4  -4 1083.16   32.70
   4  -4  -4 1119.56   37.23
  -4  -4   4 1150.29   50.49
   4  -4  -4 1120.06   36.06
  -4  -4   4 1138.98   40.64
   4  -4  -3  407.11   18.44
   4  -4  -3  414.77   21.47
   4  -4  -3  398.56   20.66
  -4  -4   3  461.26   31.90
  -4  -4   3  448.81   24.01
   4  -4  -2  109.37    9.29
  -4  -4   2  117.58    9.54
   4  -4  -2  133.45   12.18
   4  -4  -2  127.82   10.76
  -4  -4   2  132.28   17.59
  -4  -4   2  129.78   12.19
   4  -4  -1  773.05   24.40
   4  -4  -1  827.99   31.59
  -4  -4   1  796.88   44.48
   4  -4   0  840.74   24.89
  -4  -4   0  956.45   38.44
  -4  -4   0  904.01   48.44
   4  -4   1    3.55    2.02
  -4  -4  -1    3.45    3.07
  -4  -4  -1    4.95    2.31
  -4  -4  -2   39.36    7.16
  -4  -4  -2   29.47    9.59
  -4  -4  -3  664.97   43.72
  -4  -4  -3  876.51   27.54
   4  -4   4  203.55   14.28
  -4  -4  -4  226.00   13.84
   4  -4   5   68.08    7.70
  -4  -4  -5   63.58    7.39
   4  -4   6  187.11   11.53
   4  -4   7  238.19   10.69
  -4  -3  11    7.76    1.70
  -4  -3  11   12.25    2.22
   4  -3 -10  102.77    6.91
  -4  -3  10  126.52    8.74
   4  -3  -9  395.52   17.44
  -4  -3   9  411.51   17.90
   4  -3  -8  121.91   10.06
   4  -3  -8  137.61   11.22
  -4  -3   8  126.08   10.41
   4  -3  -7  231.49   14.21
   4  -3  -7  243.61   15.93
  -4  -3   7  213.18   13.75
  -4  -3   7  191.87   16.73
   4  -3  -6  490.41   22.58
   4  -3  -6  497.62   25.74
  -4  -3   6  464.20   20.01
  -4  -3   6  452.06   26.41
   4  -3  -5  881.22   29.79
   4  -3  -5  898.45   34.07
  -4  -3   5  787.51   25.06
  -4  -3   5  848.54   35.53
   4  -3  -4  121.33   10.22
   4  -3  -4  114.91   11.43
  -4  -3   4   75.29   12.10
   4  -3  -4  105.50    9.94
  -4  -3   4  112.02    8.47
  -4  -3   4  108.35   12.16
   4  -3  -3  561.05   21.58
   4  -3  -3  540.84   22.95
   4  -3  -3  541.11   23.92
  -4  -3   3  515.78   31.88
  -4  -3   3  565.90   26.89
   4  -3  -2  932.89   27.28
  -4  -3   2  969.96   28.48
   4  -3  -2 1003.73   32.27
   4  -3  -2  916.15   29.93
  -4  -3   2  972.93   45.30
  -4  -3   2 1008.96   34.38
   4  -3  -1  797.00   23.95
  -4  -3   1  756.03   24.08
   4  -3  -1  771.22   24.97
  -4  -3   1  817.69   42.40
   4  -3   0  187.39   10.85
  -4  -3   0  225.23   17.64
  -4  -3   0  181.52   20.32
  -4  -3  -1  416.59   23.95
  -4  -3  -1  326.06   28.00
  -4  -3  -2  562.51   37.93
   4  -3   2  547.04   25.51
  -4  -3  -3   12.00    2.87
  -4  -3  -3    6.56    2.64
   4  -3   3    9.95    2.49
   4  -3   4  356.96   18.64
  -4  -3  -4  381.45   18.60
   4  -3   5  311.68   16.64
  -4  -3  -5  301.69   16.34
   4  -3   6  169.96   11.01
  -4  -3  -6  194.75   12.32
   4  -3   7   81.39    6.21
  -4  -2  11   15.82    2.37
  -4  -2  11   21.70    3.06
   4  -2 -10  134.02    8.74
  -4  -2  10  163.16   10.39
   4  -2  -9  173.96   11.61
   4  -2  -9  163.03   11.58
  -4  -2   9  184.72   12.39
   4  -2  -8  496.83   20.84
   4  -2  -8  523.71   23.48
  -4  -2   8  505.71   21.80
   4  -2  -7  196.68   13.07
   4  -2  -7  219.77   15.49
  -4  -2   7  191.73   13.11
  -4  -2   7  214.39   14.24
   4  -2  -6  310.26   15.88
   4  -2  -6  371.67   20.01
   4  -2  -6  363.04   22.08
  -4  -2   6  331.71   16.96
  -4  -2   6  324.30   22.18
  -4  -2   6  322.99   16.88
   4  -2  -5  201.18   12.21
   4  -2  -5  248.12   15.79
   4  -2  -5  253.37   17.77
  -4  -2   5  234.11   13.35
  -4  -2   5  224.89   14.26
  -4  -2   5  216.97   18.15
   4  -2  -4  315.05   16.87
  -4  -2   4  289.95   16.02
   4  -2  -4  315.82   19.15
  -4  -2   4  284.56   23.27
  -4  -2   4  295.36   14.17
  -4  -2   4  294.59   19.99
   4  -2  -3 1548.64   37.61
   4  -2  -3 1473.76   36.98
   4  -2  -3 1546.55   41.77
  -4  -2   3 1636.50   57.92
  -4  -2   3 1504.63   33.04
  -4  -2   3 1522.54   45.60
   4  -2  -2  445.38   18.17
  -4  -2   2  455.18   19.57
   4  -2  -2  454.27   20.06
   4  -2  -2  453.00   20.52
  -4  -2   2  451.31   30.38
  -4  -2   2  444.50   22.88
  -4  -2   1  953.87   27.51
   4  -2  -1  908.20   25.24
   4  -2  -1  905.64   27.36
  -4  -2   1 1007.25   46.67
   4  -2  -1  945.62   27.38
  -4  -2   0  392.92   16.86
  -4  -2   0  436.28   31.23
   4  -2   0  411.90   18.73
  -4  -2  -1  127.82   17.07
   4  -2   1  123.00   11.07
  -4  -2  -1  144.50    9.56
  -4  -2  -2  130.46   17.12
   4  -2   2  141.66   12.95
  -4  -2  -2  149.78   10.06
  -4  -2  -3 1101.01   52.60
   4  -2   3 1182.03   41.28
  -4  -2  -3 1307.41   33.01
  -4  -2  -3 1370.04   35.39
  -4  -2  -4  464.50   19.87
   4  -2   4  451.59   20.70
  -4  -2  -4  516.68   21.89
  -4  -2  -5  120.92    9.94
   4  -2   5  143.48   11.06
  -4  -2  -5  132.34   10.94
   4  -2   6  242.82   12.95
  -4  -2  -6  254.22   14.54
   4  -2   7   68.75    5.50
  -4  -2  -7   84.35    7.43
   4  -1 -11   36.65    5.80
  -4  -1  11   44.25    4.54
  -4  -1  10    8.45    2.22
   4  -1 -10    7.48    2.07
   4  -1 -10   14.88    2.97
  -4  -1  10   14.30    3.10
   4  -1  -9  297.05   15.44
   4  -1  -9  294.61   16.72
  -4  -1   9  308.05   16.34
   4  -1  -8  260.71   15.01
   4  -1  -8  271.18   17.38
  -4  -1   8  290.88   16.57
  -4  -1   8  241.46   14.98
   4  -1  -7  588.50   22.70
   4  -1  -7  642.86   27.81
   4  -1  -7  645.93   30.15
  -4  -1   7  627.18   24.90
  -4  -1   7  577.91   24.02
   4  -1  -6  316.55   15.60
   4  -1  -6  390.07   21.02
  -4  -1   6  316.61   17.62
   4  -1  -6  383.87   23.08
  -4  -1   6  349.13   17.61
   4  -1  -5  181.56   11.01
   4  -1  -5  219.91   14.99
  -4  -1   5  196.76   13.42
   4  -1  -5  206.98   16.36
  -4  -1   5  196.49   12.43
   4  -1  -4  226.33   14.70
  -4  -1   4  215.56   13.80
   4  -1  -4  224.53   16.48
  -4  -1   4  223.47   20.10
  -4  -1   4  243.60   13.05
   4  -1  -3  883.91   27.58
  -4  -1   3  939.47   29.23
  -4  -1   3  860.02   28.08
   4  -1  -3  865.78   31.52
  -4  -1   3  903.93   41.57
  -4  -1   2 1745.16   39.66
   4  -1  -2 1673.99   37.89
   4  -1  -2 1626.38   41.24
  -4  -1   2 1800.72   60.19
  -4  -1   1  134.39   10.05
   4  -1  -1  122.23    9.70
  -4  -1   1  137.08   16.58
  -4  -1   0  233.20   12.96
  -4  -1   0  248.93   23.07
   4  -1   0  255.87   14.87
  -4  -1  -1  326.77   27.07
   4  -1   1  317.37   17.81
  -4  -1  -1  333.93   14.81
  -4  -1  -2  676.18   39.68
   4  -1   2  728.77   29.31
  -4  -1  -2  771.98   24.56
  -4  -1  -2  756.43   23.92
  -4  -1  -3   46.73    9.88
   4  -1   3   43.90    7.47
  -4  -1  -3   47.68    5.98
  -4  -1  -3   56.96    6.87
  -4  -1  -4  361.30   17.93
   4  -1   4  361.07   17.87
  -4  -1  -4  354.88   18.06
  -4  -1  -5  182.75   11.14
  -4  -1  -5  196.36   13.27
   4  -1   5  160.06   11.34
  -4  -1  -5  206.09   13.61
  -4  -1  -6   92.80    7.43
  -4  -1  -6  110.14    9.53
  -4  -1  -7  127.93    9.30
   4   0 -11   97.52    6.44
  -4   0  11   87.19    6.39
   4   0 -10   76.83    6.95
  -4   0  10   52.12    5.71
   4   0 -10   66.23    6.81
  -4   0  10   71.17    7.11
   4   0  -9   28.80    4.65
   4   0  -9   32.66    5.72
  -4   0   9   24.63    4.68
  -4   0   9   34.16    5.33
   4   0  -8  973.39   30.14
   4   0  -8 1096.79   36.84
  -4   0   8  990.18   32.40
  -4   0   8 1081.09   32.97
   4   0  -7  326.74   16.74
   4   0  -7  391.70   21.99
  -4   0   7  392.17   20.37
   4   0  -7  402.03   24.02
  -4   0   7  388.00   19.42
  -4   0   6  192.81   14.01
   4   0  -6  162.90   11.28
   4   0  -6  201.46   15.23
   4   0  -6  230.83   18.21
  -4   0   6  204.06   13.44
   4   0  -5    4.72    2.64
   4   0  -5    2.53    2.41
   4   0  -5    4.73    1.65
  -4   0   5    3.34    0.98
  -4   0   5    4.19    2.48
  -4   0   4  517.97   22.23
   4   0  -4  505.57   21.99
  -4   0   4  501.55   21.65
   4   0  -4  532.33   26.14
  -4   0   4  515.14   29.92
  -4   0   4  494.73   19.39
  -4   0   3  891.75   28.52
   4   0  -3  832.40   26.99
  -4   0   3  823.18   27.60
   4   0  -3  851.39   31.76
  -4   0   3  933.08   40.77
  -4   0   2  175.72   11.87
  -4   0   2  159.95   11.59
   4   0  -2  153.27   12.11
  -4   0   2  149.57   16.33
  -4   0   1 1536.83   36.45
  -4   0   1 1545.28   55.46
  -4   0   0   35.64    5.11
  -4   0   0   36.98    8.22
  -4   0  -1  929.05   44.67
   4   0   1  939.51   31.34
  -4   0  -1  961.89   26.56
   4   0   2   30.44    5.93
  -4   0  -2   38.58    5.36
  -4   0  -2   37.80    5.26
  -4   0  -3  852.48   44.32
   4   0   3  915.71   35.86
  -4   0  -3 1026.75   30.14
  -4   0  -3 1029.35   30.30
  -4   0  -4  147.29   11.63
  -4   0  -4  153.03   11.61
  -4   0  -5   42.81    6.38
  -4   0  -5   41.55    6.11
  -4   0  -6  113.53    8.61
  -4   0  -6  111.84    9.78
  -4   0  -6  115.71    9.83
  -4   0  -7  143.53    8.56
  -4   0  -7  147.05   10.08
  -4   0  -8   80.72    6.14
   4   1 -11   41.46    4.08
   4   1 -11   28.66    3.40
   4   1 -10    8.31    2.32
  -4   1  10    8.40    1.94
   4   1 -10   12.95    2.88
  -4   1  10   10.97    2.69
   4   1  -9  278.89   14.76
   4   1  -9  316.22   18.24
  -4   1   9  293.37   16.61
  -4   1   9  317.41   16.46
  -4   1   8  221.32   14.96
   4   1  -8  234.63   14.03
  -4   1   8  239.31   16.01
  -4   1   8  278.65   16.48
   4   1  -7  664.54   29.11
  -4   1   7  615.52   26.54
   4   1  -7  615.10   30.44
  -4   1   7  614.66   25.09
  -4   1   6  331.82   18.93
   4   1  -6  300.62   15.18
   4   1  -6  353.58   20.64
  -4   1   6  354.81   19.72
   4   1  -6  357.64   23.25
  -4   1   6  382.12   18.36
  -4   1   5  180.25   13.50
   4   1  -5  185.72   14.10
  -4   1   5  189.28   13.97
   4   1  -5  203.50   17.18
  -4   1   5  212.69   13.11
  -4   1   4  205.22   13.81
   4   1  -4  191.80   13.64
  -4   1   4  189.86   13.50
   4   1  -4  215.43   17.06
  -4   1   4  207.90   19.13
  -4   1   4  184.30   12.24
  -4   1   3  955.84   29.17
   4   1  -3  830.07   27.13
  -4   1   3  830.07   28.02
   4   1  -3  885.35   33.49
  -4   1   3  919.29   41.14
  -4   1   2 1770.27   40.41
  -4   1   2 1676.45   40.53
  -4   1   2 1782.06   58.67
  -4   1   1  119.03    9.61
   4   1  -1  101.97    9.65
  -4   1   1  107.76   14.35
  -4   1   0  240.45   13.82
  -4   1   0  226.24   21.22
  -4   1   0  202.94   14.35
  -4   1  -1  316.69   25.30
   4   1   1  332.65   18.24
  -4   1  -1  309.80   18.50
  -4   1  -1  330.09   15.01
  -4   1  -1  346.12   15.83
  -4   1  -2  726.35   39.83
   4   1   2  743.78   29.66
  -4   1  -2  790.69   25.27
  -4   1  -2  783.78   25.05
  -4   1  -3   58.39   12.03
   4   1   3   39.65    7.49
  -4   1  -3   46.44    6.20
  -4   1  -3   60.16    6.95
  -4   1  -4  338.30   17.92
  -4   1  -4  317.14   16.87
  -4   1  -5  203.91   14.12
  -4   1  -5  207.81   13.70
  -4   1  -6  115.84    8.82
  -4   1  -6  115.09   10.31
  -4   1  -6  120.81    9.97
  -4   1  -7  121.49    8.10
  -4   1  -7  132.75    9.45
  -4   1  -8  258.36    9.74
  -4   1  -8  257.24   11.02
   4   2 -11   25.64    3.12
   4   2 -11   21.60    3.03
   4   2 -10  141.38    9.15
   4   2 -10  136.77   10.30
  -4   2  10  120.98    9.48
  -4   2  10  131.59    9.09
   4   2  -9  147.45   10.43
   4   2  -9  176.23   13.52
  -4   2   9  154.37   12.18
  -4   2   9  165.30   11.61
  -4   2   8  410.84   19.65
   4   2  -8  509.44   24.86
   4   2  -8  408.86   18.51
  -4   2   8  479.01   23.56
  -4   2   8  500.36   21.69
  -4   2   7  180.93   13.54
   4   2  -7  209.17   16.33
   4   2  -7  161.23   11.32
  -4   2   7  197.81   15.30
  -4   2   7  207.22   13.88
  -4   2   6  309.75   17.92
   4   2  -6  315.69   19.87
  -4   2   6  337.90   19.81
   4   2  -6  347.76   23.44
  -4   2   6  332.75   17.67
  -4   2   5  218.40   14.53
   4   2  -5  213.68   15.43
  -4   2   5  215.59   15.05
   4   2  -5  228.63   18.70
  -4   2   5  206.87   19.20
  -4   2   5  215.04   13.77
  -4   2   4  305.31   16.95
   4   2  -4  260.61   16.05
  -4   2   4  289.27   16.90
   4   2  -4  327.60   22.03
  -4   2   4  313.60   24.10
  -4   2   3 1516.65   37.70
  -4   2   3 1393.03   37.81
   4   2  -3 1321.33   35.17
   4   2  -3 1423.15   45.09
  -4   2   3 1547.28   54.84
  -4   2   2  363.60   18.12
  -4   2   2  466.85   19.79
   4   2  -2  359.42   21.11
  -4   2   2  448.75   29.12
  -4   2   2  415.01   19.23
  -4   2   1  922.00   27.99
   4   2  -1  830.67   30.72
  -4   2   1  797.45   28.53
  -4   2   1  934.36   43.12
  -4   2   0  378.47   20.02
  -4   2   0  414.00   28.75
  -4   2  -1  129.73   12.10
  -4   2  -1  135.38   16.70
   4   2   1  132.77   11.92
  -4   2  -1  143.97    9.93
  -4   2  -1  138.57   10.22
  -4   2  -2  117.47   15.49
  -4   2  -2  139.48   12.80
   4   2   2  128.34   12.18
  -4   2  -2  164.27   11.45
  -4   2  -2  146.03   10.51
  -4   2  -3 1068.29   48.82
   4   2   3 1090.77   39.42
  -4   2  -3 1154.95   39.44
  -4   2  -3 1292.95   34.85
  -4   2  -3 1254.77   33.70
  -4   2  -4  519.94   22.58
  -4   2  -4  492.29   21.24
  -4   2  -5  138.04   11.80
  -4   2  -5  122.04   10.39
  -4   2  -6  244.93   13.12
  -4   2  -6  248.72   15.39
  -4   2  -6  258.31   14.50
  -4   2  -7   78.45    6.54
  -4   2  -7   82.00    7.27
  -4   2  -8  176.24    7.99
  -4   2  -8  191.35    9.18
   4   3 -11   14.64    2.15
   4   3 -11   11.66    2.32
  -4   3  11   14.07    2.44
   4   3 -10  108.07    7.54
   4   3 -10  112.34    9.19
  -4   3  10  111.22    9.09
   4   3  -9  384.46   19.91
   4   3  -9  344.13   15.47
  -4   3   9  400.09   20.23
  -4   3   9  355.76   16.89
   4   3  -8  124.40   12.15
   4   3  -8  106.36    8.98
  -4   3   8  127.08   12.28
  -4   3   8  114.01   10.08
  -4   3   7  219.09   14.15
   4   3  -7  234.70   17.14
   4   3  -7  180.78   11.85
  -4   3   7  249.77   17.80
  -4   3   7  233.25   14.96
  -4   3   6  390.75   19.49
   4   3  -6  419.35   22.82
  -4   3   6  432.85   23.20
   4   3  -6  472.40   27.93
  -4   3   6  452.00   20.20
  -4   3   5  804.28   30.29
  -4   3   5  668.39   25.70
   4   3  -5  668.50   28.26
   4   3  -5  835.97   37.72
  -4   3   5  781.79   38.57
  -4   3   4  113.43   10.05
   4   3  -4  106.29   10.23
  -4   3   4  111.12   10.63
   4   3  -4  114.74   13.22
  -4   3   4  118.89   15.10
  -4   3   3  486.51   20.79
  -4   3   3  485.25   21.56
   4   3  -3  416.32   24.74
  -4   3   3  520.04   32.07
  -4   3   3  410.09   18.97
  -4   3   2  831.73   27.36
  -4   3   2  810.42   27.78
   4   3  -2  776.23   32.23
  -4   3   2  735.94   26.94
  -4   3   1  711.05   24.99
  -4   3   1  673.74   26.66
  -4   3   0  162.91   13.39
  -4   3   0  181.62   19.25
  -4   3   0  160.09   10.19
  -4   3  -1  337.07   26.96
   4   3   1  321.68   18.65
  -4   3  -1  355.69   16.05
  -4   3  -1  350.95   16.82
  -4   3  -2  566.58   35.09
   4   3   2  596.40   26.86
  -4   3  -2  644.92   23.72
  -4   3  -2  579.67   27.27
  -4   3  -2  625.12   22.70
  -4   3  -3    9.46    2.75
  -4   3  -3   14.29    3.46
   4   3   3   14.30    4.79
  -4   3  -3   15.35    5.17
  -4   3  -4  337.76   18.42
  -4   3  -4  324.69   16.99
  -4   3  -5  310.40   17.80
  -4   3  -5  333.87   17.03
  -4   3  -6  172.00   12.61
  -4   3  -6  190.40   12.11
  -4   3  -7   91.18    6.97
  -4   3  -7   85.11    7.24
  -4   3  -8  281.86   10.03
  -4   3  -8  292.57   10.88
   4   4 -11   96.43    5.97
  -4   4  11  102.13    6.38
   4   4 -10   77.48    5.93
   4   4 -10   74.43    7.22
  -4   4  10   93.40    8.14
   4   4  -9   96.88    9.70
   4   4  -9   86.64    7.22
   4   4  -8  334.68   19.86
  -4   4   8  381.89   21.38
  -4   4   7  541.03   26.62
  -4   4   6  138.19   11.04
  -4   4   6  171.28   14.58
   4   4  -6  163.47   16.93
  -4   4   5   24.43    4.70
  -4   4   5   32.51    6.11
   4   4  -5   20.70    5.60
  -4   4   5   23.85    6.57
  -4   4   4  966.58   30.14
   4   4  -4  816.63   29.51
  -4   4   4  891.38   31.59
   4   4  -4 1026.33   41.09
  -4   4   4 1144.52   50.25
  -4   4   3  283.98   16.10
  -4   4   3  343.13   17.23
  -4   4   3  336.07   18.24
   4   4  -3  345.29   23.25
  -4   4   3  401.35   30.20
  -4   4   2  118.24   10.12
  -4   4   2  103.01   10.04
  -4   4   2  116.98   10.26
   4   4  -2  103.60   12.24
  -4   4   2  144.54   18.55
  -4   4   1  574.84   25.49
   4   4  -1  540.86   26.90
  -4   4   0  766.51   30.86
  -4   4   0  833.88   43.60
  -4   4   0  808.81   24.49
  -4   4   0  791.03   25.28
  -4   4  -1    1.26    1.55
  -4   4  -1    1.60    1.12
  -4   4  -1    4.82    3.33
  -4   4  -1   -0.67    1.71
  -4   4  -2   42.97    7.55
  -4   4  -2   30.65    8.15
   4   4   2   34.01    6.20
  -4   4  -2   46.73    6.36
  -4   4  -2   44.21    5.92
  -4   4  -3  782.00   27.93
  -4   4  -3  723.34   31.55
  -4   4  -3  772.76   26.47
  -4   4  -4  198.82   14.16
  -4   4  -4  200.97   13.21
  -4   4  -5   59.14    7.72
  -4   4  -5   54.70    6.76
  -4   4  -6  193.97   13.12
  -4   4  -6  186.35   11.70
  -4   4  -7  248.63   11.23
  -4   4  -7  256.23   12.11
   4   5 -10  266.11    9.90
   4   5 -10  284.44   13.24
   4   5  -9  224.92   10.76
   4   5  -9  251.99   14.86
  -4   5   9  274.19   15.93
   4   5  -8    8.69    3.27
  -4   5   8    4.58    2.51
  -4   5   7   24.77    5.52
  -4   5   6 1306.50   41.77
  -4   5   5  411.12   18.59
  -4   5   5  493.80   24.16
  -4   5   5  456.71   33.05
  -4   5   4    4.39    2.11
  -4   5   4    5.08    2.58
   4   5  -4    1.31    2.11
  -4   5   3  260.16   16.41
   4   5  -3  246.74   20.22
  -4   5   3  250.17   13.12
  -4   5   2  449.57   22.47
  -4   5   2  539.60   22.71
   4   5  -2  451.21   27.02
  -4   5   2  531.54   19.43
   4   5  -1  223.75   17.81
  -4   5   1  352.10   29.67
  -4   5   1  306.29   14.84
  -4   5   1  258.44   17.55
  -4   5   0   18.79    4.86
  -4   5   0   18.24    3.34
  -4   5   0    9.72    5.97
  -4   5   0   19.92    3.99
  -4   5   0   17.98    3.90
  -4   5  -1  714.90   31.56
  -4   5  -1  784.15   23.65
  -4   5  -1  774.46   42.88
   4   5   1  699.47   29.13
  -4   5  -1  786.20   26.04
  -4   5  -1  789.73   25.72
  -4   5  -2  181.27   15.92
  -4   5  -2  165.49   19.23
   4   5   2  156.32   13.78
  -4   5  -2  181.96   12.62
  -4   5  -2  179.86   12.29
  -4   5  -3   92.03    9.37
  -4   5  -3   86.69    8.73
  -4   5  -4  181.29   13.38
  -4   5  -4  195.63   12.96
  -4   5  -5  441.39   20.73
  -4   5  -5  444.08   19.06
  -4   5  -6   88.92    8.52
  -4   5  -6  109.53    8.54
  -4   5  -7  126.79    7.46
  -4   5  -7  127.02    7.82
   4   6 -10   45.24    4.82
  -4   6  10   62.15    5.87
   4   6  -9   99.32    8.81
  -4   6   9  126.43   10.14
   4   6  -8   46.00    6.86
  -4   6   8   37.11    6.35
  -4   6   7  106.57   10.99
  -4   6   6  188.65   15.06
  -4   6   5  440.46   22.77
  -4   6   4  813.86   30.08
   4   6  -4  767.36   37.62
  -4   6   4  811.91   24.85
  -4   6   3   42.25    6.66
   4   6  -3   43.02    8.49
  -4   6   3   52.93   12.03
  -4   6   3   49.09    5.96
  -4   6   2   55.57    7.32
   4   6  -2   40.87    8.41
  -4   6   2   47.06    7.10
  -4   6   2   58.37   12.88
  -4   6   2   51.76    6.28
  -4   6   1  232.29   12.69
   4   6  -1  167.34   16.00
  -4   6   1  256.94   26.60
  -4   6   1  179.37   15.11
  -4   6   1  224.06   13.13
  -4   6   1  214.75   12.90
  -4   6   0 1233.95   30.97
  -4   6   0 1235.84   32.56
  -4   6   0 1295.42   33.59
  -4   6  -1    6.33    2.50
  -4   6  -1    6.18    2.58
  -4   6  -1    8.53    4.18
  -4   6  -1    0.50    6.45
   4   6   1    4.74    1.88
  -4   6  -2  250.63   15.06
  -4   6  -2  241.17   14.45
  -4   6  -3   88.83    9.15
  -4   6  -3   89.99    8.75
  -4   6  -4  136.54   11.43
  -4   6  -4  135.03   10.50
  -4   6  -5   11.38    2.99
  -4   6  -5   17.04    3.37
  -4   6  -6  300.88   12.84
  -4   6  -6  310.44   13.65
  -4   6  -7  135.46    7.00
  -4   6  -7  144.16    7.52
   4   7 -10  146.92    7.54
  -4   7  10  215.76    9.49
   4   7  -9   70.13    6.58
  -4   7   9   78.42    7.32
   4   7  -8   46.21    6.27
  -4   7   8   56.93    7.26
  -4   7   7   45.85    6.88
  -4   7   6  269.78   17.16
  -4   7   5  457.61   18.35
  -4   7   5  424.50   21.80
  -4   7   4   94.34    9.63
  -4   7   4   85.63    8.11
  -4   7   3  229.13   14.53
  -4   7   3  232.26   13.62
  -4   7   2  154.02   20.88
  -4   7   2  154.99   10.35
  -4   7   2  166.66   11.54
  -4   7   1  250.75   26.87
  -4   7   1  216.87   12.60
  -4   7   1  235.62   13.80
  -4   7   0  122.11    9.55
  -4   7   0  121.65    9.94
  -4   7  -1  479.16   19.94
  -4   7  -1  522.03   21.25
  -4   7  -2   74.79    8.07
  -4   7  -2   86.86    8.59
  -4   7  -3   24.74    4.76
  -4   7  -3   26.14    4.64
  -4   7  -4   34.80    5.43
  -4   7  -4   35.18    5.20
  -4   7  -5  444.66   18.58
  -4   7  -5  517.46   18.58
  -4   7  -6  128.23    7.47
  -4   7  -6  156.10    8.76
   4   8  -9   91.13    6.44
  -4   8   9  116.30    7.54
   4   8  -8   61.32    6.34
  -4   8   8   67.97    6.92
  -4   8   7  237.73   14.37
  -4   8   6   33.96    5.70
  -4   8   6   42.33    4.96
  -4   8   5  324.61   17.56
  -4   8   5  346.82   15.73
  -4   8   4  184.88   13.06
  -4   8   4  220.80   13.01
  -4   8   3  210.67   13.04
  -4   8   2   41.28    5.78
  -4   8   1  242.93   14.18
  -4   8   0  478.71   20.33
  -4   8  -1   54.64    6.31
  -4   8  -1   77.12    7.96
  -4   8  -2  307.76   15.74
  -4   8  -2  352.32   17.15
  -4   8  -3  147.29   10.81
  -4   8  -3  178.43   11.72
  -4   8  -4  126.81    9.46
  -4   8  -4  168.06   10.58
  -4   8  -5   33.40    4.20
  -4   8  -6  245.84    8.83
  -4   8  -6  262.38    9.95
   4   9  -8   54.91    4.99
  -4   9   8   65.96    5.48
   4   9  -7    8.88    2.20
  -4   9   7   13.05    3.07
   4   9  -6  140.16    9.69
  -4   9   6  168.21   10.92
  -4   9   5  277.55   13.56
  -4   9   4   95.45    8.35
  -4   9   3  260.89   14.28
  -4   9   2  397.69   18.04
  -4   9   1  167.41   11.62
  -4   9   0   27.89    4.83
  -4   9  -1  737.76   24.59
  -4   9  -2  310.68   15.30
  -4   9  -3   25.80    4.19
  -4   9  -4   45.28    4.95
  -4   9  -5  159.77    7.09
  -4   9  -5  193.09    8.98
  -4  10   5  208.87   10.85
  -4  10   4  373.92   15.82
  -4  10   3  347.34   15.80
  -4  10   2   32.93    4.85
  -4  10   1  384.89   16.99
  -4  10   0  314.13   15.14
  -4  10  -1   86.55    7.67
  -4  10  -2  190.74   11.04
  -4  10  -3  410.94   15.19
  -4  10  -4  195.17    9.13
  -4  11   5   63.50    5.16
  -4  11   4   60.25    5.60
  -4  11   3  132.68    8.82
  -4  11   2  467.76   17.19
  -4  11   1   38.89    4.92
  -4  11   0   88.96    7.31
  -4  11  -1  102.04    7.57
  -4  11  -2  168.74    9.11
  -4  11  -3   19.33    2.77
  -4  12   4  109.05    6.30
  -4  12   3  132.87    7.55
  -4  12   2   32.79    3.90
  -4  12   1  114.36    7.31
  -4  12   0  145.63    8.07
  -4  12  -1   42.80    4.11
   5 -10  -5   95.31    5.67
   5 -10  -5   99.94    6.67
   5 -10  -4  295.08   11.25
   5 -10  -4  283.50   12.15
   5 -10  -3   28.36    3.75
   5 -10  -3   24.39    3.60
   5 -10  -2   64.61    5.58
   5 -10  -2   55.33    5.44
   5 -10  -1  165.32    8.82
   5 -10  -1  134.67    8.22
   5 -10   0  108.87    6.62
   5  -9  -6   84.06    5.65
   5  -9  -5  109.67    7.26
  -5  -9   4   14.49    3.51
   5  -9  -4   17.81    3.31
   5  -9  -4   17.79    3.30
   5  -9  -3  460.59   16.81
   5  -9  -3  424.12   17.02
   5  -9  -2  203.67   11.05
   5  -9  -2  181.12   10.98
   5  -9  -1  133.12    8.79
   5  -9  -1  109.17    8.18
   5  -9   0   30.07    4.01
   5  -9   0   28.65    3.88
   5  -9   0   29.45    4.27
   5  -9   1  266.37   12.52
   5  -9   2  122.86    7.73
   5  -9   3   26.94    3.00
   5  -8  -7   51.32    4.43
   5  -8  -6   21.26    3.29
   5  -8  -5  193.07   10.82
  -5  -8   5  152.97   12.47
   5  -8  -4  500.89   18.71
  -5  -8   4  476.26   22.13
   5  -8  -3  249.04   13.15
   5  -8  -3  229.29   13.24
  -5  -8   3  216.87   14.26
   5  -8  -2  227.12   12.62
   5  -8  -2  192.99   11.93
   5  -8  -1  388.22   16.30
   5  -8  -1  353.48   15.79
   5  -8   0  153.94    9.78
   5  -8   0  133.40    9.02
   5  -8   1   97.03    7.12
   5  -8   1   95.88    8.59
   5  -8   2   67.08    6.70
   5  -8   3  379.49   14.44
   5  -8   4   32.83    3.49
   5  -7  -8   21.47    2.74
  -5  -7   8   17.09    2.68
   5  -7  -7  235.17   11.12
  -5  -7   7  191.85   10.44
   5  -7  -6  180.13   10.78
  -5  -7   6  160.21   10.08
   5  -7  -5  474.34   18.63
  -5  -7   5  422.95   16.63
  -5  -7   5  441.34   22.90
  -5  -7   4   19.19    4.80
   5  -7  -4   20.50    3.83
   5  -7  -3  390.75   17.61
  -5  -7   3  357.21   20.13
   5  -7  -2  602.20   21.58
   5  -7  -2  542.94   20.77
   5  -7  -1   10.98    2.68
   5  -7  -1   11.92    3.03
   5  -7   0   49.31    5.64
   5  -7   1  148.57    9.35
   5  -7   2  478.13   20.11
   5  -7   3   24.18    4.04
   5  -7   4  191.20    9.88
  -5  -6   9   11.05    2.22
   5  -6  -9   13.93    3.06
  -5  -6   8  385.70   15.53
   5  -6  -8  334.26   18.13
  -5  -6   7  123.83    9.47
   5  -6  -7   98.34   10.54
  -5  -6   6   22.10    4.18
   5  -6  -6   19.35    3.54
  -5  -6   5    1.47    1.20
  -5  -6   5    3.07    1.91
   5  -6  -5    3.05    2.22
   5  -6  -4  526.65   21.18
  -5  -6   4  494.48   19.58
  -5  -6   4  515.34   26.33
   5  -6  -3  173.08   11.85
  -5  -6   3  183.27   14.94
   5  -6  -2  244.04   13.97
   5  -6  -1  172.70   11.43
   5  -6   0  384.70   16.47
   5  -6   1   47.83    5.36
   5  -6   3  410.27   18.01
   5  -6   4   26.79    4.07
   5  -6   5    9.33    1.94
   5  -5  -9  322.95   11.23
  -5  -5   9  287.34   12.70
   5  -5  -9  312.40   17.21
   5  -5  -8   46.27    5.20
  -5  -5   8   41.16    5.36
   5  -5  -8   43.60    7.26
   5  -5  -7  149.82   10.48
  -5  -5   7  127.03   10.60
   5  -5  -6  208.29   13.19
  -5  -5   6  171.06   12.61
   5  -5  -5  187.30   12.97
  -5  -5   5  186.48   13.13
  -5  -5   5  180.21   16.02
   5  -5  -4   80.64    8.33
  -5  -5   4   69.28    7.78
  -5  -5   4   63.42    9.44
   5  -5  -3  623.63   23.27
  -5  -5   3  607.86   22.43
   5  -5  -2  427.41   18.79
   5  -5  -1   37.85    5.30
   5  -5   0   13.98    3.07
   5  -5   1  257.78   12.56
   5  -5   3   48.06    6.26
   5  -5   4  382.55   16.27
   5  -5   5  170.55    8.94
  -5  -4  10   67.13    5.15
   5  -4 -10   84.67    7.95
   5  -4  -9   43.89    4.58
  -5  -4   9   42.30    5.11
   5  -4  -8  144.36   10.04
  -5  -4   8  112.06    9.86
   5  -4  -7  271.51   15.00
  -5  -4   7  241.75   15.46
   5  -4  -6   27.28    4.91
  -5  -4   6   31.17    5.72
   5  -4  -5  191.44   13.35
  -5  -4   5  166.76   12.97
   5  -4  -4  215.60   13.84
  -5  -4   4  234.48   14.91
   5  -4  -3  369.07   17.83
  -5  -4   3  349.98   17.68
  -5  -4   2  125.05    9.89
   5  -4  -2  127.75   10.00
   5  -4  -1  204.95   12.37
   5  -4   0  195.86   11.52
   5  -4   3  353.27   17.39
   5  -4   4   82.95    7.63
   5  -4   5    4.14    1.47
   5  -3 -10  157.75    7.20
  -5  -3  10  140.25    8.06
   5  -3  -9  157.76    9.58
  -5  -3   9  132.67    9.82
   5  -3  -8   67.40    7.23
  -5  -3   8   57.82    7.28
  -5  -3   8   68.87    6.73
   5  -3  -7   46.82    6.43
  -5  -3   7   35.43    6.11
  -5  -3   7   43.87    5.76
   5  -3  -6  429.09   20.44
  -5  -3   6  435.66   21.98
   5  -3  -5  357.68   18.50
  -5  -3   5  336.30   19.13
   5  -3  -4  455.71   20.50
  -5  -3   4  451.27   21.47
  -5  -3   3  284.36   16.18
   5  -3  -3  274.76   15.42
  -5  -3   3  236.67   24.81
  -5  -3   2  389.44   18.49
   5  -3  -2  361.99   17.03
  -5  -3   2  371.58   31.47
  -5  -3   1  323.94   15.89
   5  -3  -1  327.35   15.16
  -5  -3   1  313.10   29.85
  -5  -3   1  313.05   14.18
   5  -3   3   39.21    5.72
   5  -3   4   90.59    7.98
   5  -3   5   90.04    6.76
  -5  -2  10    4.35    1.38
   5  -2 -10    6.06    1.64
   5  -2  -9   41.00    5.14
  -5  -2   9   31.13    4.70
   5  -2  -8  229.19   14.13
  -5  -2   8  212.91   14.29
  -5  -2   8  218.60   12.78
   5  -2  -7  605.71   24.54
  -5  -2   7  579.71   25.44
  -5  -2   7  595.10   22.66
   5  -2  -6   40.96    6.23
  -5  -2   6   42.53    6.88
   5  -2  -5  605.96   24.81
  -5  -2   5  643.40   26.79
  -5  -2   4  288.29   17.19
   5  -2  -4  266.61   15.73
   5  -2  -4  271.95   19.33
  -5  -2   3   91.67    9.36
   5  -2  -3   90.63    8.52
   5  -2  -3   84.25    9.94
  -5  -2   3   65.31   13.25
  -5  -2   2   38.24    5.83
   5  -2  -2   39.30    5.46
  -5  -2   2   35.00    9.67
  -5  -2   1  424.89   18.81
   5  -2  -1  431.07   17.10
  -5  -2   1  416.42   33.70
  -5  -2   0  804.55   47.03
  -5  -2   0  763.67   23.79
  -5  -2  -1   22.07    3.99
  -5  -2  -2  113.05    8.98
  -5  -2  -3  129.06    9.47
   5  -2   3  152.49   11.15
   5  -2   4  348.05   15.85
  -5  -2  -4  428.90   16.98
   5  -2   5   17.60    2.96
  -5  -2  -5   21.64    3.49
  -5  -1  10  123.17    7.62
   5  -1 -10  152.89    8.42
  -5  -1   9   25.45    4.42
   5  -1  -9   33.60    4.86
  -5  -1   8   32.65    5.55
   5  -1  -8   32.43    5.46
  -5  -1   8   32.22    5.17
  -5  -1   8   33.66    5.15
  -5  -1   7   10.20    3.50
   5  -1  -7    7.03    2.81
  -5  -1   7    4.71    2.24
  -5  -1   7    9.42    2.81
  -5  -1   6  843.28   31.36
   5  -1  -6  842.01   30.34
  -5  -1   6  787.12   28.66
  -5  -1   5  463.79   22.67
   5  -1  -5  416.47   20.42
  -5  -1   4  151.27   12.55
   5  -1  -4  146.28   11.42
   5  -1  -4  135.29   13.43
  -5  -1   4  123.85   17.51
  -5  -1   3  222.19   14.74
   5  -1  -3  203.75   12.94
   5  -1  -3  188.87   15.55
  -5  -1   3  205.68   23.00
  -5  -1   2 1028.61   31.97
   5  -1  -2 1033.26   28.62
  -5  -1   2 1098.95   54.54
  -5  -1   1  497.18   21.05
  -5  -1   1  559.58   39.10
  -5  -1   0  456.61   35.96
  -5  -1   0  489.00   19.29
  -5  -1  -1  681.51   23.23
  -5  -1  -2   58.07    6.70
  -5  -1  -3    9.09    2.32
  -5  -1  -3    7.38    2.52
   5  -1   3    4.15    1.57
  -5  -1  -4  106.82    8.80
  -5  -1  -4  101.38    8.38
  -5  -1  -5  430.88   16.07
  -5  -1  -5  502.12   17.74
  -5  -1  -6    8.72    1.87
  -5   0  10    8.92    1.90
   5   0 -10   10.22    2.21
  -5   0   9   47.90    5.83
   5   0  -9   53.17    6.44
  -5   0   9   45.72    5.44
  -5   0   8   81.03    8.63
   5   0  -8   88.83    9.23
  -5   0   8   83.23    8.23
  -5   0   7  292.79   17.80
   5   0  -7  314.61   18.33
  -5   0   7  290.88   17.28
  -5   0   6  119.95   11.49
   5   0  -6  109.40   10.91
  -5   0   6  110.85   10.76
  -5   0   5 1437.52   41.05
   5   0  -5 1295.13   38.02
  -5   0   5 1354.96   40.01
  -5   0   4  555.66   24.43
   5   0  -4  506.13   21.86
   5   0  -4  502.26   27.14
  -5   0   4  551.50   37.47
  -5   0   3  138.65   11.75
   5   0  -3  112.85    9.50
   5   0  -3  106.28   11.70
  -5   0   3  152.16   19.64
  -5   0   2  277.23   16.24
  -5   0   2  332.55   29.46
  -5   0   1 1191.98   34.32
   5   0  -1 1155.42   36.98
  -5   0   0 1139.99   57.03
  -5   0   0 1061.69   29.88
  -5   0  -1    6.44    2.33
  -5   0  -2   69.84    7.46
  -5   0  -2   71.18    7.17
  -5   0  -3  220.05   13.49
  -5   0  -3  225.58   13.17
  -5   0  -4  275.17   14.84
  -5   0  -4  307.58   14.95
  -5   0  -5    2.00    1.00
  -5   0  -5    5.37    2.00
  -5   0  -6  325.68   12.50
   5   1 -10  139.32    8.41
  -5   1   9   23.60    3.91
   5   1  -9   31.77    4.84
  -5   1   9   22.26    3.80
  -5   1   8   27.58    4.90
   5   1  -8   32.92    5.55
  -5   1   8   31.85    5.47
  -5   1   7    8.20    2.77
   5   1  -7    7.93    3.02
  -5   1   7   12.26    3.77
  -5   1   6  774.47   29.52
   5   1  -6  750.26   29.32
  -5   1   6  768.37   29.61
  -5   1   5  451.01   22.65
   5   1  -5  418.55   20.94
  -5   1   5  449.12   22.42
  -5   1   4  149.69   12.58
   5   1  -4  128.65   10.94
  -5   1   4  160.74   13.56
   5   1  -4  154.34   15.19
  -5   1   4  132.11   17.43
  -5   1   3  231.75   15.30
   5   1  -3  191.38   12.26
   5   1  -3  180.18   15.68
  -5   1   3  220.10   23.50
  -5   1   2  963.79   31.74
  -5   1   2 1078.19   52.44
  -5   1   1  553.65   37.99
  -5   1   0  480.41   35.77
   5   1   0  408.70   22.29
  -5   1   0  487.95   20.24
  -5   1  -1  712.21   24.84
  -5   1  -2   63.89    7.32
  -5   1  -2   69.66    7.13
  -5   1  -3    5.92    1.89
  -5   1  -3    4.14    2.09
  -5   1  -4  108.90    9.48
  -5   1  -4  100.31    8.46
  -5   1  -5  451.94   15.20
  -5   1  -5  461.08   18.42
  -5   1  -5  500.31   17.97
  -5   1  -6    7.52    1.94
   5   2 -10    5.76    1.63
  -5   2  10    5.15    1.54
  -5   2   9   29.83    3.91
   5   2  -9   36.64    5.20
  -5   2   9   33.98    4.93
  -5   2   8  175.16   11.81
   5   2  -8  215.35   14.33
  -5   2   8  215.88   14.16
  -5   2   7  521.58   22.77
   5   2  -7  520.73   23.96
  -5   2   7  560.21   24.86
  -5   2   6   39.90    6.39
   5   2  -6   41.05    6.73
  -5   2   6   42.73    6.91
  -5   2   5  554.36   24.44
   5   2  -5  509.61   23.19
  -5   2   5  560.70   25.37
  -5   2   4  283.19   17.10
   5   2  -4  233.95   14.56
  -5   2   4  269.36   17.23
   5   2  -4  242.92   19.72
  -5   2   4  266.36   25.03
  -5   2   3   90.87    9.46
   5   2  -3   73.39   10.38
  -5   2   3   90.91   14.97
  -5   2   2   34.12    5.76
  -5   2   2   35.02    8.99
  -5   2   1  478.36   35.49
  -5   2   0  779.29   45.56
   5   2   0  682.29   30.09
  -5   2   0  756.78   26.12
  -5   2  -1   27.19    4.57
  -5   2  -1   24.60    4.72
  -5   2  -2  117.61   10.03
  -5   2  -2  110.65    9.18
  -5   2  -3  158.47   11.77
  -5   2  -3  149.90   10.69
  -5   2  -4  397.12   18.51
  -5   2  -4  418.65   17.48
  -5   2  -5   20.85    3.21
  -5   2  -5   23.54    4.03
  -5   2  -5   24.23    3.68
  -5   2  -6  284.41   10.18
  -5   2  -6  331.96   12.52
   5   3 -10  137.98    8.05
  -5   3  10  160.65    8.71
   5   3  -9  147.21   10.24
  -5   3   9  158.25   10.77
  -5   3   8   45.73    5.43
   5   3  -8   55.78    7.18
  -5   3   8   65.48    7.73
  -5   3   7   34.07    5.27
   5   3  -7   34.07    5.75
  -5   3   7   42.62    6.79
  -5   3   6  359.83   18.62
   5   3  -6  351.76   19.41
  -5   3   6  410.68   21.82
  -5   3   5  321.14   18.18
   5   3  -5  283.90   16.93
  -5   3   5  345.14   20.06
  -5   3   4  416.38   20.61
  -5   3   4  443.14   22.31
  -5   3   3  256.62   16.35
   5   3  -3  199.60   17.60
  -5   3   3  274.45   26.29
  -5   3   2  436.42   33.77
  -5   3   1  371.84   31.57
  -5   3   1  335.39   16.92
  -5   3   0  128.56    9.65
  -5   3   0  152.35   11.37
  -5   3  -1  459.67   20.13
  -5   3  -1  471.09   19.27
  -5   3  -2  291.78   16.16
  -5   3  -2  300.81   15.42
  -5   3  -3   44.72    6.22
  -5   3  -3   44.18    5.72
  -5   3  -4   81.93    8.26
  -5   3  -4   86.41    7.78
  -5   3  -5   97.40    8.30
  -5   3  -5  111.74    8.08
  -5   3  -6   86.81    5.49
  -5   3  -6  110.05    6.83
   5   4 -10   66.66    5.16
  -5   4  10   72.13    5.60
   5   4  -9   33.93    4.65
  -5   4   9   41.93    5.30
   5   4  -8  102.81    9.35
  -5   4   8  119.85   10.36
  -5   4   7  176.96   11.37
   5   4  -7  195.40   13.74
  -5   4   6   22.34    4.54
   5   4  -6   23.52    4.98
  -5   4   6   34.26    6.40
  -5   4   5  132.39   11.27
   5   4  -5  114.72   10.33
  -5   4   5  149.90   13.14
  -5   4   4  195.72   13.94
  -5   4   4  234.27   16.12
  -5   4   1  196.97   12.89
  -5   4   0  191.57   12.78
  -5   4   0  209.24   12.49
  -5   4  -1  132.21   11.01
  -5   4  -1  155.76   10.91
  -5   4  -2  212.88   13.70
  -5   4  -2  222.99   13.15
  -5   4  -3  343.06   17.32
  -5   4  -3  358.65   16.59
  -5   4  -4   81.21    8.06
  -5   4  -4   87.81    7.61
  -5   4  -5    2.12    1.20
  -5   4  -5    2.36    1.21
  -5   4  -6  106.30    5.82
  -5   4  -6  114.27    6.55
   5   5  -9  267.28   12.16
  -5   5   9  335.99   14.51
   5   5  -8   41.54    5.45
  -5   5   8   45.35    6.19
   5   5  -7   94.46    9.05
  -5   5   7  128.31   11.28
   5   5  -6  115.17   10.28
  -5   5   6  177.89   13.85
   5   5  -5   99.52    9.20
  -5   5   5  119.82   11.62
  -5   5   4   76.20    9.23
  -5   5   2  358.55   17.54
  -5   5   1   32.25    4.89
  -5   5   1   33.30    5.36
  -5   5   0   17.48    3.72
  -5   5   0   12.15    3.25
  -5   5  -1  270.61   15.20
  -5   5  -1  280.11   14.69
  -5   5  -2  266.88   15.18
  -5   5  -2  285.99   14.68
  -5   5  -3   43.34    5.98
  -5   5  -3   39.62    5.33
  -5   5  -4  353.31   16.52
  -5   5  -4  364.82   15.17
  -5   5  -5  161.98    9.84
  -5   5  -5  191.96    9.68
   5   6  -9   14.01    2.39
  -5   6   9   18.05    3.08
   5   6  -8  309.00   13.72
  -5   6   8  392.34   16.99
   5   6  -7   94.30    8.25
  -5   6   7  126.95   10.58
   5   6  -6   16.78    3.63
  -5   6   6   19.02    4.63
  -5   6   5    2.04    1.72
  -5   6   4  402.59   20.52
  -5   6   3  136.83   10.39
  -5   6   2  230.05   12.49
  -5   6   2  199.06   12.59
  -5   6   1  154.14   11.12
  -5   6   1  175.45   11.22
  -5   6   0  328.79   16.35
  -5   6   0  360.95   16.58
  -5   6  -1   46.43    5.98
  -5   6  -1   57.42    6.51
  -5   6  -2  186.57   12.28
  -5   6  -2  197.67   11.96
  -5   6  -3  393.33   17.56
  -5   6  -3  421.24   16.78
  -5   6  -4   19.70    3.56
  -5   6  -4   24.74    3.63
  -5   6  -5    8.80    1.93
  -5   6  -5    6.88    1.54
   5   7  -8    9.34    2.01
  -5   7   8   17.20    3.18
   5   7  -7  127.21    8.39
  -5   7   7  199.43   11.98
  -5   7   6  152.71   11.23
  -5   7   5  385.61   18.67
  -5   7   4   15.87    3.13
  -5   7   3  297.86   14.20
  -5   7   3  353.83   14.97
  -5   7   2  476.94   18.39
  -5   7   2  550.23   19.60
  -5   7   1   12.83    2.98
  -5   7   1    7.99    2.41
  -5   7   0   43.49    5.51
  -5   7   0   42.68    5.54
  -5   7  -1  135.70   10.13
  -5   7  -1  162.52   10.60
  -5   7  -2  429.02   17.65
  -5   7  -2  483.07   18.08
  -5   7  -3   20.70    3.59
  -5   7  -3   20.00    3.38
  -5   7  -4  164.26    9.36
  -5   7  -4  191.79    9.45
  -5   8   3  256.41   12.32
  -5   8   2  220.06   11.87
  -5   8   1  279.48   12.95
  -5   8   1  371.29   15.71
  -5   8   0  119.64    8.53
  -5   8   0  161.32   10.21
  -5   8  -1   80.03    6.87
  -5   8  -1  105.81    8.07
  -5   8  -2   47.82    5.30
  -5   8  -2   52.20    5.40
  -5   8  -3  280.51   11.65
  -5   8  -3  394.37   13.88
  -5   8  -4   34.57    3.47
  -5   9   3  399.90   14.60
  -5   9   2  187.58   10.24
  -5   9   1  129.14    8.56
  -5   9   0   29.92    4.10
  -5   9  -1  276.28   12.22
  -5   9  -2  133.13    7.77
  -5   9  -3   25.75    3.05
  -5  10   3   23.40    3.01
  -5  10   2   57.16    5.03
  -5  10   1  176.49    9.05
  -5  10   0  123.10    7.42
  -5  10  -1   34.10    3.65
   6  -8  -5  166.22    7.38
   6  -8  -4  150.47    7.47
   6  -8  -3  100.58    6.16
   6  -8  -2    8.21    1.68
   6  -8  -1  227.12    8.47
   6  -8  -1  254.96   10.61
   6  -8   0   56.05    4.65
   6  -7  -6  282.51   10.35
   6  -7  -5   12.76    2.26
   6  -7  -4   68.04    5.62
   6  -7  -3   19.95    2.99
   6  -7  -2  389.85   13.49
   6  -7  -1   40.83    3.94
   6  -7   0  106.53    7.47
   6  -7   1   79.86    6.11
   6  -6  -7  218.08    9.02
   6  -6  -6    5.67    1.61
   6  -6  -5  182.59    9.87
   6  -6  -4  108.47    7.67
   6  -6  -3   62.95    5.87
   6  -6  -2    3.69    1.07
   6  -6  -1  273.97   11.08
   6  -6   1   19.57    3.50
   6  -6   2   44.92    4.40
   6  -5  -8   49.13    3.92
   6  -5  -7   55.41    4.96
  -6  -5   7   47.55    4.65
  -6  -5   6  389.34   14.77
   6  -5  -6  446.50   15.85
  -6  -5   5   48.87    5.23
   6  -5  -5   48.51    5.30
   6  -5  -4   20.49    3.54
  -6  -5   4   12.06    2.35
   6  -5  -3  114.86    8.30
   6  -5  -2  265.16   12.15
   6  -5  -1   70.45    5.66
   6  -5   2   49.08    5.09
   6  -5   3   43.55    3.82
  -6  -4   8  111.00    7.03
   6  -4  -8  128.45    7.08
  -6  -4   7  145.97    9.23
   6  -4  -7  161.44    9.16
  -6  -4   6   37.12    4.90
   6  -4  -6   29.51    4.26
  -6  -4   5  276.85   13.94
   6  -4  -5  298.53   14.09
  -6  -4   4  248.16   13.02
   6  -4  -4  251.11   12.84
  -6  -4   3   83.21    7.13
   6  -4  -3   84.71    7.18
   6  -4  -2   73.04    6.39
   6  -4   2   92.54    7.33
   6  -4   3  160.94    7.98
   6  -3  -8   16.33    2.65
  -6  -3   8   14.08    2.77
  -6  -3   7   75.08    7.03
   6  -3  -7   85.11    7.09
  -6  -3   6  196.47   12.27
   6  -3  -6  195.83   11.51
  -6  -3   5  163.11   11.35
   6  -3  -5  162.51   10.57
  -6  -3   4   15.55    3.37
   6  -3  -4   18.48    3.46
  -6  -3   3  329.01   15.62
   6  -3  -3  330.19   14.48
  -6  -3   3  313.37   13.29
   6  -3  -2  147.68    9.15
  -6  -3   2  156.17    9.10
   6  -3   2   54.48    5.60
   6  -3   3   20.36    2.89
  -6  -2   9   25.58    3.08
   6  -2  -9   37.00    3.49
  -6  -2   8  289.59   13.07
   6  -2  -8  311.99   12.76
  -6  -2   7   43.60    5.59
   6  -2  -7   40.92    5.05
  -6  -2   6    2.73    1.84
   6  -2  -6    4.67    1.92
  -6  -2   5  134.84   10.73
   6  -2  -5  128.19    9.53
  -6  -2   4  757.09   25.85
   6  -2  -4  690.40   22.55
  -6  -2   3   80.39    7.93
   6  -2  -3   65.39    6.39
  -6  -2   2  178.03   10.47
  -6  -2   1  152.65    9.61
  -6  -2   0  150.33    9.16
  -6  -2  -1  126.50    8.14
   6  -2   2  104.26    7.60
  -6  -1   9  149.32    7.64
   6  -1  -9  172.23    8.10
  -6  -1   8   10.63    2.52
   6  -1  -8   11.47    2.41
  -6  -1   7  105.91    8.96
   6  -1  -7  105.39    8.33
  -6  -1   6   68.13    7.56
   6  -1  -6   60.51    6.66
  -6  -1   5  262.99   15.36
   6  -1  -5  223.10   12.87
  -6  -1   4   32.43    5.36
   6  -1  -4   29.84    4.47
  -6  -1   3  403.52   18.72
   6  -1  -3  339.47   14.49
  -6  -1   2  308.21   14.53
  -6  -1   1   94.25    7.78
  -6  -1   0  117.70    8.56
  -6  -1  -1  256.71   12.44
  -6  -1  -2  330.05   13.61
  -6   0   9   71.95    5.11
   6   0  -9   89.37    5.82
  -6   0   8  248.02   12.13
   6   0  -8  248.81   11.76
  -6   0   7  144.53   10.38
   6   0  -7  125.71    9.19
   6   0  -6   22.97    3.99
  -6   0   6   17.13    3.81
  -6   0   5    4.14    1.69
   6   0  -5    4.77    2.24
  -6   0   4  857.29   28.76
   6   0  -4  716.24   22.59
  -6   0   3  101.44    9.69
  -6   0   2  262.21   13.71
  -6   0   1    3.40    1.15
  -6   0   0  103.53    8.44
  -6   0  -1  191.41   11.05
  -6   0  -2  215.50   11.49
  -6   0  -3  186.26    9.74
   6   1  -9  150.64    7.57
  -6   1   8    8.10    2.14
   6   1  -8   10.64    2.34
  -6   1   7   97.99    8.39
   6   1  -7   90.80    7.65
  -6   1   6   63.86    7.33
   6   1  -6   55.65    6.28
  -6   1   5  252.25   15.26
   6   1  -5  196.43   11.68
  -6   1   4   34.75    5.64
   6   1  -4   23.90    3.82
  -6   1   2  319.40   15.65
  -6   1   1  102.60    8.59
  -6   1   0  110.63    8.86
  -6   1  -1  270.21   13.66
  -6   1  -2  339.69   14.76
  -6   1  -3   92.10    7.09
  -6   1  -4   50.46    4.41
   6   2  -9   25.49    2.88
   6   2  -8  255.47   11.34
  -6   2   7   36.05    4.84
   6   2  -7   33.09    4.46
  -6   2   6    6.27    2.28
   6   2  -6    4.56    1.68
  -6   2   5  114.07    9.92
   6   2  -5   89.49    7.47
  -6   2   2  168.67   11.47
  -6   2   1  172.96   11.36
  -6   2   0  136.33    9.82
  -6   2  -1  129.58    9.64
  -6   2  -2  126.28    8.99
  -6   2  -3  214.32   11.06
  -6   2  -4   30.45    3.55
   6   3  -8    9.78    2.07
   6   3  -7   54.11    5.29
   6   3  -6  128.72    8.60
  -6   3   3  322.48   15.63
  -6   3   2  150.86   10.78
  -6   3   1  115.58    9.53
  -6   3   0  140.23   10.20
  -6   3  -1  556.37   19.86
  -6   3  -2   74.55    6.86
  -6   3  -3   23.39    3.54
  -6   3  -4  147.00    7.69
   6   4  -8   77.68    5.12
   6   4  -7   84.46    6.04
  -6   4   4  238.71   12.91
  -6   4   3   85.22    7.71
  -6   4   2   62.03    6.76
  -6   4   1  433.38   17.97
  -6   4   0  191.56   11.52
  -6   4  -1    5.92    2.08
  -6   4  -2   98.46    7.77
  -6   4  -3  165.05    9.29
  -6   5   7   38.87    3.89
  -6   5   6  341.49   13.19
  -6   5   5   39.05    4.88
  -6   5   4   18.26    3.53
  -6   5   3  104.05    8.30
  -6   5   2  268.53   13.46
  -6   5   1   87.24    7.47
  -6   5   0  186.78   10.99
  -6   5  -1  163.73   10.02
  -6   5  -2   49.68    5.18
  -6   5  -3   50.94    4.77
  -6   6   6    4.19    1.31
  -6   6   5  147.96    8.19
  -6   6   4   80.86    6.50
  -6   6   3   54.56    5.42
  -6   6   2    3.48    1.74
  -6   6   1  289.95   12.98
  -6   6   0  181.21   10.17
  -6   6  -1   15.87    2.84
  -6   6  -2   43.35    4.61
  -6   7   4   43.51    3.99
  -6   7   3   16.01    2.68
  -6   7   2  306.53   11.99
  -6   7   1   44.63    4.43
  -6   7   0   85.20    6.15
  -6   7  -1   74.08    5.41
  -7  -1   5   27.43    2.95
  -7  -1   4    1.21    0.50
  -7  -1   3   60.94    4.69
  -7  -1   2  176.65    7.90
  -7   0   6   19.74    2.51
  -7   0   5  127.94    6.96
  -7   0   4   81.90    5.73
  -7   0   3   68.26    5.25
  -7   0   2   17.31    2.63
  -7   0   1  220.03    9.10
  -7   1   6  126.18    6.61
  -7   1   5   26.63    3.21
  -7   1   4    0.60    0.57
  -7   1   3   71.01    5.62
  -7   1   2  165.10    8.47
  -7   1   1   38.63    3.86
  -7   1   0  166.52    7.69
  -7   2   6   52.05    4.12
  -7   2   5   75.15    5.40
  -7   2   4   50.49    4.65
  -7   2   3  109.19    6.99
  -7   2   2   15.72    2.57
  -7   2   1  359.75   12.44
  -7   2   0   41.20    3.85
  -7   3   5   65.67    4.87
  -7   3   4   -0.12    0.44
  -7   3   3  105.55    6.63
  -7   3   2  151.99    7.90
  -7   3   1    7.98    1.87
  -7   3   0   14.68    2.31
  -7   4   4  134.29    6.77
  -7   4   3   51.84    4.40
  -7   4   2   19.84    2.65
  -7   4   1  162.30    7.67
   0   0   0    0.00    0.00


TITL O086 in P2(1)
REM P2(1) (#4 in standard setting)
CELL 1.54184   5.926042  12.267631   9.944368  90.0000 103.7554  90.0000
ZERR    2.00   0.000148   0.000270   0.000230   0.0000   0.0023   0.0000
LATT -1
SYMM -x, y+1/2,-z
SFAC C H O S Br
UNIT 32.00 38.00 4.00 2.00 2.00
TREF
HKLF 4
END
_computing_structure_solution     'SHELXT 2014/5 (Sheldrick, 2014)'
;
_shelx_hkl_checksum              77000
_shelx_shelxl_version_number     2014/7
_olex2_date_sample_data_collection 2015-10-20
_olex2_submission_special_instructions 'No special instructions were received'
_oxdiff_exptl_absorpt_empirical_details
;
Empirical correction (ABSPACK) includes:
- Absorption correction using spherical harmonics
- Frame scaling
;
_oxdiff_exptl_absorpt_empirical_full_max 2.730
_oxdiff_exptl_absorpt_empirical_full_min 0.620
loop_
_space_group_symop_operation_xyz
'x, y, z'
'-x, y+1/2, -z'
loop_
_atom_site_label
_atom_site_type_symbol
_atom_site_fract_x
_atom_site_fract_y
_atom_site_fract_z
_atom_site_U_iso_or_equiv
_atom_site_adp_type
_atom_site_occupancy
_atom_site_site_symmetry_order
_atom_site_calc_flag
_atom_site_refinement_flags_posn
Br1 Br 1.01428(9) 0.15397(6) 0.14082(6) 0.0263(2) Uani 1 1 d .
S1 S 0.6240(3) 0.23215(13) 0.32546(16) 0.0240(4) Uani 1 1 d .
O1 O 0.6148(10) 0.1165(4) 0.3079(6) 0.0351(13) Uani 1 1 d .
O2 O 0.4354(9) 0.2844(5) 0.3721(5) 0.0330(11) Uani 1 1 d .
C1 C 0.7852(10) 0.2631(5) 0.0845(6) 0.0225(12) Uani 1 1 d .
C3 C 0.6152(14) 0.3951(6) -0.0884(7) 0.0322(16) Uani 1 1 d .
H3 H 0.6116 0.4301 -0.1719 0.039 Uiso 1 1 calc R
C2 C 0.7777(12) 0.3144(6) -0.0408(6) 0.0258(13) Uani 1 1 d .
H2 H 0.8821 0.2945 -0.0929 0.031 Uiso 1 1 calc R
C10 C 0.8368(12) 0.4707(5) 0.4126(6) 0.0241(13) Uani 1 1 d .
C15 C 0.6543(12) 0.5411(5) 0.4046(6) 0.0253(13) Uani 1 1 d .
H15 H 0.5624 0.5350 0.4681 0.030 Uiso 1 1 calc R
C7 C 0.8877(11) 0.2667(5) 0.4467(6) 0.0252(13) Uani 1 1 d .
H7A H 0.9206 0.2106 0.5174 0.030 Uiso 1 1 calc R
H7B H 1.0127 0.2656 0.3990 0.030 Uiso 1 1 calc R
C11 C 0.9815(12) 0.4847(6) 0.3183(7) 0.0262(13) Uani 1 1 d .
H11 H 1.1104 0.4400 0.3244 0.031 Uiso 1 1 calc R
C8 C 0.8901(13) 0.3775(6) 0.5180(6) 0.0308(15) Uani 1 1 d .
C13 C 0.7418(12) 0.6322(5) 0.2085(7) 0.0293(15) Uani 1 1 d .
H13 H 0.7066 0.6847 0.1392 0.035 Uiso 1 1 calc R
C6 C 0.6302(11) 0.2930(5) 0.1651(6) 0.0217(12) Uani 1 1 d .
C14 C 0.6044(12) 0.6216(6) 0.3033(7) 0.0281(14) Uani 1 1 d .
H14 H 0.4792 0.6682 0.2990 0.034 Uiso 1 1 calc R
C4 C 0.4576(12) 0.4238(6) -0.0112(7) 0.0301(15) Uani 1 1 d .
H4 H 0.3462 0.4769 -0.0440 0.036 Uiso 1 1 calc R
C5 C 0.4657(13) 0.3736(6) 0.1142(7) 0.0282(14) Uani 1 1 d .
H5 H 0.3601 0.3938 0.1655 0.034 Uiso 1 1 calc R
C12 C 0.9303(13) 0.5646(6) 0.2178(7) 0.0305(14) Uani 1 1 d .
H12 H 1.0243 0.5728 0.1557 0.037 Uiso 1 1 calc R
O3 O 0.7205(12) 0.3750(5) 0.6048(5) 0.0440(14) Uani 1 1 d .
H3A H 0.6001 0.3461 0.5617 0.066 Uiso 1 1 calc GR
C9 C 1.1238(18) 0.3920(7) 0.6131(10) 0.055(3) Uani 1 1 d .
H9A H 1.2384 0.3991 0.5597 0.082 Uiso 1 1 calc GR
H9B H 1.1597 0.3299 0.6730 0.082 Uiso 1 1 calc GR
H9C H 1.1239 0.4566 0.6677 0.082 Uiso 1 1 calc GR
loop_
_atom_site_aniso_label
_atom_site_aniso_U_11
_atom_site_aniso_U_22
_atom_site_aniso_U_33
_atom_site_aniso_U_23
_atom_site_aniso_U_13
_atom_site_aniso_U_12
Br1 0.0253(3) 0.0248(3) 0.0279(3) -0.0044(3) 0.0048(2) 0.0044(3)
S1 0.0249(8) 0.0241(8) 0.0239(7) 0.0017(6) 0.0077(6) -0.0007(6)
O1 0.044(3) 0.024(3) 0.039(3) 0.000(2) 0.013(2) -0.005(2)
O2 0.025(2) 0.043(3) 0.035(2) -0.001(2) 0.016(2) 0.001(2)
C1 0.019(3) 0.021(3) 0.026(3) -0.001(2) 0.003(2) -0.001(2)
C3 0.043(4) 0.029(4) 0.021(3) 0.001(3) 0.001(3) -0.003(3)
C2 0.032(3) 0.027(3) 0.018(3) -0.003(2) 0.005(2) -0.003(3)
C10 0.030(3) 0.022(3) 0.020(3) -0.006(2) 0.005(2) 0.003(3)
C15 0.030(3) 0.023(3) 0.022(3) -0.001(2) 0.006(3) 0.001(3)
C7 0.031(3) 0.021(3) 0.020(3) -0.001(2) -0.001(2) 0.005(3)
C11 0.025(3) 0.030(4) 0.024(3) -0.003(3) 0.007(2) 0.004(3)
C8 0.042(4) 0.026(3) 0.021(3) -0.005(3) 0.000(3) 0.012(3)
C13 0.032(3) 0.026(4) 0.028(3) 0.005(3) 0.003(2) 0.000(3)
C6 0.021(3) 0.018(3) 0.023(3) -0.003(2) 0.000(2) -0.001(2)
C14 0.028(3) 0.024(3) 0.031(3) 0.001(2) 0.005(3) 0.006(2)
C4 0.032(4) 0.026(4) 0.025(3) 0.001(3) -0.007(3) 0.006(3)
C5 0.027(3) 0.029(4) 0.025(3) -0.004(3) -0.002(3) 0.003(3)
C12 0.035(4) 0.032(4) 0.027(3) 0.002(3) 0.011(3) -0.003(3)
O3 0.068(4) 0.040(3) 0.032(3) 0.002(2) 0.027(3) 0.006(3)
C9 0.063(6) 0.021(4) 0.055(5) -0.004(4) -0.037(5) 0.000(4)
loop_
_atom_type_symbol
_atom_type_description
_atom_type_scat_dispersion_real
_atom_type_scat_dispersion_imag
_atom_type_scat_source
C C 0.0181 0.0091 'International Tables Vol C Tables 4.2.6.8 and 6.1.1.4'
H H 0.0000 0.0000 'International Tables Vol C Tables 4.2.6.8 and 6.1.1.4'
Br Br -0.6763 1.2805 'International Tables Vol C Tables 4.2.6.8 and 6.1.1.4'
O O 0.0492 0.0322 'International Tables Vol C Tables 4.2.6.8 and 6.1.1.4'
S S 0.3331 0.5567 'International Tables Vol C Tables 4.2.6.8 and 6.1.1.4'
loop_
_exptl_crystal_face_index_h
_exptl_crystal_face_index_k
_exptl_crystal_face_index_l
_exptl_crystal_face_perp_dist
0 -4 5 0.0531
4 0 -3 0.0917
-4 0 3 0.0917
0 -7 -3 0.0793
0 7 3 0.0956
0 3 -6 0.0508
-1 -5 5 0.0487
0 -2 6 0.0498
2 5 3 0.1099
0 4 5 0.0719
-1 3 -5 0.0614
0 6 -4 0.0700
0 -4 -6 0.0696
2 1 -6 0.0775
loop_
_geom_angle_atom_site_label_1
_geom_angle_atom_site_label_2
_geom_angle_atom_site_label_3
_geom_angle
O1 S1 O2 117.8(4)
O1 S1 C7 108.7(3)
O1 S1 C6 108.5(3)
O2 S1 C7 107.2(3)
O2 S1 C6 106.5(3)
C6 S1 C7 107.8(3)
C2 C1 Br1 117.0(5)
C2 C1 C6 120.6(6)
C6 C1 Br1 122.4(5)
C2 C3 H3 120.1
C2 C3 C4 119.8(6)
C4 C3 H3 120.1
C1 C2 H2 119.9
C3 C2 C1 120.2(6)
C3 C2 H2 119.9
C15 C10 C11 118.4(6)
C15 C10 C8 122.8(6)
C11 C10 C8 118.8(6)
C10 C15 H15 119.4
C10 C15 C14 121.2(6)
C14 C15 H15 119.4
S1 C7 H7A 108.3
S1 C7 H7B 108.3
H7A C7 H7B 107.4
C8 C7 S1 115.8(5)
C8 C7 H7A 108.3
C8 C7 H7B 108.3
C10 C11 H11 120.0
C12 C11 C10 119.9(6)
C12 C11 H11 120.0
C7 C8 C10 111.5(5)
O3 C8 C10 111.0(6)
O3 C8 C7 108.7(7)
O3 C8 C9 107.0(7)
C9 C8 C10 110.7(7)
C9 C8 C7 107.8(6)
C14 C13 H13 120.2
C12 C13 H13 120.2
C12 C13 C14 119.7(6)
C1 C6 S1 124.1(5)
C5 C6 S1 117.6(5)
C5 C6 C1 118.2(6)
C15 C14 C13 119.9(6)
C15 C14 H14 120.0
C13 C14 H14 120.0
C3 C4 H4 119.9
C5 C4 C3 120.2(6)
C5 C4 H4 119.9
C6 C5 H5 119.5
C4 C5 C6 120.9(7)
C4 C5 H5 119.5
C11 C12 H12 119.6
C13 C12 C11 120.7(6)
C13 C12 H12 119.6
C8 O3 H3A 109.5
C8 C9 H9A 109.5
C8 C9 H9B 109.5
C8 C9 H9C 109.5
H9A C9 H9B 109.5
H9A C9 H9C 109.5
H9B C9 H9C 109.5
loop_
_geom_bond_atom_site_label_1
_geom_bond_atom_site_label_2
_geom_bond_distance
Br1 C1 1.894(6)
S1 O1 1.429(6)
S1 O2 1.457(5)
S1 C7 1.783(6)
S1 C6 1.769(6)
C1 C2 1.387(9)
C1 C6 1.404(9)
C3 H3 0.9300
C3 C2 1.384(11)
C3 C4 1.388(11)
C2 H2 0.9300
C10 C15 1.372(10)
C10 C11 1.424(9)
C10 C8 1.533(10)
C15 H15 0.9300
C15 C14 1.390(9)
C7 H7A 0.9700
C7 H7B 0.9700
C7 C8 1.531(9)
C11 H11 0.9300
C11 C12 1.382(10)
C8 O3 1.472(9)
C8 C9 1.490(10)
C13 H13 0.9300
C13 C14 1.391(10)
C13 C12 1.377(10)
C6 C5 1.396(10)
C14 H14 0.9300
C4 H4 0.9300
C4 C5 1.381(10)
C5 H5 0.9300
C12 H12 0.9300
O3 H3A 0.8200
C9 H9A 0.9600
C9 H9B 0.9600
C9 H9C 0.9600
loop_
_geom_torsion_atom_site_label_1
_geom_torsion_atom_site_label_2
_geom_torsion_atom_site_label_3
_geom_torsion_atom_site_label_4
_geom_torsion
Br1 C1 C2 C3 -179.9(5)
Br1 C1 C6 S1 -1.3(8)
Br1 C1 C6 C5 -179.4(5)
S1 C7 C8 C10 -57.5(8)
S1 C7 C8 O3 65.1(6)
S1 C7 C8 C9 -179.3(6)
S1 C6 C5 C4 -179.1(5)
O1 S1 C7 C8 -158.6(5)
O1 S1 C6 C1 -50.8(6)
O1 S1 C6 C5 127.3(6)
O2 S1 C7 C8 -30.3(6)
O2 S1 C6 C1 -178.5(5)
O2 S1 C6 C5 -0.4(6)
C1 C6 C5 C4 -0.9(10)
C3 C4 C5 C6 -0.5(11)
C2 C1 C6 S1 179.5(5)
C2 C1 C6 C5 1.5(9)
C2 C3 C4 C5 1.4(11)
C10 C15 C14 C13 -0.6(11)
C10 C11 C12 C13 0.8(11)
C15 C10 C11 C12 -2.9(10)
C15 C10 C8 C7 121.9(7)
C15 C10 C8 O3 0.5(9)
C15 C10 C8 C9 -118.1(8)
C7 S1 C6 C1 66.8(6)
C7 S1 C6 C5 -115.2(5)
C11 C10 C15 C14 2.8(10)
C11 C10 C8 C7 -57.8(9)
C11 C10 C8 O3 -179.1(6)
C11 C10 C8 C9 62.2(8)
C8 C10 C15 C14 -176.9(6)
C8 C10 C11 C12 176.8(6)
C6 S1 C7 C8 84.0(6)
C6 C1 C2 C3 -0.7(10)
C14 C13 C12 C11 1.5(11)
C4 C3 C2 C1 -0.8(11)
C12 C13 C14 C15 -1.6(11)
loop_
_exptl_oxdiff_crystal_face_indexfrac_h
_exptl_oxdiff_crystal_face_indexfrac_k
_exptl_oxdiff_crystal_face_indexfrac_l
_exptl_oxdiff_crystal_face_x
_exptl_oxdiff_crystal_face_y
_exptl_oxdiff_crystal_face_z
-0.0024 -4.0099 4.9985 0.8944 -0.2855 0.0820
3.9987 0.0048 -3.0008 -0.4337 -0.8604 -0.4494
-3.9987 -0.0048 3.0008 0.4337 0.8604 0.4494
0.0026 -6.9998 -3.0036 -0.1676 -0.4892 0.8578
-0.0026 6.9998 3.0036 0.1676 0.4892 -0.8578
0.0031 3.0108 -5.9991 -1.0026 0.2161 0.0753
-1.0015 -5.0106 4.9982 0.9314 -0.1400 0.3364
-0.0032 -2.0102 5.9996 0.9633 -0.1459 -0.1718
1.9961 4.9987 3.0024 0.2505 -0.0829 -0.9807
-0.0034 3.9950 5.0024 0.5803 0.2766 -0.6899
-0.9967 3.0092 -4.9989 -0.8573 0.4310 0.1724
0.0015 6.0097 -3.9975 -0.8254 0.4251 -0.3358
0.0040 -3.9935 -6.0025 -0.7278 -0.2757 0.7507
2.0018 1.0097 -6.0003 -0.9197 -0.3560 -0.0477
