#------------------------------------------------------------------------------
#$Date: 2019-11-24 17:10:17 +0200 (Sun, 24 Nov 2019) $
#$Revision: 238745 $
#$URL: file:///home/coder/svn-repositories/cod/cif/1/55/54/1555472.cif $
#------------------------------------------------------------------------------
#
# This file is available in the Crystallography Open Database (COD),
# http://www.crystallography.net/
#
# All data on this site have been placed in the public domain by the
# contributors.
#
data_1555472
loop_
_publ_author_name
'Zhao, Jidong'
'Liu, Jun'
'Xie, Xin'
'Li, Shi'
'Liu, Yuanhong'
_publ_section_title
;
 Gold-Catalyzed Synthesis of Tropone and Its Analogues via Oxidative Ring
 Expansion of Alkynyl Quinols.
;
_journal_issue                   23
_journal_name_full               'Organic letters'
_journal_page_first              5926
_journal_page_last               5929
_journal_paper_doi               10.1021/acs.orglett.5b03160
_journal_volume                  17
_journal_year                    2015
_chemical_formula_sum            'C18 H12 O3'
_chemical_formula_weight         276.28
_space_group_crystal_system      triclinic
_space_group_IT_number           2
_space_group_name_Hall           '-P 1'
_space_group_name_H-M_alt        'P -1'
_atom_sites_solution_hydrogens   geom
_audit_creation_method           SHELXL-2013
_cell_angle_alpha                99.775(5)
_cell_angle_beta                 91.453(5)
_cell_angle_gamma                97.925(5)
_cell_formula_units_Z            2
_cell_length_a                   7.4224(19)
_cell_length_b                   7.787(2)
_cell_length_c                   12.133(3)
_cell_measurement_reflns_used    1439
_cell_measurement_temperature    293(2)
_cell_measurement_theta_max      56.493
_cell_measurement_theta_min      5.364
_cell_volume                     683.6(3)
_computing_cell_refinement       'Bruker SMART'
_computing_data_collection       'Bruker SMART'
_computing_data_reduction        'Bruker SHELXTL'
_computing_molecular_graphics    'Bruker SHELXTL'
_computing_publication_material  'Bruker SHELXTL'
_computing_structure_refinement  'SHELXL-2013 (Sheldrick, 2013)'
_computing_structure_solution    'Bruker SHELXTL'
_diffrn_ambient_temperature      293(2)
_diffrn_measured_fraction_theta_full 0.999
_diffrn_measured_fraction_theta_max 0.999
_diffrn_measurement_device_type  'CCD area detector'
_diffrn_measurement_method       'phi and omega scans'
_diffrn_radiation_type           MoK\a
_diffrn_radiation_wavelength     0.71073
_diffrn_reflns_av_R_equivalents  0.0270
_diffrn_reflns_av_unetI/netI     0.0443
_diffrn_reflns_Laue_measured_fraction_full 0.999
_diffrn_reflns_Laue_measured_fraction_max 0.999
_diffrn_reflns_limit_h_max       5
_diffrn_reflns_limit_h_min       -8
_diffrn_reflns_limit_k_max       9
_diffrn_reflns_limit_k_min       -9
_diffrn_reflns_limit_l_max       14
_diffrn_reflns_limit_l_min       -14
_diffrn_reflns_number            3951
_diffrn_reflns_point_group_measured_fraction_full 0.999
_diffrn_reflns_point_group_measured_fraction_max 0.999
_diffrn_reflns_theta_full        25.242
_diffrn_reflns_theta_max         25.498
_diffrn_reflns_theta_min         1.705
_exptl_absorpt_coefficient_mu    0.091
_exptl_absorpt_correction_T_max  0.7457
_exptl_absorpt_correction_T_min  0.6496
_exptl_absorpt_correction_type   multi-scan
_exptl_absorpt_process_details   sadabs
_exptl_crystal_colour            yellow
_exptl_crystal_density_diffrn    1.342
_exptl_crystal_description       prismatic
_exptl_crystal_F_000             288
_exptl_crystal_size_max          0.210
_exptl_crystal_size_mid          0.180
_exptl_crystal_size_min          0.130
_refine_diff_density_max         0.190
_refine_diff_density_min         -0.205
_refine_diff_density_rms         0.047
_refine_ls_extinction_method     none
_refine_ls_goodness_of_fit_ref   1.029
_refine_ls_hydrogen_treatment    constr
_refine_ls_matrix_type           full
_refine_ls_number_parameters     191
_refine_ls_number_reflns         2534
_refine_ls_number_restraints     0
_refine_ls_restrained_S_all      1.029
_refine_ls_R_factor_all          0.0592
_refine_ls_R_factor_gt           0.0485
_refine_ls_shift/su_max          0.000
_refine_ls_shift/su_mean         0.000
_refine_ls_structure_factor_coef Fsqd
_refine_ls_weighting_details
'w=1/[\s^2^(Fo^2^)+(0.0608P)^2^+0.1393P] where P=(Fo^2^+2Fc^2^)/3'
_refine_ls_weighting_scheme      calc
_refine_ls_wR_factor_gt          0.1213
_refine_ls_wR_factor_ref         0.1295
_reflns_Friedel_coverage         0.000
_reflns_number_gt                2046
_reflns_number_total             2534
_reflns_threshold_expression     'I > 2\s(I)'
_cod_data_source_file            ol5b03160_si_007.cif
_cod_data_source_block           cd15183
_cod_original_cell_volume        683.7(3)
_cod_database_code               1555472
_shelx_space_group_comment
; 
The symmetry employed for this shelxl refinement is uniquely defined 
by the following loop, which should always be used as a source of 
symmetry information in preference to the above space-group names. 
They are only intended as comments. 
;
_shelx_estimated_absorpt_t_min   0.981
_shelx_estimated_absorpt_t_max   0.988
_shelxl_version_number           2013-4
_shelx_res_file
; 
TITL cd15183 in P-1 
CELL 0.71073   7.4224   7.7874  12.1329  99.775  91.453  97.925 
ZERR    2.00   0.0019   0.0020   0.0031   0.005   0.005   0.005 
LATT 1 
SFAC C  H  O 
UNIT 36 24 6 
OMIT  -3.00  51.00 
L.S. 10 
ACTA 
BOND  $H 
FMAP 2 
PLAN 20 
HTAB O2 O3_$1 
EQIV $1 -x, -y, -z+1 
HTAB O2 O3 
conf 
htab 
mpla c1 > c6 
mpla c13 > c18 
wpdb -1 
size 0.21 0.18 0.13 
WGHT    0.060800    0.139300 
FVAR       0.46662 
MOLE 1 
O1    3    0.915268    0.335137    0.348169    11.00000    0.03986    0.12219 = 
         0.10704   -0.00097    0.01347    0.01655 
O2    3    0.310786    0.111718    0.560654    11.00000    0.06566    0.06569 = 
         0.03835    0.00758   -0.00214   -0.00256 
AFIX 147 
H2    2    0.213228    0.062852    0.529629    11.00000   -1.50000 
AFIX   0 
O3    3    0.093104   -0.023187    0.398288    11.00000    0.05903    0.07933 = 
         0.04369    0.00942    0.00775   -0.01972 
C1    1    0.430188    0.300073    0.304840    11.00000    0.03931    0.03723 = 
         0.03581   -0.00557    0.00589    0.00195 
C2    1    0.306984    0.351737    0.231783    11.00000    0.04595    0.04176 = 
         0.03899   -0.00058   -0.00008   -0.00160 
AFIX  43 
H2A   2    0.184239    0.306249    0.230925    11.00000   -1.20000 
AFIX   0 
C3    1    0.361995    0.467221    0.161620    11.00000    0.07069    0.04892 = 
         0.04112    0.00409   -0.00179   -0.00171 
AFIX  43 
H3    2    0.276307    0.500484    0.115250    11.00000   -1.20000 
AFIX   0 
C4    1    0.543211    0.534469    0.159203    11.00000    0.08123    0.05480 = 
         0.04824    0.00761    0.01445   -0.01060 
AFIX  43 
H4    2    0.580491    0.611350    0.110619    11.00000   -1.20000 
AFIX   0 
C5    1    0.667247    0.487084    0.228797    11.00000    0.05227    0.05605 = 
         0.05902   -0.00486    0.01959   -0.01031 
AFIX  43 
H5    2    0.789685    0.531997    0.226900    11.00000   -1.20000 
AFIX   0 
C6    1    0.614352    0.372030    0.303261    11.00000    0.03958    0.04406 = 
         0.04752   -0.00845    0.00896    0.00071 
C7    1    0.761794    0.343546    0.380294    11.00000    0.03675    0.05297 = 
         0.07346   -0.01049    0.00415    0.00197 
C8    1    0.727745    0.349890    0.499067    11.00000    0.04125    0.05751 = 
         0.06565   -0.00846   -0.01442    0.00609 
AFIX  43 
H8    2    0.824820    0.401776    0.549078    11.00000   -1.20000 
AFIX   0 
C9    1    0.576303    0.291118    0.544202    11.00000    0.05412    0.05168 = 
         0.04551   -0.00790   -0.01009    0.01173 
AFIX  43 
H9    2    0.577845    0.315437    0.621990    11.00000   -1.20000 
AFIX   0 
C10   1    0.408392    0.194128    0.489261    11.00000    0.04583    0.04136 = 
         0.04219    0.00056    0.00192    0.00839 
C11   1    0.353182    0.178238    0.378083    11.00000    0.03522    0.04015 = 
         0.03839    0.00018    0.00233    0.00547 
C12   1    0.200459    0.040480    0.335035    11.00000    0.03954    0.04716 = 
         0.03874    0.00666    0.00367    0.00065 
C13   1    0.178718   -0.041449    0.213844    11.00000    0.04676    0.03566 = 
         0.04084    0.00512    0.00048   -0.00463 
C14   1    0.003996   -0.110021    0.169617    11.00000    0.05055    0.06106 = 
         0.05105    0.00334    0.00165   -0.01167 
AFIX  43 
H14   2   -0.095315   -0.099442    0.214225    11.00000   -1.20000 
AFIX   0 
C15   1   -0.022115   -0.193822    0.059484    11.00000    0.06598    0.07305 = 
         0.05586   -0.00228   -0.01150   -0.01675 
AFIX  43 
H15   2   -0.139508   -0.236923    0.029667    11.00000   -1.20000 
AFIX   0 
C16   1    0.123291   -0.214021   -0.006207    11.00000    0.08877    0.05963 = 
         0.04227   -0.00552   -0.00284   -0.00580 
AFIX  43 
H16   2    0.104480   -0.271132   -0.080236    11.00000   -1.20000 
AFIX   0 
C17   1    0.296278   -0.150270    0.036936    11.00000    0.07585    0.04852 = 
         0.05122   -0.00231    0.01599    0.00233 
AFIX  43 
H17   2    0.394956   -0.165594   -0.007596    11.00000   -1.20000 
AFIX   0 
C18   1    0.325156   -0.062821    0.146881    11.00000    0.05095    0.04470 = 
         0.05031   -0.00057    0.00473   -0.00099 
AFIX  43 
H18   2    0.442910   -0.018545    0.175607    11.00000   -1.20000 
AFIX   0 
HKLF 4 
  
REM  cd15183 in P-1 
REM R1 =  0.0485 for    2046 Fo > 4sig(Fo)  and  0.0592 for all    2534 data 
REM    191 parameters refined using      0 restraints 
  
END 
  
WGHT      0.0605      0.1396 
  
REM Instructions for potential hydrogen bonds 
HTAB O2 O3 
HTAB O2 O3_$1 
  
REM Highest difference peak  0.190,  deepest hole -0.205,  1-sigma level  0.047 
Q1    1   0.8397  0.2613  0.3209  11.00000  0.05    0.19 
Q2    1   0.2557  0.0175  0.1783  11.00000  0.05    0.19 
Q3    1   0.2035 -0.0030  0.2654  11.00000  0.05    0.18 
Q4    1   0.1071 -0.0378  0.1957  11.00000  0.05    0.16 
Q5    1  -0.1047 -0.0439  0.1932  11.00000  0.05    0.14 
Q6    1   1.0130  0.3244  0.3977  11.00000  0.05    0.13 
Q7    1   0.2087 -0.0265  0.3833  11.00000  0.05    0.13 
Q8    1   0.1403 -0.3680 -0.0562  11.00000  0.05    0.13 
Q9    1  -0.0695 -0.1289  0.2444  11.00000  0.05    0.13 
Q10   1   0.2777 -0.2658 -0.0641  11.00000  0.05    0.13 
Q11   1   0.5384  0.2833  0.2767  11.00000  0.05    0.13 
Q12   1   1.0331  0.3768  0.3143  11.00000  0.05    0.13 
Q13   1   0.4044 -0.2863  0.0083  11.00000  0.05    0.12 
Q14   1   0.3186 -0.3801 -0.0545  11.00000  0.05    0.12 
Q15   1   0.5020 -0.2978 -0.1022  11.00000  0.05    0.12 
Q16   1  -0.0045 -0.1432  0.3661  11.00000  0.05    0.12 
Q17   1   0.5775  0.2657  0.6244  11.00000  0.05    0.12 
Q18   1   0.5383 -0.1862  0.0173  11.00000  0.05    0.11 
Q19   1   0.1265  0.3196  0.2484  11.00000  0.05    0.11 
Q20   1   0.8291  0.6589  0.3992  11.00000  0.05    0.11 
;
_shelx_res_checksum              21239
_shelx_hkl_file
; 
  -1   0   0   93.98    3.67 
  -1   0   0   95.81    3.37 
  -2   0   0   54.28    1.93 
  -2   0   0   52.92    2.14 
  -3   0   0  208.48    7.33 
  -3   0   0  206.69    8.06 
  -4   0   0   40.52    1.47 
  -4   0   0   37.66    1.68 
  -5   0   0    0.66    0.18 
  -5   0   0    0.70    0.11 
  -6   0   0    0.97    0.23 
  -7   0   0    0.26    0.15 
  -8   0   0    3.43    0.45 
  -9   0   0    2.19    0.39 
  -9   1   0    0.21    0.20 
  -8   1   0    0.47    0.22 
  -7   1   0    8.72    0.61 
  -6   1   0   17.41    0.94 
  -5   1   0    4.01    0.22 
  -5   1   0    3.83    0.33 
  -4   1   0    1.21    0.09 
  -4   1   0    1.13    0.17 
  -3   1   0    0.62    0.06 
  -3   1   0    0.62    0.12 
  -2   1   0  202.94    7.96 
  -2   1   0  209.12    7.26 
   1  -1   0  169.52    5.97 
  -1   1   0  168.07    6.51 
   0  -1   0   39.26    1.39 
   0   1   0   37.41    1.33 
  -1  -1   0  666.80   23.64 
  -1  -1   0  681.42   25.84 
  -2  -1   0  103.54    4.04 
  -2  -1   0  102.81    3.69 
  -3  -1   0    0.96    0.14 
  -3  -1   0    1.00    0.12 
  -4  -1   0    3.75    0.24 
  -4  -1   0    3.77    0.29 
  -5  -1   0    5.10    0.32 
  -5  -1   0    5.35    0.39 
  -6  -1   0    4.20    0.37 
  -6  -1   0    4.49    0.31 
  -7  -1   0    7.29    0.55 
  -8  -1   0    3.28    0.45 
  -9  -1   0    0.79    0.25 
  -9   2   0    0.52    0.23 
  -8   2   0    1.08    0.28 
  -7   2   0   34.58    1.69 
  -6   2   0   51.66    2.26 
  -5   2   0    0.52    0.15 
  -5   2   0    0.62    0.07 
  -4   2   0    2.07    0.24 
  -4   2   0    2.17    0.12 
  -3   2   0    0.17    0.03 
  -3   2   0    0.27    0.10 
   2  -2   0   83.59    2.99 
  -2   2   0   84.46    3.32 
   1  -2   0  122.68    4.37 
   0  -2   0    2.67    0.17 
   0   2   0    2.70    0.15 
  -1  -2   0   48.94    1.80 
   1   2   0   47.73    1.67 
  -2  -2   0   25.36    1.00 
  -2  -2   0   24.08    1.05 
  -3  -2   0    5.54    0.32 
  -3  -2   0    5.45    0.34 
  -4  -2   0    2.08    0.22 
  -4  -2   0    1.96    0.24 
  -5  -2   0   11.17    0.59 
  -5  -2   0   12.20    0.68 
  -6  -2   0    0.56    0.18 
  -6  -2   0    0.34    0.13 
  -7  -2   0    0.42    0.17 
  -8  -2   0    1.19    0.30 
  -9  -2   0    0.27    0.22 
  -9   3   0    0.24    0.24 
  -8   3   0    2.49    0.42 
  -7   3   0    0.17    0.20 
  -6   3   0   38.67    1.77 
  -5   3   0    0.17    0.12 
  -4   3   0    0.28    0.13 
  -4   3   0    0.42    0.06 
  -3   3   0  112.09    4.42 
  -3   3   0  110.21    3.95 
  -2   3   0    7.91    0.42 
   1  -3   0   24.86    0.99 
   0  -3   0   24.53    1.01 
   0   3   0   25.16    0.93 
  -1  -3   0   42.54    1.63 
   1   3   0   41.54    1.48 
  -2  -3   0   14.65    0.65 
  -2  -3   0   12.84    0.64 
  -3  -3   0   49.32    1.92 
  -3  -3   0   48.67    2.04 
  -4  -3   0    1.09    0.19 
  -4  -3   0    0.80    0.16 
  -5  -3   0    0.70    0.17 
  -5  -3   0    0.70    0.18 
  -6  -3   0   11.95    0.68 
  -6  -3   0   13.18    0.77 
  -7  -3   0    1.00    0.26 
  -8  -3   0    0.78    0.27 
  -8   4   0    0.09    0.20 
  -7   4   0    0.14    0.21 
  -6   4   0    1.90    0.32 
  -5   4   0    1.94    0.28 
  -4   4   0   17.28    0.67 
  -4   4   0   16.25    0.86 
   3  -4   0  171.93    6.04 
  -3   4   0  166.24    6.65 
   2  -4   0   60.89    2.28 
   1  -4   0   29.75    1.19 
  -1   4   0   28.90    1.14 
   0  -4   0    2.99    0.27 
   0   4   0    3.23    0.20 
  -1  -4   0   33.58    1.39 
  -1  -4   0   34.43    1.44 
   1   4   0   34.45    1.24 
  -2  -4   0    3.53    0.29 
  -3  -4   0    4.84    0.36 
  -3  -4   0    5.05    0.35 
  -4  -4   0    7.91    0.51 
  -4  -4   0    8.17    0.51 
  -5  -4   0    1.91    0.28 
  -5  -4   0    1.62    0.26 
  -6  -4   0    2.39    0.35 
  -6  -4   0    2.43    0.33 
  -7  -4   0    2.52    0.35 
  -7  -4   0    3.30    0.42 
  -8  -4   0    2.98    0.46 
  -9   5   0    0.41    0.28 
  -8   5   0    1.50    0.38 
  -7   5   0    9.37    0.69 
  -6   5   0    1.11    0.28 
  -5   5   0   19.74    1.03 
  -4   5   0   12.62    0.56 
  -4   5   0   12.11    0.71 
   3  -5   0    8.69    0.49 
  -3   5   0   11.11    0.58 
   2  -5   0    0.00    0.09 
   1  -5   0   21.36    0.94 
  -1   5   0   20.51    0.88 
   0  -5   0    4.72    0.35 
   0   5   0    4.73    0.28 
  -1  -5   0   11.03    0.56 
  -1  -5   0   10.48    0.60 
   1   5   0   10.47    0.47 
  -2  -5   0    1.20    0.18 
  -2  -5   0    0.65    0.17 
   2   5   0    1.19    0.12 
  -3  -5   0    0.59    0.18 
  -4  -5   0   -0.13    0.09 
  -4  -5   0    0.00    0.11 
  -5  -5   0    5.03    0.46 
  -5  -5   0    4.51    0.39 
  -6  -5   0    3.35    0.42 
  -7  -5   0    0.08    0.17 
  -8   6   0    0.05    0.22 
  -7   6   0    0.08    0.18 
  -6   6   0    0.26    0.21 
  -5   6   0    0.14    0.15 
   4  -6   0   -0.02    0.11 
  -4   6   0    0.35    0.16 
   3  -6   0    0.45    0.15 
  -3   6   0    0.64    0.17 
   2  -6   0    3.82    0.34 
  -2   6   0    4.02    0.32 
   1  -6   0   20.16    0.93 
  -1   6   0   18.59    0.84 
   0  -6   0   42.79    1.76 
   0   6   0   41.93    1.59 
  -1  -6   0    1.39    0.24 
   1   6   0    1.44    0.16 
  -2  -6   0    1.74    0.29 
  -2  -6   0    1.69    0.24 
  -3  -6   0    9.89    0.65 
  -4  -6   0    0.57    0.22 
  -5  -6   0    1.74    0.32 
  -6  -6   0    3.42    0.46 
  -7  -6   0    1.86    0.36 
  -8   7   0    0.06    0.26 
  -7   7   0    0.26    0.24 
  -6   7   0    0.66    0.26 
  -5   7   0    0.28    0.20 
  -4   7   0    2.61    0.35 
   3  -7   0    0.53    0.17 
  -3   7   0    0.19    0.15 
  -3   7   0    0.46    0.18 
   2  -7   0   -0.01    0.12 
  -2   7   0    0.09    0.10 
   1  -7   0    0.33    0.17 
  -1   7   0    0.45    0.15 
   0  -7   0   10.02    0.63 
  -1  -7   0    0.10    0.13 
  -2  -7   0   19.84    1.05 
  -3  -7   0   12.53    0.79 
  -4  -7   0    3.79    0.48 
  -5  -7   0    0.05    0.16 
  -6  -7   0    3.74    0.49 
  -5   8   0    0.04    0.18 
  -4   8   0    0.48    0.20 
   3  -8   0    0.29    0.17 
  -3   8   0   -0.05    0.12 
   2  -8   0    0.10    0.15 
  -2   8   0    0.17    0.16 
   1  -8   0   -0.03    0.15 
   0  -8   0    2.22    0.35 
  -1  -8   0    1.68    0.33 
  -2  -8   0    3.15    0.44 
  -3  -8   0    3.05    0.45 
  -4  -8   0    1.19    0.28 
  -5  -8   0    1.72    0.34 
  -6   9   0    0.33    0.21 
  -5   9   0    0.70    0.26 
  -4   9   0    2.70    0.39 
   3  -9   0    0.62    0.25 
   2  -9   0    0.61    0.26 
   1  -9   0    0.03    0.18 
   0  -9   0    0.41    0.22 
  -1  -9   0    3.62    0.49 
  -2  -9   0    0.06    0.20 
  -3  -9   0    0.70    0.24 
   2 -10   0    1.71    0.36 
   1 -10   0    0.68    0.28 
   0 -10   0   -0.09    0.20 
  -1 -10   1    0.59    0.29 
   0 -10   1    1.89    0.40 
   1 -10   1    3.95    0.51 
   2 -10   1    0.07    0.21 
  -3  -9   1   -0.01    0.15 
  -2  -9   1    0.68    0.28 
  -1  -9   1    2.22    0.40 
   0  -9   1    0.02    0.16 
   1  -9   1    1.40    0.31 
   2  -9   1    0.15    0.20 
  -3   9  -1    1.60    0.31 
  -4   9  -1    1.62    0.34 
  -5   9  -1    0.52    0.24 
  -6   9  -1   -0.04    0.17 
  -5  -8   1    6.55    0.65 
  -4  -8   1    0.64    0.24 
  -3  -8   1    6.63    0.62 
  -2  -8   1    6.58    0.60 
  -1  -8   1    3.60    0.45 
   0  -8   1    0.66    0.21 
  -1   8  -1    0.24    0.14 
   1  -8   1    0.07    0.15 
  -2   8  -1    0.58    0.20 
   2  -8   1    0.63    0.22 
  -3   8  -1    2.49    0.34 
   3  -8   1    2.31    0.33 
  -4   8  -1    0.75    0.24 
  -5   8  -1    0.14    0.18 
  -6   8  -1    0.34    0.21 
  -6  -7   1    1.76    0.35 
  -5  -7   1    0.44    0.24 
  -4  -7   1    0.63    0.25 
  -3  -7   1   14.58    0.87 
  -2  -7   1    9.87    0.67 
  -1  -7   1    0.26    0.17 
   0   7  -1    1.70    0.21 
   0  -7   1    1.50    0.27 
  -1   7  -1    0.66    0.17 
   1  -7   1    0.74    0.19 
  -2   7  -1    0.57    0.18 
   2  -7   1    0.53    0.18 
  -3   7  -1    0.24    0.15 
  -3   7  -1    0.25    0.15 
   3  -7   1   -0.01    0.14 
  -4   7  -1   11.09    0.68 
  -4   7  -1   10.91    0.67 
  -5   7  -1    0.03    0.17 
  -6   7  -1    2.54    0.39 
  -7   7  -1    0.06    0.22 
  -8   7  -1   -0.16    0.22 
  -7  -6   1    0.34    0.20 
  -6  -6   1    1.60    0.35 
  -5  -6   1    1.01    0.25 
  -4  -6   1    0.26    0.18 
  -3  -6   1    9.58    0.63 
   2   6  -1    1.61    0.16 
  -2  -6   1    0.97    0.24 
   1   6  -1    0.52    0.12 
  -1  -6   1    0.19    0.13 
   0   6  -1    2.39    0.22 
   0  -6   1    1.75    0.27 
  -1   6  -1    2.65    0.26 
   1  -6   1    2.05    0.27 
  -2   6  -1    2.70    0.26 
  -2   6  -1    2.35    0.28 
   2  -6   1    2.91    0.29 
  -3   6  -1    2.58    0.32 
  -3   6  -1    3.11    0.32 
   3  -6   1    2.97    0.29 
  -4   6  -1   18.31    0.95 
  -5   6  -1    1.79    0.30 
  -6   6  -1    0.27    0.20 
  -7   6  -1   -0.15    0.20 
  -8   6  -1   -0.08    0.21 
  -7  -5   1    2.58    0.39 
  -6  -5   1    0.53    0.20 
  -5  -5   1    0.10    0.13 
  -4  -5   1    9.80    0.58 
  -4  -5   1    6.59    0.47 
  -3  -5   1   12.68    0.67 
  -3  -5   1   13.65    0.74 
   2   5  -1   20.50    0.80 
  -2  -5   1   20.82    0.94 
  -2  -5   1   20.63    0.98 
   1   5  -1   20.52    0.83 
  -1  -5   1   22.08    0.98 
   0   5  -1   26.67    1.06 
   0  -5   1   27.25    1.17 
  -1   5  -1    1.58    0.20 
   1  -5   1    1.40    0.21 
  -2   5  -1   17.99    0.87 
  -2   5  -1   19.54    0.85 
   2  -5   1   19.22    0.84 
  -3   5  -1    9.62    0.55 
   3  -5   1    9.77    0.49 
  -4   5  -1    0.14    0.13 
   4  -5   1    0.47    0.11 
  -5   5  -1    0.14    0.15 
  -6   5  -1    0.04    0.15 
  -7   5  -1    1.46    0.33 
  -8   5  -1    0.08    0.22 
  -9   5  -1    0.18    0.22 
  -7  -4   1    1.67    0.29 
  -7  -4   1    2.04    0.34 
  -6  -4   1    0.03    0.12 
  -6  -4   1    0.15    0.14 
  -5  -4   1    0.20    0.13 
  -5  -4   1    0.08    0.12 
  -4  -4   1    0.39    0.15 
  -4  -4   1    0.10    0.11 
  -3  -4   1    4.09    0.32 
  -3  -4   1    3.80    0.29 
   2   4  -1    0.34    0.08 
  -2  -4   1    0.23    0.08 
  -2  -4   1    0.10    0.09 
   1   4  -1    2.59    0.18 
  -1  -4   1    2.70    0.26 
  -1  -4   1    2.84    0.20 
   0   4  -1   18.43    0.73 
   0  -4   1   17.13    0.79 
  -1   4  -1    0.25    0.10 
   1  -4   1    0.11    0.08 
  -2   4  -1   26.88    1.15 
   2  -4   1   25.97    1.06 
  -3   4  -1    3.60    0.31 
   3  -4   1    3.91    0.24 
  -4   4  -1   29.01    1.31 
  -4   4  -1   28.51    1.07 
  -5   4  -1    0.69    0.20 
  -6   4  -1   23.12    1.17 
  -7   4  -1    0.45    0.24 
  -8   4  -1    0.35    0.25 
  -9   4  -1   -0.18    0.19 
  -8  -3   1    1.18    0.29 
  -7  -3   1   12.09    0.74 
  -7  -3   1   10.76    0.66 
  -6  -3   1    0.45    0.17 
  -6  -3   1    0.54    0.16 
  -5  -3   1    3.39    0.34 
  -5  -3   1    3.44    0.33 
  -4  -3   1    8.79    0.51 
  -4  -3   1    8.99    0.51 
  -3  -3   1    7.19    0.42 
  -3  -3   1    7.01    0.40 
  -2  -3   1   33.34    1.36 
  -2  -3   1   34.54    1.41 
   1   3  -1    2.74    0.17 
  -1  -3   1    2.59    0.21 
  -1  -3   1    2.98    0.19 
   0   3  -1  555.66   18.69 
   0  -3   1  543.59   19.34 
  -1   3  -1  236.52    8.23 
   1  -3   1  242.35    8.48 
  -2   3  -1   -0.01    0.07 
   2  -3   1    0.06    0.05 
  -3   3  -1   44.06    1.83 
   3  -3   1   43.42    1.59 
  -4   3  -1    6.13    0.25 
  -4   3  -1    6.48    0.41 
  -5   3  -1    3.74    0.33 
  -6   3  -1   16.60    0.92 
  -7   3  -1   45.69    2.13 
  -8   3  -1    0.12    0.20 
  -9   3  -1    1.74    0.39 
  -9  -2   1    1.39    0.32 
  -8  -2   1    0.56    0.22 
  -7  -2   1    1.77    0.32 
  -6  -2   1    0.07    0.13 
  -6  -2   1    0.23    0.13 
  -5  -2   1    8.15    0.47 
  -5  -2   1    7.50    0.50 
  -4  -2   1   14.64    0.73 
  -4  -2   1   14.50    0.67 
  -3  -2   1   49.19    2.01 
  -3  -2   1   48.88    1.87 
  -2  -2   1   12.53    0.56 
   1   2  -1   49.45    1.72 
  -1  -2   1   49.14    1.93 
  -1  -2   1   48.76    1.82 
   0   2  -1  414.20   14.25 
   0  -2   1  424.46   14.75 
  -2   2  -1    0.67    0.11 
   2  -2   1    0.62    0.07 
  -3   2  -1    3.56    0.26 
  -4   2  -1   17.32    0.84 
  -5   2  -1   16.53    0.85 
  -6   2  -1    3.09    0.38 
  -7   2  -1    1.10    0.29 
  -8   2  -1    0.29    0.24 
  -9   2  -1    0.83    0.29 
  -9  -1   1    1.51    0.36 
  -8  -1   1    1.41    0.29 
  -7  -1   1    2.99    0.39 
  -6  -1   1    4.07    0.31 
  -6  -1   1    3.77    0.39 
  -5  -1   1   16.05    0.82 
  -5  -1   1   15.96    0.72 
  -4  -1   1    0.44    0.12 
  -4  -1   1    0.59    0.11 
  -3  -1   1   22.68    0.99 
  -3  -1   1   22.37    0.90 
  -2  -1   1   32.74    1.29 
  -2  -1   1   29.82    1.17 
   0   1  -1  111.52    4.01 
   0  -1   1  121.55    4.15 
  -1   1  -1  482.79   17.13 
   1  -1   1  408.78   15.75 
  -2   1  -1    6.05    0.32 
  -3   1  -1    3.78    0.26 
  -4   1  -1    0.04    0.04 
  -4   1  -1    0.02    0.08 
  -5   1  -1   27.67    1.03 
  -5   1  -1   27.50    1.29 
  -6   1  -1   16.21    0.89 
  -7   1  -1    3.03    0.40 
  -8   1  -1    3.69    0.48 
  -9   1  -1    0.77    0.26 
  -9   0   1    1.26    0.31 
  -8   0   1    0.50    0.19 
  -7   0   1   11.75    0.73 
  -6   0   1   35.08    1.38 
  -6   0   1   35.04    1.62 
  -5   0   1    6.81    0.45 
  -5   0   1    6.72    0.35 
  -4   0   1    0.08    0.08 
  -4   0   1    0.05    0.05 
  -3   0   1    0.14    0.07 
  -3   0   1    0.29    0.06 
  -2   0   1    7.03    0.37 
  -2   0   1    7.61    0.31 
  -1   0   1  369.27   12.42 
  -1   0   1  276.99   11.31 
   0   0  -1  186.16    6.81 
   0   0   1  166.06    6.20 
  -1   0  -1    1.21    0.09 
  -1   0  -1    1.02    0.06 
  -2   0  -1   89.54    3.18 
  -2   0  -1   89.17    3.51 
  -3   0  -1    6.64    0.39 
  -3   0  -1    6.73    0.30 
  -4   0  -1   39.21    1.68 
  -4   0  -1   38.94    1.46 
  -5   0  -1    7.68    0.38 
  -5   0  -1    7.92    0.51 
  -6   0  -1   33.39    1.56 
  -7   0  -1    2.38    0.36 
  -8   0  -1    0.24    0.20 
  -9   0  -1    2.92    0.47 
  -9   1   1    0.49    0.22 
  -8   1   1    0.83    0.26 
  -7   1   1    5.38    0.47 
  -6   1   1   19.01    0.98 
  -5   1   1   30.31    1.16 
  -5   1   1   30.89    1.39 
  -4   1   1   28.81    1.27 
  -4   1   1   28.23    1.07 
  -3   1   1   14.08    0.54 
  -3   1   1   13.33    0.66 
  -2   1   1  201.15    7.02 
  -2   1   1  197.74    7.72 
  -1   1   1  514.16   18.05 
   0  -1  -1  194.24    7.33 
   0  -1  -1  184.91    6.71 
  -1  -1  -1    0.63    0.10 
  -1  -1  -1    0.53    0.10 
  -2  -1  -1   49.28    1.83 
  -2  -1  -1   50.16    2.01 
  -3  -1  -1    5.16    0.32 
  -3  -1  -1    4.57    0.26 
  -4  -1  -1  100.60    4.00 
  -4  -1  -1   98.14    3.61 
  -5  -1  -1    5.93    0.44 
  -5  -1  -1    6.32    0.36 
  -6  -1  -1    0.07    0.10 
  -6  -1  -1    0.00    0.12 
  -7  -1  -1    9.37    0.65 
  -8  -1  -1    4.63    0.54 
  -9  -1  -1    0.31    0.25 
  -9   2   1    0.42    0.22 
  -8   2   1    1.63    0.32 
  -7   2   1    1.06    0.25 
  -6   2   1    1.12    0.24 
  -5   2   1    0.04    0.05 
  -5   2   1   -0.01    0.09 
  -4   2   1   13.16    0.53 
  -4   2   1   14.41    0.72 
  -3   2   1  106.46    4.28 
  -3   2   1  109.17    3.83 
  -2   2   1  493.18   17.30 
   1  -2  -1  847.06   29.70 
   0  -2  -1  805.37   29.24 
   0  -2  -1  862.59   31.96 
  -1  -2  -1   20.87    0.82 
  -1  -2  -1   20.08    0.87 
   1   2   1   19.35    0.70 
  -2  -2  -1  469.67   16.65 
  -2  -2  -1  475.45   18.18 
  -3  -2  -1   85.90    3.13 
  -3  -2  -1   83.58    3.41 
  -4  -2  -1    0.91    0.18 
  -4  -2  -1    0.70    0.14 
  -5  -2  -1    4.27    0.36 
  -5  -2  -1    4.39    0.32 
  -6  -2  -1   13.32    0.78 
  -6  -2  -1   13.31    0.68 
  -7  -2  -1    1.17    0.28 
  -8  -2  -1    0.46    0.20 
  -9  -2  -1    0.62    0.25 
  -9   3   1    0.17    0.24 
  -8   3   1    0.14    0.22 
  -7   3   1    3.35    0.42 
  -6   3   1    3.25    0.39 
  -5   3   1    1.00    0.10 
  -5   3   1    0.70    0.19 
  -4   3   1   33.83    1.27 
  -4   3   1   35.03    1.53 
  -3   3   1   10.14    0.56 
  -3   3   1   10.58    0.44 
   2  -3  -1   20.92    0.84 
   1  -3  -1    1.16    0.14 
   0  -3  -1  121.00    4.43 
   0   3   1  123.76    4.22 
  -1  -3  -1   59.42    2.20 
  -1  -3  -1   58.08    2.35 
   1   3   1   57.08    2.01 
  -2  -3  -1    3.69    0.27 
  -2  -3  -1    3.75    0.27 
  -3  -3  -1    9.15    0.50 
  -3  -3  -1    9.09    0.52 
  -4  -3  -1    3.51    0.33 
  -4  -3  -1    2.53    0.27 
  -5  -3  -1    0.10    0.10 
  -5  -3  -1    0.19    0.13 
  -6  -3  -1   31.13    1.47 
  -6  -3  -1   28.16    1.31 
  -7  -3  -1    0.02    0.13 
  -8  -3  -1    1.07    0.30 
  -9   4   1    1.08    0.33 
  -8   4   1    1.83    0.37 
  -7   4   1   22.91    1.24 
  -6   4   1   17.02    0.96 
  -5   4   1    0.05    0.13 
  -4   4   1   23.40    0.92 
  -4   4   1   23.97    1.15 
  -3   4   1  100.58    4.05 
   2  -4  -1   20.35    0.87 
   1  -4  -1   33.89    1.36 
   0  -4  -1   14.67    0.69 
   0   4   1   14.14    0.59 
  -1  -4  -1   72.94    2.77 
  -1  -4  -1   73.67    2.96 
   1   4   1   72.78    2.54 
  -2  -4  -1   40.83    1.69 
  -2  -4  -1   42.58    1.78 
  -3  -4  -1    0.39    0.14 
  -3  -4  -1    0.47    0.15 
  -4  -4  -1    0.88    0.20 
  -4  -4  -1    0.83    0.20 
  -5  -4  -1    5.32    0.43 
  -5  -4  -1    4.07    0.41 
  -6  -4  -1    2.69    0.34 
  -6  -4  -1    2.38    0.36 
  -7  -4  -1    7.88    0.62 
  -8  -4  -1    1.57    0.36 
  -9   5   1    0.31    0.25 
  -8   5   1    3.37    0.49 
  -7   5   1    2.97    0.44 
  -6   5   1    1.57    0.31 
  -5   5   1   16.78    0.93 
  -4   5   1    6.87    0.36 
  -4   5   1    6.66    0.48 
   3  -5  -1    0.02    0.09 
   2  -5  -1    1.97    0.23 
   1  -5  -1   -0.02    0.09 
  -1   5   1    0.05    0.09 
   0  -5  -1   41.19    1.67 
   0   5   1   40.64    1.51 
  -1  -5  -1    0.24    0.12 
  -1  -5  -1    0.46    0.13 
   1   5   1    0.30    0.08 
  -2  -5  -1    0.16    0.10 
  -2  -5  -1    0.07    0.10 
  -3  -5  -1    2.27    0.31 
  -3  -5  -1    2.70    0.31 
  -4  -5  -1    3.24    0.38 
  -4  -5  -1    3.60    0.37 
  -5  -5  -1    0.26    0.15 
  -5  -5  -1    0.10    0.13 
  -6  -5  -1    0.10    0.14 
  -6  -5  -1    0.15    0.16 
  -8   6   1    0.18    0.21 
  -7   6   1    0.84    0.30 
  -6   6   1    0.29    0.20 
  -5   6   1    0.55    0.22 
  -4   6   1    3.78    0.40 
  -4   6   1    4.15    0.29 
   3  -6  -1    7.84    0.48 
   2  -6  -1   -0.05    0.10 
  -2   6   1    0.07    0.10 
   1  -6  -1    0.23    0.15 
  -1   6   1    0.25    0.11 
   0  -6  -1    9.68    0.57 
   0   6   1    8.36    0.43 
  -1  -6  -1    0.19    0.12 
  -2  -6  -1   -0.04    0.09 
  -2  -6  -1    0.01    0.11 
  -3  -6  -1    0.71    0.19 
  -3  -6  -1    0.59    0.21 
  -4  -6  -1   11.07    0.71 
  -5  -6  -1    2.21    0.37 
  -6  -6  -1    3.35    0.44 
  -8   7   1    0.25    0.21 
  -7   7   1    0.20    0.23 
  -6   7   1    0.83    0.27 
  -5   7   1    2.30    0.36 
  -4   7   1    1.10    0.25 
   3  -7  -1    0.33    0.15 
  -3   7   1   -0.05    0.11 
   2  -7  -1    0.18    0.15 
  -2   7   1    0.56    0.16 
   1  -7  -1   -0.03    0.11 
  -1   7   1    0.23    0.13 
   0  -7  -1    3.09    0.38 
  -1  -7  -1    0.25    0.18 
  -2  -7  -1    1.27    0.29 
  -3  -7  -1    8.29    0.62 
  -4  -7  -1    0.34    0.19 
  -5  -7  -1    2.85    0.43 
  -6  -7  -1    0.55    0.22 
  -7   8   1    0.11    0.23 
  -6   8   1    1.36    0.34 
  -5   8   1    0.80    0.26 
  -4   8   1    0.91    0.25 
   3  -8  -1    1.72    0.30 
  -3   8   1    1.28    0.26 
   2  -8  -1    2.60    0.35 
   1  -8  -1   14.73    0.85 
   0  -8  -1    2.23    0.36 
  -1  -8  -1    4.66    0.51 
  -2  -8  -1    9.67    0.71 
  -3  -8  -1    0.20    0.20 
  -4  -8  -1    2.83    0.45 
  -5   9   1    0.42    0.21 
   3  -9  -1    0.71    0.26 
   2  -9  -1    0.64    0.23 
   1  -9  -1    0.24    0.20 
   0  -9  -1    0.19    0.18 
  -1  -9  -1   -0.23    0.18 
  -2  -9  -1    8.95    0.71 
  -3  -9  -1    7.41    0.70 
   2 -10  -1    0.37    0.26 
   1 -10  -1    0.21    0.23 
   0 -10  -1   -0.08    0.20 
  -1 -10   2    1.16    0.30 
   0 -10   2    1.25    0.34 
   1 -10   2    0.30    0.24 
   2 -10   2    0.38    0.25 
  -4  10  -2    1.08    0.29 
  -3  -9   2    0.24    0.24 
  -2  -9   2    0.93    0.28 
  -1  -9   2    1.10    0.30 
   0  -9   2    1.08    0.28 
   1  -9   2    1.34    0.30 
  -2   9  -2    0.35    0.19 
   2  -9   2    0.52    0.21 
  -3   9  -2    2.42    0.37 
  -4   9  -2    2.74    0.41 
  -5   9  -2    0.53    0.23 
  -6   9  -2   -0.05    0.17 
  -5  -8   2    0.13    0.19 
  -4  -8   2    0.58    0.21 
  -3  -8   2    0.14    0.18 
  -2  -8   2    1.71    0.35 
  -1  -8   2    2.25    0.38 
   0   8  -2    1.22    0.21 
   0  -8   2    1.11    0.26 
  -1   8  -2    0.38    0.15 
   1  -8   2    0.34    0.18 
  -2   8  -2    7.24    0.49 
   2  -8   2    6.95    0.52 
  -3   8  -2    9.39    0.60 
   3  -8   2    8.51    0.58 
  -4   8  -2    5.28    0.51 
  -5   8  -2    2.39    0.39 
  -6   8  -2    0.86    0.26 
  -7   8  -2    0.02    0.20 
  -6  -7   2    0.17    0.18 
  -5  -7   2    0.47    0.23 
  -4  -7   2    0.36    0.22 
  -3  -7   2    2.49    0.38 
  -2  -7   2    0.21    0.16 
   1   7  -2    0.45    0.13 
  -1  -7   2    0.34    0.18 
   0   7  -2    1.65    0.22 
   0  -7   2    1.96    0.30 
  -1   7  -2    0.53    0.15 
   1  -7   2    0.36    0.16 
  -2   7  -2    0.27    0.14 
   2  -7   2    0.05    0.13 
  -3   7  -2    9.71    0.58 
   3  -7   2    7.56    0.51 
  -4   7  -2    1.95    0.32 
  -5   7  -2    0.23    0.19 
  -5   7  -2    0.17    0.19 
  -6   7  -2    1.10    0.29 
  -7   7  -2   -0.28    0.20 
  -8   7  -2    0.37    0.28 
  -7  -6   2    1.46    0.31 
  -6  -6   2    8.26    0.63 
  -5  -6   2    0.15    0.15 
  -4  -6   2   19.18    1.02 
  -3  -6   2   38.43    1.70 
   2   6  -2   53.25    1.96 
  -2  -6   2   54.10    2.21 
   1   6  -2    1.49    0.18 
  -1  -6   2    1.70    0.27 
   0   6  -2   11.29    0.54 
   0  -6   2   10.78    0.62 
  -1   6  -2   11.21    0.57 
  -1   6  -2   10.79    0.55 
   1  -6   2   11.56    0.62 
  -2   6  -2    1.08    0.21 
  -2   6  -2    1.38    0.19 
   2  -6   2    0.89    0.18 
  -3   6  -2    9.57    0.55 
  -3   6  -2    9.22    0.56 
  -4   6  -2    0.34    0.17 
  -4   6  -2    0.11    0.13 
  -5   6  -2    1.62    0.29 
  -6   6  -2    0.32    0.19 
  -7   6  -2    4.00    0.50 
  -8   6  -2    1.06    0.35 
  -7  -5   2    2.57    0.38 
  -6  -5   2    1.01    0.23 
  -5  -5   2    1.70    0.28 
  -4  -5   2   49.61    2.07 
  -3  -5   2   52.83    2.09 
  -3  -5   2   49.13    2.10 
   2   5  -2    9.75    0.45 
  -2  -5   2    9.30    0.57 
  -2  -5   2   10.36    0.50 
   1   5  -2    9.73    0.46 
  -1  -5   2   10.14    0.57 
   0   5  -2   49.16    1.79 
   0  -5   2   47.32    1.91 
  -1   5  -2   71.42    2.66 
  -1   5  -2   73.75    2.89 
   1  -5   2   73.17    2.75 
  -2   5  -2   17.65    0.80 
  -2   5  -2   16.86    0.79 
   2  -5   2   16.59    0.77 
  -3   5  -2    4.95    0.35 
  -3   5  -2    4.62    0.39 
   3  -5   2    5.02    0.31 
  -4   5  -2   10.09    0.59 
  -5   5  -2    1.53    0.27 
  -6   5  -2    8.06    0.59 
  -7   5  -2    0.65    0.29 
  -8   5  -2    1.55    0.37 
  -9   5  -2   -0.13    0.20 
  -7  -4   2    0.18    0.15 
  -6  -4   2    0.12    0.13 
  -6  -4   2    0.54    0.16 
  -5  -4   2    0.07    0.12 
  -5  -4   2   -0.20    0.09 
  -4  -4   2    9.23    0.53 
  -3  -4   2    0.50    0.12 
  -3  -4   2    0.24    0.10 
   2   4  -2   19.77    0.76 
  -2  -4   2   19.83    0.85 
  -2  -4   2   18.22    0.87 
   1   4  -2   18.85    0.76 
  -1  -4   2   19.68    0.86 
  -1  -4   2   18.95    0.80 
   0   4  -2   18.73    0.76 
   0  -4   2   18.61    0.82 
  -1   4  -2   57.51    2.22 
  -1   4  -2   54.70    2.06 
   1  -4   2   55.26    2.11 
  -2   4  -2  198.51    7.80 
  -2   4  -2  203.83    7.01 
  -3   4  -2    0.06    0.10 
   3  -4   2    0.03    0.07 
  -4   4  -2    0.28    0.13 
  -5   4  -2    0.20    0.14 
  -6   4  -2    0.99    0.26 
  -7   4  -2    1.15    0.31 
  -8   4  -2    0.05    0.21 
  -9   4  -2    0.06    0.22 
  -8  -3   2    0.16    0.18 
  -7  -3   2    1.58    0.29 
  -7  -3   2    1.31    0.25 
  -6  -3   2    0.17    0.15 
  -6  -3   2    0.14    0.15 
  -5  -3   2    3.81    0.36 
  -5  -3   2    3.90    0.35 
  -4  -3   2    1.23    0.19 
  -4  -3   2    1.10    0.19 
  -3  -3   2    0.39    0.09 
  -3  -3   2    0.34    0.10 
  -2  -3   2    0.15    0.08 
  -2  -3   2    0.12    0.05 
   1   3  -2    1.16    0.12 
  -1  -3   2    1.18    0.10 
  -1  -3   2    1.07    0.14 
   0   3  -2  200.63    6.87 
   0  -3   2  199.74    7.12 
  -1   3  -2    2.48    0.21 
  -1   3  -2    3.09    0.19 
   1  -3   2    3.10    0.20 
  -2   3  -2    0.29    0.09 
   2  -3   2    0.18    0.07 
  -3   3  -2   12.02    0.61 
   3  -3   2   12.46    0.49 
  -4   3  -2    4.05    0.32 
  -5   3  -2   16.06    0.85 
  -6   3  -2    5.38    0.46 
  -7   3  -2    0.07    0.20 
  -8   3  -2    4.90    0.56 
  -9   3  -2    1.21    0.33 
  -9  -2   2    0.66    0.27 
  -8  -2   2    0.27    0.19 
  -7  -2   2    1.01    0.25 
  -6  -2   2   14.27    0.73 
  -6  -2   2   15.15    0.82 
  -5  -2   2   75.31    2.86 
  -5  -2   2   75.83    3.11 
  -4  -2   2   -0.06    0.06 
  -4  -2   2   -0.11    0.06 
  -3  -2   2    6.30    0.36 
  -3  -2   2    6.38    0.36 
  -2  -2   2   15.03    0.65 
  -2  -2   2   15.26    0.66 
   1   2  -2   34.71    1.22 
  -1  -2   2   33.00    1.29 
  -1  -2   2   34.55    1.34 
   0   2  -2  422.25   14.68 
   0  -2   2  441.49   15.19 
  -1   2  -2   85.07    3.04 
  -1   2  -2   88.23    3.37 
  -2   2  -2   56.64    2.29 
   2  -2   2   57.98    2.05 
  -3   2  -2   76.66    3.08 
  -4   2  -2    1.85    0.23 
  -5   2  -2    1.06    0.22 
  -6   2  -2   55.10    2.41 
  -7   2  -2    0.31    0.21 
  -8   2  -2    0.41    0.23 
  -9   2  -2    1.26    0.36 
  -9  -1   2    0.79    0.25 
  -8  -1   2    0.57    0.22 
  -7  -1   2   16.28    0.93 
  -6  -1   2   34.40    1.62 
  -6  -1   2   36.82    1.45 
  -5  -1   2   16.23    0.74 
  -5  -1   2   17.15    0.86 
  -4  -1   2   49.74    2.02 
  -4  -1   2   46.85    1.82 
  -3  -1   2    1.85    0.17 
  -3  -1   2    2.33    0.17 
  -2  -1   2  157.81    5.59 
  -2  -1   2  156.98    6.10 
  -1  -1   2  105.18    3.85 
  -1  -1   2  111.16    4.19 
   0   1  -2   35.62    1.26 
   0   1  -2   34.07    1.39 
   0  -1   2   36.58    1.29 
  -1   1  -2  337.77   10.94 
  -1   1  -2  314.97   12.32 
   1  -1   2  308.62   11.26 
  -2   1  -2   47.49    1.95 
   2  -1   2   49.41    1.73 
  -3   1  -2  140.29    5.51 
  -4   1  -2    5.45    0.37 
  -5   1  -2   36.06    1.63 
  -6   1  -2   49.04    2.18 
  -7   1  -2    2.37    0.36 
  -8   1  -2    6.23    0.54 
  -9   1  -2    0.04    0.20 
  -9   0   2    0.87    0.26 
  -8   0   2    1.99    0.36 
  -7   0   2    2.29    0.35 
  -6   0   2   10.98    0.53 
  -6   0   2   10.59    0.65 
  -5   0   2   16.86    0.71 
  -5   0   2   16.43    0.84 
  -4   0   2   93.49    3.74 
  -4   0   2   92.88    3.37 
  -3   0   2   65.45    2.39 
  -3   0   2   66.31    2.65 
  -2   0   2   16.50    0.75 
  -2   0   2   17.93    0.67 
  -1   0   2  129.94    4.59 
   0   0  -2    0.61    0.07 
   0   0  -2    0.28    0.03 
   0   0   2    0.26    0.03 
  -1   0  -2   21.02    0.88 
  -2   0  -2   11.98    0.48 
  -2   0  -2   12.63    0.58 
  -3   0  -2  110.69    4.41 
  -3   0  -2  111.82    3.96 
  -4   0  -2   28.66    1.10 
  -4   0  -2   29.40    1.31 
  -5   0  -2    1.29    0.14 
  -5   0  -2    1.34    0.24 
  -6   0  -2    8.27    0.58 
  -7   0  -2    8.30    0.61 
  -8   0  -2    1.34    0.31 
  -9   0  -2    0.89    0.26 
  -9   1   2    1.70    0.36 
  -8   1   2    2.21    0.38 
  -7   1   2    0.81    0.20 
  -6   1   2    1.16    0.21 
  -6   1   2    1.60    0.16 
  -5   1   2   12.75    0.55 
  -5   1   2   12.87    0.70 
  -4   1   2   22.49    0.87 
  -4   1   2   22.00    1.04 
  -3   1   2  112.29    4.52 
  -3   1   2  116.42    4.07 
  -2   1   2   39.90    1.45 
  -1   1   2  327.75   11.51 
   0  -1  -2  811.54   34.64 
   0  -1  -2 1000.00   31.77 
  -1  -1  -2   40.72    1.69 
  -1  -1  -2   42.13    1.54 
  -2  -1  -2  136.47    5.36 
  -2  -1  -2  137.00    4.88 
  -3  -1  -2  164.61    6.60 
  -3  -1  -2  171.49    6.00 
  -4  -1  -2    4.67    0.29 
  -4  -1  -2    5.36    0.37 
  -5  -1  -2    0.57    0.12 
  -5  -1  -2    0.33    0.13 
  -6  -1  -2    0.81    0.23 
  -7  -1  -2   16.36    0.96 
  -8  -1  -2    0.26    0.17 
  -9  -1  -2    1.09    0.31 
  -9   2   2    0.38    0.22 
  -8   2   2    5.55    0.50 
  -7   2   2    6.78    0.52 
  -6   2   2    5.12    0.42 
  -5   2   2    0.49    0.09 
  -5   2   2    0.45    0.15 
  -4   2   2    1.84    0.13 
  -4   2   2    1.54    0.23 
  -3   2   2    6.08    0.28 
  -3   2   2    6.08    0.38 
  -2   2   2  266.98    9.41 
   1  -2  -2  141.63    5.05 
   0  -2  -2  350.75   12.47 
   0  -2  -2  356.19   13.63 
  -1  -2  -2   40.07    1.65 
  -1  -2  -2   39.40    1.52 
  -2  -2  -2  339.08   12.97 
  -2  -2  -2  331.97   11.87 
  -3  -2  -2   27.28    1.27 
  -3  -2  -2   29.60    1.16 
  -4  -2  -2    4.57    0.31 
  -4  -2  -2    4.33    0.35 
  -5  -2  -2    1.73    0.27 
  -5  -2  -2    1.55    0.21 
  -6  -2  -2   12.73    0.79 
  -6  -2  -2   12.88    0.66 
  -7  -2  -2    3.96    0.48 
  -8  -2  -2    6.07    0.64 
  -9  -2  -2    0.28    0.23 
  -9   3   2    1.68    0.36 
  -8   3   2    0.14    0.21 
  -7   3   2    0.58    0.22 
  -6   3   2    1.99    0.31 
  -5   3   2    0.03    0.05 
  -5   3   2    0.20    0.12 
  -4   3   2   19.32    0.97 
  -4   3   2   19.86    0.77 
  -3   3   2    0.91    0.11 
  -2   3   2    0.72    0.11 
   1  -3  -2   28.06    1.12 
   0  -3  -2   29.67    1.30 
   0  -3  -2   30.92    1.22 
  -1  -3  -2   27.96    1.08 
  -1  -3  -2   25.22    1.14 
   1   3   2   24.54    0.90 
  -2  -3  -2    9.71    0.50 
  -2  -3  -2    9.06    0.52 
  -3  -3  -2    8.19    0.50 
  -3  -3  -2    7.99    0.46 
  -4  -3  -2    9.92    0.55 
  -4  -3  -2    9.64    0.59 
  -5  -3  -2    3.00    0.32 
  -5  -3  -2    3.87    0.40 
  -6  -3  -2    0.24    0.17 
  -6  -3  -2    0.13    0.14 
  -7  -3  -2    0.96    0.27 
  -8  -3  -2    2.74    0.45 
  -9   4   2    2.25    0.44 
  -8   4   2    0.48    0.24 
  -7   4   2    0.44    0.22 
  -6   4   2    1.74    0.32 
  -5   4   2    6.01    0.47 
  -5   4   2    5.73    0.30 
  -4   4   2    0.70    0.11 
  -4   4   2    0.41    0.16 
  -3   4   2   31.16    1.22 
   2  -4  -2   41.87    1.64 
   1  -4  -2    4.99    0.33 
   0  -4  -2    0.05    0.08 
   0   4   2    0.10    0.06 
  -1  -4  -2  113.49    4.34 
  -1  -4  -2  121.99    4.71 
   1   4   2  118.20    4.04 
  -2  -4  -2    2.81    0.29 
  -2  -4  -2    2.25    0.27 
  -3  -4  -2    2.02    0.27 
  -3  -4  -2    2.20    0.27 
  -4  -4  -2    0.65    0.17 
  -4  -4  -2    0.66    0.18 
  -5  -4  -2   33.61    1.59 
  -5  -4  -2   32.68    1.46 
  -6  -4  -2    0.74    0.20 
  -6  -4  -2    1.73    0.32 
  -7  -4  -2    1.60    0.33 
  -8  -4  -2    1.57    0.37 
  -9   5   2    0.02    0.21 
  -8   5   2   -0.07    0.20 
  -7   5   2    4.31    0.51 
  -6   5   2    0.39    0.20 
  -5   5   2    3.08    0.39 
  -4   5   2    1.09    0.14 
  -4   5   2    0.61    0.18 
   3  -5  -2   27.41    1.16 
   2  -5  -2    0.08    0.10 
   1  -5  -2    0.09    0.10 
   0  -5  -2    2.07    0.27 
   0   5   2    2.44    0.18 
  -1  -5  -2    0.08    0.11 
  -1  -5  -2    0.10    0.11 
  -2  -5  -2   10.14    0.59 
  -2  -5  -2    9.54    0.58 
  -3  -5  -2    3.67    0.38 
  -3  -5  -2    3.69    0.38 
  -4  -5  -2    4.73    0.41 
  -4  -5  -2    4.32    0.42 
  -5  -5  -2    0.25    0.16 
  -5  -5  -2    0.09    0.16 
  -6  -5  -2   12.37    0.81 
  -6  -5  -2   12.53    0.78 
  -7  -5  -2    0.02    0.21 
  -8   6   2    1.50    0.36 
  -7   6   2    3.38    0.47 
  -6   6   2    1.11    0.29 
  -5   6   2   14.17    0.87 
  -4   6   2   14.20    0.82 
  -4   6   2   14.41    0.68 
   3  -6  -2   13.46    0.69 
   2  -6  -2   12.59    0.68 
   1  -6  -2    0.12    0.12 
  -1   6   2    0.33    0.13 
   0  -6  -2    8.63    0.56 
  -1  -6  -2    0.29    0.15 
  -2  -6  -2    1.54    0.26 
  -2  -6  -2    1.69    0.29 
  -3  -6  -2    0.13    0.14 
  -3  -6  -2   -0.04    0.12 
  -4  -6  -2   11.96    0.77 
  -4  -6  -2   13.87    0.81 
  -5  -6  -2    0.56    0.21 
  -6  -6  -2    0.85    0.26 
  -7   7   2    0.32    0.26 
  -6   7   2    2.08    0.39 
  -5   7   2    1.60    0.34 
  -4   7   2   -0.03    0.09 
  -4   7   2    0.09    0.15 
   3  -7  -2    0.68    0.18 
   2  -7  -2    0.38    0.17 
  -2   7   2    0.45    0.14 
   1  -7  -2   20.25    1.02 
   0  -7  -2   11.21    0.69 
  -1  -7  -2   -0.03    0.15 
  -2  -7  -2   20.06    1.07 
  -3  -7  -2    1.98    0.35 
  -4  -7  -2   -0.03    0.15 
  -5  -7  -2    0.35    0.21 
  -6   8   2    1.59    0.36 
  -5   8   2    0.46    0.25 
  -4   8   2   -0.07    0.17 
   3  -8  -2    0.39    0.20 
   2  -8  -2    4.40    0.46 
   1  -8  -2    0.84    0.23 
   0  -8  -2    0.01    0.16 
  -1  -8  -2    1.94    0.36 
  -2  -8  -2    5.16    0.56 
  -3  -8  -2    0.65    0.24 
  -4  -8  -2    0.00    0.16 
   3  -9  -2    0.29    0.21 
   2  -9  -2    0.97    0.28 
   1  -9  -2    0.13    0.19 
   0  -9  -2    0.21    0.20 
  -1  -9  -2    0.11    0.21 
  -2  -9  -2    1.29    0.35 
  -1 -10   3    0.45    0.26 
   0 -10   3    0.42    0.24 
   1 -10   3    0.31    0.25 
  -3  10  -3   -0.10    0.17 
  -4  10  -3    0.14    0.19 
  -3  -9   3    0.17    0.21 
  -2  -9   3   -0.02    0.19 
  -1  -9   3    0.22    0.21 
   0  -9   3    1.56    0.33 
  -1   9  -3    2.18    0.30 
   1  -9   3    2.03    0.35 
  -2   9  -3    0.20    0.19 
   2  -9   3    0.58    0.24 
  -3   9  -3    5.12    0.49 
  -4   9  -3    0.44    0.23 
  -5   9  -3    0.35    0.20 
  -6   9  -3    0.38    0.21 
  -5  -8   3    0.38    0.20 
  -4  -8   3   -0.05    0.16 
  -3  -8   3    0.18    0.19 
  -2  -8   3    0.13    0.18 
  -1  -8   3    9.31    0.65 
   0   8  -3    0.11    0.14 
   0  -8   3    0.31    0.17 
  -1   8  -3    0.72    0.19 
   1  -8   3    1.24    0.26 
  -2   8  -3    4.48    0.41 
   2  -8   3    3.58    0.39 
  -3   8  -3    1.86    0.32 
  -4   8  -3    2.42    0.37 
  -5   8  -3    0.15    0.19 
  -6   8  -3    1.05    0.30 
  -7   8  -3    0.10    0.18 
  -6  -7   3    0.19    0.18 
  -5  -7   3    2.79    0.43 
  -4  -7   3    0.32    0.18 
  -3  -7   3    3.19    0.43 
   2   7  -3    3.76    0.27 
  -2  -7   3    2.41    0.36 
   1   7  -3    6.94    0.40 
  -1  -7   3    6.83    0.52 
   0   7  -3    3.95    0.31 
   0  -7   3    4.48    0.42 
  -1   7  -3    3.98    0.35 
   1  -7   3    4.17    0.39 
  -2   7  -3    9.51    0.56 
   2  -7   3    8.55    0.55 
  -3   7  -3    1.19    0.25 
   3  -7   3    1.18    0.24 
  -4   7  -3    0.55    0.22 
  -5   7  -3    2.08    0.35 
  -6   7  -3    2.21    0.39 
  -7   7  -3    1.08    0.31 
  -7   7  -3    0.88    0.31 
  -8   7  -3    0.30    0.26 
  -7  -6   3    3.35    0.46 
  -6  -6   3    0.07    0.16 
  -5  -6   3    0.09    0.16 
  -4  -6   3    0.70    0.24 
  -3  -6   3   17.66    0.94 
   2   6  -3    6.30    0.35 
  -2  -6   3    5.65    0.46 
   1   6  -3    4.01    0.28 
  -1  -6   3    3.63    0.37 
   0   6  -3   14.09    0.66 
   0  -6   3   14.38    0.74 
  -1   6  -3    0.01    0.09 
   1  -6   3    0.03    0.10 
  -2   6  -3    0.57    0.16 
   2  -6   3    0.49    0.15 
  -3   6  -3   13.48    0.73 
  -3   6  -3   13.16    0.68 
   3  -6   3   13.32    0.66 
  -4   6  -3    0.15    0.14 
  -4   6  -3    0.33    0.17 
  -5   6  -3    0.39    0.18 
  -5   6  -3    0.07    0.17 
  -6   6  -3    0.33    0.23 
  -7   6  -3    1.03    0.32 
  -8   6  -3    1.96    0.39 
  -7  -5   3    2.10    0.36 
  -6  -5   3    3.96    0.45 
  -5  -5   3    0.45    0.18 
  -4  -5   3    0.33    0.16 
  -3  -5   3   30.63    1.36 
   2   5  -3    5.02    0.29 
  -2  -5   3    5.00    0.38 
   1   5  -3    1.21    0.16 
  -1  -5   3    0.99    0.20 
   0   5  -3   36.46    1.39 
   0  -5   3   35.86    1.48 
  -1   5  -3    6.02    0.38 
  -1   5  -3    6.27    0.33 
   1  -5   3    6.61    0.40 
  -2   5  -3    1.28    0.16 
  -2   5  -3    1.50    0.23 
   2  -5   3    1.29    0.18 
  -3   5  -3    3.28    0.27 
  -3   5  -3    3.48    0.34 
   3  -5   3    3.47    0.25 
  -4   5  -3    1.37    0.26 
  -4   5  -3    1.65    0.24 
  -5   5  -3    0.09    0.13 
  -6   5  -3   15.96    0.93 
  -7   5  -3    1.46    0.32 
  -8   5  -3    0.00    0.22 
  -9   5  -3    2.33    0.42 
  -7  -4   3    0.49    0.18 
  -6  -4   3    0.78    0.21 
  -5  -4   3    0.02    0.08 
  -5  -4   3    0.22    0.14 
  -4  -4   3  166.74    6.56 
  -4  -4   3  167.47    6.12 
  -3  -4   3    9.58    0.57 
  -3  -4   3   11.68    0.54 
   2   4  -3    5.39    0.29 
  -2  -4   3    5.40    0.37 
  -2  -4   3    5.64    0.29 
   1   4  -3   91.71    3.18 
  -1  -4   3   88.41    3.34 
   0   4  -3   18.31    0.76 
   0  -4   3   18.40    0.81 
  -1   4  -3  154.15    6.05 
  -1   4  -3  152.03    5.48 
   1  -4   3  164.42    5.64 
  -2   4  -3   16.78    0.73 
  -2   4  -3   15.80    0.74 
   2  -4   3   15.71    0.69 
  -3   4  -3    0.15    0.11 
  -3   4  -3    0.17    0.11 
   3  -4   3    0.12    0.08 
  -4   4  -3    5.54    0.40 
  -5   4  -3   -0.04    0.11 
  -6   4  -3    2.35    0.35 
  -7   4  -3    1.12    0.30 
  -8   4  -3    4.14    0.54 
  -9   4  -3    0.84    0.30 
  -8  -3   3    0.18    0.17 
  -7  -3   3    5.58    0.45 
  -7  -3   3    7.06    0.52 
  -6  -3   3   10.69    0.64 
  -6  -3   3    9.37    0.59 
  -5  -3   3   70.57    2.95 
  -5  -3   3   72.62    2.77 
  -4  -3   3    0.05    0.06 
  -4  -3   3    0.22    0.11 
  -3  -3   3    5.01    0.30 
  -3  -3   3    5.26    0.34 
  -2  -3   3   57.56    2.19 
  -2  -3   3   57.90    2.28 
   1   3  -3   52.05    1.88 
  -1  -3   3   53.08    1.99 
   0   3  -3   11.21    0.49 
   0  -3   3   10.88    0.51 
  -1   3  -3   63.45    2.52 
  -1   3  -3   63.46    2.32 
   1  -3   3   65.94    2.36 
  -2   3  -3  122.37    4.64 
  -2   3  -3  137.40    5.17 
   2  -3   3  136.48    4.71 
  -3   3  -3  187.78    7.50 
   3  -3   3  196.65    6.79 
  -4   3  -3    0.41    0.14 
  -5   3  -3   11.78    0.68 
  -6   3  -3    6.70    0.52 
  -7   3  -3   -0.11    0.17 
  -8   3  -3    0.52    0.25 
  -9   3  -3    0.04    0.24 
  -9  -2   3    3.92    0.53 
  -8  -2   3    0.91    0.24 
  -7  -2   3    0.47    0.17 
  -7  -2   3    0.37    0.15 
  -6  -2   3   22.90    1.06 
  -6  -2   3   24.32    1.17 
  -5  -2   3   40.48    1.75 
  -5  -2   3   39.75    1.62 
  -4  -2   3    5.81    0.35 
  -4  -2   3    5.76    0.37 
  -3  -2   3   19.03    0.81 
  -2  -2   3   12.54    0.55 
  -2  -2   3   12.33    0.56 
   1   2  -3    4.19    0.22 
  -1  -2   3    4.51    0.25 
  -1  -2   3    4.45    0.21 
   0   2  -3  276.45    9.69 
   0   2  -3  281.33   10.98 
   0  -2   3  294.58   10.03 
  -1   2  -3   43.53    1.73 
  -1   2  -3   43.44    1.59 
  -2   2  -3    1.21    0.14 
  -2   2  -3    1.09    0.15 
   2  -2   3    0.94    0.08 
  -3   2  -3   16.28    0.77 
  -4   2  -3   24.51    1.14 
  -5   2  -3    3.94    0.35 
  -6   2  -3    4.87    0.47 
  -7   2  -3    2.16    0.37 
  -8   2  -3    3.40    0.49 
  -9   2  -3    0.84    0.31 
  -9  -1   3    0.47    0.22 
  -8  -1   3    0.49    0.19 
  -7  -1   3   45.18    2.05 
  -6  -1   3    3.43    0.36 
  -6  -1   3    3.50    0.28 
  -5  -1   3    2.75    0.29 
  -5  -1   3    3.10    0.23 
  -4  -1   3   18.65    0.90 
  -4  -1   3   20.07    0.83 
  -3  -1   3   -0.01    0.04 
  -3  -1   3   -0.02    0.06 
  -2  -1   3   11.12    0.48 
  -2  -1   3   10.69    0.51 
  -1  -1   3   18.03    0.71 
   0   1  -3   73.95    2.87 
   0   1  -3   70.87    2.55 
   0  -1   3   75.73    2.63 
  -1   1  -3   19.23    0.82 
  -1   1  -3   19.47    0.74 
  -2   1  -3  177.12    7.10 
  -2   1  -3  185.11    6.31 
   2  -1   3  186.38    6.44 
  -3   1  -3  195.45    7.70 
   3  -1   3  199.04    6.94 
  -4   1  -3   26.34    1.21 
  -5   1  -3    2.82    0.33 
  -6   1  -3    0.32    0.22 
  -7   1  -3   -0.11    0.15 
  -8   1  -3    6.35    0.64 
  -9   1  -3    0.57    0.24 
  -9   0   3    0.48    0.25 
  -8   0   3    0.93    0.26 
  -7   0   3   20.05    1.07 
  -6   0   3    7.69    0.41 
  -6   0   3    6.84    0.48 
  -5   0   3   12.59    0.56 
  -5   0   3   11.32    0.66 
  -4   0   3    4.77    0.27 
  -4   0   3    4.70    0.34 
  -3   0   3    0.73    0.13 
  -3   0   3    0.38    0.07 
  -2   0   3   19.22    0.75 
  -1   0   3  193.09    6.81 
   0   0  -3   10.84    0.42 
   0   0  -3   10.72    0.51 
   0   0   3   11.07    0.44 
  -1   0  -3  231.61    8.84 
   1   0   3  225.72    8.05 
  -2   0  -3   40.00    1.63 
   2   0   3   38.25    1.42 
  -3   0  -3  193.88    7.35 
  -3   0  -3  181.41    6.63 
  -4   0  -3   18.48    0.92 
  -4   0  -3   18.62    0.74 
  -5   0  -3    2.95    0.19 
  -5   0  -3    2.36    0.31 
  -6   0  -3   14.86    0.87 
  -7   0  -3    2.42    0.38 
  -8   0  -3    1.34    0.31 
  -9   0  -3    0.29    0.22 
  -9   1   3    0.52    0.23 
  -8   1   3    4.77    0.51 
  -7   1   3    5.48    0.45 
  -6   1   3    0.01    0.07 
  -6   1   3    0.14    0.11 
  -5   1   3    0.73    0.18 
  -5   1   3    1.12    0.14 
  -4   1   3    0.32    0.12 
  -4   1   3    0.32    0.08 
  -3   1   3    2.56    0.23 
  -3   1   3    3.03    0.17 
  -2   1   3    1.65    0.12 
  -1   1   3  284.86   10.03 
   0  -1  -3  230.37    8.64 
   0   1   3  215.77    7.86 
  -1  -1  -3   11.49    0.50 
  -1  -1  -3   11.49    0.42 
  -1  -1  -3   12.55    0.58 
  -2  -1  -3    6.76    0.35 
  -2  -1  -3    7.19    0.42 
  -2  -1  -3    7.35    0.30 
  -3  -1  -3   11.66    0.63 
  -3  -1  -3   12.19    0.54 
  -4  -1  -3    0.87    0.13 
  -4  -1  -3    0.90    0.19 
  -5  -1  -3   17.08    0.94 
  -5  -1  -3   18.60    0.79 
  -6  -1  -3    1.75    0.30 
  -7  -1  -3    1.86    0.35 
  -8  -1  -3    1.14    0.30 
  -9  -1  -3    0.43    0.24 
  -9   2   3    0.30    0.21 
  -8   2   3    7.44    0.59 
  -7   2   3    0.11    0.13 
  -6   2   3    0.03    0.10 
  -5   2   3    3.44    0.22 
  -5   2   3    3.07    0.34 
  -4   2   3  135.30    4.88 
  -4   2   3  138.94    5.47 
  -3   2   3   12.05    0.51 
  -2   2   3    2.90    0.18 
  -1   2   3  221.32    7.84 
   0  -2  -3  189.04    6.66 
   0  -2  -3  184.21    7.28 
  -1  -2  -3    2.43    0.22 
  -1  -2  -3    2.12    0.20 
  -2  -2  -3   75.05    3.03 
  -2  -2  -3   73.70    2.76 
  -3  -2  -3   18.02    0.87 
  -3  -2  -3   16.44    0.76 
  -4  -2  -3    0.16    0.09 
  -4  -2  -3    0.18    0.13 
  -5  -2  -3   -0.04    0.10 
  -5  -2  -3    0.02    0.10 
  -6  -2  -3   20.87    1.13 
  -7  -2  -3    0.48    0.19 
  -8  -2  -3    6.84    0.61 
  -9   3   3    0.05    0.18 
  -8   3   3    0.50    0.22 
  -7   3   3    4.19    0.48 
  -6   3   3    2.55    0.36 
  -5   3   3    0.52    0.18 
  -5   3   3    0.54    0.09 
  -4   3   3   15.86    0.64 
  -4   3   3   14.51    0.80 
  -3   3   3   16.08    0.67 
  -2   3   3  132.33    4.75 
   1  -3  -3   80.61    2.98 
   0  -3  -3   87.29    3.56 
   0  -3  -3   89.49    3.27 
  -1  -3  -3    2.44    0.26 
  -1  -3  -3    2.71    0.25 
  -2  -3  -3   45.77    1.79 
  -2  -3  -3   44.63    1.94 
  -3  -3  -3    1.66    0.25 
  -3  -3  -3    2.40    0.26 
  -4  -3  -3    7.30    0.46 
  -4  -3  -3    7.68    0.52 
  -5  -3  -3    0.55    0.17 
  -5  -3  -3    0.40    0.14 
  -6  -3  -3    2.29    0.31 
  -6  -3  -3    2.56    0.39 
  -7  -3  -3    2.58    0.41 
  -8  -3  -3    0.63    0.25 
  -9   4   3    0.33    0.25 
  -8   4   3    0.14    0.19 
  -7   4   3    8.27    0.65 
  -6   4   3    1.99    0.34 
  -5   4   3    0.09    0.07 
  -5   4   3    0.04    0.11 
  -4   4   3    3.00    0.21 
  -3   4   3    4.71    0.28 
   2  -4  -3   29.05    1.20 
   1  -4  -3  109.55    4.04 
   0  -4  -3    0.71    0.16 
  -1  -4  -3   73.88    2.81 
  -1  -4  -3   73.30    3.04 
  -2  -4  -3   22.99    1.09 
  -2  -4  -3   21.08    1.00 
  -3  -4  -3    0.05    0.09 
  -3  -4  -3   -0.04    0.08 
  -4  -4  -3    0.05    0.11 
  -4  -4  -3    0.06    0.12 
  -5  -4  -3    5.31    0.43 
  -5  -4  -3    5.44    0.47 
  -6  -4  -3    3.21    0.44 
  -6  -4  -3    3.65    0.40 
  -7  -4  -3    0.75    0.26 
  -8  -4  -3    0.70    0.30 
  -8   5   3    0.85    0.30 
  -7   5   3    4.20    0.53 
  -6   5   3    3.42    0.44 
  -5   5   3    0.35    0.17 
  -5   5   3    0.59    0.12 
  -4   5   3    0.01    0.07 
  -3   5   3    3.31    0.26 
   2  -5  -3    0.24    0.12 
   1  -5  -3   37.42    1.56 
   0  -5  -3   17.23    0.83 
   0   5   3   16.12    0.67 
  -1  -5  -3    6.26    0.46 
  -1  -5  -3    6.93    0.46 
  -2  -5  -3    2.25    0.30 
  -2  -5  -3    2.24    0.30 
  -3  -5  -3    8.79    0.56 
  -3  -5  -3    7.56    0.55 
  -4  -5  -3    0.37    0.18 
  -4  -5  -3    0.67    0.22 
  -5  -5  -3    0.01    0.14 
  -5  -5  -3    0.31    0.17 
  -6  -5  -3    0.12    0.19 
  -6  -5  -3   -0.07    0.17 
  -7  -5  -3    1.74    0.40 
  -8   6   3    0.17    0.23 
  -7   6   3    0.52    0.26 
  -6   6   3    1.15    0.29 
  -5   6   3    9.22    0.66 
  -4   6   3    4.45    0.32 
  -3   6   3    0.97    0.19 
   2  -6  -3    0.09    0.14 
   1  -6  -3   24.01    1.11 
  -1   6   3   23.41    0.98 
   0  -6  -3    0.26    0.15 
  -1  -6  -3    0.71    0.21 
  -2  -6  -3    2.94    0.37 
  -2  -6  -3    3.04    0.36 
  -3  -6  -3   17.17    0.93 
  -3  -6  -3   16.11    0.92 
  -4  -6  -3    1.94    0.32 
  -4  -6  -3    1.86    0.33 
  -5  -6  -3    2.21    0.37 
  -5  -6  -3    2.98    0.44 
  -6  -6  -3    0.24    0.19 
  -7   7   3    4.06    0.55 
  -6   7   3   -0.10    0.19 
  -5   7   3    1.88    0.35 
  -4   7   3    0.44    0.16 
   3  -7  -3    0.08    0.14 
   2  -7  -3    0.95    0.23 
   1  -7  -3    1.04    0.25 
   0  -7  -3    0.31    0.17 
  -1  -7  -3    7.97    0.58 
  -2  -7  -3    0.69    0.24 
  -3  -7  -3    6.09    0.58 
  -4  -7  -3    1.00    0.27 
  -5  -7  -3    3.03    0.45 
  -6   8   3    0.70    0.28 
  -5   8   3    0.72    0.28 
  -4   8   3    6.07    0.44 
  -4   8   3    5.51    0.54 
   3  -8  -3    1.58    0.30 
   2  -8  -3    0.96    0.24 
   1  -8  -3    0.35    0.18 
   0  -8  -3    0.21    0.18 
  -1  -8  -3    5.68    0.56 
  -2  -8  -3    0.43    0.22 
  -3  -8  -3    5.42    0.59 
  -4  -8  -3    1.88    0.35 
   3  -9  -3    0.86    0.29 
   2  -9  -3    4.82    0.53 
   1  -9  -3    2.47    0.42 
   0  -9  -3    0.34    0.22 
  -1  -9  -3    2.22    0.39 
  -2  -9  -3    9.48    0.74 
  -1 -10   4   -0.06    0.22 
   0 -10   4    0.46    0.24 
   1 -10   4   -0.11    0.21 
  -2  10  -4    0.24    0.19 
  -3  10  -4    0.52    0.24 
  -3  -9   4    0.29    0.22 
  -2  -9   4    1.31    0.31 
  -1  -9   4    3.41    0.47 
   0  -9   4    0.22    0.20 
  -1   9  -4    0.18    0.15 
   1  -9   4    0.30    0.21 
  -2   9  -4   -0.03    0.16 
   2  -9   4    0.39    0.20 
  -3   9  -4    0.76    0.26 
  -4   9  -4   -0.12    0.17 
  -5   9  -4    0.02    0.17 
  -6   9  -4    0.29    0.21 
  -5  -8   4    0.65    0.21 
  -4  -8   4   -0.01    0.16 
  -3  -8   4    1.14    0.29 
  -2  -8   4    3.25    0.44 
   1   8  -4    0.21    0.15 
  -1  -8   4    0.45    0.20 
   0   8  -4    4.94    0.41 
   0  -8   4    4.13    0.45 
  -1   8  -4    3.47    0.36 
   1  -8   4    4.83    0.45 
  -2   8  -4    1.77    0.29 
   2  -8   4    1.15    0.26 
  -3   8  -4    2.60    0.38 
  -4   8  -4    1.40    0.30 
  -5   8  -4    0.10    0.19 
  -6   8  -4    0.43    0.23 
  -7   8  -4    1.59    0.36 
  -6  -7   4    0.22    0.18 
  -5  -7   4    0.33    0.19 
  -4  -7   4    0.20    0.17 
  -3  -7   4   14.51    0.86 
   2   7  -4    4.32    0.32 
  -2  -7   4    4.08    0.45 
   1   7  -4    4.39    0.32 
  -1  -7   4    4.10    0.43 
   0   7  -4    2.20    0.27 
   0  -7   4    2.01    0.31 
  -1   7  -4    5.22    0.39 
   1  -7   4    5.57    0.43 
  -2   7  -4    4.60    0.41 
   2  -7   4    3.93    0.38 
  -3   7  -4    9.77    0.62 
  -4   7  -4    0.19    0.17 
  -5   7  -4    4.91    0.51 
  -6   7  -4    0.31    0.23 
  -7   7  -4    1.75    0.35 
  -8   7  -4    0.35    0.26 
  -7  -6   4    0.25    0.19 
  -6  -6   4    5.19    0.54 
  -5  -6   4    0.65    0.21 
  -4  -6   4   10.76    0.70 
  -3  -6   4    1.41    0.27 
   2   6  -4    5.15    0.33 
  -2  -6   4    5.01    0.42 
   1   6  -4    0.75    0.16 
  -1  -6   4    0.87    0.21 
   0   6  -4    0.01    0.10 
   0  -6   4    0.08    0.10 
  -1   6  -4    0.85    0.19 
   1  -6   4    0.65    0.18 
  -2   6  -4   40.26    1.61 
   2  -6   4   38.12    1.59 
  -3   6  -4    4.20    0.41 
   3  -6   4    5.06    0.35 
  -4   6  -4    0.56    0.20 
  -4   6  -4    0.60    0.19 
  -5   6  -4    0.17    0.17 
  -5   6  -4    0.32    0.18 
  -6   6  -4    0.71    0.26 
  -6   6  -4    0.95    0.25 
  -7   6  -4    0.12    0.23 
  -7   6  -4    0.33    0.20 
  -8   6  -4    0.39    0.26 
  -7  -5   4    2.63    0.40 
  -6  -5   4    0.82    0.23 
  -5  -5   4    1.02    0.25 
  -4  -5   4    0.86    0.21 
  -3  -5   4   20.91    1.00 
   2   5  -4    2.69    0.23 
  -2  -5   4    2.25    0.28 
   1   5  -4    0.93    0.15 
  -1  -5   4    0.68    0.17 
   0   5  -4   20.12    0.85 
   0  -5   4   19.68    0.90 
  -1   5  -4    6.03    0.31 
  -1   5  -4    7.53    0.42 
   1  -5   4    6.89    0.40 
  -2   5  -4   14.83    0.68 
  -2   5  -4   14.73    0.73 
   2  -5   4   15.02    0.69 
  -3   5  -4    4.44    0.38 
  -3   5  -4    3.99    0.29 
   3  -5   4    3.42    0.26 
  -4   5  -4   14.15    0.78 
  -4   5  -4   15.47    0.79 
  -5   5  -4    0.06    0.14 
  -5   5  -4    0.12    0.15 
  -6   5  -4    1.02    0.28 
  -7   5  -4    0.66    0.27 
  -8   5  -4    0.14    0.24 
  -7  -4   4    0.71    0.21 
  -6  -4   4   10.05    0.63 
  -5  -4   4   22.72    1.09 
  -4  -4   4   54.78    2.26 
  -4  -4   4   54.85    2.20 
  -3  -4   4    0.27    0.09 
  -3  -4   4    0.29    0.12 
   2   4  -4    2.05    0.19 
  -2  -4   4    1.93    0.14 
  -2  -4   4    1.72    0.22 
   1   4  -4   29.99    1.18 
  -1  -4   4   31.65    1.27 
   0   4  -4  121.05    4.22 
   0  -4   4  118.91    4.37 
  -1   4  -4   72.71    2.71 
  -1   4  -4   73.71    2.92 
   1  -4   4   78.14    2.78 
  -2   4  -4    1.64    0.22 
  -2   4  -4    1.45    0.16 
   2  -4   4    1.15    0.14 
  -3   4  -4    0.60    0.17 
  -3   4  -4    1.22    0.18 
   3  -4   4    1.04    0.13 
  -4   4  -4   17.90    0.90 
  -4   4  -4   19.01    0.89 
  -5   4  -4    2.67    0.33 
  -6   4  -4    2.77    0.38 
  -7   4  -4    0.49    0.22 
  -8   4  -4    5.66    0.61 
  -9   4  -4    2.77    0.49 
  -7  -3   4    1.20    0.23 
  -7  -3   4    0.73    0.20 
  -6  -3   4   46.25    1.95 
  -6  -3   4   48.29    2.07 
  -5  -3   4   14.56    0.74 
  -5  -3   4   14.26    0.75 
  -4  -3   4   11.75    0.60 
  -4  -3   4   11.78    0.62 
  -3  -3   4    2.47    0.24 
  -3  -3   4    2.44    0.19 
  -2  -3   4    7.93    0.36 
  -2  -3   4    7.10    0.40 
   1   3  -4   72.82    2.54 
  -1  -3   4   70.54    2.65 
   0   3  -4   27.88    1.07 
   0  -3   4   27.80    1.10 
  -1   3  -4   20.91    0.84 
  -1   3  -4   19.88    0.85 
   1  -3   4   20.26    0.81 
  -2   3  -4    6.45    0.39 
  -2   3  -4    6.34    0.36 
   2  -3   4    6.81    0.32 
  -3   3  -4   29.06    1.22 
  -3   3  -4   30.46    1.31 
   3  -3   4   30.25    1.12 
  -4   3  -4   63.95    2.66 
  -5   3  -4    0.24    0.15 
  -6   3  -4    3.07    0.38 
  -7   3  -4    0.05    0.18 
  -8   3  -4    0.35    0.25 
  -9   3  -4    1.67    0.37 
  -9  -2   4    0.71    0.27 
  -8  -2   4    1.93    0.35 
  -7  -2   4   -0.04    0.09 
  -7  -2   4    0.15    0.13 
  -6  -2   4   35.15    1.58 
  -6  -2   4   33.81    1.46 
  -5  -2   4   -0.02    0.09 
  -5  -2   4    0.10    0.08 
  -4  -2   4   14.70    0.68 
  -4  -2   4   14.35    0.71 
  -3  -2   4    1.22    0.16 
  -2  -2   4   38.36    1.56 
  -2  -2   4   38.83    1.49 
   1   2  -4  102.12    3.53 
  -1  -2   4  101.17    3.67 
   0   2  -4   93.08    3.18 
   0   2  -4   88.62    3.53 
   0  -2   4   91.30    3.28 
  -1   2  -4    0.10    0.07 
  -1   2  -4    0.17    0.07 
   1  -2   4    0.17    0.05 
  -2   2  -4  195.39    7.59 
  -2   2  -4  197.00    6.77 
   2  -2   4  194.43    6.90 
  -3   2  -4   22.24    1.06 
  -3   2  -4   24.51    0.98 
   3  -2   4   23.80    0.87 
  -4   2  -4    6.97    0.46 
  -5   2  -4    2.12    0.30 
  -6   2  -4   13.44    0.81 
  -7   2  -4    4.56    0.52 
  -8   2  -4    2.23    0.42 
  -9   2  -4    0.23    0.24 
  -9  -1   4    0.52    0.21 
  -8  -1   4    0.23    0.17 
  -7  -1   4    0.66    0.21 
  -7  -1   4    0.18    0.16 
  -6  -1   4    4.74    0.37 
  -6  -1   4    3.86    0.30 
  -5  -1   4    0.27    0.10 
  -5  -1   4    0.31    0.13 
  -4  -1   4    0.11    0.09 
  -4  -1   4    0.17    0.08 
  -3  -1   4  128.93    4.78 
  -3  -1   4  137.12    5.22 
  -2  -1   4    0.36    0.08 
  -1  -1   4    1.03    0.10 
   0   1  -4   45.40    1.84 
   0   1  -4   45.52    1.63 
   0  -1   4   46.33    1.67 
  -1   1  -4  140.34    4.71 
  -1   1  -4  134.00    5.32 
   1  -1   4  134.98    4.83 
  -2   1  -4  172.26    5.88 
  -2   1  -4  160.57    6.62 
   2  -1   4  176.72    6.00 
  -3   1  -4   10.56    0.58 
  -3   1  -4   11.14    0.52 
   3  -1   4   11.25    0.43 
  -4   1  -4   14.82    0.79 
   4  -1   4   15.25    0.57 
  -5   1  -4   34.91    1.62 
  -6   1  -4   10.34    0.69 
  -7   1  -4    0.45    0.21 
  -8   1  -4    0.83    0.29 
  -9   1  -4    0.31    0.25 
  -9   0   4    3.69    0.49 
  -8   0   4    2.02    0.34 
  -7   0   4   31.91    1.53 
  -6   0   4    2.51    0.32 
  -6   0   4    3.36    0.25 
  -5   0   4    5.95    0.35 
  -5   0   4    6.32    0.44 
  -4   0   4    1.71    0.23 
  -4   0   4    1.93    0.18 
  -3   0   4  115.53    4.05 
  -3   0   4  109.27    4.45 
  -2   0   4  121.81    4.35 
  -1   0   4   66.64    2.41 
   0   0  -4    0.90    0.12 
   0   0  -4    0.57    0.07 
   0   0   4    0.46    0.07 
  -1   0  -4   10.27    0.51 
   1   0   4    9.65    0.41 
  -2   0  -4    1.27    0.12 
  -2   0  -4    1.56    0.20 
  -3   0  -4   67.56    2.60 
  -3   0  -4   77.30    3.02 
   3   0   4   75.64    2.64 
  -4   0  -4    0.87    0.19 
   4   0   4    0.99    0.10 
  -5   0  -4    0.88    0.24 
  -6   0  -4    4.50    0.47 
  -7   0  -4    6.99    0.57 
  -8   0  -4    0.15    0.18 
  -9   0  -4    2.06    0.40 
  -9   1   4    6.70    0.67 
  -8   1   4    1.33    0.29 
  -7   1   4    3.07    0.39 
  -6   1   4    1.36    0.25 
  -6   1   4    1.77    0.19 
  -5   1   4    4.71    0.28 
  -5   1   4    4.54    0.37 
  -4   1   4   42.43    1.83 
  -4   1   4   41.83    1.59 
  -3   1   4   29.89    1.14 
  -2   1   4    6.85    0.32 
  -1   1   4   39.71    1.48 
   0  -1  -4  265.15   10.06 
   0   1   4  253.54    9.15 
  -1  -1  -4    0.70    0.06 
  -1  -1  -4    0.72    0.14 
   1   1   4    0.59    0.09 
  -2  -1  -4    5.54    0.37 
  -2  -1  -4    5.70    0.31 
  -2  -1  -4    6.09    0.25 
  -3  -1  -4    3.29    0.29 
  -3  -1  -4    2.67    0.21 
  -3  -1  -4    3.55    0.20 
  -4  -1  -4    2.10    0.20 
  -4  -1  -4    2.10    0.29 
  -5  -1  -4    0.21    0.15 
  -5  -1  -4    0.37    0.12 
  -6  -1  -4    0.51    0.17 
  -7  -1  -4    0.04    0.16 
  -8  -1  -4    1.50    0.33 
  -9  -1  -4    0.11    0.23 
  -9   2   4    0.39    0.24 
  -8   2   4    2.90    0.41 
  -7   2   4    2.14    0.34 
  -6   2   4    3.98    0.27 
  -6   2   4    3.76    0.42 
  -5   2   4    9.01    0.44 
  -5   2   4    9.23    0.60 
  -4   2   4    9.54    0.43 
  -4   2   4    8.65    0.56 
  -3   2   4    0.97    0.11 
  -2   2   4    0.19    0.06 
  -1   2   4   29.96    1.16 
   0  -2  -4  100.80    3.99 
   0   2   4   98.32    3.60 
  -1  -2  -4    0.87    0.14 
  -1  -2  -4    0.85    0.16 
  -2  -2  -4   41.73    1.88 
  -2  -2  -4   45.51    1.70 
  -3  -2  -4    6.73    0.38 
  -3  -2  -4    6.00    0.44 
  -4  -2  -4    0.42    0.14 
  -4  -2  -4    0.39    0.12 
  -5  -2  -4    0.18    0.13 
  -5  -2  -4    0.29    0.12 
  -6  -2  -4    1.31    0.30 
  -7  -2  -4    1.06    0.29 
  -8  -2  -4    0.88    0.29 
  -9   3   4    0.41    0.21 
  -8   3   4    0.25    0.18 
  -7   3   4    3.16    0.43 
  -6   3   4    1.95    0.34 
  -5   3   4    0.26    0.16 
  -5   3   4    0.25    0.09 
  -4   3   4    0.02    0.06 
  -3   3   4    0.34    0.09 
  -2   3   4    9.87    0.47 
  -1   3   4  207.05    7.39 
   0  -3  -4  103.66    3.89 
   0  -3  -4  108.09    4.26 
  -1  -3  -4   10.07    0.54 
  -1  -3  -4   10.77    0.60 
  -2  -3  -4    5.50    0.41 
  -2  -3  -4    5.94    0.38 
  -3  -3  -4    0.31    0.14 
  -3  -3  -4    0.33    0.12 
  -4  -3  -4    0.21    0.12 
  -4  -3  -4   -0.07    0.10 
  -5  -3  -4    0.11    0.16 
  -5  -3  -4    0.07    0.11 
  -6  -3  -4    0.97    0.26 
  -7  -3  -4    2.13    0.39 
  -8  -3  -4    0.34    0.25 
  -9   4   4    0.75    0.28 
  -8   4   4    0.60    0.27 
  -7   4   4    1.50    0.35 
  -6   4   4    1.23    0.31 
  -5   4   4    1.69    0.17 
  -5   4   4    1.27    0.26 
  -4   4   4   13.67    0.62 
  -3   4   4   -0.04    0.06 
  -2   4   4    1.19    0.16 
   1  -4  -4   20.36    0.92 
   0  -4  -4  124.16    4.58 
  -1  -4  -4    2.00    0.28 
  -1  -4  -4    1.93    0.25 
  -2  -4  -4    4.51    0.35 
  -2  -4  -4    3.95    0.40 
  -3  -4  -4   22.17    1.04 
  -3  -4  -4   21.71    1.12 
  -4  -4  -4    3.15    0.39 
  -4  -4  -4    2.53    0.32 
  -5  -4  -4    0.55    0.21 
  -5  -4  -4    0.33    0.17 
  -6  -4  -4    0.08    0.16 
  -6  -4  -4    0.11    0.15 
  -7  -4  -4    1.01    0.31 
  -8   5   4    1.65    0.38 
  -7   5   4    0.01    0.19 
  -6   5   4    2.69    0.42 
  -5   5   4    0.09    0.09 
  -5   5   4    0.29    0.17 
  -4   5   4    0.21    0.10 
  -3   5   4    0.06    0.09 
  -2   5   4    6.75    0.42 
   1  -5  -4   11.63    0.64 
   0  -5  -4    2.81    0.32 
  -1  -5  -4   13.50    0.72 
  -1  -5  -4   12.62    0.75 
  -2  -5  -4    4.40    0.41 
  -2  -5  -4    4.55    0.43 
  -3  -5  -4    6.35    0.49 
  -3  -5  -4    7.48    0.54 
  -4  -5  -4    3.28    0.39 
  -4  -5  -4    4.43    0.49 
  -5  -5  -4    2.57    0.37 
  -5  -5  -4    2.69    0.40 
  -6  -5  -4    0.13    0.18 
  -6  -5  -4    0.32    0.22 
  -7  -5  -4    2.59    0.48 
  -8   6   4    1.44    0.35 
  -7   6   4   11.58    0.85 
  -6   6   4    1.62    0.36 
  -5   6   4    0.26    0.19 
  -4   6   4    5.48    0.37 
  -3   6   4    5.46    0.38 
   2  -6  -4    1.38    0.25 
   1  -6  -4    2.76    0.34 
   0  -6  -4    1.16    0.24 
  -1  -6  -4    7.62    0.54 
  -2  -6  -4   24.82    1.27 
  -2  -6  -4   25.01    1.21 
  -3  -6  -4    4.92    0.50 
  -3  -6  -4    5.19    0.51 
  -4  -6  -4    4.12    0.48 
  -4  -6  -4    3.65    0.45 
  -5  -6  -4    1.23    0.31 
  -5  -6  -4    0.69    0.22 
  -6  -6  -4    0.58    0.23 
  -6  -6  -4    0.68    0.35 
  -7   7   4    1.55    0.35 
  -6   7   4   -0.12    0.18 
  -5   7   4    0.54    0.26 
  -4   7   4    1.03    0.21 
  -3   7   4   11.58    0.65 
   2  -7  -4    0.37    0.18 
   1  -7  -4    0.31    0.18 
   0  -7  -4    0.28    0.17 
  -1  -7  -4    0.57    0.22 
  -2  -7  -4    0.58    0.23 
  -3  -7  -4    4.88    0.52 
  -3  -7  -4    4.26    0.50 
  -4  -7  -4    0.06    0.16 
  -5  -7  -4    0.38    0.21 
  -6   8   4    0.25    0.25 
  -5   8   4    4.09    0.51 
  -4   8   4    1.99    0.29 
  -3   8   4    5.14    0.45 
   2  -8  -4    0.10    0.17 
   1  -8  -4    0.57    0.23 
   0  -8  -4   -0.24    0.15 
  -1  -8  -4   -0.10    0.16 
  -2  -8  -4    1.88    0.37 
  -3  -8  -4    2.39    0.41 
  -3   9   4    1.67    0.31 
   2  -9  -4    0.05    0.20 
   1  -9  -4    1.07    0.31 
   0  -9  -4    0.13    0.22 
  -1  -9  -4    0.15    0.22 
   0 -10   5    0.89    0.31 
  -1  10  -5    0.66    0.24 
   1 -10   5    0.16    0.22 
  -2  10  -5    0.43    0.22 
  -3  10  -5    0.00    0.18 
  -3  -9   5    0.69    0.26 
  -2  -9   5    4.17    0.53 
  -1  -9   5   -0.02    0.18 
   0   9  -5    0.09    0.17 
   0  -9   5    0.35    0.21 
  -1   9  -5    0.28    0.18 
   1  -9   5    0.41    0.22 
  -2   9  -5    0.19    0.19 
  -3   9  -5    0.87    0.24 
  -4   9  -5    0.21    0.20 
  -5   9  -5    0.09    0.21 
  -5  -8   5    0.49    0.22 
  -4  -8   5    0.09    0.17 
  -3  -8   5    0.21    0.20 
   2   8  -5    0.86    0.20 
  -2  -8   5    0.34    0.19 
   1   8  -5    2.91    0.31 
  -1  -8   5    2.22    0.37 
   0   8  -5    1.93    0.29 
   0  -8   5    1.46    0.29 
  -1   8  -5    1.74    0.29 
   1  -8   5    1.72    0.30 
  -2   8  -5    0.69    0.23 
   2  -8   5    1.06    0.25 
  -3   8  -5    0.61    0.23 
  -4   8  -5    0.22    0.19 
  -5   8  -5   -0.15    0.17 
  -6   8  -5    0.54    0.26 
  -7   8  -5    0.20    0.20 
  -6  -7   5    0.33    0.19 
  -5  -7   5    2.78    0.42 
  -4  -7   5    0.21    0.18 
  -3  -7   5    2.05    0.35 
   2   7  -5    0.35    0.14 
  -2  -7   5    0.03    0.14 
   1   7  -5    0.66    0.17 
  -1  -7   5    0.78    0.21 
   0   7  -5    1.76    0.26 
   0  -7   5    1.93    0.30 
  -1   7  -5   13.39    0.71 
   1  -7   5   14.49    0.77 
  -2   7  -5   -0.17    0.12 
   2  -7   5    0.01    0.14 
  -3   7  -5    0.36    0.20 
  -4   7  -5    2.20    0.35 
  -5   7  -5    1.41    0.32 
  -6   7  -5    0.33    0.22 
  -7   7  -5    0.44    0.25 
  -7  -6   5    0.11    0.16 
  -6  -6   5    1.29    0.30 
  -5  -6   5    6.00    0.56 
  -4  -6   5    5.48    0.51 
  -3  -6   5    5.82    0.46 
   2   6  -5    0.23    0.12 
  -2  -6   5    0.21    0.14 
   1   6  -5    0.32    0.13 
  -1  -6   5    0.22    0.15 
   0   6  -5    3.80    0.30 
   0  -6   5    3.60    0.35 
  -1   6  -5   32.08    1.26 
   1  -6   5   27.74    1.28 
  -2   6  -5   24.82    1.09 
   2  -6   5   23.10    1.06 
  -3   6  -5   10.44    0.62 
   3  -6   5    9.82    0.54 
  -4   6  -5    3.75    0.42 
  -5   6  -5    3.94    0.45 
  -5   6  -5    5.17    0.43 
  -6   6  -5    0.51    0.23 
  -6   6  -5    0.48    0.21 
  -7   6  -5    0.03    0.17 
  -7   6  -5   -0.36    0.18 
  -8   6  -5    0.08    0.25 
  -8   6  -5    0.49    0.26 
  -7  -5   5    0.29    0.18 
  -6  -5   5    1.78    0.31 
  -5  -5   5   36.85    1.64 
  -4  -5   5    1.21    0.25 
  -3  -5   5    1.73    0.27 
   2   5  -5    0.04    0.09 
  -2  -5   5    0.12    0.10 
   1   5  -5   27.39    1.09 
  -1  -5   5   26.10    1.17 
   0   5  -5    2.51    0.25 
   0  -5   5    2.64    0.27 
  -1   5  -5   17.61    0.86 
   1  -5   5   22.96    0.92 
  -2   5  -5    3.31    0.33 
  -2   5  -5    3.29    0.24 
   2  -5   5    2.90    0.26 
  -3   5  -5    0.92    0.17 
  -3   5  -5    1.04    0.22 
   3  -5   5    0.90    0.15 
  -4   5  -5    7.29    0.50 
  -4   5  -5    7.26    0.47 
  -5   5  -5    0.88    0.22 
  -5   5  -5    0.76    0.22 
  -6   5  -5    0.28    0.16 
  -6   5  -5   -0.16    0.14 
  -7   5  -5    1.31    0.33 
  -7   5  -5    0.93    0.28 
  -8   5  -5    0.35    0.24 
  -8   5  -5    0.27    0.26 
  -7  -4   5    0.34    0.16 
  -6  -4   5    2.41    0.34 
  -5  -4   5    0.80    0.21 
  -4  -4   5   49.34    2.01 
  -3  -4   5   30.36    1.30 
   2   4  -5    0.84    0.14 
  -2  -4   5    0.48    0.14 
   1   4  -5    0.02    0.07 
  -1  -4   5    0.01    0.07 
   0   4  -5    3.09    0.23 
   0  -4   5    2.78    0.23 
  -1   4  -5    5.63    0.30 
  -1   4  -5    5.82    0.35 
   1  -4   5    6.03    0.34 
  -2   4  -5    0.68    0.12 
  -2   4  -5    0.74    0.16 
   2  -4   5    0.56    0.11 
  -3   4  -5    9.82    0.54 
  -3   4  -5    8.76    0.54 
   3  -4   5   10.60    0.46 
  -4   4  -5    1.15    0.22 
  -4   4  -5    0.59    0.17 
  -5   4  -5    1.97    0.29 
  -5   4  -5    2.09    0.30 
  -6   4  -5    1.20    0.29 
  -6   4  -5    1.80    0.29 
  -7   4  -5    1.63    0.34 
  -8   4  -5    3.89    0.54 
  -9   4  -5    1.28    0.35 
  -7  -3   5    2.31    0.32 
  -6  -3   5    0.65    0.18 
  -6  -3   5    0.67    0.19 
  -5  -3   5    2.69    0.27 
  -4  -3   5   30.52    1.29 
  -4  -3   5   28.04    1.24 
  -3  -3   5    3.74    0.28 
  -3  -3   5    3.52    0.24 
  -2  -3   5   78.76    3.00 
  -2  -3   5   82.18    3.15 
   1   3  -5   97.45    3.41 
  -1  -3   5   97.63    3.75 
  -1  -3   5   95.13    3.54 
   0   3  -5   15.24    0.65 
   0  -3   5   15.06    0.66 
  -1   3  -5    0.03    0.08 
  -1   3  -5    0.07    0.06 
   1  -3   5    0.03    0.05 
  -2   3  -5   10.14    0.53 
  -2   3  -5   10.87    0.54 
   2  -3   5   10.90    0.47 
  -3   3  -5    1.52    0.21 
  -3   3  -5    1.77    0.23 
   3  -3   5    1.57    0.12 
  -4   3  -5    2.16    0.27 
  -4   3  -5    1.88    0.26 
  -5   3  -5    2.72    0.33 
  -5   3  -5    3.11    0.36 
  -6   3  -5    3.59    0.43 
  -7   3  -5    0.03    0.18 
  -8   3  -5    1.00    0.30 
  -9   3  -5   -0.03    0.20 
  -9  -2   5    0.68    0.29 
  -8  -2   5    4.98    0.52 
  -7  -2   5    0.31    0.14 
  -7  -2   5    0.35    0.17 
  -6  -2   5   13.06    0.70 
  -6  -2   5   14.29    0.77 
  -5  -2   5    9.07    0.50 
  -5  -2   5    8.75    0.53 
  -4  -2   5   26.92    1.16 
  -4  -2   5   28.00    1.22 
  -3  -2   5    0.19    0.09 
  -3  -2   5    0.47    0.11 
  -2  -2   5  231.07    8.19 
  -2  -2   5  229.19    8.88 
   1   2  -5    0.69    0.11 
  -1  -2   5    0.91    0.12 
   0   2  -5   27.06    1.02 
   0   2  -5   26.61    1.10 
   0  -2   5   26.06    1.03 
  -1   2  -5   24.47    1.03 
  -1   2  -5   23.27    0.93 
   1  -2   5   24.06    0.93 
  -2   2  -5   29.69    1.26 
  -2   2  -5   28.19    1.14 
   2  -2   5   28.88    1.09 
  -3   2  -5   14.33    0.73 
  -3   2  -5   13.91    0.66 
   3  -2   5   14.51    0.56 
  -4   2  -5    1.61    0.25 
  -4   2  -5    1.59    0.23 
  -5   2  -5    3.80    0.40 
  -6   2  -5    8.72    0.63 
  -7   2  -5    1.39    0.32 
  -8   2  -5    2.66    0.45 
  -9   2  -5   -0.22    0.19 
  -9  -1   5    1.24    0.32 
  -8  -1   5    3.99    0.47 
  -7  -1   5    0.01    0.09 
  -7  -1   5    0.18    0.14 
  -6  -1   5    0.35    0.14 
  -6  -1   5    0.39    0.12 
  -5  -1   5    0.02    0.08 
  -5  -1   5   -0.02    0.10 
  -4  -1   5   38.85    1.56 
  -4  -1   5   40.85    1.72 
  -3  -1   5    0.32    0.11 
  -3  -1   5    0.23    0.08 
  -2  -1   5   39.48    1.50 
  -1  -1   5    3.07    0.20 
   0   1  -5    3.07    0.19 
   0   1  -5    3.67    0.23 
   0  -1   5    3.03    0.19 
  -1   1  -5  101.07    3.49 
  -1   1  -5   99.36    3.96 
   1  -1   5   99.66    3.57 
  -2   1  -5    0.78    0.13 
  -2   1  -5    0.99    0.17 
   2  -1   5    1.47    0.11 
  -3   1  -5   22.18    0.89 
  -3   1  -5   20.78    1.02 
   3  -1   5   22.25    0.82 
  -4   1  -5   15.53    0.71 
  -4   1  -5   16.29    0.83 
   4  -1   5   14.96    0.59 
  -5   1  -5    2.26    0.33 
  -6   1  -5    0.09    0.14 
  -7   1  -5    6.39    0.57 
  -8   1  -5   -0.28    0.16 
  -9   1  -5    0.94    0.31 
  -9   0   5    0.31    0.22 
  -8   0   5    0.98    0.25 
  -7   0   5   12.92    0.79 
  -7   0   5   13.56    0.69 
  -6   0   5    0.55    0.14 
  -6   0   5    0.74    0.18 
  -5   0   5    0.03    0.10 
  -5   0   5    0.07    0.08 
  -4   0   5   23.06    1.12 
  -4   0   5   24.48    0.98 
  -3   0   5   15.22    0.66 
  -2   0   5    0.67    0.10 
  -1   0   5   30.72    1.17 
   0   0  -5   96.27    3.33 
   0   0  -5   93.95    3.83 
   0   0   5   99.17    3.46 
  -1   0  -5  182.71    7.16 
   1   0   5  183.42    6.49 
  -2   0  -5   58.77    2.05 
  -2   0  -5   56.83    2.40 
   2   0   5   57.77    2.11 
  -3   0  -5    4.22    0.25 
  -3   0  -5    4.19    0.34 
   3   0   5    4.18    0.22 
  -4   0  -5    4.54    0.39 
  -4   0  -5    4.95    0.30 
   4   0   5    4.98    0.26 
  -5   0  -5   55.80    2.46 
  -6   0  -5   23.14    1.24 
  -7   0  -5    0.13    0.17 
  -8   0  -5    0.97    0.30 
  -9   0  -5    4.65    0.63 
  -9   1   5    0.87    0.27 
  -8   1   5    0.13    0.14 
  -7   1   5    0.59    0.20 
  -6   1   5    1.67    0.29 
  -6   1   5    1.96    0.21 
  -5   1   5   30.95    1.46 
  -5   1   5   30.82    1.24 
  -4   1   5    0.30    0.08 
  -4   1   5    0.27    0.13 
  -3   1   5    7.26    0.36 
  -2   1   5    6.41    0.32 
  -1   1   5    2.22    0.17 
   0  -1  -5  337.26   13.18 
   0   1   5  343.45   12.00 
  -1  -1  -5  108.23    4.37 
   1   1   5  110.41    3.93 
  -2  -1  -5   23.45    0.85 
  -2  -1  -5   23.35    1.11 
   2   1   5   23.63    0.93 
  -3  -1  -5   19.46    0.73 
  -3  -1  -5   18.52    0.96 
   3   1   5   19.24    0.79 
  -4  -1  -5   23.35    0.98 
  -4  -1  -5   23.21    1.18 
  -4  -1  -5   24.52    0.93 
  -5  -1  -5    7.06    0.54 
  -5  -1  -5    7.47    0.41 
  -6  -1  -5    5.64    0.49 
  -7  -1  -5    0.20    0.18 
  -8  -1  -5    0.45    0.26 
  -9   2   5    1.68    0.37 
  -8   2   5    7.39    0.60 
  -7   2   5    4.77    0.50 
  -6   2   5    0.41    0.19 
  -6   2   5    0.73    0.14 
  -5   2   5   -0.07    0.09 
  -5   2   5    0.10    0.07 
  -4   2   5    4.93    0.29 
  -3   2   5    1.16    0.14 
  -2   2   5    2.63    0.19 
  -1   2   5  285.87   10.12 
   0  -2  -5   95.00    3.75 
   0   2   5   90.16    3.36 
  -1  -2  -5   46.61    2.06 
   1   2   5   49.65    1.83 
  -2  -2  -5   20.80    1.01 
  -2  -2  -5   19.93    0.88 
  -3  -2  -5    5.41    0.44 
  -3  -2  -5    7.95    0.42 
  -4  -2  -5    1.57    0.22 
  -4  -2  -5    2.47    0.33 
  -5  -2  -5    4.99    0.36 
  -5  -2  -5    4.95    0.45 
  -6  -2  -5    0.98    0.24 
  -7  -2  -5    0.10    0.18 
  -8  -2  -5    0.79    0.29 
  -9   3   5    0.79    0.26 
  -8   3   5    0.17    0.18 
  -7   3   5    4.67    0.52 
  -6   3   5    1.18    0.29 
  -6   3   5    1.12    0.18 
  -5   3   5    0.76    0.13 
  -5   3   5    0.63    0.19 
  -4   3   5   15.39    0.67 
  -3   3   5    0.36    0.10 
  -2   3   5   83.40    3.07 
  -1   3   5  137.87    4.98 
   0  -3  -5   17.62    0.90 
   0   3   5   17.55    0.78 
  -1  -3  -5    1.18    0.22 
  -1  -3  -5    1.40    0.20 
  -2  -3  -5    1.56    0.22 
  -2  -3  -5    1.41    0.25 
  -3  -3  -5   54.45    2.23 
  -3  -3  -5   59.69    2.50 
  -4  -3  -5   11.08    0.62 
  -4  -3  -5   11.00    0.71 
  -5  -3  -5    0.20    0.14 
  -5  -3  -5    0.08    0.11 
  -6  -3  -5    1.20    0.30 
  -7  -3  -5    1.23    0.31 
  -8  -3  -5    1.65    0.40 
  -8   4   5    2.12    0.42 
  -7   4   5    1.17    0.31 
  -6   4   5   19.38    1.12 
  -5   4   5    1.15    0.17 
  -5   4   5    1.40    0.28 
  -4   4   5    5.12    0.32 
  -3   4   5   23.75    1.00 
  -2   4   5    0.19    0.09 
  -1   4   5   14.75    0.70 
   0  -4  -5    6.30    0.42 
  -1  -4  -5    8.55    0.52 
  -1  -4  -5    8.52    0.57 
  -2  -4  -5    2.42    0.32 
  -2  -4  -5    2.93    0.32 
  -3  -4  -5   37.01    1.58 
  -3  -4  -5   36.34    1.73 
  -4  -4  -5    8.79    0.64 
  -4  -4  -5    9.18    0.58 
  -5  -4  -5    0.25    0.16 
  -5  -4  -5    0.13    0.15 
  -6  -4  -5    1.94    0.39 
  -7  -4  -5    0.23    0.23 
  -8   5   5    0.85    0.30 
  -7   5   5    0.34    0.23 
  -6   5   5    0.29    0.21 
  -5   5   5    1.06    0.17 
  -5   5   5    1.35    0.28 
  -4   5   5    0.21    0.12 
  -3   5   5   28.73    1.21 
  -2   5   5    3.22    0.30 
   1  -5  -5    0.16    0.12 
   0  -5  -5    2.27    0.30 
  -1  -5  -5   11.82    0.74 
  -1  -5  -5   12.28    0.70 
  -2  -5  -5    4.23    0.45 
  -2  -5  -5    4.51    0.43 
  -3  -5  -5    3.14    0.38 
  -3  -5  -5    2.20    0.36 
  -4  -5  -5    4.98    0.53 
  -4  -5  -5    4.63    0.47 
  -5  -5  -5    0.43    0.22 
  -5  -5  -5    0.28    0.18 
  -6  -5  -5    0.28    0.19 
  -6  -5  -5    0.16    0.20 
  -7   6   5    3.69    0.53 
  -6   6   5    0.07    0.18 
  -5   6   5    2.88    0.41 
  -5   6   5    2.61    0.28 
  -4   6   5    8.22    0.49 
  -3   6   5    3.71    0.33 
  -2   6   5    9.96    0.58 
   1  -6  -5   10.49    0.64 
   0  -6  -5    0.07    0.12 
  -1  -6  -5    2.45    0.36 
  -2  -6  -5   11.30    0.75 
  -2  -6  -5   11.43    0.72 
  -3  -6  -5   -0.09    0.13 
  -3  -6  -5    0.08    0.17 
  -4  -6  -5    0.04    0.19 
  -4  -6  -5    0.20    0.19 
  -5  -6  -5    0.12    0.22 
  -5  -6  -5   -0.04    0.16 
  -7   7   5    0.22    0.21 
  -6   7   5    0.35    0.23 
  -5   7   5    0.32    0.21 
  -4   7   5    2.69    0.31 
  -3   7   5    0.23    0.14 
  -2   7   5    1.13    0.24 
   1  -7  -5   -0.14    0.12 
   0  -7  -5    1.51    0.32 
  -1  -7  -5    2.96    0.42 
  -2  -7  -5    1.50    0.32 
  -3  -7  -5    1.75    0.36 
  -3  -7  -5    1.36    0.30 
  -4  -7  -5    1.26    0.29 
  -5   8   5    0.11    0.20 
  -4   8   5    1.30    0.25 
  -3   8   5    0.34    0.17 
  -2   8   5    0.37    0.18 
   1  -8  -5    1.59    0.31 
   0  -8  -5    4.00    0.50 
  -1  -8  -5    0.00    0.19 
  -2  -8  -5    0.11    0.18 
  -3  -8  -5    0.15    0.17 
  -3   9   5    0.27    0.18 
  -2   9   5    2.84    0.39 
   1  -9  -5    0.75    0.27 
   0  -9  -5    0.21    0.22 
   0 -10   6    0.42    0.26 
  -1  10  -6    0.44    0.24 
   1 -10   6    0.65    0.29 
  -2  10  -6    0.41    0.20 
  -3  10  -6   -0.26    0.16 
  -3  -9   6    0.63    0.27 
  -2  -9   6    0.30    0.22 
   1   9  -6    0.26    0.18 
  -1  -9   6    0.11    0.19 
   0   9  -6    0.27    0.20 
   0  -9   6    0.17    0.20 
  -1   9  -6    0.36    0.19 
   1  -9   6    0.38    0.21 
  -2   9  -6    4.51    0.46 
  -3   9  -6    0.47    0.23 
  -4   9  -6    0.07    0.19 
  -5   9  -6    0.53    0.24 
  -4  -8   6    0.38    0.19 
  -3  -8   6    2.60    0.41 
   2   8  -6    0.38    0.16 
  -2  -8   6    0.39    0.19 
   1   8  -6   -0.02    0.13 
  -1  -8   6    0.32    0.20 
   0   8  -6    8.51    0.53 
   0  -8   6    7.59    0.58 
  -1   8  -6    1.61    0.29 
   1  -8   6    1.81    0.31 
  -2   8  -6   11.61    0.69 
   2  -8   6   11.35    0.70 
  -3   8  -6    1.38    0.29 
  -4   8  -6    0.22    0.21 
  -5   8  -6    0.27    0.20 
  -6   8  -6   -0.02    0.15 
  -5  -7   6    0.36    0.21 
  -4  -7   6   10.64    0.74 
  -3  -7   6    0.21    0.18 
   2   7  -6    2.22    0.27 
  -2  -7   6    2.07    0.34 
   1   7  -6    6.48    0.42 
  -1  -7   6    5.81    0.47 
   0   7  -6    2.36    0.31 
   0  -7   6    3.14    0.36 
  -1   7  -6    0.24    0.17 
   1  -7   6    0.33    0.16 
  -2   7  -6    1.71    0.29 
   2  -7   6    1.81    0.27 
  -3   7  -6    8.88    0.59 
  -4   7  -6    4.02    0.46 
  -5   7  -6   -0.09    0.17 
  -6   7  -6    0.80    0.26 
  -7   7  -6    0.66    0.26 
  -6  -6   6    4.25    0.50 
  -5  -6   6    1.24    0.29 
  -4  -6   6    5.25    0.49 
  -3  -6   6    1.45    0.29 
   2   6  -6   10.29    0.53 
  -2  -6   6    8.58    0.59 
   1   6  -6    0.62    0.16 
  -1  -6   6    0.54    0.18 
   0   6  -6    3.51    0.34 
   0  -6   6    4.32    0.38 
  -1   6  -6    6.09    0.43 
   1  -6   6    6.66    0.44 
  -2   6  -6    3.23    0.36 
   2  -6   6    3.65    0.33 
  -3   6  -6    0.70    0.22 
  -4   6  -6    2.17    0.33 
  -5   6  -6    0.18    0.15 
  -6   6  -6    0.10    0.15 
  -7   6  -6    0.38    0.26 
  -7   6  -6    0.33    0.23 
  -8   6  -6   -0.10    0.22 
  -8   6  -6    0.28    0.26 
  -7  -5   6    0.05    0.15 
  -6  -5   6    0.16    0.16 
  -5  -5   6    1.08    0.25 
  -4  -5   6    2.76    0.34 
  -3  -5   6    5.06    0.40 
   2   5  -6    6.09    0.36 
  -2  -5   6    5.52    0.41 
   1   5  -6   31.81    1.28 
  -1  -5   6   32.58    1.37 
   0   5  -6    3.35    0.30 
   0  -5   6    2.72    0.27 
  -1   5  -6    1.28    0.21 
   1  -5   6    1.23    0.19 
  -2   5  -6   -0.08    0.10 
   2  -5   6   -0.02    0.08 
  -3   5  -6    3.46    0.36 
  -3   5  -6    3.44    0.28 
   3  -5   6    3.25    0.25 
  -4   5  -6    0.59    0.18 
  -4   5  -6    0.41    0.17 
  -5   5  -6    0.40    0.16 
  -5   5  -6    0.13    0.16 
  -6   5  -6    1.40    0.29 
  -6   5  -6    1.17    0.31 
  -7   5  -6    1.52    0.36 
  -7   5  -6    1.99    0.35 
  -8   5  -6    0.05    0.23 
  -8   5  -6    0.22    0.23 
  -8  -4   6    1.45    0.31 
  -7  -4   6    0.16    0.15 
  -6  -4   6   -0.04    0.12 
  -5  -4   6    0.12    0.12 
  -4  -4   6    2.03    0.28 
  -3  -4   6    2.66    0.28 
   2   4  -6    3.08    0.26 
  -2  -4   6    2.81    0.27 
   1   4  -6   32.25    1.23 
  -1  -4   6   30.25    1.28 
   0   4  -6    2.14    0.23 
   0  -4   6    1.86    0.20 
  -1   4  -6    2.60    0.26 
  -1   4  -6    2.76    0.19 
   1  -4   6    2.57    0.21 
  -2   4  -6   10.71    0.58 
  -2   4  -6   11.72    0.57 
  -3   4  -6    1.68    0.24 
  -3   4  -6    1.39    0.20 
   3  -4   6    1.49    0.15 
  -4   4  -6    0.52    0.16 
  -4   4  -6    0.25    0.14 
  -5   4  -6    1.32    0.26 
  -5   4  -6    1.16    0.24 
  -6   4  -6    0.02    0.14 
  -6   4  -6   -0.02    0.15 
  -7   4  -6    0.54    0.24 
  -7   4  -6    1.01    0.26 
  -8   4  -6    0.41    0.27 
  -8   4  -6    0.52    0.25 
  -7  -3   6    0.07    0.13 
  -6  -3   6    1.11    0.22 
  -5  -3   6    1.79    0.23 
  -4  -3   6   18.43    0.87 
  -4  -3   6   18.97    0.88 
  -3  -3   6   14.00    0.66 
  -3  -3   6   14.70    0.71 
  -2  -3   6   23.35    1.01 
  -2  -3   6   23.78    0.99 
   1   3  -6    2.70    0.21 
  -1  -3   6    2.42    0.22 
   0   3  -6    0.68    0.13 
   0  -3   6    0.48    0.11 
  -1   3  -6    0.15    0.08 
  -1   3  -6    0.12    0.09 
   1  -3   6    0.16    0.06 
  -2   3  -6    7.53    0.43 
  -2   3  -6    8.51    0.45 
   2  -3   6    7.94    0.38 
  -3   3  -6    9.84    0.54 
  -3   3  -6    9.16    0.51 
   3  -3   6    8.36    0.40 
  -4   3  -6    3.26    0.32 
  -4   3  -6    3.07    0.33 
  -5   3  -6    1.23    0.24 
  -5   3  -6    1.36    0.24 
  -6   3  -6    0.90    0.22 
  -6   3  -6    0.42    0.21 
  -7   3  -6    0.28    0.19 
  -7   3  -6   -0.16    0.15 
  -8   3  -6    5.89    0.56 
  -8   3  -6    3.92    0.54 
  -9   3  -6    0.63    0.27 
  -8  -2   6    1.17    0.29 
  -7  -2   6    0.71    0.19 
  -7  -2   6    0.39    0.19 
  -6  -2   6    4.48    0.35 
  -6  -2   6    3.81    0.35 
  -5  -2   6   27.16    1.20 
  -5  -2   6   28.15    1.28 
  -4  -2   6    7.03    0.43 
  -4  -2   6    6.96    0.43 
  -3  -2   6   50.28    1.83 
  -3  -2   6   43.46    1.92 
  -2  -2   6    2.18    0.21 
   1   2  -6   58.72    2.15 
  -1  -2   6   61.05    2.24 
   0   2  -6   10.66    0.48 
   0   2  -6   10.33    0.51 
   0  -2   6   10.67    0.48 
  -1   2  -6   75.72    2.75 
  -1   2  -6   77.13    3.09 
   1  -2   6   78.03    2.80 
  -2   2  -6    5.43    0.36 
  -2   2  -6    5.79    0.33 
   2  -2   6    5.01    0.27 
  -3   2  -6    0.65    0.15 
  -3   2  -6    0.55    0.15 
   3  -2   6    0.64    0.08 
  -4   2  -6    8.14    0.47 
  -4   2  -6    8.09    0.54 
  -5   2  -6   -0.03    0.13 
  -5   2  -6   -0.06    0.11 
  -6   2  -6   12.55    0.68 
  -6   2  -6   11.60    0.78 
  -7   2  -6    5.04    0.46 
  -7   2  -6    4.17    0.54 
  -8   2  -6    0.01    0.19 
  -9   2  -6    0.49    0.27 
  -9  -1   6    1.96    0.38 
  -8  -1   6    1.76    0.33 
  -7  -1   6   -0.14    0.10 
  -7  -1   6    0.05    0.13 
  -6  -1   6    3.33    0.36 
  -6  -1   6    3.10    0.31 
  -5  -1   6    0.54    0.14 
  -5  -1   6    1.12    0.21 
  -4  -1   6   71.08    2.90 
  -4  -1   6   69.36    2.64 
  -3  -1   6    0.36    0.10 
  -2  -1   6   11.03    0.52 
  -1  -1   6  167.05    5.96 
   0   1  -6    0.51    0.12 
   0   1  -6    0.06    0.06 
   0  -1   6   -0.01    0.04 
  -1   1  -6  166.36    5.79 
  -1   1  -6  172.12    6.59 
   1  -1   6  165.14    5.96 
  -2   1  -6  114.22    4.62 
  -2   1  -6  117.37    4.05 
  -3   1  -6   10.05    0.59 
  -3   1  -6   10.26    0.50 
   3  -1   6   10.54    0.44 
  -4   1  -6   19.18    0.84 
  -4   1  -6   19.09    1.00 
   4  -1   6   19.87    0.76 
  -5   1  -6    1.23    0.27 
  -5   1  -6    1.24    0.22 
  -6   1  -6   11.07    0.76 
  -6   1  -6   11.76    0.63 
  -7   1  -6    1.86    0.38 
  -8   1  -6    0.05    0.21 
  -9   1  -6    2.12    0.41 
  -9   0   6    0.06    0.21 
  -8   0   6    0.93    0.26 
  -7   0   6    1.49    0.28 
  -7   0   6    1.10    0.21 
  -6   0   6    2.24    0.26 
  -6   0   6    2.82    0.35 
  -5   0   6   -0.05    0.11 
  -5   0   6   -0.07    0.09 
  -4   0   6    4.44    0.29 
  -4   0   6    4.28    0.35 
  -3   0   6   19.14    0.81 
  -2   0   6    8.24    0.40 
  -1   0   6    0.05    0.05 
   0   0  -6  105.95    4.16 
   0   0   6  102.11    3.74 
  -1   0  -6   53.66    2.28 
   1   0   6   54.88    2.00 
  -2   0  -6   12.02    0.50 
  -2   0  -6   11.49    0.66 
   2   0   6   11.87    0.51 
  -3   0  -6    0.92    0.13 
  -3   0  -6    0.94    0.20 
  -4   0  -6   11.92    0.54 
  -4   0  -6   10.93    0.69 
   4   0   6   11.15    0.49 
  -5   0  -6   37.44    1.78 
  -5   0  -6   37.56    1.47 
  -6   0  -6    1.91    0.34 
  -7   0  -6    0.37    0.22 
  -8   0  -6    0.74    0.29 
  -9   1   6    0.63    0.25 
  -8   1   6    1.81    0.34 
  -7   1   6    3.89    0.45 
  -6   1   6    7.42    0.53 
  -6   1   6    6.67    0.43 
  -5   1   6   23.51    1.14 
  -5   1   6   21.24    0.95 
  -4   1   6    3.29    0.23 
  -3   1   6    0.00    0.05 
  -2   1   6    0.24    0.07 
  -1   1   6   17.96    0.74 
   0  -1  -6   20.34    0.98 
   0   1   6   20.32    0.83 
  -1  -1  -6    0.09    0.09 
   1   1   6    0.03    0.05 
  -2  -1  -6    1.76    0.25 
  -2  -1  -6    1.56    0.12 
   2   1   6    1.49    0.15 
  -3  -1  -6    1.74    0.28 
  -3  -1  -6    2.10    0.15 
   3   1   6    2.08    0.19 
  -4  -1  -6   40.18    1.85 
  -5  -1  -6   13.33    0.83 
  -6  -1  -6    0.27    0.16 
  -7  -1  -6    1.65    0.35 
  -8  -1  -6    0.50    0.26 
  -9   2   6    1.88    0.37 
  -8   2   6    0.44    0.21 
  -7   2   6    5.92    0.53 
  -6   2   6    1.08    0.19 
  -6   2   6    0.75    0.21 
  -5   2   6   20.93    1.12 
  -5   2   6   22.99    0.95 
  -4   2   6    1.75    0.18 
  -3   2   6    5.27    0.31 
  -2   2   6   23.64    0.97 
  -1   2   6   23.44    0.96 
   0  -2  -6    0.97    0.19 
   0   2   6    0.74    0.13 
  -1  -2  -6    0.06    0.11 
   1   2   6    0.30    0.10 
  -2  -2  -6   30.39    1.42 
   2   2   6   29.26    1.20 
  -3  -2  -6   16.68    0.90 
   3   2   6   15.03    0.72 
  -4  -2  -6   70.94    2.79 
  -4  -2  -6   76.79    3.18 
  -5  -2  -6    2.77    0.28 
  -5  -2  -6    2.16    0.36 
  -6  -2  -6    1.39    0.32 
  -7  -2  -6    2.69    0.46 
  -8  -2  -6    3.17    0.53 
  -8   3   6    0.04    0.17 
  -7   3   6    0.74    0.25 
  -6   3   6    1.06    0.27 
  -6   3   6    1.00    0.18 
  -5   3   6    1.45    0.28 
  -5   3   6    1.57    0.20 
  -4   3   6    3.99    0.28 
  -3   3   6    0.19    0.10 
  -2   3   6   25.51    1.06 
  -1   3   6    0.01    0.07 
   0   3   6    1.17    0.17 
  -1  -3  -6    7.36    0.51 
   1   3   6    6.75    0.40 
  -2  -3  -6   59.76    2.61 
  -2  -3  -6   60.51    2.35 
  -3  -3  -6    5.71    0.40 
  -3  -3  -6    5.52    0.47 
  -4  -3  -6    1.51    0.31 
  -4  -3  -6    0.93    0.20 
  -5  -3  -6    7.23    0.49 
  -5  -3  -6    7.05    0.59 
  -6  -3  -6    2.68    0.44 
  -7  -3  -6    0.97    0.32 
  -8   4   6    1.91    0.38 
  -7   4   6    0.54    0.24 
  -6   4   6    5.46    0.57 
  -5   4   6    5.47    0.35 
  -4   4   6   30.19    1.24 
  -3   4   6   19.64    0.87 
  -2   4   6   92.93    3.45 
  -1   4   6   51.46    2.01 
   0   4   6    1.29    0.21 
  -1  -4  -6    1.51    0.28 
  -1  -4  -6    1.60    0.25 
  -2  -4  -6   96.37    3.96 
  -2  -4  -6   92.46    3.59 
  -3  -4  -6    7.49    0.51 
  -3  -4  -6    7.30    0.58 
  -4  -4  -6    0.34    0.16 
  -4  -4  -6    0.28    0.17 
  -5  -4  -6    1.75    0.30 
  -5  -4  -6    1.48    0.34 
  -6  -4  -6    0.24    0.22 
  -7  -4  -6    0.67    0.29 
  -8   5   6    0.41    0.22 
  -7   5   6    0.23    0.21 
  -6   5   6    0.30    0.19 
  -5   5   6    0.19    0.12 
  -4   5   6    1.19    0.20 
  -3   5   6    0.25    0.13 
  -2   5   6   35.04    1.45 
  -1   5   6   36.91    1.54 
   0  -5  -6    1.11    0.22 
  -1  -5  -6   27.93    1.40 
  -1  -5  -6   27.38    1.27 
  -2  -5  -6    0.31    0.17 
  -2  -5  -6    0.19    0.16 
  -3  -5  -6   12.45    0.80 
  -3  -5  -6   11.39    0.72 
  -4  -5  -6    0.53    0.22 
  -4  -5  -6    0.58    0.21 
  -5  -5  -6    0.69    0.26 
  -5  -5  -6    0.29    0.21 
  -6  -5  -6    0.34    0.29 
  -7   6   6    0.57    0.24 
  -6   6   6    0.50    0.23 
  -5   6   6    0.01    0.12 
  -4   6   6    0.50    0.16 
  -3   6   6    4.49    0.36 
  -2   6   6    3.59    0.35 
  -1   6   6    1.21    0.23 
   0  -6  -6    0.72    0.20 
  -1  -6  -6   -0.05    0.16 
  -2  -6  -6    0.27    0.18 
  -2  -6  -6    0.46    0.18 
  -3  -6  -6    0.33    0.18 
  -3  -6  -6    0.36    0.21 
  -4  -6  -6    0.76    0.26 
  -4  -6  -6    0.37    0.21 
  -5  -6  -6    4.49    0.53 
  -5  -6  -6    5.39    0.63 
  -6   7   6    0.38    0.22 
  -4   7   6    2.35    0.30 
  -3   7   6    1.77    0.27 
  -2   7   6    0.00    0.13 
  -1   7   6    7.03    0.52 
   0  -7  -6    0.74    0.23 
  -1  -7  -6    2.58    0.41 
  -2  -7  -6    0.39    0.19 
  -3  -7  -6   -0.02    0.15 
  -3  -7  -6    0.34    0.22 
  -4  -7  -6    0.44    0.29 
  -4  -7  -6    0.25    0.19 
  -4   8   6    1.04    0.24 
  -3   8   6    0.36    0.18 
  -2   8   6    0.87    0.24 
  -1   8   6    7.97    0.58 
   0  -8  -6    0.02    0.18 
  -1  -8  -6    0.00    0.16 
  -2  -8  -6    1.05    0.27 
  -1  10  -7    0.74    0.25 
   2   9  -7    0.10    0.17 
  -2  -9   7    0.06    0.19 
   1   9  -7    0.02    0.16 
  -1  -9   7    0.08    0.20 
   0   9  -7    0.63    0.24 
   0  -9   7    0.57    0.24 
  -1   9  -7    3.30    0.43 
   1  -9   7    3.20    0.43 
  -2   9  -7    0.30    0.20 
  -3   9  -7    0.01    0.16 
  -4   9  -7    0.83    0.29 
  -5   9  -7    0.51    0.22 
  -4  -8   7    2.89    0.45 
  -3  -8   7    1.67    0.37 
   2   8  -7    0.06    0.16 
  -2  -8   7    0.53    0.23 
   1   8  -7    0.98    0.22 
  -1  -8   7    0.63    0.22 
   0   8  -7    1.94    0.32 
   0  -8   7    1.91    0.34 
  -1   8  -7    1.03    0.25 
   1  -8   7    1.10    0.25 
  -2   8  -7   -0.06    0.15 
  -3   8  -7    0.41    0.21 
  -4   8  -7    0.45    0.22 
  -5   8  -7    0.72    0.24 
  -6   8  -7    0.24    0.24 
  -5  -7   7    0.47    0.21 
  -4  -7   7    2.83    0.42 
  -3  -7   7    0.12    0.15 
   2   7  -7    2.06    0.28 
  -2  -7   7    1.96    0.33 
   1   7  -7    1.05    0.22 
  -1  -7   7    1.90    0.30 
   0   7  -7    5.16    0.43 
   0  -7   7    4.53    0.43 
  -1   7  -7    0.24    0.18 
   1  -7   7    0.09    0.13 
  -2   7  -7    2.40    0.33 
   2  -7   7    2.10    0.29 
  -3   7  -7    0.52    0.23 
  -4   7  -7    0.12    0.18 
  -5   7  -7    0.20    0.19 
  -6   7  -7    0.08    0.20 
  -7   7  -7    0.62    0.29 
  -6  -6   7    1.90    0.34 
  -5  -6   7    1.42    0.31 
  -4  -6   7    0.22    0.15 
  -3  -6   7    3.02    0.37 
   2   6  -7    2.65    0.29 
  -2  -6   7    3.24    0.36 
   1   6  -7   12.67    0.63 
  -1  -6   7   12.28    0.70 
   0   6  -7    0.46    0.17 
   0  -6   7    0.61    0.17 
  -1   6  -7    4.15    0.39 
   1  -6   7    4.63    0.36 
  -2   6  -7   23.31    1.08 
   2  -6   7   23.64    1.05 
  -3   6  -7   12.06    0.70 
  -4   6  -7    0.39    0.19 
  -5   6  -7    1.25    0.28 
  -6   6  -7    0.28    0.20 
  -7   6  -7    0.23    0.22 
  -7  -5   7    2.34    0.36 
  -6  -5   7    0.38    0.17 
  -5  -5   7    0.47    0.19 
  -4  -5   7    0.02    0.11 
  -3  -5   7   11.13    0.65 
   2   5  -7    1.02    0.18 
  -2  -5   7    0.80    0.19 
   1   5  -7    4.41    0.32 
  -1  -5   7    4.27    0.34 
   0   5  -7    0.09    0.11 
   0  -5   7   -0.06    0.08 
  -1   5  -7   19.55    0.88 
   1  -5   7   18.09    0.85 
  -2   5  -7   25.31    1.14 
   2  -5   7   27.12    1.11 
  -3   5  -7    7.80    0.50 
  -4   5  -7    1.02    0.22 
  -4   5  -7    0.71    0.21 
  -5   5  -7    6.56    0.50 
  -5   5  -7    5.93    0.47 
  -6   5  -7    1.26    0.29 
  -6   5  -7    1.32    0.31 
  -7   5  -7    0.18    0.21 
  -7   5  -7    0.76    0.25 
  -8   5  -7    0.75    0.30 
  -8   5  -7    0.42    0.26 
  -7  -4   7    1.19    0.25 
  -6  -4   7    1.28    0.27 
  -5  -4   7   15.11    0.82 
  -4  -4   7    0.31    0.13 
  -3  -4   7   10.83    0.60 
   2   4  -7   13.48    0.61 
  -2  -4   7   11.97    0.65 
   1   4  -7    0.72    0.15 
  -1  -4   7    0.50    0.14 
   0   4  -7    2.61    0.25 
   0  -4   7    2.24    0.23 
  -1   4  -7    1.12    0.14 
  -1   4  -7    1.19    0.19 
   1  -4   7    1.25    0.17 
  -2   4  -7   31.28    1.29 
  -2   4  -7   31.38    1.36 
  -3   4  -7    0.33    0.13 
  -3   4  -7    0.32    0.13 
   3  -4   7    0.10    0.07 
  -4   4  -7    0.05    0.12 
  -4   4  -7    0.15    0.14 
  -5   4  -7    0.10    0.16 
  -5   4  -7    0.39    0.16 
  -6   4  -7    1.05    0.26 
  -6   4  -7    0.93    0.26 
  -7   4  -7    2.64    0.41 
  -7   4  -7    2.80    0.44 
  -8   4  -7    0.78    0.29 
  -8   4  -7   -0.03    0.21 
  -7  -3   7    1.94    0.31 
  -6  -3   7    0.07    0.11 
  -5  -3   7   11.34    0.65 
  -4  -3   7   53.30    2.15 
  -4  -3   7   50.10    2.07 
  -3  -3   7    0.29    0.11 
  -3  -3   7    0.27    0.11 
  -2  -3   7    4.87    0.29 
  -2  -3   7    4.62    0.33 
   1   3  -7   24.56    1.03 
  -1  -3   7   27.68    1.10 
   0   3  -7    9.80    0.48 
   0  -3   7    9.79    0.49 
  -1   3  -7    1.23    0.16 
  -1   3  -7    0.94    0.16 
   1  -3   7    0.98    0.14 
  -2   3  -7   20.54    0.95 
  -2   3  -7   19.53    0.87 
  -3   3  -7    3.19    0.31 
  -3   3  -7    2.56    0.28 
   3  -3   7    2.94    0.20 
  -4   3  -7    0.13    0.11 
  -4   3  -7    0.04    0.11 
  -5   3  -7    4.09    0.39 
  -5   3  -7    3.72    0.42 
  -6   3  -7    3.63    0.46 
  -6   3  -7    4.07    0.41 
  -7   3  -7    1.31    0.34 
  -7   3  -7    1.24    0.27 
  -8   3  -7    1.13    0.33 
  -8   3  -7    1.10    0.30 
  -7  -2   7    0.00    0.16 
  -7  -2   7   -0.10    0.09 
  -6  -2   7    0.00    0.11 
  -6  -2   7    0.01    0.11 
  -5  -2   7    9.93    0.56 
  -5  -2   7    8.58    0.56 
  -4  -2   7    3.53    0.32 
  -4  -2   7    4.20    0.33 
  -3  -2   7    1.23    0.17 
  -3  -2   7    1.44    0.21 
  -2  -2   7    0.65    0.13 
   1   2  -7    1.42    0.17 
  -1  -2   7    1.43    0.17 
   0   2  -7    0.91    0.14 
   0   2  -7    0.57    0.12 
   0  -2   7    0.82    0.13 
  -1   2  -7   15.44    0.74 
  -1   2  -7   15.15    0.66 
   1  -2   7   14.20    0.64 
  -2   2  -7    0.21    0.11 
  -2   2  -7    0.18    0.09 
   2  -2   7    0.22    0.06 
  -3   2  -7    0.26    0.13 
  -3   2  -7    0.16    0.10 
   3  -2   7    0.33    0.07 
  -4   2  -7    0.53    0.15 
  -4   2  -7    0.43    0.16 
  -5   2  -7    0.33    0.14 
  -5   2  -7    0.12    0.14 
  -6   2  -7   11.73    0.67 
  -6   2  -7   11.82    0.79 
  -7   2  -7    0.36    0.19 
  -7   2  -7    0.18    0.20 
  -8   2  -7    2.49    0.44 
  -8  -1   7    1.45    0.31 
  -7  -1   7    0.67    0.18 
  -7  -1   7    0.71    0.22 
  -6  -1   7   -0.07    0.11 
  -6  -1   7    0.18    0.15 
  -5  -1   7   21.39    1.05 
  -5  -1   7   20.80    0.96 
  -4  -1   7   20.04    0.99 
  -4  -1   7   20.36    0.90 
  -3  -1   7    2.68    0.24 
  -2  -1   7    6.20    0.35 
  -1  -1   7    0.18    0.07 
   0   1  -7   11.80    0.63 
   0   1  -7   12.72    0.54 
   0  -1   7   12.22    0.54 
  -1   1  -7    6.32    0.42 
  -1   1  -7    6.08    0.33 
   1  -1   7    6.66    0.33 
  -2   1  -7    0.64    0.13 
  -2   1  -7    0.50    0.14 
   2  -1   7    0.62    0.10 
  -3   1  -7   -0.16    0.08 
  -3   1  -7    0.01    0.08 
   3  -1   7    0.04    0.05 
  -4   1  -7    2.39    0.25 
  -4   1  -7    2.01    0.31 
   4  -1   7    2.15    0.16 
  -5   1  -7    6.93    0.56 
  -5   1  -7    7.86    0.46 
  -6   1  -7    6.53    0.56 
  -7   1  -7   -0.02    0.17 
  -8   1  -7    1.19    0.34 
  -8   0   7    1.13    0.26 
  -7   0   7    3.76    0.37 
  -7   0   7    3.97    0.45 
  -6   0   7    0.66    0.22 
  -6   0   7    0.11    0.13 
  -5   0   7    0.53    0.19 
  -5   0   7    0.37    0.14 
  -4   0   7   31.70    1.30 
  -3   0   7    4.26    0.28 
  -2   0   7    0.06    0.05 
  -1   0   7   15.65    0.68 
   0   0  -7    2.24    0.26 
   0   0   7    1.98    0.18 
  -1   0  -7   28.74    1.34 
   1   0   7   29.68    1.14 
  -2   0  -7   38.21    1.79 
  -2   0  -7   42.08    1.49 
   2   0   7   41.11    1.54 
  -3   0  -7    7.33    0.52 
  -3   0  -7    7.71    0.37 
   3   0   7    7.48    0.37 
  -4   0  -7    5.16    0.45 
  -4   0  -7    5.02    0.32 
   4   0   7    5.38    0.30 
  -5   0  -7    5.65    0.49 
  -6   0  -7    0.28    0.20 
  -7   0  -7   -0.02    0.17 
  -8   0  -7   -0.02    0.20 
  -8   1   7    0.09    0.19 
  -7   1   7    1.02    0.27 
  -7   1   7    1.56    0.25 
  -6   1   7    1.35    0.28 
  -6   1   7    0.65    0.17 
  -5   1   7    7.78    0.55 
  -5   1   7    7.58    0.45 
  -4   1   7    3.53    0.27 
  -3   1   7   13.18    0.61 
  -2   1   7   22.20    0.92 
  -1   1   7    0.01    0.05 
   0  -1  -7   25.75    1.26 
   0   1   7   28.51    1.10 
  -1  -1  -7   11.10    0.65 
   1   1   7   11.02    0.52 
  -2  -1  -7   30.62    1.10 
  -2  -1  -7   29.20    1.43 
   2   1   7   31.38    1.21 
  -3  -1  -7  136.60    5.66 
   3   1   7  142.37    5.03 
  -4  -1  -7   21.45    1.16 
   4   1   7   21.43    0.90 
  -5  -1  -7   42.16    2.01 
  -6  -1  -7    5.60    0.60 
  -7  -1  -7    0.28    0.24 
  -8  -1  -7    0.09    0.24 
  -8   2   7    2.66    0.43 
  -7   2   7    2.28    0.39 
  -6   2   7    3.72    0.32 
  -6   2   7    3.70    0.46 
  -5   2   7   30.61    1.47 
  -5   2   7   29.78    1.25 
  -4   2   7    0.88    0.16 
  -3   2   7    9.36    0.48 
  -2   2   7    2.40    0.22 
  -1   2   7    9.74    0.49 
   0  -2  -7   27.48    1.31 
   0   2   7   27.43    1.12 
  -1  -2  -7    0.19    0.12 
   1   2   7    0.22    0.09 
  -2  -2  -7   13.21    0.80 
   2   2   7   13.46    0.63 
  -3  -2  -7  128.36    5.31 
   3   2   7  130.95    4.72 
  -4  -2  -7    0.48    0.22 
   4   2   7    1.35    0.19 
  -5  -2  -7   13.27    0.86 
   5   2   7   12.61    0.64 
  -6  -2  -7   -0.18    0.14 
  -7  -2  -7    2.37    0.45 
  -8   3   7    0.29    0.20 
  -7   3   7    2.94    0.44 
  -6   3   7    0.60    0.22 
  -6   3   7    0.77    0.17 
  -5   3   7    5.84    0.37 
  -4   3   7   19.21    0.85 
  -3   3   7    8.87    0.47 
  -2   3   7   11.13    0.56 
  -1   3   7    3.29    0.27 
   0   3   7    2.25    0.23 
  -1  -3  -7   13.31    0.81 
   1   3   7   13.51    0.66 
  -2  -3  -7   10.54    0.71 
   2   3   7   10.83    0.57 
  -3  -3  -7    9.01    0.64 
   3   3   7    8.55    0.50 
  -4  -3  -7    8.22    0.63 
   4   3   7    8.46    0.50 
  -5  -3  -7    0.07    0.15 
   5   3   7   -0.01    0.12 
  -6  -3  -7    0.02    0.19 
  -7  -3  -7    0.69    0.29 
  -8   4   7    2.10    0.41 
  -7   4   7   -0.31    0.14 
  -6   4   7    0.72    0.18 
  -6   4   7    0.40    0.21 
  -5   4   7    1.53    0.22 
  -4   4   7    0.33    0.13 
  -3   4   7    3.49    0.31 
  -2   4   7    4.36    0.33 
  -1   4   7    6.12    0.39 
   0   4   7    0.37    0.13 
  -1  -4  -7    9.80    0.67 
   1   4   7    9.83    0.56 
  -2  -4  -7    2.12    0.36 
   2   4   7    2.18    0.27 
  -3  -4  -7    4.33    0.49 
  -3  -4  -7    3.28    0.38 
  -4  -4  -7    2.48    0.41 
  -4  -4  -7    2.47    0.34 
  -5  -4  -7    0.63    0.24 
  -5  -4  -7    0.70    0.22 
  -6  -4  -7    6.10    0.69 
  -7   5   7   -0.11    0.19 
  -6   5   7   -0.06    0.17 
  -5   5   7    2.89    0.29 
  -4   5   7    4.47    0.35 
  -3   5   7    7.35    0.46 
  -2   5   7    3.25    0.32 
  -1   5   7    0.71    0.18 
   0   5   7   27.14    1.22 
  -1  -5  -7    7.30    0.58 
   1   5   7    7.26    0.49 
  -2  -5  -7    1.71    0.31 
  -2  -5  -7    2.21    0.37 
  -3  -5  -7    1.91    0.34 
  -3  -5  -7    2.04    0.33 
  -4  -5  -7   -0.06    0.16 
  -4  -5  -7    0.02    0.15 
  -5  -5  -7    0.00    0.22 
  -5  -5  -7    0.18    0.18 
  -7   6   7   -0.04    0.19 
  -6   6   7    0.15    0.22 
  -5   6   7    2.22    0.28 
  -4   6   7    0.52    0.18 
  -3   6   7   18.05    0.89 
  -2   6   7   10.62    0.62 
  -1   6   7    2.46    0.32 
   0   6   7   24.30    1.15 
  -1  -6  -7    3.02    0.41 
  -2  -6  -7    1.03    0.27 
  -2  -6  -7    1.05    0.29 
  -3  -6  -7    1.42    0.31 
  -3  -6  -7    1.88    0.39 
  -4  -6  -7    2.44    0.46 
  -4  -6  -7    2.07    0.36 
  -5   7   7    0.29    0.16 
  -4   7   7    0.12    0.14 
  -3   7   7    3.27    0.37 
  -2   7   7    1.72    0.29 
  -1   7   7    0.42    0.19 
   0   7   7    1.50    0.29 
  -1  -7  -7    3.74    0.47 
  -2  -7  -7    0.04    0.18 
  -3  -7  -7    0.00    0.15 
  -3  -7  -7   -0.01    0.23 
  -4   8   7    0.51    0.19 
  -3   8   7    0.20    0.18 
  -2   8   7    2.77    0.37 
  -1   8   7    1.29    0.27 
   0   8   7    0.16    0.17 
  -1  -8  -7    0.51    0.23 
   2   9  -8    0.52    0.23 
  -2  -9   8    0.31    0.23 
   1   9  -8    0.13    0.17 
  -1  -9   8    0.30    0.21 
   0   9  -8    0.35    0.21 
   0  -9   8    0.10    0.21 
  -1   9  -8    0.00    0.19 
   1  -9   8    0.12    0.21 
  -2   9  -8    0.31    0.20 
  -3   9  -8    0.45    0.22 
  -4   9  -8    0.10    0.19 
  -4  -8   8    0.43    0.22 
  -3  -8   8    1.21    0.31 
   2   8  -8    2.52    0.33 
  -2  -8   8    1.67    0.32 
   1   8  -8    0.09    0.16 
  -1  -8   8    0.18    0.19 
   0   8  -8    0.05    0.17 
   0  -8   8    0.32    0.19 
  -1   8  -8    0.26    0.19 
   1  -8   8    0.24    0.17 
  -2   8  -8    0.00    0.16 
  -3   8  -8    1.24    0.28 
  -4   8  -8    3.54    0.48 
  -5   8  -8    0.22    0.19 
  -6   8  -8    0.50    0.26 
  -5  -7   8    6.97    0.63 
  -4  -7   8    0.72    0.24 
  -3  -7   8    0.22    0.18 
   2   7  -8    3.22    0.34 
  -2  -7   8    3.33    0.41 
   1   7  -8    2.46    0.31 
  -1  -7   8    2.79    0.37 
   0   7  -8    7.26    0.49 
   0  -7   8    6.82    0.51 
  -1   7  -8    0.83    0.23 
   1  -7   8    1.28    0.25 
  -2   7  -8    0.22    0.17 
   2  -7   8    0.27    0.16 
  -3   7  -8    0.09    0.16 
  -4   7  -8    0.05    0.16 
  -5   7  -8   -0.02    0.18 
  -6   7  -8    1.71    0.37 
  -6  -6   8    1.50    0.31 
  -5  -6   8    0.34    0.18 
  -4  -6   8    3.70    0.44 
  -3  -6   8    0.07    0.15 
   2   6  -8    7.01    0.44 
  -2  -6   8    6.05    0.47 
   1   6  -8    0.05    0.12 
  -1  -6   8    0.28    0.15 
   0   6  -8    1.30    0.24 
   0  -6   8    0.92    0.22 
  -1   6  -8    0.82    0.21 
   1  -6   8    0.87    0.20 
  -2   6  -8   15.33    0.80 
   2  -6   8   14.56    0.75 
  -3   6  -8    0.55    0.19 
  -4   6  -8    0.14    0.15 
  -5   6  -8    0.97    0.27 
  -6   6  -8    0.56    0.23 
  -7   6  -8    0.11    0.23 
  -7  -5   8    1.56    0.30 
  -6  -5   8    0.38    0.18 
  -5  -5   8    0.17    0.14 
  -4  -5   8    0.17    0.13 
  -3  -5   8    7.56    0.52 
   2   5  -8    0.10    0.12 
  -2  -5   8   -0.02    0.10 
   1   5  -8    2.36    0.27 
  -1  -5   8    1.93    0.25 
   0   5  -8   15.13    0.71 
   0  -5   8   13.04    0.68 
  -1   5  -8    0.68    0.19 
   1  -5   8    1.03    0.19 
  -2   5  -8    0.23    0.15 
   2  -5   8    0.01    0.09 
  -3   5  -8    0.03    0.12 
  -4   5  -8    2.34    0.33 
  -5   5  -8    0.16    0.15 
  -5   5  -8    0.50    0.20 
  -6   5  -8    0.33    0.20 
  -6   5  -8    0.24    0.22 
  -7   5  -8    1.99    0.39 
  -7   5  -8    1.65    0.34 
  -8   5  -8   -0.03    0.22 
  -7  -4   8    0.12    0.15 
  -6  -4   8    0.11    0.14 
  -5  -4   8   -0.09    0.10 
  -4  -4   8    3.00    0.34 
  -3  -4   8    0.99    0.21 
  -2  -4   8    2.41    0.27 
   1   4  -8    0.93    0.17 
  -1  -4   8    1.01    0.19 
   0   4  -8    0.39    0.13 
   0  -4   8    0.53    0.14 
  -1   4  -8   17.76    0.83 
   1  -4   8   18.18    0.81 
  -2   4  -8   28.00    1.20 
  -2   4  -8   29.35    1.29 
   2  -4   8   28.26    1.17 
  -3   4  -8    0.72    0.18 
  -3   4  -8    0.60    0.16 
  -4   4  -8    3.63    0.37 
  -4   4  -8    3.99    0.39 
  -5   4  -8    1.66    0.32 
  -5   4  -8    2.21    0.32 
  -6   4  -8    0.09    0.18 
  -6   4  -8    0.16    0.16 
  -7   4  -8    3.03    0.42 
  -7   4  -8    2.92    0.46 
  -8   4  -8    0.38    0.23 
  -8   4  -8    0.81    0.28 
  -8  -3   8   -0.03    0.15 
  -7  -3   8    1.02    0.25 
  -6  -3   8    2.49    0.32 
  -5  -3   8    0.48    0.18 
  -4  -3   8    9.45    0.56 
  -3  -3   8    9.19    0.54 
  -2  -3   8    1.51    0.21 
   1   3  -8    4.97    0.32 
  -1  -3   8    4.74    0.33 
   0   3  -8    6.14    0.38 
   0  -3   8    7.25    0.39 
  -1   3  -8   20.37    0.95 
  -1   3  -8   20.29    0.89 
   1  -3   8   20.91    0.87 
  -2   3  -8   11.46    0.63 
  -2   3  -8   10.71    0.57 
   2  -3   8   11.60    0.53 
  -3   3  -8    0.51    0.15 
  -3   3  -8    0.93    0.20 
   3  -3   8    0.48    0.10 
  -4   3  -8    1.83    0.28 
  -4   3  -8    1.38    0.23 
  -5   3  -8    8.49    0.54 
  -5   3  -8    7.81    0.59 
  -6   3  -8    1.59    0.34 
  -6   3  -8    2.40    0.34 
  -7   3  -8    0.36    0.24 
  -7   3  -8    0.67    0.24 
  -8   3  -8    1.79    0.40 
  -7  -2   8    0.13    0.14 
  -6  -2   8    1.01    0.22 
  -6  -2   8    0.75    0.19 
  -5  -2   8   22.10    1.06 
  -5  -2   8   23.15    1.11 
  -4  -2   8   28.60    1.34 
  -4  -2   8   30.59    1.29 
  -3  -2   8    1.68    0.23 
  -2  -2   8    0.24    0.10 
   1   2  -8   15.99    0.70 
  -1  -2   8   16.27    0.73 
   0   2  -8   16.29    0.69 
   0  -2   8   15.15    0.69 
  -1   2  -8    1.50    0.22 
  -1   2  -8    1.22    0.18 
   1  -2   8    1.26    0.15 
  -2   2  -8   17.15    0.87 
  -2   2  -8   16.42    0.75 
   2  -2   8   17.37    0.73 
  -3   2  -8   13.45    0.77 
  -3   2  -8   13.86    0.66 
   3  -2   8   14.83    0.62 
  -4   2  -8   12.23    0.61 
  -4   2  -8   11.50    0.72 
  -5   2  -8    0.00    0.14 
  -5   2  -8    0.32    0.20 
  -6   2  -8    0.15    0.19 
  -6   2  -8    0.33    0.18 
  -7   2  -8   -0.24    0.16 
  -8   2  -8    1.68    0.38 
  -8  -1   8    0.86    0.25 
  -7  -1   8    1.25    0.28 
  -7  -1   8    0.95    0.22 
  -6  -1   8   25.11    1.19 
  -6  -1   8   27.43    1.32 
  -5  -1   8   40.88    1.70 
  -5  -1   8   41.91    1.86 
  -4  -1   8    1.88    0.27 
  -4  -1   8    2.02    0.26 
  -3  -1   8    8.82    0.49 
  -2  -1   8   32.95    1.33 
  -1  -1   8    5.80    0.34 
   0   1  -8   21.44    0.85 
   0   1  -8   20.43    1.01 
   0  -1   8   21.76    0.88 
  -1   1  -8   25.54    0.99 
  -1   1  -8   23.60    1.17 
   1  -1   8   26.12    1.01 
  -2   1  -8    2.51    0.31 
  -2   1  -8    3.05    0.23 
   2  -1   8    2.97    0.21 
  -3   1  -8    5.44    0.44 
  -3   1  -8    5.65    0.34 
  -4   1  -8   52.31    2.02 
  -4   1  -8   56.32    2.42 
  -5   1  -8    0.44    0.20 
  -5   1  -8    0.80    0.19 
  -6   1  -8    1.78    0.37 
  -7   1  -8    0.20    0.21 
  -8   1  -8    0.10    0.19 
  -8   0   8    0.78    0.24 
  -7   0   8    3.98    0.46 
  -7   0   8    3.26    0.36 
  -6   0   8    1.58    0.30 
  -6   0   8    1.69    0.26 
  -5   0   8   13.33    0.80 
  -5   0   8   14.10    0.71 
  -4   0   8   32.05    1.33 
  -3   0   8    1.74    0.21 
  -2   0   8   14.38    0.66 
  -1   0   8    3.09    0.22 
   0   0  -8    0.09    0.10 
   0   0   8    0.06    0.06 
  -1   0  -8    0.11    0.11 
  -1   0  -8    0.04    0.07 
   1   0   8   -0.05    0.05 
  -2   0  -8   10.99    0.47 
  -2   0  -8   10.36    0.66 
   2   0   8   10.12    0.49 
  -3   0  -8    4.01    0.44 
  -3   0  -8    4.13    0.27 
   3   0   8    3.70    0.25 
  -4   0  -8   46.76    2.14 
   4   0   8   46.79    1.77 
  -5   0  -8    3.28    0.45 
  -6   0  -8   -0.01    0.16 
  -7   0  -8    0.81    0.29 
  -8   0  -8    4.61    0.63 
  -8   1   8    0.13    0.18 
  -7   1   8    1.99    0.35 
  -7   1   8    1.47    0.26 
  -6   1   8    1.75    0.25 
  -6   1   8    1.93    0.34 
  -5   1   8    2.20    0.26 
  -5   1   8    2.23    0.34 
  -4   1   8    1.03    0.19 
  -3   1   8   11.96    0.58 
  -2   1   8    2.52    0.23 
  -1   1   8    1.62    0.18 
   0  -1  -8    0.17    0.13 
   0   1   8    0.05    0.06 
  -1  -1  -8    4.32    0.43 
   1   1   8    4.56    0.29 
  -2  -1  -8   40.17    1.83 
  -2  -1  -8   38.20    1.41 
   2   1   8   39.92    1.54 
  -3  -1  -8    3.28    0.42 
   3   1   8    3.37    0.26 
  -4  -1  -8   10.40    0.73 
   4   1   8   10.01    0.51 
  -5  -1  -8   -0.16    0.15 
  -6  -1  -8    0.22    0.19 
  -7  -1  -8    0.20    0.22 
  -8   2   8    0.36    0.22 
  -7   2   8    0.03    0.16 
  -6   2   8    0.28    0.14 
  -6   2   8   -0.14    0.14 
  -5   2   8    2.65    0.27 
  -4   2   8    5.12    0.35 
  -3   2   8   14.20    0.68 
  -2   2   8    0.15    0.09 
  -1   2   8   -0.04    0.06 
   0   2   8    1.62    0.19 
  -1  -2  -8    4.64    0.47 
   1   2   8    4.34    0.30 
  -2  -2  -8   28.33    1.40 
   2   2   8   26.73    1.14 
  -3  -2  -8    0.66    0.24 
   3   2   8    0.68    0.15 
  -4  -2  -8    0.04    0.14 
   4   2   8    0.05    0.10 
  -5  -2  -8    1.00    0.28 
  -6  -2  -8    0.22    0.21 
  -7  -2  -8    9.52    0.80 
  -8   3   8    0.04    0.22 
  -7   3   8    0.95    0.29 
  -6   3   8    0.04    0.14 
  -6   3   8    0.12    0.13 
  -5   3   8    1.92    0.24 
  -4   3   8   10.09    0.55 
  -3   3   8   40.21    1.61 
  -2   3   8    8.28    0.47 
  -1   3   8    1.87    0.22 
   0   3   8    5.43    0.36 
  -1  -3  -8   52.94    2.38 
   1   3   8   52.23    2.05 
  -2  -3  -8   23.73    1.27 
   2   3   8   24.12    1.05 
  -3  -3  -8    2.55    0.40 
   3   3   8    2.08    0.26 
  -4  -3  -8   23.13    1.33 
   4   3   8   25.18    1.09 
  -5  -3  -8   15.38    1.03 
   5   3   8   16.42    0.80 
  -6  -3  -8    0.80    0.27 
  -7   4   8    1.38    0.37 
  -6   4   8    1.69    0.24 
  -6   4   8    1.72    0.35 
  -5   4   8    7.10    0.46 
  -4   4   8    0.18    0.12 
  -3   4   8    8.12    0.49 
  -2   4   8    0.94    0.19 
  -1   4   8    0.25    0.12 
   0   4   8    0.66    0.17 
  -1  -4  -8   15.26    0.93 
   1   4   8   15.89    0.79 
  -2  -4  -8    2.27    0.39 
   2   4   8    2.23    0.28 
  -3  -4  -8    2.20    0.40 
   3   4   8    2.41    0.29 
  -4  -4  -8   13.76    0.93 
   4   4   8   13.00    0.73 
  -5  -4  -8    0.84    0.30 
   5   4   8    0.47    0.20 
  -6  -4  -8    2.50    0.49 
  -7   5   8   -0.03    0.19 
  -6   5   8    2.05    0.39 
  -5   5   8   10.23    0.58 
  -4   5   8    3.59    0.34 
  -3   5   8    4.14    0.37 
  -2   5   8   11.81    0.66 
  -1   5   8   14.87    0.77 
   0   5   8    5.72    0.43 
   1   5   8    0.05    0.12 
  -2  -5  -8    0.94    0.26 
   2   5   8    0.93    0.22 
  -3  -5  -8    0.81    0.29 
   3   5   8    0.70    0.19 
  -4  -5  -8    0.64    0.27 
   4   5   8    0.65    0.21 
  -5  -5  -8    4.93    0.65 
   5   5   8    5.32    0.49 
  -6   6   8    0.27    0.19 
  -5   6   8    0.72    0.19 
  -4   6   8    0.12    0.14 
  -3   6   8    8.30    0.54 
  -2   6   8   11.12    0.66 
  -1   6   8    0.62    0.19 
   0   6   8    6.68    0.49 
   1   6   8    4.00    0.42 
  -2  -6  -8    0.99    0.30 
   2   6   8    0.68    0.20 
  -3  -6  -8    0.52    0.25 
   3   6   8    0.44    0.20 
  -4  -6  -8    0.40    0.30 
   4   6   8    0.34    0.21 
  -5   7   8    0.37    0.17 
  -4   7   8    0.01    0.14 
  -3   7   8    0.39    0.18 
  -2   7   8    0.31    0.18 
  -1   7   8    1.57    0.28 
   0   7   8    2.52    0.36 
   1   7   8    0.08    0.15 
   2   7   8    0.84    0.24 
  -2   8   8    0.07    0.15 
  -1   8   8    3.42    0.41 
   1   9  -9    1.23    0.30 
  -1  -9   9    1.62    0.37 
   0   9  -9    0.17    0.18 
   0  -9   9    0.12    0.19 
  -1   9  -9    0.37    0.22 
  -2   9  -9    1.25    0.30 
  -3   9  -9    0.92    0.27 
  -3  -8   9    0.52    0.23 
   2   8  -9   -0.02    0.15 
  -2  -8   9    0.04    0.19 
   1   8  -9    0.34    0.19 
  -1  -8   9    0.09    0.16 
   0   8  -9    0.06    0.17 
   0  -8   9    0.05    0.17 
  -1   8  -9    0.19    0.18 
   1  -8   9    0.28    0.19 
  -2   8  -9   -0.05    0.18 
  -3   8  -9    1.11    0.28 
  -4   8  -9    0.39    0.22 
  -5   8  -9    0.34    0.24 
  -5  -7   9    0.19    0.17 
  -4  -7   9    0.00    0.18 
  -3  -7   9    0.22    0.18 
   2   7  -9    1.12    0.24 
  -2  -7   9    0.57    0.20 
   1   7  -9    0.35    0.18 
  -1  -7   9    0.06    0.15 
   0   7  -9    0.31    0.18 
   0  -7   9    0.36    0.18 
  -1   7  -9    1.33    0.26 
   1  -7   9    1.24    0.26 
  -2   7  -9    0.73    0.23 
  -3   7  -9    0.06    0.16 
  -4   7  -9    0.59    0.22 
  -5   7  -9    2.02    0.35 
  -6   7  -9    0.62    0.27 
  -6  -6   9    0.19    0.17 
  -5  -6   9    0.67    0.20 
  -4  -6   9    0.63    0.23 
  -3  -6   9    2.29    0.36 
   2   6  -9    0.84    0.21 
  -2  -6   9    0.40    0.17 
   1   6  -9    0.07    0.14 
  -1  -6   9    0.11    0.13 
   0   6  -9    0.15    0.14 
   0  -6   9    0.03    0.12 
  -1   6  -9    0.18    0.17 
   1  -6   9    0.05    0.11 
  -2   6  -9    0.80    0.20 
   2  -6   9    0.62    0.18 
  -3   6  -9    1.60    0.28 
  -4   6  -9    0.02    0.12 
  -5   6  -9    1.19    0.29 
  -6   6  -9    0.08    0.21 
  -7   6  -9    0.39    0.27 
  -6  -5   9    0.59    0.20 
  -5  -5   9    3.42    0.42 
  -4  -5   9    0.50    0.18 
  -3  -5   9    3.41    0.36 
  -2  -5   9    6.06    0.44 
   1   5  -9   13.86    0.68 
  -1  -5   9   12.82    0.70 
   0   5  -9    3.35    0.34 
   0  -5   9    3.90    0.34 
  -1   5  -9    0.05    0.14 
   1  -5   9    0.23    0.12 
  -2   5  -9    8.31    0.51 
   2  -5   9    7.02    0.43 
  -3   5  -9    4.59    0.41 
  -4   5  -9    0.30    0.17 
  -5   5  -9    0.01    0.14 
  -6   5  -9    1.22    0.29 
  -7   5  -9    0.11    0.22 
  -7  -4   9    0.13    0.15 
  -6  -4   9    1.41    0.29 
  -5  -4   9    1.77    0.29 
  -4  -4   9    0.05    0.12 
  -3  -4   9    9.42    0.58 
  -2  -4   9    0.83    0.20 
   1   4  -9    5.09    0.36 
  -1  -4   9    5.10    0.37 
   0   4  -9    1.73    0.24 
   0  -4   9    2.01    0.24 
  -1   4  -9   84.20    3.09 
   1  -4   9   84.24    3.16 
  -2   4  -9   15.73    0.78 
   2  -4   9   16.77    0.75 
  -3   4  -9    1.79    0.27 
  -3   4  -9    1.92    0.26 
  -4   4  -9   14.85    0.85 
  -4   4  -9   15.15    0.78 
  -5   4  -9    0.07    0.14 
  -5   4  -9    0.00    0.17 
  -6   4  -9    0.19    0.19 
  -6   4  -9    0.08    0.17 
  -7   4  -9   -0.28    0.18 
  -7   4  -9    0.04    0.21 
  -7  -3   9    1.80    0.29 
  -6  -3   9    0.97    0.23 
  -5  -3   9    3.09    0.36 
  -4  -3   9    1.35    0.25 
  -3  -3   9    2.30    0.29 
  -2  -3   9    1.78    0.25 
   1   3  -9   31.81    1.28 
  -1  -3   9   32.71    1.34 
   0   3  -9   10.00    0.51 
   0  -3   9   10.06    0.53 
  -1   3  -9   12.67    0.62 
  -1   3  -9   12.31    0.67 
   1  -3   9   12.54    0.61 
  -2   3  -9    3.42    0.34 
  -2   3  -9    2.63    0.28 
   2  -3   9    2.37    0.22 
  -3   3  -9    0.54    0.16 
  -3   3  -9    0.73    0.21 
   3  -3   9    0.38    0.11 
  -4   3  -9    1.31    0.28 
  -4   3  -9    1.00    0.21 
  -5   3  -9   11.44    0.64 
  -5   3  -9   10.83    0.73 
  -6   3  -9    0.14    0.16 
  -6   3  -9    0.40    0.23 
  -7   3  -9    0.05    0.21 
  -8   3  -9    1.38    0.36 
  -8  -2   9    0.22    0.17 
  -7  -2   9    0.89    0.23 
  -6  -2   9    2.31    0.32 
  -5  -2   9   20.32    1.03 
  -5  -2   9   20.22    1.00 
  -4  -2   9    2.19    0.29 
  -4  -2   9    1.85    0.27 
  -3  -2   9    1.16    0.22 
  -2  -2   9    0.98    0.18 
  -1  -2   9    6.73    0.41 
   0   2  -9    2.13    0.22 
   0  -2   9    1.87    0.21 
  -1   2  -9    0.63    0.15 
  -1   2  -9    0.55    0.16 
   1  -2   9    0.51    0.12 
  -2   2  -9    0.82    0.18 
  -2   2  -9    1.33    0.26 
   2  -2   9    0.78    0.14 
  -3   2  -9    1.39    0.21 
  -3   2  -9    1.47    0.27 
   3  -2   9    1.09    0.15 
  -4   2  -9    0.24    0.18 
  -4   2  -9    0.19    0.13 
  -5   2  -9    9.53    0.69 
  -5   2  -9    9.82    0.56 
  -6   2  -9    0.33    0.20 
  -7   2  -9    0.22    0.22 
  -8   2  -9    0.52    0.26 
  -7  -1   9    0.07    0.17 
  -7  -1   9    0.05    0.15 
  -6  -1   9    0.88    0.23 
  -6  -1   9    0.68    0.19 
  -5  -1   9    0.91    0.22 
  -5  -1   9    0.88    0.24 
  -4  -1   9   -0.03    0.11 
  -4  -1   9    0.08    0.11 
  -3  -1   9    0.31    0.15 
  -2  -1   9   25.13    1.08 
  -1  -1   9   -0.03    0.06 
   0   1  -9    0.41    0.11 
   0  -1   9    0.28    0.10 
  -1   1  -9    0.76    0.14 
  -1   1  -9    0.36    0.16 
   1  -1   9    0.76    0.13 
  -2   1  -9    7.32    0.40 
  -2   1  -9    7.24    0.53 
   2  -1   9    7.73    0.40 
  -3   1  -9   33.64    1.33 
  -3   1  -9   33.91    1.62 
   3  -1   9   34.39    1.33 
  -4   1  -9    1.67    0.22 
  -4   1  -9    2.60    0.38 
  -5   1  -9    0.42    0.22 
  -6   1  -9   -0.18    0.17 
  -7   1  -9    2.50    0.47 
  -8   0   9    2.47    0.41 
  -7   0   9    0.33    0.19 
  -7   0   9    0.09    0.15 
  -6   0   9    5.42    0.52 
  -6   0   9    4.90    0.43 
  -5   0   9   10.10    0.66 
  -5   0   9   10.06    0.58 
  -4   0   9    1.04    0.21 
  -3   0   9   14.66    0.72 
  -2   0   9   98.36    3.63 
  -1   0   9    7.08    0.39 
   0   0  -9    2.32    0.31 
   0   0   9    1.87    0.20 
  -1   0  -9    2.82    0.21 
  -1   0  -9    3.30    0.38 
   1   0   9    3.01    0.23 
  -2   0  -9    1.14    0.15 
  -2   0  -9    1.14    0.26 
   2   0   9    1.16    0.16 
  -3   0  -9    6.78    0.55 
   3   0   9    6.25    0.36 
  -4   0  -9    7.52    0.60 
  -5   0  -9   -0.09    0.17 
  -6   0  -9   -0.06    0.18 
  -7   0  -9   -0.12    0.17 
  -8   1   9    0.88    0.29 
  -7   1   9    4.59    0.43 
  -7   1   9    4.53    0.54 
  -6   1   9    5.22    0.41 
  -6   1   9    5.45    0.56 
  -5   1   9   12.14    0.65 
  -4   1   9   12.69    0.65 
  -3   1   9   79.77    2.99 
  -2   1   9   16.02    0.75 
  -1   1   9    7.39    0.42 
   0   1   9    0.14    0.08 
  -1  -1  -9   36.66    1.74 
   1   1   9   36.94    1.46 
  -2  -1  -9    0.07    0.14 
   2   1   9    0.06    0.08 
  -3  -1  -9    5.29    0.55 
   3   1   9    5.62    0.35 
  -4  -1  -9    4.15    0.51 
   4   1   9    3.72    0.28 
  -5  -1  -9    0.77    0.28 
  -6  -1  -9    0.98    0.31 
  -7  -1  -9    0.06    0.21 
  -8   2   9    2.31    0.42 
  -7   2   9   -0.09    0.15 
  -7   2   9   -0.01    0.19 
  -6   2   9    1.29    0.30 
  -6   2   9    1.17    0.23 
  -5   2   9    0.28    0.14 
  -4   2   9   10.67    0.57 
  -3   2   9    2.82    0.29 
  -2   2   9   26.13    1.11 
  -1   2   9    0.66    0.15 
   0   2   9    2.52    0.25 
  -1  -2  -9    8.18    0.61 
   1   2   9    8.00    0.46 
  -2  -2  -9   16.66    1.00 
   2   2   9   18.02    0.81 
  -3  -2  -9    0.28    0.21 
   3   2   9    0.79    0.16 
  -4  -2  -9    5.91    0.64 
   4   2   9    6.75    0.42 
  -5  -2  -9    0.16    0.19 
  -6  -2  -9    4.63    0.63 
  -7  -2  -9    1.62    0.38 
  -7   3   9   -0.28    0.18 
  -6   3   9    0.83    0.20 
  -6   3   9    1.88    0.33 
  -5   3   9    1.15    0.21 
  -4   3   9    0.14    0.12 
  -3   3   9    0.79    0.17 
  -2   3   9    0.03    0.10 
  -1   3   9   -0.04    0.09 
   0   3   9    5.41    0.37 
  -1  -3  -9    9.55    0.69 
   1   3   9    9.81    0.55 
  -2  -3  -9    4.17    0.50 
   2   3   9    4.05    0.32 
  -3  -3  -9    2.62    0.43 
   3   3   9    3.12    0.30 
  -4  -3  -9    2.76    0.45 
   4   3   9    3.19    0.31 
  -5  -3  -9    5.76    0.67 
  -6  -3  -9    4.31    0.61 
  -7   4   9    0.48    0.25 
  -6   4   9    0.78    0.21 
  -6   4   9    1.17    0.27 
  -5   4   9    6.78    0.47 
  -4   4   9    0.07    0.12 
  -3   4   9    0.09    0.12 
  -2   4   9   -0.05    0.10 
  -1   4   9   -0.05    0.10 
   0   4   9    4.68    0.37 
  -1  -4  -9    7.51    0.63 
   1   4   9    8.15    0.50 
  -2  -4  -9    0.12    0.17 
   2   4   9    0.37    0.15 
  -3  -4  -9   -0.07    0.19 
   3   4   9    0.12    0.13 
  -4  -4  -9    1.10    0.33 
   4   4   9    1.09    0.24 
  -5  -4  -9    4.47    0.62 
  -6   5   9    2.89    0.34 
  -6   5   9    3.58    0.51 
  -5   5   9    0.26    0.15 
  -4   5   9    0.14    0.14 
  -3   5   9    0.80    0.20 
  -2   5   9    0.18    0.14 
  -1   5   9    0.06    0.13 
   0   5   9    2.61    0.32 
   1   5   9    5.99    0.45 
  -2  -5  -9    0.15    0.20 
   2   5   9    0.43    0.16 
  -3  -5  -9    5.82    0.67 
   3   5   9    6.04    0.47 
  -4  -5  -9    4.14    0.60 
   4   5   9    3.71    0.41 
  -5   6   9    0.17    0.15 
  -4   6   9    0.29    0.17 
  -3   6   9    0.56    0.19 
  -2   6   9    2.29    0.33 
  -1   6   9    1.98    0.31 
   0   6   9    7.57    0.53 
   1   6   9    0.27    0.17 
   2   6   9    1.50    0.27 
  -3  -6  -9    1.83    0.41 
   3   6   9    1.87    0.32 
  -4   7   9    1.55    0.26 
  -3   7   9    4.34    0.44 
  -2   7   9    8.64    0.59 
  -1   7   9    2.94    0.38 
   0   7   9    0.07    0.14 
   1   7   9    0.27    0.18 
   0   9 -10    0.16    0.19 
   0  -9  10    0.13    0.22 
  -1   9 -10    1.32    0.31 
  -2   9 -10    0.92    0.30 
  -3  -8  10    0.39    0.22 
  -2  -8  10    1.45    0.34 
   1   8 -10    0.37    0.19 
  -1  -8  10    0.39    0.22 
   0   8 -10    0.49    0.20 
   0  -8  10    0.42    0.21 
  -1   8 -10    0.75    0.25 
   1  -8  10    0.50    0.22 
  -2   8 -10    0.75    0.28 
  -3   8 -10    0.13    0.19 
  -4   8 -10    0.13    0.22 
  -4  -7  10    0.15    0.19 
  -3  -7  10   -0.11    0.16 
  -2  -7  10    0.90    0.24 
   1   7 -10    0.03    0.17 
  -1  -7  10   -0.12    0.14 
   0   7 -10    0.45    0.19 
   0  -7  10    0.32    0.18 
  -1   7 -10    0.25    0.18 
   1  -7  10    0.19    0.15 
  -2   7 -10    1.23    0.28 
  -3   7 -10    0.27    0.19 
  -4   7 -10    1.08    0.28 
  -5   7 -10    0.52    0.24 
  -5  -6  10    0.46    0.17 
  -4  -6  10    1.04    0.27 
  -3  -6  10    0.34    0.19 
  -2  -6  10    0.72    0.22 
   1   6 -10    1.23    0.24 
  -1  -6  10    1.25    0.25 
   0   6 -10    0.60    0.19 
   0  -6  10    0.44    0.16 
  -1   6 -10    0.88    0.21 
   1  -6  10    1.32    0.23 
  -2   6 -10    8.74    0.57 
  -3   6 -10    1.15    0.26 
  -4   6 -10    0.78    0.23 
  -5   6 -10    4.06    0.48 
  -6   6 -10    0.17    0.20 
  -6  -5  10    0.16    0.15 
  -5  -5  10    0.63    0.20 
  -4  -5  10    1.50    0.27 
  -3  -5  10    0.30    0.15 
  -2  -5  10    1.59    0.26 
   1   5 -10    0.05    0.13 
  -1  -5  10   -0.06    0.10 
   0   5 -10   13.14    0.68 
   0  -5  10   13.06    0.71 
  -1   5 -10    3.42    0.35 
   1  -5  10    3.11    0.31 
  -2   5 -10    4.73    0.38 
   2  -5  10    4.83    0.35 
  -3   5 -10    0.28    0.15 
  -4   5 -10    0.14    0.16 
  -5   5 -10    0.17    0.19 
  -6   5 -10    0.88    0.28 
  -7   5 -10    0.89    0.31 
  -6  -4  10    0.63    0.18 
  -5  -4  10    2.32    0.34 
  -4  -4  10    3.84    0.41 
  -3  -4  10    0.05    0.12 
  -2  -4  10    1.74    0.26 
   1   4 -10    0.82    0.18 
  -1  -4  10    0.68    0.18 
   0   4 -10    6.98    0.44 
   0  -4  10    7.21    0.46 
  -1   4 -10    0.02    0.13 
   1  -4  10    0.03    0.11 
  -2   4 -10    5.07    0.39 
   2  -4  10    5.42    0.36 
  -3   4 -10    7.96    0.51 
  -4   4 -10    0.27    0.19 
  -4   4 -10    0.14    0.14 
  -5   4 -10   -0.07    0.16 
  -5   4 -10    0.13    0.18 
  -6   4 -10    0.27    0.19 
  -6   4 -10    0.22    0.22 
  -7   4 -10    0.08    0.23 
  -7   4 -10    0.25    0.24 
  -7  -3  10    0.31    0.15 
  -6  -3  10    0.57    0.21 
  -5  -3  10    0.30    0.16 
  -4  -3  10    0.17    0.14 
  -3  -3  10    1.94    0.29 
  -2  -3  10    2.73    0.31 
   1   3 -10   37.10    1.45 
  -1  -3  10   35.94    1.51 
   0   3 -10    6.73    0.43 
   0  -3  10    8.11    0.46 
  -1   3 -10   32.86    1.47 
  -1   3 -10   30.92    1.30 
   1  -3  10   32.76    1.33 
  -2   3 -10   17.19    0.90 
  -2   3 -10   17.84    0.80 
   2  -3  10   15.42    0.76 
  -3   3 -10    0.42    0.16 
  -3   3 -10    0.58    0.19 
  -4   3 -10    5.16    0.46 
  -4   3 -10    5.38    0.40 
  -5   3 -10    0.78    0.25 
  -5   3 -10    0.70    0.21 
  -6   3 -10    0.60    0.22 
  -6   3 -10    0.29    0.23 
  -7   3 -10    0.30    0.23 
  -7  -2  10   -0.03    0.15 
  -6  -2  10    0.75    0.22 
  -5  -2  10    1.96    0.31 
  -4  -2  10    1.15    0.25 
  -3  -2  10    0.60    0.18 
  -2  -2  10   39.58    1.63 
  -1  -2  10   47.23    1.87 
   0   2 -10   16.81    0.75 
   0  -2  10   16.88    0.78 
  -1   2 -10   34.80    1.41 
  -1   2 -10   36.02    1.66 
   1  -2  10   38.49    1.47 
  -2   2 -10    0.75    0.16 
  -2   2 -10    0.73    0.22 
   2  -2  10    0.63    0.14 
  -3   2 -10   10.29    0.69 
  -3   2 -10   10.38    0.55 
  -4   2 -10   16.97    0.79 
  -4   2 -10   15.90    0.98 
  -5   2 -10    1.54    0.33 
  -6   2 -10    0.94    0.30 
  -7   2 -10    0.75    0.28 
  -7  -1  10    0.80    0.23 
  -6  -1  10    0.72    0.22 
  -6  -1  10    0.97    0.25 
  -5  -1  10    6.82    0.49 
  -5  -1  10    8.23    0.57 
  -4  -1  10    0.08    0.14 
  -3  -1  10   25.00    1.12 
  -2  -1  10   46.26    1.85 
  -1  -1  10   20.28    0.90 
   0  -1  10    0.27    0.10 
  -1   1 -10    0.44    0.17 
  -1   1 -10    0.30    0.12 
   1  -1  10    0.27    0.10 
  -2   1 -10    1.76    0.31 
  -2   1 -10    1.77    0.22 
   2  -1  10    1.95    0.20 
  -3   1 -10    0.06    0.12 
  -3   1 -10    0.17    0.19 
   3  -1  10    0.07    0.08 
  -4   1 -10    2.90    0.43 
  -5   1 -10    1.99    0.37 
  -6   1 -10    2.41    0.42 
  -7   1 -10    0.23    0.22 
  -7   0  10    0.73    0.26 
  -7   0  10    0.87    0.25 
  -6   0  10    9.58    0.68 
  -6   0  10    8.53    0.58 
  -5   0  10   12.65    0.69 
  -5   0  10   11.51    0.74 
  -4   0  10   15.27    0.77 
  -3   0  10   34.94    1.46 
  -2   0  10   15.91    0.75 
  -1   0  10    1.50    0.20 
   0   0  10    1.29    0.18 
  -1   0 -10    0.96    0.25 
   1   0  10    0.82    0.16 
  -2   0 -10    4.44    0.47 
  -2   0 -10    4.11    0.28 
   2   0  10    4.18    0.29 
  -3   0 -10   -0.20    0.15 
   3   0  10    0.26    0.10 
  -4   0 -10    0.26    0.19 
  -5   0 -10    1.40    0.34 
  -6   0 -10    3.39    0.53 
  -7   0 -10    0.52    0.27 
  -7   1  10    0.19    0.21 
  -7   1  10    0.36    0.19 
  -6   1  10   -0.22    0.13 
  -6   1  10   -0.15    0.16 
  -5   1  10    1.83    0.28 
  -4   1  10   14.82    0.75 
  -3   1  10    0.00    0.09 
  -2   1  10    1.07    0.19 
  -1   1  10    0.44    0.12 
   0   1  10    0.36    0.11 
  -1  -1 -10   -0.17    0.14 
   1   1  10    0.04    0.08 
  -2  -1 -10    1.56    0.32 
   2   1  10    1.40    0.19 
  -3  -1 -10    9.34    0.72 
   3   1  10   10.40    0.53 
  -4  -1 -10    0.31    0.20 
   4   1  10    0.18    0.12 
  -5  -1 -10    0.23    0.22 
  -6  -1 -10    1.87    0.40 
  -7   2  10   -0.07    0.15 
  -7   2  10    0.08    0.21 
  -6   2  10    0.92    0.24 
  -6   2  10    1.37    0.32 
  -5   2  10    8.03    0.52 
  -4   2  10    5.99    0.41 
  -3   2  10    1.08    0.21 
  -2   2  10    6.46    0.41 
  -1   2  10    1.12    0.19 
   0   2  10    0.05    0.08 
  -1  -2 -10    1.72    0.34 
   1   2  10    1.28    0.20 
  -2  -2 -10    0.68    0.25 
   2   2  10    1.09    0.19 
  -3  -2 -10    1.36    0.33 
   3   2  10    2.33    0.26 
  -4  -2 -10    0.12    0.20 
   4   2  10    0.03    0.10 
  -5  -2 -10    0.97    0.32 
  -6  -2 -10    0.49    0.28 
  -7   3  10    2.55    0.46 
  -6   3  10    0.14    0.16 
  -6   3  10    0.36    0.21 
  -5   3  10    6.49    0.45 
  -4   3  10    4.80    0.38 
  -3   3  10    0.75    0.17 
  -2   3  10    0.18    0.12 
  -1   3  10    0.91    0.19 
   0   3  10    7.38    0.46 
  -1  -3 -10    3.76    0.50 
   1   3  10    3.24    0.32 
  -2  -3 -10    1.12    0.32 
   2   3  10    1.57    0.24 
  -3  -3 -10    4.03    0.53 
   3   3  10    4.32    0.35 
  -4  -3 -10    1.15    0.31 
   4   3  10    1.54    0.25 
  -5  -3 -10    0.58    0.29 
  -6   4  10    0.15    0.16 
  -6   4  10    0.82    0.28 
  -5   4  10    2.29    0.31 
  -4   4  10    0.37    0.16 
  -3   4  10    1.56    0.24 
  -2   4  10    0.12    0.12 
  -1   4  10    3.43    0.35 
   0   4  10    0.99    0.21 
   1   4  10   17.28    0.87 
  -2  -4 -10   -0.10    0.22 
   2   4  10   -0.01    0.13 
  -3  -4 -10   10.23    0.83 
   3   4  10   10.73    0.63 
  -4  -4 -10    2.75    0.50 
   4   4  10    2.62    0.33 
  -5  -4 -10    5.20    0.68 
  -6   5  10    0.09    0.15 
  -5   5  10    0.31    0.17 
  -4   5  10    0.17    0.15 
  -3   5  10    0.53    0.19 
  -2   5  10    0.97    0.22 
  -1   5  10    0.21    0.14 
   0   5  10    2.84    0.35 
   1   5  10    0.24    0.16 
  -2  -5 -10    2.50    0.48 
   2   5  10    1.64    0.28 
  -3  -5 -10    4.95    0.65 
   3   5  10    4.55    0.44 
   4   5  10    8.34    0.58 
  -4   6  10    0.71    0.20 
  -3   6  10    2.04    0.31 
  -2   6  10    0.50    0.19 
  -1   6  10    3.60    0.40 
   0   6  10    0.74    0.21 
   1   6  10    0.11    0.15 
   2   6  10    0.55    0.19 
  -2  -8  11    0.26    0.24 
   1   8 -11    1.33    0.29 
  -1  -8  11    0.99    0.29 
   0   8 -11    0.49    0.23 
   0  -8  11    0.29    0.21 
  -1   8 -11    0.42    0.21 
  -2   8 -11    0.12    0.18 
  -3   8 -11    1.15    0.29 
  -3  -7  11    1.09    0.29 
  -2  -7  11    0.07    0.16 
   1   7 -11    1.01    0.25 
  -1  -7  11    1.01    0.25 
   0   7 -11   -0.07    0.15 
   0  -7  11   -0.11    0.15 
  -1   7 -11    6.26    0.54 
   1  -7  11    5.02    0.47 
  -2   7 -11    1.81    0.34 
  -3   7 -11    0.45    0.24 
  -4   7 -11    0.29    0.22 
  -5   7 -11    0.68    0.27 
  -5  -6  11    0.24    0.16 
  -4  -6  11    0.17    0.17 
  -3  -6  11    1.01    0.25 
  -2  -6  11   -0.08    0.13 
   1   6 -11   -0.28    0.13 
  -1  -6  11   -0.08    0.11 
   0   6 -11    4.35    0.42 
   0  -6  11    4.04    0.39 
  -1   6 -11    1.22    0.27 
   1  -6  11    1.16    0.23 
  -2   6 -11    0.72    0.22 
  -3   6 -11    0.70    0.23 
  -4   6 -11    3.07    0.41 
  -5   6 -11    0.71    0.26 
  -6   6 -11    0.12    0.22 
  -5  -5  11    4.17    0.47 
  -4  -5  11    0.53    0.19 
  -3  -5  11   -0.01    0.13 
  -2  -5  11    0.25    0.17 
   1   5 -11    1.71    0.27 
  -1  -5  11    2.08    0.30 
   0   5 -11    7.66    0.48 
   0  -5  11    7.05    0.49 
  -1   5 -11   -0.10    0.12 
   1  -5  11    0.19    0.14 
  -2   5 -11    0.52    0.19 
   2  -5  11    0.23    0.14 
  -3   5 -11    0.20    0.15 
  -4   5 -11    0.14    0.17 
  -5   5 -11    2.55    0.37 
  -6   5 -11    0.21    0.21 
  -6  -4  11    0.48    0.18 
  -5  -4  11    0.18    0.15 
  -4  -4  11    0.65    0.21 
  -3  -4  11    5.02    0.46 
  -2  -4  11    2.84    0.34 
   1   4 -11    5.02    0.37 
  -1  -4  11    5.09    0.40 
   0   4 -11    5.16    0.36 
   0  -4  11    4.15    0.38 
  -1   4 -11    2.39    0.29 
   1  -4  11    2.11    0.26 
  -2   4 -11    0.17    0.15 
   2  -4  11   -0.03    0.10 
  -3   4 -11    0.49    0.16 
  -4   4 -11    3.41    0.39 
  -5   4 -11    3.46    0.39 
  -6   4 -11    0.54    0.23 
  -6  -3  11    0.34    0.16 
  -5  -3  11    0.04    0.14 
  -4  -3  11    0.78    0.23 
  -3  -3  11    3.17    0.36 
  -2  -3  11   14.73    0.77 
  -1  -3  11   25.49    1.14 
   0   3 -11    6.34    0.42 
   0  -3  11    6.97    0.45 
  -1   3 -11    4.05    0.32 
   1  -3  11    3.81    0.33 
  -2   3 -11    1.96    0.27 
  -2   3 -11    2.34    0.33 
   2  -3  11    1.76    0.23 
  -3   3 -11    1.48    0.32 
  -3   3 -11    1.71    0.27 
  -4   3 -11    1.22    0.31 
  -4   3 -11    1.62    0.26 
  -5   3 -11    0.31    0.22 
  -5   3 -11    0.46    0.20 
  -6   3 -11    0.13    0.22 
  -7   3 -11    0.59    0.28 
  -7  -2  11    0.17    0.16 
  -6  -2  11    0.06    0.15 
  -5  -2  11    0.19    0.16 
  -4  -2  11    0.08    0.14 
  -3  -2  11   14.27    0.77 
  -2  -2  11   18.21    0.89 
  -1  -2  11   12.02    0.64 
   0   2 -11    0.68    0.16 
   0  -2  11    0.75    0.18 
  -1   2 -11    3.50    0.41 
  -1   2 -11    4.22    0.31 
   1  -2  11    4.34    0.32 
  -2   2 -11    6.66    0.42 
  -2   2 -11    6.30    0.52 
   2  -2  11    7.13    0.42 
  -3   2 -11   14.04    0.68 
  -3   2 -11   13.21    0.86 
  -4   2 -11    2.17    0.29 
  -4   2 -11    2.40    0.40 
  -5   2 -11    1.59    0.35 
  -6   2 -11    1.11    0.31 
  -7   2 -11    3.14    0.51 
  -7  -1  11    0.18    0.18 
  -6  -1  11    0.68    0.23 
  -5  -1  11    1.06    0.28 
  -5  -1  11    1.36    0.27 
  -4  -1  11    0.08    0.14 
  -3  -1  11   31.73    1.38 
  -2  -1  11    0.21    0.13 
  -1  -1  11    0.52    0.14 
   0  -1  11    8.42    0.48 
  -1   1 -11   19.90    1.08 
  -1   1 -11   19.41    0.84 
   1  -1  11   19.88    0.88 
  -2   1 -11    1.64    0.21 
  -2   1 -11    1.12    0.29 
   2  -1  11    1.37    0.19 
  -3   1 -11    0.12    0.19 
   3  -1  11    0.37    0.12 
  -4   1 -11    0.45    0.25 
  -5   1 -11    0.02    0.18 
  -6   1 -11    0.23    0.23 
  -7   0  11   -0.01    0.17 
  -7   0  11    0.87    0.28 
  -6   0  11    4.23    0.51 
  -6   0  11    3.92    0.43 
  -5   0  11    3.38    0.42 
  -5   0  11    3.04    0.37 
  -4   0  11    0.82    0.22 
  -3   0  11    1.40    0.24 
  -2   0  11    1.60    0.23 
  -1   0  11    2.91    0.28 
   0   0  11    8.24    0.47 
  -1   0 -11    0.14    0.17 
   1   0  11    0.05    0.10 
  -2   0 -11    3.49    0.47 
   2   0  11    3.49    0.28 
  -3   0 -11    6.55    0.63 
   3   0  11    5.99    0.38 
  -4   0 -11    0.66    0.28 
  -5   0 -11    0.12    0.23 
  -6   0 -11    0.44    0.24 
  -7   1  11    0.35    0.24 
  -7   1  11    0.44    0.21 
  -6   1  11    2.72    0.37 
  -6   1  11    3.35    0.46 
  -5   1  11   12.60    0.72 
  -4   1  11   13.26    0.72 
  -3   1  11    2.21    0.27 
  -2   1  11    6.06    0.41 
  -1   1  11    3.37    0.32 
   0   1  11    9.60    0.53 
  -1  -1 -11    1.72    0.34 
   1   1  11    1.65    0.21 
  -2  -1 -11    0.12    0.19 
   2   1  11    0.11    0.10 
  -3  -1 -11    3.57    0.50 
   3   1  11    3.33    0.29 
  -4  -1 -11    4.90    0.61 
  -5  -1 -11    0.08    0.22 
  -6  -1 -11   -0.01    0.21 
  -7   2  11    3.96    0.43 
  -7   2  11    2.87    0.50 
  -6   2  11   13.10    0.87 
  -6   2  11   12.87    0.75 
  -5   2  11    3.69    0.38 
  -4   2  11    7.95    0.51 
  -3   2  11    8.53    0.52 
  -2   2  11    1.96    0.27 
  -1   2  11    0.04    0.11 
   0   2  11    6.68    0.43 
  -1  -2 -11    3.28    0.47 
   1   2  11    3.19    0.30 
  -2  -2 -11    1.08    0.31 
   2   2  11    1.19    0.20 
  -3  -2 -11    1.23    0.34 
   3   2  11    1.24    0.21 
  -4  -2 -11    0.36    0.23 
   4   2  11    0.43    0.16 
  -5  -2 -11    2.06    0.45 
  -6   3  11    2.49    0.42 
  -6   3  11    2.22    0.33 
  -5   3  11    0.83    0.21 
  -4   3  11    0.17    0.14 
  -3   3  11    1.62    0.26 
  -2   3  11    2.65    0.30 
  -1   3  11    0.22    0.11 
   0   3  11    1.04    0.20 
   1   3  11    0.31    0.15 
  -2  -3 -11    0.25    0.21 
   2   3  11   -0.02    0.11 
  -3  -3 -11   12.18    0.90 
   3   3  11   11.59    0.66 
  -4  -3 -11    0.16    0.25 
   4   3  11    0.20    0.14 
  -5  -3 -11    2.70    0.49 
  -6   4  11   -0.02    0.16 
  -5   4  11    0.05    0.14 
  -4   4  11    2.07    0.31 
  -3   4  11    0.14    0.14 
  -2   4  11    1.08    0.22 
  -1   4  11    0.19    0.14 
   0   4  11    1.45    0.26 
   1   4  11    0.22    0.14 
  -2  -4 -11    2.05    0.41 
   2   4  11    2.91    0.34 
  -3  -4 -11    2.75    0.50 
   3   4  11    2.64    0.33 
  -4  -4 -11    0.32    0.26 
   4   4  11    0.11    0.17 
  -5   5  11   -0.02    0.15 
  -4   5  11    0.00    0.13 
  -3   5  11    0.11    0.14 
  -2   5  11    1.00    0.23 
  -1   5  11    0.00    0.15 
   0   5  11    0.47    0.16 
   1   5  11    0.08    0.14 
   2   5  11    2.77    0.37 
   3   5  11    0.72    0.22 
  -3   6  11    0.30    0.16 
  -2   6  11    0.21    0.15 
  -1   6  11    0.73    0.21 
   0   6  11    1.25    0.25 
   0   8 -12    1.36    0.29 
   0  -8  12    0.59    0.24 
  -1   8 -12    0.04    0.17 
  -2   8 -12    0.42    0.23 
  -3  -7  12    0.48    0.23 
  -2  -7  12    0.21    0.20 
   1   7 -12    0.23    0.21 
  -1  -7  12    0.49    0.22 
   0   7 -12    0.00    0.16 
   0  -7  12    0.24    0.18 
  -1   7 -12    2.45    0.37 
   1  -7  12    1.65    0.31 
  -2   7 -12    0.16    0.21 
  -3   7 -12    0.04    0.21 
  -4   7 -12    0.49    0.24 
  -4  -6  12    1.10    0.28 
  -3  -6  12    0.01    0.16 
  -2  -6  12    1.29    0.27 
   1   6 -12    0.05    0.17 
  -1  -6  12    0.09    0.14 
   0   6 -12    0.82    0.22 
   0  -6  12    0.85    0.21 
  -1   6 -12    0.83    0.24 
   1  -6  12    0.50    0.18 
  -2   6 -12    0.67    0.22 
  -3   6 -12   -0.03    0.22 
  -4   6 -12    1.62    0.33 
  -5   6 -12    0.07    0.21 
  -5  -5  12    0.10    0.14 
  -4  -5  12    0.52    0.21 
  -3  -5  12    1.58    0.31 
  -2  -5  12    2.17    0.33 
   1   5 -12    2.50    0.33 
  -1  -5  12    2.34    0.34 
   0   5 -12    5.21    0.45 
   0  -5  12    5.00    0.42 
  -1   5 -12    0.08    0.14 
   1  -5  12    0.11    0.13 
  -2   5 -12    0.09    0.16 
  -3   5 -12    0.15    0.18 
  -4   5 -12    1.21    0.28 
  -5   5 -12    0.85    0.26 
  -5  -4  12    0.02    0.12 
  -4  -4  12    0.35    0.17 
  -3  -4  12    0.03    0.13 
  -2  -4  12   14.77    0.82 
  -1  -4  12    1.04    0.22 
   0   4 -12    1.69    0.27 
   0  -4  12    1.83    0.27 
  -1   4 -12    0.13    0.13 
   1  -4  12    0.29    0.14 
  -2   4 -12    1.30    0.24 
   2  -4  12    0.81    0.19 
  -3   4 -12    0.28    0.18 
  -4   4 -12    7.86    0.54 
  -5   4 -12   -0.10    0.16 
  -6  -3  12    1.00    0.25 
  -5  -3  12    1.32    0.28 
  -4  -3  12   -0.12    0.13 
  -3  -3  12    1.20    0.25 
  -2  -3  12    5.06    0.45 
  -1  -3  12    2.83    0.32 
   0   3 -12    1.45    0.23 
   0  -3  12    1.39    0.24 
  -1   3 -12    8.37    0.49 
   1  -3  12    7.22    0.48 
  -2   3 -12    0.15    0.13 
   2  -3  12    0.23    0.13 
  -3   3 -12    0.00    0.19 
  -3   3 -12    0.22    0.16 
  -4   3 -12    0.89    0.21 
  -4   3 -12    0.61    0.28 
  -5   3 -12    0.94    0.31 
  -6   3 -12    0.43    0.25 
  -6  -2  12    0.26    0.17 
  -5  -2  12   -0.09    0.13 
  -4  -2  12    0.98    0.24 
  -3  -2  12    3.04    0.36 
  -2  -2  12    4.11    0.39 
  -1  -2  12    2.49    0.30 
   0  -2  12    8.87    0.53 
  -1   2 -12    2.67    0.29 
  -1   2 -12    2.24    0.35 
   1  -2  12    2.49    0.28 
  -2   2 -12    6.73    0.55 
  -2   2 -12    6.16    0.41 
   2  -2  12    6.77    0.43 
  -3   2 -12    0.44    0.17 
  -3   2 -12    0.31    0.21 
  -4   2 -12    0.50    0.26 
  -5   2 -12    1.47    0.37 
  -6   2 -12    0.13    0.22 
  -6  -1  12    0.12    0.17 
  -5  -1  12    1.08    0.25 
  -4  -1  12    0.54    0.20 
  -3  -1  12    4.20    0.41 
  -2  -1  12    7.53    0.49 
  -1  -1  12    2.00    0.27 
   0  -1  12    5.80    0.40 
  -1   1 -12   32.50    1.58 
   1  -1  12   30.15    1.31 
  -2   1 -12    0.00    0.17 
  -2   1 -12    0.21    0.15 
   2  -1  12    0.28    0.13 
  -3   1 -12    0.40    0.25 
   3  -1  12    0.99    0.18 
  -4   1 -12   -0.07    0.20 
  -5   1 -12    0.77    0.30 
  -6   1 -12   -0.03    0.21 
  -6   0  12    1.70    0.35 
  -6   0  12    0.92    0.26 
  -5   0  12    0.04    0.17 
  -4   0  12    0.73    0.23 
  -3   0  12    2.76    0.34 
  -2   0  12    1.53    0.24 
  -1   0  12    1.26    0.21 
   0   0  12    0.20    0.12 
  -1   0 -12   16.85    0.98 
   1   0  12   14.61    0.74 
  -2   0 -12    0.03    0.18 
   2   0  12   -0.22    0.07 
  -3   0 -12    0.09    0.20 
   3   0  12    0.40    0.14 
  -4   0 -12    2.79    0.50 
  -5   0 -12    1.30    0.36 
  -6   0 -12    1.38    0.36 
  -6   1  12    0.42    0.23 
  -6   1  12    0.59    0.26 
  -5   1  12    8.56    0.59 
  -4   1  12    2.29    0.32 
  -3   1  12    0.23    0.16 
  -2   1  12    0.14    0.11 
  -1   1  12    8.81    0.53 
   0   1  12    1.92    0.26 
  -1  -1 -12   -0.14    0.18 
   1   1  12    0.29    0.12 
  -2  -1 -12    0.17    0.22 
   2   1  12    0.24    0.12 
  -3  -1 -12    1.41    0.34 
   3   1  12    1.03    0.19 
  -4  -1 -12    3.12    0.52 
  -5  -1 -12    0.00    0.22 
  -6   2  12    1.91    0.34 
  -6   2  12    1.61    0.37 
  -5   2  12    0.88    0.24 
  -4   2  12    0.06    0.13 
  -3   2  12   -0.13    0.11 
  -2   2  12    0.09    0.12 
  -1   2  12    2.08    0.28 
   0   2  12    0.08    0.10 
   1   2  12    1.88    0.25 
  -2  -2 -12    0.25    0.24 
   2   2  12    0.47    0.16 
  -3  -2 -12    2.23    0.45 
   3   2  12    2.10    0.27 
  -4  -2 -12    3.90    0.57 
  -5  -2 -12    0.17    0.23 
  -5   3  12    6.96    0.51 
  -4   3  12    1.24    0.26 
  -3   3  12    3.73    0.40 
  -2   3  12    2.98    0.34 
  -1   3  12    2.86    0.32 
   0   3  12    0.45    0.16 
   1   3  12    0.83    0.19 
  -2  -3 -12    2.71    0.50 
   2   3  12    3.99    0.38 
  -3  -3 -12    4.56    0.63 
   3   3  12    4.62    0.41 
  -4  -3 -12    5.27    0.69 
  -5   4  12    0.49    0.18 
  -4   4  12    0.39    0.20 
  -3   4  12    2.13    0.31 
  -2   4  12    0.45    0.18 
  -1   4  12   -0.09    0.12 
   0   4  12    0.90    0.21 
   1   4  12    2.41    0.33 
  -2  -4 -12    0.30    0.27 
   2   4  12    0.03    0.15 
  -3  -4 -12    0.71    0.32 
   3   4  12    0.73    0.22 
  -3   5  12    2.02    0.30 
  -2   5  12    0.40    0.17 
  -1   5  12    0.36    0.18 
   0   5  12    3.22    0.39 
   1   5  12    1.08    0.24 
   1   7 -13    0.17    0.19 
  -1  -7  13    0.21    0.20 
   0   7 -13    0.11    0.21 
   0  -7  13    0.29    0.22 
  -1   7 -13    0.28    0.22 
  -2   7 -13    0.44    0.24 
  -3  -6  13    0.90    0.24 
  -2  -6  13   -0.07    0.15 
   1   6 -13    0.77    0.24 
  -1  -6  13    0.98    0.25 
   0   6 -13    1.87    0.33 
   0  -6  13    1.74    0.30 
  -1   6 -13    0.50    0.21 
   1  -6  13    0.26    0.18 
  -2   6 -13    0.01    0.18 
  -3   6 -13    1.58    0.32 
  -4   6 -13    0.96    0.30 
  -4  -5  13    0.16    0.19 
  -3  -5  13   -0.08    0.14 
  -2  -5  13    0.70    0.21 
  -1  -5  13    3.93    0.43 
   0   5 -13    0.16    0.17 
   0  -5  13    0.38    0.17 
  -1   5 -13    0.18    0.17 
   1  -5  13    0.19    0.15 
  -2   5 -13    2.65    0.35 
  -3   5 -13    0.39    0.22 
  -4   5 -13    0.19    0.21 
  -5   5 -13    0.27    0.24 
  -5  -4  13    1.13    0.27 
  -4  -4  13   -0.01    0.16 
  -3  -4  13    0.14    0.15 
  -2  -4  13    1.14    0.26 
  -1  -4  13    0.05    0.14 
   0   4 -13    1.59    0.27 
   0  -4  13    1.63    0.28 
  -1   4 -13    0.90    0.22 
   1  -4  13    1.32    0.25 
  -2   4 -13    1.26    0.25 
  -3   4 -13    0.30    0.19 
  -4   4 -13    0.08    0.18 
  -5  -3  13    0.18    0.17 
  -4  -3  13    0.32    0.19 
  -3  -3  13   -0.03    0.13 
  -2  -3  13    0.89    0.22 
  -1  -3  13    1.20    0.25 
   0  -3  13    1.05    0.22 
  -1   3 -13    1.61    0.27 
   1  -3  13    1.75    0.26 
  -2   3 -13    7.63    0.48 
   2  -3  13    7.20    0.48 
  -3   3 -13    0.31    0.17 
  -5  -2  13    0.31    0.18 
  -4  -2  13    0.48    0.20 
  -3  -2  13    2.39    0.34 
  -2  -2  13    0.20    0.13 
  -1  -2  13    0.35    0.17 
   0  -2  13    3.08    0.33 
  -1   2 -13    5.47    0.38 
   1  -2  13    5.31    0.40 
  -2   2 -13    1.70    0.25 
  -2   2 -13    1.52    0.34 
   2  -2  13    1.72    0.25 
  -3   2 -13    0.16    0.20 
  -4   2 -13    0.65    0.31 
  -5   2 -13    0.40    0.27 
  -6  -1  13   -0.09    0.15 
  -5  -1  13    0.17    0.19 
  -4  -1  13    1.01    0.25 
  -3  -1  13    0.34    0.16 
  -2  -1  13    2.55    0.32 
  -1  -1  13    3.63    0.37 
   0  -1  13    0.66    0.19 
   1  -1  13    3.38    0.33 
  -2   1 -13    0.59    0.28 
   2  -1  13    0.86    0.18 
  -3   1 -13    2.20    0.43 
  -4   1 -13    0.47    0.26 
  -5   1 -13    2.02    0.46 
  -6   0  13    0.96    0.26 
  -5   0  13    0.48    0.22 
  -4   0  13    0.18    0.17 
  -3   0  13    1.56    0.28 
  -2   0  13    0.59    0.17 
  -1   0  13    0.22    0.14 
   0   0  13   13.20    0.69 
   1   0  13    6.91    0.45 
  -2   0 -13    1.56    0.36 
   2   0  13    1.31    0.22 
  -3   0 -13    0.74    0.28 
  -4   0 -13    6.84    0.73 
  -5   0 -13    0.95    0.32 
  -5   1  13    0.55    0.22 
  -4   1  13    2.34    0.35 
  -3   1  13    0.36    0.17 
  -2   1  13    0.09    0.12 
  -1   1  13    5.33    0.40 
   0   1  13    9.06    0.55 
   1   1  13    1.46    0.24 
  -2  -1 -13    0.79    0.30 
   2   1  13    0.66    0.17 
  -3  -1 -13    0.18    0.26 
   3   1  13    0.31    0.15 
  -4  -1 -13    1.45    0.38 
  -5   2  13    2.30    0.35 
  -4   2  13    0.22    0.17 
  -3   2  13    2.33    0.32 
  -2   2  13    0.56    0.19 
  -1   2  13    0.29    0.14 
   0   2  13    1.64    0.26 
   1   2  13    0.19    0.14 
  -2  -2 -13    0.57    0.28 
   2   2  13    0.72    0.18 
  -3  -2 -13    0.80    0.30 
   3   2  13    0.53    0.18 
  -4  -2 -13    0.03    0.20 
  -4   3  13    0.30    0.17 
  -3   3  13    0.09    0.16 
  -1   3  13    0.81    0.21 
   0   3  13    0.17    0.14 
   1   3  13    0.17    0.13 
  -2  -3 -13    1.04    0.31 
   2   3  13    0.57    0.18 
  -3  -3 -13    0.45    0.26 
   3   3  13    0.00    0.14 
  -3   4  13    1.62    0.28 
  -1   4  13    0.97    0.22 
   0   4  13    0.65    0.19 
   1   4  13    2.90    0.35 
  -1  -6  14    2.02    0.35 
   0   6 -14    0.30    0.22 
   0  -6  14    0.09    0.16 
  -1   6 -14    1.49    0.32 
  -2   6 -14    0.76    0.27 
  -3  -5  14    2.46    0.39 
  -2  -5  14    0.57    0.22 
  -1  -5  14    2.12    0.35 
   0   5 -14    0.62    0.22 
   0  -5  14    0.60    0.21 
  -1   5 -14    0.09    0.18 
   1  -5  14    0.03    0.16 
  -2   5 -14    0.64    0.23 
  -3   5 -14    1.94    0.35 
  -4  -4  14    0.42    0.19 
  -3  -4  14    1.75    0.33 
  -2  -4  14   -0.02    0.16 
  -1  -4  14    0.26    0.18 
   0  -4  14    0.47    0.19 
  -1   4 -14    1.15    0.26 
   1  -4  14    0.86    0.23 
  -2   4 -14    2.92    0.36 
  -3   4 -14    0.43    0.20 
  -4   4 -14    0.34    0.24 
  -4  -3  14    1.04    0.27 
  -3  -3  14    0.63    0.22 
  -2  -3  14    3.78    0.43 
  -1  -3  14   -0.10    0.13 
   0  -3  14    2.01    0.31 
  -1   3 -14    0.60    0.20 
   1  -3  14    0.87    0.22 
  -2   3 -14    0.17    0.17 
  -5  -2  14    1.70    0.33 
  -4  -2  14   -0.06    0.15 
  -3  -2  14    1.21    0.27 
  -2  -2  14    0.67    0.21 
  -1  -2  14    2.21    0.32 
   0  -2  14    3.40    0.37 
   1  -2  14    1.23    0.24 
   2  -2  14    0.11    0.15 
  -3   2 -14    0.84    0.29 
  -4   2 -14    0.29    0.24 
  -5  -1  14    0.57    0.22 
  -4  -1  14    1.13    0.29 
  -3  -1  14   -0.03    0.15 
  -2  -1  14    0.43    0.18 
  -1  -1  14    3.79    0.40 
   0  -1  14    0.95    0.21 
   1  -1  14    0.40    0.17 
  -2   1 -14    1.86    0.41 
   2  -1  14    2.15    0.29 
  -3   1 -14    0.35    0.27 
  -4   1 -14    1.09    0.36 
  -5   0  14    0.36    0.19 
  -4   0  14   -0.11    0.15 
  -3   0  14    0.14    0.16 
  -2   0  14    3.08    0.36 
  -1   0  14    0.96    0.22 
   0   0  14    0.69    0.18 
   1   0  14    0.17    0.13 
  -2   0 -14    0.30    0.25 
   2   0  14    0.07    0.12 
  -3   0 -14    0.10    0.26 
  -4   0 -14    1.29    0.36 
  -4   1  14    0.24    0.18 
  -3   1  14    0.25    0.17 
  -2   1  14    3.22    0.37 
  -1   1  14    1.75    0.28 
   0   1  14    1.60    0.26 
   1   1  14    0.22    0.15 
  -2  -1 -14    0.59    0.29 
   2   1  14    0.60    0.20 
  -3  -1 -14    1.16    0.39 
  -4   2  14    1.65    0.30 
  -3   2  14    0.27    0.16 
  -2   2  14    2.19    0.32 
  -1   2  14    6.02    0.47 
   0   2  14    3.04    0.36 
   1   2  14    2.01    0.29 
  -2  -2 -14    1.96    0.43 
   2   2  14    1.27    0.24 
  -3   3  14    0.51    0.20 
  -2   3  14    1.55    0.28 
  -1   3  14    0.31    0.17 
   0   3  14    0.13    0.14 
   1   3  14    0.84    0.21 
  -1  -5  15    0.43    0.21 
   0  -5  15    0.59    0.22 
  -1   5 -15    0.63    0.24 
  -2   5 -15    0.50    0.23 
  -2  -4  15    0.15    0.19 
  -1  -4  15    0.09    0.17 
   0  -4  15    1.26    0.28 
  -1   4 -15    0.29    0.21 
   1  -4  15    0.40    0.20 
  -2   4 -15    0.34    0.22 
  -3   4 -15    0.46    0.26 
  -3  -3  15    0.05    0.17 
  -2  -3  15    0.16    0.16 
  -1  -3  15    0.37    0.19 
   0  -3  15    0.36    0.18 
   1  -3  15    0.22    0.16 
  -2   3 -15    0.11    0.21 
  -3  -2  15    0.68    0.22 
  -2  -2  15    0.13    0.17 
  -1  -2  15    2.11    0.34 
   0  -2  15    0.62    0.21 
   1  -2  15    0.70    0.21 
  -3  -1  15    0.41    0.21 
  -2  -1  15    0.55    0.22 
  -1  -1  15    2.48    0.36 
   0  -1  15    5.75    0.47 
   1  -1  15    1.63    0.29 
  -2   1 -15    1.00    0.36 
   2  -1  15    0.93    0.24 
  -3   1 -15    2.09    0.45 
  -3   0  15    9.62    0.64 
  -2   0  15    0.11    0.17 
  -1   0  15    9.96    0.64 
   0   0  15    4.53    0.43 
   1   0  15    3.59    0.37 
  -2   0 -15    0.01    0.24 
   2   0  15    0.58    0.18 
  -3   1  15    1.63    0.29 
  -2   1  15    0.16    0.17 
  -1   1  15    0.37    0.17 
   0   1  15    1.02    0.23 
   1   1  15    0.14    0.15 
   2   1  15    2.21    0.31 
  -1   2  15    0.75    0.21 
   0   2  15    0.27    0.16 
   0  -3  16    0.42    0.21 
  -1  -2  16    0.33    0.18 
   0  -2  16    2.35    0.35 
   1  -2  16    0.26    0.18 
  -1  -1  16    0.05    0.17 
   0  -1  16    0.84    0.23 
   0   0   0    0.00    0.00 
;
_shelx_hkl_checksum              27168
loop_
_space_group_symop_operation_xyz
'x, y, z'
'-x, -y, -z'
loop_
_atom_site_label
_atom_site_type_symbol
_atom_site_fract_x
_atom_site_fract_y
_atom_site_fract_z
_atom_site_U_iso_or_equiv
_atom_site_adp_type
_atom_site_occupancy
_atom_site_site_symmetry_order
_atom_site_calc_flag
_atom_site_refinement_flags_posn
_atom_site_refinement_flags_adp
O1 O 0.9153(2) 0.3351(3) 0.34817(16) 0.0915(6) Uani 1 1 d . .
O2 O 0.31079(19) 0.11172(19) 0.56065(10) 0.0580(4) Uani 1 1 d . .
H2 H 0.2132 0.0629 0.5296 0.087 Uiso 1 1 calc R U
O3 O 0.09310(18) -0.02319(19) 0.39829(10) 0.0636(4) Uani 1 1 d . .
C1 C 0.4302(2) 0.3001(2) 0.30484(13) 0.0391(4) Uani 1 1 d . .
C2 C 0.3070(2) 0.3517(2) 0.23178(13) 0.0439(4) Uani 1 1 d . .
H2A H 0.1842 0.3062 0.2309 0.053 Uiso 1 1 calc R U
C3 C 0.3620(3) 0.4672(2) 0.16162(15) 0.0551(5) Uani 1 1 d . .
H3 H 0.2763 0.5005 0.1152 0.066 Uiso 1 1 calc R U
C4 C 0.5432(3) 0.5345(3) 0.15920(16) 0.0633(6) Uani 1 1 d . .
H4 H 0.5805 0.6114 0.1106 0.076 Uiso 1 1 calc R U
C5 C 0.6672(3) 0.4871(3) 0.22880(17) 0.0590(5) Uani 1 1 d . .
H5 H 0.7897 0.5320 0.2269 0.071 Uiso 1 1 calc R U
C6 C 0.6144(2) 0.3720(2) 0.30326(14) 0.0461(4) Uani 1 1 d . .
C7 C 0.7618(2) 0.3435(3) 0.38029(18) 0.0573(5) Uani 1 1 d . .
C8 C 0.7277(3) 0.3499(3) 0.49907(17) 0.0575(5) Uani 1 1 d . .
H8 H 0.8248 0.4018 0.5491 0.069 Uiso 1 1 calc R U
C9 C 0.5763(3) 0.2911(2) 0.54420(15) 0.0522(5) Uani 1 1 d . .
H9 H 0.5778 0.3154 0.6220 0.063 Uiso 1 1 calc R U
C10 C 0.4084(2) 0.1941(2) 0.48926(14) 0.0437(4) Uani 1 1 d . .
C11 C 0.3532(2) 0.1782(2) 0.37808(13) 0.0387(4) Uani 1 1 d . .
C12 C 0.2005(2) 0.0405(2) 0.33503(13) 0.0424(4) Uani 1 1 d . .
C13 C 0.1787(2) -0.0414(2) 0.21384(14) 0.0423(4) Uani 1 1 d . .
C14 C 0.0040(3) -0.1100(3) 0.16962(16) 0.0569(5) Uani 1 1 d . .
H14 H -0.0953 -0.0994 0.2142 0.068 Uiso 1 1 calc R U
C15 C -0.0221(3) -0.1938(3) 0.05948(18) 0.0694(6) Uani 1 1 d . .
H15 H -0.1395 -0.2369 0.0297 0.083 Uiso 1 1 calc R U
C16 C 0.1233(3) -0.2140(3) -0.00621(17) 0.0669(6) Uani 1 1 d . .
H16 H 0.1045 -0.2711 -0.0802 0.080 Uiso 1 1 calc R U
C17 C 0.2963(3) -0.1503(3) 0.03694(16) 0.0602(5) Uani 1 1 d . .
H17 H 0.3950 -0.1656 -0.0076 0.072 Uiso 1 1 calc R U
C18 C 0.3252(3) -0.0628(2) 0.14688(15) 0.0504(5) Uani 1 1 d . .
H18 H 0.4429 -0.0185 0.1756 0.060 Uiso 1 1 calc R U
loop_
_atom_site_aniso_label
_atom_site_aniso_U_11
_atom_site_aniso_U_22
_atom_site_aniso_U_33
_atom_site_aniso_U_23
_atom_site_aniso_U_13
_atom_site_aniso_U_12
O1 0.0399(8) 0.1222(15) 0.1070(13) -0.0010(11) 0.0135(8) 0.0165(9)
O2 0.0657(9) 0.0657(9) 0.0383(7) 0.0076(6) -0.0021(6) -0.0026(7)
O3 0.0590(9) 0.0793(10) 0.0437(7) 0.0094(7) 0.0077(6) -0.0197(7)
C1 0.0393(9) 0.0372(9) 0.0358(8) -0.0056(6) 0.0059(7) 0.0019(7)
C2 0.0459(10) 0.0418(9) 0.0390(9) -0.0006(7) -0.0001(7) -0.0016(7)
C3 0.0707(13) 0.0489(11) 0.0411(9) 0.0041(8) -0.0018(9) -0.0017(9)
C4 0.0812(15) 0.0548(12) 0.0482(11) 0.0076(9) 0.0145(11) -0.0106(11)
C5 0.0523(12) 0.0560(12) 0.0590(12) -0.0049(9) 0.0196(10) -0.0103(9)
C6 0.0396(10) 0.0441(9) 0.0475(10) -0.0084(7) 0.0090(7) 0.0007(7)
C7 0.0368(10) 0.0530(11) 0.0735(13) -0.0105(9) 0.0041(9) 0.0020(8)
C8 0.0412(11) 0.0575(12) 0.0657(12) -0.0085(9) -0.0144(9) 0.0061(9)
C9 0.0541(11) 0.0517(11) 0.0455(10) -0.0079(8) -0.0101(8) 0.0117(9)
C10 0.0458(10) 0.0414(9) 0.0422(9) 0.0006(7) 0.0019(7) 0.0084(7)
C11 0.0352(9) 0.0402(9) 0.0384(8) 0.0002(7) 0.0023(7) 0.0055(7)
C12 0.0395(9) 0.0472(10) 0.0387(9) 0.0067(7) 0.0037(7) 0.0006(7)
C13 0.0468(10) 0.0357(9) 0.0408(9) 0.0051(7) 0.0005(7) -0.0046(7)
C14 0.0505(11) 0.0611(12) 0.0511(11) 0.0033(9) 0.0017(9) -0.0117(9)
C15 0.0660(14) 0.0731(14) 0.0559(12) -0.0023(10) -0.0115(10) -0.0168(11)
C16 0.0888(16) 0.0596(13) 0.0423(10) -0.0055(9) -0.0028(11) -0.0058(11)
C17 0.0759(14) 0.0485(11) 0.0512(11) -0.0023(9) 0.0160(10) 0.0023(10)
C18 0.0510(11) 0.0447(10) 0.0503(10) -0.0006(8) 0.0047(8) -0.0010(8)
loop_
_atom_type_symbol
_atom_type_description
_atom_type_scat_dispersion_real
_atom_type_scat_dispersion_imag
_atom_type_scat_source
C C 0.0033 0.0016 'International Tables Vol C Tables 4.2.6.8 and 6.1.1.4'
H H 0.0000 0.0000 'International Tables Vol C Tables 4.2.6.8 and 6.1.1.4'
O O 0.0106 0.0060 'International Tables Vol C Tables 4.2.6.8 and 6.1.1.4'
loop_
_geom_angle_atom_site_label_1
_geom_angle_atom_site_label_2
_geom_angle_atom_site_label_3
_geom_angle
C10 O2 H2 109.5
C2 C1 C6 117.07(16)
C2 C1 C11 116.72(14)
C6 C1 C11 126.20(16)
C3 C2 C1 121.97(17)
C3 C2 H2A 119.0
C1 C2 H2A 119.0
C2 C3 C4 120.53(19)
C2 C3 H3 119.7
C4 C3 H3 119.7
C5 C4 C3 119.25(18)
C5 C4 H4 120.4
C3 C4 H4 120.4
C4 C5 C6 121.47(18)
C4 C5 H5 119.3
C6 C5 H5 119.3
C5 C6 C1 119.69(18)
C5 C6 C7 115.50(16)
C1 C6 C7 124.73(17)
O1 C7 C8 119.8(2)
O1 C7 C6 120.6(2)
C8 C7 C6 119.09(16)
C9 C8 C7 128.13(17)
C9 C8 H8 115.9
C7 C8 H8 115.9
C8 C9 C10 128.94(18)
C8 C9 H9 115.5
C10 C9 H9 115.5
O2 C10 C11 122.36(16)
O2 C10 C9 110.56(15)
C11 C10 C9 127.03(17)
C10 C11 C12 117.06(15)
C10 C11 C1 123.33(15)
C12 C11 C1 119.44(14)
O3 C12 C11 121.53(15)
O3 C12 C13 116.81(15)
C11 C12 C13 121.39(14)
C18 C13 C14 119.07(16)
C18 C13 C12 122.90(16)
C14 C13 C12 117.86(16)
C15 C14 C13 119.99(19)
C15 C14 H14 120.0
C13 C14 H14 120.0
C16 C15 C14 120.6(2)
C16 C15 H15 119.7
C14 C15 H15 119.7
C17 C16 C15 120.05(18)
C17 C16 H16 120.0
C15 C16 H16 120.0
C16 C17 C18 120.28(19)
C16 C17 H17 119.9
C18 C17 H17 119.9
C13 C18 C17 120.04(18)
C13 C18 H18 120.0
C17 C18 H18 120.0
loop_
_geom_bond_atom_site_label_1
_geom_bond_atom_site_label_2
_geom_bond_distance
O1 C7 1.220(2)
O2 C10 1.334(2)
O2 H2 0.8200
O3 C12 1.233(2)
C1 C2 1.402(2)
C1 C6 1.406(2)
C1 C11 1.476(2)
C2 C3 1.370(2)
C2 H2A 0.9300
C3 C4 1.377(3)
C3 H3 0.9300
C4 C5 1.363(3)
C4 H4 0.9300
C5 C6 1.403(3)
C5 H5 0.9300
C6 C7 1.485(3)
C7 C8 1.463(3)
C8 C9 1.322(3)
C8 H8 0.9300
C9 C10 1.448(3)
C9 H9 0.9300
C10 C11 1.380(2)
C11 C12 1.467(2)
C12 C13 1.495(2)
C13 C18 1.385(2)
C13 C14 1.390(2)
C14 C15 1.380(3)
C14 H14 0.9300
C15 C16 1.368(3)
C15 H15 0.9300
C16 C17 1.368(3)
C16 H16 0.9300
C17 C18 1.388(3)
C17 H17 0.9300
C18 H18 0.9300
loop_
_geom_hbond_atom_site_label_D
_geom_hbond_atom_site_label_H
_geom_hbond_atom_site_label_A
_geom_hbond_distance_DH
_geom_hbond_distance_HA
_geom_hbond_distance_DA
_geom_hbond_angle_DHA
_geom_hbond_site_symmetry_A
O2 H2 O3 0.82 2.46 3.055(2) 130.8 2_556
O2 H2 O3 0.82 1.78 2.5026(18) 145.3 .
loop_
_geom_torsion_atom_site_label_1
_geom_torsion_atom_site_label_2
_geom_torsion_atom_site_label_3
_geom_torsion_atom_site_label_4
_geom_torsion
C6 C1 C2 C3 0.0(2)
C11 C1 C2 C3 178.58(15)
C1 C2 C3 C4 1.3(3)
C2 C3 C4 C5 -1.1(3)
C3 C4 C5 C6 -0.3(3)
C4 C5 C6 C1 1.5(3)
C4 C5 C6 C7 -175.26(17)
C2 C1 C6 C5 -1.3(2)
C11 C1 C6 C5 -179.79(15)
C2 C1 C6 C7 175.17(15)
C11 C1 C6 C7 -3.3(3)
C5 C6 C7 O1 -37.4(3)
C1 C6 C7 O1 146.01(19)
C5 C6 C7 C8 134.27(19)
C1 C6 C7 C8 -42.3(3)
O1 C7 C8 C9 -150.5(2)
C6 C7 C8 C9 37.8(3)
C7 C8 C9 C10 4.9(4)
C8 C9 C10 O2 160.4(2)
C8 C9 C10 C11 -17.1(3)
O2 C10 C11 C12 -11.5(2)
C9 C10 C11 C12 165.64(16)
O2 C10 C11 C1 163.64(16)
C9 C10 C11 C1 -19.2(3)
C2 C1 C11 C10 -138.60(17)
C6 C1 C11 C10 39.9(2)
C2 C1 C11 C12 36.5(2)
C6 C1 C11 C12 -145.05(16)
C10 C11 C12 O3 20.4(3)
C1 C11 C12 O3 -154.93(17)
C10 C11 C12 C13 -153.43(16)
C1 C11 C12 C13 31.2(2)
O3 C12 C13 C18 -142.61(18)
C11 C12 C13 C18 31.5(3)
O3 C12 C13 C14 32.6(3)
C11 C12 C13 C14 -153.22(17)
C18 C13 C14 C15 -1.7(3)
C12 C13 C14 C15 -177.16(18)
C13 C14 C15 C16 1.6(3)
C14 C15 C16 C17 -0.3(4)
C15 C16 C17 C18 -0.9(3)
C14 C13 C18 C17 0.6(3)
C12 C13 C18 C17 175.77(17)
C16 C17 C18 C13 0.7(3)
