#------------------------------------------------------------------------------
#$Date: 2019-11-24 16:16:29 +0200 (Sun, 24 Nov 2019) $
#$Revision: 238524 $
#$URL: file:///home/coder/svn-repositories/cod/cif/1/55/53/1555346.cif $
#------------------------------------------------------------------------------
#
# This file is available in the Crystallography Open Database (COD),
# http://www.crystallography.net/
#
# All data on this site have been placed in the public domain by the
# contributors.
#
data_1555346
loop_
_publ_author_name
'Wright, Stephen W.'
'Choi, Chulho'
'Chung, Seungwon'
'Boscoe, Brian P.'
'Drozda, Susan E.'
'Mousseau, James J.'
'Trzupek, John D.'
_publ_section_title
;
 Reversal of Diastereoselection in the Conjugate Addition of Cuprates to
 Unsaturated Lactams.
;
_journal_issue                   21
_journal_name_full               'Organic letters'
_journal_page_first              5204
_journal_page_last               5207
_journal_paper_doi               10.1021/acs.orglett.5b02533
_journal_volume                  17
_journal_year                    2015
_chemical_absolute_configuration ad
_chemical_formula_sum            'C9 H15 N O2'
_chemical_formula_weight         169.22
_space_group_crystal_system      monoclinic
_space_group_IT_number           4
_space_group_name_Hall           'P 2yb'
_space_group_name_H-M_alt        'P 1 21 1'
_atom_sites_solution_hydrogens   geom
_audit_creation_method           SHELXL-2014/7
_cell_angle_alpha                90
_cell_angle_beta                 102.426(2)
_cell_angle_gamma                90
_cell_formula_units_Z            2
_cell_length_a                   6.1254(3)
_cell_length_b                   6.9441(4)
_cell_length_c                   10.8047(6)
_cell_measurement_reflns_used    5079
_cell_measurement_temperature    123(2)
_cell_measurement_theta_max      69.79
_cell_measurement_theta_min      4.19
_cell_volume                     448.82(4)
_computing_cell_refinement       'Bruker SAINT'
_computing_data_collection       'Bruker APEX2'
_computing_data_reduction        'Bruker SAINT'
_computing_molecular_graphics    'Bruker SHELXTL'
_computing_publication_material  'Bruker SHELXTL'
_computing_structure_refinement  'SHELXL-2014/7 (Sheldrick, 2014)'
_computing_structure_solution    'SHELXS-97 (Sheldrick 2008)'
_diffrn_ambient_temperature      123(2)
_diffrn_measured_fraction_theta_full 0.998
_diffrn_measured_fraction_theta_max 0.985
_diffrn_measurement_device_type  'Bruker APEX-II CCD'
_diffrn_measurement_method       '\f and \w scans'
_diffrn_radiation_type           CuK\a
_diffrn_radiation_wavelength     1.54178
_diffrn_reflns_av_R_equivalents  0.0748
_diffrn_reflns_av_unetI/netI     0.0460
_diffrn_reflns_Laue_measured_fraction_full 0.998
_diffrn_reflns_Laue_measured_fraction_max 0.985
_diffrn_reflns_limit_h_max       7
_diffrn_reflns_limit_h_min       -7
_diffrn_reflns_limit_k_max       8
_diffrn_reflns_limit_k_min       -8
_diffrn_reflns_limit_l_max       12
_diffrn_reflns_limit_l_min       -13
_diffrn_reflns_number            5783
_diffrn_reflns_point_group_measured_fraction_full 0.985
_diffrn_reflns_point_group_measured_fraction_max 0.966
_diffrn_reflns_theta_full        67.679
_diffrn_reflns_theta_max         69.618
_diffrn_reflns_theta_min         4.190
_diffrn_source                   'rotating anode'
_exptl_absorpt_coefficient_mu    0.713
_exptl_absorpt_correction_T_max  0.7530
_exptl_absorpt_correction_T_min  0.6795
_exptl_absorpt_correction_type   empirical
_exptl_absorpt_process_details   sadabs
_exptl_crystal_density_diffrn    1.252
_exptl_crystal_F_000             184
_refine_diff_density_max         0.351
_refine_diff_density_min         -0.413
_refine_diff_density_rms         0.139
_refine_ls_abs_structure_details
; 
 Flack x determined using 670 quotients [(I+)-(I-)]/[(I+)+(I-)] 
 (Parsons, Flack and Wagner, Acta Cryst. B69 (2013) 249-259). 
;
_refine_ls_abs_structure_Flack   0.07(16)
_refine_ls_extinction_coef       0.051(9)
_refine_ls_extinction_expression Fc^*^=kFc[1+0.001xFc^2^\l^3^/sin(2\q)]^-1/4^
_refine_ls_extinction_method     'SHELXL-2014/7 (Sheldrick 2014'
_refine_ls_goodness_of_fit_ref   1.197
_refine_ls_hydrogen_treatment    constr
_refine_ls_matrix_type           full
_refine_ls_number_parameters     113
_refine_ls_number_reflns         1643
_refine_ls_number_restraints     1
_refine_ls_restrained_S_all      1.197
_refine_ls_R_factor_all          0.0458
_refine_ls_R_factor_gt           0.0450
_refine_ls_shift/su_max          0.000
_refine_ls_shift/su_mean         0.000
_refine_ls_structure_factor_coef Fsqd
_refine_ls_weighting_details
'w=1/[\s^2^(Fo^2^)+(0.0767P)^2^] where P=(Fo^2^+2Fc^2^)/3'
_refine_ls_weighting_scheme      calc
_refine_ls_wR_factor_gt          0.1053
_refine_ls_wR_factor_ref         0.1061
_reflns_Friedel_coverage         0.802
_reflns_Friedel_fraction_full    0.970
_reflns_Friedel_fraction_max     0.943
_reflns_number_gt                1604
_reflns_number_total             1643
_reflns_threshold_expression     'I > 2\s(I)'
_cod_data_source_file            ol5b02533_si_005.cif
_cod_data_source_block           Z594_0m
_cod_original_sg_symbol_H-M      'P 21'
_cod_database_code               1555346
_shelx_space_group_comment
; 
The symmetry employed for this shelxl refinement is uniquely defined 
by the following loop, which should always be used as a source of 
symmetry information in preference to the above space-group names. 
They are only intended as comments. 
;
_shelx_res_file
; 
  
    Z594_0m.res created by SHELXL-2014/7 
  
TITL Z594_0m in P2(1) 
CELL 1.54178   6.12540   6.94410  10.80470  90.0000 102.4258  90.0000 
ZERR    2.00   0.00030   0.00040   0.00060   0.0000   0.0024   0.0000 
LATT -1 
SYMM -X, 0.5+Y, -Z 
SFAC C  H  N  O 
UNIT 18  30  2  4 
L.S. 12 
ACTA 
BOND 
FMAP 2 
PLAN 5 
omit      0   1   1 
omit    -6   5   3 
omit    -4   5   2 
omit    -1  -8   4 
TEMP -150.000 
WGHT    0.076700 
EXTI    0.051496 
FVAR       1.05723 
N1    3    0.620812    1.026301    0.208907    11.00000    0.02175    0.01728 = 
         0.01416   -0.00095    0.00616    0.00073 
O1    4    0.513460    0.959753    0.391504    11.00000    0.03066    0.02092 = 
         0.01888    0.00116    0.01388   -0.00071 
O2    4    0.781429    1.255078    0.102198    11.00000    0.03524    0.02181 = 
         0.02491    0.00520    0.01403   -0.00144 
C1    1    0.591143    0.818550    0.211676    11.00000    0.01852    0.01681 = 
         0.02200   -0.00239    0.00683   -0.00285 
AFIX  13 
H1    2    0.436893    0.783734    0.165070    11.00000   -1.20000 
AFIX   0 
C2    1    0.612156    0.787389    0.353258    11.00000    0.03172    0.01772 = 
         0.02424    0.00362    0.01411   -0.00036 
AFIX  23 
H2A   2    0.529295    0.671184    0.369856    11.00000   -1.20000 
H2B   2    0.770646    0.774856    0.397715    11.00000   -1.20000 
AFIX   0 
C3    1    0.577749    1.120085    0.323020    11.00000    0.02435    0.01944 = 
         0.01203    0.00087    0.00734    0.00078 
C7    1    0.772411    0.909192    0.046906    11.00000    0.02448    0.02561 = 
         0.01838   -0.00321    0.00867    0.00094 
AFIX  23 
H7A   2    0.920048    0.915721    0.023723    11.00000   -1.20000 
H7B   2    0.654996    0.894671   -0.031313    11.00000   -1.20000 
AFIX   0 
C9    1    0.994837    0.703282    0.221725    11.00000    0.02102    0.02077 = 
         0.03322    0.00080    0.00769    0.00253 
AFIX 137 
H9A   2    1.052001    0.821449    0.266875    11.00000   -1.50000 
H9B   2    1.096830    0.661974    0.168339    11.00000   -1.50000 
H9C   2    0.983998    0.601875    0.283197    11.00000   -1.50000 
AFIX   0 
C4    1    0.789178    1.213598    0.399434    11.00000    0.02790    0.02819 = 
         0.01904   -0.00533    0.00427   -0.00374 
AFIX 137 
H4A   2    0.756502    1.273985    0.475405    11.00000   -1.50000 
H4B   2    0.842008    1.311692    0.347599    11.00000   -1.50000 
H4C   2    0.905045    1.115276    0.424458    11.00000   -1.50000 
AFIX   0 
C5    1    0.383249    1.258654    0.293713    11.00000    0.03029    0.02677 = 
         0.01803   -0.00131    0.00851    0.00661 
AFIX 137 
H5A   2    0.254173    1.194412    0.240346    11.00000   -1.50000 
H5B   2    0.424766    1.370901    0.248836    11.00000   -1.50000 
H5C   2    0.344662    1.300519    0.372948    11.00000   -1.50000 
AFIX   0 
C8    1    0.764356    0.741429    0.138998    11.00000    0.02023    0.01724 = 
         0.02376   -0.00539    0.00753   -0.00227 
AFIX  13 
H8    2    0.706127    0.622632    0.090696    11.00000   -1.20000 
AFIX   0 
C6    1    0.731330    1.088310    0.120308    11.00000    0.01964    0.01970 = 
         0.01371    0.00240    0.00529    0.00329 
HKLF 4 
  
REM  Z594_0m in P2(1) 
REM R1 =  0.0450 for    1604 Fo > 4sig(Fo)  and  0.0458 for all    1643 data 
REM    113 parameters refined using      1 restraints 
  
END 
  
WGHT      0.0707      0.0362 
  
REM Highest difference peak  0.351,  deepest hole -0.413,  1-sigma level  0.139 
Q1    1   0.6516  0.9312 -0.1351  11.00000  0.05    0.35 
Q2    1   0.5812  0.8032 -0.1277  11.00000  0.05    0.33 
Q3    1   0.5739  1.0529  0.1888  11.00000  0.05    0.32 
Q4    1   1.0358  0.6192  0.3276  11.00000  0.05    0.32 
Q5    1   0.1018  1.3869  0.3625  11.00000  0.05    0.31 
;
_shelx_res_checksum              49139
_shelx_hkl_file
; 
   0   0  -1   82.58    0.26 
   0   0  -1   99.96    0.48 
   0   0   1   82.43    0.39 
   0   0  -2 1024.00    3.19 
   0   0  -2 1122.00    5.57 
   0   0   2  936.49    4.56 
   0   0  -3   20.71    0.23 
   0   0  -3   20.40    0.32 
   0   0  -3   25.42    0.48 
   0   0   3   20.16    0.37 
   0   0  -4  736.81    2.68 
   0   0  -4  720.30    3.90 
   0   0  -4  853.36    5.21 
   0   0   4  674.94    3.91 
   0   0  -5   88.76    0.66 
   0   0  -5  109.37    1.23 
   0   0   5   91.31    0.99 
   0   0  -6   73.09    0.75 
   0   0  -6   68.73    0.51 
   0   0  -6   83.92    1.22 
   0   0   6   73.89    1.00 
   0   0  -7   85.27    0.79 
   0   0   7   84.55    1.34 
   0   0  -8   22.57    0.82 
   0   0  -8   22.70    0.27 
   0   0  -8   26.14    0.87 
   0   0  -8   27.46    0.87 
   0   0  -8   26.47    0.89 
   0   0   8   24.77    0.82 
   0   0  -9   30.46    1.02 
   0   0  -9   33.16    1.04 
   0   0  -9   34.27    1.01 
   0   0  -9   35.15    1.08 
   0   0 -10  111.61    1.82 
   0   0 -10  116.71    1.83 
   0   0 -10  125.50    1.84 
   0   0 -10  127.02    1.93 
   0   0 -11   98.01    1.63 
   0   0 -11  107.83    1.66 
   0   0 -11  112.39    1.61 
   0   0 -11  110.90    1.72 
   0   0 -12  112.07    1.51 
   0   0 -12  115.45    1.44 
   0   0 -12  127.53    1.61 
   0   1 -12   15.30    0.62 
   0   1 -12   16.95    0.61 
   0   1 -12   17.01    0.65 
   0   1 -11   72.34    1.39 
   0   1 -11   84.10    1.49 
   0   1 -11   84.78    1.44 
   0   1 -11   83.43    1.47 
   0   1 -10   23.58    0.93 
   0   1 -10   23.85    0.95 
   0   1 -10   26.01    0.94 
   0   1 -10   26.15    0.98 
   0   1  -9   98.52    1.68 
   0   1  -9   92.78    0.97 
   0   1  -9  104.35    1.73 
   0   1  -9  111.93    1.77 
   0   1  -9  113.13    1.80 
   0  -1   8    2.18    0.32 
   0   1  -8    2.46    0.40 
   0   1  -8    2.51    0.21 
   0   1  -8    2.13    0.26 
   0   1  -8    2.84    0.45 
   0   1  -8    3.19    0.43 
   0   1  -8    2.85    0.41 
   0  -1   7   43.21    0.98 
   0   1  -7   43.42    0.70 
   0  -1   6  566.64    2.84 
   0  -1   6  589.25    3.18 
   0   1  -6  572.94    2.46 
   0  -1   5    3.37    0.30 
   0  -1   4  364.75    1.83 
   0   1  -4  353.73    2.29 
   0   1  -4  429.53    2.11 
   0  -1   3  381.56    2.24 
   0   1  -3  379.60    1.44 
   0   1  -3  444.35    2.46 
   0  -1   2  138.65    0.88 
   0   1  -2  143.24    0.59 
   0   1  -2  164.02    0.90 
   0  -1   1 1279.00    5.62 
   0  -1   1  260.02    1.46 
   0   1  -1  168.26    0.69 
   0  -1   0    0.98    0.12 
   0  -1   0    0.12    0.10 
   0  -1   0    0.09    0.05 
   0  -1  -1 1275.00    5.60 
   0  -1  -1 1380.00    5.81 
   0  -1  -1 1691.00    5.20 
   0  -1  -2  138.75    0.83 
   0  -1  -2  142.47    0.86 
   0  -1  -2  160.34    0.90 
   0  -1  -3  397.51    1.97 
   0  -1  -3  410.54    1.66 
   0  -1  -3  477.48    1.89 
   0  -1  -4  355.92    1.53 
   0  -1  -4  432.06    2.11 
   0   1   4  347.30    1.74 
   0  -1  -5    4.04    0.36 
   0   1   5    3.62    0.28 
   0  -1  -6  693.16    3.45 
   0   1   6  580.58    2.81 
   0  -1  -8    2.25    0.38 
   0  -1  -8    2.92    0.42 
   0  -1  -8    3.95    0.47 
   0  -1  -8    2.97    0.43 
   0   1   8    3.22    0.38 
   0  -1  -9   95.51    1.66 
   0  -1  -9  102.74    1.67 
   0  -1  -9  112.56    1.70 
   0  -1  -9  111.22    1.77 
   0  -1 -10   21.87    0.92 
   0  -1 -10   23.14    0.90 
   0  -1 -10   25.40    0.95 
   0  -1 -11   72.44    1.39 
   0  -1 -11   76.95    1.36 
   0  -1 -11   81.44    1.45 
   0  -1 -12   15.10    0.64 
   0  -1 -12   15.39    0.57 
   0  -1 -12   17.03    0.65 
   0  -2  12   10.46    0.51 
   0   2 -12    8.98    0.44 
   0   2 -12   10.31    0.49 
   0   2 -12   10.55    0.49 
   0   2 -11   11.06    0.63 
   0   2 -11   13.43    0.68 
   0   2 -11   13.00    0.66 
   0   2 -10    9.38    0.67 
   0   2 -10    9.77    0.40 
   0   2 -10    9.52    0.69 
   0   2 -10   11.75    0.71 
   0   2 -10   10.68    0.68 
   0   2  -9   72.07    1.43 
   0   2  -9   70.45    0.82 
   0   2  -9   72.34    1.14 
   0   2  -9   81.67    1.58 
   0   2  -9   84.43    1.59 
   0   2  -9   84.77    1.57 
   0   2  -8   10.33    0.64 
   0   2  -8   11.34    0.50 
   0   2  -8    9.86    0.56 
   0   2  -8   11.36    0.68 
   0   2  -8   12.36    0.71 
   0   2  -8   12.35    0.68 
   0  -2   7   32.43    0.86 
   0   2  -7   34.09    0.80 
   0   2  -7   26.46    0.78 
   0   2  -7   33.78    0.97 
   0   2  -7   35.00    0.95 
   0   2  -7   33.78    0.99 
   0  -2   6    4.36    0.38 
   0  -2   6    4.48    0.37 
   0   2  -6    4.49    0.38 
   0  -2   5  290.58    2.04 
   0  -2   5  290.22    2.02 
   0   2  -5  278.04    1.99 
   0  -2   4  144.27    1.34 
   0  -2   4  143.05    1.25 
   0   2  -4  135.12    1.32 
   0  -2   3   99.22    1.02 
   0  -2   3   99.22    0.90 
   0   2  -3   96.97    0.71 
   0  -2   2  349.84    1.75 
   0  -2   2  336.41    1.33 
   0   2  -2  298.85    1.33 
   0  -2   1    9.39    0.36 
   0  -2   1    8.55    0.20 
   0   2  -1    9.08    0.28 
   0  -2   0 1197.00    6.81 
   0  -2   0 1340.00    7.52 
   0  -2   0 1405.00    3.84 
   0  -2  -1    9.52    0.34 
   0  -2  -1    9.10    0.35 
   0  -2  -1   10.39    0.21 
   0  -2  -2  349.31    1.74 
   0  -2  -2  362.02    1.73 
   0  -2  -2  356.65    1.74 
   0  -2  -3  101.50    1.01 
   0  -2  -3  102.19    1.00 
   0  -2  -3  115.09    0.96 
   0  -2  -4  143.72    1.25 
   0  -2  -4  148.02    1.30 
   0  -2  -4  166.58    1.35 
   0  -2  -5  334.09    2.17 
   0  -2  -6    5.82    0.42 
   0   2   6    4.35    0.33 
   0  -2  -8    9.87    0.60 
   0  -2  -8   11.20    0.65 
   0  -2  -8   12.58    0.68 
   0  -2  -9   70.74    1.42 
   0  -2  -9   79.88    1.45 
   0  -2  -9   83.45    1.53 
   0  -2 -10    8.89    0.62 
   0  -2 -10    9.50    0.63 
   0  -2 -10   10.86    0.69 
   0  -2 -11   10.67    0.62 
   0  -2 -11   12.58    0.65 
   0  -2 -12    9.36    0.46 
   0  -2 -12   10.55    0.52 
   0  -3  11   34.09    0.90 
   0   3 -11   38.07    0.94 
   0  -3  10   87.15    1.54 
   0   3 -10   83.80    1.13 
   0   3 -10   99.39    1.65 
   0   3 -10   97.94    2.06 
   0   3  -9   38.41    0.81 
   0   3  -9   38.38    0.97 
   0   3  -9   45.31    1.21 
   0   3  -9   45.69    1.35 
   0   3  -8   91.34    1.38 
   0   3  -8   89.49    1.50 
   0   3  -8   96.07    1.68 
   0   3  -8  104.12    1.75 
   0   3  -7   59.78    1.18 
   0   3  -7   54.88    1.21 
   0   3  -7   60.24    1.29 
   0   3  -7   65.82    1.36 
   0  -3   6   16.22    0.64 
   0   3  -6   16.84    0.68 
   0   3  -6   17.79    0.74 
   0   3  -6   16.63    0.72 
   0  -3   5  154.35    1.68 
   0  -3   4  212.53    1.86 
   0  -3   3  284.16    2.03 
   0   3  -3  285.15    1.63 
   0  -3   2  118.83    1.26 
   0  -3   2  111.00    1.21 
   0   3  -2  112.52    1.07 
   0  -3   1   64.50    0.92 
   0  -3   1   53.67    0.79 
   0   3  -1   63.02    0.84 
   0  -3   0    0.04    0.17 
   0  -3   0    0.05    0.15 
   0  -3  -1   64.20    0.91 
   0  -3  -1   65.32    0.90 
   0  -3  -1   59.57    0.63 
   0  -3  -2  122.39    1.28 
   0  -3  -2  122.10    1.25 
   0  -3  -2  109.97    0.45 
   0  -3  -3  296.17    2.06 
   0  -3  -3  306.53    2.05 
   0  -3  -4  214.88    1.81 
   0  -3  -5  155.71    1.63 
   0   3   5  143.23    1.55 
   0  -4  11   21.31    0.62 
   0   4 -11   24.63    0.65 
   0  -4  10   44.29    1.03 
   0   4 -10   43.39    0.84 
   0   4 -10   50.98    1.11 
   0  -4   9   97.06    1.63 
   0   4  -9   92.82    1.28 
   0   4  -9   95.68    1.49 
   0   4  -9  116.52    1.79 
   0  -4   8   30.07    1.02 
   0   4  -8   27.41    0.87 
   0   4  -8   29.91    0.99 
   0   4  -8   31.21    1.03 
   0  -4   7    8.03    0.60 
   0  -4   7   10.20    0.69 
   0   4  -7    9.09    0.63 
   0   4  -7   11.12    0.68 
   0  -4   6   64.16    1.85 
   0  -4   6   63.42    1.29 
   0  -4   6   68.57    1.37 
   0   4  -6   89.31    2.45 
   0   4  -6   75.66    1.43 
   0   4  -6   76.96    1.38 
   0  -4   5   72.01    1.31 
   0  -4   5   68.38    1.30 
   0  -4   5   74.06    1.35 
   0   4  -5   82.91    1.42 
   0   4  -5   78.41    1.35 
   0  -4   4   78.88    1.30 
   0  -4   3   97.46    1.40 
   0  -4   3   91.76    1.38 
   0  -4   2  167.56    1.76 
   0  -4   2  164.99    1.68 
   0   4  -2  165.02    1.58 
   0  -4   1   20.39    0.64 
   0  -4   1   20.04    0.59 
   0   4  -1   21.13    0.61 
   0  -4   0  444.40    2.76 
   0  -4   0  422.93    2.22 
   0   4   0  442.34    2.70 
   0  -4  -1   22.15    0.66 
   0  -4  -1   19.32    0.44 
   0   4   1   20.20    0.64 
   0  -4  -2  171.77    1.76 
   0   4   2  165.41    1.75 
   0  -4  -3  100.38    1.38 
   0   4   3   94.01    1.37 
   0  -4  -4   79.49    1.28 
   0   4   4   80.12    1.30 
   0  -4  -5   54.37    1.14 
   0  -4  -5   71.66    1.26 
   0  -4  -5   67.39    1.23 
   0  -4  -5   78.88    1.37 
   0   4   5   71.28    1.26 
   0  -4  -6   57.07    1.28 
   0  -4  -6   71.65    1.33 
   0  -5  10   18.81    0.57 
   0   5 -10   18.08    0.49 
   0   5 -10   21.50    0.62 
   0  -5   9   53.49    1.07 
   0   5  -9   52.84    1.05 
   0   5  -9   62.48    1.19 
   0  -5   8   39.66    1.04 
   0   5  -8   41.49    1.10 
   0  -5   7   16.94    0.74 
   0  -5   7   17.94    0.80 
   0   5  -7   20.49    0.85 
   0  -5   6   77.69    1.47 
   0  -5   6   86.45    1.55 
   0   5  -6   95.08    1.64 
   0   5  -6   94.46    1.58 
   0  -5   5   29.87    0.97 
   0  -5   5   31.48    0.96 
   0   5  -5   34.23    1.02 
   0   5  -5   34.89    1.02 
   0  -5   4   66.74    1.35 
   0  -5   4   71.11    1.34 
   0   5  -4   79.41    1.44 
   0   5  -4   77.27    1.44 
   0  -5   3   25.43    0.85 
   0  -5   3   23.77    0.86 
   0  -5   3   25.59    0.85 
   0  -5   3   27.79    1.11 
   0   5  -3   27.18    0.85 
   0  -5   2  174.56    2.05 
   0  -5   2  166.55    2.01 
   0  -5   2  187.55    1.97 
   0  -5   2  166.95    1.96 
   0  -5   2  181.60    2.11 
   0  -5   1   13.89    0.65 
   0  -5   1   12.48    0.64 
   0  -5   1   14.40    0.58 
   0  -5   1   12.82    0.60 
   0  -5   1   12.15    0.93 
   0  -5   1   14.72    0.68 
   0   5  -1   14.59    0.60 
   0  -5   0    0.22    0.27 
   0  -5   0   -0.14    0.21 
   0  -5   0    0.03    0.22 
   0  -5   0   -0.03    0.18 
   0  -5   0    0.33    0.22 
   0  -5   0   -0.06    0.26 
   0  -5   0   -0.04    0.28 
   0   5   0   -0.02    0.17 
   0  -5  -1   12.33    0.62 
   0  -5  -1   14.04    0.62 
   0  -5  -1   12.40    0.61 
   0  -5  -1   14.01    0.39 
   0  -5  -1   12.94    0.49 
   0  -5  -1   15.64    0.69 
   0  -5  -1   14.06    0.67 
   0   5   1   13.55    0.62 
   0  -5  -2  156.26    1.94 
   0  -5  -2  180.85    2.06 
   0  -5  -2  177.29    2.06 
   0  -5  -2  166.28    1.16 
   0  -5  -2  191.64    2.16 
   0  -5  -2  186.66    2.10 
   0   5   2  174.37    2.05 
   0  -5  -3   23.63    0.84 
   0  -5  -3   25.89    0.82 
   0  -5  -3   24.38    0.81 
   0  -5  -3   26.94    0.91 
   0  -5  -3   27.62    0.88 
   0   5   3   23.92    0.80 
   0  -5  -4   61.07    1.28 
   0  -5  -4   67.56    1.31 
   0  -5  -4   73.90    1.44 
   0  -5  -4   72.73    1.37 
   0  -5  -5   24.94    0.88 
   0  -5  -5   29.33    0.92 
   0  -5  -5   32.86    1.01 
   0  -5  -6   69.19    1.35 
   0  -5  -6   86.15    1.54 
   0  -5  -7   18.94    0.77 
   0  -6   8   13.81    0.54 
   0   6  -8   15.38    0.59 
   0  -6   7   43.99    0.98 
   0  -6   7   48.08    1.02 
   0   6  -7   53.19    1.10 
   0  -6   6   14.77    0.70 
   0  -6   6   16.15    0.70 
   0   6  -6   17.69    0.75 
   0   6  -6   16.96    0.74 
   0  -6   5  156.56    2.05 
   0   6  -5  192.33    2.19 
   0   6  -5  179.95    2.17 
   0  -6   4  120.49    1.85 
   0  -6   4  119.95    1.77 
   0   6  -4  141.26    2.00 
   0  -6   3   78.69    1.53 
   0  -6   3   76.89    1.37 
   0  -6   3   76.25    1.49 
   0   6  -3   88.88    1.64 
   0  -6   2   24.22    0.93 
   0  -6   2   24.82    0.78 
   0  -6   2   23.97    0.87 
   0  -6   1   59.31    1.27 
   0  -6   1   87.87    1.61 
   0  -6   1   87.91    1.23 
   0  -6   1   86.49    1.38 
   0  -6   1   95.52    1.60 
   0  -6   1   94.63    1.68 
   0  -6   0   91.40    1.56 
   0  -6   0  131.79    1.93 
   0  -6   0  131.39    1.20 
   0  -6   0  127.51    1.50 
   0  -6   0  151.71    2.03 
   0  -6   0  146.53    2.05 
   0  -6  -1   69.62    1.43 
   0  -6  -1   84.27    1.55 
   0  -6  -1   83.76    1.02 
   0  -6  -1   97.75    1.69 
   0  -6  -1   92.94    1.63 
   0  -6  -2   19.03    0.81 
   0  -6  -2   23.85    0.89 
   0  -6  -2   26.20    0.97 
   0  -6  -2   25.53    0.94 
   0  -6  -3   62.65    1.35 
   0  -6  -3   75.90    1.46 
   0  -6  -3   84.88    1.61 
   0  -6  -3   81.85    1.52 
   0  -6  -4   85.22    1.55 
   0  -6  -4  120.17    1.79 
   0  -6  -4  133.87    1.97 
   0  -6  -4  127.27    1.83 
   0  -6  -5  125.47    1.84 
   0  -6  -5  152.02    1.93 
   0  -6  -5  164.81    2.12 
   0  -6  -6   10.69    0.62 
   0  -6  -6   15.75    0.74 
   0  -6  -7   30.09    0.85 
   0  -6  -7   46.47    1.00 
   0  -7   6   11.05    0.52 
   0   7  -6   12.55    0.51 
   0  -7   5    4.47    0.47 
   0  -7   5    4.04    0.46 
   0   7  -5    5.09    0.49 
   0  -7   4    9.75    0.61 
   0  -7   4   10.50    0.60 
   0   7  -4   12.81    0.68 
   0  -7   3   50.85    1.19 
   0  -7   3   49.67    1.01 
   0  -7   3   51.03    1.08 
   0   7  -3   59.64    1.28 
   0  -7   2   28.57    0.95 
   0  -7   2   25.55    0.59 
   0  -7   2   27.07    0.79 
   0   7  -2   34.07    1.04 
   0  -7   1   23.38    0.82 
   0  -7   1   52.02    1.24 
   0  -7   1   49.64    0.92 
   0  -7   1   56.61    1.21 
   0   7  -1   59.05    1.32 
   0  -7   0   -0.31    0.33 
   0  -7   0    0.07    0.29 
   0  -7   0   -0.05    0.16 
   0  -7   0   -0.24    0.28 
   0  -7  -1   25.67    0.92 
   0  -7  -1   47.98    1.18 
   0  -7  -1   56.26    1.28 
   0  -7  -1   51.95    1.25 
   0  -7  -2   13.52    0.71 
   0  -7  -2   28.04    0.92 
   0  -7  -2   29.94    0.97 
   0  -7  -2   27.45    0.94 
   0  -7  -3   32.07    0.96 
   0  -7  -3   52.51    1.16 
   0  -7  -3   56.96    1.26 
   0  -7  -3   55.85    1.20 
   0  -7  -4    7.06    0.57 
   0  -7  -4   10.19    0.57 
   0  -7  -4   11.13    0.65 
   0  -7  -4   11.41    0.59 
   0  -7  -5    4.58    0.47 
   0  -7  -5    4.25    0.40 
   0  -7  -5    4.64    0.49 
   0  -7  -6    7.62    0.45 
   0  -7  -6   11.57    0.54 
   0  -8   3    7.68    0.44 
   0  -8   3    7.44    0.27 
   0   8  -3    8.53    0.47 
   0  -8   2    0.08    0.21 
   0   8  -2    0.18    0.22 
   0  -8   1   10.03    0.52 
   0   8  -1   11.52    0.56 
   0  -8   0    0.99    0.28 
   0  -8   0    4.82    0.40 
   0  -8   0    5.66    0.43 
   0   8   0    5.93    0.46 
   0  -8  -1    3.80    0.42 
   0  -8  -1   10.11    0.51 
   0  -8  -1   11.02    0.53 
   0   8   1   12.65    0.56 
   0  -8  -2    0.08    0.26 
   0  -8  -2    0.17    0.20 
   0  -8  -2    0.11    0.22 
   0   8   2    0.35    0.20 
   0  -8  -3    3.18    0.35 
   0  -8  -3    6.89    0.40 
   0  -8  -3    8.30    0.47 
   0  -8  -4   10.63    0.46 
   0  -8  -4   35.81    1.10 
   1  -8  -4    9.83    0.51 
   1  -8  -3    9.62    0.47 
   1  -8  -3   35.31    0.77 
   1  -8  -2    6.54    0.43 
   1  -8  -2   12.85    0.51 
   1  -8  -2   15.42    0.58 
  -1   8   1    0.43    0.23 
   1  -8  -1    0.29    0.26 
   1  -8  -1    0.23    0.19 
   1  -8  -1    0.40    0.23 
  -1   8   0    4.64    0.44 
   1  -8   0    3.87    0.37 
   1  -8   0    4.80    0.40 
  -1   8  -1    3.68    0.40 
   1  -8   1    3.21    0.36 
  -1   8  -2   48.75    0.88 
   1  -8   2   42.31    0.84 
   1  -8   3    0.92    0.21 
   1  -7  -6   12.22    0.55 
   1  -7  -6   23.02    0.68 
   1  -7  -6   22.09    0.64 
   1  -7  -5    3.27    0.46 
   1  -7  -5    4.03    0.46 
   1  -7  -5    4.49    0.45 
   1  -7  -4   17.43    0.76 
   1  -7  -4   34.95    0.99 
   1  -7  -4   34.45    0.96 
   1  -7  -3   10.09    0.65 
   1  -7  -3   15.84    0.67 
   1  -7  -3   19.15    0.81 
   1  -7  -3   18.50    0.79 
   1  -7  -2   26.97    0.91 
   1  -7  -2   47.13    1.10 
   1  -7  -2   53.56    1.24 
   1  -7  -2   51.47    1.24 
   1  -7  -1   10.55    0.65 
   1  -7  -1   26.38    0.89 
   1  -7  -1   28.88    0.97 
   1  -7  -1   27.68    0.99 
   1  -7   0    4.97    0.53 
   1  -7   0   17.80    0.77 
   1  -7   0   17.55    0.51 
   1  -7   0   19.71    0.83 
   1  -7   0   19.38    0.86 
   1  -7   1   15.68    0.75 
   1  -7   1   15.02    0.58 
   1  -7   1   18.31    0.77 
  -1   7  -2   31.98    0.97 
   1  -7   2   27.92    0.92 
   1  -7   2   26.02    0.63 
   1  -7   2   27.87    0.80 
  -1   7  -3   13.40    0.67 
   1  -7   3   11.73    0.64 
   1  -7   3   11.82    0.61 
  -1   7  -4   19.33    0.68 
  -1   7  -4   18.21    0.69 
   1  -7   4   17.39    0.71 
   1  -7   4   16.03    0.66 
  -1   7  -5   21.95    0.66 
   1  -7   5   17.95    0.67 
   1  -7   5   17.71    0.66 
  -1   7  -6    5.09    0.53 
   1  -7   6    4.22    0.37 
   1  -6  -7    1.95    0.37 
   1  -6  -7    3.58    0.41 
   1  -6  -6   10.46    0.65 
   1  -6  -6   13.69    0.69 
   1  -6  -6   13.70    0.70 
   1  -6  -5   49.51    1.20 
   1  -6  -5   59.63    1.31 
   1  -6  -5   62.58    1.34 
   1  -6  -4   11.37    0.68 
   1  -6  -4   15.07    0.79 
   1  -6  -4   15.20    0.79 
   1  -6  -3  202.78    2.38 
   1  -6  -3  239.98    2.46 
   1  -6  -3  275.15    2.80 
   1  -6  -3  267.68    2.74 
   1  -6  -2   80.68    1.53 
   1  -6  -2   97.90    1.63 
   1  -6  -2   89.59    0.65 
   1  -6  -2  109.05    1.78 
   1  -6  -2  103.04    1.76 
   1  -6  -1   28.63    0.96 
   1  -6  -1   31.34    0.99 
   1  -6  -1   30.66    0.70 
   1  -6  -1   37.01    1.10 
   1  -6  -1   35.28    1.10 
   1  -6   0   92.52    1.56 
   1  -6   0  124.83    1.87 
   1  -6   0  125.32    1.26 
   1  -6   0  127.61    1.56 
   1  -6   0  150.08    2.06 
   1  -6   0  141.20    2.03 
  -1   6  -1   69.90    1.38 
   1  -6   1   60.54    1.35 
   1  -6   1   62.08    1.08 
   1  -6   1   59.37    1.20 
   1  -6   1   69.69    1.40 
   1  -6   1   65.96    1.42 
  -1   6  -2   90.02    1.57 
   1  -6   2   74.00    1.48 
   1  -6   2   77.46    1.31 
   1  -6   2   74.88    1.42 
   1  -6   2   81.17    1.54 
  -1   6  -3   98.11    1.65 
  -1   6  -3  101.85    1.70 
   1  -6   3   86.81    1.61 
   1  -6   3   85.83    1.46 
   1  -6   3   87.95    1.60 
  -1   6  -4   86.92    1.55 
   1  -6   4   74.89    1.49 
  -1   6  -5   30.97    0.99 
   1  -6   5   26.20    0.92 
  -1   6  -6   39.26    1.03 
   1  -6   6   34.27    0.96 
  -1   6  -7   64.79    1.18 
   1  -6   7   55.54    1.08 
  -1   6  -8   25.45    0.68 
   1  -6   8   20.43    0.67 
   1  -5  -7   80.51    1.43 
   1  -5  -7   99.81    1.59 
   1  -5  -6  137.51    1.92 
   1  -5  -6  167.75    2.08 
   1  -5  -6  166.81    2.10 
   1  -5  -5   41.90    1.10 
   1  -5  -5   47.43    1.17 
   1  -5  -5   46.77    1.17 
   1  -5  -4   56.79    1.26 
   1  -5  -4   68.12    1.36 
   1  -5  -4   67.48    1.36 
   1  -5  -3   19.64    0.79 
   1  -5  -3   21.08    0.74 
   1  -5  -3   21.14    0.76 
   1  -5  -3   25.08    0.89 
   1  -5  -3   24.39    0.86 
   1  -5  -2   91.97    1.51 
   1  -5  -2  103.29    1.54 
   1  -5  -2   97.29    1.51 
   1  -5  -2   95.33    1.02 
   1  -5  -2  114.86    1.70 
   1  -5  -2  107.30    1.65 
  -1   5   1  270.55    2.49 
   1  -5  -1  251.22    2.41 
   1  -5  -1  277.01    2.50 
   1  -5  -1  258.08    2.42 
   1  -5  -1  280.02    1.73 
   1  -5  -1  260.47    1.96 
   1  -5  -1  307.00    2.71 
   1  -5  -1  289.88    2.50 
   1  -5  -1  294.11    2.66 
  -1   5   0    8.00    0.47 
  -1   5   0    6.92    0.58 
   1  -5   0    5.82    0.48 
   1  -5   0    6.86    0.47 
   1  -5   0    6.05    0.48 
   1  -5   0    6.96    0.43 
   1  -5   0    6.18    0.48 
   1  -5   0    7.36    0.54 
   1  -5   0    6.46    0.58 
  -1   5  -1   15.19    0.60 
  -1   5  -1   14.40    0.71 
   1  -5   1   14.97    0.67 
   1  -5   1   12.39    0.64 
   1  -5   1   14.46    0.61 
   1  -5   1   13.85    0.66 
   1  -5   1   16.21    0.73 
   1  -5   1   14.84    0.71 
  -1   5  -2   83.90    1.46 
   1  -5   2   69.72    1.34 
   1  -5   2   74.07    1.39 
   1  -5   2   79.74    1.36 
   1  -5   2   72.02    1.37 
   1  -5   2   83.98    1.43 
   1  -5   2   81.20    1.46 
  -1   5  -3  202.69    2.29 
   1  -5   3  176.36    2.18 
   1  -5   3  186.21    2.17 
   1  -5   3  188.95    2.18 
  -1   5  -4   53.35    1.26 
  -1   5  -4   52.90    1.20 
   1  -5   4   44.15    1.17 
  -1   5  -5  141.42    2.00 
   1  -5   5  118.15    1.83 
  -1   5  -6  110.43    1.80 
   1  -5   6   95.13    1.66 
  -1   5  -7   38.67    1.10 
   1  -5   7   32.99    0.98 
   1  -5   7   35.04    0.96 
  -1   5  -8   26.61    0.85 
  -1   5  -8   30.50    0.94 
   1  -5   8   26.31    0.82 
   1  -5   8   28.00    0.80 
  -1   5  -9    5.45    0.42 
  -1   5  -9    6.28    0.49 
   1  -5   9    5.38    0.40 
   1  -4  -7   99.64    1.57 
   1  -4  -7  129.95    1.80 
   1  -4  -6    0.77    0.28 
   1  -4  -6    0.47    0.28 
   1  -4  -5    1.76    0.30 
   1  -4  -5    2.20    0.33 
   1  -4  -5    2.64    0.38 
   1  -4  -5    3.36    0.42 
   1  -4  -4   81.67    1.34 
   1  -4  -3  204.47    2.03 
   1  -4  -3  207.02    1.88 
   1  -4  -2   72.15    1.19 
   1  -4  -2   68.30    1.09 
   1  -4  -2   64.83    0.62 
   1  -4  -1  186.06    1.82 
   1  -4  -1  183.22    1.77 
   1  -4  -1  178.49    1.36 
   1  -4   0  129.08    1.48 
   1  -4   0  120.61    1.47 
   1  -4   0  118.92    1.27 
   1  -4   1  108.13    1.43 
   1  -4   1  108.51    1.33 
   1  -4   2  291.47    2.40 
   1  -4   2  292.52    2.35 
   1  -4   3   28.75    0.84 
  -1   4  -4  139.58    1.83 
   1  -4   4  128.88    1.75 
   1  -4   4  122.41    1.72 
  -1   4  -5  131.71    1.87 
   1  -4   5  104.57    1.64 
   1  -4   5  106.66    1.68 
   1  -4   5  109.41    1.60 
  -1   4  -6   27.26    0.98 
   1  -4   6   21.50    0.86 
   1  -4   6   23.80    0.87 
  -1   4  -7   71.15    1.39 
  -1   4  -7   79.99    1.56 
   1  -4   7   65.04    1.36 
   1  -4   7   70.68    1.41 
  -1   4  -8   41.01    0.98 
  -1   4  -8   41.20    1.09 
  -1   4  -8   48.43    1.23 
   1  -4   8   38.41    1.04 
   1  -4   8   41.13    1.11 
  -1   4  -9   55.06    1.07 
  -1   4  -9   63.91    1.30 
   1  -4   9   51.27    1.06 
   1  -4   9   57.75    1.19 
  -1   4 -10    9.82    0.39 
  -1   4 -10   10.55    0.55 
   1  -4  10    9.32    0.50 
   1  -3  -9   20.84    1.11 
   1  -3  -8  130.55    1.81 
   1  -3  -6   97.47    1.39 
   1  -3  -5   11.56    0.52 
   1  -3  -4  116.43    1.40 
   1  -3  -4  117.11    1.22 
   1  -3  -3  349.95    2.30 
   1  -3  -3  341.00    2.01 
   1  -3  -2  675.61    3.05 
   1  -3  -2  668.10    2.77 
   1  -3  -2  560.70    2.76 
   1  -3  -1  175.96    1.50 
   1  -3  -1  168.66    1.41 
   1  -3  -1  153.54    1.12 
   1  -3   0   36.90    0.69 
   1  -3   0   34.97    0.69 
   1  -3   0   32.36    0.61 
   1  -3   1   19.79    0.50 
   1  -3   1   19.78    0.56 
   1  -3   1   16.92    0.52 
   1  -3   2  231.52    1.86 
   1  -3   2  215.55    1.79 
   1  -3   3   27.27    0.71 
   1  -3   4    5.22    0.40 
  -1   3  -5   31.72    0.87 
   1  -3   5   32.17    0.88 
  -1   3  -6   95.85    1.49 
  -1   3  -6   95.47    1.52 
  -1   3  -6  102.61    1.63 
  -1   3  -6  103.37    1.66 
   1  -3   6   87.14    1.47 
   1  -3   6   86.00    1.48 
  -1   3  -7  119.98    1.76 
  -1   3  -7  130.15    1.88 
  -1   3  -7  139.52    1.98 
  -1   3  -7  130.56    1.82 
   1  -3   7  114.15    1.75 
  -1   3  -8   54.87    1.07 
  -1   3  -8   55.15    1.20 
  -1   3  -8   59.47    1.35 
  -1   3  -8   62.26    1.39 
  -1   3  -8   62.69    1.33 
   1  -3   8   49.60    1.19 
  -1   3  -9   27.75    0.62 
  -1   3  -9   29.56    0.83 
  -1   3  -9   32.44    1.04 
  -1   3  -9   33.06    0.98 
   1  -3   9   26.85    0.87 
  -1   3 -10   15.70    0.47 
  -1   3 -10   17.67    0.75 
  -1   3 -10   18.39    0.70 
  -1   3 -11   35.40    0.79 
  -1   3 -11   27.64    0.75 
   1  -3  11   30.64    0.76 
   1  -2 -12    4.61    0.40 
   1  -2 -12    4.99    0.44 
   1  -2 -11    5.50    0.53 
   1  -2 -11    7.31    0.59 
   1  -2 -11    6.84    0.58 
   1  -2 -10   23.92    0.88 
   1  -2 -10   28.43    0.92 
   1  -2 -10   27.54    0.94 
   1  -2  -9    5.28    0.55 
   1  -2  -9    5.84    0.56 
   1  -2  -9    5.71    0.58 
   1  -2  -8   63.93    1.26 
   1  -2  -8   74.86    1.38 
   1  -2  -8   76.43    1.42 
  -1   2   7   31.85    0.82 
  -1   2   6   36.60    0.79 
   1  -2  -6   37.58    0.77 
  -1   2   5  878.26    4.34 
   1  -2  -5 1000.00    3.67 
  -1   2   4   16.94    0.44 
   1  -2  -4   17.20    0.50 
   1  -2  -4   16.73    0.40 
  -1   2   3  996.38    7.37 
   1  -2  -3 1044.00    7.17 
   1  -2  -3 1152.00    5.59 
  -1   2   2   21.74    0.31 
   1  -2  -2   24.67    0.53 
   1  -2  -2   23.01    0.44 
   1  -2  -1  208.92    1.35 
   1  -2  -1  196.27    1.19 
   1  -2   0  306.31    1.54 
   1  -2   0  285.31    1.51 
  -1   2  -1   44.80    0.38 
   1  -2   1   42.23    0.56 
   1  -2   1   42.24    0.65 
  -1   2  -2   30.03    0.45 
   1  -2   2   24.99    0.40 
   1  -2   2   26.29    0.57 
  -1   2  -3  168.28    1.22 
   1  -2   3  145.15    1.38 
  -1   2  -4   35.95    0.76 
  -1   2  -4   44.07    0.76 
   1  -2   4   38.16    0.79 
  -1   2  -5   25.74    0.69 
   1  -2   5   25.96    0.72 
  -1   2  -6  292.51    2.23 
   1  -2   6  285.87    2.43 
   1  -2   6  288.15    2.34 
  -1   2  -7  165.84    1.95 
  -1   2  -7  168.27    1.85 
  -1   2  -7  183.66    2.15 
  -1   2  -7  204.42    2.24 
  -1   2  -7  196.24    2.20 
   1  -2   7  173.86    2.03 
   1  -2   7  165.79    2.00 
   1  -2   7  173.24    1.97 
  -1   2  -8   11.62    0.68 
  -1   2  -8   13.04    0.51 
  -1   2  -8   12.43    0.60 
  -1   2  -8   13.26    0.77 
  -1   2  -8   14.61    0.72 
  -1   2  -8   14.06    0.75 
   1  -2   8   12.46    0.68 
  -1   2  -9   18.00    0.80 
  -1   2  -9   17.55    0.61 
  -1   2  -9   19.01    0.88 
  -1   2  -9   21.30    0.86 
  -1   2  -9   21.03    0.87 
  -1   2 -10   36.30    0.99 
  -1   2 -10   42.05    1.13 
  -1   2 -10   43.13    1.09 
  -1   2 -10   42.13    1.10 
  -1   2 -11   30.99    0.79 
  -1   2 -11   36.84    0.86 
  -1   2 -11   36.35    0.89 
   1  -1 -12   57.79    1.10 
   1  -1 -12   63.98    1.09 
   1  -1 -12   64.07    1.18 
   1  -1 -11  101.79    1.63 
   1  -1 -11  121.72    1.75 
   1  -1 -11  118.12    1.78 
   1  -1 -10   27.34    0.97 
   1  -1 -10   31.93    1.01 
   1  -1 -10   31.82    1.04 
   1  -1  -9   88.92    1.56 
   1  -1  -9  103.18    1.66 
   1  -1  -9  100.65    1.69 
  -1   1   8    4.08    0.40 
   1  -1  -8    4.38    0.46 
   1  -1  -8    5.14    0.52 
   1  -1  -8    4.95    0.49 
  -1   1   7   34.77    0.87 
  -1   1   6  139.98    1.51 
  -1   1   5  315.94    2.01 
   1  -1  -5  326.19    1.80 
   1  -1  -5  326.53    1.46 
  -1   1   4  449.30    1.81 
  -1   1   4  447.12    2.08 
   1  -1  -4  510.50    2.12 
   1  -1  -4  537.30    2.68 
  -1   1   3  139.84    1.00 
   1  -1  -3  145.87    1.07 
   1  -1  -3  140.86    0.72 
   1  -1  -3  155.10    0.73 
  -1   1   2  147.75    0.85 
   1  -1  -2  155.42    1.02 
   1  -1  -2  152.14    0.68 
  -1   1   1  433.57    2.31 
   1  -1  -1  416.49    2.97 
   1  -1  -1  385.67    2.08 
  -1   1   0 1327.00    4.70 
   1  -1   0 1272.00    5.85 
   1  -1   0 1159.00    5.60 
   1  -1   0 1239.00    6.18 
  -1   1  -1 1664.00    6.64 
   1  -1   1 1514.00    5.86 
   1  -1   1 1436.00    7.27 
   1  -1   1 1496.00    7.39 
  -1   1  -2  408.25    2.12 
   1  -1   2  366.82    1.11 
   1  -1   2  380.49    1.76 
  -1   1  -3  590.40    3.60 
   1  -1   3  495.62    3.11 
  -1   1  -4  103.10    1.04 
  -1   1  -4  130.16    1.26 
   1  -1   4  110.26    1.20 
  -1   1  -5    1.74    0.24 
  -1   1  -5    1.93    0.30 
   1  -1   5    1.54    0.27 
  -1   1  -6  311.05    1.94 
  -1   1  -6  352.04    2.59 
   1  -1   6  295.11    2.34 
  -1   1  -7   44.07    1.03 
  -1   1  -7   47.55    1.10 
  -1   1  -7   52.04    0.79 
  -1   1  -7   47.11    0.87 
  -1   1  -7   51.90    1.16 
  -1   1  -7   55.95    1.14 
  -1   1  -7   56.96    1.20 
   1  -1   7   50.55    1.08 
  -1   1  -8   34.02    0.97 
  -1   1  -8   35.83    1.04 
  -1   1  -8   37.96    0.44 
  -1   1  -8   34.94    0.73 
  -1   1  -8   42.26    1.16 
  -1   1  -8   43.62    1.11 
  -1   1  -8   43.32    1.15 
  -1   1  -9    4.92    0.59 
  -1   1  -9    5.24    0.28 
  -1   1  -9    5.58    0.64 
  -1   1  -9    6.35    0.58 
  -1   1  -9    6.15    0.63 
  -1   1 -10  113.26    1.75 
  -1   1 -10  121.80    1.87 
  -1   1 -10  130.25    1.78 
  -1   1 -10  125.74    1.88 
  -1   1 -11    2.26    0.37 
  -1   1 -11    2.28    0.38 
  -1   1 -11    2.17    0.37 
  -1   1 -12   56.81    0.91 
  -1   1 -12   66.78    1.03 
   1   0 -13    0.33    0.21 
   1   0 -13    0.06    0.17 
   1   0 -12   27.27    0.86 
   1   0 -12   28.61    0.83 
   1   0 -12   29.00    0.86 
   1   0 -11   20.34    0.86 
   1   0 -11   22.13    0.82 
   1   0 -11   24.66    0.89 
   1   0 -11   23.63    0.90 
   1   0 -10  224.23    2.54 
   1   0 -10  240.27    2.49 
   1   0 -10  245.73    2.61 
   1   0 -10  255.80    2.72 
   1   0  -9    0.21    0.31 
   1   0  -9    0.47    0.33 
   1   0  -9    1.19    0.35 
   1   0  -9    0.32    0.30 
  -1   0   8   91.07    1.49 
   1   0  -8   89.51    1.50 
   1   0  -8   92.21    0.73 
   1   0  -8   88.00    0.72 
   1   0  -8   97.50    1.50 
   1   0  -8  104.38    1.60 
   1   0  -8  103.79    1.61 
  -1   0   7  217.18    2.09 
   1   0  -7  214.28    1.32 
  -1   0   6  134.78    1.50 
   1   0  -6  137.00    1.06 
   1   0  -6  134.24    0.84 
  -1   0   5   -0.03    0.17 
   1   0  -5    0.81    0.14 
   1   0  -5    0.20    0.12 
   1   0  -5    0.14    0.11 
  -1   0   4  167.67    0.82 
  -1   0   4  174.50    1.34 
   1   0  -4  176.68    1.09 
   1   0  -4  188.04    1.09 
  -1   0   3  457.66    2.75 
  -1   0   3  886.86    5.28 
   1   0  -3  382.65    4.83 
  -1   0   2   53.90    0.57 
   1   0  -2   55.43    0.55 
  -1   0   1  818.95    4.28 
   1   0  -1  853.80    4.64 
   1   0  -1  347.45    1.51 
   1   0  -1  852.28    4.42 
  -1   0   0 1529.00    6.16 
   1   0   0 1132.00    5.15 
   1   0   0 1564.00    5.47 
   1   0   0 1534.00    6.23 
  -1   0  -1 1153.00    7.75 
   1   0   1  580.19    5.77 
   1   0   1  764.78    6.62 
   1   0   1  564.74    6.54 
  -1   0  -2 1794.00    8.55 
   1   0   2 1497.00    6.12 
   1   0   2 1806.00    8.26 
  -1   0  -3  438.37    1.73 
  -1   0  -3  544.83    2.27 
   1   0   3  403.46    1.63 
   1   0   3  422.22    1.99 
  -1   0  -4   84.39    0.76 
  -1   0  -4  108.72    1.17 
   1   0   4   90.80    1.05 
  -1   0  -5  185.59    1.13 
  -1   0  -5  225.61    1.88 
   1   0   5  184.84    1.66 
  -1   0  -6    6.62    0.23 
  -1   0  -6    1.36    0.29 
   1   0   6    1.54    0.28 
  -1   0  -7    5.09    0.51 
  -1   0  -7    5.14    0.28 
  -1   0  -7    6.75    0.52 
  -1   0  -7    5.74    0.50 
  -1   0  -7    6.52    0.54 
   1   0   7    5.45    0.43 
  -1   0  -8   14.84    0.69 
  -1   0  -8   14.78    0.72 
  -1   0  -8   17.65    0.78 
  -1   0  -8   17.84    0.80 
  -1   0  -9    1.87    0.43 
  -1   0  -9    1.54    0.39 
  -1   0  -9    1.82    0.42 
  -1   0 -10    6.03    0.62 
  -1   0 -10    7.23    0.68 
  -1   0 -10    7.98    0.68 
  -1   0 -11   36.19    0.99 
  -1   0 -11   38.45    1.01 
  -1   0 -11   40.60    1.03 
  -1   0 -12    3.62    0.38 
  -1   0 -12    3.92    0.37 
  -1   0 -12    3.94    0.38 
  -1  -1  12   60.08    1.09 
   1   1 -12   58.65    1.15 
   1   1 -12   65.90    1.18 
   1   1 -12   67.98    1.21 
   1   1 -11  105.18    1.69 
   1   1 -11  118.60    1.78 
   1   1 -11  114.77    1.75 
   1   1 -10   28.95    1.01 
   1   1 -10   30.39    1.00 
   1   1 -10   32.02    1.04 
   1   1 -10   31.42    1.02 
   1   1  -9   87.13    1.57 
   1   1  -9   84.72    1.00 
   1   1  -9   95.95    1.63 
   1   1  -9  102.90    1.70 
   1   1  -9  103.30    1.72 
  -1  -1   8    4.66    0.44 
   1   1  -8    4.46    0.51 
   1   1  -8    4.21    0.26 
   1   1  -8    3.61    0.32 
   1   1  -8    4.68    0.53 
   1   1  -8    4.70    0.48 
   1   1  -8    4.52    0.51 
  -1  -1   7   33.91    0.88 
   1   1  -7   34.50    0.65 
  -1  -1   6  148.36    1.60 
   1   1  -6  143.11    1.26 
  -1  -1   5  327.95    2.12 
   1   1  -5  299.01    1.74 
  -1  -1   4  502.74    1.76 
  -1  -1   4  488.20    2.30 
   1   1  -4  472.77    1.75 
   1   1  -4  549.07    3.04 
  -1  -1   3  137.16    0.82 
  -1  -1   3  146.68    1.12 
   1   1  -3  139.55    0.93 
   1   1  -3  146.44    1.09 
  -1  -1   2  152.23    0.79 
  -1  -1   2  152.21    1.01 
   1   1  -2  153.51    0.94 
   1   1  -2  157.77    1.04 
  -1  -1   1  403.83    2.33 
  -1  -1   1  443.83    2.32 
   1   1  -1  387.37    2.66 
   1   1  -1  435.63    1.98 
  -1  -1   0 1331.00    5.82 
  -1  -1   0 1233.00    5.58 
   1   1   0 1075.00    5.76 
   1   1   0 1210.00    6.63 
  -1  -1  -1 1521.00    7.33 
  -1  -1  -1 1460.00    6.11 
  -1  -1  -1 1528.00    7.34 
   1   1   1 1313.00    6.72 
  -1  -1  -2  378.33    1.75 
  -1  -1  -2  349.88    1.24 
  -1  -1  -2  421.79    2.47 
   1   1   2  323.23    2.18 
  -1  -1  -3  522.00    2.13 
  -1  -1  -3  606.58    2.48 
   1   1   3  472.88    3.12 
  -1  -1  -4  111.26    0.73 
  -1  -1  -4  129.10    1.31 
   1   1   4  109.34    1.19 
  -1  -1  -5    1.98    0.14 
  -1  -1  -5    1.91    0.32 
   1   1   5    1.19    0.23 
  -1  -1  -6  359.14    2.66 
   1   1   6  301.48    2.35 
  -1  -1  -7   42.65    1.07 
  -1  -1  -7   49.69    1.12 
  -1  -1  -7   60.86    1.22 
  -1  -1  -7   56.23    1.19 
  -1  -1  -7   54.96    1.17 
   1   1   7   51.32    1.07 
  -1  -1  -8   34.50    0.96 
  -1  -1  -8   35.83    1.03 
  -1  -1  -8   40.75    1.09 
  -1  -1  -8   42.83    1.13 
  -1  -1  -9    4.85    0.58 
  -1  -1  -9    5.90    0.61 
  -1  -1  -9    6.07    0.60 
  -1  -1 -10  110.65    1.76 
  -1  -1 -10  122.00    1.83 
  -1  -1 -10  130.46    1.87 
  -1  -1 -11    1.90    0.37 
  -1  -1 -11    2.19    0.36 
  -1  -1 -11    2.81    0.41 
  -1  -1 -12   56.20    0.94 
  -1  -1 -12   50.36    1.25 
  -1  -1 -12   66.21    1.36 
  -1  -2  12    5.03    0.43 
   1   2 -12    4.35    0.41 
   1   2 -12    5.11    0.45 
   1   2 -12    4.52    0.41 
  -1  -2  11    6.54    0.58 
   1   2 -11    6.23    0.57 
   1   2 -11    6.76    0.60 
   1   2 -11    6.71    0.56 
   1   2 -10   24.76    0.93 
   1   2 -10   24.06    0.61 
   1   2 -10   28.59    1.00 
   1   2 -10   29.08    0.97 
   1   2  -9    4.99    0.59 
   1   2  -9    4.78    0.33 
   1   2  -9    5.61    0.46 
   1   2  -9    5.67    0.60 
   1   2  -9    6.14    0.61 
   1   2  -9    6.09    0.58 
  -1  -2   8   60.75    1.25 
   1   2  -8   63.74    1.32 
   1   2  -8   70.45    1.08 
   1   2  -8   64.71    1.16 
   1   2  -8   69.10    1.37 
   1   2  -8   75.22    1.43 
   1   2  -8   74.29    1.37 
   1   2  -8   85.35    1.69 
  -1  -2   7   31.35    0.85 
   1   2  -7   34.54    0.81 
   1   2  -7   33.89    0.95 
   1   2  -7   36.87    0.98 
  -1  -2   6   36.73    0.85 
   1   2  -6   39.20    0.84 
   1   2  -6   36.07    0.80 
  -1  -2   5  963.05    3.31 
  -1  -2   5  909.45    5.66 
   1   2  -5  953.14    5.05 
   1   2  -5  896.16    3.58 
  -1  -2   4   16.85    0.45 
  -1  -2   4   16.88    0.51 
   1   2  -4   19.30    0.43 
   1   2  -4   18.31    0.55 
   1   2  -4   15.90    0.50 
  -1  -2   3 1048.00    6.48 
  -1  -2   3 1026.00    5.89 
   1   2  -3 1008.00    6.26 
   1   2  -3 1086.00    6.04 
  -1  -2   2   22.95    0.47 
  -1  -2   2   22.03    0.45 
   1   2  -2   22.47    0.46 
   1   2  -2   22.29    0.51 
  -1  -2   1  203.07    1.28 
  -1  -2   1  198.07    1.14 
   1   2  -1  196.02    1.29 
  -1  -2   0  305.97    1.61 
  -1  -2   0  313.06    1.42 
   1   2   0  278.51    1.56 
  -1  -2  -1   41.42    0.65 
  -1  -2  -1   42.70    0.58 
   1   2   1   39.28    0.62 
  -1  -2  -2   25.82    0.57 
  -1  -2  -2   30.40    0.56 
   1   2   2   25.15    0.52 
  -1  -2  -3  149.28    1.38 
  -1  -2  -3  173.00    1.41 
   1   2   3  142.81    1.23 
  -1  -2  -4   37.93    0.78 
  -1  -2  -4   45.90    0.84 
   1   2   4   36.89    0.66 
  -1  -2  -5   30.36    0.77 
   1   2   5   24.83    0.69 
  -1  -2  -6  332.96    2.62 
   1   2   6  277.28    2.37 
  -1  -2  -7  165.92    1.96 
  -1  -2  -7  171.02    2.04 
  -1  -2  -7  203.67    2.22 
  -1  -2  -7  191.41    2.17 
  -1  -2  -7  193.99    2.10 
   1   2   7  170.75    1.98 
  -1  -2  -8   10.42    0.61 
  -1  -2  -8   12.24    0.69 
  -1  -2  -8   13.10    0.73 
  -1  -2  -8   13.52    0.69 
  -1  -2  -9   17.53    0.80 
  -1  -2  -9   19.94    0.85 
  -1  -2  -9   21.21    0.84 
  -1  -2 -10   36.26    1.02 
  -1  -2 -10   40.43    1.07 
  -1  -2 -10   40.43    1.02 
  -1  -2 -11   32.13    0.85 
  -1  -2 -11   34.06    0.85 
  -1  -3  12   35.09    0.75 
   1   3 -12   39.95    0.81 
  -1  -3  11    6.05    0.54 
   1   3 -11    6.42    0.53 
  -1  -3  10   46.75    1.19 
   1   3 -10   45.22    1.09 
   1   3 -10   42.36    0.55 
   1   3 -10   44.97    0.91 
   1   3 -10   54.49    1.27 
  -1  -3   9   18.59    0.88 
   1   3  -9   17.97    0.78 
   1   3  -9   18.69    0.63 
   1   3  -9   18.27    0.74 
  -1  -3   8  122.73    1.89 
   1   3  -8  115.24    1.73 
   1   3  -8  122.61    1.62 
   1   3  -8  116.90    1.71 
   1   3  -8  139.48    1.97 
   1   3  -8  135.48    1.84 
  -1  -3   7   42.68    1.13 
   1   3  -7   43.55    1.03 
   1   3  -7   41.37    1.07 
   1   3  -7   47.77    1.13 
   1   3  -7   48.78    1.12 
  -1  -3   6   95.34    1.36 
  -1  -3   6  101.46    1.55 
   1   3  -6  103.80    1.50 
  -1  -3   5   11.00    0.47 
  -1  -3   5   10.65    0.47 
   1   3  -5   11.15    0.56 
  -1  -3   4  116.60    1.31 
  -1  -3   4  109.97    1.21 
   1   3  -4  115.57    1.18 
  -1  -3   3  322.20    2.07 
  -1  -3   3  325.30    1.86 
   1   3  -3  332.11    2.00 
  -1  -3   2  676.53    2.93 
  -1  -3   2  590.36    2.78 
  -1  -3   2  627.05    2.34 
   1   3  -2  600.00    4.49 
  -1  -3   1  166.30    1.45 
  -1  -3   1  150.83    1.31 
  -1  -3   1  162.51    1.12 
   1   3  -1  168.47    1.46 
  -1  -3   0   35.90    0.71 
  -1  -3   0   32.22    0.58 
  -1  -3   0   35.82    0.55 
   1   3   0   35.02    0.70 
  -1  -3  -1   19.15    0.56 
  -1  -3  -1   17.64    0.39 
  -1  -3  -1   21.13    0.46 
   1   3   1   18.92    0.54 
  -1  -3  -2  245.00    1.91 
  -1  -3  -2  226.11    0.86 
  -1  -3  -2  269.00    1.65 
   1   3   2  229.77    1.82 
  -1  -3  -3   28.34    0.73 
  -1  -3  -3   31.79    0.66 
   1   3   3   27.77    0.68 
  -1  -3  -4    5.33    0.42 
  -1  -3  -4    6.74    0.40 
   1   3   4    5.55    0.37 
  -1  -3  -5   33.40    0.86 
  -1  -3  -5   35.84    0.85 
  -1  -3  -6   87.67    1.44 
  -1  -3  -6  111.71    2.01 
  -1  -3  -6  100.96    1.56 
   1   3   6   88.96    1.43 
  -1  -3  -7  112.66    1.69 
  -1  -3  -7  112.02    1.66 
  -1  -3  -7  131.92    1.85 
  -1  -3  -8   48.55    1.15 
  -1  -3  -8   50.16    1.17 
  -1  -3  -8   57.78    1.29 
  -1  -3  -9   26.93    0.88 
  -1  -3  -9   30.94    0.96 
  -1  -3 -10   15.06    0.64 
  -1  -3 -10   16.45    0.67 
  -1  -4  11   10.91    0.53 
   1   4 -11   10.52    0.28 
   1   4 -11   11.50    0.54 
  -1  -4  10    9.66    0.64 
   1   4 -10    9.45    0.51 
   1   4 -10   11.01    0.62 
  -1  -4   9   79.69    1.52 
   1   4  -9   71.15    1.18 
   1   4  -9   74.81    1.37 
   1   4  -9   83.90    1.51 
  -1  -4   8  157.20    2.14 
   1   4  -8  151.50    1.92 
   1   4  -8  151.10    2.07 
   1   4  -8  176.59    2.21 
   1   4  -8  171.97    2.09 
  -1  -4   7  121.90    1.88 
   1   4  -7  118.70    1.80 
   1   4  -7  136.79    1.93 
   1   4  -7  131.25    1.86 
  -1  -4   6    0.58    0.31 
   1   4  -6    0.64    0.32 
   1   4  -6    0.70    0.29 
  -1  -4   5    2.44    0.38 
   1   4  -5    2.79    0.38 
   1   4  -5    2.45    0.36 
  -1  -4   4   80.57    1.27 
  -1  -4   3  202.22    1.95 
  -1  -4   3  194.07    1.97 
   1   4  -3  205.03    1.85 
  -1  -4   2   67.25    1.12 
  -1  -4   2   64.06    1.08 
   1   4  -2   68.32    1.09 
  -1  -4   1  186.37    1.84 
  -1  -4   1  177.08    1.61 
   1   4  -1  180.97    1.78 
  -1  -4   0  128.12    1.54 
  -1  -4   0  116.95    1.19 
   1   4   0  123.44    1.50 
  -1  -4  -1  113.14    1.47 
  -1  -4  -1  107.10    0.96 
   1   4   1  111.89    1.46 
  -1  -4  -2  310.15    2.47 
   1   4   2  302.11    2.43 
  -1  -4  -3   28.88    0.83 
   1   4   3   28.31    0.80 
  -1  -4  -4  131.90    1.85 
  -1  -4  -4  130.99    1.73 
  -1  -4  -4  122.83    1.69 
  -1  -4  -4  134.32    1.78 
   1   4   4  127.15    1.67 
  -1  -4  -5   92.33    1.45 
  -1  -4  -5  108.75    1.65 
  -1  -4  -5  106.46    1.64 
  -1  -4  -5  118.17    1.72 
  -1  -4  -5  123.75    1.72 
  -1  -4  -6   21.47    0.83 
  -1  -4  -6   24.73    0.87 
  -1  -4  -6   25.12    0.87 
  -1  -4  -7   63.97    1.31 
  -1  -4  -7   76.86    1.42 
  -1  -4  -8   38.21    1.00 
  -1  -4  -8   42.71    1.45 
  -1  -5  10   30.68    0.76 
   1   5 -10   28.92    0.65 
   1   5 -10   33.63    0.75 
  -1  -5   9   37.86    0.97 
   1   5  -9   36.23    0.93 
   1   5  -9   41.80    0.97 
  -1  -5   8   29.51    0.97 
   1   5  -8   25.34    0.84 
   1   5  -8   32.30    0.95 
   1   5  -8   32.67    0.94 
  -1  -5   7  101.90    1.72 
   1   5  -7  111.60    1.71 
   1   5  -7  104.27    1.68 
  -1  -5   6  164.52    2.16 
   1   5  -6  184.86    2.62 
   1   5  -6  170.56    2.18 
  -1  -5   5   41.87    1.08 
  -1  -5   5   47.63    1.20 
   1   5  -5   51.14    1.25 
  -1  -5   4   59.42    1.25 
  -1  -5   4   61.83    1.32 
  -1  -5   4   67.97    1.37 
   1   5  -4   69.52    1.40 
  -1  -5   3   21.88    0.78 
  -1  -5   3   22.38    0.83 
  -1  -5   3   21.12    0.79 
  -1  -5   3   22.54    0.82 
   1   5  -3   24.60    0.90 
  -1  -5   2   85.80    1.42 
  -1  -5   2   97.78    1.54 
  -1  -5   2   96.48    1.54 
  -1  -5   2  104.11    1.47 
  -1  -5   2   95.65    1.49 
  -1  -5   2  103.87    1.57 
   1   5  -2  100.69    1.51 
  -1  -5   1  211.51    2.19 
  -1  -5   1  278.50    2.57 
  -1  -5   1  260.40    2.50 
  -1  -5   1  280.46    2.18 
  -1  -5   1  248.50    2.21 
  -1  -5   1  274.77    2.45 
  -1  -5   1  287.50    2.52 
  -1  -5   1  278.32    2.57 
   1   5  -1  283.00    2.54 
  -1  -5   0    5.40    0.49 
  -1  -5   0    6.33    0.47 
  -1  -5   0    6.24    0.50 
  -1  -5   0    6.69    0.39 
  -1  -5   0    6.20    0.44 
  -1  -5   0    7.03    0.57 
  -1  -5   0    6.88    0.53 
  -1  -5   0    6.28    0.53 
   1   5   0    6.20    0.46 
  -1  -5  -1   11.95    0.62 
  -1  -5  -1   15.13    0.67 
  -1  -5  -1   14.66    0.70 
  -1  -5  -1   14.89    0.36 
  -1  -5  -1   13.59    0.49 
  -1  -5  -1   14.88    0.72 
  -1  -5  -1   15.55    0.67 
  -1  -5  -1   14.57    0.69 
   1   5   1   14.61    0.65 
  -1  -5  -2   61.43    1.30 
  -1  -5  -2   75.47    1.40 
  -1  -5  -2   71.58    1.37 
  -1  -5  -2   72.15    0.73 
  -1  -5  -2   82.03    1.47 
  -1  -5  -2   83.68    1.40 
  -1  -5  -2   79.25    1.37 
   1   5   2   73.81    1.37 
  -1  -5  -3  160.17    2.04 
  -1  -5  -3  176.10    2.15 
  -1  -5  -3  190.97    2.27 
  -1  -5  -4   22.15    0.85 
  -1  -5  -4   46.37    1.17 
  -1  -5  -4   49.58    1.23 
  -1  -5  -5  105.38    1.66 
  -1  -5  -5  119.29    1.81 
  -1  -5  -5  129.46    1.91 
  -1  -5  -6   90.51    1.56 
  -1  -5  -6  102.92    1.69 
  -1  -5  -7   32.82    0.94 
  -1  -5  -7   34.70    0.96 
  -1  -6   9   13.22    0.61 
  -1  -6   8    8.11    0.51 
   1   6  -8    9.34    0.50 
  -1  -6   7    2.39    0.36 
   1   6  -7    3.38    0.40 
  -1  -6   6   14.51    0.73 
   1   6  -6   14.60    0.73 
  -1  -6   5   53.82    1.21 
   1   6  -5   64.23    1.38 
  -1  -6   4   12.86    0.71 
  -1  -6   4   12.66    0.67 
  -1  -6   4   13.81    0.86 
  -1  -6   4   14.78    0.76 
   1   6  -4   16.31    0.82 
  -1  -6   3  247.63    2.60 
  -1  -6   3  240.14    2.33 
  -1  -6   3  240.57    2.52 
  -1  -6   3  269.17    2.64 
   1   6  -3  289.51    2.86 
  -1  -6   2   73.70    1.41 
  -1  -6   2   94.92    1.66 
  -1  -6   2   96.94    1.40 
  -1  -6   2   93.77    1.53 
  -1  -6   2  106.35    1.67 
   1   6  -2  112.04    1.80 
  -1  -6   1   24.21    0.90 
  -1  -6   1   31.13    1.01 
  -1  -6   1   31.00    0.74 
  -1  -6   1   31.09    0.87 
  -1  -6   1   33.96    1.01 
  -1  -6   1   36.00    1.02 
  -1  -6   0   98.84    1.66 
  -1  -6   0  129.51    1.93 
  -1  -6   0  125.31    1.03 
  -1  -6   0  122.31    1.43 
  -1  -6   0  140.53    1.96 
  -1  -6  -1   40.64    1.13 
  -1  -6  -1   59.12    1.34 
  -1  -6  -1   58.73    0.80 
  -1  -6  -1   68.89    1.44 
  -1  -6  -1   62.20    1.33 
  -1  -6  -2   53.20    1.27 
  -1  -6  -2   70.31    1.44 
  -1  -6  -2   81.28    1.57 
  -1  -6  -2   79.97    1.46 
  -1  -6  -3   45.71    1.16 
  -1  -6  -3   87.20    1.60 
  -1  -6  -3   94.14    1.69 
  -1  -6  -4   56.05    1.27 
  -1  -6  -4   71.05    1.43 
  -1  -6  -4   79.85    1.54 
  -1  -6  -5   23.34    0.85 
  -1  -6  -5   27.19    0.91 
  -1  -6  -5   28.40    0.97 
  -1  -6  -6   27.94    0.82 
  -1  -6  -6   32.60    0.90 
  -1  -6  -6   35.65    0.98 
  -1  -6  -7   52.77    0.98 
  -1  -6  -7   58.06    1.05 
  -1  -7   6   20.00    0.69 
  -1  -7   6   23.03    0.64 
   1   7  -6   24.57    0.74 
  -1  -7   5    4.06    0.43 
  -1  -7   5    3.40    0.39 
  -1  -7   5    4.52    0.43 
   1   7  -5    4.76    0.49 
  -1  -7   4   32.56    0.90 
  -1  -7   4   30.07    0.85 
   1   7  -4   37.12    1.00 
  -1  -7   3   16.93    0.73 
  -1  -7   3   15.79    0.74 
  -1  -7   3   17.55    0.68 
   1   7  -3   20.00    0.82 
  -1  -7   2   47.71    1.15 
  -1  -7   2   43.05    0.66 
  -1  -7   2   45.87    0.95 
   1   7  -2   55.74    1.25 
  -1  -7   1    8.78    0.60 
  -1  -7   1   25.97    0.91 
  -1  -7   1   25.12    0.65 
   1   7  -1   31.19    1.00 
  -1  -7   0   11.27    0.68 
  -1  -7   0   17.65    0.78 
  -1  -7   0   17.90    0.39 
  -1  -7   0   19.40    0.81 
   1   7   0   21.35    0.85 
  -1  -7  -1   12.13    0.71 
  -1  -7  -1   14.93    0.72 
  -1  -7  -1   16.29    0.76 
   1   7   1   17.93    0.77 
  -1  -7  -2   20.47    0.83 
  -1  -7  -2   27.70    0.91 
  -1  -7  -2   29.56    0.96 
   1   7   2   31.97    0.91 
  -1  -7  -3    8.79    0.58 
  -1  -7  -3   11.70    0.62 
  -1  -7  -3   12.01    0.69 
  -1  -7  -4   11.28    0.59 
  -1  -7  -4   16.07    0.67 
  -1  -7  -4   18.68    0.76 
  -1  -7  -5   13.05    0.57 
  -1  -7  -5   16.61    0.60 
  -1  -7  -5   19.44    0.68 
  -1  -7  -6    4.42    0.36 
   1   8  -4   34.51    0.95 
  -1  -8   3   34.53    0.73 
   1   8  -3   39.31    0.80 
  -1  -8   2   14.36    0.55 
   1   8  -2   15.89    0.59 
  -1  -8   1    0.32    0.22 
   1   8  -1    0.53    0.22 
  -1  -8   0    1.15    0.29 
  -1  -8   0    4.08    0.38 
   1   8   0    4.40    0.39 
  -1  -8  -1    0.94    0.27 
  -1  -8  -1    3.18    0.38 
  -1  -8  -1    3.18    0.37 
   1   8   1    3.38    0.35 
  -1  -8  -2   15.08    0.56 
  -1  -8  -2   40.15    0.81 
  -1  -8  -2   44.94    0.85 
  -1  -8  -3    0.33    0.21 
  -1  -8  -3    0.97    0.23 
   2  -8  -2    3.02    0.32 
  -2   8   1   33.18    0.73 
   2  -8  -1   30.00    0.71 
  -2   8   0   27.36    0.84 
   2  -7  -6   15.02    0.58 
   2  -7  -6   22.83    0.63 
   2  -7  -6   24.30    0.68 
   2  -7  -5    1.67    0.37 
   2  -7  -5    2.69    0.35 
   2  -7  -5    2.41    0.34 
   2  -7  -4    1.48    0.36 
   2  -7  -4    3.50    0.42 
   2  -7  -4    2.48    0.37 
   2  -7  -3    2.15    0.43 
   2  -7  -3    4.47    0.53 
   2  -7  -3    4.46    0.52 
   2  -7  -2   11.31    0.64 
   2  -7  -2   26.25    0.90 
   2  -7  -2   24.86    0.90 
  -2   7   1   46.70    1.45 
   2  -7  -1   14.30    0.68 
   2  -7  -1   35.12    0.91 
   2  -7  -1   43.05    1.09 
   2  -7  -1   41.10    1.09 
  -2   7   0    1.97    0.36 
   2  -7   0    1.58    0.32 
   2  -7   0    1.42    0.22 
   2  -7   0    1.71    0.36 
   2  -7   0    1.62    0.36 
  -2   7  -1   26.89    0.85 
   2  -7   1   22.76    0.79 
   2  -7   1   22.46    0.64 
   2  -7   1   26.07    0.84 
  -2   7  -2    8.54    0.57 
  -2   7  -2    8.48    0.54 
   2  -7   2    7.74    0.55 
   2  -7   2    7.19    0.48 
  -2   7  -3    0.51    0.28 
   2  -7   3    0.27    0.24 
   2  -7   3    0.51    0.24 
  -2   7  -4   19.38    0.65 
   2  -7   4   16.69    0.63 
   2  -7   4   16.43    0.60 
  -2   7  -5   17.04    0.54 
   2  -7   5   14.02    0.52 
   2  -6  -8    5.73    0.41 
   2  -6  -8    9.03    0.47 
   2  -6  -7    5.04    0.50 
   2  -6  -7    7.47    0.53 
   2  -6  -6    1.92    0.38 
   2  -6  -6    2.33    0.37 
   2  -6  -6    2.59    0.42 
   2  -6  -5    0.41    0.33 
   2  -6  -5    0.55    0.30 
   2  -6  -5    0.42    0.31 
   2  -6  -4   49.23    1.20 
   2  -6  -4   56.56    1.30 
   2  -6  -4   55.93    1.23 
   2  -6  -4   54.98    1.30 
   2  -6  -3  100.31    1.70 
   2  -6  -3  121.02    1.88 
   2  -6  -3  120.82    1.78 
   2  -6  -3  121.84    1.90 
   2  -6  -2   28.01    0.96 
   2  -6  -2   32.25    0.56 
   2  -6  -2   38.10    1.13 
   2  -6  -2   37.34    1.10 
  -2   6   1  213.10    2.39 
   2  -6  -1  141.75    1.94 
   2  -6  -1  192.14    2.21 
   2  -6  -1  191.76    1.73 
   2  -6  -1  229.50    2.56 
   2  -6  -1  210.01    2.44 
  -2   6   0  208.04    2.38 
   2  -6   0  181.30    2.19 
   2  -6   0  183.34    1.59 
   2  -6   0  182.04    1.91 
   2  -6   0  212.14    2.44 
   2  -6   0  199.81    2.36 
  -2   6  -1   76.52    1.50 
   2  -6   1   66.09    1.38 
   2  -6   1   66.03    1.13 
   2  -6   1   67.84    1.29 
   2  -6   1   77.46    1.49 
   2  -6   1   72.82    1.46 
  -2   6  -2   59.61    1.34 
   2  -6   2   50.61    1.24 
   2  -6   2   50.38    1.08 
   2  -6   2   50.97    1.20 
   2  -6   2   59.37    1.28 
   2  -6   2   54.52    1.24 
  -2   6  -3    9.84    0.69 
   2  -6   3    8.09    0.62 
   2  -6   3    7.70    0.55 
   2  -6   3    8.22    0.65 
  -2   6  -4  102.03    1.68 
   2  -6   4   82.24    1.50 
   2  -6   4   78.04    1.40 
  -2   6  -5   61.39    1.26 
   2  -6   5   50.22    1.15 
  -2   6  -6   18.34    0.71 
   2  -6   6   14.21    0.63 
  -2   6  -7    1.32    0.28 
   2  -6   7    1.26    0.26 
   2  -5  -8    8.23    0.56 
   2  -5  -8   11.05    0.62 
   2  -5  -7  150.92    1.97 
   2  -5  -7  179.91    2.08 
   2  -5  -7  190.71    2.27 
   2  -5  -6    5.73    0.55 
   2  -5  -6    6.55    0.55 
   2  -5  -6    6.67    0.59 
   2  -5  -6    6.50    0.61 
   2  -5  -5   80.46    1.52 
   2  -5  -5   98.81    1.64 
   2  -5  -5  100.98    1.65 
   2  -5  -5   99.91    1.71 
   2  -5  -4   32.84    1.02 
   2  -5  -4   37.74    1.07 
   2  -5  -4   40.61    1.10 
   2  -5  -4   38.47    1.11 
   2  -5  -3   48.11    1.17 
   2  -5  -3   47.85    0.61 
   2  -5  -3   56.97    1.29 
   2  -5  -3   56.50    1.26 
   2  -5  -3   58.17    1.29 
   2  -5  -2  149.58    1.97 
   2  -5  -2  114.76    1.98 
   2  -5  -2  152.42    0.99 
   2  -5  -2  144.49    1.42 
   2  -5  -2  171.16    2.13 
   2  -5  -2  164.65    2.05 
   2  -5  -2  163.47    2.08 
   2  -5  -1   68.34    1.31 
   2  -5  -1   75.13    1.38 
   2  -5  -1   68.82    1.28 
   2  -5  -1   69.14    1.29 
   2  -5  -1   75.32    1.03 
   2  -5  -1   69.31    1.14 
   2  -5  -1   82.54    1.51 
   2  -5  -1   77.15    1.43 
   2  -5  -1   77.52    1.46 
   2  -5   0   56.85    1.42 
   2  -5   0   47.57    1.10 
   2  -5   0   46.27    1.10 
   2  -5   0   51.14    1.00 
   2  -5   0   50.52    1.08 
   2  -5   0   56.11    1.25 
   2  -5   0   52.75    1.22 
  -2   5  -1    4.29    0.53 
   2  -5   1    4.00    0.48 
   2  -5   1    4.61    0.46 
   2  -5   1    3.47    0.44 
   2  -5   1    4.26    0.50 
   2  -5   1    3.26    0.43 
  -2   5  -2   14.31    0.78 
   2  -5   2   13.09    0.71 
   2  -5   2   13.75    0.69 
   2  -5   2   13.15    1.00 
   2  -5   2   14.86    0.74 
   2  -5   2   15.60    0.75 
  -2   5  -3  251.81    2.66 
   2  -5   3  204.17    2.39 
  -2   5  -4   27.62    1.00 
   2  -5   4   23.93    0.91 
  -2   5  -5   69.94    1.46 
   2  -5   5   55.39    1.30 
  -2   5  -6    5.75    0.61 
   2  -5   6    4.59    0.55 
  -2   5  -7   39.79    1.04 
   2  -5   7   32.59    0.93 
  -2   5  -8    4.19    0.40 
  -2   5  -8    5.45    0.46 
   2  -5   8    4.47    0.43 
   2  -4  -9   12.00    0.64 
   2  -4  -9   11.21    0.65 
   2  -4  -8   93.12    1.61 
   2  -4  -8  148.12    1.96 
   2  -4  -8  148.63    2.00 
   2  -4  -7    8.98    0.57 
   2  -4  -7    9.82    0.66 
   2  -4  -6  164.59    2.05 
   2  -4  -6  202.84    2.28 
   2  -4  -6  198.53    2.30 
   2  -4  -5   89.92    1.52 
   2  -4  -5   93.85    1.54 
   2  -4  -5  105.88    1.58 
   2  -4  -5  106.78    1.62 
   2  -4  -5  109.64    1.69 
   2  -4  -4    8.53    0.54 
   2  -4  -4    9.42    0.55 
   2  -4  -4    9.95    0.59 
   2  -4  -4   10.16    0.61 
   2  -4  -4   10.09    0.59 
   2  -4  -3    3.13    0.36 
   2  -4  -2   16.97    0.64 
   2  -4  -2   16.52    0.57 
   2  -4  -2   16.47    0.46 
   2  -4  -1  195.55    1.95 
   2  -4  -1  184.32    1.82 
   2  -4  -1  194.84    1.64 
   2  -4   0   41.12    0.90 
   2  -4   0   40.16    0.90 
   2  -4   0   41.37    0.87 
   2  -4   1   51.26    1.06 
   2  -4   1   53.53    1.06 
  -2   4  -2    0.33    0.32 
   2  -4   2    0.09    0.21 
   2  -4   2    0.03    0.22 
   2  -4   2    0.18    0.25 
  -2   4  -3   42.29    1.08 
   2  -4   3   35.25    0.96 
   2  -4   3   35.33    0.97 
  -2   4  -4  204.59    2.33 
   2  -4   4  171.37    2.13 
  -2   4  -5   10.99    0.73 
   2  -4   5    9.23    0.66 
  -2   4  -6  100.26    1.68 
  -2   4  -6  114.00    1.82 
   2  -4   6   95.99    1.69 
  -2   4  -7    6.60    0.60 
  -2   4  -7    7.03    0.62 
   2  -4   7    6.57    0.59 
  -2   4  -8    4.46    0.46 
  -2   4  -8    4.72    0.53 
   2  -4   8    4.20    0.48 
  -2   4  -9   28.65    0.68 
  -2   4  -9   33.65    0.85 
   2  -4   9   26.39    0.75 
   2  -3 -11   13.22    0.60 
   2  -3 -11   13.37    0.60 
   2  -3 -10   30.48    0.93 
   2  -3 -10   29.74    0.93 
   2  -3  -9   76.34    1.46 
   2  -3  -9   77.73    1.46 
   2  -3  -9   76.01    1.43 
   2  -3  -8   38.35    1.09 
   2  -3  -8   39.80    1.08 
   2  -3  -8   38.22    1.06 
   2  -3  -7  111.18    1.60 
   2  -3  -7  135.28    1.87 
   2  -3  -7  137.18    1.83 
   2  -3  -7  136.63    1.87 
   2  -3  -6  143.42    1.79 
   2  -3  -6  157.99    1.87 
   2  -3  -6  169.75    1.99 
   2  -3  -6  136.12    2.54 
   2  -3  -6  168.89    1.99 
   2  -3  -5  240.50    2.22 
   2  -3  -4  137.86    1.62 
   2  -3  -3  247.01    2.08 
   2  -3  -3  227.08    1.20 
   2  -3  -2  271.27    2.09 
   2  -3  -2  252.73    1.72 
   2  -3  -2  243.73    1.53 
   2  -3  -1   30.54    0.72 
   2  -3  -1   29.85    0.65 
   2  -3  -1   27.32    0.61 
   2  -3   0  503.15    2.63 
   2  -3   0  464.81    2.56 
   2  -3   0  444.44    2.48 
   2  -3   1   60.92    0.89 
   2  -3   1   58.01    0.98 
   2  -3   1   57.26    0.99 
   2  -3   2   45.45    0.93 
   2  -3   3   40.46    0.93 
   2  -3   4   31.31    0.88 
   2  -3   4   24.37    0.84 
  -2   3  -5   64.32    1.28 
  -2   3  -5   72.75    1.37 
  -2   3  -5   70.93    1.33 
   2  -3   5   60.63    1.27 
   2  -3   5   61.21    1.29 
  -2   3  -6   63.89    1.28 
  -2   3  -6   61.77    1.35 
  -2   3  -6   75.00    2.12 
  -2   3  -6   72.02    1.42 
  -2   3  -6   71.64    1.40 
   2  -3   6   58.92    1.30 
  -2   3  -7   19.93    0.75 
  -2   3  -7   18.78    0.80 
  -2   3  -7   19.73    0.85 
  -2   3  -7   23.00    0.90 
  -2   3  -7   22.17    0.86 
   2  -3   7   19.53    0.85 
  -2   3  -8   55.09    0.98 
  -2   3  -8   57.35    1.17 
  -2   3  -8   63.50    1.33 
  -2   3  -8   64.78    1.36 
  -2   3  -8   63.82    1.33 
   2  -3   8   53.38    1.24 
  -2   3  -9   10.23    0.49 
  -2   3  -9   11.43    0.64 
  -2   3  -9   11.99    0.63 
   2  -3   9    9.98    0.60 
  -2   3 -10   11.64    0.51 
  -2   3 -10   11.31    0.51 
   2  -3  10   10.32    0.48 
   2  -3  10   10.62    0.50 
   2  -2 -12    0.37    0.23 
   2  -2 -12    0.64    0.26 
   2  -2 -11   52.41    1.08 
   2  -2 -11   60.98    1.23 
   2  -2 -11   64.13    1.28 
   2  -2 -10   47.36    1.12 
   2  -2 -10   54.58    1.26 
   2  -2 -10   56.47    1.30 
   2  -2  -9  122.98    1.76 
   2  -2  -9  147.95    2.04 
   2  -2  -9  145.60    2.02 
   2  -2  -9  139.45    1.90 
   2  -2  -8  180.28    2.18 
   2  -2  -8  176.72    2.14 
   2  -2  -8  179.57    2.12 
   2  -2  -7    4.50    0.50 
   2  -2  -7    4.07    0.47 
   2  -2  -7    4.38    0.46 
   2  -2  -6  133.58    1.57 
   2  -2  -5   21.44    0.63 
   2  -2  -5   21.30    0.32 
  -2   2   4  834.91    5.40 
   2  -2  -4 1025.00    5.00 
   2  -2  -4 1001.00    5.73 
   2  -2  -4  928.04    3.89 
   2  -2  -3   63.58    0.95 
   2  -2  -3   63.79    0.74 
   2  -2  -3   56.67    0.64 
   2  -2  -2  243.30    1.74 
   2  -2  -2  225.85    1.27 
   2  -2  -2  247.65    1.53 
   2  -2  -2  219.10    1.36 
   2  -2  -1  101.41    1.09 
   2  -2  -1   93.85    0.90 
   2  -2  -1  100.86    1.05 
   2  -2  -1   91.95    0.97 
   2  -2   0  341.09    1.88 
   2  -2   0  313.77    1.78 
   2  -2   1  337.98    1.77 
   2  -2   1  317.89    1.95 
  -2   2  -2   37.85    0.95 
   2  -2   2   35.93    0.74 
  -2   2  -3   31.58    0.77 
   2  -2   3   32.38    0.77 
  -2   2  -4  265.73    2.19 
   2  -2   4  264.06    2.26 
  -2   2  -5    2.85    0.35 
   2  -2   5    2.71    0.36 
  -2   2  -6   39.24    0.93 
  -2   2  -6   36.45    0.96 
  -2   2  -6   41.73    1.06 
  -2   2  -6   45.12    1.09 
  -2   2  -6   44.26    1.11 
   2  -2   6   38.96    1.03 
  -2   2  -7  100.58    1.36 
  -2   2  -7   95.76    1.47 
  -2   2  -7  106.42    1.71 
  -2   2  -7  114.37    1.73 
  -2   2  -7  108.72    1.75 
   2  -2   7   96.43    1.67 
  -2   2  -8   49.31    0.80 
  -2   2  -8   48.85    1.02 
  -2   2  -8   52.70    1.27 
  -2   2  -8   56.50    1.25 
  -2   2  -8   56.06    1.31 
   2  -2   8   46.29    1.19 
  -2   2  -9    2.02    0.26 
  -2   2  -9    2.67    0.45 
  -2   2  -9    2.33    0.39 
  -2   2  -9    2.05    0.40 
   2  -2   9    2.17    0.39 
  -2   2 -10   51.14    1.10 
  -2   2 -10   53.22    1.10 
   2  -2  10   43.81    0.95 
  -2   2 -11   32.52    0.72 
   2  -1 -12   30.36    0.82 
   2  -1 -12   34.42    0.88 
   2  -1 -12   34.51    0.91 
   2  -1 -11   18.23    0.78 
   2  -1 -11   21.78    0.86 
   2  -1 -11   22.15    0.86 
   2  -1 -10   66.74    1.39 
   2  -1 -10   78.91    1.53 
   2  -1 -10   77.82    1.53 
   2  -1 -10   81.55    1.56 
   2  -1  -9   98.07    1.65 
   2  -1  -9  116.89    1.83 
   2  -1  -9  112.74    1.79 
   2  -1  -9  113.75    1.72 
  -2   1   8  109.22    1.63 
   2  -1  -8  110.24    1.65 
   2  -1  -8  131.10    1.83 
   2  -1  -8  127.17    1.81 
   2  -1  -8  131.97    1.79 
  -2   1   7  147.53    1.75 
   2  -1  -7  155.17    0.68 
  -2   1   6   87.93    1.24 
   2  -1  -6   89.59    1.17 
   2  -1  -6   92.15    0.79 
  -2   1   5  147.93    1.45 
   2  -1  -5  158.35    1.48 
   2  -1  -5  159.98    1.11 
   2  -1  -5  154.23    0.88 
  -2   1   4   68.76    0.90 
   2  -1  -4   76.50    0.99 
   2  -1  -4   78.32    0.80 
   2  -1  -4   70.39    0.69 
  -2   1   3   22.12    0.49 
   2  -1  -3   21.72    0.53 
   2  -1  -3   21.42    0.45 
   2  -1  -3   19.13    0.41 
  -2   1   2   88.49    0.83 
   2  -1  -2   91.23    0.97 
   2  -1  -2   81.37    0.52 
  -2   1   1  671.43    4.26 
   2  -1  -1  649.80    4.78 
   2  -1  -1  632.08    3.72 
   2  -1  -1  603.88    6.27 
  -2   1   0 1022.00    5.77 
   2  -1   0  996.40    5.48 
   2  -1   0  988.41    5.79 
  -2   1  -1  132.13    1.06 
   2  -1   1  124.26    0.96 
   2  -1   1  118.28    1.08 
   2  -1   1  136.40    1.23 
  -2   1  -2 1162.00    6.80 
   2  -1   2 1075.00    5.00 
   2  -1   2 1017.00    6.65 
  -2   1  -3   87.67    1.08 
  -2   1  -3  113.05    1.21 
   2  -1   3   98.51    1.21 
  -2   1  -4   82.00    1.09 
  -2   1  -4  102.55    1.28 
   2  -1   4   84.43    1.22 
  -2   1  -5   13.08    0.52 
  -2   1  -5   14.59    0.59 
   2  -1   5   12.36    0.56 
  -2   1  -6   25.98    0.86 
  -2   1  -6   29.54    0.89 
  -2   1  -6   31.92    0.73 
  -2   1  -6   29.33    0.77 
  -2   1  -6   34.11    0.92 
  -2   1  -6   31.99    0.91 
  -2   1  -6   32.87    0.94 
   2  -1   6   29.36    0.88 
  -2   1  -7  177.46    2.16 
  -2   1  -7  193.73    2.23 
  -2   1  -7  189.57    1.80 
  -2   1  -7  204.91    2.32 
  -2   1  -7  226.42    2.48 
  -2   1  -8   20.58    0.84 
  -2   1  -8   21.44    0.89 
  -2   1  -8   21.52    0.61 
  -2   1  -8   25.03    0.96 
  -2   1  -8   25.56    0.96 
  -2   1  -9   22.28    0.87 
  -2   1  -9   23.30    0.93 
  -2   1  -9   25.18    0.94 
   2  -1   9   21.97    0.85 
  -2   1 -10   15.44    0.70 
  -2   1 -10   16.17    0.75 
  -2   1 -10   18.59    0.78 
   2  -1  10   14.43    0.63 
  -2   1 -11   58.26    0.97 
  -2   1 -11   65.93    1.08 
  -2   1 -11   68.22    1.10 
   2   0 -13   15.85    0.55 
   2   0 -13   18.61    0.65 
   2   0 -13   19.96    0.58 
   2   0 -12    9.17    0.57 
   2   0 -12   11.15    0.61 
   2   0 -12   11.03    0.61 
   2   0 -11    0.68    0.34 
   2   0 -11    0.86    0.36 
   2   0 -11    0.80    0.34 
   2   0 -10   65.14    1.41 
   2   0 -10   74.17    1.50 
   2   0 -10   73.77    1.50 
   2   0 -10   72.13    1.36 
   2   0  -9    3.51    0.46 
   2   0  -9    4.52    0.54 
   2   0  -9    4.83    0.55 
   2   0  -9    4.37    0.49 
  -2   0   8  331.32    2.83 
   2   0  -8  356.72    2.95 
   2   0  -8  358.76    1.81 
   2   0  -8  353.57    1.80 
   2   0  -8  410.37    3.18 
   2   0  -8  417.42    3.22 
   2   0  -8  401.60    3.05 
  -2   0   7    7.47    0.47 
   2   0  -7    7.88    0.26 
  -2   0   6  404.00    2.67 
   2   0  -6  402.33    2.30 
   2   0  -6  423.68    2.15 
   2   0  -6  399.94    1.86 
  -2   0   5  188.14    1.67 
   2   0  -5  201.02    1.57 
   2   0  -5  195.37    1.33 
  -2   0   4   51.43    0.83 
   2   0  -4   52.48    0.78 
   2   0  -4   46.22    0.66 
  -2   0   3    0.09    0.17 
   2   0  -3    0.17    0.15 
   2   0  -3    0.12    0.13 
  -2   0   2  831.27    3.36 
   2   0  -2  716.98    5.37 
   2   0  -2  637.88    2.07 
  -2   0   1  290.06    1.54 
   2   0  -1  285.95    1.55 
   2   0  -1  234.35    1.02 
  -2   0   0  134.34    1.08 
   2   0   0  127.50    1.01 
   2   0   0  119.35    0.89 
  -2   0  -1 2093.00   10.07 
   2   0   1 1848.00    8.57 
   2   0   1 1659.00    9.22 
   2   0   1 1721.00    8.08 
  -2   0  -2  431.21    2.10 
  -2   0  -2  552.08    2.47 
   2   0   2  441.47    1.72 
   2   0   2  463.80    2.27 
  -2   0  -3  470.21    2.18 
  -2   0  -3  598.80    2.83 
   2   0   3  524.22    2.67 
  -2   0  -4  528.01    2.36 
  -2   0  -4  643.46    3.22 
   2   0   4  534.56    2.96 
  -2   0  -5  446.72    2.15 
  -2   0  -5  531.68    3.21 
   2   0   5  444.10    2.94 
  -2   0  -6   43.28    1.05 
  -2   0  -6   42.80    1.05 
  -2   0  -6   48.62    0.65 
  -2   0  -6   44.07    0.78 
  -2   0  -6   54.26    1.15 
  -2   0  -6   47.42    1.08 
  -2   0  -6   51.85    1.15 
   2   0   6   47.37    1.07 
  -2   0  -7  103.45    1.64 
  -2   0  -7  106.73    1.70 
  -2   0  -7  101.86    1.06 
  -2   0  -7  117.40    1.79 
  -2   0  -7  122.55    1.81 
  -2   0  -8   45.06    1.16 
  -2   0  -8   47.79    1.23 
  -2   0  -8   53.75    1.30 
  -2   0  -8   56.27    1.32 
  -2   0  -9    2.37    0.40 
  -2   0  -9    0.29    0.36 
  -2   0  -9    0.78    0.38 
  -2   0  -9    0.41    0.36 
  -2   0 -10    6.23    0.58 
  -2   0 -10    6.63    0.62 
  -2   0 -10    7.74    0.61 
   2   0  10    5.49    0.48 
  -2   0 -11    1.23    0.29 
  -2   0 -11    1.31    0.28 
  -2   0 -11    1.44    0.31 
   2   1 -12   32.17    0.89 
   2   1 -12   36.48    0.93 
   2   1 -12   36.52    0.91 
   2   1 -11   18.90    0.80 
   2   1 -11   21.62    0.86 
   2   1 -11   22.00    0.85 
  -2  -1  10   71.38    1.40 
   2   1 -10   67.47    1.44 
   2   1 -10   79.28    1.55 
   2   1 -10   79.90    1.52 
   2   1 -10   76.34    1.41 
   2   1  -9  102.71    1.73 
   2   1  -9   97.30    1.16 
   2   1  -9  121.10    1.86 
   2   1  -9  113.33    1.77 
   2   1  -9  113.51    1.72 
  -2  -1   8  109.50    1.67 
   2   1  -8  114.99    1.74 
   2   1  -8  117.09    1.36 
   2   1  -8  118.04    1.15 
   2   1  -8  112.30    1.34 
   2   1  -8  134.45    1.85 
   2   1  -8  131.60    1.82 
   2   1  -8  129.07    1.78 
  -2  -1   7  150.26    1.83 
   2   1  -7  157.33    1.44 
  -2  -1   6   88.65    1.30 
   2   1  -6   88.07    1.10 
  -2  -1   5  150.48    1.55 
   2   1  -5  154.39    1.37 
   2   1  -5  158.09    1.47 
   2   1  -5  149.44    1.38 
  -2  -1   4   74.18    1.01 
   2   1  -4   77.05    0.94 
   2   1  -4   77.22    0.99 
   2   1  -4   70.26    0.92 
  -2  -1   3   20.50    0.53 
   2   1  -3   21.82    0.51 
  -2  -1   2   84.15    0.65 
  -2  -1   2   90.66    0.97 
   2   1  -2   87.16    0.94 
  -2  -1   1  658.07    3.62 
  -2  -1   1  744.66    4.58 
   2   1  -1  700.28    3.25 
   2   1  -1  713.59    2.61 
  -2  -1   0 1038.00    5.08 
  -2  -1   0 1001.00    6.62 
   2   1   0  943.60    6.46 
   2   1   0  927.34    4.56 
  -2  -1  -1  119.60    1.10 
  -2  -1  -1  130.76    1.19 
   2   1   1  124.48    1.08 
  -2  -1  -2  972.41    5.02 
  -2  -1  -2 1190.00    7.69 
   2   1   2  993.56    5.84 
   2   1   2  961.02    6.02 
  -2  -1  -3   93.65    0.88 
  -2  -1  -3  115.46    1.32 
   2   1   3   97.89    0.98 
   2   1   3   96.30    1.20 
  -2  -1  -4   83.86    0.77 
  -2  -1  -4  101.20    1.34 
   2   1   4   84.53    1.23 
  -2  -1  -5   15.16    0.64 
   2   1   5   12.21    0.57 
  -2  -1  -6   28.03    0.86 
  -2  -1  -6   28.14    0.87 
  -2  -1  -6   27.57    0.44 
  -2  -1  -6   34.98    0.95 
  -2  -1  -6   31.86    0.94 
  -2  -1  -6   33.71    0.93 
   2   1   6   30.05    0.87 
  -2  -1  -7  183.08    2.19 
  -2  -1  -7  195.64    2.30 
  -2  -1  -7  216.77    2.42 
  -2  -1  -7  223.34    2.37 
  -2  -1  -8   20.61    0.84 
  -2  -1  -8   21.51    0.89 
  -2  -1  -8   22.95    0.89 
  -2  -1  -8   24.69    0.91 
  -2  -1  -9   21.09    0.82 
  -2  -1  -9   22.45    0.90 
  -2  -1  -9   24.93    0.95 
  -2  -1  -9   26.06    0.93 
  -2  -1 -10   13.65    0.61 
  -2  -1 -10   15.26    0.72 
  -2  -1 -10   16.72    0.76 
  -2  -1 -10   17.07    0.73 
  -2  -1 -11   60.76    1.04 
  -2  -1 -11   65.64    1.07 
  -2  -1 -11   65.91    1.01 
  -2  -2  12    0.05    0.25 
   2   2 -12    0.36    0.24 
   2   2 -12    0.50    0.26 
   2   2 -12    0.27    0.23 
  -2  -2  11   57.94    1.18 
   2   2 -11   52.89    1.19 
   2   2 -11   63.96    1.29 
   2   2 -11   63.02    1.21 
  -2  -2  10   52.07    1.22 
   2   2 -10   46.45    1.20 
   2   2 -10   49.38    0.87 
   2   2 -10   56.11    1.31 
   2   2 -10   55.52    1.24 
   2   2 -10   53.99    1.20 
  -2  -2   9  134.69    1.92 
   2   2  -9  124.93    1.88 
   2   2  -9  126.09    1.30 
   2   2  -9  128.53    1.59 
   2   2  -9  142.55    2.01 
   2   2  -9  143.63    1.93 
   2   2  -9  146.85    1.98 
  -2  -2   8  166.65    2.08 
   2   2  -8  160.31    2.07 
   2   2  -8  165.19    1.70 
   2   2  -8  158.31    1.83 
   2   2  -8  183.10    2.19 
   2   2  -8  179.58    2.07 
   2   2  -8  176.78    2.12 
  -2  -2   7    2.75    0.37 
  -2  -2   7    2.92    0.40 
   2   2  -7    3.47    0.44 
   2   2  -7    3.63    0.38 
   2   2  -7    3.32    0.38 
   2   2  -7    3.52    0.42 
   2   2  -7    4.55    0.50 
   2   2  -7    4.00    0.44 
  -2  -2   6  122.76    1.58 
   2   2  -6  132.68    1.60 
   2   2  -6  115.63    1.45 
  -2  -2   5   19.62    0.63 
   2   2  -5   21.15    0.56 
   2   2  -5   23.77    0.68 
   2   2  -5   20.30    0.63 
  -2  -2   4  955.45    5.05 
   2   2  -4  961.72    5.58 
   2   2  -4 1067.00    4.09 
   2   2  -4  961.98    3.83 
  -2  -2   3   58.48    0.72 
  -2  -2   3   60.29    0.91 
   2   2  -3   62.43    0.91 
  -2  -2   2  227.62    1.42 
  -2  -2   2  238.89    1.67 
   2   2  -2  238.02    1.71 
  -2  -2   1   98.04    0.99 
  -2  -2   1  100.77    1.08 
   2   2  -1  101.28    1.12 
  -2  -2   0  337.01    1.92 
  -2  -2   0  295.28    1.72 
  -2  -2   0  356.75    2.00 
   2   2   0  335.25    2.01 
  -2  -2  -1  331.22    2.04 
  -2  -2  -1  304.06    1.65 
  -2  -2  -1  362.56    2.10 
   2   2   1  335.41    2.03 
  -2  -2  -2   33.00    0.72 
  -2  -2  -2   31.22    0.52 
  -2  -2  -2   39.03    0.77 
   2   2   2   34.24    0.69 
  -2  -2  -3   34.40    0.79 
  -2  -2  -3   31.09    0.44 
  -2  -2  -3   37.49    0.81 
   2   2   3   31.32    0.66 
  -2  -2  -4  307.41    2.39 
   2   2   4  258.23    2.22 
  -2  -2  -5    3.52    0.42 
   2   2   5    3.23    0.39 
  -2  -2  -6   39.15    1.05 
  -2  -2  -6   38.61    1.02 
  -2  -2  -6   45.55    1.10 
  -2  -2  -6   43.38    1.11 
   2   2   6   38.15    1.01 
  -2  -2  -7   92.67    1.59 
  -2  -2  -7   96.22    1.63 
  -2  -2  -7  108.85    1.77 
  -2  -2  -8   46.43    1.18 
  -2  -2  -8   47.82    1.21 
  -2  -2  -8   55.20    1.31 
  -2  -2  -9    1.98    0.37 
  -2  -2  -9    1.61    0.38 
  -2  -2  -9    2.21    0.41 
  -2  -2 -10   44.24    1.02 
  -2  -2 -10   47.99    1.07 
  -2  -2 -11   25.37    0.65 
  -2  -2 -11   29.31    0.69 
   2   3 -12   26.70    0.66 
  -2  -3  11   12.79    0.63 
   2   3 -11   11.64    0.58 
   2   3 -11   12.19    0.34 
   2   3 -11   13.92    0.65 
  -2  -3  10   28.61    0.96 
   2   3 -10   25.89    0.88 
   2   3 -10   24.33    0.49 
   2   3 -10   26.77    0.75 
   2   3 -10   30.83    0.96 
   2   3 -10   30.31    0.91 
  -2  -3   9   73.76    1.49 
   2   3  -9   67.17    1.38 
   2   3  -9   68.97    1.14 
   2   3  -9   68.18    1.29 
   2   3  -9   76.07    1.48 
   2   3  -9   76.22    1.45 
  -2  -3   8   41.60    1.16 
   2   3  -8   34.18    1.02 
   2   3  -8   33.34    0.92 
   2   3  -8   33.78    1.00 
   2   3  -8   38.80    1.07 
   2   3  -8   39.15    1.09 
  -2  -3   7  112.28    1.66 
  -2  -3   7  123.36    1.82 
   2   3  -7  118.63    1.71 
   2   3  -7  116.46    1.66 
   2   3  -7  115.73    1.76 
   2   3  -7  137.39    1.85 
   2   3  -7  135.59    1.88 
  -2  -3   6  142.47    1.76 
  -2  -3   6  158.82    1.96 
   2   3  -6  173.22    2.20 
   2   3  -6  162.55    1.94 
   2   3  -6  170.96    2.02 
  -2  -3   5  230.47    2.08 
  -2  -3   4  132.06    1.49 
   2   3  -4  134.33    1.48 
  -2  -3   3  231.14    1.77 
  -2  -3   3  224.77    1.82 
   2   3  -3  240.30    1.95 
  -2  -3   2  262.69    1.89 
  -2  -3   2  240.36    1.94 
  -2  -3   2  262.83    1.88 
   2   3  -2  266.03    2.05 
  -2  -3   1   30.87    0.70 
  -2  -3   1   27.19    0.67 
  -2  -3   1   28.80    0.65 
   2   3  -1   30.77    0.73 
  -2  -3   0  499.36    2.75 
  -2  -3   0  444.63    2.30 
  -2  -3   0  483.18    2.51 
   2   3   0  476.65    2.76 
  -2  -3  -1   60.31    1.03 
  -2  -3  -1   55.97    0.77 
  -2  -3  -1   61.52    0.95 
   2   3   1   60.85    1.02 
  -2  -3  -2   46.75    0.95 
  -2  -3  -2   44.10    0.58 
  -2  -3  -2   53.73    0.94 
   2   3   2   47.31    0.93 
  -2  -3  -3   39.93    0.94 
  -2  -3  -3   46.99    0.94 
   2   3   3   40.98    0.88 
  -2  -3  -4   28.33    0.85 
  -2  -3  -4   35.37    0.89 
  -2  -3  -4   28.06    1.35 
  -2  -3  -5   59.50    1.26 
  -2  -3  -5   60.93    1.22 
  -2  -3  -5   69.90    1.28 
  -2  -3  -5   63.68    1.28 
  -2  -3  -5   68.54    1.35 
   2   3   5   59.77    1.23 
  -2  -3  -6   58.85    1.29 
  -2  -3  -6   59.19    1.26 
  -2  -3  -6   63.36    1.29 
  -2  -3  -6   68.60    1.41 
  -2  -3  -7   18.37    0.81 
  -2  -3  -7   18.18    0.79 
  -2  -3  -7   21.06    0.89 
  -2  -3  -8   53.55    1.23 
  -2  -3  -8   55.68    1.24 
  -2  -3  -8   61.96    1.34 
  -2  -3  -9    9.21    0.56 
  -2  -3  -9   10.56    0.60 
  -2  -3  -9   12.31    0.66 
  -2  -3 -10   10.56    0.50 
  -2  -3 -10   10.65    0.53 
  -2  -4  11    7.87    0.46 
   2   4 -11    7.77    0.28 
   2   4 -11    8.75    0.46 
  -2  -4  10    7.30    0.56 
   2   4 -10    6.87    0.47 
   2   4 -10    6.65    0.52 
   2   4 -10    7.23    0.50 
  -2  -4   9   12.33    0.74 
   2   4  -9   11.33    0.56 
   2   4  -9   10.59    0.64 
   2   4  -9   12.67    0.68 
   2   4  -9   12.68    0.69 
  -2  -4   8  141.00    2.02 
   2   4  -8  129.74    1.79 
   2   4  -8  134.22    1.96 
   2   4  -8  150.53    1.95 
   2   4  -8  152.19    2.08 
  -2  -4   7    9.61    0.71 
   2   4  -7    8.89    0.61 
   2   4  -7   10.24    0.67 
  -2  -4   6  181.63    2.24 
   2   4  -6  199.04    2.33 
  -2  -4   5  103.82    1.67 
   2   4  -5  112.27    1.71 
  -2  -4   4    9.24    0.61 
   2   4  -4    8.59    0.48 
   2   4  -4   10.14    0.59 
  -2  -4   3    3.31    0.35 
  -2  -4   3    3.31    0.40 
   2   4  -3    3.19    0.33 
  -2  -4   2   16.79    0.61 
  -2  -4   2   16.12    0.64 
   2   4  -2   17.10    0.63 
  -2  -4   1  182.85    1.89 
  -2  -4   1  183.87    1.75 
   2   4  -1  189.49    1.97 
  -2  -4   0   42.18    0.96 
  -2  -4   0   40.91    0.79 
   2   4   0   43.09    0.97 
  -2  -4  -1   50.05    1.05 
  -2  -4  -1   52.22    0.76 
   2   4   1   53.48    1.11 
  -2  -4  -2    0.22    0.32 
  -2  -4  -2    0.27    0.23 
  -2  -4  -2    0.03    0.25 
  -2  -4  -2    0.19    0.16 
  -2  -4  -2    0.16    0.25 
  -2  -4  -2    0.05    0.27 
   2   4   2    0.01    0.20 
  -2  -4  -3   32.10    0.90 
  -2  -4  -3   37.55    1.00 
  -2  -4  -3   36.85    1.01 
  -2  -4  -3   39.93    1.06 
  -2  -4  -3   41.57    1.04 
   2   4   3   39.21    0.98 
  -2  -4  -4  141.56    1.80 
  -2  -4  -4  175.26    2.15 
  -2  -4  -4  189.95    2.23 
  -2  -4  -4  203.38    2.28 
  -2  -4  -5    9.49    0.65 
  -2  -4  -5   10.05    0.66 
  -2  -4  -5   10.44    0.65 
  -2  -4  -6   96.64    1.67 
  -2  -4  -6  107.98    1.72 
  -2  -4  -6  108.38    1.75 
  -2  -4  -7    5.42    0.55 
  -2  -4  -7    6.66    0.53 
  -2  -4  -7    6.11    0.61 
  -2  -4  -8    3.76    0.47 
  -2  -4  -8    4.41    0.51 
  -2  -4  -9   24.91    0.68 
  -2  -4  -9   29.02    0.76 
  -2  -5  10    4.26    0.37 
   2   5 -10    4.37    0.32 
  -2  -5   9    8.93    0.60 
   2   5  -9    8.14    0.52 
   2   5  -9   10.10    0.57 
  -2  -5   8   10.42    0.68 
  -2  -5   7  175.86    2.23 
   2   5  -7  188.81    2.27 
  -2  -5   6    6.22    0.64 
   2   5  -6    6.45    0.61 
  -2  -5   5   94.55    1.68 
   2   5  -5  104.09    1.75 
  -2  -5   4   32.95    1.00 
  -2  -5   4   36.48    1.08 
   2   5  -4   40.57    1.14 
  -2  -5   3   38.59    1.03 
  -2  -5   3   49.40    1.15 
  -2  -5   3   49.33    1.13 
  -2  -5   3   48.32    1.26 
  -2  -5   3   55.99    1.26 
   2   5  -3   60.11    1.32 
  -2  -5   2  129.03    1.87 
  -2  -5   2  141.33    1.87 
  -2  -5   2  145.54    1.90 
  -2  -5   2  152.59    1.80 
  -2  -5   2  139.08    1.83 
  -2  -5   2  163.38    2.07 
   2   5  -2  143.03    1.93 
   2   5  -2  169.11    2.08 
  -2  -5   1   57.47    1.23 
  -2  -5   1   70.77    1.35 
  -2  -5   1   68.59    1.35 
  -2  -5   1   72.97    1.16 
  -2  -5   1   66.35    1.22 
  -2  -5   1   73.95    1.35 
  -2  -5   1   76.30    1.42 
   2   5  -1   67.69    1.34 
   2   5  -1   82.16    1.46 
  -2  -5   0   41.77    1.10 
  -2  -5   0   46.46    1.11 
  -2  -5   0   46.94    1.13 
  -2  -5   0   50.83    0.86 
  -2  -5   0   46.57    0.95 
  -2  -5   0   50.59    1.18 
  -2  -5   0   53.60    1.22 
   2   5   0   42.89    1.20 
   2   5   0   51.74    1.27 
  -2  -5  -1    2.98    0.44 
  -2  -5  -1    3.69    0.48 
  -2  -5  -1    3.25    0.21 
  -2  -5  -1    3.16    0.34 
  -2  -5  -1    3.43    0.48 
  -2  -5  -1    2.83    0.42 
  -2  -5  -2   10.12    0.63 
  -2  -5  -2   11.77    0.70 
  -2  -5  -2   12.01    0.34 
  -2  -5  -2   13.71    0.76 
  -2  -5  -2   14.14    0.74 
  -2  -5  -3  160.93    2.06 
  -2  -5  -3  205.11    2.39 
  -2  -5  -3  227.26    2.54 
  -2  -5  -3  236.67    2.50 
  -2  -5  -4   20.37    0.81 
  -2  -5  -4   23.69    0.89 
  -2  -5  -4   25.14    0.96 
  -2  -5  -4   26.95    0.95 
  -2  -5  -5   49.64    1.12 
  -2  -5  -5   58.15    1.32 
  -2  -5  -5   64.24    1.38 
  -2  -5  -5   70.68    1.41 
  -2  -5  -6    4.84    0.52 
  -2  -5  -6    5.10    0.55 
  -2  -5  -6    5.40    0.57 
  -2  -5  -7   31.68    0.90 
  -2  -5  -7   34.23    0.90 
  -2  -5  -7   35.62    0.91 
  -2  -5  -8    3.98    0.36 
  -2  -6   8    9.05    0.51 
   2   6  -8   10.67    0.53 
  -2  -6   7    6.72    0.55 
   2   6  -7    7.96    0.56 
  -2  -6   6    2.05    0.39 
   2   6  -6    2.94    0.42 
  -2  -6   5    0.44    0.25 
  -2  -6   5    0.52    0.34 
   2   6  -5    0.83    0.34 
  -2  -6   4   51.42    1.18 
  -2  -6   4   49.88    1.13 
  -2  -6   4   51.15    1.26 
  -2  -6   4   56.75    1.31 
   2   6  -4   59.00    1.33 
  -2  -6   3   65.83    1.34 
  -2  -6   3  105.24    1.68 
  -2  -6   3  101.10    1.49 
  -2  -6   3  103.48    1.66 
  -2  -6   3  120.24    1.86 
   2   6  -3  125.27    1.89 
  -2  -6   2   19.06    0.83 
  -2  -6   2   32.43    1.01 
  -2  -6   2   30.81    0.80 
  -2  -6   2   32.66    0.94 
  -2  -6   2   37.53    1.11 
   2   6  -2   39.65    1.12 
  -2  -6   1  138.71    1.98 
  -2  -6   1  190.48    2.30 
  -2  -6   1  190.55    1.60 
  -2  -6   1  192.55    1.95 
  -2  -6   1  218.23    2.43 
   2   6  -1  229.31    2.49 
  -2  -6   0  137.83    1.98 
  -2  -6   0  177.88    2.24 
  -2  -6   0  176.06    1.65 
  -2  -6   0  195.12    2.28 
  -2  -6   0  200.02    2.33 
   2   6   0  211.82    2.29 
  -2  -6  -1   49.41    1.23 
  -2  -6  -1   66.70    1.42 
  -2  -6  -1   69.66    0.76 
  -2  -6  -1   72.11    1.46 
  -2  -6  -1   74.23    1.44 
  -2  -6  -2   34.82    1.03 
  -2  -6  -2   47.11    1.20 
  -2  -6  -2   56.10    1.33 
  -2  -6  -2   57.43    1.28 
  -2  -6  -3    5.68    0.57 
  -2  -6  -3    7.42    0.61 
  -2  -6  -3    8.61    0.69 
  -2  -6  -3    8.62    0.64 
  -2  -6  -4   69.64    1.33 
  -2  -6  -4   78.60    1.47 
  -2  -6  -4   89.47    1.57 
  -2  -6  -4   95.41    1.51 
  -2  -6  -5   41.57    0.97 
  -2  -6  -5   51.04    1.13 
  -2  -6  -5   56.46    1.20 
  -2  -6  -5   58.34    1.17 
  -2  -6  -6   13.92    0.61 
  -2  -6  -6   14.29    0.63 
  -2  -6  -7    1.02    0.22 
  -2  -6  -7    1.18    0.29 
  -2  -7   6   20.84    0.65 
  -2  -7   6   24.86    0.66 
   2   7  -6   26.94    0.75 
  -2  -7   5    1.99    0.31 
  -2  -7   5    2.50    0.33 
   2   7  -5    2.68    0.37 
  -2  -7   4    2.88    0.37 
  -2  -7   4    3.62    0.39 
   2   7  -4    3.58    0.41 
  -2  -7   3    3.85    0.45 
  -2  -7   3    4.06    0.43 
  -2  -7   3    3.88    0.48 
   2   7  -3    4.57    0.52 
  -2  -7   2    8.37    0.58 
  -2  -7   2   23.45    0.81 
  -2  -7   2   21.91    0.64 
  -2  -7   2   25.87    0.83 
   2   7  -2   27.61    0.88 
  -2  -7   1   14.94    0.70 
  -2  -7   1   38.16    1.00 
  -2  -7   1   43.75    1.03 
   2   7  -1   40.94    1.01 
  -2  -7   0    1.24    0.38 
  -2  -7   0    1.05    0.30 
  -2  -7   0    1.26    0.32 
  -2  -7   0    1.88    0.34 
  -2  -7  -1   11.70    0.64 
  -2  -7  -1   21.14    0.78 
  -2  -7  -1   24.79    0.85 
  -2  -7  -1   25.14    0.80 
  -2  -7  -2    3.81    0.47 
  -2  -7  -2    7.54    0.54 
  -2  -7  -2    7.92    0.57 
  -2  -7  -3    0.39    0.28 
  -2  -7  -3    0.50    0.27 
  -2  -7  -3    0.70    0.28 
  -2  -7  -4    8.95    0.48 
  -2  -7  -4   15.19    0.59 
  -2  -7  -4   16.96    0.64 
  -2  -7  -5   13.61    0.50 
  -2  -7  -5   14.28    0.53 
  -2  -8   1   25.72    0.69 
   2   8  -1    6.70    0.57 
  -2  -8   0   23.90    0.62 
  -2  -8  -1    2.89    0.33 
   3  -7  -6    2.14    0.28 
   3  -7  -6    4.13    0.50 
   3  -7  -5   17.17    0.61 
   3  -7  -5   37.52    0.78 
   3  -7  -5   35.91    0.81 
  -3   7   4    9.09    0.56 
   3  -7  -4    2.25    0.34 
   3  -7  -4    9.33    0.52 
   3  -7  -4    8.54    0.53 
  -3   7   3    4.77    0.44 
   3  -7  -3    1.10    0.32 
   3  -7  -3    5.53    0.48 
   3  -7  -3    4.63    0.48 
  -3   7   2    2.05    0.33 
   3  -7  -2    0.36    0.29 
   3  -7  -2    2.30    0.35 
   3  -7  -2    1.71    0.32 
  -3   7   1   13.00    0.62 
   3  -7  -1   14.10    0.64 
   3  -7  -1   12.35    0.59 
  -3   7   0    6.61    0.50 
   3  -7   0    5.40    0.27 
   3  -7   0    6.54    0.50 
  -3   7  -1    0.30    0.26 
   3  -7   1    0.26    0.20 
   3  -7   1    0.26    0.18 
   3  -7   1    0.53    0.24 
  -3   7  -2    7.59    0.48 
   3  -7   2    5.84    0.39 
   3  -7   2    6.41    0.38 
  -3   7  -3   15.96    0.55 
   3  -7   3   13.83    0.51 
   3  -7   3   13.09    0.46 
   3  -6  -8    0.52    0.21 
   3  -6  -8    1.19    0.24 
   3  -6  -7    1.04    0.32 
   3  -6  -7    1.55    0.29 
   3  -6  -7    1.27    0.30 
   3  -6  -6    0.03    0.29 
   3  -6  -6    0.26    0.23 
   3  -6  -6    0.10    0.27 
   3  -6  -6    0.06    0.27 
   3  -6  -5    1.92    0.38 
   3  -6  -5    2.78    0.39 
   3  -6  -5    2.76    0.40 
   3  -6  -5    3.37    0.45 
   3  -6  -4   13.60    0.72 
   3  -6  -4   16.83    0.78 
   3  -6  -4   15.55    0.76 
   3  -6  -4   15.62    0.78 
   3  -6  -3   30.54    0.98 
   3  -6  -3   39.45    1.10 
   3  -6  -3   38.46    1.10 
   3  -6  -2  104.78    1.65 
   3  -6  -2  128.24    1.11 
   3  -6  -2  158.01    2.12 
   3  -6  -2  146.20    1.98 
  -3   6   1   64.72    1.40 
   3  -6  -1   45.67    1.14 
   3  -6  -1   56.40    0.98 
   3  -6  -1   66.85    1.41 
   3  -6  -1   60.40    1.32 
  -3   6   0   20.99    0.89 
   3  -6   0   18.12    0.54 
   3  -6   0   19.50    0.71 
   3  -6   0   22.77    0.91 
   3  -6   0   21.31    0.84 
  -3   6  -1  178.34    2.22 
   3  -6   1  139.67    1.53 
   3  -6   1  149.13    1.83 
   3  -6   1  178.06    2.14 
  -3   6  -2   92.10    1.59 
   3  -6   2   80.73    1.41 
   3  -6   2   74.99    1.22 
   3  -6   2   84.07    1.44 
   3  -6   2   98.30    1.54 
  -3   6  -3   28.14    0.93 
   3  -6   3   24.32    0.82 
   3  -6   3   26.14    0.86 
  -3   6  -4    0.33    0.30 
   3  -6   4    0.34    0.24 
  -3   6  -5   44.81    0.96 
   3  -6   5   38.35    0.88 
  -3   6  -6   17.77    0.55 
   3  -6   6   15.20    0.51 
   3  -5  -9   15.58    0.58 
   3  -5  -9   15.14    0.61 
   3  -5  -8   13.19    0.61 
   3  -5  -8   16.95    0.71 
   3  -5  -8   16.72    0.73 
   3  -5  -7    3.42    0.44 
   3  -5  -7    3.81    0.47 
   3  -5  -7    3.55    0.45 
   3  -5  -6   17.62    0.77 
   3  -5  -6   22.79    0.91 
   3  -5  -6   22.66    0.89 
   3  -5  -6   21.59    0.88 
   3  -5  -5   52.45    1.24 
   3  -5  -5   62.45    1.32 
   3  -5  -5   63.26    1.39 
   3  -5  -5   63.14    1.40 
   3  -5  -4   14.54    0.75 
   3  -5  -4   18.34    0.83 
   3  -5  -4   18.58    0.86 
   3  -5  -4   17.73    0.84 
   3  -5  -3   70.69    1.44 
   3  -5  -3   74.24    0.95 
   3  -5  -3   88.74    1.61 
   3  -5  -3   89.80    1.63 
   3  -5  -3   85.57    1.59 
   3  -5  -2   24.30    0.85 
   3  -5  -2   26.14    0.55 
   3  -5  -2   26.13    0.74 
   3  -5  -2   31.19    1.01 
   3  -5  -2   29.27    1.01 
   3  -5  -2   29.43    0.99 
   3  -5  -1   77.54    1.42 
   3  -5  -1   79.54    1.15 
   3  -5  -1   81.90    1.34 
   3  -5  -1   91.72    1.64 
   3  -5  -1   88.83    1.63 
   3  -5  -1   86.40    1.54 
  -3   5   0   86.20    1.62 
   3  -5   0   78.66    1.61 
   3  -5   0   79.36    1.29 
   3  -5   0   77.63    1.40 
   3  -5   0   89.12    1.62 
   3  -5   0   83.25    1.49 
  -3   5  -1   53.59    1.32 
   3  -5   1   45.66    1.13 
   3  -5   1   47.37    1.10 
   3  -5   1   47.04    1.19 
   3  -5   1   53.99    1.28 
  -3   5  -2   12.98    0.78 
   3  -5   2   10.59    0.64 
   3  -5   2   11.19    0.66 
   3  -5   2   12.48    0.72 
  -3   5  -3   46.46    1.23 
   3  -5   3   40.59    1.12 
   3  -5   3   47.80    1.17 
  -3   5  -4   46.62    1.22 
   3  -5   4   38.42    1.09 
  -3   5  -5   44.91    1.14 
   3  -5   5   38.29    1.05 
  -3   5  -6    0.33    0.28 
   3  -5   6    0.28    0.25 
  -3   5  -7   43.78    0.90 
  -3   5  -7   52.36    0.97 
   3  -5   7   46.09    0.94 
   3  -4 -10    3.73    0.44 
   3  -4 -10    3.69    0.41 
   3  -4  -9   20.35    0.80 
   3  -4  -9   18.24    0.76 
   3  -4  -8   30.46    0.92 
   3  -4  -8   35.93    1.05 
   3  -4  -8   35.91    1.07 
   3  -4  -7   38.22    1.06 
   3  -4  -7   46.00    1.20 
   3  -4  -7   47.21    1.22 
   3  -4  -6  155.41    2.07 
   3  -4  -6  182.92    2.27 
   3  -4  -6  180.14    2.27 
   3  -4  -5   17.28    0.74 
   3  -4  -5   20.39    0.80 
   3  -4  -5   21.16    0.88 
   3  -4  -5   20.41    0.83 
   3  -4  -4  196.71    2.26 
   3  -4  -4  189.68    1.38 
   3  -4  -4  218.32    2.32 
   3  -4  -4  218.50    2.40 
   3  -4  -4  229.06    2.44 
   3  -4  -3   51.56    1.18 
   3  -4  -3   53.65    1.19 
   3  -4  -3   52.99    0.73 
   3  -4  -3   51.11    0.91 
   3  -4  -3   58.60    1.24 
   3  -4  -3   56.43    1.24 
   3  -4  -3   57.28    1.25 
   3  -4  -2   56.33    1.19 
   3  -4  -2   57.84    1.19 
   3  -4  -2   60.68    0.97 
   3  -4  -2   55.91    1.04 
   3  -4  -2   64.81    1.30 
   3  -4  -2   62.73    1.31 
   3  -4  -2   61.50    1.24 
   3  -4  -1  105.18    1.55 
   3  -4  -1  112.71    1.60 
   3  -4  -1  115.97    1.46 
   3  -4  -1  109.69    1.53 
   3  -4  -1  120.88    1.75 
   3  -4  -1  117.15    1.72 
   3  -4  -1  117.31    1.65 
   3  -4   0   82.56    1.34 
   3  -4   0   77.75    1.38 
   3  -4   0   87.37    1.50 
   3  -4   0   83.92    1.49 
  -3   4  -1   28.36    0.93 
   3  -4   1   26.51    0.83 
   3  -4   1   24.88    0.81 
   3  -4   1   27.67    0.89 
   3  -4   1   31.06    0.97 
  -3   4  -2   21.63    0.85 
   3  -4   2   18.98    0.75 
   3  -4   2   24.68    0.98 
   3  -4   2   25.79    0.90 
  -3   4  -3    3.18    0.52 
   3  -4   3    2.34    0.42 
   3  -4   3    2.76    0.43 
  -3   4  -4   87.30    1.60 
   3  -4   4   72.91    1.48 
  -3   4  -5   46.54    1.22 
  -3   4  -5   43.52    1.11 
   3  -4   5   36.20    1.08 
  -3   4  -6  135.52    1.82 
  -3   4  -6  167.57    2.08 
  -3   4  -6  162.31    1.96 
   3  -4   6  140.86    1.96 
  -3   4  -7   16.84    0.71 
  -3   4  -7   20.45    0.76 
  -3   4  -7   19.23    1.04 
   3  -4   7   16.23    0.71 
  -3   4  -8   28.82    0.70 
  -3   4  -8   31.70    0.76 
   3  -4   8   27.92    0.78 
   3  -3 -11   22.41    0.72 
   3  -3 -11   23.10    0.70 
   3  -3 -11   21.73    0.66 
   3  -3 -10   65.83    1.30 
   3  -3 -10   65.63    1.26 
   3  -3 -10   64.33    1.24 
   3  -3  -9   50.68    1.24 
   3  -3  -9   50.09    1.20 
   3  -3  -9   49.61    1.20 
   3  -3  -8  130.47    1.80 
   3  -3  -8  160.10    2.14 
   3  -3  -8  152.90    2.04 
   3  -3  -8  154.15    2.09 
   3  -3  -7  223.02    2.39 
   3  -3  -7  263.25    2.70 
   3  -3  -7  264.81    2.64 
   3  -3  -7  260.66    2.68 
   3  -3  -6   61.88    1.27 
   3  -3  -6   60.61    1.38 
   3  -3  -6   74.69    1.43 
   3  -3  -6   75.77    1.40 
   3  -3  -6   75.16    1.45 
   3  -3  -5   94.66    1.52 
   3  -3  -5   99.08    1.56 
   3  -3  -5   91.99    0.88 
   3  -3  -5  108.16    1.66 
   3  -3  -5  106.66    1.57 
   3  -3  -5  110.05    1.66 
   3  -3  -4    8.70    0.53 
   3  -3  -4    8.99    0.51 
   3  -3  -4    8.93    0.31 
   3  -3  -4    8.40    0.40 
   3  -3  -4    9.57    0.60 
   3  -3  -4   11.68    0.68 
   3  -3  -3  502.60    3.25 
   3  -3  -3  494.20    2.42 
   3  -3  -2  117.95    1.54 
   3  -3  -2  116.98    1.33 
   3  -3  -1   48.85    0.97 
   3  -3  -1   47.59    0.94 
   3  -3   0  191.08    1.83 
   3  -3   0  176.54    1.74 
   3  -3   0  184.79    1.89 
   3  -3   1  119.68    1.53 
   3  -3   1  121.27    1.64 
  -3   3  -2    9.01    0.57 
   3  -3   2    7.77    0.51 
   3  -3   2    6.24    0.77 
   3  -3   2    8.85    0.55 
  -3   3  -3   21.28    0.82 
  -3   3  -3   19.94    0.78 
   3  -3   3   17.26    0.72 
   3  -3   3   16.41    0.71 
   3  -3   3   19.67    0.75 
  -3   3  -4   39.81    1.08 
  -3   3  -4   36.80    1.03 
   3  -3   4   34.01    1.02 
  -3   3  -5    2.74    0.45 
  -3   3  -5    2.46    0.44 
   3  -3   5    1.57    0.39 
  -3   3  -6   80.10    1.41 
  -3   3  -6   79.23    1.51 
  -3   3  -6   95.11    1.62 
  -3   3  -6   90.00    1.60 
   3  -3   6   79.85    1.55 
  -3   3  -7    2.04    0.32 
  -3   3  -7    1.46    0.33 
  -3   3  -7    2.47    0.42 
  -3   3  -7    1.94    0.39 
   3  -3   7    1.44    0.37 
  -3   3  -8   29.73    0.77 
  -3   3  -8   32.70    0.91 
   3  -3   8   29.24    0.91 
  -3   3  -9    0.71    0.13 
  -3   3  -9    0.97    0.25 
   3  -3   9    0.75    0.24 
   3  -2 -12   20.42    0.64 
   3  -2 -12   21.41    0.65 
   3  -2 -11   27.17    0.86 
   3  -2 -11   27.18    0.86 
   3  -2 -11   25.39    0.78 
   3  -2 -10    4.72    0.54 
   3  -2 -10    4.41    0.51 
   3  -2 -10    4.54    0.49 
   3  -2  -9  110.01    1.80 
   3  -2  -9  113.81    1.81 
   3  -2  -9  116.33    1.81 
   3  -2  -8   29.53    1.00 
   3  -2  -8   27.39    0.95 
   3  -2  -8   27.92    0.94 
   3  -2  -7  151.79    1.89 
   3  -2  -7  157.12    1.93 
   3  -2  -7  181.60    2.20 
   3  -2  -7  172.83    2.11 
   3  -2  -7  180.10    2.18 
   3  -2  -6   64.95    1.24 
   3  -2  -6   67.89    1.25 
   3  -2  -6   66.15    0.74 
   3  -2  -6   63.64    0.73 
   3  -2  -6   74.85    1.36 
   3  -2  -6   73.57    1.33 
   3  -2  -6   74.16    1.35 
   3  -2  -5   20.55    0.69 
   3  -2  -5   20.09    0.40 
   3  -2  -4   82.30    1.27 
   3  -2  -4   79.59    1.02 
   3  -2  -4   76.67    0.91 
   3  -2  -3  263.46    2.18 
   3  -2  -3  269.26    1.94 
   3  -2  -3  253.43    1.77 
   3  -2  -2   14.40    0.54 
   3  -2  -2   14.67    0.53 
   3  -2  -2   13.44    0.49 
   3  -2  -1   13.89    0.51 
   3  -2  -1   13.05    0.52 
   3  -2   0   58.99    0.94 
   3  -2   0   55.63    0.88 
   3  -2   0   53.38    0.98 
   3  -2   1  338.81    2.32 
   3  -2   2   68.24    1.15 
  -3   2  -3   25.53    0.80 
   3  -2   3   28.25    0.81 
  -3   2  -4   66.56    1.26 
  -3   2  -4   72.49    1.80 
  -3   2  -4   71.33    1.36 
   3  -2   4   61.57    1.25 
   3  -2   4   73.23    1.34 
  -3   2  -5   40.89    1.02 
  -3   2  -5   38.15    1.07 
  -3   2  -5   43.63    1.14 
  -3   2  -6   30.65    0.86 
  -3   2  -6   29.21    0.92 
  -3   2  -6   34.03    1.06 
   3  -2   6   28.23    0.99 
  -3   2  -7   29.97    0.74 
  -3   2  -7   28.50    0.86 
  -3   2  -7   31.97    1.00 
  -3   2  -7   34.97    1.08 
   3  -2   7   28.25    0.97 
  -3   2  -8   16.12    0.58 
  -3   2  -8   17.51    0.76 
  -3   2  -8   18.48    0.81 
   3  -2   8   15.47    0.74 
  -3   2  -9    2.54    0.35 
  -3   2  -9    2.23    0.36 
   3  -2   9    2.18    0.35 
  -3   2 -10    1.61    0.27 
   3  -1 -12   31.44    0.76 
   3  -1 -12   36.17    0.88 
   3  -1 -12   37.67    0.90 
   3  -1 -11   24.10    0.81 
   3  -1 -11   29.50    0.92 
   3  -1 -11   29.43    0.94 
   3  -1 -11   28.83    0.86 
   3  -1 -10  177.90    2.13 
   3  -1 -10  212.29    2.43 
   3  -1 -10  207.97    2.42 
   3  -1 -10  210.93    2.38 
   3  -1  -9   21.34    0.83 
   3  -1  -9   25.15    0.95 
   3  -1  -9   24.69    0.94 
   3  -1  -9   26.15    0.94 
   3  -1  -8  115.59    1.72 
   3  -1  -8  138.60    1.95 
   3  -1  -8  133.40    1.92 
   3  -1  -8  135.81    1.91 
  -3   1   7   87.95    1.43 
   3  -1  -7   88.00    1.78 
   3  -1  -7   92.20    1.41 
   3  -1  -7   88.07    1.44 
   3  -1  -7   88.10    0.96 
   3  -1  -7  101.99    1.60 
   3  -1  -7  103.71    1.62 
   3  -1  -7  104.23    1.62 
  -3   1   6   17.14    0.65 
   3  -1  -6   17.35    0.64 
   3  -1  -6   17.65    0.42 
  -3   1   5   38.77    0.85 
   3  -1  -5   40.06    0.89 
   3  -1  -5   40.18    0.69 
  -3   1   4   42.84    0.83 
   3  -1  -4   43.88    0.90 
   3  -1  -4   45.59    0.81 
   3  -1  -4   43.11    0.75 
  -3   1   3  106.38    1.19 
   3  -1  -3  110.89    1.33 
   3  -1  -3  107.54    1.22 
   3  -1  -3  102.69    1.16 
  -3   1   2    5.66    0.34 
   3  -1  -2    5.28    0.35 
   3  -1  -2    5.57    0.38 
   3  -1  -2    4.68    0.35 
  -3   1   1   98.87    1.10 
   3  -1  -1  101.34    1.19 
   3  -1  -1   86.64    1.03 
   3  -1  -1  108.59    1.29 
   3  -1  -1   98.04    1.21 
  -3   1   0  256.44    1.78 
   3  -1   0  254.87    1.81 
   3  -1   0  234.38    1.62 
   3  -1   0  253.02    2.03 
  -3   1  -1  123.92    1.31 
   3  -1   1  114.80    1.18 
   3  -1   1  107.89    1.23 
  -3   1  -2  353.21    2.47 
  -3   1  -2  437.71    2.57 
   3  -1   2  366.74    2.45 
  -3   1  -3   62.84    1.09 
  -3   1  -3   73.40    1.16 
   3  -1   3   63.74    1.14 
  -3   1  -4   14.14    0.69 
  -3   1  -4   18.24    0.66 
  -3   1  -4   21.08    0.70 
  -3   1  -4   19.02    0.73 
   3  -1   4   18.39    0.69 
  -3   1  -5   33.03    0.99 
  -3   1  -5   35.28    0.97 
  -3   1  -5   37.33    0.88 
  -3   1  -5   33.75    0.92 
  -3   1  -5   40.29    1.00 
  -3   1  -5   38.03    0.99 
  -3   1  -5   38.86    1.06 
   3  -1   5   34.51    0.98 
  -3   1  -6   95.56    1.65 
  -3   1  -6  105.54    1.67 
  -3   1  -6  108.73    1.34 
  -3   1  -6  100.88    1.46 
  -3   1  -6  115.12    1.73 
  -3   1  -6  120.40    1.85 
  -3   1  -7   34.89    1.08 
  -3   1  -7   37.80    1.08 
  -3   1  -7   37.35    0.87 
  -3   1  -7   41.27    1.13 
  -3   1  -7   44.11    1.20 
  -3   1  -8   55.12    1.24 
  -3   1  -8   54.52    0.79 
  -3   1  -8   62.76    1.33 
  -3   1  -8   64.69    1.39 
  -3   1  -9   16.28    0.68 
  -3   1  -9   17.82    0.73 
  -3   1  -9   18.65    0.77 
   3  -1   9   15.78    0.69 
  -3   1 -10   23.96    0.64 
  -3   1 -10   24.87    0.68 
  -3   1 -10   27.26    0.73 
   3  -1  10   21.78    0.63 
   3   0 -12   10.90    0.55 
   3   0 -12   12.88    0.60 
   3   0 -12   13.33    0.60 
   3   0 -11   20.52    0.81 
   3   0 -11   24.59    0.87 
   3   0 -11   24.63    0.88 
   3   0 -11   24.36    0.82 
   3   0 -10   14.88    0.76 
   3   0 -10   17.21    0.82 
   3   0 -10   17.57    0.81 
   3   0 -10   16.44    0.79 
   3   0  -9  174.53    2.23 
   3   0  -9  167.76    1.09 
   3   0  -9  194.32    2.34 
   3   0  -9  193.94    2.34 
   3   0  -9  193.25    2.31 
   3   0  -8   65.82    1.36 
   3   0  -8   64.09    0.94 
   3   0  -8   75.09    1.43 
   3   0  -8   73.90    1.44 
   3   0  -8   75.05    1.45 
  -3   0   7  230.82    2.33 
   3   0  -7  224.84    2.30 
   3   0  -7  245.66    1.64 
   3   0  -7  225.48    1.84 
   3   0  -7  261.25    2.47 
   3   0  -7  259.77    2.48 
   3   0  -7  258.07    2.48 
  -3   0   6  170.08    1.88 
   3   0  -6  177.73    1.82 
   3   0  -6  170.97    1.62 
   3   0  -6  179.11    1.53 
  -3   0   5    0.51    0.26 
   3   0  -5    0.63    0.21 
   3   0  -5    0.64    0.20 
   3   0  -5    0.48    0.19 
  -3   0   4  917.33    3.81 
   3   0  -4  940.10    3.88 
   3   0  -4  878.13    5.70 
   3   0  -4  815.04    4.39 
  -3   0   3  346.25    2.24 
   3   0  -3  353.34    2.30 
   3   0  -3  350.18    2.25 
   3   0  -3  327.21    2.12 
  -3   0   2    7.77    0.42 
   3   0  -2    8.34    0.41 
   3   0  -2    7.70    0.42 
  -3   0   1   50.56    0.85 
   3   0  -1   48.42    0.84 
   3   0  -1   43.40    0.60 
   3   0  -1   48.93    0.88 
  -3   0   0    1.75    0.25 
  -3   0   0    2.99    0.33 
   3   0   0    1.97    0.26 
   3   0   0    2.92    0.25 
  -3   0  -1   18.69    0.60 
  -3   0  -1   21.50    0.63 
   3   0   1   20.83    0.54 
   3   0   1   20.53    0.55 
  -3   0  -2 1122.00    4.09 
  -3   0  -2 1277.00    7.75 
   3   0   2 1134.00    4.23 
  -3   0  -3  556.01    2.91 
  -3   0  -3  662.64    3.52 
   3   0   3  546.20    3.19 
  -3   0  -4   39.69    0.82 
  -3   0  -4   45.33    1.01 
   3   0   4   39.68    0.97 
  -3   0  -5    2.79    0.41 
  -3   0  -5    3.80    0.49 
  -3   0  -5    3.35    0.35 
  -3   0  -5    4.44    0.42 
  -3   0  -5    3.68    0.45 
  -3   0  -5    3.93    0.45 
  -3   0  -5    4.36    0.51 
   3   0   5    3.15    0.38 
   3   0   5    3.93    0.46 
  -3   0  -6  259.96    2.67 
  -3   0  -6  268.62    2.68 
  -3   0  -6  279.08    1.61 
  -3   0  -6  261.53    2.03 
  -3   0  -6  298.98    2.79 
  -3   0  -6  310.76    2.88 
  -3   0  -7   11.27    0.71 
  -3   0  -7   12.24    0.72 
  -3   0  -7   12.35    0.45 
  -3   0  -7   13.86    0.75 
  -3   0  -7   14.77    0.78 
  -3   0  -8  134.59    1.93 
  -3   0  -8  147.82    2.02 
  -3   0  -8  163.70    2.12 
  -3   0  -8  170.53    2.14 
  -3   0  -9    9.42    0.63 
  -3   0  -9   10.13    0.66 
  -3   0  -9   10.63    0.66 
  -3   0 -10    0.65    0.25 
  -3   0 -10    0.26    0.21 
  -3   0 -10    0.70    0.26 
   3   0  10    0.26    0.21 
   3   1 -12   33.03    0.84 
   3   1 -12   39.60    0.92 
   3   1 -12   37.25    0.83 
   3   1 -11   25.28    0.89 
   3   1 -11   29.85    0.92 
   3   1 -11   29.62    0.91 
   3   1 -11   29.91    0.89 
   3   1 -10  182.37    2.27 
   3   1 -10  181.18    1.15 
   3   1 -10  207.22    2.38 
   3   1 -10  213.62    2.36 
   3   1  -9   22.22    0.90 
   3   1  -9   21.83    0.35 
   3   1  -9   21.91    0.65 
   3   1  -9   25.29    0.92 
   3   1  -9   25.51    0.93 
   3   1  -9   24.99    0.91 
   3   1  -8  116.61    1.79 
   3   1  -8  124.88    1.32 
   3   1  -8  115.29    1.47 
   3   1  -8  136.59    1.90 
   3   1  -8  136.01    1.88 
   3   1  -8  133.01    1.90 
  -3  -1   7   90.42    1.52 
   3   1  -7   88.27    1.51 
   3   1  -7   98.62    1.29 
   3   1  -7   92.54    1.36 
   3   1  -7  103.39    1.57 
   3   1  -7  102.08    1.56 
   3   1  -7  105.04    1.62 
  -3  -1   6   16.85    0.68 
   3   1  -6   17.57    0.61 
   3   1  -6   17.29    0.62 
   3   1  -6   17.46    0.60 
  -3  -1   5   39.09    0.91 
   3   1  -5   40.45    0.86 
   3   1  -5   39.28    0.85 
  -3  -1   4   42.12    0.89 
   3   1  -4   43.49    0.87 
   3   1  -4   40.34    0.84 
  -3  -1   3  105.80    1.31 
   3   1  -3  111.92    1.34 
   3   1  -3  104.70    1.32 
   3   1  -3  101.78    1.29 
  -3  -1   2    5.13    0.37 
   3   1  -2    5.39    0.36 
  -3  -1   1   94.21    1.20 
  -3  -1   1  103.41    1.25 
   3   1  -1  101.56    1.22 
   3   1  -1   96.35    0.96 
  -3  -1   0  235.70    1.83 
  -3  -1   0  257.51    1.98 
   3   1   0  248.82    1.87 
   3   1   0  239.31    1.68 
  -3  -1  -1  108.97    1.25 
  -3  -1  -1  120.24    1.41 
   3   1   1  113.40    1.26 
   3   1   1  110.21    1.26 
  -3  -1  -2  370.86    2.25 
  -3  -1  -2  441.30    2.80 
   3   1   2  384.86    2.29 
   3   1   2  368.65    2.49 
  -3  -1  -3   65.43    0.95 
  -3  -1  -3   75.83    1.25 
   3   1   3   63.91    1.14 
  -3  -1  -4   14.28    0.70 
  -3  -1  -4   20.29    0.74 
  -3  -1  -4   18.73    0.52 
  -3  -1  -4   19.05    0.64 
  -3  -1  -4   24.24    0.78 
   3   1   4   17.12    0.66 
  -3  -1  -5   35.28    1.00 
  -3  -1  -5   35.23    1.01 
  -3  -1  -5   36.15    0.52 
  -3  -1  -5   34.70    0.72 
  -3  -1  -5   40.49    1.06 
  -3  -1  -5   35.90    0.99 
  -3  -1  -5   37.32    1.03 
  -3  -1  -5   39.47    1.01 
   3   1   5   35.23    0.97 
  -3  -1  -6  100.38    1.71 
  -3  -1  -6  105.68    1.74 
  -3  -1  -6   99.02    0.98 
  -3  -1  -6  101.09    2.03 
  -3  -1  -6  116.93    1.80 
  -3  -1  -6  121.80    1.78 
  -3  -1  -7   36.99    1.11 
  -3  -1  -7   38.45    1.13 
  -3  -1  -7   40.71    1.16 
  -3  -1  -7   43.57    1.14 
  -3  -1  -8   51.89    1.23 
  -3  -1  -8   57.32    1.32 
  -3  -1  -8   59.40    1.33 
  -3  -1  -8   65.77    1.33 
  -3  -1  -9   15.17    0.68 
  -3  -1  -9   16.08    0.72 
  -3  -1  -9   17.65    0.77 
  -3  -1  -9   18.73    0.72 
  -3  -1 -10   22.71    0.68 
  -3  -1 -10   25.05    0.71 
  -3  -1 -10   24.21    0.81 
  -3  -2  12   16.32    0.57 
   3   2 -12   20.62    0.63 
   3   2 -11   23.93    0.82 
   3   2 -11   26.91    0.84 
   3   2 -11   27.12    0.82 
   3   2 -10    3.93    0.51 
   3   2 -10    3.53    0.37 
   3   2 -10    4.55    0.52 
   3   2 -10    4.50    0.52 
   3   2  -9  100.67    1.72 
   3   2  -9  101.87    1.21 
   3   2  -9   99.93    1.45 
   3   2  -9  118.88    1.81 
   3   2  -9  115.34    1.82 
  -3  -2   8   25.68    0.94 
   3   2  -8   24.07    0.92 
   3   2  -8   26.45    0.77 
   3   2  -8   25.01    0.84 
   3   2  -8   28.31    0.93 
   3   2  -8   28.01    0.96 
  -3  -2   7  130.66    1.99 
  -3  -2   7  161.89    1.96 
   3   2  -7  151.66    2.00 
   3   2  -7  165.47    1.87 
   3   2  -7  155.93    1.93 
   3   2  -7  178.19    2.40 
   3   2  -7  180.34    2.17 
  -3  -2   6   65.69    1.28 
   3   2  -6   61.53    1.25 
   3   2  -6   69.33    1.24 
   3   2  -6   73.96    1.35 
  -3  -2   5   19.57    0.69 
   3   2  -5   21.21    0.67 
   3   2  -5   21.09    0.72 
  -3  -2   4   76.61    1.23 
   3   2  -4   76.81    1.20 
  -3  -2   3  256.20    2.13 
   3   2  -3  255.48    2.12 
  -3  -2   2   12.64    0.55 
  -3  -2   2   14.67    0.55 
   3   2  -2   13.43    0.53 
  -3  -2   1   13.22    0.45 
  -3  -2   1   12.50    0.53 
  -3  -2   1   14.23    0.56 
   3   2  -1   13.85    0.54 
  -3  -2   0   57.33    0.94 
  -3  -2   0   54.52    0.93 
  -3  -2   0   60.42    1.05 
   3   2   0   59.82    1.02 
  -3  -2  -1  336.03    2.16 
  -3  -2  -1  361.87    2.55 
   3   2   1  350.07    2.42 
  -3  -2  -2   70.87    0.97 
  -3  -2  -2   80.40    1.28 
   3   2   2   70.51    1.11 
   3   2   2   66.93    1.14 
  -3  -2  -3   27.73    0.58 
  -3  -2  -3   31.40    0.88 
   3   2   3   28.39    0.81 
  -3  -2  -4   61.03    1.27 
  -3  -2  -4   62.34    1.27 
  -3  -2  -4   65.83    0.54 
  -3  -2  -4   59.57    0.86 
  -3  -2  -4   75.11    1.37 
  -3  -2  -4   64.92    1.27 
  -3  -2  -4   71.59    1.37 
   3   2   4   62.28    1.25 
  -3  -2  -5   38.30    1.08 
  -3  -2  -5   38.60    1.06 
  -3  -2  -5   37.42    0.54 
  -3  -2  -5   42.08    1.07 
  -3  -2  -5   46.12    1.17 
  -3  -2  -6   28.88    1.00 
  -3  -2  -6   29.28    0.99 
  -3  -2  -6   30.38    0.95 
  -3  -2  -6   33.25    1.06 
  -3  -2  -7   27.77    0.97 
  -3  -2  -7   29.73    1.01 
  -3  -2  -7   33.19    1.06 
  -3  -2  -8   15.61    0.74 
  -3  -2  -8   15.07    0.76 
  -3  -2  -8   17.97    0.80 
  -3  -2  -9    1.86    0.31 
  -3  -2  -9    1.99    0.36 
  -3  -2  -9    2.68    0.38 
  -3  -2 -10    1.58    0.26 
  -3  -2 -10    1.41    0.26 
  -3  -3  11   17.80    0.61 
   3   3 -11   19.53    0.34 
   3   3 -11   22.60    0.68 
   3   3 -11   22.78    0.70 
  -3  -3  10   64.06    1.23 
   3   3 -10   58.30    1.02 
   3   3 -10   68.31    1.24 
   3   3 -10   69.11    1.32 
  -3  -3   9   47.98    1.18 
   3   3  -9   43.21    0.91 
   3   3  -9   45.27    1.08 
   3   3  -9   51.67    1.18 
   3   3  -9   47.64    1.20 
  -3  -3   8  147.55    2.01 
   3   3  -8  141.07    1.80 
   3   3  -8  139.91    1.94 
   3   3  -8  161.19    2.15 
  -3  -3   7  248.01    2.56 
   3   3  -7  240.88    2.45 
   3   3  -7  265.81    2.72 
  -3  -3   6   58.93    1.25 
  -3  -3   6   68.87    1.35 
   3   3  -6   66.79    1.35 
   3   3  -6   73.53    1.43 
  -3  -3   5   85.74    1.43 
  -3  -3   5   93.83    1.48 
  -3  -3   5  101.00    1.56 
   3   3  -5   64.39    1.20 
   3   3  -5   99.78    1.47 
   3   3  -5  109.50    1.65 
  -3  -3   4    8.71    0.52 
   3   3  -4    9.81    0.51 
  -3  -3   3  500.60    3.13 
   3   3  -3  495.35    3.19 
  -3  -3   2  111.51    1.50 
  -3  -3   2  115.51    1.48 
   3   3  -2  120.02    1.58 
  -3  -3   1   47.51    0.92 
  -3  -3   1   46.94    0.95 
  -3  -3   1   48.61    0.98 
   3   3  -1   48.34    1.02 
  -3  -3   0  174.70    1.80 
  -3  -3   0  179.82    1.70 
  -3  -3   0  188.68    1.90 
   3   3   0  185.45    1.95 
  -3  -3  -1  119.86    1.57 
  -3  -3  -1  126.53    1.34 
  -3  -3  -1  129.15    1.62 
   3   3   1  125.43    1.62 
  -3  -3  -2    7.68    0.51 
  -3  -3  -2    8.61    0.38 
  -3  -3  -2    7.10    0.42 
  -3  -3  -2    9.15    0.52 
  -3  -3  -2    7.74    0.55 
  -3  -3  -2    8.50    0.55 
   3   3   2    8.66    0.51 
  -3  -3  -3   17.54    0.73 
  -3  -3  -3   16.50    0.70 
  -3  -3  -3   17.14    0.50 
  -3  -3  -3   20.51    0.75 
  -3  -3  -3   17.77    0.75 
  -3  -3  -3   20.25    0.79 
   3   3   3   17.00    0.68 
  -3  -3  -4   32.76    0.99 
  -3  -3  -4   34.61    1.01 
  -3  -3  -4   32.52    0.45 
  -3  -3  -4   36.93    1.07 
  -3  -3  -4   38.72    1.08 
  -3  -3  -5    1.34    0.36 
  -3  -3  -5    1.68    0.37 
  -3  -3  -5    1.63    0.39 
  -3  -3  -5    1.92    0.44 
  -3  -3  -6   75.64    1.51 
  -3  -3  -6   80.07    1.52 
  -3  -3  -6   84.58    1.53 
  -3  -3  -6   90.87    1.66 
  -3  -3  -7    1.55    0.36 
  -3  -3  -7    1.32    0.35 
  -3  -3  -7    1.54    0.34 
  -3  -3  -7    1.64    0.37 
  -3  -3  -8   26.21    0.84 
  -3  -3  -8   28.98    0.87 
  -3  -3  -8   30.95    0.93 
  -3  -3  -9    0.54    0.22 
  -3  -3  -9    0.67    0.23 
  -3  -3  -9    0.85    0.26 
  -3  -4  10    3.87    0.45 
   3   4 -10    3.18    0.36 
   3   4 -10    3.61    0.42 
  -3  -4   9   19.34    0.80 
   3   4  -9   17.62    0.72 
   3   4  -9   19.41    0.79 
  -3  -4   8   28.51    0.89 
  -3  -4   8   35.46    1.08 
   3   4  -8   31.11    0.93 
   3   4  -8   31.61    1.05 
   3   4  -8   36.61    1.07 
  -3  -4   7   39.30    1.05 
  -3  -4   7   45.08    1.20 
   3   4  -7   39.91    1.37 
   3   4  -7   45.66    1.19 
  -3  -4   6  171.51    2.21 
   3   4  -6  186.03    2.30 
  -3  -4   5   17.93    0.83 
   3   4  -5   14.23    0.98 
   3   4  -5   20.61    0.85 
  -3  -4   4  215.98    2.38 
   3   4  -4  111.60    1.66 
   3   4  -4  221.91    2.37 
  -3  -4   3   49.28    1.14 
  -3  -4   3   54.78    1.22 
   3   4  -3   58.54    1.23 
  -3  -4   2   46.90    1.12 
  -3  -4   2   56.99    1.16 
  -3  -4   2   52.84    1.18 
  -3  -4   2   59.39    1.27 
   3   4  -2   56.88    1.20 
  -3  -4   1   89.63    1.52 
  -3  -4   1   88.83    1.59 
  -3  -4   1   93.14    1.82 
  -3  -4   1  111.31    1.48 
  -3  -4   1  100.85    1.51 
  -3  -4   1  107.34    1.58 
  -3  -4   1  119.25    1.75 
   3   4  -1  113.33    1.68 
  -3  -4   0   64.31    1.30 
  -3  -4   0   73.54    1.31 
  -3  -4   0   72.69    1.32 
  -3  -4   0   78.59    1.16 
  -3  -4   0   76.21    1.25 
  -3  -4   0   81.77    1.44 
  -3  -4   0   85.65    1.50 
   3   4   0   78.09    1.41 
  -3  -4  -1   22.68    0.82 
  -3  -4  -1   25.83    0.83 
  -3  -4  -1   25.43    0.85 
  -3  -4  -1   27.89    0.63 
  -3  -4  -1   28.44    0.76 
  -3  -4  -1   26.46    0.92 
  -3  -4  -1   29.17    0.95 
   3   4   1   27.02    0.86 
  -3  -4  -2   17.65    0.72 
  -3  -4  -2   20.05    0.82 
  -3  -4  -2   19.56    0.56 
  -3  -4  -2   22.22    0.86 
  -3  -4  -2   25.13    0.92 
  -3  -4  -3    1.55    0.32 
  -3  -4  -3    1.50    0.36 
  -3  -4  -3    2.29    0.19 
  -3  -4  -3    2.65    0.46 
  -3  -4  -3    3.19    0.49 
  -3  -4  -4   70.94    1.45 
  -3  -4  -4   73.90    2.15 
  -3  -4  -4   76.85    1.52 
  -3  -4  -4   83.53    1.59 
  -3  -4  -5   38.24    1.12 
  -3  -4  -5   35.22    0.99 
  -3  -4  -5   39.14    1.11 
  -3  -4  -5   44.37    1.21 
  -3  -4  -6  138.36    1.95 
  -3  -4  -6  127.90    1.82 
  -3  -4  -6  139.05    1.89 
  -3  -4  -6  160.05    2.08 
  -3  -4  -7   16.94    0.71 
  -3  -4  -7   18.27    0.71 
  -3  -4  -7   18.55    0.75 
  -3  -4  -8   25.33    0.72 
  -3  -4  -8   30.90    0.81 
  -3  -5   9   16.01    0.63 
   3   5  -9   13.76    0.58 
   3   5  -9   16.49    0.65 
  -3  -5   8   16.28    0.75 
   3   5  -8   17.88    0.75 
  -3  -5   7    4.39    0.52 
   3   5  -7    3.41    0.44 
  -3  -5   6   22.63    0.92 
   3   5  -6   22.19    0.89 
  -3  -5   5   62.00    1.40 
   3   5  -5   65.00    1.41 
  -3  -5   4   14.79    0.74 
  -3  -5   4   18.01    0.87 
   3   5  -4    4.50    0.50 
   3   5  -4   17.15    0.80 
  -3  -5   3   75.66    1.39 
  -3  -5   3   72.76    1.46 
  -3  -5   3   87.52    1.63 
   3   5  -3   90.82    1.58 
  -3  -5   2   20.14    0.87 
  -3  -5   2   25.96    0.82 
  -3  -5   2   25.24    0.89 
  -3  -5   2   29.97    1.03 
   3   5  -2   29.09    0.92 
  -3  -5   1   65.03    1.41 
  -3  -5   1   77.23    1.44 
  -3  -5   1   76.13    1.19 
  -3  -5   1   77.62    1.35 
  -3  -5   1   88.87    1.62 
  -3  -5   0   63.94    1.38 
  -3  -5   0   73.26    1.43 
  -3  -5   0   76.62    1.01 
  -3  -5   0   81.74    1.52 
  -3  -5   0   86.31    1.58 
  -3  -5  -1   37.03    1.07 
  -3  -5  -1   45.32    1.18 
  -3  -5  -1   30.40    0.72 
  -3  -5  -1   50.04    1.25 
  -3  -5  -1   51.61    1.26 
  -3  -5  -2    8.00    0.56 
  -3  -5  -2   10.68    0.69 
  -3  -5  -2   10.35    0.29 
  -3  -5  -2   11.67    0.76 
  -3  -5  -2   12.46    0.75 
  -3  -5  -3   32.08    0.96 
  -3  -5  -3   38.16    1.10 
  -3  -5  -3   41.57    1.17 
  -3  -5  -3   45.89    1.21 
  -3  -5  -4   31.34    0.91 
  -3  -5  -4   35.94    1.07 
  -3  -5  -4   39.54    1.13 
  -3  -5  -4   42.61    1.15 
  -3  -5  -5   37.93    1.05 
  -3  -5  -5   40.87    1.09 
  -3  -5  -5   45.14    1.13 
  -3  -5  -6    0.16    0.24 
  -3  -5  -6    0.28    0.25 
  -3  -5  -6    0.49    0.27 
  -3  -5  -7   41.99    0.88 
  -3  -5  -7   43.18    0.83 
  -3  -5  -7   46.71    0.89 
  -3  -6   8    1.16    0.25 
   3   6  -8    1.30    0.25 
  -3  -6   7    1.16    0.30 
   3   6  -7    1.48    0.31 
  -3  -6   6    0.65    0.31 
   3   6  -6    0.09    0.27 
  -3  -6   5    4.40    0.54 
   3   6  -5    3.03    0.41 
  -3  -6   4   13.61    0.62 
  -3  -6   4   14.21    0.72 
  -3  -6   4   16.88    0.81 
   3   6  -4    7.51    0.55 
   3   6  -4   17.39    0.76 
  -3  -6   3   31.59    0.82 
  -3  -6   3   32.36    0.95 
  -3  -6   3   39.59    1.12 
   3   6  -3   11.87    0.67 
   3   6  -3   39.16    1.04 
  -3  -6   2  132.18    1.79 
  -3  -6   2  121.58    1.37 
  -3  -6   2  128.33    1.66 
  -3  -6   2  149.26    2.03 
   3   6  -2  146.67    1.88 
  -3  -6   1   39.14    1.09 
  -3  -6   1   52.25    1.19 
  -3  -6   1   52.90    0.71 
  -3  -6   1   62.64    1.38 
  -3  -6   0   13.76    0.72 
  -3  -6   0   18.42    0.78 
  -3  -6   0   20.19    0.58 
  -3  -6   0   20.53    0.83 
  -3  -6   0   21.92    0.89 
  -3  -6  -1  105.86    1.70 
  -3  -6  -1  147.43    1.97 
  -3  -6  -1  159.43    2.03 
  -3  -6  -1  163.10    2.08 
  -3  -6  -2   61.51    1.28 
  -3  -6  -2   79.66    1.45 
  -3  -6  -2   84.63    1.52 
  -3  -6  -2   94.18    1.57 
  -3  -6  -3   17.53    0.71 
  -3  -6  -3   22.98    0.84 
  -3  -6  -3   26.27    0.89 
  -3  -6  -3   29.24    0.92 
  -3  -6  -4    0.12    0.25 
  -3  -6  -4    0.33    0.27 
  -3  -6  -4    0.05    0.25 
  -3  -6  -5   36.36    0.86 
  -3  -6  -5   39.14    0.89 
  -3  -6  -5   40.54    0.86 
  -3  -6  -6   14.23    0.50 
  -3  -6  -6   18.09    0.84 
  -3  -7   5   33.36    0.72 
  -3  -7   5   37.63    0.81 
   3   7  -5   39.62    0.82 
  -3  -7   4    8.14    0.44 
  -3  -7   4    9.18    0.51 
   3   7  -4    9.95    0.50 
  -3  -7   3    4.64    0.44 
   3   7  -3    0.77    0.27 
   3   7  -3    5.25    0.43 
  -3  -7   2    1.91    0.23 
  -3  -7   2    1.77    0.31 
   3   7  -2    0.54    0.29 
  -3  -7   1   11.68    0.55 
  -3  -7   1   12.58    0.60 
   3   7  -1    2.56    0.39 
  -3  -7   0    5.20    0.43 
  -3  -7   0    6.15    0.46 
  -3  -7  -1    0.31    0.23 
  -3  -7  -1    0.48    0.23 
  -3  -7  -1    0.16    0.22 
  -3  -7  -2    5.87    0.44 
  -3  -7  -2    6.50    0.45 
  -3  -7  -2    7.03    0.42 
  -3  -7  -3   13.17    0.51 
  -3  -7  -3   13.10    0.53 
   3   7   3    1.02    0.26 
   4  -7  -3    2.89    0.33 
  -4   7   2    3.75    0.35 
   4  -7  -2    3.41    0.35 
  -4   7   1    4.54    0.36 
   4  -7  -1    4.35    0.35 
  -4   7   0   11.06    0.55 
   4  -6  -7    6.44    0.39 
   4  -6  -7   15.73    0.54 
   4  -6  -6    7.16    0.47 
   4  -6  -6   10.17    0.52 
   4  -6  -6    9.69    0.52 
   4  -6  -5    0.20    0.30 
   4  -6  -5    0.21    0.22 
   4  -6  -5    0.22    0.25 
   4  -6  -4    1.02    0.33 
   4  -6  -4    1.71    0.31 
   4  -6  -4    1.29    0.31 
  -4   6   3   21.17    0.80 
   4  -6  -3    9.92    0.60 
   4  -6  -3   22.31    0.81 
   4  -6  -3   21.39    0.75 
  -4   6   2    6.53    0.58 
   4  -6  -2    5.16    0.62 
   4  -6  -2    5.75    0.25 
   4  -6  -2    6.39    0.56 
   4  -6  -2    6.23    0.52 
  -4   6   1   52.41    1.17 
   4  -6  -1   46.88    0.80 
   4  -6  -1   53.93    1.18 
  -4   6   0   64.53    1.26 
   4  -6   0   61.40    1.02 
   4  -6   0   71.92    1.32 
  -4   6  -1   47.32    1.07 
   4  -6   1   40.10    0.88 
   4  -6   1   47.83    1.05 
  -4   6  -2   15.63    0.67 
   4  -6   2   12.89    0.57 
   4  -6   2   15.50    0.62 
  -4   6  -3   70.55    1.11 
   4  -6   3   57.72    0.92 
   4  -6   3   59.22    1.01 
  -4   6  -4   41.28    0.87 
   4  -5  -9   16.07    0.53 
   4  -5  -8   36.98    0.85 
   4  -5  -8   49.13    0.99 
   4  -5  -8   49.41    1.01 
   4  -5  -7    1.51    0.32 
   4  -5  -7    2.64    0.40 
   4  -5  -7    1.92    0.34 
   4  -5  -6    2.91    0.41 
   4  -5  -6    4.38    0.54 
   4  -5  -6    4.56    0.54 
   4  -5  -5   24.52    0.88 
   4  -5  -5   29.27    0.92 
   4  -5  -5   31.80    1.01 
   4  -5  -5   30.18    0.97 
   4  -5  -4   18.44    0.80 
   4  -5  -4   22.44    0.86 
   4  -5  -4   22.43    0.90 
   4  -5  -4   21.97    0.88 
   4  -5  -3   48.01    1.18 
   4  -5  -3   53.78    0.86 
   4  -5  -3   60.67    1.34 
   4  -5  -3   59.53    1.35 
   4  -5  -3   58.37    1.28 
   4  -5  -2   31.36    0.96 
   4  -5  -2   35.70    0.62 
   4  -5  -2   37.47    0.88 
   4  -5  -2   42.15    1.16 
   4  -5  -2   39.45    1.15 
   4  -5  -2   40.27    1.08 
  -4   5   1   89.38    1.62 
   4  -5  -1   81.19    1.15 
   4  -5  -1   83.75    1.38 
   4  -5  -1   99.07    1.70 
  -4   5   0    6.12    0.63 
   4  -5   0    5.44    0.46 
   4  -5   0    5.59    0.56 
   4  -5   0    6.15    0.62 
  -4   5  -1   84.99    1.56 
   4  -5   1   77.57    1.33 
   4  -5   1   90.51    1.59 
  -4   5  -2   72.98    1.42 
   4  -5   2   59.75    1.18 
   4  -5   2   57.43    1.20 
   4  -5   2   74.16    1.41 
  -4   5  -3    0.97    0.35 
   4  -5   3    0.68    0.25 
   4  -5   3    1.32    0.33 
  -4   5  -4   20.03    0.72 
   4  -5   4   17.23    0.65 
  -4   5  -5    7.94    0.47 
   4  -5   5    7.35    0.44 
   4  -4 -10    0.24    0.21 
   4  -4 -10    0.29    0.20 
   4  -4  -9    2.09    0.31 
   4  -4  -9    4.05    0.46 
   4  -4  -9    3.62    0.45 
   4  -4  -8   39.41    1.00 
   4  -4  -8   48.22    1.15 
   4  -4  -8   47.57    1.04 
   4  -4  -8   48.86    1.16 
   4  -4  -7  123.60    1.80 
   4  -4  -7  150.24    2.02 
   4  -4  -7  147.42    1.87 
   4  -4  -7  149.38    2.01 
   4  -4  -6   23.64    0.88 
   4  -4  -6   28.96    1.02 
   4  -4  -6   27.22    0.96 
   4  -4  -5  108.70    1.76 
   4  -4  -5  122.96    1.77 
   4  -4  -5  122.99    1.90 
   4  -4  -5  126.40    1.90 
  -4   4   4   97.91    1.60 
   4  -4  -4   91.38    1.62 
   4  -4  -4   91.75    1.16 
   4  -4  -4  106.37    1.70 
   4  -4  -4  105.52    1.78 
   4  -4  -4  105.72    1.72 
  -4   4   3   84.94    1.48 
   4  -4  -3   75.96    1.45 
   4  -4  -3   79.16    1.02 
   4  -4  -3   79.98    1.25 
   4  -4  -3   88.78    1.58 
   4  -4  -3   88.04    1.62 
   4  -4  -3   90.78    1.57 
  -4   4   2   89.38    1.52 
   4  -4  -2   85.49    1.52 
   4  -4  -2   81.55    1.22 
   4  -4  -2   82.81    1.39 
   4  -4  -2   94.91    1.66 
   4  -4  -2   92.94    1.67 
  -4   4   1   15.23    0.74 
   4  -4  -1   21.36    1.16 
   4  -4  -1   15.67    0.68 
   4  -4  -1   14.93    0.74 
   4  -4  -1   16.88    0.81 
   4  -4  -1   15.78    0.80 
  -4   4   0  181.75    2.15 
   4  -4   0  173.63    2.06 
   4  -4   0  169.61    2.17 
   4  -4   0  190.51    2.32 
  -4   4  -1   11.01    0.72 
  -4   4  -1   10.70    0.65 
   4  -4   1   10.01    0.66 
   4  -4   1   11.78    0.70 
  -4   4  -2   19.85    0.86 
  -4   4  -2   19.11    0.80 
   4  -4   2   16.64    0.73 
   4  -4   2   21.17    0.87 
  -4   4  -3   69.58    1.42 
  -4   4  -3   66.11    1.34 
   4  -4   3   59.28    1.28 
   4  -4   3   69.73    1.40 
  -4   4  -4    8.84    0.64 
  -4   4  -4    8.55    0.60 
   4  -4   4    6.72    0.56 
  -4   4  -5   80.21    1.34 
  -4   4  -5   78.84    1.33 
   4  -4   5   68.49    1.31 
  -4   4  -6    0.68    0.26 
  -4   4  -6    0.68    0.25 
   4  -4   6    0.48    0.24 
  -4   4  -7   61.11    0.89 
   4  -4   7   58.24    0.96 
   4  -3 -11    6.88    0.43 
   4  -3 -11    6.92    0.60 
   4  -3 -11    5.82    0.39 
   4  -3 -10   39.56    0.96 
   4  -3 -10   37.84    0.91 
   4  -3 -10   38.45    0.93 
   4  -3  -9   19.19    0.71 
   4  -3  -9   23.32    0.85 
   4  -3  -9   23.15    0.84 
   4  -3  -9   22.86    0.84 
   4  -3  -8   54.17    1.20 
   4  -3  -8   63.88    1.39 
   4  -3  -8   64.70    1.35 
   4  -3  -8   63.93    1.39 
   4  -3  -7   22.35    0.86 
   4  -3  -7   25.70    0.96 
   4  -3  -7   26.21    0.94 
   4  -3  -7   25.08    0.95 
   4  -3  -6  364.14    3.16 
   4  -3  -6  350.19    1.47 
   4  -3  -6  415.89    3.35 
   4  -3  -6  419.22    3.40 
   4  -3  -5    7.38    0.56 
   4  -3  -5    7.18    0.42 
   4  -3  -5    8.20    0.67 
   4  -3  -5    8.11    0.60 
   4  -3  -5    8.38    0.60 
   4  -3  -4   42.87    1.12 
   4  -3  -4   40.91    0.76 
   4  -3  -4   41.25    0.90 
   4  -3  -4   44.29    1.09 
   4  -3  -4   43.36    1.13 
   4  -3  -4   43.94    1.12 
   4  -3  -4   44.91    1.14 
  -4   3   3  108.53    1.67 
   4  -3  -3  113.92    1.73 
   4  -3  -3  108.02    1.67 
   4  -3  -3  114.22    1.41 
   4  -3  -3  111.20    1.53 
   4  -3  -3  123.23    1.75 
   4  -3  -3  124.24    1.81 
   4  -3  -3  125.84    1.75 
  -4   3   2  207.92    2.29 
   4  -3  -2  199.93    2.21 
   4  -3  -2  196.16    2.18 
   4  -3  -2  204.23    2.02 
   4  -3  -2  188.86    2.08 
   4  -3  -2  217.92    2.34 
   4  -3  -2  218.15    2.34 
  -4   3   1   11.42    0.67 
   4  -3  -1   10.63    0.57 
   4  -3  -1   10.89    0.61 
   4  -3  -1   10.58    0.66 
   4  -3  -1   12.72    0.67 
   4  -3  -1   11.99    0.65 
  -4   3   0   40.04    1.07 
   4  -3   0   39.60    1.05 
   4  -3   0   43.75    1.14 
   4  -3   0   40.39    1.06 
  -4   3  -1   46.01    1.14 
  -4   3  -1   44.77    1.14 
   4  -3   1   46.22    1.16 
  -4   3  -2    7.09    0.63 
   4  -3   2    1.92    0.34 
   4  -3   2    5.70    0.55 
  -4   3  -3   12.57    0.70 
  -4   3  -3   12.13    0.71 
   4  -3   3   11.20    0.66 
   4  -3   3   14.37    0.76 
  -4   3  -4    7.70    0.63 
   4  -3   4    5.90    0.56 
   4  -3   4    7.81    0.64 
  -4   3  -5   15.90    0.72 
  -4   3  -5   17.05    0.87 
  -4   3  -5   19.43    0.83 
   4  -3   5   15.47    0.75 
  -4   3  -6   17.88    0.74 
  -4   3  -6   20.53    0.80 
   4  -3   6   17.24    0.74 
  -4   3  -7    0.52    0.23 
  -4   3  -7    0.53    0.26 
   4  -3   7    0.50    0.25 
  -4   3  -8    0.21    0.11 
  -4   3  -8    0.38    0.18 
   4  -3   8    0.22    0.19 
   4  -2 -11    2.23    0.36 
   4  -2 -11    2.82    0.36 
   4  -2 -11    2.45    0.32 
   4  -2 -10   13.07    0.68 
   4  -2 -10   13.29    0.67 
   4  -2 -10   12.56    0.66 
   4  -2  -9   71.88    1.44 
   4  -2  -9   71.93    1.45 
   4  -2  -9   71.76    1.44 
   4  -2  -8   35.45    1.00 
   4  -2  -8   43.42    1.18 
   4  -2  -8   42.34    1.18 
   4  -2  -8   41.37    1.15 
   4  -2  -7   54.09    1.23 
   4  -2  -7   52.54    0.65 
   4  -2  -7   65.43    1.40 
   4  -2  -7   64.71    1.41 
   4  -2  -7   64.51    1.40 
   4  -2  -6   34.46    0.99 
   4  -2  -6   34.99    0.42 
   4  -2  -6   35.05    0.74 
   4  -2  -6   41.79    1.10 
   4  -2  -6   40.34    1.11 
   4  -2  -6   40.53    1.11 
   4  -2  -5   23.05    0.83 
   4  -2  -5   22.51    0.80 
   4  -2  -5   24.75    0.60 
   4  -2  -5   22.68    0.69 
   4  -2  -5   25.69    0.89 
   4  -2  -5   25.67    0.89 
   4  -2  -5   26.45    0.89 
   4  -2  -4    5.09    0.47 
   4  -2  -4    5.38    0.44 
   4  -2  -4    5.99    0.42 
   4  -2  -4    5.28    0.47 
   4  -2  -4    5.70    0.50 
   4  -2  -4    6.29    0.51 
   4  -2  -4    6.31    0.52 
   4  -2  -3  112.36    1.63 
   4  -2  -3  122.12    1.69 
   4  -2  -3  123.01    1.52 
   4  -2  -3  112.43    1.54 
   4  -2  -3  109.41    2.18 
   4  -2  -3  126.25    1.70 
   4  -2  -3  126.37    1.74 
  -4   2   2   97.38    1.53 
   4  -2  -2  115.19    1.87 
   4  -2  -2  114.23    1.60 
   4  -2  -2  112.61    1.52 
   4  -2  -2  131.28    1.86 
  -4   2   1  173.25    2.01 
   4  -2  -1  192.91    2.00 
   4  -2  -1  192.94    2.07 
   4  -2  -1  207.45    2.18 
  -4   2   0   10.43    0.62 
   4  -2   0   11.59    0.62 
  -4   2  -1   11.55    0.66 
   4  -2   1   13.28    0.68 
  -4   2  -2   23.31    0.87 
   4  -2   2   19.21    0.73 
   4  -2   2   19.30    0.74 
   4  -2   2   24.06    0.86 
  -4   2  -3  215.09    2.40 
  -4   2  -3  241.48    2.58 
   4  -2   3  207.39    2.29 
   4  -2   3  246.58    2.54 
  -4   2  -4   11.11    0.66 
  -4   2  -4   12.97    0.73 
   4  -2   4   10.46    0.67 
   4  -2   4   13.38    0.74 
  -4   2  -5   15.31    0.69 
  -4   2  -5   15.71    0.78 
  -4   2  -5   18.07    0.84 
   4  -2   5   15.06    0.76 
  -4   2  -6    4.73    0.42 
  -4   2  -6    4.97    0.51 
  -4   2  -6    6.03    0.61 
   4  -2   6    4.95    0.54 
  -4   2  -7    6.15    0.44 
  -4   2  -7    7.62    0.57 
   4  -2   7    6.26    0.55 
  -4   2  -8   12.00    0.58 
   4  -2   8   10.26    0.53 
   4  -1 -12   10.75    0.47 
   4  -1 -12    9.95    0.45 
  -4   1  11   19.24    0.68 
   4  -1 -11   25.15    0.80 
   4  -1 -11   26.88    0.84 
   4  -1 -11   25.23    0.79 
  -4   1  10   35.43    0.95 
   4  -1 -10   43.22    1.10 
   4  -1 -10   45.63    1.15 
   4  -1 -10   44.57    1.11 
   4  -1  -9   27.76    0.96 
   4  -1  -9   26.66    0.96 
   4  -1  -9   26.31    0.95 
   4  -1  -8  202.27    2.24 
   4  -1  -8  199.68    1.34 
   4  -1  -8  235.13    2.56 
   4  -1  -8  228.96    2.55 
   4  -1  -8  237.34    2.60 
   4  -1  -7   37.45    1.03 
   4  -1  -7   38.23    0.52 
   4  -1  -7   38.72    0.80 
   4  -1  -7   43.76    1.14 
   4  -1  -7   43.75    1.16 
   4  -1  -7   44.62    1.15 
  -4   1   6   10.93    0.65 
   4  -1  -6   10.37    0.59 
   4  -1  -6   11.71    0.60 
   4  -1  -6   12.28    0.48 
   4  -1  -6   12.12    0.56 
   4  -1  -6   12.53    0.67 
   4  -1  -6   13.14    0.71 
   4  -1  -6   13.06    0.67 
   4  -1  -5   13.08    0.63 
   4  -1  -5   14.75    0.65 
   4  -1  -5   15.09    0.57 
   4  -1  -5   13.31    0.61 
   4  -1  -5   15.18    0.68 
   4  -1  -5   15.43    0.69 
   4  -1  -5   16.19    0.69 
  -4   1   4   36.90    0.89 
   4  -1  -4   30.99    0.89 
   4  -1  -4   38.15    0.97 
   4  -1  -4   37.74    0.87 
   4  -1  -4   37.60    0.97 
  -4   1   3  123.64    1.52 
   4  -1  -3  125.94    1.65 
   4  -1  -3  123.20    1.60 
   4  -1  -3  128.22    1.58 
  -4   1   2    7.00    0.44 
   4  -1  -2    5.84    0.43 
   4  -1  -2    6.66    0.47 
   4  -1  -2    6.59    0.48 
  -4   1   1    7.21    0.43 
   4  -1  -1    7.17    0.43 
  -4   1   0   52.53    1.00 
   4  -1   0   52.49    1.01 
  -4   1  -1   46.46    0.98 
  -4   1  -1   42.80    1.05 
   4  -1   1   46.32    1.10 
  -4   1  -2   18.02    0.93 
  -4   1  -2   23.67    0.82 
  -4   1  -2   25.91    0.87 
   4  -1   2   25.06    0.79 
   4  -1   2   28.78    0.93 
  -4   1  -3  240.67    2.43 
  -4   1  -3  260.09    2.51 
  -4   1  -3  278.20    2.55 
  -4   1  -3  288.47    2.72 
   4  -1   3  262.66    2.53 
   4  -1   3  313.44    2.83 
  -4   1  -4   30.96    0.97 
  -4   1  -4   35.01    1.00 
  -4   1  -4   36.06    0.96 
  -4   1  -4   34.81    1.02 
  -4   1  -4   39.54    1.12 
   4  -1   4   41.04    1.11 
  -4   1  -5   15.67    0.79 
  -4   1  -5   17.57    0.79 
  -4   1  -5   17.62    0.67 
  -4   1  -5   16.84    0.75 
  -4   1  -5   19.35    0.87 
   4  -1   5   19.68    0.82 
  -4   1  -6    2.20    0.42 
  -4   1  -6    3.45    0.47 
  -4   1  -6    3.09    0.34 
  -4   1  -6    2.47    0.35 
  -4   1  -6    3.44    0.51 
  -4   1  -7   38.02    0.99 
  -4   1  -7   39.17    0.75 
  -4   1  -7   45.78    1.15 
  -4   1  -8   29.14    0.79 
  -4   1  -8   36.12    0.93 
   4  -1   8   28.60    0.84 
  -4   1  -9    4.70    0.37 
   4  -1   9    4.27    0.35 
  -4   0  12   11.28    0.47 
   4   0 -12   14.69    0.53 
   4   0 -12   14.57    0.53 
   4   0 -12   14.46    0.51 
  -4   0  11   15.03    0.65 
   4   0 -11   17.58    0.70 
   4   0 -11   19.13    0.73 
   4   0 -11   18.75    0.73 
   4   0 -10    8.26    0.59 
   4   0 -10    7.67    0.62 
   4   0 -10    8.84    0.61 
   4   0  -9   53.94    0.74 
   4   0  -9   62.62    1.34 
   4   0  -9   63.83    1.37 
   4   0  -9   63.47    1.39 
   4   0  -8   86.89    0.81 
   4   0  -8   87.29    1.21 
   4   0  -8  100.59    1.66 
   4   0  -8   95.02    1.65 
   4   0  -8  101.84    1.73 
   4   0  -7   17.18    0.73 
   4   0  -7   19.17    0.59 
   4   0  -7   18.50    0.69 
   4   0  -7   20.56    0.81 
   4   0  -7   19.90    0.84 
   4   0  -7   21.16    0.86 
  -4   0   6   39.89    1.06 
  -4   0   6   41.41    1.06 
   4   0  -6   34.85    0.97 
   4   0  -6   37.77    0.98 
   4   0  -6   40.81    0.89 
   4   0  -6   38.90    0.95 
   4   0  -6   43.83    1.05 
   4   0  -6   48.84    1.17 
   4   0  -6   43.75    1.11 
  -4   0   5   14.00    0.67 
  -4   0   5   15.45    0.67 
   4   0  -5   16.52    0.68 
   4   0  -5   15.48    0.64 
   4   0  -5   16.47    0.64 
   4   0  -5   15.17    0.66 
   4   0  -5   17.08    0.73 
   4   0  -5   17.50    0.70 
  -4   0   4  178.85    1.95 
   4   0  -4  184.58    2.02 
   4   0  -4  181.01    1.90 
  -4   0   3    2.72    0.38 
   4   0  -3    3.81    0.38 
   4   0  -3    3.10    0.40 
  -4   0   2   92.90    1.36 
   4   0  -2   93.33    1.38 
  -4   0   1  420.90    2.85 
   4   0  -1  426.26    2.87 
  -4   0   0  114.41    1.53 
   4   0   0  108.41    1.43 
  -4   0  -1   25.17    0.80 
  -4   0  -1   26.80    0.80 
   4   0   1   25.00    0.79 
  -4   0  -2  192.12    2.10 
  -4   0  -2  212.98    2.12 
  -4   0  -2  191.61    3.14 
  -4   0  -2  229.20    2.28 
  -4   0  -2  206.46    2.17 
   4   0   2  202.95    2.07 
   4   0   2  228.62    2.34 
  -4   0  -3   93.89    1.55 
  -4   0  -3   99.78    1.60 
  -4   0  -3  102.41    1.47 
  -4   0  -3   96.31    1.52 
  -4   0  -3  112.06    1.68 
  -4   0  -3  108.60    1.65 
   4   0   3   98.10    1.55 
   4   0   3  114.56    1.72 
  -4   0  -4  132.10    1.88 
  -4   0  -4  139.18    1.93 
  -4   0  -4  143.69    1.65 
  -4   0  -4  134.18    1.75 
  -4   0  -4  153.00    2.01 
   4   0   4  159.28    2.06 
  -4   0  -5    0.14    0.32 
  -4   0  -5    0.16    0.32 
  -4   0  -5    0.09    0.19 
  -4   0  -5   -0.02    0.24 
  -4   0  -5    0.15    0.30 
  -4   0  -5    0.38    0.34 
   4   0   5    0.29    0.33 
  -4   0  -6  126.19    1.91 
  -4   0  -6  135.52    1.94 
  -4   0  -6  134.33    1.45 
  -4   0  -6  146.41    1.94 
  -4   0  -6  151.73    2.04 
  -4   0  -7   14.41    0.74 
  -4   0  -7   14.43    0.73 
  -4   0  -7   16.82    0.77 
  -4   0  -7   17.31    0.78 
  -4   0  -8   67.66    1.21 
  -4   0  -8   73.68    1.22 
  -4   0  -8   79.38    1.30 
  -4   0  -9    0.45    0.21 
  -4   0  -9    0.23    0.33 
   4   0   9    0.26    0.20 
  -4  -1  12    7.97    0.42 
   4   1 -12   10.67    0.65 
  -4  -1  11   19.20    0.72 
   4   1 -11   26.61    0.77 
   4   1 -11   24.92    0.75 
   4   1 -11   25.58    0.80 
   4   1 -10   38.77    0.53 
   4   1 -10   46.40    1.08 
   4   1 -10   44.48    1.08 
   4   1 -10   45.14    1.12 
   4   1  -9   22.20    0.36 
   4   1  -9   23.21    0.69 
   4   1  -9   25.92    0.89 
   4   1  -9   27.44    0.94 
   4   1  -9   28.00    0.98 
   4   1  -8  207.38    1.78 
   4   1  -8  206.16    2.07 
   4   1  -8  236.43    2.44 
   4   1  -8  235.27    2.48 
   4   1  -8  233.98    2.58 
   4   1  -7   33.43    0.95 
   4   1  -7   40.92    0.94 
   4   1  -7   40.27    1.03 
   4   1  -7   44.41    1.12 
   4   1  -7   45.17    1.18 
  -4  -1   6   11.10    0.67 
  -4  -1   6   11.20    0.64 
   4   1  -6    9.32    0.58 
   4   1  -6   11.71    0.59 
   4   1  -6   12.45    0.61 
   4   1  -6   12.52    0.61 
   4   1  -6   11.83    0.66 
   4   1  -6   13.02    0.69 
   4   1  -6   13.03    0.66 
  -4  -1   5   12.07    0.66 
  -4  -1   5   13.59    0.65 
   4   1  -5   12.60    0.63 
   4   1  -5   14.86    0.65 
   4   1  -5   14.49    0.67 
   4   1  -5   14.85    0.65 
   4   1  -5   15.73    0.67 
   4   1  -5   14.92    0.66 
  -4  -1   4   31.22    0.91 
  -4  -1   4   37.04    0.96 
   4   1  -4   31.41    0.91 
   4   1  -4   35.42    0.92 
   4   1  -4   35.70    0.94 
  -4  -1   3  121.09    1.63 
   4   1  -3  124.51    1.65 
  -4  -1   2    5.92    0.44 
   4   1  -2    7.82    0.47 
  -4  -1   1    6.31    0.45 
   4   1  -1    6.68    0.46 
  -4  -1   0   49.98    1.06 
  -4  -1   0   53.54    1.11 
   4   1   0   52.53    1.04 
  -4  -1  -1   39.42    1.01 
  -4  -1  -1   41.35    0.96 
  -4  -1  -1   45.13    1.05 
  -4  -1  -1   40.26    1.01 
   4   1   1   42.94    0.94 
   4   1   1   41.30    0.91 
  -4  -1  -2   22.39    0.79 
  -4  -1  -2   23.62    0.84 
  -4  -1  -2   25.39    0.76 
  -4  -1  -2   22.40    0.79 
  -4  -1  -2   28.35    0.88 
  -4  -1  -2   25.20    0.86 
   4   1   2   24.03    0.77 
  -4  -1  -3  248.33    2.46 
  -4  -1  -3  263.86    2.61 
  -4  -1  -3  278.24    2.19 
  -4  -1  -3  262.04    2.32 
  -4  -1  -3  347.94    3.81 
  -4  -1  -3  273.69    2.66 
  -4  -1  -3  294.88    2.63 
  -4  -1  -3  281.34    2.53 
   4   1   3  247.17    2.46 
  -4  -1  -4   32.42    1.02 
  -4  -1  -4   34.05    1.05 
  -4  -1  -4   35.52    0.74 
  -4  -1  -4   31.80    0.84 
  -4  -1  -4   39.13    1.06 
  -4  -1  -4   38.58    1.04 
  -4  -1  -5   16.99    0.82 
  -4  -1  -5   17.02    0.82 
  -4  -1  -5   16.46    0.59 
  -4  -1  -5   19.93    0.84 
  -4  -1  -5   19.39    0.80 
   4   1   5   19.99    0.86 
  -4  -1  -6    3.24    0.49 
  -4  -1  -6    3.74    0.52 
  -4  -1  -6    2.86    0.24 
  -4  -1  -6    3.70    0.48 
  -4  -1  -6    3.47    0.46 
   4   1   6    2.85    0.41 
  -4  -1  -7   36.10    1.03 
  -4  -1  -7   38.78    1.07 
  -4  -1  -7   43.54    1.10 
  -4  -1  -7   45.90    1.06 
  -4  -1  -8   28.64    0.84 
  -4  -1  -8   32.68    0.89 
  -4  -1  -8   33.20    0.88 
  -4  -1  -9    4.02    0.35 
  -4  -2  11    1.68    0.30 
   4   2 -11    2.44    0.33 
  -4  -2  10   10.04    0.63 
   4   2 -10   11.67    0.46 
   4   2 -10   13.50    0.68 
  -4  -2   9   59.19    1.32 
   4   2  -9   61.92    0.92 
   4   2  -9   64.89    1.17 
   4   2  -9   74.71    1.47 
  -4  -2   8   33.41    1.06 
   4   2  -8   36.85    0.90 
   4   2  -8   37.43    1.02 
   4   2  -8   45.08    1.20 
  -4  -2   7   50.92    1.26 
   4   2  -7   55.03    1.17 
   4   2  -7   57.18    1.28 
   4   2  -7   64.42    1.39 
  -4  -2   6   32.52    1.02 
   4   2  -6   31.67    0.94 
   4   2  -6   35.84    1.00 
   4   2  -6   39.78    1.07 
  -4  -2   5   21.33    0.81 
  -4  -2   5   22.06    0.80 
   4   2  -5   12.91    0.66 
   4   2  -5   21.26    0.77 
   4   2  -5   23.17    0.84 
   4   2  -5   26.70    0.88 
  -4  -2   4    5.12    0.53 
  -4  -2   4    5.65    0.49 
   4   2  -4    2.92    0.40 
   4   2  -4    5.65    0.44 
   4   2  -4    5.98    0.47 
  -4  -2   3  106.47    1.61 
  -4  -2   3  117.82    1.68 
   4   2  -3   98.85    1.55 
   4   2  -3  117.52    1.66 
  -4  -2   2   96.78    1.51 
  -4  -2   2  113.31    1.62 
   4   2  -2   65.34    1.27 
   4   2  -2  110.11    1.60 
  -4  -2   1  168.89    1.97 
  -4  -2   1  180.82    2.00 
  -4  -2   1  190.92    2.09 
   4   2  -1   96.77    1.57 
   4   2  -1  187.89    2.06 
  -4  -2   0    8.97    0.55 
  -4  -2   0   10.49    0.57 
  -4  -2   0   10.91    0.59 
  -4  -2   0   10.74    0.64 
   4   2   0    8.27    0.56 
   4   2   0    9.59    0.54 
  -4  -2  -1   11.19    0.64 
  -4  -2  -1   12.13    0.57 
  -4  -2  -1   11.60    0.63 
  -4  -2  -1   11.99    0.61 
  -4  -2  -1   11.18    0.64 
  -4  -2  -1   11.95    0.64 
   4   2   1    6.21    0.51 
   4   2   1   10.86    0.56 
   4   2   1   10.94    0.54 
  -4  -2  -2   19.36    0.75 
  -4  -2  -2   20.09    0.79 
  -4  -2  -2   21.92    0.68 
  -4  -2  -2   19.93    0.72 
  -4  -2  -2   22.18    0.82 
  -4  -2  -2   21.01    0.82 
  -4  -2  -2   24.19    0.83 
   4   2   2   20.63    0.73 
  -4  -2  -3  204.00    2.31 
  -4  -2  -3  214.16    2.43 
  -4  -2  -3  218.61    1.68 
  -4  -2  -3  202.97    1.91 
  -4  -2  -3  213.08    2.41 
  -4  -2  -3  243.90    2.52 
  -4  -2  -4   11.01    0.70 
  -4  -2  -4   11.11    0.69 
  -4  -2  -4   10.52    0.48 
  -4  -2  -4   11.09    0.71 
  -4  -2  -4   12.50    0.71 
  -4  -2  -5   15.59    0.79 
  -4  -2  -5   15.95    0.80 
  -4  -2  -5   15.29    0.36 
  -4  -2  -5   16.63    0.80 
  -4  -2  -5   18.39    0.84 
  -4  -2  -6    6.16    0.59 
  -4  -2  -6    5.29    0.58 
  -4  -2  -6    6.38    0.60 
  -4  -2  -7    5.66    0.55 
  -4  -2  -7    6.17    0.54 
  -4  -2  -7    7.56    0.59 
  -4  -2  -8    9.09    0.51 
  -4  -2  -8   10.29    0.55 
  -4  -2  -8   11.55    0.58 
  -4  -3  11    5.56    0.35 
   4   3 -11    7.21    0.43 
  -4  -3  10   30.71    0.83 
   4   3 -10   33.13    0.71 
   4   3 -10   40.03    0.98 
  -4  -3   9   19.13    0.77 
   4   3  -9   20.13    0.73 
   4   3  -9   21.54    0.83 
  -4  -3   8   50.61    1.23 
   4   3  -8   54.80    1.13 
   4   3  -8   55.73    1.25 
   4   3  -8   64.40    1.37 
  -4  -3   7   20.53    0.87 
  -4  -3   7   25.03    0.94 
   4   3  -7   23.23    0.86 
   4   3  -7   26.70    0.96 
  -4  -3   6  334.39    3.01 
  -4  -3   6  405.17    3.19 
   4   3  -6  258.50    2.55 
   4   3  -6  416.23    3.35 
  -4  -3   5    6.39    0.60 
  -4  -3   5    7.61    0.61 
   4   3  -5    6.67    0.56 
   4   3  -5    8.08    0.60 
  -4  -3   4   36.65    1.06 
  -4  -3   4   41.61    1.08 
   4   3  -4   31.52    0.97 
   4   3  -4   44.92    1.10 
  -4  -3   3  100.12    1.61 
  -4  -3   3  106.19    1.65 
  -4  -3   3  118.08    1.72 
   4   3  -3   43.55    1.10 
   4   3  -3  101.01    2.15 
  -4  -3   2  181.35    2.14 
  -4  -3   2  194.51    2.18 
  -4  -3   2  193.72    2.19 
  -4  -3   2  214.76    2.28 
   4   3  -2  117.77    1.75 
   4   3  -2  192.02    2.21 
  -4  -3   1    9.79    0.61 
  -4  -3   1   10.60    0.61 
  -4  -3   1   10.73    0.70 
  -4  -3   1   10.85    0.60 
  -4  -3   1    9.92    0.64 
  -4  -3   1   12.15    0.68 
   4   3  -1   10.30    0.65 
   4   3  -1    7.96    0.48 
  -4  -3   0   38.52    1.05 
  -4  -3   0   38.89    0.93 
  -4  -3   0   34.91    0.96 
  -4  -3   0   37.70    1.02 
  -4  -3   0   38.69    1.04 
  -4  -3   0   44.11    1.12 
   4   3   0   16.22    0.76 
   4   3   0   38.02    0.99 
  -4  -3  -1   36.63    1.00 
  -4  -3  -1   39.76    1.08 
  -4  -3  -1   40.37    0.88 
  -4  -3  -1   37.02    0.94 
  -4  -3  -1   39.95    1.09 
  -4  -3  -1   44.23    1.14 
   4   3   1   17.29    0.76 
  -4  -3  -2    0.86    0.33 
  -4  -3  -2    1.46    0.40 
  -4  -3  -2    0.99    0.22 
  -4  -3  -2    0.75    0.27 
  -4  -3  -2    0.80    0.34 
  -4  -3  -2    1.41    0.39 
   4   3   2    1.95    0.40 
  -4  -3  -3   11.00    0.69 
  -4  -3  -3   11.25    0.69 
  -4  -3  -3   11.22    0.48 
  -4  -3  -3   10.83    0.73 
  -4  -3  -3   13.14    0.75 
  -4  -3  -4    6.35    0.60 
  -4  -3  -4    7.03    0.63 
  -4  -3  -4    6.73    0.23 
  -4  -3  -4    6.78    0.64 
  -4  -3  -4    8.24    0.67 
  -4  -3  -5   16.17    0.79 
  -4  -3  -5   16.30    0.77 
  -4  -3  -5   16.66    0.81 
  -4  -3  -5   18.69    0.85 
  -4  -3  -6   16.54    0.75 
  -4  -3  -6   17.30    0.76 
  -4  -3  -6   18.58    0.76 
  -4  -3  -6   19.95    0.81 
  -4  -3  -7    0.45    0.26 
  -4  -3  -7    0.34    0.26 
  -4  -3  -7    0.40    0.27 
  -4  -3  -8    0.49    0.20 
  -4  -3  -8    0.39    0.20 
  -4  -3  -8    0.39    0.21 
   4   4 -10    0.11    0.16 
   4   4 -10    0.09    0.19 
  -4  -4   9    2.32    0.31 
  -4  -4   9    3.15    0.36 
   4   4  -9    3.05    0.35 
   4   4  -9    3.36    0.39 
  -4  -4   8   40.06    0.98 
  -4  -4   8   46.35    1.07 
   4   4  -8   50.15    1.16 
  -4  -4   7  123.81    1.73 
  -4  -4   7  144.68    1.92 
   4   4  -7  154.92    2.05 
  -4  -4   6   23.67    0.86 
  -4  -4   6   26.31    0.94 
   4   4  -6   11.63    0.65 
   4   4  -6   28.75    0.96 
  -4  -4   5  105.19    1.66 
  -4  -4   5  121.06    1.84 
   4   4  -5   72.51    1.42 
   4   4  -5  122.21    1.82 
  -4  -4   4   87.92    1.54 
  -4  -4   4  101.34    1.71 
   4   4  -4   54.55    1.27 
   4   4  -4  105.02    1.64 
  -4  -4   3   73.76    1.41 
  -4  -4   3   75.02    1.44 
  -4  -4   3   91.03    1.62 
   4   4  -3   39.10    1.11 
  -4  -4   2   76.91    1.43 
  -4  -4   2   84.45    1.45 
  -4  -4   2   91.01    1.62 
   4   4  -2   41.92    1.15 
  -4  -4   1   14.46    0.71 
  -4  -4   1   15.51    0.66 
  -4  -4   1   15.61    0.76 
  -4  -4   1   15.95    0.77 
  -4  -4   1   17.04    0.79 
   4   4  -1    1.75    0.38 
  -4  -4   0  164.15    2.05 
  -4  -4   0  167.98    1.70 
  -4  -4   0  161.86    1.89 
  -4  -4   0  173.52    2.17 
  -4  -4   0  194.06    2.34 
   4   4   0   64.87    1.40 
  -4  -4  -1    9.64    0.63 
  -4  -4  -1    9.16    0.62 
  -4  -4  -1    9.46    0.41 
  -4  -4  -1    9.70    0.55 
  -4  -4  -1   10.08    0.72 
  -4  -4  -1   10.75    0.72 
   4   4   1    5.01    0.57 
  -4  -4  -2   15.97    0.76 
  -4  -4  -2   16.35    0.75 
  -4  -4  -2   16.11    0.55 
  -4  -4  -2   16.56    0.84 
  -4  -4  -2   18.49    0.87 
   4   4   2    8.20    0.62 
  -4  -4  -3   59.12    1.33 
  -4  -4  -3   58.72    1.25 
  -4  -4  -3   61.12    1.37 
  -4  -4  -3   70.13    1.47 
  -4  -4  -4    6.40    0.57 
  -4  -4  -4    6.62    0.54 
  -4  -4  -4    6.71    0.63 
  -4  -4  -4    8.17    0.67 
  -4  -4  -5   65.63    1.29 
  -4  -4  -5   63.76    1.20 
  -4  -4  -5   70.51    1.34 
  -4  -4  -5   76.11    1.40 
  -4  -4  -6    0.44    0.27 
  -4  -4  -6    0.68    0.25 
  -4  -4  -6    0.72    0.26 
  -4  -4  -6    0.54    0.27 
  -4  -4  -7   57.31    0.97 
  -4  -4  -7   65.23    1.02 
   4   5  -9   16.24    0.54 
  -4  -5   8   46.21    0.93 
   4   5  -8   50.82    1.02 
  -4  -5   7    2.60    0.37 
   4   5  -7    2.30    0.35 
  -4  -5   6    3.52    0.43 
   4   5  -6    3.61    0.42 
  -4  -5   5   30.08    0.99 
   4   5  -5   10.72    0.63 
   4   5  -5   30.93    0.94 
  -4  -5   4   17.99    0.75 
  -4  -5   4   23.27    0.93 
   4   5  -4   11.40    0.66 
   4   5  -4   23.49    0.84 
  -4  -5   3   49.67    1.10 
  -4  -5   3   60.14    1.35 
   4   5  -3   27.53    0.95 
  -4  -5   2   34.60    0.88 
  -4  -5   2   40.69    1.16 
   4   5  -2   15.25    0.78 
  -4  -5   1   78.66    1.12 
  -4  -5   1   88.33    1.40 
  -4  -5   1   93.84    1.66 
   4   5  -1   38.22    1.12 
  -4  -5   0    5.56    0.68 
  -4  -5   0    5.00    0.28 
  -4  -5   0    5.10    0.46 
  -4  -5   0    5.20    0.57 
  -4  -5   0    6.44    0.63 
   4   5   0    1.34    0.38 
  -4  -5  -1   73.62    1.38 
  -4  -5  -1   74.82    0.95 
  -4  -5  -1   81.14    1.50 
  -4  -5  -1   87.22    1.59 
   4   5   1   34.23    1.04 
  -4  -5  -2   55.34    1.22 
  -4  -5  -2   63.57    1.34 
  -4  -5  -2   71.15    1.44 
   4   5   2   17.44    0.76 
  -4  -5  -3    0.69    0.30 
  -4  -5  -3    0.95    0.33 
  -4  -5  -3    0.92    0.34 
   4   5   3    1.10    0.34 
  -4  -5  -4   17.42    0.69 
  -4  -5  -4   19.88    0.77 
  -4  -5  -4   19.02    0.76 
  -4  -5  -5    6.57    0.47 
  -4  -5  -5    7.15    0.49 
  -4  -5  -5    7.76    0.49 
  -4  -5  -6   53.27    0.88 
  -4  -5  -6   60.78    0.92 
  -4  -6   7   15.56    0.52 
   4   6  -7   13.33    0.59 
  -4  -6   6   10.27    0.52 
   4   6  -6   10.63    0.51 
  -4  -6   5    0.25    0.25 
   4   6  -5    0.36    0.23 
  -4  -6   4    1.39    0.33 
   4   6  -4    0.55    0.28 
  -4  -6   3   20.58    0.71 
  -4  -6   3   21.59    0.80 
   4   6  -3    8.37    0.56 
  -4  -6   2    5.78    0.45 
  -4  -6   2    5.73    0.53 
   4   6  -2    0.76    0.32 
  -4  -6   1   45.51    0.77 
  -4  -6   1   50.43    1.14 
   4   6  -1   17.80    0.75 
  -4  -6   0   62.27    1.15 
  -4  -6   0   68.43    1.30 
   4   6   0   25.47    0.85 
  -4  -6  -1   39.01    0.90 
  -4  -6  -1   41.69    0.97 
  -4  -6  -1   45.30    1.05 
   4   6   1   10.43    0.61 
  -4  -6  -2   11.55    0.54 
  -4  -6  -2   13.92    0.61 
  -4  -6  -2   14.53    0.64 
   4   6   2    4.23    0.46 
  -4  -6  -3   55.87    0.98 
  -4  -6  -3   61.02    1.06 
  -4  -6  -3   67.86    1.10 
   4   6   3   20.42    0.62 
  -4  -6  -4   35.74    0.79 
  -4  -6  -4   39.73    0.78 
  -4  -6  -4   42.34    0.80 
  -4  -7   3    2.50    0.32 
  -4  -7   2    3.70    0.33 
   4   7  -2    1.23    0.23 
  -4  -7   1    4.21    0.35 
   4   7  -1    0.44    0.22 
   4   7   0    2.40    0.30 
  -5   6   4   22.39    0.61 
  -5   6   3   20.54    0.61 
   5  -6  -3   21.74    0.60 
  -5   6   2    3.60    0.37 
   5  -6  -2    3.29    0.36 
  -5   6   1   23.04    0.64 
   5  -6  -1   22.84    0.65 
  -5   6   0    8.93    0.46 
   5  -6   0    7.86    0.28 
   5  -6   0    8.64    0.43 
   5  -5  -7   16.18    0.55 
   5  -5  -7   28.79    0.71 
   5  -5  -7   28.74    0.69 
   5  -5  -6    1.00    0.29 
   5  -5  -6    0.87    0.28 
   5  -5  -6    0.93    0.25 
   5  -5  -5    0.27    0.29 
   5  -5  -5    0.48    0.28 
   5  -5  -5    0.61    0.26 
   5  -5  -4    8.38    0.53 
   5  -5  -4   10.61    0.58 
   5  -5  -3    4.18    0.47 
   5  -5  -3    4.34    0.29 
   5  -5  -3    4.67    0.50 
  -5   5   2    0.60    0.31 
   5  -5  -2    0.62    0.22 
   5  -5  -2    0.91    0.31 
  -5   5   1   20.54    0.78 
   5  -5  -1   19.16    0.65 
   5  -5  -1   21.94    0.81 
  -5   5   0   37.62    0.95 
   5  -5   0   34.53    0.86 
   5  -5   0   39.86    1.00 
  -5   5  -1   30.28    0.83 
   5  -5   1   26.32    0.78 
   5  -5   1   32.25    0.88 
  -5   5  -2    3.19    0.38 
   5  -5   2    2.58    0.34 
   5  -5   2    3.08    0.34 
   5  -4  -9   10.92    0.46 
   5  -4  -9   10.78    0.47 
  -5   4   8    3.65    0.34 
   5  -4  -8    3.29    0.37 
   5  -4  -8    4.36    0.43 
   5  -4  -8    4.24    0.44 
  -5   4   7   27.44    0.77 
   5  -4  -7   16.09    0.68 
   5  -4  -7   28.87    0.86 
   5  -4  -7   28.96    0.86 
  -5   4   6   51.53    1.09 
   5  -4  -6   48.42    1.12 
   5  -4  -6   54.16    1.20 
   5  -4  -6   55.87    1.17 
  -5   4   5   16.94    0.72 
   5  -4  -5   14.95    0.71 
   5  -4  -5   17.44    0.78 
   5  -4  -5   17.95    0.76 
  -5   4   4    3.13    0.42 
   5  -4  -4    3.19    0.45 
   5  -4  -4    3.19    0.35 
   5  -4  -4    3.88    0.45 
   5  -4  -4    3.58    0.48 
  -5   4   3   50.15    1.17 
   5  -4  -3   47.71    1.15 
   5  -4  -3   46.82    0.73 
   5  -4  -3   49.24    1.00 
   5  -4  -3   56.19    1.26 
   5  -4  -3   52.11    1.23 
  -5   4   2   44.93    1.11 
   5  -4  -2   41.59    1.06 
   5  -4  -2   40.23    0.85 
   5  -4  -2   41.90    1.01 
   5  -4  -2   47.57    1.19 
  -5   4   1   12.10    0.72 
  -5   4   1    9.82    0.64 
   5  -4  -1    7.96    0.52 
   5  -4  -1    8.74    0.62 
   5  -4  -1   11.12    0.70 
  -5   4   0   51.25    1.19 
  -5   4   0   51.38    1.18 
   5  -4   0   45.57    1.06 
   5  -4   0   46.84    1.16 
   5  -4   0   55.21    1.28 
  -5   4  -1   24.19    0.85 
  -5   4  -1   25.21    0.86 
   5  -4   1   20.08    0.85 
   5  -4   1   24.37    0.89 
  -5   4  -2    6.34    0.53 
  -5   4  -2    6.07    0.51 
   5  -4   2    5.96    0.57 
  -5   4  -3    2.98    0.38 
   5  -4   3    3.37    0.40 
  -5   4  -4    6.60    0.44 
   5  -3 -10    1.09    0.24 
   5  -3 -10    1.24    0.23 
   5  -3  -9   38.74    0.83 
   5  -3  -9   52.15    1.04 
   5  -3  -9   51.09    1.02 
   5  -3  -8    1.94    0.34 
   5  -3  -8    3.82    0.45 
   5  -3  -8    3.10    0.39 
   5  -3  -7   49.65    1.16 
   5  -3  -7   56.44    1.24 
   5  -3  -7   56.50    1.24 
   5  -3  -6  128.63    1.87 
   5  -3  -6  124.66    0.98 
   5  -3  -6  142.40    1.95 
   5  -3  -6  146.26    1.94 
  -5   3   5   51.52    1.24 
   5  -3  -5   48.90    1.22 
   5  -3  -5   47.47    0.91 
   5  -3  -5   55.28    1.28 
   5  -3  -5   54.24    1.23 
  -5   3   4   76.78    1.50 
   5  -3  -4   70.88    1.44 
   5  -3  -4   71.42    1.02 
   5  -3  -4   73.82    1.26 
   5  -3  -4   84.50    1.50 
   5  -3  -4   82.69    1.54 
  -5   3   3  116.94    1.84 
   5  -3  -3  112.30    1.77 
   5  -3  -3  107.96    1.44 
   5  -3  -3  109.18    1.62 
   5  -3  -3  124.89    1.85 
   5  -3  -3  119.38    1.81 
  -5   3   2  123.07    1.90 
   5  -3  -2  111.63    1.72 
   5  -3  -2  106.75    1.56 
   5  -3  -2  115.00    1.77 
   5  -3  -2  124.87    1.87 
   5  -3  -2  117.02    1.76 
  -5   3   1   26.91    0.97 
   5  -3  -1   24.40    0.86 
   5  -3  -1   25.05    0.95 
   5  -3  -1   28.27    1.00 
  -5   3   0    4.88    0.57 
   5  -3   0    4.89    0.55 
   5  -3   0    5.77    0.61 
  -5   3  -1    3.33    0.51 
   5  -3   1    2.15    0.40 
  -5   3  -2   21.21    0.87 
   5  -3   2   21.68    0.88 
  -5   3  -3   27.98    0.93 
   5  -3   3   29.16    0.95 
  -5   3  -4    1.84    0.37 
   5  -3   4    1.72    0.31 
   5  -3   4    1.26    0.31 
  -5   3  -5    6.91    0.51 
  -5   3  -5    8.56    0.53 
   5  -3   5    7.40    0.47 
  -5   3  -6    3.37    0.28 
  -5   3  -6    4.80    0.37 
   5  -3   6    4.13    0.36 
   5  -2 -10   12.62    0.54 
   5  -2 -10   13.40    0.59 
   5  -2 -10   12.96    0.57 
   5  -2  -9    6.92    0.47 
   5  -2  -9    8.70    0.56 
   5  -2  -9    8.34    0.56 
   5  -2  -9    8.99    0.59 
   5  -2  -8   53.59    1.17 
   5  -2  -8   63.43    1.30 
   5  -2  -8   62.70    1.32 
   5  -2  -8   66.89    1.35 
   5  -2  -7    7.38    0.58 
   5  -2  -7    7.40    0.34 
   5  -2  -7    9.03    0.67 
   5  -2  -7    8.25    0.65 
   5  -2  -7    9.13    0.64 
   5  -2  -6   37.19    1.09 
   5  -2  -6   35.28    0.49 
   5  -2  -6   37.88    0.84 
   5  -2  -6   43.80    1.15 
   5  -2  -6   41.22    1.15 
   5  -2  -6   43.59    1.15 
   5  -2  -5   50.21    1.25 
   5  -2  -5   52.02    0.92 
   5  -2  -5   51.67    1.08 
   5  -2  -5   59.39    1.31 
   5  -2  -5   59.70    1.28 
  -5   2   4   45.16    1.20 
   5  -2  -4   41.17    1.12 
   5  -2  -4   45.93    0.99 
   5  -2  -4   43.56    1.08 
   5  -2  -4   47.27    1.17 
  -5   2   3   17.23    0.82 
   5  -2  -3   17.00    0.78 
   5  -2  -3   17.73    0.73 
   5  -2  -3   16.96    0.79 
   5  -2  -3   19.33    0.80 
  -5   2   2   52.55    1.28 
   5  -2  -2   47.44    1.15 
   5  -2  -2   49.07    1.16 
   5  -2  -2   52.35    1.24 
  -5   2   1  101.10    1.72 
   5  -2  -1   93.84    1.55 
   5  -2  -1   99.00    1.68 
   5  -2  -1  111.37    1.79 
  -5   2   0  222.73    2.51 
   5  -2   0  238.41    2.60 
  -5   2  -1   11.49    0.73 
   5  -2   1   12.29    0.75 
  -5   2  -2    7.34    0.62 
   5  -2   2    8.24    0.63 
  -5   2  -3    3.82    0.46 
  -5   2  -3    4.27    0.51 
   5  -2   3    3.33    0.47 
   5  -2   3    4.35    0.51 
  -5   2  -4   56.43    1.15 
  -5   2  -4   57.28    1.25 
  -5   2  -4   68.54    1.40 
   5  -2   4   53.82    1.15 
   5  -2   4   69.48    1.36 
  -5   2  -5    4.08    0.46 
  -5   2  -5    5.70    0.55 
   5  -2   5    4.50    0.47 
   5  -2   5    6.09    0.52 
  -5   2  -6   32.08    0.69 
  -5   2  -6   38.20    0.90 
   5  -2   6   32.99    0.81 
  -5   2  -7    0.04    0.21 
   5  -1 -11   68.64    1.40 
   5  -1 -11   67.14    0.99 
   5  -1 -11   69.58    1.03 
   5  -1 -10    7.04    0.50 
   5  -1 -10    7.59    0.53 
   5  -1 -10    7.67    0.53 
   5  -1  -9   32.12    0.85 
   5  -1  -9   37.34    0.98 
   5  -1  -9   36.40    1.01 
   5  -1  -9   37.67    1.02 
   5  -1  -8   36.88    1.01 
   5  -1  -8   38.78    0.63 
   5  -1  -8   42.40    1.08 
   5  -1  -8   42.81    1.14 
   5  -1  -8   42.39    1.13 
   5  -1  -7   92.98    1.62 
   5  -1  -7   90.03    0.80 
   5  -1  -7   92.01    1.27 
   5  -1  -7  104.70    1.65 
   5  -1  -7  105.65    1.76 
   5  -1  -7  109.46    1.74 
   5  -1  -6   63.37    1.38 
   5  -1  -6   64.96    1.03 
   5  -1  -6   63.47    1.20 
   5  -1  -6   70.37    1.47 
   5  -1  -6   75.42    1.45 
   5  -1  -5   34.58    1.06 
   5  -1  -5   36.92    0.91 
   5  -1  -5   36.73    1.01 
   5  -1  -5   41.60    1.15 
   5  -1  -5   41.60    1.08 
   5  -1  -4   16.42    0.79 
   5  -1  -4   16.31    0.71 
   5  -1  -4   15.65    0.76 
  -5   1   3   90.69    1.60 
   5  -1  -3   76.73    1.46 
   5  -1  -3   91.54    1.54 
   5  -1  -3   99.09    1.57 
  -5   1   2   59.80    1.33 
   5  -1  -2   55.30    1.24 
   5  -1  -2   56.26    1.28 
   5  -1  -2   62.36    1.32 
  -5   1   1   21.01    0.85 
   5  -1  -1   18.06    0.76 
   5  -1  -1   21.84    0.85 
  -5   1   0   24.77    0.93 
   5  -1   0   25.58    0.92 
  -5   1  -1    3.28    0.50 
   5  -1   1    2.77    0.44 
  -5   1  -2   15.29    0.75 
  -5   1  -2   17.51    0.82 
   5  -1   2   17.80    0.84 
  -5   1  -3   37.70    1.02 
  -5   1  -3   36.50    1.09 
  -5   1  -3   42.02    1.16 
   5  -1   3   41.15    1.15 
  -5   1  -4   40.97    0.95 
  -5   1  -4   41.60    1.07 
  -5   1  -4   50.28    1.24 
   5  -1   4   50.64    1.22 
  -5   1  -5   20.74    0.72 
  -5   1  -5   24.57    0.88 
   5  -1   5   20.27    0.76 
   5  -1   5   24.47    0.84 
  -5   1  -6   25.52    0.60 
  -5   1  -6   29.84    0.86 
   5  -1   6   26.34    0.77 
  -5   1  -7   15.77    0.56 
   5  -1   7   13.34    0.52 
  -5   0  11   46.87    1.03 
   5   0 -11   69.08    1.01 
   5   0 -11   69.95    1.06 
  -5   0  10    2.21    0.34 
   5   0 -10    2.85    0.37 
   5   0 -10    2.53    0.35 
   5   0 -10    2.78    0.37 
  -5   0   9   45.64    1.08 
   5   0  -9   47.76    0.60 
   5   0  -9   57.82    1.22 
   5   0  -9   56.43    1.22 
  -5   0   8   78.43    1.46 
   5   0  -8   84.63    1.46 
   5   0  -8   89.01    1.23 
   5   0  -8  101.45    1.67 
   5   0  -8  102.01    1.67 
  -5   0   7   19.45    0.84 
   5   0  -7   18.34    0.81 
   5   0  -7   21.24    0.63 
   5   0  -7   21.61    0.77 
   5   0  -7   23.89    0.92 
   5   0  -7   23.07    0.88 
  -5   0   6   29.15    0.96 
   5   0  -6   29.92    0.98 
   5   0  -6   34.50    0.89 
   5   0  -6   33.07    0.98 
   5   0  -6   36.41    1.07 
   5   0  -6   38.20    1.07 
  -5   0   5    4.62    0.52 
   5   0  -5    4.67    0.50 
   5   0  -5    5.09    0.50 
   5   0  -5    5.64    0.56 
   5   0  -5    5.08    0.56 
  -5   0   4    0.82    0.31 
   5   0  -4    1.49    0.38 
   5   0  -4    2.15    0.39 
  -5   0   3   96.21    1.59 
  -5   0   3  106.77    1.69 
   5   0  -3   96.52    1.63 
   5   0  -3  105.74    1.71 
  -5   0   2  200.85    2.25 
  -5   0   2  213.68    2.33 
   5   0  -2  174.87    2.13 
   5   0  -2  234.08    2.39 
  -5   0   1   26.42    0.90 
  -5   0   1   28.68    0.94 
   5   0  -1   19.12    0.76 
   5   0  -1   30.36    0.97 
  -5   0   0  333.57    2.92 
  -5   0   0  359.47    3.02 
   5   0   0  380.02    3.18 
  -5   0  -1  102.79    1.67 
  -5   0  -1  103.30    1.68 
  -5   0  -1  111.28    1.73 
   5   0   1  116.03    1.83 
  -5   0  -2   35.51    1.05 
  -5   0  -2   34.43    0.98 
  -5   0  -2   35.09    1.06 
  -5   0  -2   38.86    1.09 
   5   0   2   40.20    1.16 
  -5   0  -3   52.30    1.29 
  -5   0  -3   60.59    1.33 
  -5   0  -3   59.25    1.16 
  -5   0  -3   59.75    1.28 
  -5   0  -3   67.91    1.40 
   5   0   3   68.74    1.45 
  -5   0  -4   44.09    1.11 
  -5   0  -4   47.41    1.17 
  -5   0  -4   44.69    0.88 
  -5   0  -4   45.30    1.05 
  -5   0  -4   51.70    1.22 
   5   0   4   54.50    1.27 
  -5   0  -5    0.35    0.29 
  -5   0  -5    0.32    0.30 
  -5   0  -5    0.26    0.22 
  -5   0  -5    0.33    0.31 
   5   0   5    0.25    0.31 
  -5   0  -6   12.94    0.62 
  -5   0  -6   12.37    0.31 
  -5   0  -6   14.71    0.65 
  -5   0  -7   41.88    0.82 
  -5   0  -7   47.13    0.85 
   5   0   7   41.56    0.85 
  -5  -1  11   55.35    0.90 
   5   1 -11   72.14    1.05 
  -5  -1  10    5.93    0.47 
   5   1 -10    7.68    0.54 
  -5  -1   9   30.34    0.94 
   5   1  -9   33.53    0.72 
   5   1  -9   37.32    0.95 
   5   1  -9   38.61    1.02 
  -5  -1   8   34.19    1.05 
   5   1  -8   36.81    0.98 
   5   1  -8   36.72    0.74 
   5   1  -8   38.16    0.94 
   5   1  -8   43.12    1.07 
   5   1  -8   45.41    1.15 
  -5  -1   7   84.55    1.58 
   5   1  -7   85.89    1.53 
   5   1  -7   93.31    1.38 
   5   1  -7   95.38    1.55 
   5   1  -7  104.86    1.64 
   5   1  -7  107.52    1.72 
  -5  -1   6   57.17    1.32 
   5   1  -6   54.67    1.27 
   5   1  -6   65.10    1.28 
   5   1  -6   66.04    1.39 
   5   1  -6   74.80    2.02 
   5   1  -6   75.74    1.44 
  -5  -1   5   33.33    1.04 
   5   1  -5   27.05    0.93 
   5   1  -5   35.92    1.03 
  -5  -1   4   14.84    0.76 
  -5  -1   4   16.99    0.85 
   5   1  -4   16.48    0.75 
  -5  -1   3   79.35    1.50 
   5   1  -3   61.46    1.34 
  -5  -1   2   52.44    1.22 
   5   1  -2   51.29    1.22 
   5   1  -2   59.96    1.25 
  -5  -1   1   19.17    0.82 
   5   1  -1   18.32    0.77 
   5   1  -1   22.95    0.87 
  -5  -1   0   21.60    0.86 
  -5  -1   0   23.38    0.87 
   5   1   0   16.62    0.75 
   5   1   0   25.54    0.93 
  -5  -1  -1    2.76    0.44 
  -5  -1  -1    3.12    0.42 
  -5  -1  -1    3.01    0.46 
   5   1   1    2.99    0.44 
  -5  -1  -2   16.39    0.81 
  -5  -1  -2   15.78    0.67 
  -5  -1  -2   15.96    0.74 
   5   1   2   18.23    0.86 
  -5  -1  -3   34.50    1.00 
  -5  -1  -3   38.00    1.12 
  -5  -1  -3   36.84    0.84 
  -5  -1  -3   35.91    0.97 
   5   1   3   43.41    1.18 
  -5  -1  -4   38.39    1.05 
  -5  -1  -4   43.16    1.15 
  -5  -1  -4   40.12    0.61 
  -5  -1  -4   42.44    0.91 
   5   1   4   49.00    1.21 
  -5  -1  -5   19.11    0.78 
  -5  -1  -5   20.25    0.82 
  -5  -1  -5   21.06    0.50 
   5   1   5   24.35    0.87 
  -5  -1  -6   23.69    0.78 
  -5  -1  -6   27.73    0.84 
   5   1   6   30.30    0.81 
  -5  -1  -7   13.60    0.53 
  -5  -2  10   11.07    0.54 
   5   2 -10   12.09    0.32 
   5   2 -10   13.69    0.59 
  -5  -2   9    7.24    0.56 
   5   2  -9    7.37    0.45 
   5   2  -9    8.31    0.57 
  -5  -2   8   52.51    1.23 
   5   2  -8   54.67    0.99 
   5   2  -8   56.94    1.16 
   5   2  -8   67.45    1.34 
  -5  -2   7    7.54    0.66 
   5   2  -7    6.37    0.55 
   5   2  -7    7.31    0.54 
   5   2  -7    7.65    0.62 
   5   2  -7    9.17    0.65 
  -5  -2   6   34.23    1.08 
   5   2  -6   33.00    1.01 
   5   2  -6   37.77    1.05 
   5   2  -6   42.19    1.11 
  -5  -2   5   48.94    1.25 
   5   2  -5   30.29    1.00 
  -5  -2   4   39.99    1.15 
   5   2  -4   25.84    0.94 
  -5  -2   3   16.26    0.80 
   5   2  -3   12.09    0.72 
  -5  -2   2   45.85    1.21 
   5   2  -2   41.19    1.12 
  -5  -2   1   90.62    1.63 
  -5  -2   1   95.25    1.60 
   5   2  -1   50.40    1.23 
  -5  -2   0  198.47    2.37 
  -5  -2   0  203.01    2.20 
  -5  -2   0  197.24    2.32 
   5   2   0  121.81    1.82 
  -5  -2  -1   10.33    0.70 
  -5  -2  -1   10.84    0.59 
  -5  -2  -1   10.23    0.66 
  -5  -2  -2    6.63    0.61 
  -5  -2  -2    6.67    0.45 
  -5  -2  -2    6.99    0.56 
  -5  -2  -3    4.22    0.52 
  -5  -2  -3    3.37    0.46 
  -5  -2  -3    3.77    0.27 
  -5  -2  -3    3.77    0.44 
  -5  -2  -3    4.69    0.55 
  -5  -2  -4   54.68    1.20 
  -5  -2  -4   59.75    1.31 
  -5  -2  -4   56.26    0.79 
  -5  -2  -4   64.38    1.27 
   5   2   4   69.67    1.40 
  -5  -2  -5    4.37    0.48 
  -5  -2  -5    3.95    0.45 
  -5  -2  -5    4.65    0.48 
   5   2   5    5.37    0.54 
  -5  -2  -6   31.02    0.81 
  -5  -2  -6   33.19    0.85 
  -5  -2  -6   36.84    0.84 
   5   2   6   39.00    0.86 
  -5  -2  -7    0.37    0.27 
  -5  -2  -7    0.30    0.20 
  -5  -3  10    0.63    0.18 
   5   3 -10    0.74    0.14 
   5   3 -10    0.79    0.22 
  -5  -3   9   42.65    0.93 
   5   3  -9   44.72    0.86 
   5   3  -9   49.64    1.00 
  -5  -3   8    2.53    0.38 
   5   3  -8    3.41    0.41 
   5   3  -8    3.92    0.43 
  -5  -3   7   46.47    1.15 
   5   3  -7   43.52    1.03 
   5   3  -7   61.64    1.85 
   5   3  -7   59.44    1.23 
  -5  -3   6  123.21    1.85 
   5   3  -6   85.03    1.50 
   5   3  -6  146.98    1.90 
  -5  -3   5   46.35    1.20 
   5   3  -5   44.19    1.16 
  -5  -3   4   68.04    1.43 
   5   3  -4   43.85    1.16 
  -5  -3   3  106.44    1.76 
   5   3  -3   55.53    1.32 
  -5  -3   2  103.68    1.74 
  -5  -3   2  107.28    1.69 
   5   3  -2   50.66    1.27 
  -5  -3   1   23.56    0.92 
  -5  -3   1   24.30    0.85 
  -5  -3   1   24.23    0.91 
  -5  -3   1   25.29    0.91 
  -5  -3   1   27.96    0.94 
   5   3  -1   21.63    0.88 
  -5  -3   0    4.33    0.53 
  -5  -3   0    4.82    0.47 
  -5  -3   0    4.50    0.53 
  -5  -3   0    5.35    0.62 
  -5  -3   0    6.07    0.59 
   5   3   0    3.96    0.49 
  -5  -3  -1    1.85    0.40 
  -5  -3  -1    2.22    0.30 
  -5  -3  -1    2.10    0.36 
  -5  -3  -1    2.35    0.44 
  -5  -3  -1    1.83    0.39 
   5   3   1    1.25    0.37 
  -5  -3  -2   18.18    0.81 
  -5  -3  -2   16.36    0.36 
  -5  -3  -2   16.73    0.62 
  -5  -3  -2   18.12    0.85 
  -5  -3  -2   19.96    0.82 
  -5  -3  -3   22.66    0.81 
  -5  -3  -3   24.59    0.89 
  -5  -3  -3   24.20    0.53 
  -5  -3  -3   25.18    0.93 
  -5  -3  -3   27.50    0.91 
  -5  -3  -4    0.98    0.30 
  -5  -3  -4    1.46    0.34 
  -5  -3  -4    1.81    0.34 
  -5  -3  -5    7.02    0.49 
  -5  -3  -5    7.64    0.50 
  -5  -3  -5    8.72    0.53 
   5   3   5    8.61    0.55 
  -5  -3  -6    3.59    0.36 
  -5  -3  -6    4.19    0.35 
  -5  -3  -6    4.19    0.37 
   5   3   6    3.94    0.36 
   5   4  -9    8.89    0.53 
   5   4  -9   11.75    0.63 
  -5  -4   8    3.54    0.36 
   5   4  -8    3.73    0.40 
   5   4  -8    3.89    0.42 
  -5  -4   7   23.49    0.74 
   5   4  -7   30.49    0.84 
  -5  -4   6   45.76    1.05 
   5   4  -6   36.65    0.94 
   5   4  -6   56.71    1.12 
  -5  -4   5   15.00    0.70 
  -5  -4   5   17.10    0.73 
   5   4  -5   10.97    0.67 
  -5  -4   4    3.66    0.46 
  -5  -4   4    3.68    0.44 
   5   4  -4    1.78    0.39 
  -5  -4   3   43.58    1.11 
  -5  -4   3   43.88    1.07 
  -5  -4   3   21.21    0.86 
  -5  -4   3   53.03    1.20 
   5   4  -3   30.92    1.00 
  -5  -4   2   39.78    1.07 
  -5  -4   2   38.59    0.97 
  -5  -4   2   39.71    1.07 
  -5  -4   2   46.37    1.14 
   5   4  -2   23.98    0.91 
  -5  -4   1    8.08    0.61 
  -5  -4   1    8.90    0.51 
  -5  -4   1    8.86    0.59 
  -5  -4   1   10.39    0.67 
   5   4  -1    4.39    0.54 
  -5  -4   0   44.47    1.11 
  -5  -4   0   43.58    0.77 
  -5  -4   0   46.37    1.00 
  -5  -4   0   46.30    1.14 
  -5  -4   0   52.20    1.21 
   5   4   0   18.99    0.81 
  -5  -4  -1   21.16    0.80 
  -5  -4  -1   20.93    0.63 
  -5  -4  -1   21.76    0.86 
  -5  -4  -1   25.52    0.89 
   5   4   1   11.63    0.67 
  -5  -4  -2    5.13    0.51 
  -5  -4  -2    4.84    0.25 
  -5  -4  -2    5.18    0.58 
  -5  -4  -2    6.12    0.57 
  -5  -4  -3    1.70    0.31 
  -5  -4  -3    2.21    0.34 
  -5  -4  -3    2.72    0.40 
  -5  -4  -3    2.89    0.39 
  -5  -4  -4    5.71    0.44 
  -5  -4  -4    5.87    0.43 
  -5  -4  -4    6.54    0.49 
  -5  -4  -5    2.74    0.34 
  -5  -4  -5    2.91    0.34 
   5   4   5    3.61    0.36 
  -5  -5   6    0.94    0.24 
  -5  -5   5    0.34    0.22 
   5   5  -5    0.61    0.27 
  -5  -5   4    5.63    0.49 
  -5  -5   4   10.64    0.58 
   5   5  -4    4.76    0.47 
  -5  -5   3    3.78    0.45 
  -5  -5   3    4.32    0.50 
   5   5  -3    2.05    0.39 
  -5  -5   2    0.67    0.26 
  -5  -5   2    0.64    0.29 
   5   5  -2    0.69    0.32 
  -5  -5   1   18.34    0.61 
  -5  -5   1   20.99    0.78 
   5   5  -1    5.91    0.52 
  -5  -5   0   31.77    0.59 
  -5  -5   0   32.54    0.85 
  -5  -5   0   38.76    0.98 
   5   5   0   14.65    0.67 
  -5  -5  -1   26.64    0.80 
  -5  -5  -1   29.68    0.84 
   5   5   1    8.70    0.54 
  -5  -5  -2    2.47    0.33 
  -5  -5  -2    2.43    0.32 
  -5  -5  -3    1.62    0.26 
  -5  -6   4   18.92    0.50 
  -5  -6   4   24.15    0.90 
   5   6  -4    4.21    0.48 
  -5  -6   3   17.66    0.44 
  -5  -6   3   20.62    0.59 
   5   6  -3    8.47    0.46 
  -5  -6   2    2.65    0.19 
  -5  -6   2    3.29    0.35 
   5   6  -2    1.67    0.29 
  -5  -6   1   22.10    0.63 
   5   6  -1    9.19    0.47 
  -5  -6   0    8.21    0.42 
   5   6   0    2.38    0.30 
  -6   4   6    1.70    0.33 
   6  -4  -6    1.47    0.27 
  -6   4   5   24.62    0.66 
   6  -4  -5   23.20    0.69 
  -6   4   4   20.58    0.64 
  -6   4   4   21.44    0.66 
   6  -4  -4   13.66    0.57 
   6  -4  -4   20.56    0.32 
   6  -4  -4   23.25    0.77 
  -6   4   3   16.87    0.62 
  -6   4   3   17.49    0.64 
   6  -4  -3   15.70    0.49 
   6  -4  -3   17.47    0.63 
  -6   4   2   57.11    1.04 
   6  -4  -2   54.45    0.92 
   6  -4  -2   61.63    1.10 
  -6   4   1   28.87    0.77 
   6  -4  -1   25.08    0.69 
   6  -4  -1   29.14    0.82 
  -6   4   0   58.22    1.01 
   6  -4   0   51.96    0.96 
   6  -4   0   62.15    1.10 
  -6   4  -1    9.40    0.44 
   6  -4   1    7.96    0.45 
   6  -4   1   10.62    0.50 
  -6   3   8   22.60    0.61 
   6  -3  -8   20.63    0.60 
  -6   3   7    4.21    0.40 
   6  -3  -7    3.65    0.41 
   6  -3  -7    3.40    0.36 
  -6   3   6   89.30    1.35 
   6  -3  -6   62.99    1.16 
   6  -3  -6   85.28    1.61 
  -6   3   5   99.35    1.50 
   6  -3  -5   94.92    1.46 
   6  -3  -5   89.82    0.98 
  -6   3   4   16.04    0.72 
   6  -3  -4   15.06    0.68 
   6  -3  -4   15.74    0.58 
  -6   3   3   24.60    0.86 
   6  -3  -3   22.71    0.78 
   6  -3  -3   24.17    0.76 
   6  -3  -3   27.72    0.84 
  -6   3   2   37.03    1.01 
   6  -3  -2   34.74    0.94 
   6  -3  -2   39.23    1.02 
  -6   3   1  137.75    1.82 
   6  -3  -1  123.12    1.71 
   6  -3  -1  143.59    1.83 
  -6   3   0    0.90    0.32 
   6  -3   0    0.82    0.29 
  -6   3  -1    8.57    0.55 
   6  -3   1    9.06    0.58 
  -6   3  -2   35.30    0.87 
   6  -3   2   36.28    0.87 
  -6   3  -3    8.87    0.46 
   6  -3   3    8.75    0.45 
  -6   2   9    2.83    0.33 
  -6   2   8   11.16    0.52 
   6  -2  -8    8.66    0.49 
   6  -2  -8   12.66    0.53 
  -6   2   7   38.51    0.97 
   6  -2  -7   34.86    0.90 
  -6   2   6   10.03    0.62 
   6  -2  -6    9.09    0.59 
   6  -2  -6    9.61    0.43 
  -6   2   5   37.10    1.05 
   6  -2  -5   34.71    0.99 
   6  -2  -5   32.76    0.82 
  -6   2   4  137.49    1.91 
   6  -2  -4  123.56    1.78 
   6  -2  -4  121.02    1.43 
   6  -2  -4  124.66    1.67 
  -6   2   3   87.76    1.58 
   6  -2  -3   82.63    1.46 
   6  -2  -3   78.36    1.29 
   6  -2  -3   79.10    1.44 
   6  -2  -3   95.79    1.53 
  -6   2   2    2.72    0.44 
   6  -2  -2    2.86    0.44 
   6  -2  -2    2.32    0.36 
   6  -2  -2    2.53    0.46 
   6  -2  -2    2.07    0.38 
  -6   2   1    9.39    0.66 
   6  -2  -1    9.03    0.65 
  -6   2   0   21.49    0.86 
   6  -2   0   20.96    0.83 
  -6   2  -1   13.62    0.72 
   6  -2   1   12.88    0.69 
  -6   2  -2    9.26    0.60 
   6  -2   2    9.82    0.61 
  -6   2  -3   52.78    1.04 
  -6   2  -3   61.03    1.13 
   6  -2   3   62.69    1.13 
  -6   2  -4   10.71    0.47 
  -6   2  -4   12.60    0.52 
   6  -2   4   13.61    0.50 
  -6   1   9   10.36    0.48 
   6  -1  -9   11.76    0.54 
   6  -1  -9   11.64    0.50 
  -6   1   8   10.92    0.56 
   6  -1  -8    9.87    0.54 
   6  -1  -8   11.53    0.55 
  -6   1   7   69.65    1.29 
   6  -1  -7   70.92    1.30 
   6  -1  -7   71.00    0.96 
  -6   1   6   11.66    0.68 
   6  -1  -6   11.80    0.66 
   6  -1  -6   12.19    0.58 
  -6   1   5    7.07    0.62 
   6  -1  -5    7.07    0.59 
   6  -1  -5    7.10    0.46 
   6  -1  -5    6.90    0.56 
  -6   1   4   20.25    0.85 
   6  -1  -4   18.15    0.80 
   6  -1  -4   18.91    0.72 
  -6   1   3    3.27    0.46 
   6  -1  -3    2.74    0.46 
   6  -1  -3    3.94    0.47 
   6  -1  -3    4.30    0.47 
  -6   1   2   71.50    1.44 
   6  -1  -2   66.03    1.32 
   6  -1  -2   73.20    1.41 
  -6   1   1    8.49    0.64 
   6  -1  -1    8.74    0.67 
  -6   1   0   12.34    0.72 
   6  -1   0   13.02    0.75 
  -6   1  -1   26.54    0.92 
   6  -1   1   29.04    0.97 
  -6   1  -2    4.87    0.56 
  -6   1  -2    5.10    0.51 
   6  -1   2    6.34    0.58 
  -6   1  -3    7.77    0.53 
  -6   1  -3    9.59    0.58 
   6  -1   3    9.00    0.58 
  -6   1  -4   22.33    0.61 
  -6   1  -4   26.30    0.74 
   6  -1   4   26.02    0.74 
  -6   0   9   30.93    0.69 
  -6   0   9   34.83    0.74 
   6   0  -9   39.65    0.82 
  -6   0   8   52.55    1.01 
  -6   0   8   57.98    1.08 
   6   0  -8   48.73    1.00 
   6   0  -8   57.10    0.79 
   6   0  -8   64.90    1.11 
  -6   0   7    0.49    0.28 
  -6   0   7    1.01    0.30 
   6   0  -7    0.72    0.31 
   6   0  -7    0.34    0.23 
  -6   0   6  140.80    1.82 
  -6   0   6  153.26    1.91 
   6   0  -6  135.54    1.88 
   6   0  -6  138.32    1.53 
   6   0  -6  142.80    1.78 
  -6   0   5   33.01    0.98 
  -6   0   5   38.19    1.04 
   6   0  -5   33.31    1.02 
   6   0  -5   34.66    0.92 
   6   0  -5   35.40    1.02 
  -6   0   4   38.63    1.06 
  -6   0   4   39.73    1.08 
   6   0  -4   35.32    1.05 
   6   0  -4   37.06    1.02 
  -6   0   3    2.47    0.42 
  -6   0   3    2.25    0.40 
   6   0  -3    1.31    0.37 
  -6   0   2    5.30    0.57 
  -6   0   2    6.05    0.57 
   6   0  -2    6.11    0.57 
   6   0  -2    6.21    0.59 
  -6   0   1  105.16    1.66 
  -6   0   1  109.78    1.69 
   6   0  -1   86.31    1.47 
   6   0  -1  125.32    1.85 
  -6   0   0   74.91    1.41 
  -6   0   0   80.27    1.45 
   6   0   0   87.19    1.57 
  -6   0  -1   -0.05    0.29 
  -6   0  -1    0.15    0.26 
  -6   0  -1   -0.10    0.29 
   6   0   1    0.01    0.30 
  -6   0  -2   21.41    0.78 
  -6   0  -2   21.17    0.79 
  -6   0  -2   23.14    0.81 
   6   0   2   23.51    0.87 
  -6   0  -3    8.18    0.52 
  -6   0  -3    7.55    0.50 
  -6   0  -3    8.90    0.55 
   6   0   3    9.92    0.62 
  -6   0  -4   -0.02    0.21 
  -6   0  -4    0.02    0.17 
  -6   0  -4    0.15    0.21 
   6   0   4    0.27    0.24 
  -6  -1   9    9.65    0.47 
   6   1  -9   10.98    0.24 
   6   1  -9   12.63    0.51 
  -6  -1   8    9.54    0.55 
   6   1  -8   10.51    0.51 
   6   1  -8   10.37    0.47 
   6   1  -8   12.03    0.57 
  -6  -1   7   67.66    1.27 
   6   1  -7   71.12    1.28 
   6   1  -7   74.95    1.24 
  -6  -1   6   11.23    0.66 
   6   1  -6   10.30    0.65 
   6   1  -6   12.11    0.65 
  -6  -1   5    6.58    0.60 
   6   1  -5    6.00    0.57 
   6   1  -5    6.77    0.54 
  -6  -1   4   18.57    0.81 
   6   1  -4   16.16    0.79 
  -6  -1   3    3.73    0.50 
   6   1  -3    1.45    0.37 
  -6  -1   2   65.64    1.38 
   6   1  -2   56.19    1.27 
   6   1  -2   74.14    1.36 
  -6  -1   1    7.82    0.65 
   6   1  -1    8.15    0.61 
   6   1  -1   10.61    0.69 
  -6  -1   0   11.14    0.68 
  -6  -1   0   11.26    0.62 
  -6  -1   0   10.55    0.72 
   6   1   0   13.50    0.73 
  -6  -1  -1   24.03    0.86 
  -6  -1  -1   22.84    0.74 
  -6  -1  -1   22.82    0.83 
   6   1   1   28.31    0.95 
  -6  -1  -2    5.15    0.53 
  -6  -1  -2    4.72    0.48 
   6   1   2    5.68    0.55 
  -6  -1  -3    8.38    0.54 
  -6  -1  -3    7.81    0.44 
   6   1   3    9.60    0.61 
  -6  -1  -4   22.22    0.68 
  -6  -1  -4   21.29    0.34 
   6   1   4   26.42    0.76 
  -6  -2   9    3.07    0.33 
   6   2  -9    2.71    0.22 
  -6  -2   8   10.51    0.53 
   6   2  -8   10.42    0.47 
   6   2  -8   11.30    0.48 
  -6  -2   7   33.89    0.91 
   6   2  -7   32.09    0.85 
   6   2  -7   35.28    0.89 
  -6  -2   6    9.26    0.61 
   6   2  -6    8.47    0.58 
  -6  -2   5   33.32    1.00 
   6   2  -5   31.97    0.98 
  -6  -2   4  118.42    1.77 
   6   2  -4   95.73    1.61 
  -6  -2   3   79.26    1.49 
   6   2  -3   58.98    1.30 
  -6  -2   2    1.84    0.40 
  -6  -2   2    2.52    0.53 
   6   2  -2    1.96    0.40 
  -6  -2   1    8.01    0.63 
  -6  -2   1    7.79    0.55 
  -6  -2   1    7.86    0.61 
   6   2  -1    5.95    0.55 
   6   2  -1    9.81    0.64 
  -6  -2   0   17.64    0.79 
  -6  -2   0   17.13    0.66 
  -6  -2   0   17.41    0.73 
   6   2   0   12.30    0.65 
   6   2   0   21.54    0.82 
  -6  -2  -1   11.45    0.66 
  -6  -2  -1   11.27    0.60 
   6   2   1   13.53    0.70 
  -6  -2  -2    9.23    0.59 
  -6  -2  -2    8.58    0.47 
   6   2   2    8.87    0.59 
  -6  -2  -3   54.14    1.07 
  -6  -2  -3   51.02    0.59 
   6   2   3   62.94    1.14 
  -6  -2  -4   11.26    0.49 
   6   2   4   13.08    0.54 
  -6  -3   8   22.36    0.61 
   6   3  -8   21.48    0.61 
  -6  -3   7    3.46    0.36 
   6   3  -7    3.04    0.34 
   6   3  -7    3.59    0.38 
  -6  -3   6   79.70    1.29 
   6   3  -6   70.69    1.21 
  -6  -3   5   83.69    1.38 
   6   3  -5   67.24    1.26 
  -6  -3   4   15.61    0.70 
   6   3  -4    5.66    0.54 
  -6  -3   3   23.00    0.83 
   6   3  -3   16.58    0.74 
  -6  -3   2   32.51    0.96 
  -6  -3   2   32.03    0.94 
   6   3  -2   22.69    0.82 
  -6  -3   1  119.93    1.69 
  -6  -3   1  117.41    1.59 
   6   3  -1   75.18    1.35 
   6   3  -1  140.43    1.68 
  -6  -3   0    0.87    0.31 
  -6  -3   0    0.95    0.27 
   6   3   0    1.47    0.34 
   6   3   0    0.73    0.28 
  -6  -3  -1    7.78    0.53 
  -6  -3  -1    7.56    0.42 
   6   3   1    9.10    0.55 
  -6  -3  -2   32.36    0.83 
  -6  -3  -2   29.48    0.37 
   6   3   2   37.50    0.90 
  -6  -3  -3    8.06    0.44 
   6   3   3    8.50    0.46 
  -6  -4   6    1.48    0.24 
   6   4  -6    1.89    0.26 
  -6  -4   5   22.04    0.64 
   6   4  -5   17.90    0.63 
  -6  -4   4   20.30    0.65 
  -6  -4   4   18.32    0.67 
   6   4  -4   15.60    0.62 
  -6  -4   3   15.25    0.60 
  -6  -4   3   13.72    0.59 
   6   4  -3   10.63    0.56 
  -6  -4   2   52.04    1.00 
  -6  -4   2   52.75    0.97 
   6   4  -2   36.90    0.92 
  -6  -4   1   24.55    0.71 
  -6  -4   1   24.16    0.63 
   6   4  -1   14.01    0.61 
  -6  -4   0   50.88    0.95 
  -6  -4   0   50.73    0.69 
   6   4   0   29.22    0.74 
   6   4   0   58.19    0.96 
  -6  -4  -1    8.91    0.44 
   6   4   1    9.85    0.47 
   6   5  -3    7.26    0.49 
   6   5  -2    5.24    0.40 
  -7   2   5   34.07    0.72 
   7  -2  -5   27.88    0.77 
   7  -2  -5   32.13    0.48 
  -7   2   4   24.90    0.66 
   7  -2  -4   23.59    0.62 
   7  -2  -4   24.22    0.57 
  -7   2   3   21.80    0.64 
   7  -2  -3   21.44    0.60 
  -7   2   2   10.35    0.48 
   7  -2  -2    9.72    0.47 
   7  -2  -2   11.16    0.54 
  -7   2   1    1.67    0.27 
   7  -2  -1    1.67    0.25 
  -7   2   0   16.03    0.51 
   7  -2   0   18.14    0.61 
  -7   1   6   45.17    0.83 
   7  -1  -6   44.86    0.84 
   7  -1  -6   45.97    0.61 
  -7   1   5   24.21    0.67 
   7  -1  -5   22.75    0.67 
   7  -1  -5   23.01    0.59 
  -7   1   4   10.16    0.50 
   7  -1  -4    9.33    0.50 
   7  -1  -4    9.24    0.48 
  -7   1   3    9.74    0.51 
   7  -1  -3    9.00    0.50 
   7  -1  -3    8.72    0.49 
  -7   1   2   21.93    0.68 
   7  -1  -2   22.64    0.64 
  -7   1   1   20.49    0.64 
   7  -1  -1   20.98    0.64 
  -7   1   0   37.21    0.77 
   7  -1   0   42.02    0.85 
   7  -1   1   10.34    0.45 
   7   0  -6   32.32    0.75 
   7   0  -6   36.02    0.68 
  -7   0   5   16.44    0.69 
   7   0  -5   17.87    0.63 
   7   0  -5   18.60    0.61 
  -7   0   4   13.56    0.52 
   7   0  -4   13.18    0.60 
   7   0  -4   12.29    0.56 
  -7   0   3    0.77    0.24 
   7   0  -3    0.26    0.27 
  -7   0   2    0.46    0.28 
   7   0  -1   30.84    0.76 
  -7   0   0    8.67    0.48 
   7   0   0   10.81    0.50 
  -7   0  -1   18.23    0.56 
   7   0   1   22.19    0.62 
  -7  -1   6   42.47    1.10 
   7   1  -6   44.22    0.83 
   7   1  -6   44.94    0.78 
  -7  -1   5   21.77    0.63 
   7   1  -5   20.62    0.65 
   7   1  -5   21.74    0.65 
  -7  -1   4    8.70    0.46 
   7   1  -4    9.38    0.53 
  -7  -1   3    8.99    0.48 
   7   1  -3    8.10    0.48 
  -7  -1   2   19.07    0.63 
   7   1  -2   17.32    0.60 
  -7  -1   1   18.28    0.59 
  -7  -1   1   17.19    0.62 
   7   1  -1   20.08    0.59 
  -7  -1   0   33.09    0.73 
  -7  -1   0   32.82    0.73 
   7   1   0   37.85    0.76 
  -7  -1  -1    9.45    0.38 
   7   1   1   11.38    0.61 
  -7  -2   5   31.96    0.71 
   7   2  -5   29.16    0.69 
  -7  -2   4   24.00    0.65 
   7   2  -4   19.91    0.61 
  -7  -2   3   20.95    0.63 
   7   2  -3   16.20    0.56 
  -7  -2   2    9.32    0.46 
  -7  -2   2    9.75    0.49 
   7   2  -2    7.90    0.43 
  -7  -2   1    1.09    0.24 
  -7  -2   1    1.34    0.24 
  -7  -2   0   14.07    0.49 
  -7  -2   0   14.56    0.43 
   0   0   0    0.00    0.00 
;
_shelx_hkl_checksum              44390
loop_
_space_group_symop_operation_xyz
'x, y, z'
'-x, y+1/2, -z'
loop_
_atom_site_label
_atom_site_type_symbol
_atom_site_fract_x
_atom_site_fract_y
_atom_site_fract_z
_atom_site_U_iso_or_equiv
_atom_site_adp_type
_atom_site_occupancy
_atom_site_site_symmetry_order
_atom_site_calc_flag
_atom_site_refinement_flags_posn
_atom_site_refinement_flags_adp
N1 N 0.6208(3) 1.0263(2) 0.20891(13) 0.0174(4) Uani 1 1 d . .
O1 O 0.5135(2) 0.9598(2) 0.39150(12) 0.0222(4) Uani 1 1 d . .
O2 O 0.7814(2) 1.2551(2) 0.10220(13) 0.0262(4) Uani 1 1 d . .
C1 C 0.5911(3) 0.8186(3) 0.21168(16) 0.0187(5) Uani 1 1 d . .
H1 H 0.4369 0.7837 0.1651 0.022 Uiso 1 1 calc R U
C2 C 0.6122(4) 0.7874(3) 0.35326(19) 0.0233(5) Uani 1 1 d . .
H2A H 0.5293 0.6712 0.3699 0.028 Uiso 1 1 calc R U
H2B H 0.7706 0.7749 0.3977 0.028 Uiso 1 1 calc R U
C3 C 0.5777(3) 1.1201(3) 0.32302(16) 0.0181(5) Uani 1 1 d . .
C7 C 0.7724(3) 0.9092(3) 0.04691(18) 0.0222(5) Uani 1 1 d . .
H7A H 0.9200 0.9157 0.0237 0.027 Uiso 1 1 calc R U
H7B H 0.6550 0.8947 -0.0313 0.027 Uiso 1 1 calc R U
C9 C 0.9948(3) 0.7033(3) 0.2217(2) 0.0247(5) Uani 1 1 d . .
H9A H 1.0520 0.8214 0.2669 0.037 Uiso 1 1 calc R U
H9B H 1.0968 0.6620 0.1683 0.037 Uiso 1 1 calc R U
H9C H 0.9840 0.6019 0.2832 0.037 Uiso 1 1 calc R U
C4 C 0.7892(4) 1.2136(3) 0.39943(19) 0.0252(5) Uani 1 1 d . .
H4A H 0.7565 1.2740 0.4754 0.038 Uiso 1 1 calc R U
H4B H 0.8420 1.3117 0.3476 0.038 Uiso 1 1 calc R U
H4C H 0.9050 1.1153 0.4245 0.038 Uiso 1 1 calc R U
C5 C 0.3832(3) 1.2587(3) 0.29371(17) 0.0245(5) Uani 1 1 d . .
H5A H 0.2542 1.1944 0.2403 0.037 Uiso 1 1 calc R U
H5B H 0.4248 1.3709 0.2488 0.037 Uiso 1 1 calc R U
H5C H 0.3447 1.3005 0.3729 0.037 Uiso 1 1 calc R U
C8 C 0.7644(3) 0.7414(3) 0.13900(18) 0.0200(5) Uani 1 1 d . .
H8 H 0.7061 0.6226 0.0907 0.024 Uiso 1 1 calc R U
C6 C 0.7313(3) 1.0883(3) 0.12031(17) 0.0174(4) Uani 1 1 d . .
loop_
_atom_site_aniso_label
_atom_site_aniso_U_11
_atom_site_aniso_U_22
_atom_site_aniso_U_33
_atom_site_aniso_U_23
_atom_site_aniso_U_13
_atom_site_aniso_U_12
N1 0.0217(8) 0.0173(9) 0.0142(8) -0.0009(6) 0.0062(6) 0.0007(6)
O1 0.0307(7) 0.0209(8) 0.0189(7) 0.0012(5) 0.0139(5) -0.0007(6)
O2 0.0352(9) 0.0218(8) 0.0249(7) 0.0052(6) 0.0140(6) -0.0014(6)
C1 0.0185(8) 0.0168(10) 0.0220(9) -0.0024(7) 0.0068(7) -0.0029(7)
C2 0.0317(10) 0.0177(9) 0.0242(9) 0.0036(8) 0.0141(7) -0.0004(8)
C3 0.0244(9) 0.0194(10) 0.0120(8) 0.0009(8) 0.0073(6) 0.0008(8)
C7 0.0245(9) 0.0256(11) 0.0184(9) -0.0032(8) 0.0087(7) 0.0009(8)
C9 0.0210(9) 0.0208(10) 0.0332(10) 0.0008(8) 0.0077(8) 0.0025(8)
C4 0.0279(10) 0.0282(11) 0.0190(9) -0.0053(8) 0.0043(7) -0.0037(8)
C5 0.0303(10) 0.0268(11) 0.0180(9) -0.0013(8) 0.0085(7) 0.0066(8)
C8 0.0202(9) 0.0172(9) 0.0238(9) -0.0054(8) 0.0075(7) -0.0023(7)
C6 0.0196(8) 0.0197(10) 0.0137(8) 0.0024(7) 0.0053(6) 0.0033(7)
loop_
_atom_type_symbol
_atom_type_description
_atom_type_scat_dispersion_real
_atom_type_scat_dispersion_imag
_atom_type_scat_source
C C 0.0181 0.0091 'International Tables Vol C Tables 4.2.6.8 and 6.1.1.4'
H H 0.0000 0.0000 'International Tables Vol C Tables 4.2.6.8 and 6.1.1.4'
N N 0.0311 0.0180 'International Tables Vol C Tables 4.2.6.8 and 6.1.1.4'
O O 0.0492 0.0322 'International Tables Vol C Tables 4.2.6.8 and 6.1.1.4'
loop_
_geom_angle_atom_site_label_1
_geom_angle_atom_site_label_2
_geom_angle_atom_site_label_3
_geom_angle
C6 N1 C1 114.38(14)
C6 N1 C3 131.26(17)
C1 N1 C3 112.14(14)
C2 O1 C3 108.50(12)
N1 C1 C2 100.23(14)
N1 C1 C8 103.34(14)
C2 C1 C8 122.85(16)
O1 C2 C1 102.71(16)
O1 C3 N1 101.97(14)
O1 C3 C5 108.06(15)
N1 C3 C5 112.50(14)
O1 C3 C4 110.25(15)
N1 C3 C4 111.04(15)
C5 C3 C4 112.47(17)
C6 C7 C8 104.43(14)
C9 C8 C7 110.88(15)
C9 C8 C1 114.41(15)
C7 C8 C1 100.79(15)
O2 C6 N1 126.40(18)
O2 C6 C7 127.82(18)
N1 C6 C7 105.75(16)
loop_
_geom_bond_atom_site_label_1
_geom_bond_atom_site_label_2
_geom_bond_distance
N1 C6 1.356(2)
N1 C1 1.455(3)
N1 C3 1.468(2)
O1 C2 1.441(2)
O1 C3 1.438(2)
O2 C6 1.224(3)
C1 C2 1.523(3)
C1 C8 1.545(2)
C3 C5 1.511(3)
C3 C4 1.523(3)
C7 C6 1.525(3)
C7 C8 1.540(3)
C9 C8 1.523(3)
