#------------------------------------------------------------------------------
#$Date: 2019-11-24 16:48:02 +0200 (Sun, 24 Nov 2019) $
#$Revision: 238640 $
#$URL: file:///home/coder/svn-repositories/cod/cif/1/55/54/1555417.cif $
#------------------------------------------------------------------------------
#
# This file is available in the Crystallography Open Database (COD),
# http://www.crystallography.net/
#
# All data on this site have been placed in the public domain by the
# contributors.
#
data_1555417
loop_
_publ_author_name
'Shen, Yang'
'Li, Linbin'
'Pan, Zhisheng'
'Wang, Yinglu'
'Li, Jundong'
'Wang, Kuangyu'
'Wang, Xiance'
'Zhang, Youyu'
'Hu, Tianhui'
'Zhang, Yandong'
_publ_section_title
;
 Protecting-Group-Free Total Synthesis of (-)-Jiadifenolide: Development
 of a [4 + 1] Annulation toward Multisubstituted Tetrahydrofurans.
;
_journal_issue                   21
_journal_name_full               'Organic letters'
_journal_page_first              5480
_journal_page_last               5483
_journal_paper_doi               10.1021/acs.orglett.5b02845
_journal_volume                  17
_journal_year                    2015
_chemical_formula_moiety         'C15 H18 O7'
_chemical_formula_sum            'C15 H18 O7'
_chemical_formula_weight         310.29
_space_group_crystal_system      monoclinic
_space_group_IT_number           4
_space_group_name_Hall           'P 2yb'
_space_group_name_H-M_alt        'P 1 21 1'
_atom_sites_solution_hydrogens   geom
_atom_sites_solution_primary     direct
_audit_creation_date             2015-02-10
_audit_creation_method
;
Olex2 1.2
(compiled 2015.01.26 svn.r3150 for OlexSys, GUI svn.r4998)
;
_cell_angle_alpha                90
_cell_angle_beta                 98.176(5)
_cell_angle_gamma                90
_cell_formula_units_Z            2
_cell_length_a                   7.1870(4)
_cell_length_b                   8.7702(4)
_cell_length_c                   11.0150(6)
_cell_measurement_reflns_used    1513
_cell_measurement_temperature    293(2)
_cell_measurement_theta_max      27.3800
_cell_measurement_theta_min      3.9320
_cell_volume                     687.23(6)
_computing_cell_refinement
;
CrysAlisPro, Agilent Technologies,
Version 1.171.36.24 (release 03-12-2012 CrysAlis171 .NET)
(compiled Dec  3 2012,18:21:49)
;
_computing_data_collection
;
CrysAlisPro, Agilent Technologies,
Version 1.171.36.24 (release 03-12-2012 CrysAlis171 .NET)
(compiled Dec  3 2012,18:21:49)
;
_computing_data_reduction
;
CrysAlisPro, Agilent Technologies,
Version 1.171.36.24 (release 03-12-2012 CrysAlis171 .NET)
(compiled Dec  3 2012,18:21:49)
;
_computing_molecular_graphics    'Olex2 (Dolomanov et al., 2009)'
_computing_publication_material  'Olex2 (Dolomanov et al., 2009)'
_computing_structure_refinement  'ShelXL (Sheldrick, 2008)'
_computing_structure_solution    'ShelXS (Sheldrick, 2008)'
_diffrn_ambient_temperature      293(2)
_diffrn_detector_area_resol_mean 16.1903
_diffrn_measured_fraction_theta_full 0.952
_diffrn_measured_fraction_theta_max 0.842
_diffrn_measurement_details
;
#__ type_ start__ end____ width___ exp.time_
  1 omega  -88.00    0.00   1.0000    5.0000
omega____ theta____ kappa____ phi______ frames
    -      -17.3204  -57.0000    0.0000 88

#__ type_ start__ end____ width___ exp.time_
  2 omega  -88.00   -6.00   1.0000    5.0000
omega____ theta____ kappa____ phi______ frames
    -      -17.3204  -57.0000  -90.0000 82

#__ type_ start__ end____ width___ exp.time_
  3 omega  -65.00  -37.00   1.0000    5.0000
omega____ theta____ kappa____ phi______ frames
    -      -17.3204 -178.0000   30.0000 28

#__ type_ start__ end____ width___ exp.time_
  4 omega   59.00   87.00   1.0000    5.0000
omega____ theta____ kappa____ phi______ frames
    -       18.6485    0.0000  -60.0000 28

#__ type_ start__ end____ width___ exp.time_
  5 omega  -20.00    5.00   1.0000    5.0000
omega____ theta____ kappa____ phi______ frames
    -       18.6485    0.0000  -60.0000 25
;
_diffrn_measurement_device_type  'Xcalibur, Sapphire3, Gemini ultra'
_diffrn_measurement_method       '\w scans'
_diffrn_orient_matrix_UB_11      0.0761329000
_diffrn_orient_matrix_UB_12      -0.0158060000
_diffrn_orient_matrix_UB_13      0.0466141000
_diffrn_orient_matrix_UB_21      -0.0588085000
_diffrn_orient_matrix_UB_22      0.0142421000
_diffrn_orient_matrix_UB_23      0.0453301000
_diffrn_orient_matrix_UB_31      -0.0261715000
_diffrn_orient_matrix_UB_32      -0.0780479000
_diffrn_orient_matrix_UB_33      -0.0011223000
_diffrn_radiation_monochromator  graphite
_diffrn_radiation_type           MoK\a
_diffrn_radiation_wavelength     0.71073
_diffrn_reflns_av_R_equivalents  0.0152
_diffrn_reflns_av_unetI/netI     0.0260
_diffrn_reflns_Laue_measured_fraction_full 0.952
_diffrn_reflns_Laue_measured_fraction_max 0.842
_diffrn_reflns_limit_h_max       8
_diffrn_reflns_limit_h_min       -8
_diffrn_reflns_limit_k_max       11
_diffrn_reflns_limit_k_min       -7
_diffrn_reflns_limit_l_max       12
_diffrn_reflns_limit_l_min       -13
_diffrn_reflns_number            2825
_diffrn_reflns_point_group_measured_fraction_full 0.695
_diffrn_reflns_point_group_measured_fraction_max 0.606
_diffrn_reflns_theta_full        26.000
_diffrn_reflns_theta_max         27.560
_diffrn_reflns_theta_min         3.189
_diffrn_source                   'Enhance (Mo) X-ray Source'
_exptl_absorpt_coefficient_mu    0.120
_exptl_absorpt_correction_T_max  1.00000
_exptl_absorpt_correction_T_min  0.95608
_exptl_absorpt_correction_type   multi-scan
_exptl_absorpt_process_details
;
CrysAlisPro, Agilent Technologies,
Version 1.171.36.24 (release 03-12-2012 CrysAlis171 .NET)
(compiled Dec  3 2012,18:21:49)
Empirical absorption correction using spherical harmonics,
 implemented in SCALE3 ABSPACK scaling algorithm.
;
_exptl_crystal_colour            colourless
_exptl_crystal_colour_primary    colourless
_exptl_crystal_density_diffrn    1.499
_exptl_crystal_description       block
_exptl_crystal_F_000             328
_exptl_crystal_size_max          0.6
_exptl_crystal_size_mid          0.5
_exptl_crystal_size_min          0.4
_refine_diff_density_max         0.180
_refine_diff_density_min         -0.167
_refine_diff_density_rms         0.039
_refine_ls_abs_structure_details
;
 Flack x determined using 488 quotients [(I+)-(I-)]/[(I+)+(I-)]
 (Parsons and Flack (2004), Acta Cryst. A60, s61).
;
_refine_ls_abs_structure_Flack   0.7(6)
_refine_ls_extinction_method     none
_refine_ls_goodness_of_fit_ref   1.046
_refine_ls_hydrogen_treatment    constr
_refine_ls_matrix_type           full
_refine_ls_number_parameters     203
_refine_ls_number_reflns         1929
_refine_ls_number_restraints     1
_refine_ls_restrained_S_all      1.046
_refine_ls_R_factor_all          0.0288
_refine_ls_R_factor_gt           0.0279
_refine_ls_shift/su_max          0.001
_refine_ls_shift/su_mean         0.000
_refine_ls_structure_factor_coef Fsqd
_refine_ls_weighting_details
;
 w=1/[\s^2^(Fo^2^)+(0.0417P)^2^+0.1160P]
 where P=(Fo^2^+2Fc^2^)/3
;
_refine_ls_weighting_scheme      calc
_refine_ls_wR_factor_gt          0.0697
_refine_ls_wR_factor_ref         0.0702
_reflns_Friedel_coverage         0.352
_reflns_Friedel_fraction_full    0.399
_reflns_Friedel_fraction_max     0.338
_reflns_number_gt                1866
_reflns_number_total             1929
_reflns_threshold_expression     'I > 2\s(I)'
_cod_data_source_file            ol5b02845_si_002.cif
_cod_data_source_block           zydtm
_cod_original_cell_volume        687.24(6)
_cod_database_code               1555417
_shelxl_version_number           2013-2
_shelx_space_group_comment
;
The symmetry employed for this shelxl refinement is uniquely defined
by the following loop, which should always be used as a source of
symmetry information in preference to the above space-group names.
They are only intended as comments.
;
_reflns_odcompleteness_completeness 99.53
_reflns_odcompleteness_iscentric 1
_reflns_odcompleteness_theta     24.66
_olex2_refinement_description
;
1. Fixed Uiso
 At 1.2 times of:
  All C(H) groups, All C(H,H) groups
 At 1.5 times of:
  All C(H,H,H) groups, All O(H) groups
2.a Ternary CH refined with riding coordinates:
 C6(H6), C9(H9)
2.b Secondary CH2 refined with riding coordinates:
 C13(H13A,H13B), C15(H15A,H15B), C21(H21A,H21B), C22(H22A,H22B)
2.c Idealised Me refined as rotating group:
 C16(H16A,H16B,H16C), C18(H18A,H18B,H18C)
2.d Idealised tetrahedral OH refined as rotating group:
 O1(H1), O5(H5)
;
_shelx_res_file
;
TITL zydTM in P21 #4
REM reset to P21 #4
CELL 0.71073 7.187041 8.770182 11.015025 90 98.176 90
ZERR 2 0.000354 0.000425 0.000575 0 0.0046 0
LATT -1
SYMM -X,0.5+Y,-Z
SFAC C H O
UNIT 30 36 14

L.S. 4
PLAN  20
BOND
MORE -1
BOND $H
CONF
fmap 2
acta 52
REM <olex2.extras>
REM <HklSrc "%.\\zydTM.hkl">
REM </olex2.extras>

WGHT    0.041700    0.116000
FVAR      14.77880
O1    3    1.830336    1.236150    1.554363    11.00000    0.02298    0.02127 =
         0.02549   -0.00628    0.01121   -0.00383
AFIX 147
H1    2    1.892243    1.229702    1.497521    11.00000   -1.50000
AFIX   0
O2    3    2.222836    1.367858    1.591187    11.00000    0.01774    0.03486 =
         0.02649   -0.00428    0.00900   -0.00249
O3    3    1.936182    1.573288    1.875874    11.00000    0.02068    0.03102 =
         0.01711   -0.00077   -0.00039   -0.00235
O4    3    1.957669    1.633009    1.621439    11.00000    0.02020    0.01854 =
         0.01736   -0.00395    0.00949   -0.00561
O5    3    1.843385    1.869842    1.665472    11.00000    0.03692    0.01882 =
         0.02856   -0.00056    0.01375   -0.00441
AFIX 147
H5    2    1.808902    1.873953    1.591313    11.00000   -1.50000
AFIX   0
C6    1    1.839571    1.510688    1.564115    11.00000    0.02091    0.01850 =
         0.01260   -0.00163    0.00419   -0.00378
AFIX  13
H6    2    1.850717    1.502668    1.476701    11.00000   -1.20000
AFIX   0
O7    3    2.162336    1.315667    1.778740    11.00000    0.02306    0.05142 =
         0.02221    0.00460    0.00427    0.01130
O8    3    2.087515    1.794696    1.877373    11.00000    0.03067    0.04942 =
         0.02938   -0.01365    0.00801   -0.02087
C9    1    1.510161    1.690784    1.762990    11.00000    0.01541    0.01787 =
         0.02096   -0.00063    0.00668   -0.00061
AFIX  13
H9    2    1.399833    1.630858    1.729050    11.00000   -1.20000
AFIX   0
C10   1    1.896099    1.361029    1.630523    11.00000    0.01661    0.01731 =
         0.01839   -0.00289    0.00728   -0.00175
C11   1    1.681267    1.621379    1.710831    11.00000    0.01668    0.01321 =
         0.01515   -0.00040    0.00459   -0.00068
C12   1    1.765551    1.499795    1.808805    11.00000    0.01398    0.01922 =
         0.01471    0.00093    0.00365   -0.00126
C13   1    1.642129    1.554781    1.581848    11.00000    0.01975    0.01754 =
         0.01391   -0.00004    0.00219   -0.00188
AFIX  23
H13A  2    1.559552    1.466923    1.578326    11.00000   -1.20000
H13B  2    1.589185    1.630098    1.522259    11.00000   -1.20000
AFIX   0
C14   1    1.973818    1.707114    1.827178    11.00000    0.01861    0.03134 =
         0.01930   -0.00687    0.00903   -0.00555
C15   1    1.628370    1.493948    1.903323    11.00000    0.02440    0.02392 =
         0.01771    0.00263    0.00933    0.00248
AFIX  23
H15A  2    1.530048    1.419330    1.880315    11.00000   -1.20000
H15B  2    1.693251    1.469252    1.984259    11.00000   -1.20000
AFIX   0
C16   1    1.664042    1.227455    1.752934    11.00000    0.04206    0.01599 =
         0.03703    0.00003    0.02541   -0.00414
AFIX 137
H16A  2    1.697470    1.136447    1.712688    11.00000   -1.50000
H16B  2    1.551557    1.269913    1.708215    11.00000   -1.50000
H16C  2    1.642806    1.203192    1.834835    11.00000   -1.50000
AFIX   0
C17   1    2.110460    1.350525    1.661788    11.00000    0.02014    0.02171 =
         0.02299   -0.00404    0.00432    0.00115
C18   1    1.462594    1.857206    1.734061    11.00000    0.03020    0.02217 =
         0.03423    0.00561    0.01418    0.00569
AFIX 137
H18A  2    1.456251    1.874084    1.647458    11.00000   -1.50000
H18B  2    1.558148    1.921243    1.777390    11.00000   -1.50000
H18C  2    1.343389    1.881234    1.759091    11.00000   -1.50000
AFIX   0
C19   1    1.855595    1.720590    1.702107    11.00000    0.02043    0.01738 =
         0.01675   -0.00170    0.00810   -0.00171
C20   1    1.824063    1.343632    1.757825    11.00000    0.02162    0.01692 =
         0.02044    0.00404    0.00942    0.00343
C21   1    1.547991    1.655429    1.899935    11.00000    0.02368    0.02418 =
         0.01903   -0.00083    0.00928    0.00233
AFIX  23
H21A  2    1.432946    1.658930    1.936443    11.00000   -1.20000
H21B  2    1.637878    1.726561    1.942585    11.00000   -1.20000
AFIX   0
C22   1    1.998282    1.276395    1.836896    11.00000    0.03459    0.03783 =
         0.02560    0.01119    0.01303    0.01703
AFIX  23
H22A  2    2.011074    1.318396    1.919128    11.00000   -1.20000
H22B  2    1.986462    1.166518    1.842365    11.00000   -1.20000
AFIX   0
HKLF 4

REM  zydTM in P21 #4
REM R1 =  0.0279 for    1866 Fo > 4sig(Fo)  and  0.0288 for all    1929 data
REM    203 parameters refined using      1 restraints

END

WGHT      0.0417      0.1160

REM Highest difference peak  0.180,  deepest hole -0.167,  1-sigma level  0.039
Q1    1   1.6819  1.5001  1.8487  11.00000  0.05    0.18
Q2    1   1.6492  1.5908  1.6457  11.00000  0.05    0.17
Q3    1   1.5927  1.6652  1.7299  11.00000  0.05    0.17
Q4    1   2.0002  1.3552  1.6405  11.00000  0.05    0.17
Q5    1   1.7519  1.6806  1.7082  11.00000  0.05    0.16
Q6    1   1.8556  1.3565  1.6913  11.00000  0.05    0.16
Q7    1   2.3447  1.3560  1.6206  11.00000  0.05    0.15
Q8    1   1.8669  1.4368  1.6047  11.00000  0.05    0.15
Q9    1   1.9094  1.7149  1.7679  11.00000  0.05    0.14
Q10   1   1.8023  1.4185  1.7797  11.00000  0.05    0.14
Q11   1   1.7323  1.5249  1.5607  11.00000  0.05    0.14
Q12   1   2.0263  1.8595  1.9435  11.00000  0.05    0.14
Q13   1   2.0795  1.6075  1.6615  11.00000  0.05    0.13
Q14   1   1.9133  1.5127  1.4922  11.00000  0.05    0.13
Q15   1   1.7173  1.5528  1.7524  11.00000  0.05    0.12
Q16   1   1.6813  1.7252  1.4635  11.00000  0.05    0.12
Q17   1   1.3721  1.5684  1.6204  11.00000  0.05    0.12
Q18   1   2.1286  1.4650  1.9214  11.00000  0.05    0.12
Q19   1   1.6568  1.8710  1.9726  11.00000  0.05    0.12
Q20   1   1.5147  1.6792  1.8346  11.00000  0.05    0.11
;
_shelx_res_checksum              49684
_shelx_hkl_file
;
   0  -6   0 156894. 3055.84   5
   0  -6   1 62290.8 1275.79   4
   0  -5   1 44314.3 942.342   5
   0  -4   0 115826. 2277.31   4
   0  -4   1 79330.9 1609.28   5
   0  -4   2 61014.2 1303.78   5
   0  -3   0 224.427 36.1749   4
   0  -3   1 267109. 5184.91   5
   0  -3   2 71733.4 1491.67   5
   0  -3  -2 70237.5 1546.96   2
   0  -3  -5 10513.0 265.959   1
   0  -3  -6 108050. 2181.06   1
   0  -3  -7 17514.5 476.842   1
   0  -3  -8 466.181 97.2095   1
   0  -2   1 57285.8 1168.55   5
   0  -2  -3 67506.5 1468.43   2
   0  -2  -4 60254.7 1238.10   1
   0  -2  -5 35460.0 803.649   1
   0  -2  -6 8012.62 290.864   1
   0  -2  -7 34594.3 865.372   1
   0  -2  -8 6540.32 307.332   1
   0  -2  -9 15089.1 533.832   1
   0  -1  -2 75518.9 1489.70   1
   0  -1  -3 380101. 7350.99   1
   0  -1  -4 395049. 7681.96   1
   0  -1  -5 90255.2 1905.05   1
   0  -1  -6 73399.0 1625.28   1
   0  -1  -7 62399.7 1455.80   1
   0  -1  -8 8615.44 385.756   1
   0  -1  -9 17414.5 623.315   1
   0  -1 -10 3973.17 301.266   1
   0  -1 -11 30011.7 959.728   1
   0   0  -2 709115. 13634.1   1
   0   0  -3 59875.1 1304.87   1
   0   0   3 62976.6 1312.79   1
   0   0  -4 208941. 4207.95   1
   0   0   4 212524. 4212.66   1
   0   0  -5 4098.00 232.171   1
   0   0  -6 136844. 2885.86   1
   0   0  -7 18405.6 611.350   1
   0   0  -8 10944.7 471.589   1
   0   0  -9 34673.5 1028.54   1
   0   0 -10 162.780 160.093   1
   0   0 -11 576.421 201.692   1
   0   0 -12 258.196 174.070   1
   0   1  -2 75474.9 1573.67   5
   0   1   2 77013.4 1502.40   1
   0   1   2 75431.3 1568.44   2
   0   1  -2 75385.0 1588.90   1
   0   1   3 369668. 7318.62   2
   0   1  -3 371038. 7334.79   1
   0   1  -3 378631. 7332.25   5
   0   1   3 369332. 7242.50   1
   0   1   4 378920. 7510.86   1
   0   1  -4 386178. 7604.81   1
   0   1   4 396975. 7600.10   2
   0   1  -5 89090.7 1992.22   1
   0   1   5 90959.0 1908.78   1
   0   1  -6 70686.7 1660.10   1
   0   1  -7 61142.3 1517.40   1
   0   1  -8 8896.71 446.755   1
   0   1  -9 17127.3 679.700   1
   0   1 -10 3915.27 338.979   1
   0   1 -11 29976.3 1042.01   1
   0   1 -12 6682.19 480.186   1
   0   1 -13 345.474 200.508   1
   0   2   0 569049. 10958.2   1
   0   2   1 57577.4 1207.40   2
   0   2  -1 57423.8 1221.36   1
   0   2   1 56206.3 1129.16   1
   0   2  -2 392831. 7475.26   5
   0   2  -2 383276. 7531.18   1
   0   2   2 392993. 7500.06   2
   0   2   3 65457.7 1464.06   2
   0   2  -3 70491.5 1474.32   5
   0   2  -3 66121.6 1507.09   1
   0   2   4 60255.6 1386.55   2
   0   2  -4 61437.9 1256.27   3
   0   2  -4 61289.5 1434.53   1
   0   2   5 35716.1 951.342   2
   0   2  -5 36164.3 973.857   1
   0   2  -6 8959.25 419.822   1
   0   2   6 7709.50 380.288   2
   0   2  -7 34343.9 1016.09   1
   0   2  -8 6474.35 396.325   1
   0   2  -9 13273.7 618.610   1
   0   2 -10 31752.5 1079.31   1
   0   2 -11 8906.03 551.525   1
   0   2 -12 11767.3 659.618   1
   0   2 -13 22099.3 966.114   1
   0   3   0 351.476 74.6092   1
   0   3   1 263389. 5251.74   2
   0   3   1 264826. 5146.74   4
   0   3  -1 268720. 5255.50   1
   0   3   1 266190. 5158.93   1
   0   3  -2 69533.0 1557.08   1
   0   3   2 70048.7 1528.54   2
   0   3  -3 48463.5 1085.90   5
   0   3   3 46016.9 1113.90   2
   0   3  -3 47165.7 1163.08   1
   0   3   4 18647.9 577.333   2
   0   3  -4 18907.8 624.986   1
   0   3  -5 10691.3 468.658   1
   0   3   5 11516.8 446.585   2
   0   3  -5 11155.5 331.075   3
   0   3  -6 112841. 2273.24   3
   0   3   6 109754. 2475.13   2
   0   3  -6 108285. 2522.46   1
   0   3   7 16911.9 637.298   2
   0   3  -7 17377.6 681.034   1
   0   3  -8 485.152 192.309   1
   0   3   8 518.585 172.388   2
   0   3  -9 9921.18 551.639   1
   0   3 -10 8808.28 539.109   1
   0   3 -11 5346.01 458.617   1
   0   3 -12 25568.2 1044.37   1
   0   4   0 118837. 2453.92   1
   0   4   1 79885.8 1789.60   2
   0   4  -1 78084.0 1776.53   1
   0   4   2 62017.6 1400.92   2
   0   4   2 59790.4 1235.26   1
   0   4  -2 60690.2 1422.93   1
   0   4   2 60846.5 1286.93   4
   0   4   3 378368. 7431.92   2
   0   4  -3 370191. 7487.49   1
   0   4  -4 91076.3 2123.29   1
   0   4   4 94271.2 2074.28   2
   0   4  -5 280.379 149.569   1
   0   4   5 145.799 132.199   2
   0   4   6 750.691 166.718   2
   0   4  -6 936.627 106.427   3
   0   4  -6 860.690 198.671   1
   0   4  -7 24525.6 884.557   1
   0   4   7 25265.9 836.973   2
   0   4  -8 69820.3 1858.03   1
   0   4   8 69569.9 1792.41   2
   0   4  -9 15867.9 740.334   1
   0   4   9 15749.3 695.953   2
   0   4 -10 1266.96 284.214   1
   0   4 -11 17123.9 833.881   1
   0   4 -12 1424.52 325.828   1
   0   5   0 163.913 99.3751   1
   0   5   1 43729.1 1012.81   1
   0   5   1 44843.4 1126.65   2
   0   5  -1 43979.6 1098.35   1
   0   5   2 17549.2 588.790   2
   0   5  -2 17791.7 603.194   1
   0   5   2 17836.3 450.039   1
   0   5   3 68054.3 1498.04   4
   0   5   3 70250.2 1633.10   2
   0   5  -3 68930.8 1669.40   1
   0   5   4 12599.9 442.500   4
   0   5  -4 12688.1 543.302   1
   0   5   4 13490.4 513.701   2
   0   5  -5 10577.5 512.954   1
   0   5   5 10980.7 476.295   2
   0   5  -6 21868.7 814.433   1
   0   5   6 21447.8 747.005   2
   0   5   7 27826.8 909.576   2
   0   5  -7 26851.8 973.938   1
   0   5  -8 10186.3 583.395   1
   0   5   8 10626.7 542.768   2
   0   5   9 15662.5 704.653   2
   0   5  -9 15716.1 755.007   1
   0   5  10 20503.8 854.068   2
   0   5 -10 19392.0 886.782   1
   0   5 -11 8666.58 615.535   1
   0   6   0 167338. 3470.64   1
   0   6   1 62838.3 1421.59   1
   0   6  -1 63395.5 1517.70   1
   0   6   1 64502.4 1567.33   2
   0   6   2 27630.2 665.249   1
   0   6   2 26740.3 827.869   2
   0   6  -2 25652.6 818.310   1
   0   6  -3 11964.2 525.166   1
   0   6   3 12671.5 518.200   2
   0   6   3 11916.1 303.906   1
   0   6   3 12452.5 385.459   4
   0   6   4 2674.88 187.721   4
   0   6   4 2535.88 245.116   2
   0   6  -4 1901.35 247.339   1
   0   6  -5 14151.5 634.852   1
   0   6   5 13831.6 580.900   2
   0   6   5 14888.0 519.112   4
   0   6   6 6976.84 363.906   4
   0   6  -6 6427.58 443.783   1
   0   6   6 6921.29 410.988   2
   0   6   7 28974.4 968.646   2
   0   6  -7 29855.8 1063.52   1
   0   6  -8 8932.98 573.727   1
   0   6   8 8746.23 508.535   2
   0   6  -9 7183.41 526.537   1
   0   6   9 6820.32 463.441   2
   0   6  10 11247.6 626.400   2
   0   6 -10 11236.8 684.914   1
   0   7   0 31.8826 111.008   1
   0   7   0 311.108 166.112   2
   0   7  -1 9352.80 430.006   1
   0   7   1 8981.75 463.904   2
   0   7   1 9243.50 365.311   1
   0   7   2 13613.2 423.962   1
   0   7   2 13538.5 577.737   2
   0   7  -2 13898.3 569.037   1
   0   7   3 61279.4 1566.66   2
   0   7  -3 58317.6 1570.14   1
   0   7   4 33715.3 1042.37   2
   0   7  -4 34448.5 1093.69   1
   0   7  -5 11113.6 584.142   1
   0   7   5 12091.9 559.719   2
   0   7  -6 11535.6 623.815   1
   0   7   6 11514.2 566.703   2
   0   7  -7 17725.1 810.287   1
   0   7   7 18009.2 747.499   2
   0   7  -8 13324.2 726.510   1
   0   7   8 14075.9 669.922   2
   0   7  -9 520.029 250.614   1
   0   8   0 103238. 2319.52   1
   0   8   0 102271. 2469.06   2
   0   8   1 50666.3 1415.68   2
   0   8  -1 48859.1 1323.21   1
   0   8  -2 29083.2 948.703   1
   0   8   2 29521.3 977.944   2
   0   8   3 33386.9 1059.85   2
   0   8  -3 31790.9 1049.78   1
   0   8  -4 14835.5 684.416   1
   0   8   4 14982.4 662.088   2
   0   8   5 494.313 191.675   2
   0   8  -5 569.931 232.731   1
   0   8   6 231.989 178.234   2
   0   8  -6 267.793 206.049   1
   0   8  -7 1571.16 313.423   1
   0   8  -8 5352.63 512.353   1
   0   9   0 24.4985 179.295   2
   0   9   1 1722.00 256.994   2
   0   9  -1 1655.95 272.814   2
   0   9  -2 4346.33 351.374   1
   0   9   2 4440.02 385.924   2
   0   9   3 2386.51 301.473   2
   0   9  -3 2050.00 275.423   1
   0   9   4 6168.60 446.239   2
   0   9  -4 6236.30 456.736   1
   0   9  -5 4013.92 406.799   1
   0   9  -6 139.931 218.539   1
   0   9  -7 14046.4 775.057   1
   0  10   0 4962.63 444.303   2
   0  10   1 17250.8 797.440   2
   0  10  -1 17613.1 803.057   2
   0  10   2 2394.64 333.619   2
   0  10  -4 17138.6 809.493   1
   0  10  -5 234.212 239.444   1
   0  11  -1 8773.14 618.195   2
   0  11  -2 15312.4 793.373   2
   1  -7   1 15928.3 480.254   5
   1  -7   2 94578.7 2049.98   5
   1  -7   3 6345.90 311.330   5
   1  -6   0 1759.67 131.570   4
   1  -6   2 14262.1 467.096   5
   1  -6   3 17914.7 575.262   5
   1  -5  -1 15662.2 450.737   4
   1  -5  -1 15577.7 465.331   1
   1  -5   0 73012.7 1565.96   4
   1  -5   2 19513.4 567.978   5
   1  -5   3 66466.9 1541.50   5
  -1  -5  -3 67190.1 1444.43   5
   1  -4  -2 37535.3 818.125   1
   1  -4  -1 76350.0 1624.09   4
   1  -4  -1 76689.4 1613.61   1
   1  -4   0 171357. 3475.82   1
  -1  -4  -2 3964.36 159.654   5
  -1  -4  -3 270355. 5339.94   5
  -1  -4  -3 272289. 5376.99   2
   1  -4   3 266630. 5421.95   5
   1  -3  -8 17111.2 492.414   1
   1  -3  -7 22038.9 558.740   1
   1  -3  -6 54650.0 1150.65   1
   1  -3  -5 34405.1 726.050   1
   1  -3  -2 31970.7 684.850   1
   1  -3  -1 70391.2 1441.05   1
  -1  -3   1 68537.7 1370.24   4
   1  -3  -1 70203.2 1470.88   4
   1  -3   0 476347. 9259.35   1
   1  -3   1 319319. 6305.80   1
  -1  -3  -2 186243. 3721.99   2
  -1  -3  -2 188807. 3711.06   5
   1  -3   3 18742.0 576.071   5
  -1  -3  -3 19324.4 521.560   2
  -1  -3  -3 20118.1 540.102   5
   1  -3   4 65554.1 1549.51   5
  -1  -3  -4 66497.2 1472.75   2
  -1  -3  -6 66570.4 1446.77   1
  -1  -3  -7 21567.4 602.199   1
  -1  -3  -8 62138.6 1434.27   1
   1  -2  -9 85104.0 1920.07   1
   1  -2  -8 39043.4 983.139   1
   1  -2  -7 16968.9 505.380   1
   1  -2  -6 9456.91 321.461   1
   1  -2  -5 73159.6 1529.11   1
   1  -2  -2 77457.6 1545.02   1
   1  -2  -1 187083. 3596.06   1
  -1  -2   1 182057. 3570.71   4
   1  -2  -1 181320. 3637.38   4
  -1  -2  -2 95965.8 1917.45   2
  -1  -2  -2 93964.9 1951.11   5
  -1  -2  -3 68666.7 1491.46   5
  -1  -2  -3 67580.9 1441.79   2
  -1  -2  -4 133864. 2745.58   2
  -1  -2  -4 133171. 2697.68   1
  -1  -2  -5 7293.64 278.597   1
  -1  -2  -6 56699.8 1298.34   1
  -1  -2  -7 49972.7 1204.04   1
  -1  -2  -8 23212.6 702.356   1
  -1  -2  -9 19174.0 648.164   1
   1  -1 -11 50095.1 1367.78   1
   1  -1 -10 44170.8 1209.13   1
   1  -1  -9 21535.2 707.239   1
   1  -1  -8 58312.0 1401.37   1
  -1  -1   8 57502.5 1224.03   3
  -1  -1   7 26998.9 633.774   3
   1  -1  -7 25379.6 737.588   1
   1  -1  -6 109677. 2265.99   1
  -1  -1   6 104681. 2182.19   3
  -1  -1   5 173441. 3490.31   3
   1  -1  -5 176574. 3528.71   1
  -1  -1   4 99857.1 2052.53   3
  -1  -1   3 53353.2 1149.46   3
  -1  -1   2 97939.7 1990.36   3
  -1  -1   1 31012.2 705.753   3
   1  -1  -1 31194.8 705.080   4
  -1  -1   0 353097. 6859.92   3
  -1  -1  -2 25208.3 562.322   2
  -1  -1  -2 24782.8 586.615   1
  -1  -1  -3 310244. 6101.68   1
  -1  -1  -3 309004. 6098.21   2
  -1  -1  -3 314442. 6161.09   5
  -1  -1  -4 28509.2 696.745   1
  -1  -1  -4 26578.5 701.117   2
  -1  -1  -5 131728. 2737.67   1
  -1  -1  -6 269.075 117.514   1
  -1  -1  -7 3417.85 237.961   1
  -1  -1  -8 2384.30 230.535   1
  -1  -1  -9 13247.4 541.525   1
  -1  -1 -10 23319.2 804.891   1
  -1  -1 -11 10790.2 533.520   1
   1   0 -12 356.387 189.177   1
   1   0 -11 4323.84 349.567   1
   1   0 -10 19158.6 720.386   1
   1   0  -9 667.977 165.025   1
   1   0  -8 233.084 136.006   1
   1   0  -7 15425.7 547.998   1
   1   0  -6 43122.3 1080.75   1
   1   0  -5 134098. 2796.18   1
  -1   0   4 452509. 8889.01   2
  -1   0   3 6309.13 267.015   2
  -1   0   2 60606.6 1289.87   2
   1   0  -1 321672. 6240.54   4
  -1   0  -1 999999. 19203.3   1
  -1   0  -2 52064.6 1057.63   3
  -1   0  -2 50275.4 1116.16   1
  -1   0  -3 73142.7 1545.87   1
   1   0   3 69185.7 1539.42   1
  -1   0  -3 73279.9 1575.09   5
   1   0   4 453253. 8654.38   3
  -1   0  -4 446906. 8773.27   1
  -1   0  -5 2811.97 206.420   1
  -1   0  -6 365138. 7286.56   1
  -1   0  -7 6450.02 350.963   1
  -1   0  -8 1121.71 192.117   1
  -1   0  -9 5405.23 362.241   1
  -1   0 -10 1514.88 238.847   1
  -1   0 -11 186.024 165.064   1
  -1   0 -12 54671.1 1588.01   1
   1   1 -13 1758.13 308.729   1
   1   1 -12 2692.47 339.141   1
   1   1 -11 50962.1 1476.57   1
   1   1 -10 38572.3 1180.69   1
   1   1  -9 20973.3 760.501   1
   1   1  -8 54510.3 1430.72   1
   1   1  -7 26643.9 822.970   1
  -1   1   6 104486. 2382.38   2
   1   1  -6 108774. 2358.96   1
  -1   1   5 169201. 3568.21   2
   1   1  -5 172236. 3546.97   1
  -1   1   4 98130.0 2123.33   2
  -1   1   3 50741.8 1162.50   2
  -1   1   2 96715.0 2004.58   2
   1   1  -1 31098.2 668.835   4
  -1   1   1 30549.5 708.310   2
  -1   1   0 355827. 6893.34   1
  -1   1  -1 272814. 5342.63   1
   1   1   2 25444.6 592.360   1
  -1   1  -2 24869.5 640.168   1
   1   1   3 322472. 6176.28   1
  -1   1  -3 305589. 6243.53   1
   1   1   4 27464.6 695.569   1
  -1   1  -4 28189.8 762.030   1
  -1   1  -5 131335. 2810.55   1
  -1   1  -6 90.0691 129.321   1
   1   1   7 4192.85 184.406   3
  -1   1  -7 4265.98 307.754   1
  -1   1  -8 2011.42 238.364   1
  -1   1  -9 14416.3 629.678   1
  -1   1 -10 22799.1 860.278   1
  -1   1 -11 10289.5 574.584   1
  -1   1 -12 3062.38 352.326   1
  -1   1 -13 13461.5 714.942   1
   1   2 -13 2195.16 333.589   1
   1   2 -12 9710.96 583.043   1
   1   2 -11 18858.6 804.700   1
   1   2 -10 5693.89 426.367   1
   1   2  -9 83658.4 2091.61   1
   1   2  -8 37892.3 1126.09   1
  -1   2   8 37331.5 1138.15   2
   1   2  -7 15366.9 603.082   1
  -1   2   7 15645.1 617.783   2
  -1   2   6 10087.4 449.228   2
   1   2  -6 9433.86 437.427   1
  -1   2   5 68348.1 1641.25   2
   1   2  -5 72260.1 1660.17   1
   1   2  -4 54778.7 1294.77   3
  -1   2   4 58629.7 1356.90   2
   1   2  -4 58382.4 1359.64   1
  -1   2   3 144025. 3081.87   2
  -1   2   3 146090. 3060.54   4
  -1   2   2 75828.6 1630.78   2
  -1   2   2 74069.6 1589.57   4
  -1   2   1 185614. 3601.14   1
  -1   2   1 180287. 3691.57   2
  -1   2   0 299218. 5840.71   1
  -1   2  -1 167163. 3397.15   1
   1   2   1 170235. 3302.75   2
   1   2   1 169232. 3318.87   5
  -1   2  -2 98002.8 2057.70   1
   1   2   2 97898.7 1948.22   2
   1   2   2 95009.1 1953.70   1
   1   2   3 67282.2 1394.17   1
  -1   2  -3 66897.3 1519.12   1
   1   2   3 65572.2 1415.80   2
   1   2   4 136688. 2707.16   1
   1   2   4 132102. 2751.79   2
  -1   2  -4 130190. 2842.83   1
  -1   2  -5 8905.93 403.664   1
   1   2   5 7595.29 286.993   1
  -1   2  -6 54067.9 1397.37   1
  -1   2  -7 49078.2 1337.39   1
  -1   2  -8 22057.5 804.786   1
  -1   2  -9 18741.3 761.766   1
  -1   2 -10 14216.5 689.634   1
  -1   2 -11 4558.17 418.027   1
  -1   2 -12 11427.2 664.360   1
  -1   2 -13 2469.67 382.766   1
   1   3 -13 6088.58 527.972   1
   1   3 -12 11396.7 671.534   1
   1   3 -11 2300.77 320.921   1
   1   3 -10 20902.3 861.128   1
   1   3  -9 36742.0 1180.74   1
  -1   3   9 37141.1 1184.94   2
  -1   3   8 17437.7 707.612   2
   1   3  -8 17622.0 718.360   1
  -1   3   7 22785.5 790.954   2
   1   3  -7 22066.1 793.007   1
  -1   3   6 55537.6 1404.73   2
   1   3  -6 52622.8 1409.87   1
  -1   3   5 34634.2 984.841   2
   1   3  -5 34493.6 1002.14   1
   1   3  -5 37489.1 902.424   3
   1   3  -4 23825.6 738.464   1
   1   3  -4 25244.0 654.405   3
  -1   3   4 23457.7 687.902   4
  -1   3   4 23934.8 724.681   2
   1   3  -3 108651. 2233.24   3
  -1   3   3 103157. 2232.34   4
  -1   3   3 105529. 2293.43   2
  -1   3   2 32219.4 778.161   4
  -1   3   2 31586.8 836.219   2
  -1   3   1 69791.0 1446.64   1
  -1   3   1 69333.6 1558.00   2
  -1   3   0 475146. 9237.55   1
   1   3   1 304834. 5988.18   2
  -1   3  -1 310110. 6070.52   1
  -1   3  -2 193113. 3889.05   1
   1   3   2 188661. 3773.88   2
   1   3   3 18753.7 458.747   1
  -1   3  -3 18641.1 602.318   1
   1   3   3 18411.0 506.524   2
   1   3   4 65116.2 1367.11   1
  -1   3  -4 66465.4 1574.42   1
   1   3   4 64839.2 1455.73   2
   1   3   5 92121.2 1909.57   1
  -1   3  -5 92906.5 2140.98   1
   1   3   5 92050.7 2026.02   2
  -1   3  -6 64267.5 1634.16   1
   1   3   6 64040.4 1402.74   1
   1   3   6 63876.6 1529.76   2
  -1   3  -7 22139.6 806.617   1
  -1   3  -8 63389.5 1704.21   1
  -1   3  -9 39128.5 1249.42   1
  -1   3 -10 22522.6 915.016   1
  -1   3 -11 1972.68 320.822   1
  -1   3 -12 10851.4 662.239   1
   1   4 -12 4491.85 458.642   1
   1   4 -11 16305.1 810.566   1
   1   4 -10 8173.62 545.144   1
  -1   4  10 7251.18 502.126   2
   1   4  -9 69678.5 1896.52   1
  -1   4   9 69754.7 1881.92   2
  -1   4   8 71300.6 1856.62   2
   1   4  -8 70405.2 1877.72   1
  -1   4   7 76809.7 1916.86   2
   1   4  -7 76856.6 1957.64   1
   1   4  -6 9197.93 477.909   1
  -1   4   6 9781.31 472.158   2
  -1   4   5 31077.3 916.033   2
  -1   4   5 29265.2 855.655   4
   1   4  -5 29597.2 923.143   1
  -1   4   4 22072.2 669.118   4
  -1   4   4 24760.4 750.374   2
   1   4  -4 22921.9 744.267   1
  -1   4   3 24781.8 751.563   2
   1   4  -3 24345.3 751.822   1
   1   4  -3 24728.0 621.381   5
  -1   4   3 25190.2 680.642   4
   1   4  -2 38782.4 1009.26   1
  -1   4   2 39290.1 850.481   1
  -1   4   2 38821.6 1023.30   2
   1   4  -2 39381.4 843.628   5
  -1   4   1 74451.4 1708.19   2
  -1   4   1 74286.8 1570.49   1
  -1   4   0 174087. 3528.92   1
  -1   4  -1 209123. 4198.89   1
   1   4   1 204815. 4137.98   2
  -1   4  -2 4468.31 273.632   1
   1   4   2 3710.84 197.854   2
   1   4   3 270366. 5329.23   2
  -1   4  -3 264653. 5456.76   1
   1   4   3 266863. 5221.18   1
  -1   4  -4 289616. 5892.34   1
   1   4   4 293477. 5752.22   2
   1   4   4 284945. 5597.39   1
   1   4   5 120655. 2565.41   2
   1   4   5 118700. 2383.94   1
  -1   4  -5 118799. 2712.29   1
  -1   4  -6 2787.43 295.062   1
   1   4   6 2570.62 225.410   2
   1   4   7 27317.5 849.533   2
  -1   4  -7 26550.0 940.402   1
  -1   4  -8 47925.3 1433.67   1
  -1   4  -9 38995.0 1288.32   1
  -1   4 -10 2479.25 329.184   1
  -1   4 -11 10821.5 661.159   1
   1   5 -11 10330.3 653.602   1
  -1   5  11 11665.4 678.947   2
  -1   5  10 12329.6 679.299   2
   1   5 -10 13020.3 711.271   1
  -1   5   9 27298.8 1011.96   2
   1   5  -9 26718.7 1026.82   1
   1   5  -8 50159.4 1506.51   1
  -1   5   8 50071.1 1454.38   2
   1   5  -7 63811.9 1734.82   1
  -1   5   7 62569.4 1678.89   2
  -1   5   7 63350.7 1633.05   4
   1   5  -6 7096.20 440.919   1
  -1   5   6 6854.10 377.331   4
  -1   5   6 6700.05 413.619   2
  -1   5   5 4185.95 274.931   4
  -1   5   5 4279.92 321.833   2
   1   5  -5 4205.90 336.068   1
  -1   5   4 15262.6 593.850   2
  -1   5   4 14958.2 516.713   4
   1   5  -4 15587.7 610.358   1
  -1   5   3 38721.4 1080.33   2
  -1   5   3 39331.4 967.837   4
   1   5  -3 38254.2 1075.04   1
   1   5  -2 59216.6 1465.82   1
  -1   5   2 60125.0 1500.48   2
  -1   5   2 61202.0 1291.85   1
  -1   5   1 14982.9 450.605   1
   1   5  -1 15310.4 528.418   1
  -1   5   1 15394.9 568.013   2
   1   5   0 72770.5 1603.63   1
  -1   5   0 69228.8 1587.58   1
  -1   5  -1 139854. 2994.68   1
   1   5   1 143265. 2963.52   2
   1   5   2 18520.3 455.415   4
  -1   5  -2 19413.6 644.366   1
   1   5   2 21006.9 594.254   2
   1   5   3 67165.0 1534.43   2
  -1   5  -3 66191.8 1638.00   1
   1   5   4 70827.1 1603.07   2
  -1   5  -4 69403.4 1730.33   1
   1   5   4 68244.5 1403.42   1
   1   5   5 3245.26 239.124   2
  -1   5  -5 2943.17 295.468   1
   1   5   6 18436.7 642.761   2
  -1   5  -6 17922.5 740.052   1
  -1   5  -7 63886.3 1777.21   1
   1   5   7 66386.5 1649.48   2
  -1   5  -8 694.588 217.506   1
   1   5   8 1134.53 207.712   2
  -1   5  -9 5454.33 465.066   1
  -1   5 -10 307.149 221.135   1
  -1   6  12 5579.82 520.876   4
  -1   6  12 5620.23 498.327   2
  -1   6  11 3608.84 406.120   4
  -1   6  11 2513.30 384.635   2
  -1   6  10 27045.3 1034.49   4
  -1   6  10 27758.8 1087.27   2
   1   6 -10 27784.7 1121.25   1
  -1   6   9 10006.9 557.076   4
  -1   6   9 9877.60 592.606   2
   1   6  -9 8801.91 598.778   1
   1   6  -8 47177.8 1514.61   1
  -1   6   8 49134.5 1479.33   2
   1   6  -7 7289.59 495.212   1
  -1   6   7 7740.13 477.778   2
  -1   6   7 7192.53 422.353   4
   1   6  -6 25000.8 931.132   1
  -1   6   6 24621.5 885.364   2
  -1   6   6 25472.6 813.772   4
  -1   6   5 22910.9 726.880   4
   1   6  -5 23332.4 851.667   1
  -1   6   5 22371.9 813.070   2
  -1   6   4 7826.13 432.248   2
   1   6  -4 7663.87 445.033   1
  -1   6   4 7587.15 346.241   4
  -1   6   3 18092.6 435.135   1
  -1   6   3 18287.9 688.918   2
   1   6  -3 19577.8 697.818   1
  -1   6   2 3281.18 287.382   2
  -1   6   2 3896.31 188.656   1
   1   6  -2 3894.12 289.256   1
  -1   6   1 43003.9 1031.03   1
   1   6  -1 42257.2 1120.62   1
  -1   6   1 42319.6 1192.73   2
   1   6   0 2294.72 190.784   1
  -1   6   0 1957.52 185.076   1
   1   6   1 52054.0 1307.74   2
  -1   6  -1 53242.8 1329.19   1
   1   6   1 53893.2 1254.13   1
   1   6   2 14902.5 531.016   2
  -1   6  -2 13949.7 564.858   1
   1   6   2 15361.7 458.928   1
   1   6   3 17240.6 469.016   1
  -1   6  -3 18795.1 688.881   1
   1   6   3 18193.7 475.129   4
   1   6   3 18148.2 604.360   2
   1   6   4 247.972 127.336   2
  -1   6  -4 54.9212 150.555   1
   1   6   5 46601.7 1212.85   2
  -1   6  -5 43993.5 1330.44   1
   1   6   6 18379.3 658.846   2
  -1   6  -6 17232.6 755.605   1
  -1   6  -7 1263.24 279.745   1
   1   6   7 1292.63 203.052   2
  -1   6  -8 3047.42 377.735   1
  -1   6  -9 130.565 218.288   1
  -1   6 -10 2243.64 369.706   1
  -1   7  11 20802.1 979.090   2
  -1   7  10 2087.44 348.309   2
   1   7  -9 13773.1 761.769   1
  -1   7   9 13869.0 716.714   2
  -1   7   8 9128.77 565.891   2
   1   7  -8 8247.96 568.876   1
   1   7  -7 10395.1 606.372   1
  -1   7   7 10714.2 593.202   2
  -1   7   6 44746.2 1354.25   2
   1   7  -6 44630.9 1396.98   1
  -1   7   5 10547.8 555.882   2
   1   7  -5 10853.5 585.093   1
  -1   7   4 42179.4 1241.37   2
   1   7  -4 39139.8 1225.36   1
  -1   7   3 49835.9 1403.93   2
   1   7  -3 49487.0 1383.90   1
   1   7  -2 49521.5 1345.93   1
  -1   7   2 50818.3 1408.53   2
  -1   7   1 2280.16 279.181   2
   1   7  -1 2528.42 237.987   1
  -1   7   1 2814.16 198.263   1
   1   7   0 5159.14 326.939   2
  -1   7   0 4305.77 279.014   1
  -1   7   0 5049.14 375.588   2
   1   7   0 4927.14 289.164   1
   1   7   1 17218.2 616.980   2
   1   7   1 16061.7 540.812   1
  -1   7  -1 16301.5 607.456   1
   1   7   2 94982.1 2022.13   1
  -1   7  -2 91256.0 2199.96   1
   1   7   2 93736.6 2160.70   2
   1   7   3 6299.01 356.959   2
  -1   7  -3 5874.46 397.678   1
   1   7   4 5519.18 341.959   2
  -1   7  -4 4956.80 388.741   1
   1   7   5 16756.1 638.550   2
  -1   7  -5 16796.4 747.843   1
   1   7   6 16611.5 648.944   2
  -1   7  -6 15434.8 738.977   1
  -1   7  -7 21201.6 913.583   1
  -1   7  -8 1329.65 320.446   1
  -1   7  -9 7147.29 560.001   1
  -1   8   9 10532.6 657.981   2
   1   8  -8 16146.4 845.185   1
  -1   8   8 16271.2 789.917   2
  -1   8   7 3571.68 358.390   2
   1   8  -7 3589.04 395.861   1
   1   8  -6 155.912 186.413   1
  -1   8   6 233.566 208.259   2
   1   8  -5 21339.7 879.924   1
  -1   8   5 22382.6 887.682   2
   1   8  -4 1023.43 250.806   1
  -1   8   4 1059.42 249.246   2
   1   8  -3 4733.36 377.596   1
  -1   8   3 4521.64 374.790   2
  -1   8   2 2111.16 269.417   2
   1   8  -2 2153.44 263.407   1
  -1   8   1 7100.11 473.137   2
   1   8  -1 7624.44 416.128   1
   1   8   0 10164.7 450.679   1
  -1   8   0 8841.64 517.291   2
  -1   8   0 8820.98 423.903   1
   1   8   0 8825.26 470.720   2
   1   8   1 125538. 2807.71   2
  -1   8  -1 120396. 2766.63   1
   1   8   2 3971.99 308.682   2
  -1   8  -2 3677.11 326.519   1
   1   8   3 27278.4 896.532   2
  -1   8  -3 27992.0 964.682   1
  -1   8  -4 7456.23 487.197   1
  -1   8  -5 21801.0 895.605   1
  -1   8  -6 6226.58 492.965   1
  -1   8  -7 18943.8 885.102   1
  -1   8  -8 3606.34 409.562   1
   1   9  -7 2185.41 343.004   1
  -1   9   7 1702.43 314.728   2
   1   9  -6 3732.48 411.564   1
  -1   9   6 4714.20 445.553   2
  -1   9   5 5430.52 455.137   2
   1   9  -5 5230.76 447.263   1
  -1   9   4 6632.33 466.514   2
   1   9  -4 6348.92 468.930   1
   1   9  -3 10417.3 565.145   1
  -1   9   3 10790.6 608.109   2
   1   9  -2 8262.86 473.383   1
  -1   9   2 7156.45 508.730   2
   1   9  -1 714.384 206.798   2
  -1   9   1 192.361 219.259   2
  -1   9   0 615.057 226.300   2
   1   9   0 449.385 180.456   2
   1   9   1 16365.8 687.144   2
  -1   9  -1 15332.3 750.665   2
  -1   9  -2 3256.72 314.649   1
  -1   9  -3 1750.57 273.254   1
  -1   9  -4 13760.2 688.369   1
  -1   9  -5 2765.24 371.207   1
  -1   9  -6 24307.0 1029.95   1
  -1  10   5 23861.7 1012.71   2
   1  10  -5 22613.9 981.039   1
  -1  10   4 414.350 206.835   2
   1  10  -4 471.382 236.902   1
  -1  10   3 6838.40 513.177   2
  -1  10   2 3650.68 400.934   2
  -1  10   1 2238.31 323.218   2
  -1  10   0 1312.24 298.283   2
  -1  10  -1 12071.5 700.018   2
  -1  10  -2 3989.35 405.106   2
  -1  10  -4 4379.59 432.130   1
  -1  10  -5 4111.16 428.002   1
  -1  11   2 299.980 271.688   2
  -1  11   1 18799.2 923.000   2
  -1  11   0 8955.45 645.826   2
   2  -7   4 55487.4 1454.87   5
   2  -7   5 27900.7 921.486   5
   2  -7   6 1097.40 205.573   5
  -2  -6   5 12260.1 437.848   4
  -2  -6   4 80422.4 1722.07   4
   2  -6   4 9446.76 456.423   5
   2  -6   5 19506.7 726.691   5
   2  -6   6 49083.3 1395.19   5
   2  -5  -4 7452.52 230.058   1
  -2  -5   4 8323.89 313.182   4
  -2  -5   3 27260.5 642.705   4
   2  -5  -3 25141.6 634.855   1
   2  -5  -2 30679.3 769.363   1
   2  -5   4 14889.3 577.222   5
   2  -5   5 24789.5 839.567   5
   2  -5   6 14979.7 645.442   5
   2  -4  -6 20317.8 482.929   1
   2  -4  -5 46184.6 979.148   1
  -2  -4   4 25813.4 684.345   4
   2  -4  -4 24367.5 580.984   1
   2  -4  -3 1135.74 97.0231   1
  -2  -4   3 1067.44 110.400   4
   2  -4  -2 63159.5 1378.91   1
   2  -4  -1 19050.3 544.483   1
  -2  -4  -4 64959.2 1425.96   2
   2  -4   5 36634.5 1072.50   5
   2  -4   6 44523.7 1278.95   5
   2  -4   7 45919.5 1352.80   5
   2  -3  -8 81236.3 1769.88   1
   2  -3  -7 25668.9 662.065   1
   2  -3  -4 97526.1 1995.21   1
  -2  -3   3 83713.0 1783.15   4
   2  -3  -3 83383.8 1737.40   1
   2  -3  -2 54148.0 1179.82   1
  -2  -3   2 53069.2 1163.71   4
   2  -3  -1 2640.23 162.511   1
  -2  -3  -3 8925.97 269.887   2
  -2  -3  -4 87207.8 1834.03   2
   2  -3   5 58114.9 1496.61   5
   2  -3   6 7838.76 442.116   5
   2  -3   7 16318.9 688.863   5
  -2  -3  -8 16678.8 571.812   1
   2  -2  -9 51680.3 1288.52   1
   2  -2  -8 10352.3 407.904   1
  -2  -2   8 10459.6 381.283   3
   2  -2  -7 30386.4 804.137   1
  -2  -2   7 30384.6 800.760   3
  -2  -2   6 20586.2 600.472   3
  -2  -2   5 59209.2 1363.10   3
  -2  -2   4 165411. 3401.29   3
  -2  -2   3 15230.8 461.884   4
  -2  -2   3 15090.6 484.947   3
   2  -2  -2 296492. 5726.35   1
  -2  -2   2 290892. 5733.74   4
  -2  -2   2 284843. 5798.17   3
   2  -2  -1 25019.0 615.931   1
  -2  -2   1 22254.3 649.650   3
  -2  -2  -2 54014.7 1084.93   2
  -2  -2  -3 130754. 2609.56   2
  -2  -2  -4 16928.2 471.077   2
  -2  -2  -5 79744.9 1774.88   1
  -2  -2  -6 31248.7 848.054   1
   2  -2   6 29925.3 958.445   5
  -2  -2  -7 19385.6 641.737   1
   2  -2   7 20526.9 773.122   5
  -2  -2  -8 25180.4 788.667   1
  -2  -2  -9 2740.47 251.834   1
   2  -1 -11 8431.29 448.392   1
   2  -1 -10 7542.70 403.318   1
   2  -1  -9 49150.6 1304.83   1
  -2  -1   9 52076.0 1217.97   3
   2  -1  -8 52955.0 1323.36   1
  -2  -1   8 52906.4 1284.24   3
   2  -1  -7 44373.9 1141.52   1
  -2  -1   7 47567.6 1190.30   3
  -2  -1   6 8796.86 399.357   3
  -2  -1   3 208845. 4296.97   3
  -2  -1   2 318951. 6394.10   3
  -2  -1   2 311440. 6269.25   2
   2  -1  -2 322332. 6333.70   4
  -2  -1   1 338442. 6553.03   2
  -2  -1   1 337756. 6680.00   3
  -2  -1   0 76146.2 1514.21   2
  -2  -1   0 78215.3 1659.93   3
  -2  -1  -1 218614. 4369.29   3
  -2  -1  -2 192601. 3870.87   3
  -2  -1  -3 108586. 2295.97   1
  -2  -1  -4 46837.9 1129.88   1
  -2  -1  -4 46569.1 1075.76   2
  -2  -1  -5 86961.8 1942.21   1
  -2  -1  -6 25450.7 763.262   1
  -2  -1  -7 109668. 2457.37   1
  -2  -1  -8 8452.47 428.449   1
  -2  -1  -9 10413.9 502.414   1
  -2  -1 -10 10376.5 525.732   1
  -2  -1 -11 4085.58 357.403   1
   2   0 -12 437.028 210.599   1
   2   0 -11 825.334 197.881   1
   2   0 -10 26295.7 890.618   1
   2   0  -9 444.534 172.169   1
   2   0  -8 131888. 2901.96   1
   2   0  -7 27209.0 811.470   1
  -2   0   6 17842.2 640.047   2
  -2   0   5 114890. 2516.66   2
  -2   0   4 243839. 4935.80   2
  -2   0   3 26331.1 697.496   2
   2   0  -2 401225. 7687.70   2
  -2   0   2 394872. 7685.83   2
   2   0  -2 392810. 7710.31   4
   2   0  -1 281502. 5526.86   2
  -2   0   1 283791. 5529.59   2
  -2   0   0 46794.3 997.482   2
  -2   0  -2 158030. 3211.05   3
  -2   0  -2 157793. 3229.73   1
  -2   0  -3 40428.2 930.709   3
  -2   0  -3 42343.4 1018.17   1
  -2   0  -4 108321. 2348.20   1
  -2   0  -5 8309.39 384.841   1
  -2   0  -6 18539.5 640.553   1
  -2   0  -7 42584.1 1174.47   1
  -2   0  -8 38130.6 1121.88   1
  -2   0  -9 29821.5 976.343   1
  -2   0 -10 393.385 205.528   1
  -2   0 -11 6395.97 452.666   1
  -2   0 -12 744.720 218.543   1
   2   1 -13 2254.66 320.141   1
   2   1 -12 12984.6 658.156   1
   2   1 -11 7713.94 488.348   1
   2   1 -10 7147.50 452.256   1
   2   1  -9 50717.4 1398.98   1
   2   1  -8 50839.3 1356.13   1
  -2   1   8 49449.1 1411.69   2
   2   1  -7 46506.7 1224.14   1
  -2   1   7 44484.2 1262.70   2
  -2   1   6 9344.17 445.040   2
  -2   1   5 152875. 3259.46   2
  -2   1   4 182880. 3787.06   2
  -2   1   3 217761. 4488.92   2
   2   1  -3 226407. 4455.03   2
   2   1  -2 325855. 6295.00   4
  -2   1   2 313981. 6318.71   2
   2   1  -2 316039. 6264.69   2
  -2   1   1 342744. 6747.46   2
   2   1  -1 335776. 6668.21   2
   2   1  -1 345928. 6725.80   4
   2   1   0 79493.5 1559.69   2
  -2   1   0 79185.2 1669.42   2
  -2   1   0 76195.5 1678.78   1
  -2   1  -1 223436. 4474.17   1
  -2   1  -2 193394. 3877.28   1
   2   1   2 199241. 3865.89   3
  -2   1  -3 111018. 2443.87   1
   2   1   3 109960. 2428.17   5
  -2   1  -4 43723.3 1181.19   1
  -2   1  -4 50481.9 1088.72   3
   2   1   4 44913.9 1192.02   5
   2   1   4 49854.1 1122.60   3
  -2   1  -5 85051.7 1717.09   3
   2   1   5 83880.0 1821.35   3
   2   1   5 83198.7 1956.23   5
  -2   1  -5 83906.9 1950.36   1
   2   1   6 26337.5 698.040   3
  -2   1  -6 24439.3 807.414   1
  -2   1  -7 116920. 2664.86   1
  -2   1  -8 7457.80 445.781   1
  -2   1  -9 9948.85 542.367   1
  -2   1 -10 10390.4 575.971   1
  -2   1 -11 4516.38 412.010   1
  -2   1 -12 20861.7 904.940   1
  -2   1 -13 3576.97 402.389   1
   2   2 -13-173.454 228.795   1
   2   2 -12 7561.30 518.341   1
   2   2 -11 5830.57 447.851   1
   2   2 -10 22855.6 881.509   1
  -2   2   9 49827.7 1465.88   2
   2   2  -9 49125.4 1408.52   1
  -2   2   8 9488.85 516.201   2
   2   2  -8 9921.51 501.744   1
   2   2  -7 28633.6 912.863   1
  -2   2   7 29219.9 941.788   2
  -2   2   6 20169.8 704.830   4
  -2   2   6 19793.6 702.027   2
  -2   2   5 56738.7 1425.95   4
  -2   2   5 58581.5 1442.63   2
  -2   2   4 165980. 3491.88   2
  -2   2   3 15094.5 518.622   2
   2   2  -2 291446. 5712.07   2
  -2   2   2 289455. 5809.00   2
  -2   2   1 23574.2 653.041   2
   2   2  -1 24597.3 577.118   4
   2   2  -1 22341.6 540.395   2
  -2   2   0 250989. 5002.39   2
  -2   2   0 249096. 4974.78   1
  -2   2  -1 69961.2 1560.03   1
  -2   2  -2 57187.3 1322.28   1
   2   2   2 55336.2 1250.80   1
   2   2   2 55099.5 1251.85   5
   2   2   3 131106. 2773.28   5
  -2   2  -3 134246. 2839.13   1
  -2   2  -4 16339.2 586.672   1
   2   2   4 16596.0 556.100   5
  -2   2  -5 80843.3 1921.87   1
  -2   2  -6 29372.2 917.063   1
  -2   2  -6 28536.3 617.661   3
  -2   2  -7 19833.1 749.084   1
  -2   2  -8 24506.2 885.095   1
  -2   2  -9 2583.09 317.433   1
  -2   2 -10 13390.6 680.378   1
  -2   2 -11 16446.3 785.504   1
  -2   2 -12 7186.67 548.574   1
   2   3 -13 4111.28 456.083   1
   2   3 -12 10434.2 635.070   1
   2   3 -11 7075.77 514.752   1
  -2   3  10 16241.6 774.658   2
   2   3 -10 16238.1 749.513   1
  -2   3   9 34027.9 1157.97   2
   2   3  -9 34860.1 1139.77   1
   2   3  -8 81516.4 2045.27   1
  -2   3   8 79922.0 2054.96   2
  -2   3   7 22655.0 806.363   4
   2   3  -7 23242.2 830.306   1
  -2   3   7 22959.4 820.709   2
   2   3  -6 52244.8 1379.87   1
  -2   3   6 50379.3 1373.08   2
  -2   3   6 50883.3 1351.18   4
  -2   3   5 21187.9 724.482   2
  -2   3   5 21370.2 702.741   4
  -2   3   4 98863.3 2197.35   4
  -2   3   4 98652.7 2237.49   2
  -2   3   3 83065.2 1872.21   2
  -2   3   3 79330.3 1815.75   4
  -2   3   2 52082.0 1283.90   2
  -2   3   1 2207.62 164.454   1
   2   3  -1 2484.57 123.629   4
  -2   3   1 2105.54 205.631   2
  -2   3   0 35582.3 890.067   1
  -2   3  -1 114740. 2411.31   1
   2   3   1 111951. 2211.07   2
   2   3   2 95578.9 1926.64   2
   2   3   2 99751.5 2038.21   5
  -2   3  -2 98135.1 2149.19   1
   2   3   3 9043.39 328.654   1
   2   3   3 8891.61 344.506   5
   2   3   3 9319.72 275.256   2
  -2   3  -3 8772.65 408.519   1
  -2   3  -4 86990.7 2033.50   1
  -2   3  -5 57452.5 1492.55   1
  -2   3  -6 7911.68 448.022   1
  -2   3  -7 17397.6 720.896   1
  -2   3  -8 18517.5 777.491   1
  -2   3  -9 34774.6 1186.90   1
  -2   3 -10 8164.88 551.140   1
  -2   3 -11 2901.05 370.222   1
   2   4 -12 15743.4 825.022   1
  -2   4  12 16590.9 848.484   4
   2   4 -11 12802.7 716.542   1
  -2   4  11 14133.0 755.074   2
  -2   4  11 14303.0 752.290   4
  -2   4  10 6069.94 490.672   2
   2   4 -10 5923.36 470.001   1
  -2   4  10 5952.56 473.536   4
   2   4  -9 50786.4 1504.23   1
  -2   4   9 48387.2 1487.80   2
  -2   4   9 48903.3 1475.39   4
   2   4  -8 2285.34 288.529   1
  -2   4   8 1965.73 265.710   4
  -2   4   8 1491.18 280.519   2
   2   4  -7 100351. 2411.56   1
  -2   4   7 98470.1 2399.53   2
  -2   4   7 98313.4 2356.87   4
   2   4  -6 20362.1 766.958   1
  -2   4   6 19695.5 750.737   2
  -2   4   6 21012.3 730.536   4
  -2   4   5 46383.6 1284.00   2
  -2   4   5 46515.2 1231.94   4
  -2   4   4 23048.8 772.460   2
  -2   4   4 23427.1 726.121   4
  -2   4   3 1062.16 183.717   2
  -2   4   2 66274.0 1577.02   2
  -2   4   2 63486.3 1396.87   1
  -2   4   1 18239.5 623.855   2
  -2   4   1 17441.6 519.977   1
  -2   4   0 27639.1 752.784   1
   2   4   0 27529.4 597.407   4
   2   4   1 50333.4 1093.07   2
   2   4   1 51478.1 1077.65   5
  -2   4  -1 49885.7 1244.64   1
  -2   4  -2 1856.92 200.064   1
   2   4   2 1962.61 116.870   2
  -2   4  -3 1846.94 211.470   1
   2   4   3 2223.50 135.795   2
   2   4   4 65375.1 1438.07   2
   2   4   4 65160.0 1450.06   1
  -2   4  -4 66423.0 1655.21   1
   2   4   5 37029.0 918.739   2
  -2   4  -5 35065.5 1088.62   1
  -2   4  -6 43805.9 1294.07   1
  -2   4  -7 46833.7 1396.27   1
  -2   4  -8 16259.8 748.912   1
  -2   4  -9 15983.9 773.049   1
  -2   4 -10 835.972 251.920   1
  -2   4 -11 7116.79 565.382   1
  -2   5  12 14200.9 799.714   4
  -2   5  11 6329.81 505.499   2
   2   5 -11 6202.15 522.231   1
  -2   5  11 6041.38 484.169   4
   2   5 -10 16.4719 190.238   1
  -2   5  10 22.5902 207.880   4
  -2   5  10 205.926 222.991   2
   2   5  -9 7783.59 533.110   1
  -2   5   9 8618.61 526.518   4
   2   5  -8 61338.7 1758.37   1
  -2   5   8 60657.8 1737.74   2
  -2   5   8 66047.4 1727.60   4
   2   5  -7 36286.4 1179.33   1
  -2   5   7 36258.5 1166.90   2
  -2   5   7 36653.1 1123.06   4
  -2   5   6 7740.70 467.380   2
  -2   5   6 8004.12 429.905   4
   2   5  -6 8640.59 498.672   1
  -2   5   5 27111.5 929.299   2
  -2   5   5 29535.1 883.300   4
   2   5  -5 28313.1 945.120   1
  -2   5   4 7980.66 437.001   2
   2   5  -4 6923.86 285.943   5
   2   5  -3 24655.7 610.780   5
  -2   5   3 25306.3 836.267   2
  -2   5   2 31562.2 759.988   1
  -2   5   2 30948.3 935.408   2
   2   5  -2 28951.5 647.234   5
  -2   5   1 153671. 3149.79   1
  -2   5   1 148903. 3319.70   2
  -2   5   0 20592.6 737.444   2
  -2   5   0 22533.2 664.133   1
  -2   5  -1 13096.2 503.119   1
   2   5   1 12524.9 402.005   2
   2   5   2 11551.1 369.907   2
  -2   5  -2 11204.5 485.698   1
   2   5   3 10287.7 350.523   2
  -2   5  -3 9503.87 466.856   1
   2   5   4 17029.8 513.035   2
  -2   5  -4 16777.8 670.622   1
   2   5   5 25652.0 723.836   2
  -2   5  -5 25738.8 904.240   1
  -2   5  -6 14977.9 683.145   1
   2   5   6 14772.5 524.821   2
  -2   5  -7 35216.6 1186.51   1
  -2   5  -8 3286.81 359.935   1
  -2   5  -9 1709.78 312.133   1
  -2   5 -10 6248.61 533.184   1
  -2   6  11 12393.2 744.109   2
  -2   6  11 11263.7 686.518   4
  -2   6  10 3938.76 407.479   4
   2   6 -10 4800.84 470.139   1
  -2   6  10 5315.11 485.174   2
  -2   6   9 1877.56 319.376   2
  -2   6   9 1995.94 287.429   4
   2   6  -9 2342.05 333.962   1
  -2   6   8 24052.2 890.186   4
  -2   6   8 22029.5 914.895   2
   2   6  -8 24257.6 971.310   1
   2   6  -7 1827.97 304.321   1
  -2   6   7 1735.81 247.301   4
  -2   6   7 1400.74 255.113   2
   2   6  -6 10024.5 562.023   1
  -2   6   6 10953.9 572.170   2
  -2   6   6 10739.6 515.134   4
   2   6  -5 11246.1 575.093   1
  -2   6   5 12311.4 600.956   2
   2   6  -4 76252.0 1939.61   1
  -2   6   4 77204.0 1961.72   2
   2   6  -3 3633.94 311.118   1
  -2   6   3 3857.82 336.755   2
  -2   6   2 18937.3 726.992   2
  -2   6   2 18573.3 549.513   1
  -2   6   1 118562. 2781.21   2
  -2   6   1 122731. 2594.28   1
  -2   6   0 15830.7 557.224   1
  -2   6   0 16180.9 663.641   2
   2   6   1 9001.31 364.380   2
  -2   6  -1 9709.85 441.037   1
   2   6   2 61761.5 1401.50   2
  -2   6  -2 58754.8 1538.95   1
  -2   6  -3 30453.4 996.312   1
   2   6   3 33177.6 849.519   2
   2   6   4 9091.42 370.669   2
  -2   6  -4 10064.1 521.182   1
  -2   6  -5 20278.4 814.794   1
  -2   6  -6 48543.4 1465.00   1
  -2   6  -7 3645.53 375.610   1
  -2   6  -8 3639.81 392.368   1
  -2   6  -9 1512.53 333.916   1
  -2   7  10 5700.87 522.335   2
   2   7  -9 4393.36 456.885   1
  -2   7   9 3870.20 424.023   2
  -2   7   8 7963.19 480.272   4
   2   7  -8 7324.17 541.282   1
  -2   7   8 7387.44 517.711   2
   2   7  -7 264.700 218.066   1
  -2   7   7 429.850 189.712   4
  -2   7   7 398.206 214.594   2
   2   7  -6 13144.3 679.408   1
  -2   7   6 12447.5 656.791   2
   2   7  -5 118517. 2880.60   1
  -2   7   5 122908. 2909.53   2
   2   7  -4 12164.4 602.311   1
  -2   7   4 11821.5 614.868   2
   2   7  -3 26467.5 921.091   1
  -2   7   3 27364.5 967.639   2
   2   7  -2 62065.5 1634.60   1
  -2   7   2 64519.7 1726.20   2
  -2   7   1 10945.6 447.092   1
  -2   7   1 11208.8 574.414   2
   2   7  -1 11559.3 511.627   1
  -2   7   0 17625.1 624.320   1
   2   7   0 17771.8 610.158   2
  -2   7   0 18666.6 761.995   2
   2   7   0 17726.1 633.732   1
   2   7   1 103855. 2268.20   2
  -2   7  -1 99516.5 2345.71   1
   2   7   2 23055.2 693.089   2
  -2   7  -2 21223.1 784.709   1
  -2   7  -3 28168.9 959.579   1
  -2   7  -4 55732.8 1576.42   1
  -2   7  -5 27679.3 1015.48   1
  -2   7  -6 1394.46 280.839   1
  -2   7  -7 3840.47 400.615   1
  -2   7  -8 14471.5 786.350   1
  -2   8   9 2378.55 342.548   2
   2   8  -8 1169.97 334.075   1
  -2   8   8 1868.12 351.665   2
   2   8  -7 501.165 232.282   1
  -2   8   7 1269.14 267.232   2
   2   8  -6 5756.37 477.551   1
  -2   8   6 5632.63 473.046   2
   2   8  -5 387.189 213.821   1
  -2   8   5 386.199 233.581   2
   2   8  -4 14702.5 696.571   1
  -2   8   4 16590.8 763.632   2
   2   8  -3 22328.8 853.385   1
  -2   8   3 22506.1 908.013   2
  -2   8   2 13430.1 679.192   2
   2   8  -2 14345.5 630.642   1
   2   8  -1 10242.5 504.692   1
  -2   8   1 10264.6 583.967   2
  -2   8   0 30243.3 933.795   1
   2   8   0 31616.3 944.480   2
   2   8   0 32441.7 964.855   1
  -2   8   0 30708.7 1102.90   2
  -2   8  -1 16241.8 766.820   2
  -2   8  -1 17979.7 687.519   1
  -2   8  -2 30397.3 1002.42   1
  -2   8  -3 1181.81 230.319   1
  -2   8  -4 10998.4 600.575   1
  -2   8  -5 604.737 235.899   1
  -2   8  -6 14872.7 760.449   1
  -2   8  -7 11038.8 675.160   1
  -2   9   8 3512.80 409.629   2
   2   9  -7 3058.49 385.509   1
  -2   9   7 3042.52 410.664   2
   2   9  -6 3033.33 386.723   1
  -2   9   6 3088.26 370.067   2
   2   9  -5 5181.59 465.468   1
  -2   9   5 5633.41 495.331   2
   2   9  -4 2533.64 332.728   1
  -2   9   4 3394.28 383.959   2
  -2   9   3 1005.70 248.331   2
   2   9  -3 1057.11 237.054   1
   2   9  -2 4612.16 379.198   1
  -2   9   2 5013.36 443.506   2
  -2   9   1 1460.19 268.583   2
  -2   9   0 2555.28 329.000   2
  -2   9  -1 3492.24 364.451   2
  -2   9  -2 7606.23 473.748   1
  -2   9  -3 13368.9 661.335   1
  -2   9  -4 2267.17 328.547   1
  -2   9  -5 2388.64 351.589   1
  -2   9  -6 1466.18 324.360   1
  -2  10   5 11287.8 696.057   2
   2  10  -5 10363.5 658.071   1
   2  10  -4 17466.5 832.850   1
  -2  10   4 18739.0 906.079   2
  -2  10   3 19046.5 921.415   2
  -2  10   2 3348.92 407.491   2
  -2  10   1 7850.43 576.358   2
  -2  10   0 6264.26 531.073   2
  -2  10  -1 1233.10 263.544   2
  -2  10  -2 7437.78 582.429   2
  -2  10  -4 2342.12 343.278   1
  -2  10  -5 354.311 225.979   1
   3  -7   3 12303.1 561.984   5
   3  -7   4 37202.0 1154.03   5
   3  -7   5 5551.24 405.894   5
   3  -7   6 10739.5 590.694   5
   3  -7   7 8502.45 543.298   5
   3  -6   4 15401.4 652.477   5
   3  -6   5 19672.3 785.029   5
   3  -6   6 1547.38 250.658   5
   3  -6   7 8931.94 548.696   5
  -3  -5   9 6313.54 441.389   4
  -3  -5   8 5865.44 387.056   4
  -3  -5   7 2586.42 247.530   4
  -3  -5   4 7560.20 319.034   4
   3  -5   4 881.220 201.967   5
   3  -5   5 64130.1 1708.45   5
   3  -5   6 20304.9 819.473   5
   3  -5   7 26231.8 990.749   5
   3  -5   8 2597.63 328.210   5
  -3  -4   8 15397.6 659.372   4
  -3  -4   7 19936.7 723.487   4
   3  -4  -5 20716.1 573.265   1
  -3  -4   4 31157.0 837.769   4
   3  -4   5 12696.8 590.463   5
   3  -4   6 18240.9 757.814   5
   3  -4   7 52381.6 1547.11   5
   3  -4   8 10001.5 593.401   5
  -3  -3   7 95310.9 2215.94   4
  -3  -3   7 90638.9 2117.26   3
  -3  -3   6 2188.74 214.402   3
  -3  -3   6 761.981 156.373   4
  -3  -3   5 116405. 2579.13   3
  -3  -3   4 66902.6 1549.19   4
  -3  -3   4 66440.4 1609.71   3
  -3  -3   3 44362.7 1169.69   3
  -3  -3  -4 27849.1 643.727   2
   3  -3   5 19762.0 744.983   5
   3  -3   6 12989.6 613.357   5
   3  -3   7 50178.4 1486.15   5
   3  -3   8 82494.5 2184.62   5
   3  -2  -9 67745.2 1639.13   1
  -3  -2   9 67225.1 1616.79   3
  -3  -2   8 466.559 134.098   3
  -3  -2   7 42121.5 1218.32   4
  -3  -2   7 43585.7 1137.23   3
  -3  -2   6 151395. 3415.68   4
  -3  -2   6 165168. 3387.16   3
  -3  -2   5 22197.4 701.961   3
  -3  -2   4 23509.2 716.164   4
  -3  -2   4 25436.1 753.524   3
  -3  -2   3 198775. 4067.60   4
  -3  -2   3 199407. 4129.59   3
  -3  -2   2 21412.4 693.563   3
  -3  -2   1 9428.61 418.002   3
  -3  -2   0 469767. 9292.54   3
  -3  -2  -1 223546. 4584.15   3
  -3  -2  -3 26030.0 581.945   2
  -3  -2  -4 14206.0 398.561   2
  -3  -2  -5 40860.7 983.512   2
   3  -2   5 42616.3 1209.14   5
   3  -2   6 8948.04 500.726   5
   3  -2   7 13058.0 641.758   5
  -3  -2  -7 13097.7 539.288   1
   3  -2   8 17684.7 791.058   5
  -3  -2  -8 17091.7 661.504   1
  -3  -2  -9 12524.3 570.677   1
   3  -1 -11 4591.51 346.053   1
   3  -1 -10 15456.1 626.323   1
   3  -1  -9 7772.07 411.882   1
  -3  -1   9 8179.81 424.930   3
  -3  -1   8 18064.1 731.505   4
  -3  -1   8 17778.3 699.659   3
  -3  -1   7 18724.2 708.258   4
  -3  -1   7 17818.3 705.531   3
  -3  -1   6 18328.8 668.189   4
  -3  -1   4 409685. 8123.66   2
  -3  -1   3 68780.8 1536.27   2
  -3  -1   3 67331.6 1570.65   4
  -3  -1   2 82073.3 1720.54   2
  -3  -1   2 76557.2 1908.15   3
  -3  -1   1 10897.9 325.674   2
  -3  -1   1 11170.9 473.481   3
  -3  -1   0 170542. 3374.68   2
  -3  -1   0 174516. 3590.72   3
  -3  -1  -1 4029.68 145.468   2
  -3  -1  -1 4511.54 264.924   3
  -3  -1  -2 66594.8 1537.55   3
  -3  -1  -3 45165.3 1113.21   3
  -3  -1  -4 77792.8 1805.44   1
  -3  -1  -5 40242.6 1094.84   1
   3  -1   6 83963.5 2123.19   5
  -3  -1  -6 87797.8 2034.14   1
  -3  -1  -7 13803.5 576.266   1
   3  -1   7 13231.4 636.849   5
  -3  -1  -8 48318.2 1353.81   1
   3  -1   8 48753.5 1473.03   5
  -3  -1  -9 1274.23 231.025   1
  -3  -1 -10 754.385 220.072   1
   3   0 -12 992.618 230.601   1
   3   0 -11 21392.5 820.276   1
   3   0 -10 5312.60 379.829   1
   3   0  -9 159259. 3527.97   1
  -3   0   9 161997. 3671.23   4
  -3   0   8 21726.9 823.213   4
  -3   0   7 11855.5 551.746   2
  -3   0   7 11741.0 550.151   4
  -3   0   6 51055.2 1352.02   2
  -3   0   5 9563.65 432.281   2
  -3   0   4 151456. 3200.84   2
  -3   0   3 136073. 2858.31   2
  -3   0   2 3350.98 202.167   2
   3   0  -1 360435. 6971.59   2
  -3   0   1 350629. 6972.20   2
  -3   0   0 183604. 3665.70   2
  -3   0  -1 53415.2 1173.29   2
  -3   0  -2 88682.0 2022.79   3
  -3   0  -3 249228. 5086.23   1
  -3   0  -3 248968. 5016.58   3
  -3   0  -4 35382.4 1008.80   1
  -3   0  -4 37345.1 917.557   3
   3   0   5 1421.74 226.734   5
  -3   0  -5 1692.69 219.015   1
  -3   0  -6 10085.8 486.960   1
   3   0   6 9828.71 512.328   5
  -3   0  -7 73617.2 1862.89   1
   3   0   7 75287.4 1943.45   5
  -3   0  -8 474.805 203.601   1
  -3   0  -9 51271.6 1480.46   1
  -3   0 -10 8567.20 524.957   1
  -3   0 -11 364.093 225.840   1
  -3   0 -12 341.615 234.596   1
   3   1 -13 17571.3 818.841   1
   3   1 -12 2278.69 308.450   1
  -3   1  12 2684.10 389.441   4
   3   1 -11 4772.05 401.173   1
  -3   1  11 4266.71 427.270   4
   3   1 -10 13892.2 654.334   1
  -3   1  10 15354.6 742.228   4
   3   1  -9 8077.73 473.102   1
  -3   1   9 8435.12 519.647   2
  -3   1   9 8107.58 507.376   4
  -3   1   8 17583.5 736.558   2
  -3   1   8 18276.4 746.963   4
  -3   1   7 18453.1 718.695   2
  -3   1   7 17701.6 701.409   4
  -3   1   6 18680.5 689.594   2
  -3   1   5 31906.3 936.232   2
  -3   1   4 421289. 8386.22   2
  -3   1   3 68448.5 1589.04   2
  -3   1   2 84714.3 1854.66   2
   3   1  -2 83375.2 1782.41   2
   3   1  -1 11862.7 340.759   2
  -3   1   1 10909.6 400.304   2
  -3   1   0 168992. 3448.04   2
  -3   1  -1 4007.43 263.004   1
  -3   1  -2 64774.3 1541.01   1
  -3   1  -3 43214.8 1144.43   1
   3   1   4 75370.9 1829.14   5
  -3   1  -4 80810.7 1855.40   1
  -3   1  -4 76519.1 1759.12   3
  -3   1  -5 38511.7 1121.03   1
   3   1   5 39469.7 1134.78   5
  -3   1  -5 40315.6 952.785   3
  -3   1  -6 84374.4 2057.75   1
   3   1   6 84717.6 2081.72   5
  -3   1  -7 12551.8 588.282   1
   3   1   7 12439.7 598.063   5
  -3   1  -8 48871.5 1424.04   1
  -3   1  -9 1610.05 283.552   1
  -3   1 -10 608.478 226.315   1
  -3   1 -11 1348.57 292.547   1
  -3   1 -12 1925.15 327.906   1
   3   2 -13 318.643 226.218   1
   3   2 -12 6925.30 513.879   1
  -3   2  12 7006.26 569.370   4
   3   2 -11 4906.87 430.840   1
  -3   2  11 4392.56 434.724   4
   3   2 -10 41174.4 1309.22   1
  -3   2  10 42185.2 1382.30   2
  -3   2  10 41580.0 1374.43   4
   3   2  -9 65823.7 1764.73   1
  -3   2   9 66188.5 1825.78   2
  -3   2   9 63329.6 1800.94   4
  -3   2   8 348.991 186.704   4
  -3   2   8 451.993 183.982   2
  -3   2   7 41604.2 1246.18   2
  -3   2   7 42790.5 1245.77   4
  -3   2   6 162336. 3570.22   2
  -3   2   6 163741. 3568.73   4
  -3   2   5 20665.9 720.032   2
  -3   2   4 22915.2 742.770   2
  -3   2   3 200229. 4163.74   2
  -3   2   2 22185.8 674.699   2
   3   2  -2 20830.8 557.288   2
  -3   2   1 8972.63 384.052   2
   3   2  -1 8893.80 266.949   2
   3   2   0 461367. 9247.51   2
  -3   2   0 484252. 9491.77   2
  -3   2   0 487441. 9490.54   1
  -3   2  -1 221491. 4543.19   1
  -3   2  -2 280133. 5702.88   1
  -3   2  -3 27039.4 833.578   1
   3   2   3 26993.2 785.253   5
  -3   2  -4 13060.3 556.716   1
   3   2   4 14444.6 544.242   5
   3   2   5 41710.1 1176.37   5
  -3   2  -5 43173.2 1214.33   1
   3   2   6 9361.49 477.691   5
  -3   2  -6 9023.24 488.191   1
  -3   2  -6 8746.97 312.958   3
  -3   2  -7 13105.3 623.416   1
  -3   2  -8 17102.5 750.779   1
  -3   2  -9 12822.0 664.251   1
  -3   2 -10 4772.71 422.103   1
  -3   2 -11 5101.56 461.193   1
   3   3 -12 32990.7 1230.02   1
  -3   3  12 32869.3 1268.96   4
   3   3 -11 17753.2 831.828   1
  -3   3  11 17908.4 880.548   2
  -3   3  11 18545.4 882.004   4
   3   3 -10 42881.3 1376.73   1
  -3   3  10 43280.8 1431.09   2
  -3   3  10 43567.1 1412.94   4
   3   3  -9 14489.1 696.913   1
  -3   3   9 15332.8 741.597   2
  -3   3   9 14760.3 716.883   4
  -3   3   8 7423.25 486.888   2
   3   3  -8 6260.49 434.913   1
  -3   3   8 7515.05 475.025   4
  -3   3   7 88751.6 2249.33   2
  -3   3   7 93868.9 2252.05   4
  -3   3   6 2178.04 256.173   4
  -3   3   6 1717.53 250.540   2
  -3   3   5 119226. 2730.51   2
  -3   3   5 120232. 2702.23   4
  -3   3   4 67307.4 1627.62   4
  -3   3   4 64607.9 1641.77   2
  -3   3   3 45348.2 1212.12   2
  -3   3   2 21675.8 717.371   2
   3   3  -2 22458.9 587.194   2
  -3   3   1 17052.0 608.045   2
   3   3  -1 17480.7 446.384   2
   3   3  -1 18649.6 514.917   4
  -3   3   0 102016. 2252.07   2
  -3   3   0 98357.4 2206.09   1
  -3   3  -1 131607. 2844.71   1
  -3   3  -2 54023.8 1374.46   1
  -3   3  -3 22572.3 761.950   1
   3   3   3 22521.2 683.041   5
  -3   3  -4 29274.5 927.722   1
   3   3   4 28523.0 848.586   5
  -3   3  -5 20149.9 758.352   1
   3   3   5 20188.7 703.545   5
  -3   3  -6 13875.5 636.353   1
  -3   3  -7 52177.4 1515.06   1
  -3   3  -8 81713.3 2153.59   1
  -3   3  -9 14725.5 735.817   1
  -3   3 -10 2863.19 373.816   1
  -3   3 -11 798.813 294.486   1
   3   4 -11 21410.2 958.227   1
  -3   4  11 21154.2 973.107   2
  -3   4  11 23265.0 1003.89   4
   3   4 -10 7195.10 514.388   1
  -3   4  10 5846.42 489.658   4
  -3   4  10 5850.29 494.413   2
   3   4  -9 769.444 223.441   1
  -3   4   9 774.125 227.169   4
  -3   4   9 931.659 268.282   2
   3   4  -8 15756.4 721.783   1
  -3   4   8 16047.7 740.034   2
  -3   4   8 14509.6 686.143   4
  -3   4   7 19556.1 796.586   2
  -3   4   7 19488.7 771.236   4
  -3   4   6 12537.8 605.575   2
  -3   4   6 13400.8 596.750   4
  -3   4   5 21249.2 792.011   2
  -3   4   5 21574.2 761.148   4
  -3   4   4 31232.3 986.230   2
  -3   4   3 40231.2 1156.96   2
  -3   4   2 22856.0 773.368   2
  -3   4   1 30470.0 934.720   2
   3   4  -1 31665.7 745.376   4
  -3   4   1 29348.1 837.239   1
  -3   4   0 8647.55 433.613   2
  -3   4   0 8951.38 400.919   1
   3   4   0 9048.52 304.644   4
  -3   4  -1 83089.5 1939.25   1
  -3   4  -2 68968.2 1727.60   1
   3   4   2 72101.4 1589.01   5
  -3   4  -3 53100.5 1430.68   1
   3   4   3 54536.5 1300.75   5
  -3   4  -4 41794.4 1226.08   1
   3   4   4 42713.1 1111.10   5
  -3   4  -5 12997.6 610.885   1
  -3   4  -6 18335.4 774.820   1
  -3   4  -7 50330.1 1512.59   1
  -3   4  -8 9668.19 594.143   1
  -3   4  -9 823.345 275.506   1
  -3   4 -10 3170.83 389.335   1
   3   5 -11 581.045 249.787   1
  -3   5  11 776.407 254.710   4
  -3   5  11 297.391 227.006   2
   3   5 -10 10306.5 656.063   1
  -3   5  10 9923.94 641.025   2
  -3   5  10 9887.15 613.203   4
   3   5  -9 6251.85 485.317   1
  -3   5   9 6234.31 473.763   4
  -3   5   9 6231.35 501.689   2
   3   5  -8 4999.55 436.128   1
  -3   5   8 5994.78 469.075   2
  -3   5   8 5609.96 423.084   4
   3   5  -7 2223.29 301.305   1
  -3   5   7 1911.14 263.942   4
  -3   5   7 2190.35 307.465   2
  -3   5   6 3156.07 303.300   4
  -3   5   6 2813.66 313.856   2
  -3   5   5 3879.71 346.990   2
  -3   5   4 7149.99 445.466   2
  -3   5   3 81386.4 2030.13   2
  -3   5   2 26070.1 886.354   2
  -3   5   1 107200. 2500.53   2
  -3   5   1 106254. 2351.52   1
  -3   5   0 4683.34 350.310   2
  -3   5   0 4263.07 294.400   1
   3   5   0 4744.69 183.384   4
   3   5   1 39445.8 854.120   2
  -3   5  -1 38462.7 1096.68   1
   3   5   1 39310.9 903.043   5
  -3   5  -2 18461.6 694.952   1
   3   5   2 18784.5 533.405   5
   3   5   2 19005.4 436.393   2
  -3   5  -3 45289.5 1286.52   1
  -3   5  -4 1181.89 238.670   1
  -3   5  -5 59307.9 1653.87   1
  -3   5  -6 19791.3 833.027   1
  -3   5  -7 27291.1 1040.00   1
  -3   5  -8 2573.70 343.417   1
  -3   5  -9 7150.19 556.675   1
  -3   6  11 4849.23 461.765   4
   3   6 -10 6954.18 564.489   1
  -3   6  10 6467.00 544.965   2
  -3   6  10 6492.14 515.886   4
  -3   6   9 3440.67 375.847   4
  -3   6   9 4162.85 438.108   2
   3   6  -8 16754.5 804.023   1
  -3   6   8 15382.1 782.767   2
  -3   6   8 16339.4 744.841   4
   3   6  -7 4852.91 436.791   1
  -3   6   7 4273.58 360.512   4
  -3   6   7 4709.27 421.245   2
   3   6  -6 20143.7 840.464   1
  -3   6   6 19884.1 849.834   2
  -3   6   5 5594.84 436.348   2
  -3   6   4 2928.03 313.407   2
  -3   6   3 32312.3 1081.83   2
  -3   6   2 24513.1 895.990   2
  -3   6   1 81729.0 2074.08   2
  -3   6   1 81541.1 1890.85   1
   3   6   0 107074. 2232.86   2
  -3   6   0 105159. 2548.18   2
  -3   6   0 104014. 2397.39   1
  -3   6  -1 9676.99 481.189   1
  -3   6  -2 51607.0 1415.68   1
  -3   6  -3 52825.1 1478.94   1
  -3   6  -4 15093.4 689.058   1
  -3   6  -5 19719.8 832.193   1
  -3   6  -6 1936.10 300.151   1
  -3   6  -7 8935.12 590.885   1
  -3   6  -8 2595.28 372.657   1
  -3   7  10 4805.70 437.215   4
  -3   7   9 9751.91 639.934   2
  -3   7   9 10074.7 605.706   4
   3   7  -8 11789.5 702.621   1
  -3   7   8 12844.0 728.458   2
   3   7  -7 10.8054 226.876   1
  -3   7   7-143.632 222.588   2
   3   7  -6 27553.8 1047.40   1
  -3   7   6 26034.0 1032.51   2
   3   7  -5 8264.52 523.379   1
  -3   7   5 7506.14 518.114   2
   3   7  -4 57282.9 1622.98   1
  -3   7   4 56852.5 1670.31   2
  -3   7   3 79513.5 2110.35   2
  -3   7   2 23267.8 919.079   2
  -3   7   1 18978.7 821.274   2
  -3   7   1 20216.2 681.137   1
  -3   7   0 2473.50 252.303   1
  -3   7   0 2439.06 289.658   2
  -3   7  -1 6278.40 459.012   2
  -3   7  -1 5993.32 392.905   1
  -3   7  -2 789.096 198.198   1
  -3   7  -3 11116.8 581.313   1
  -3   7  -4 37448.8 1230.94   1
  -3   7  -5 5612.89 449.949   1
  -3   7  -6 10391.5 622.773   1
  -3   7  -7 8001.54 576.149   1
  -3   8   8 11741.0 728.878   2
   3   8  -7 23472.3 1031.48   1
  -3   8   7 26130.4 1087.81   2
   3   8  -6 493.093 217.159   1
  -3   8   6 479.792 217.924   2
   3   8  -5 6446.49 494.220   1
  -3   8   5 5560.71 484.207   2
   3   8  -4 16090.2 760.233   1
  -3   8   4 17185.0 815.619   2
   3   8  -3 13779.7 670.269   1
  -3   8   3 13417.6 721.405   2
   3   8  -2 45445.4 1360.26   1
  -3   8   2 45947.4 1466.14   2
  -3   8   1 22746.1 946.319   2
  -3   8   0 11531.1 654.278   2
  -3   8   0 11884.8 546.546   1
  -3   8  -1 17410.0 819.420   2
  -3   8  -1 18762.4 735.789   1
  -3   8  -2 2247.99 286.671   1
  -3   8  -3 11378.7 614.011   1
  -3   8  -4 3870.32 399.459   1
  -3   8  -5-240.264 232.643   1
  -3   8  -6 5930.27 501.727   1
   3   9  -6 187.387 227.060   1
  -3   9   6-34.8052 191.557   2
   3   9  -5 4549.65 432.773   1
  -3   9   5 4285.05 446.453   2
   3   9  -4 2309.80 320.624   1
  -3   9   4 2356.10 367.071   2
   3   9  -3 2152.18 312.659   1
  -3   9   3 2328.84 345.922   2
   3   9  -2 12938.9 650.253   1
  -3   9   2 13805.5 750.121   2
  -3   9   1 7881.29 579.067   2
  -3   9   0 2374.03 337.836   2
  -3   9  -1 1971.15 343.845   2
  -3   9  -2 7809.12 576.305   2
  -3   9  -2 7720.28 501.428   1
  -3   9  -3 1656.67 282.627   1
  -3   9  -4 1019.33 258.826   1
  -3   9  -5 4133.07 439.521   1
   3  10  -5 1566.15 345.187   1
   3  10  -4 1093.52 268.285   1
   4  -7   4 567.955 222.113   5
   4  -7   5 1721.31 294.087   5
   4  -7   6 7223.08 525.843   5
   4  -7   7 716.030 285.932   5
   4  -7   8 3034.29 397.348   5
   4  -6   5 1313.98 254.956   5
   4  -6   6 10088.4 609.152   5
   4  -6   7 5154.55 471.620   5
   4  -6   8 295.619 204.893   5
  -4  -5  10 1023.76 262.853   4
  -4  -5   9 29451.8 1035.65   4
  -4  -5   8 7778.92 460.989   4
  -4  -5   7 7525.24 428.772   4
  -4  -5   6 2383.77 238.254   4
   4  -5   5 2972.84 332.824   5
   4  -5   6 3958.34 380.628   5
   4  -5   7 1555.55 274.555   5
   4  -5   8 2192.91 342.176   5
   4  -5   9 11378.8 700.008   5
  -4  -4  12 1501.82 332.542   4
  -4  -4  11 27248.1 1076.91   4
  -4  -4  10 4580.23 405.369   4
  -4  -4   9 22607.9 888.907   4
  -4  -4   8 39175.2 1208.36   4
  -4  -4   7 14690.0 623.312   4
  -4  -4   6 142355. 3141.81   4
   4  -4   5 27315.9 987.243   5
   4  -4   6 28445.4 1042.01   5
   4  -4   7 24242.5 984.982   5
   4  -4   8 4012.11 401.854   5
   4  -4   9 4523.59 474.872   5
  -4  -3  12 15438.6 833.613   4
  -4  -3  11 29461.3 1139.08   4
  -4  -3  10 23461.6 944.903   4
  -4  -3   9 7678.49 500.403   4
  -4  -3   9 7294.89 425.207   3
  -4  -3   8 42781.1 1307.69   4
  -4  -3   8 45072.4 1260.91   3
  -4  -3   7 15538.5 644.691   4
  -4  -3   7 14073.9 616.556   3
  -4  -3   6 25825.3 846.541   4
  -4  -3   6 24348.5 836.272   3
  -4  -3   5 14218.2 614.457   4
  -4  -3   5 31078.3 852.125   3
  -4  -3   4 40653.8 1167.65   3
  -4  -3   3 70898.5 1773.29   3
  -4  -3   2 74368.9 1833.23   3
  -4  -3   1 70159.8 1748.34   3
   4  -3   5 75449.7 1969.87   5
   4  -3   6 4493.51 395.609   5
   4  -3   7 9155.77 566.791   5
   4  -3   8 15673.0 788.665   5
   4  -3   9 2245.13 346.338   5
  -4  -2  12 22792.3 1029.86   4
  -4  -2  11 2403.68 335.345   4
  -4  -2  10 11352.5 641.385   4
  -4  -2   9 46598.1 1440.97   4
  -4  -2   9 48887.2 1335.73   3
  -4  -2   8 15515.5 698.695   4
  -4  -2   8 16765.9 658.445   3
  -4  -2   7 63384.1 1651.00   4
  -4  -2   7 59953.2 1587.57   3
  -4  -2   6 32930.3 1009.97   4
  -4  -2   6 32425.9 1008.55   3
  -4  -2   5 40282.9 1146.26   4
  -4  -2   5 42375.7 1188.35   3
  -4  -2   4 39083.5 1121.90   3
  -4  -2   3 85914.6 2043.58   3
  -4  -2   2 33715.2 998.858   3
  -4  -2   1 57846.8 1478.99   3
  -4  -2   0 22858.5 762.325   3
  -4  -2  -1 24344.9 793.323   3
  -4  -2  -2 38451.2 1083.87   3
  -4  -2  -3 13048.5 315.458   2
  -4  -2  -3 12484.0 311.588   2
   4  -2   5 19589.9 782.132   5
   4  -2   6 83060.9 2152.49   5
   4  -2   7 32873.2 1159.64   5
   4  -2   8 3270.52 377.497   5
   4  -2   9 356.833 234.749   5
  -4  -1  12 5827.47 515.658   4
  -4  -1  11 35152.7 1280.32   4
  -4  -1  10 10144.8 614.685   4
  -4  -1   9 58802.1 1711.12   4
  -4  -1   9 62114.9 1692.72   3
  -4  -1   8 14634.8 678.134   4
  -4  -1   8 15256.0 729.964   3
  -4  -1   7 37961.3 1150.74   4
  -4  -1   7 34375.5 1194.76   3
  -4  -1   6 29833.9 959.105   4
  -4  -1   5 26748.2 843.622   2
  -4  -1   5 28652.0 892.294   4
  -4  -1   4 37185.9 1004.48   2
  -4  -1   3 54322.0 1266.37   2
  -4  -1   3 48259.2 1471.92   3
  -4  -1   2 17844.5 525.729   2
  -4  -1   2 17199.8 728.338   3
  -4  -1   1 55955.9 1256.05   2
  -4  -1   1 58955.5 1534.39   3
  -4  -1   0 51794.0 1139.51   2
  -4  -1   0 52877.1 1383.55   3
  -4  -1  -1 228.710 128.604   3
  -4  -1  -1 464.916 70.1592   2
  -4  -1  -2 3891.54 171.426   2
  -4  -1  -2 4257.14 281.825   3
  -4  -1  -3 15033.3 555.526   3
  -4  -1  -4 65486.2 1581.59   3
   4  -1   5 12722.1 597.734   5
   4  -1   6 32477.1 1102.20   5
  -4  -1  -6 33190.1 1034.31   1
   4  -1   7 7553.39 513.538   5
  -4  -1  -7 8236.46 471.396   1
   4  -1   8 30172.4 1123.84   5
  -4  -1  -8 30198.1 1026.30   1
   4  -1   9 446.764 266.478   5
  -4  -1  -9 748.553 222.440   1
  -4  -1 -10 7004.56 492.450   1
   4   0 -12 833.794 221.731   1
  -4   0  12 1161.78 320.095   4
   4   0 -11 24728.2 930.558   1
  -4   0  11 24541.5 1034.67   4
  -4   0  10 11775.8 663.008   4
  -4   0   9 44165.4 1395.16   4
  -4   0   8 57886.0 1625.18   2
  -4   0   8 57976.6 1634.56   4
  -4   0   7 31488.7 1014.25   2
  -4   0   7 29765.9 1013.58   4
  -4   0   6 67033.5 1695.43   2
  -4   0   6 65157.3 1706.14   4
  -4   0   5 40674.4 1131.61   2
  -4   0   5 40989.6 1169.40   4
  -4   0   4 133.992 128.961   2
  -4   0   3 103246. 2271.98   2
  -4   0   2 12410.8 441.521   2
  -4   0   1 114429. 2416.15   2
  -4   0   0 53584.1 1225.49   2
  -4   0  -1 344.709 86.3847   2
  -4   0  -2 1195.56 193.659   3
  -4   0  -3 13965.8 532.319   3
  -4   0  -4 1725.62 188.867   3
  -4   0  -4 2011.63 240.351   1
   4   0   5 64316.3 1725.13   5
  -4   0  -5 65657.6 1696.36   1
  -4   0  -5 67174.9 1563.28   3
   4   0   6 7227.65 476.433   5
  -4   0  -6 7608.05 456.202   1
  -4   0  -7 18342.3 756.017   1
   4   0   7 18559.8 803.936   5
   4   0   8 17315.1 804.075   5
  -4   0  -8 16807.2 745.293   1
  -4   0  -9 36892.4 1227.09   1
  -4   0 -10 8845.78 566.599   1
  -4   0 -11 2897.42 359.419   1
   4   1 -13 428.709 255.539   1
   4   1 -12 6818.27 498.097   1
  -4   1  12 6392.07 530.350   4
   4   1 -11 34344.1 1193.52   1
  -4   1  11 36225.4 1311.43   4
  -4   1  10 9799.09 620.890   4
  -4   1   9 60052.9 1726.68   2
  -4   1   9 59602.7 1725.48   4
  -4   1   8 16384.6 731.812   2
  -4   1   8 15244.7 709.088   4
  -4   1   7 38273.8 1177.97   2
  -4   1   7 37059.7 1176.03   4
  -4   1   6 29233.9 936.266   2
  -4   1   6 27470.5 938.284   4
  -4   1   5 27399.2 875.598   2
  -4   1   4 36741.2 1035.96   2
  -4   1   3 55098.5 1374.07   2
  -4   1   2 16942.2 577.373   2
   4   1  -1 57239.9 1262.43   2
  -4   1   1 56029.9 1355.85   2
  -4   1   0 50193.9 1217.02   2
  -4   1  -1 627.593 123.948   2
  -4   1  -3 14023.8 584.364   1
  -4   1  -4 62347.0 1655.09   1
   4   1   4 64939.0 1653.53   5
  -4   1  -4 66307.0 1614.68   3
  -4   1  -5 12990.7 599.332   1
   4   1   5 13588.1 610.222   5
  -4   1  -5 14004.0 497.141   3
  -4   1  -6 34972.3 1109.18   1
   4   1   6 32473.6 1095.62   5
  -4   1  -6 34399.4 902.663   3
  -4   1  -7 7647.72 491.669   1
   4   1   7 8231.44 513.112   5
  -4   1  -8 30548.9 1089.51   1
   4   1   8 30728.3 1116.09   5
  -4   1  -9 1098.73 267.410   1
  -4   1 -10 6427.28 508.464   1
  -4   1 -11 607.637 260.871   1
   4   2 -12 20970.3 929.373   1
   4   2 -11 1995.54 323.975   1
  -4   2  11 1713.49 328.239   4
  -4   2  11 2211.84 331.040   2
   4   2 -10 11986.7 634.484   1
  -4   2  10 12000.8 689.992   4
  -4   2  10 11198.9 662.745   2
  -4   2   9 49035.1 1512.63   2
  -4   2   9 47701.5 1495.60   4
  -4   2   8 16024.7 735.406   2
  -4   2   8 14759.7 706.314   4
  -4   2   7 61052.0 1676.03   2
  -4   2   7 62167.4 1690.43   4
  -4   2   6 32960.6 1051.34   2
  -4   2   6 32392.4 1051.02   4
  -4   2   5 40244.1 1176.86   2
  -4   2   5 41121.6 1190.23   4
  -4   2   4 39850.7 1134.83   2
  -4   2   3 89059.1 2077.41   2
  -4   2   2 33678.9 966.959   2
   4   2  -2 34383.4 832.773   2
   4   2  -1 56800.4 1224.00   2
  -4   2   1 57732.2 1418.64   2
  -4   2   0 23059.8 726.774   2
  -4   2  -1 25444.1 772.950   2
  -4   2  -2 39162.5 1120.67   1
  -4   2  -3 13254.1 573.700   1
  -4   2  -4 25853.8 888.366   1
   4   2   4 25648.1 846.828   5
  -4   2  -5 19890.9 780.831   1
   4   2   5 19361.5 748.052   5
  -4   2  -6 85546.0 2152.06   1
  -4   2  -6 86340.8 1897.48   3
  -4   2  -7 32954.1 1126.55   1
   4   2   7 31991.3 1101.52   5
  -4   2  -8 2896.84 362.325   1
  -4   2  -9 179.852 235.851   1
  -4   2 -10 6747.42 529.739   1
   4   3 -12 14667.9 784.036   1
   4   3 -11 27836.2 1105.56   1
  -4   3  11 28561.2 1163.12   2
  -4   3  11 30273.0 1191.01   4
   4   3 -10 23422.3 965.744   1
  -4   3  10 23457.1 988.953   4
  -4   3  10 23257.0 1000.43   2
  -4   3   9 6363.77 494.090   2
  -4   3   9 6529.92 499.292   4
  -4   3   8 43054.3 1370.63   2
  -4   3   8 44414.3 1381.13   4
  -4   3   7 14493.5 680.111   2
  -4   3   7 14102.3 663.070   4
  -4   3   6 25096.1 905.325   2
  -4   3   6 24793.9 894.038   4
  -4   3   5 30476.8 1001.96   2
  -4   3   4 42661.8 1226.09   2
  -4   3   3 72974.8 1806.95   2
  -4   3   2 75062.6 1823.64   2
   4   3  -2 74173.4 1601.37   2
  -4   3   1 71809.9 1740.61   2
   4   3  -1 70547.3 1465.97   2
  -4   3   0 59485.5 1508.92   2
  -4   3  -1 28017.6 862.162   2
  -4   3  -1 25745.8 849.573   1
  -4   3  -2 12066.5 542.506   1
  -4   3  -3 52840.5 1444.13   1
   4   3   3 52732.6 1354.33   5
  -4   3  -4 50062.7 1418.12   1
   4   3   4 49386.1 1331.92   5
  -4   3  -5 78907.0 2026.08   1
   4   3   5 77663.1 1943.76   5
  -4   3  -6 5833.49 443.648   1
   4   3   6 4815.15 372.817   5
  -4   3  -7 8972.54 567.976   1
  -4   3  -8 15411.2 761.989   1
  -4   3  -9 2125.59 327.223   1
  -4   3 -10 5732.80 520.008   1
   4   4 -11 23351.9 1042.48   1
  -4   4  11 25774.7 1118.07   2
  -4   4  11 25184.5 1092.69   4
   4   4 -10 6199.86 510.893   1
  -4   4  10 5067.44 468.682   4
  -4   4  10 4992.86 489.833   2
   4   4  -9 21961.6 934.787   1
  -4   4   9 23136.1 972.670   2
  -4   4   9 21891.7 944.374   4
  -4   4   8 38366.7 1304.42   2
  -4   4   8 39506.2 1287.92   4
  -4   4   7 14157.9 695.660   2
  -4   4   7 14414.4 681.052   4
  -4   4   6 134141. 3153.85   2
  -4   4   5 1966.03 270.039   2
  -4   4   4 12946.0 606.264   2
  -4   4   3 23596.1 846.606   2
  -4   4   2 7631.42 437.882   2
   4   4  -2 6863.55 271.186   2
  -4   4   1 9482.64 486.839   2
   4   4  -1 9241.33 274.042   2
  -4   4   0 35687.9 1076.17   2
  -4   4   0 34866.9 1021.76   1
  -4   4  -1 31726.0 1005.41   2
  -4   4  -1 32775.0 994.482   1
  -4   4  -2 108579. 2588.44   1
   4   4   2 114118. 2458.30   5
  -4   4  -3 22780.2 841.641   1
   4   4   3 23213.3 738.964   5
  -4   4  -4 10605.3 569.595   1
   4   4   4 9613.14 461.429   5
  -4   4  -5 27137.5 984.512   1
   4   4   5 25501.7 863.244   5
  -4   4  -6 32639.9 1147.13   1
  -4   4  -7 23155.8 959.635   1
  -4   4  -8 3786.71 416.798   1
  -4   4  -9 5066.14 493.333   1
   4   5 -10 1616.29 327.973   1
  -4   5  10 1139.59 278.568   4
  -4   5  10 1102.99 311.227   2
   4   5  -9 26916.0 1075.66   1
  -4   5   9 26154.6 1084.15   2
  -4   5   9 25435.4 1033.14   4
  -4   5   8 7062.97 532.210   2
  -4   5   8 7180.09 514.028   4
  -4   5   7 7502.94 530.013   2
  -4   5   6 1844.36 279.550   2
  -4   5   5 4690.12 399.845   2
  -4   5   4 39443.1 1247.23   2
  -4   5   3 12012.7 601.706   2
  -4   5   2 25677.7 919.503   2
  -4   5   1 18859.8 761.194   2
  -4   5   0 28361.8 973.453   2
  -4   5   0 28086.2 901.884   1
  -4   5  -1 39365.1 1176.40   1
  -4   5  -1 39414.8 1228.63   2
   4   5   1 41533.2 1010.93   5
  -4   5  -2 55393.5 1535.19   1
   4   5   2 56596.5 1349.48   5
  -4   5  -3 39676.5 1239.10   1
   4   5   3 41147.0 1079.13   5
  -4   5  -4 30711.8 1063.73   1
   4   5   4 29475.6 891.877   5
  -4   5  -5 2888.27 334.675   1
  -4   5  -6 3552.11 383.565   1
  -4   5  -7 1488.19 308.922   1
  -4   5  -8 2029.44 318.338   1
  -4   6  10 3700.58 415.003   4
   4   6  -9 3777.71 425.466   1
  -4   6   9 4372.03 414.140   4
  -4   6   9 3721.86 436.249   2
   4   6  -8 6481.24 520.380   1
  -4   6   8 5939.52 509.032   2
  -4   6   7 17741.4 849.778   2
  -4   6   6 10441.9 623.158   2
  -4   6   5 6075.80 480.321   2
  -4   6   4 3382.34 364.828   2
  -4   6   3 7933.43 503.036   2
  -4   6   2 41863.8 1320.14   2
  -4   6   1 13531.1 662.179   2
  -4   6   1 12527.2 545.222   1
  -4   6   0 8400.23 509.684   2
  -4   6   0 7326.22 430.757   1
  -4   6  -1 25719.6 959.412   2
  -4   6  -1 24907.0 878.005   1
  -4   6  -2 34051.4 1113.27   1
  -4   6  -3 36051.1 1182.46   1
  -4   6  -4 23028.7 922.016   1
  -4   6  -5 1949.76 300.194   1
  -4   6  -6 10905.9 647.078   1
  -4   6  -7 5433.18 508.626   1
   4   7  -8 3347.84 405.147   1
  -4   7   8 3327.88 417.210   2
   4   7  -7 12443.2 712.568   1
  -4   7   7 12747.6 741.804   2
  -4   7   6 362.586 262.595   2
  -4   7   5 4442.28 434.293   2
  -4   7   4 1808.06 292.935   2
  -4   7   3 40584.6 1360.06   2
  -4   7   2 9154.08 575.402   2
  -4   7   1 6472.08 477.478   2
  -4   7   1 7086.53 403.538   1
  -4   7   0 8767.62 554.020   2
  -4   7   0 9307.74 490.259   1
  -4   7  -1 27636.0 1053.97   2
  -4   7  -1 26704.6 947.279   1
  -4   7  -2 11576.2 659.774   2
  -4   7  -2 12446.0 621.054   1
  -4   7  -3 26562.5 1002.02   1
  -4   7  -4 457.629 234.595   1
  -4   7  -5 1320.27 267.813   1
  -4   7  -6 8408.07 578.590   1
   4   8  -6 6233.00 501.732   1
  -4   8   6 5844.83 520.043   2
   4   8  -5 10121.5 627.576   1
  -4   8   5 10000.3 653.400   2
  -4   8   4 3975.81 433.765   2
  -4   8   3 9870.09 639.194   2
  -4   8   2 19254.8 893.226   2
  -4   8   1 3815.36 397.760   2
  -4   8   0 10077.0 636.886   2
  -4   8  -1 1355.80 244.078   1
  -4   8  -1 871.633 239.755   2
  -4   8  -2 3470.58 355.347   1
  -4   8  -2 3171.57 373.805   2
  -4   8  -3 6481.57 493.990   1
  -4   8  -4 5887.14 486.227   1
  -4   8  -5 15301.4 809.261   1
   4   9  -5 2237.60 357.068   1
   4   9  -4 7609.90 554.060   1
   4   9  -3 1920.96 302.512   1
  -4   9   3 2691.44 404.376   2
  -4   9   2 727.550 269.905   2
   4   9  -2 616.265 219.168   1
  -4   9   1 6912.70 564.049   2
  -4   9   0 3023.61 377.340   2
  -4   9  -3 4643.61 450.095   1
  -4   9  -4 23972.9 1040.88   1
   5  -7   5 18647.0 867.109   5
   5  -7   6 4395.13 443.426   5
   5  -6   5 3205.52 366.659   5
   5  -6   6 13277.4 733.223   5
   5  -6   7 3124.53 424.862   5
   5  -5   5 2140.45 318.782   5
   5  -5   6 10160.5 648.563   5
   5  -5   7 2690.21 395.582   5
  -5  -4  11 11567.1 704.591   4
  -5  -4  10 1544.50 292.502   4
  -5  -4   9 1955.14 298.738   4
  -5  -4   8 1556.55 258.216   4
  -5  -4   7 13032.7 610.557   4
   5  -4   5 5419.96 450.376   5
   5  -4   6 3110.92 382.392   5
   5  -4   7 5245.93 493.588   5
   5  -4   8 13657.8 787.265   5
  -5  -3  11 4246.29 457.223   4
  -5  -3  10 14510.3 748.628   4
  -5  -3   9 16127.7 762.321   4
  -5  -3   9 16055.7 710.421   3
  -5  -3   8 31500.6 1093.50   4
  -5  -3   8 31881.1 1079.19   3
  -5  -3   7 6561.40 443.284   4
  -5  -3   7 5928.57 432.683   3
  -5  -3   6 4047.06 348.779   3
  -5  -3   5 3962.97 365.483   3
  -5  -3   4 5569.00 399.447   3
  -5  -3   3 6175.02 415.798   3
  -5  -3   2 11900.6 585.817   3
  -5  -3   1 6211.70 418.300   3
  -5  -3   0 69314.7 1815.26   3
   5  -3   6 8224.08 556.510   5
   5  -3   7 5410.00 492.762   5
   5  -3   8 11683.9 702.370   5
  -5  -2  11 11944.0 716.772   4
  -5  -2  10 7522.06 555.651   4
  -5  -2   9 28840.9 1084.96   4
  -5  -2   9 28618.4 999.029   3
  -5  -2   8 9895.74 570.874   4
  -5  -2   8 10402.8 567.830   3
  -5  -2   7 44622.2 1341.62   3
  -5  -2   7 42887.2 1321.14   4
  -5  -2   6 54152.8 1539.72   3
  -5  -2   5 28574.0 985.523   3
  -5  -2   4 8681.02 500.297   3
  -5  -2   3 50241.9 1425.44   3
  -5  -2   2 7002.37 294.083   2
  -5  -2   2 6435.02 421.008   3
  -5  -2   1 32937.6 781.635   2
  -5  -2   1 31363.4 1027.23   3
  -5  -2   0 4960.57 181.433   2
  -5  -2   0 4849.95 348.219   3
  -5  -2  -1 33563.0 704.313   2
  -5  -2  -1 36498.9 1079.37   3
  -5  -2  -2 5957.51 393.252   3
   5  -2   6 10582.3 623.755   5
   5  -2   7 8762.14 596.203   5
   5  -2   8 1025.10 325.819   5
  -5  -1  11 10251.0 682.339   4
  -5  -1  10 1755.63 286.043   3
  -5  -1  10 1443.32 303.402   4
  -5  -1   9 9500.57 589.919   4
  -5  -1   9 8645.86 578.913   3
  -5  -1   8 29528.5 1057.37   4
  -5  -1   8 27503.9 1102.98   3
  -5  -1   7 15506.2 706.585   4
  -5  -1   7 15402.8 797.377   3
  -5  -1   6 93238.1 2213.00   2
  -5  -1   6 88185.9 2426.61   3
  -5  -1   5 91746.4 2118.97   2
  -5  -1   5 84675.6 2358.24   3
  -5  -1   4 53263.1 1343.40   2
  -5  -1   4 50156.7 1597.96   3
  -5  -1   3 32932.2 901.933   2
  -5  -1   3 32001.9 1160.39   3
  -5  -1   2 130610. 2737.81   2
  -5  -1   2 126384. 3058.36   3
  -5  -1   1 25380.9 685.107   2
  -5  -1   1 25618.8 929.265   3
  -5  -1   0 19049.2 535.622   2
  -5  -1   0 19543.2 754.090   3
  -5  -1  -1 53081.8 1171.70   2
  -5  -1  -1 50487.4 1417.11   3
  -5  -1  -2 8327.58 295.513   2
  -5  -1  -2 8365.49 447.979   3
  -5  -1  -3 11437.2 369.518   2
  -5  -1  -3 10663.0 509.419   3
  -5  -1  -4 31624.6 978.247   3
   5  -1   5 2731.09 335.455   5
   5  -1   6 21133.6 889.692   5
   5  -1   7 18736.5 867.340   5
   5  -1   8 10625.0 663.870   5
   5  -1   9 1983.99 375.351   5
  -5   0  11 42812.8 1490.24   4
  -5   0  10 5969.71 516.858   4
  -5   0   9 438.011 250.255   4
  -5   0   8 98769.0 2483.03   2
  -5   0   8 99873.3 2521.80   4
  -5   0   7-19.3161 162.078   4
  -5   0   7 461.460 220.319   2
  -5   0   6 42623.0 1251.12   2
  -5   0   5 871.949 191.353   2
  -5   0   4 10395.8 471.489   2
  -5   0   3 58998.5 1454.33   2
  -5   0   2 220270. 4528.49   2
  -5   0   1 19056.2 599.405   2
  -5   0   0 1152.97 138.924   2
  -5   0  -1 154.831 87.3763   2
  -5   0  -1 157.537 194.417   3
  -5   0  -2 42115.9 1049.14   2
  -5   0  -2 43032.0 1258.35   3
  -5   0  -3 9462.89 377.769   2
  -5   0  -3 8825.59 462.012   3
  -5   0  -4 5133.23 341.091   3
   5   0   5 134979. 3248.14   5
  -5   0  -5 143017. 3088.20   3
   5   0   6 45114.9 1423.57   5
   5   0   7 2005.94 336.018   5
  -5   0  -7 1360.59 281.697   1
  -5   0  -8 1097.64 268.281   1
   5   0   8 1664.89 324.901   5
   5   0   9 8866.43 609.398   5
  -5   0  -9 8850.93 575.157   1
  -5   0 -10 4416.27 453.959   1
   5   1 -12 6479.57 504.343   1
  -5   1  11 10394.6 679.027   4
  -5   1  10 1517.27 327.110   4
  -5   1  10 1840.23 320.715   2
  -5   1   9 7763.62 540.709   2
  -5   1   9 9066.94 594.250   4
  -5   1   8 27256.5 1030.95   2
  -5   1   8 29781.0 1076.36   4
  -5   1   7 16398.7 724.483   2
  -5   1   7 15538.3 723.646   4
  -5   1   6 87755.5 2173.64   2
  -5   1   5 91773.8 2213.74   2
  -5   1   4 53283.4 1412.86   2
  -5   1   3 31678.7 949.207   2
  -5   1   2 127933. 2813.48   2
  -5   1   1 26144.4 790.502   2
  -5   1   0 19321.8 637.155   2
  -5   1  -1 51539.5 1287.72   2
  -5   1  -2 8058.65 380.036   2
  -5   1  -3 11962.6 635.122   3
  -5   1  -4 34842.7 1070.59   3
  -5   1  -5 2772.79 253.643   3
  -5   1  -5 2169.00 303.314   1
   5   1   5 2550.49 310.757   5
   5   1   6 19371.7 844.070   5
  -5   1  -6 21348.0 863.976   1
   5   1   7 18797.6 854.470   5
  -5   1  -7 18673.1 830.825   1
   5   1   8 11847.4 698.368   5
  -5   1  -8 12428.7 690.133   1
   5   1   9 2143.82 336.779   5
  -5   1  -9 1885.76 309.957   1
   5   2 -12 979.779 311.292   1
   5   2 -11 13102.1 716.949   1
  -5   2  11 12288.9 760.918   2
  -5   2  11 12288.8 752.734   4
  -5   2  10 7509.79 574.315   2
  -5   2  10 7462.80 565.662   4
  -5   2   9 27876.6 1097.89   2
  -5   2   9 28972.4 1113.32   4
  -5   2   8 9587.13 590.108   2
  -5   2   8 10544.1 618.773   4
  -5   2   7 41819.7 1327.05   2
  -5   2   7 44388.8 1374.00   4
  -5   2   6 55588.5 1566.67   2
  -5   2   5 27652.8 947.305   2
  -5   2   4 7896.26 449.122   2
  -5   2   3 50531.1 1370.10   2
  -5   2   2 7043.32 402.288   2
  -5   2   1 31014.8 936.334   2
  -5   2   0 5205.19 330.832   2
  -5   2  -1 37176.5 1055.77   2
  -5   2  -2 5807.25 351.033   2
  -5   2  -3 19317.2 770.424   1
   5   2   4 24247.3 876.471   5
  -5   2  -4 25160.8 926.559   1
   5   2   5 12884.5 628.903   5
  -5   2  -5 13234.1 666.794   1
  -5   2  -5 13841.1 624.701   3
   5   2   6 10373.8 591.336   5
  -5   2  -6 9772.53 584.285   1
   5   2   7 7631.15 532.979   5
  -5   2  -7 8824.61 565.545   1
  -5   2  -8 530.179 230.467   1
   5   2   8 258.690 210.043   5
  -5   2  -9 7050.08 553.514   1
   5   3 -11 4273.21 461.221   1
  -5   3  10 14875.1 823.370   2
  -5   3  10 15621.9 825.163   4
  -5   3   9 16342.0 815.818   2
  -5   3   9 15151.4 787.539   4
  -5   3   8 29619.2 1114.30   2
  -5   3   8 31326.9 1139.28   4
  -5   3   7 5786.24 445.035   2
  -5   3   6 4259.62 372.228   2
  -5   3   5 2951.55 327.342   2
  -5   3   4 5642.85 398.524   2
  -5   3   3 6489.84 420.271   2
  -5   3   2 11549.7 548.472   2
  -5   3   1 5996.31 394.246   2
  -5   3   0 71171.4 1793.45   2
  -5   3  -1 23986.5 831.785   2
  -5   3  -2 14697.3 616.255   2
  -5   3  -2 13257.7 626.494   1
  -5   3  -3 4656.95 384.253   1
   5   3   4 39252.2 1187.00   5
  -5   3  -4 40228.0 1275.91   1
  -5   3  -5 4171.74 404.617   1
   5   3   5 4698.84 372.494   5
  -5   3  -6 7484.33 530.447   1
   5   3   6 7807.96 500.672   5
  -5   3  -7 5494.93 465.893   1
   5   3   7 5143.65 427.438   5
  -5   3  -8 12421.1 728.545   1
  -5   4  10 1457.28 322.238   4
  -5   4  10 1257.75 287.908   2
  -5   4   9 1474.66 297.047   4
  -5   4   9 1660.11 331.704   2
  -5   4   8 1500.62 297.549   2
  -5   4   7 10940.8 639.216   2
  -5   4   6 43331.8 1385.02   2
  -5   4   5 21843.4 878.715   2
  -5   4   4 38515.6 1233.03   2
  -5   4   3 46375.0 1380.06   2
  -5   4   2 603.448 203.902   2
  -5   4   1 2279.62 275.132   2
  -5   4   0 11276.4 563.341   2
  -5   4  -1 630.952 217.818   1
  -5   4  -1 821.875 224.514   2
  -5   4  -2 10352.0 541.114   2
  -5   4  -2 9832.79 540.235   1
   5   4   3 33988.6 1027.11   5
  -5   4  -3 33910.4 1139.68   1
   5   4   4 8949.91 481.300   5
  -5   4  -4 9938.74 582.003   1
  -5   4  -5 5942.51 471.304   1
   5   4   5 5347.70 389.834   5
   5   4   6 3975.90 356.489   5
  -5   4  -6 3763.17 397.089   1
  -5   4  -7 4980.27 470.848   1
  -5   4  -8 14806.1 818.842   1
  -5   5   9 15093.4 821.400   2
  -5   5   8 5627.74 506.055   2
  -5   5   7 10423.5 649.386   2
  -5   5   6 9828.84 616.645   2
  -5   5   5 118349. 2922.81   2
  -5   5   4 26012.3 998.848   2
  -5   5   3 30409.2 1083.48   2
  -5   5   2 61294.7 1724.10   2
  -5   5   1 8121.79 502.322   2
  -5   5   0 1076.80 256.515   2
  -5   5  -1 19912.9 825.875   2
  -5   5  -1 20065.7 797.880   1
  -5   5  -2 3352.65 348.426   1
  -5   5  -2 3608.14 369.272   2
  -5   5  -3 20666.9 858.351   1
  -5   5  -4 8060.34 548.717   1
  -5   5  -5 1946.94 310.234   1
  -5   5  -6 10431.8 668.571   1
  -5   5  -7 2427.97 381.227   1
  -5   6   8 7178.39 562.845   2
  -5   6   7 35094.7 1310.94   2
  -5   6   6 4306.60 450.695   2
  -5   6   5 9216.41 607.227   2
  -5   6   4 549.365 243.423   2
  -5   6   3 15635.9 763.084   2
  -5   6   2 70750.8 1972.61   2
  -5   6   1 31238.4 1133.38   2
  -5   6   0 114.932 213.990   2
  -5   6  -1 20310.3 874.749   2
  -5   6  -1 21680.1 846.305   1
  -5   6  -2 17362.9 814.098   2
  -5   6  -2 17131.8 777.143   1
  -5   6  -3 287.355 208.809   1
  -5   6  -4 3420.47 396.044   1
  -5   6  -5 3653.43 411.845   1
  -5   6  -6 14136.8 786.619   1
  -5   7   6 30990.6 1231.01   2
  -5   7   5 28814.6 1163.48   2
  -5   7   4 437.102 260.326   2
  -5   7   3 23597.1 1013.17   2
  -5   7   2 3820.12 420.667   2
  -5   7   1 7660.86 550.598   2
  -5   7   0 2435.95 341.282   2
  -5   7   0 2422.59 299.425   1
  -5   7  -1 5500.43 429.690   1
  -5   7  -1 5883.18 478.282   2
  -5   7  -2 8194.96 568.475   2
  -5   7  -2 8414.08 540.942   1
  -5   7  -3 16321.6 836.837   2
  -5   7  -3 16570.7 801.814   1
  -5   7  -4 4445.89 428.354   1
  -5   7  -5 19203.3 932.213   1
  -5   8   3 2152.22 384.701   2
  -5   8   2 5630.95 495.539   2
  -5   8   1 11507.9 720.203   2
  -5   8   0 3115.81 412.483   2
  -5   8  -1 25292.8 1096.37   2
  -5   8  -1 24075.1 960.381   1
  -5   8  -2 590.562 240.722   1
  -5   8  -3 14707.0 773.512   1
  -5   8  -4 6270.33 527.479   1
  -5   9  -3 403.202 246.377   1
   6  -6   5 1076.07 319.267   5
   6  -5   5 310.265 251.594   5
  -6  -4  11 2766.80 373.556   4
  -6  -4  10 16058.3 811.334   4
  -6  -4   8 9531.78 584.573   3
  -6  -4   7 17107.9 807.571   3
  -6  -4   6 17265.7 802.846   3
  -6  -4   5 18987.0 840.341   3
  -6  -4   4 19191.2 847.875   3
  -6  -4   3 1975.74 283.095   3
   6  -4   6 1891.32 345.404   5
  -6  -3  11 18111.9 920.000   4
  -6  -3  10 11626.3 706.590   4
  -6  -3   9 958.042 259.118   3
  -6  -3   9 1312.01 265.107   4
  -6  -3   8 3697.13 408.606   3
  -6  -3   7 2248.07 314.649   3
  -6  -3   6 20813.0 884.107   3
  -6  -3   5 3115.95 360.890   3
  -6  -3   4 4732.71 411.686   3
  -6  -3   3 62996.3 1779.30   3
  -6  -3   2 64913.7 1813.85   3
  -6  -3   1 64307.8 1798.78   3
  -6  -3   0 26723.0 994.883   3
   6  -3   6 20835.5 958.013   5
  -6  -2  10 7330.75 555.956   4
  -6  -2   9 13122.9 711.924   4
  -6  -2   9 11352.3 641.759   3
  -6  -2   8 1988.63 297.286   3
  -6  -2   7 3705.06 369.435   3
  -6  -2   6 12699.2 671.205   3
  -6  -2   5 11915.4 646.205   3
  -6  -2   4 43977.2 1384.88   3
  -6  -2   3 87305.5 2259.77   3
  -6  -2   2 47835.7 1455.48   3
  -6  -2   1 4668.04 404.644   3
  -6  -2   0 30080.9 1054.39   3
  -6  -2  -1 14747.0 684.906   3
  -6  -2  -2 28890.8 1014.66   3
  -6  -2  -3 18330.5 776.742   3
   6  -2   6 9898.69 631.129   5
   6  -2   7 15013.4 819.873   5
  -6  -1  10 3509.58 392.561   3
  -6  -1  10 4160.09 446.752   4
  -6  -1   9 6036.26 550.094   3
  -6  -1   9 5831.60 479.948   4
  -6  -1   8 2464.12 374.934   3
  -6  -1   7 3992.79 494.611   3
  -6  -1   6 17921.6 728.405   2
  -6  -1   6 19399.4 930.343   3
  -6  -1   5 83225.8 2021.14   2
  -6  -1   5 81504.3 2321.11   3
  -6  -1   4 78325.6 1895.90   2
  -6  -1   4 79681.9 2252.51   3
  -6  -1   3 503.641 353.151   3
  -6  -1   3 367.927 145.905   2
  -6  -1   2 72911.6 1695.30   2
  -6  -1   2 73863.0 2032.03   3
  -6  -1   1 2687.16 365.217   3
  -6  -1   1 2683.46 200.615   2
  -6  -1   0 9755.83 578.039   3
  -6  -1  -1 8383.61 522.324   3
  -6  -1  -2 13070.8 634.644   3
  -6  -1  -3 9460.14 527.734   3
  -6  -1  -4 14629.7 663.713   3
   6  -1   6 1389.49 312.194   5
   6  -1   7 7495.50 583.900   5
  -6   0  10 39777.4 1431.72   4
  -6   0   9 18111.2 869.276   4
  -6   0   9 16471.0 818.307   2
  -6   0   8 20680.3 877.217   2
  -6   0   7 2255.64 303.561   2
  -6   0   6 3880.40 339.972   2
  -6   0   5-48.4944 144.318   2
  -6   0   4 44390.5 1243.36   2
  -6   0   3 425.244 153.662   2
  -6   0   2 6373.98 347.438   2
  -6   0   1 940.172 156.550   2
  -6   0   0 59637.9 1429.59   2
  -6   0   0 57302.5 1791.72   3
  -6   0  -1 50248.0 1252.13   2
  -6   0  -1 52192.1 1572.01   3
  -6   0  -2 56288.4 1368.79   2
  -6   0  -2 58409.7 1629.18   3
  -6   0  -3 749.574 229.740   3
  -6   0  -4 83654.3 2098.19   3
   6   0   5 9990.90 608.899   5
  -6   0  -5 9175.75 504.291   3
   6   0   6 12819.7 702.178   5
   6   0   7 3282.19 392.399   5
  -6   1  10 3777.67 437.650   4
  -6   1  10 3280.04 427.364   2
  -6   1   9 5925.99 478.410   2
  -6   1   8 1977.79 308.014   2
  -6   1   7 3239.37 351.462   2
  -6   1   6 18071.4 761.174   2
  -6   1   5 82523.1 2082.55   2
  -6   1   4 76344.7 1922.84   2
  -6   1   3 262.273 170.332   2
  -6   1   2 72366.9 1787.39   2
  -6   1   1 2788.67 255.665   2
  -6   1   0 8927.32 426.510   2
  -6   1  -1 9339.31 434.944   2
  -6   1  -2 12969.5 523.340   2
  -6   1  -2 11116.2 705.774   3
  -6   1  -3 10898.5 485.792   2
  -6   1  -3 11597.1 650.550   3
  -6   1  -4 14942.3 671.433   3
   6   1   5 20077.4 879.047   5
  -6   1  -5 20614.3 770.730   3
   6   1   6 1398.15 288.003   5
   6   1   7 8030.41 583.879   5
   6   1   8 11248.7 720.773   5
  -6   2  10 7248.77 564.280   2
  -6   2  10 7174.47 593.990   4
  -6   2   9 11358.3 686.082   2
  -6   2   8 2228.24 316.386   2
  -6   2   7 3596.89 369.082   2
  -6   2   6 11439.5 616.340   2
  -6   2   5 12002.4 611.398   2
  -6   2   4 41791.2 1268.33   2
  -6   2   3 89102.1 2192.82   2
  -6   2   2 45193.4 1291.89   2
  -6   2   1 5098.15 357.719   2
  -6   2   0 31255.8 979.890   2
  -6   2  -1 14692.0 606.656   2
  -6   2  -2 31946.8 991.222   2
  -6   2  -3 18596.9 708.720   2
  -6   2  -4 25395.5 1056.46   3
   6   2   5 12328.1 658.586   5
   6   2   6 9580.81 611.188   5
  -6   2  -6 8702.10 583.263   1
   6   2   7 14205.3 771.492   5
  -6   2  -7 14688.5 782.313   1
   6   2   8 7188.13 555.418   5
  -6   3   9 1533.32 293.411   2
  -6   3   8 3325.53 389.300   2
  -6   3   7 1561.62 303.406   2
  -6   3   6 19840.9 856.073   2
  -6   3   5 2334.67 305.992   2
  -6   3   4 4478.11 400.151   2
  -6   3   3 63164.8 1729.74   2
  -6   3   2 64132.8 1730.29   2
  -6   3   1 64389.5 1721.94   2
  -6   3   0 26742.1 931.584   2
  -6   3  -1 2436.90 289.082   2
  -6   3  -2 49058.1 1405.44   2
  -6   3  -3 29410.7 1000.46   2
   6   3   4 10544.6 574.293   5
  -6   3  -4 9970.07 608.892   1
   6   3   5 11647.1 636.977   5
  -6   3  -5 11593.6 676.371   1
   6   3   6 19826.9 876.707   5
  -6   3  -6 19471.1 913.738   1
   6   3   7 6088.70 505.304   5
   6   3   8 2768.39 360.050   5
  -6   4   8 10596.9 676.266   2
  -6   4   7 16342.8 817.913   2
  -6   4   6 16615.6 803.472   2
  -6   4   5 20267.0 884.197   2
  -6   4   4 18847.9 826.447   2
  -6   4   3 2751.33 321.757   2
  -6   4   2 48646.8 1467.94   2
  -6   4   1 3994.18 373.454   2
  -6   4   0 12462.2 624.128   2
  -6   4  -1 30194.1 1057.36   2
  -6   4  -2 635.717 204.781   2
  -6   4  -3 11255.7 612.621   2
   6   4   3 10871.2 555.882   5
  -6   4  -3 11226.4 641.073   1
   6   4   4 1035.35 237.746   5
  -6   4  -4 1246.98 290.854   1
  -6   4  -5 2866.43 384.710   1
   6   4   5 2088.91 278.265   5
   6   4   6 1838.10 285.845   5
  -6   4  -6 2454.59 353.473   1
   6   4   7 4513.51 451.840   5
  -6   5   7 2306.59 345.935   2
  -6   5   6 212.510 250.048   2
  -6   5   5 29661.7 1149.47   2
  -6   5   4 1183.35 281.032   2
  -6   5   3 7943.51 542.957   2
  -6   5   2 4499.52 414.930   2
  -6   5   1 30572.1 1111.87   2
  -6   5   0 526.456 193.710   2
  -6   5  -1 19688.7 858.894   2
  -6   5  -2 3335.51 348.393   2
  -6   5  -3 8949.09 561.107   2
  -6   5  -3 8986.57 573.770   1
  -6   5  -4 1552.85 308.530   2
  -6   5  -4 1774.00 318.347   1
  -6   5  -5 30.4251 190.646   1
  -6   6   6 20226.3 979.959   2
  -6   6   5 255.717 231.107   2
  -6   6   4 8984.06 613.659   2
  -6   6   3 16932.6 846.293   2
  -6   6   2 6426.35 513.183   2
  -6   6   1 4739.01 441.377   2
  -6   6   0 7592.77 546.096   2
  -6   6  -1 923.803 287.897   2
  -6   6  -2 8823.28 602.011   2
  -6   6  -2 8742.88 575.703   1
  -6   6  -3 1852.87 310.774   2
  -6   6  -3 2031.29 331.607   1
  -6   6  -4 753.585 262.418   2
  -6   6  -4 540.941 272.235   1
  -6   7   3 8265.21 606.793   2
  -6   7   2 1530.64 353.934   2
  -6   7   1 7437.54 565.308   2
  -6   7   0 1366.00 282.855   2
  -6   7  -1 6952.38 550.850   2
  -6   7  -2 346.527 232.496   1
  -6   7  -2 748.683 292.584   2
  -6   7  -3 2777.01 372.263   1
  -6   8  -2 13909.4 766.584   1
  -7  -4   8 164.417 270.404   3
  -7  -4   7 27535.1 1132.27   3
  -7  -4   6 7042.51 556.229   3
  -7  -4   5 22864.4 1014.13   3
  -7  -4   4 46426.4 1539.40   3
  -7  -4   3 2611.89 374.112   3
  -7  -3   9-132.156 299.086   3
  -7  -3   8 3043.25 410.655   3
  -7  -3   7 767.176 243.174   3
  -7  -3   6 4686.83 474.143   3
  -7  -3   5 812.196 233.177   3
  -7  -3   4 796.203 284.978   3
  -7  -3   3 2970.49 358.290   3
  -7  -3   2 66194.7 1932.04   3
  -7  -3   1 6511.60 497.536   3
  -7  -3   0 19483.7 880.117   3
  -7  -2  10 8477.08 616.306   3
  -7  -2   9 3179.03 396.146   3
  -7  -2   8 15168.6 794.705   3
  -7  -2   7 2352.67 376.979   3
  -7  -2   6 1127.37 257.817   3
  -7  -2   5 417.839 237.507   3
  -7  -2   4 13041.7 717.035   3
  -7  -2   3 1037.85 287.137   3
  -7  -2   2 6917.21 525.489   3
  -7  -2   1 31140.5 1158.88   3
  -7  -2   0 17952.2 829.993   3
  -7  -2  -1 17978.9 826.564   3
  -7  -2  -2 9402.69 593.488   3
  -7  -2  -3 2321.00 319.258   3
  -7  -1  10 27470.6 1193.00   3
  -7  -1   9 5908.96 555.132   3
  -7  -1   8 765.985 291.490   3
  -7  -1   7 12034.3 772.422   3
  -7  -1   6 8757.48 510.285   2
  -7  -1   6 8208.65 642.888   3
  -7  -1   5 6419.80 580.447   3
  -7  -1   5 5733.08 387.851   2
  -7  -1   4 57455.1 1814.11   3
  -7  -1   3 16180.1 837.097   3
  -7  -1   2 5935.01 497.293   3
  -7  -1   1 10134.5 641.259   3
  -7  -1   0 13166.1 710.206   3
  -7  -1  -1 14661.0 730.049   3
  -7  -1  -2 15363.9 737.393   3
  -7  -1  -3 1261.69 269.833   3
  -7  -1  -4 953.597 258.986   3
  -7   0  10 866.700 471.528   3
  -7   0   9 788.889 353.174   3
  -7   0   9 752.331 287.972   2
  -7   0   8 21569.9 935.346   2
  -7   0   7 193.872 219.574   2
  -7   0   6 1735.90 262.354   2
  -7   0   5 3424.19 320.991   2
  -7   0   4 7404.11 432.413   2
  -7   0   3 24692.8 831.411   2
  -7   0   3 22918.0 1158.52   3
  -7   0   2 17466.1 997.470   3
  -7   0   1 18745.2 960.941   3
  -7   0   0 3148.21 416.967   3
  -7   0  -1 39673.0 1360.33   3
  -7   0  -2 578.492 251.413   3
  -7   0  -3 1026.28 235.101   3
  -7   0  -4 7520.42 493.569   3
   7   0   5 2452.03 379.152   5
  -7   1   9 5318.11 489.944   2
  -7   1   8 1383.19 311.983   2
  -7   1   7 10805.5 618.811   2
  -7   1   6 8778.89 539.928   2
  -7   1   5 4661.67 378.139   2
  -7   1   4 55913.3 1561.17   2
  -7   1   3 16563.5 685.905   2
  -7   1   2 5048.18 354.007   2
  -7   1   1 10720.4 510.894   2
  -7   1  -1 16192.9 914.803   3
  -7   1  -2 15635.8 824.972   3
  -7   1  -3 1692.81 301.303   3
  -7   1  -4 1292.19 265.645   3
   7   1   5 33.1524 207.278   5
   7   1   6 2882.34 391.988   5
  -7   2   9 2106.91 366.407   2
  -7   2   8 16584.6 834.790   2
  -7   2   7 2163.25 334.067   2
  -7   2   6 1316.41 295.992   2
  -7   2   5 442.756 209.473   2
  -7   2   4 14415.0 692.157   2
  -7   2   3 990.417 228.718   2
  -7   2   2 6634.04 441.340   2
  -7   2   1 34026.8 1091.72   2
  -7   2   0 16426.9 686.800   2
  -7   2  -1 17805.6 715.496   2
  -7   2  -3 2698.19 446.339   3
  -7   2  -4 150.244 262.962   3
   7   2   5 157.793 238.791   5
   7   2   6 1435.86 338.514   5
  -7   3   8 3930.35 452.376   2
  -7   3   7 575.994 273.979   2
  -7   3   6 4433.88 433.107   2
  -7   3   5 287.549 218.265   2
  -7   3   4 751.017 224.213   2
  -7   3   3 3201.03 352.523   2
  -7   3   2 65903.7 1820.14   2
  -7   3   1 6539.18 466.148   2
  -7   3   0 19542.0 806.760   2
  -7   3  -1 11825.1 608.279   2
  -7   3  -2 4203.26 370.754   2
  -7   3  -3 1509.51 261.794   2
   7   3   4 2693.89 357.947   5
   7   3   5 5036.63 465.731   5
   7   3   6 2387.74 381.658   5
  -7   4   7 30179.3 1200.70   2
  -7   4   6 6837.33 546.759   2
  -7   4   5 22340.1 979.724   2
  -7   4   4 45956.5 1498.29   2
  -7   4   3 2108.51 307.368   2
  -7   4   2 12721.7 685.432   2
  -7   4   1 22600.9 931.300   2
  -7   4   0 2667.38 320.137   2
  -7   4  -1 1737.47 290.822   2
  -7   4  -2 3046.20 354.925   2
  -7   4  -3 786.751 248.318   2
  -7   4  -4 7050.53 523.444   2
  -7   5   5 10373.5 680.729   2
  -7   5   4 413.073 255.712   2
  -7   5   3 11512.0 680.361   2
  -7   5   2 5949.74 510.344   2
  -7   5   1 14661.2 753.396   2
  -7   5   0 8511.14 578.742   2
  -7   5  -1 1921.10 343.197   2
  -7   5  -2 543.294 270.366   2
  -7   5  -3 16385.0 807.505   2
  -7   5  -4 5534.42 504.507   2
  -7   5  -5 327.618 263.933   2
  -7   6   3 536.046 290.947   2
  -7   6   2 1418.37 316.204   2
  -7   6   1 2753.35 352.526   2
  -7   6   0 540.514 231.329   2
  -7   6  -1 677.602 271.000   2
  -7   6  -2 5738.20 530.110   2
  -8  -3   3 1486.36 347.616   3
  -8  -3   2 2707.08 412.760   3
  -8  -3   1 1494.73 297.341   3
  -8  -3   0 3446.97 418.468   3
  -8  -2   5 7552.97 585.928   3
  -8  -2   4 6133.39 559.545   3
  -8  -2   3 6634.87 569.806   3
  -8  -2   2 823.388 315.820   3
  -8  -2   1 5914.45 508.888   3
  -8  -2   0 4320.49 436.642   3
  -8  -2  -1 5050.31 473.703   3
  -8  -2  -2 5029.68 472.047   3
  -8  -1   6 8503.78 650.663   3
  -8  -1   5 27357.7 1199.59   3
  -8  -1   4 3140.82 445.641   3
  -8  -1   3 12743.1 794.183   3
  -8  -1   2 15661.3 856.191   3
  -8  -1   1 8826.71 634.462   3
  -8  -1   0 6474.47 531.878   3
  -8  -1  -1 1396.79 326.192   3
  -8  -1  -2 9520.61 624.040   3
  -8  -1  -3 5047.79 470.844   3
  -8  -1  -4 5688.35 501.881   3
  -8   0   6 548.396 379.136   3
  -8   0   5 1058.56 455.792   3
  -8   0   4 2683.50 457.083   3
  -8   0   3 13557.8 884.430   3
  -8   0   2 18790.2 995.861   3
  -8   0   1 4228.30 531.371   3
  -8   0   0 445.832 318.317   3
  -8   0  -1 4825.99 487.938   3
  -8   0  -2 7777.70 580.629   3
  -8   0  -3 4864.62 465.697   3
  -8   0  -4 140.193 243.905   3
  -8   1   8 10829.3 670.138   2
  -8   1   7 2777.07 381.531   2
  -8   1   6 7991.79 529.931   2
  -8   1   1 7959.81 719.065   3
  -8   1   0 7115.61 650.627   3
  -8   1  -1 1470.32 331.326   3
  -8   1  -2 10369.4 672.783   3
  -8   1  -3 6157.11 507.166   3
  -8   2   7 13663.9 770.862   2
  -8   2   6 2818.48 368.962   2
  -8   2   5 7045.15 516.401   2
  -8   2   4 5782.24 460.203   2
  -8   2   3 7420.46 507.398   2
  -8   2  -2 4951.66 595.252   3
  -8   2  -3 2240.88 408.762   3
  -8   3   6 3193.86 425.974   2
  -8   3   5 12601.7 723.520   2
  -8   3   4 1693.17 316.793   2
  -8   3   3 2094.45 305.952   2
  -8   3   2 2766.25 348.402   2
  -8   3   1 2055.72 312.752   2
  -8   3  -3 904.236 439.149   3
   8   3   4 2408.90 356.866   5
  -8   4   5 4015.71 432.888   2
  -8   4   4 106.097 211.982   2
  -8   4   3 1594.36 315.994   2
  -8   4   2 8549.02 593.546   2
  -8   4   1 4489.58 448.185   2
  -8   4   0 12148.4 691.287   2
  -8   5   2 13072.3 770.228   2
  -8   5   1 21457.9 997.774   2
  -8   5   0 199.984 275.375   2
  -8   5  -1 11192.1 689.368   2
   0   0   0    0.00    0.00   0
TITL zydTM in P2(1)
REM P2(1) (#4 in standard setting)
CELL 0.71073   7.187041   8.770182  11.015025  90.0000  98.1760  90.0000
ZERR    3.00   0.000354   0.000425   0.000575   0.0000   0.0046   0.0000
LATT -1
SYMM -x, y+1/2,-z
SFAC C H N O
UNIT 33.00 30.00 3.00 3.00
TREF
HKLF 4
END
;
_shelx_hkl_checksum              16137
_olex2_submission_special_instructions 'No special instructions were received'
loop_
_space_group_symop_operation_xyz
'x, y, z'
'-x, y+1/2, -z'
loop_
_atom_site_label
_atom_site_type_symbol
_atom_site_fract_x
_atom_site_fract_y
_atom_site_fract_z
_atom_site_U_iso_or_equiv
_atom_site_adp_type
_atom_site_occupancy
_atom_site_site_symmetry_order
_atom_site_calc_flag
_atom_site_refinement_flags_posn
O1 O 1.8303(2) 1.23615(19) 1.55436(14) 0.0225(4) Uani 1 1 d .
H1 H 1.8922 1.2297 1.4975 0.034 Uiso 1 1 calc GR
O2 O 2.2228(2) 1.3679(2) 1.59119(14) 0.0258(4) Uani 1 1 d .
O3 O 1.9362(2) 1.5733(2) 1.87587(13) 0.0232(4) Uani 1 1 d .
O4 O 1.9577(2) 1.63301(18) 1.62144(13) 0.0180(3) Uani 1 1 d .
O5 O 1.8434(2) 1.8698(2) 1.66547(15) 0.0272(4) Uani 1 1 d .
H5 H 1.8089 1.8740 1.5913 0.041 Uiso 1 1 calc GR
C6 C 1.8396(3) 1.5107(3) 1.56411(19) 0.0172(4) Uani 1 1 d .
H6 H 1.8507 1.5027 1.4767 0.021 Uiso 1 1 calc R
O7 O 2.1623(2) 1.3157(2) 1.77874(14) 0.0321(5) Uani 1 1 d .
O8 O 2.0875(2) 1.7947(2) 1.87737(16) 0.0361(5) Uani 1 1 d .
C9 C 1.5102(3) 1.6908(3) 1.76299(19) 0.0177(4) Uani 1 1 d .
H9 H 1.3998 1.6309 1.7291 0.021 Uiso 1 1 calc R
C10 C 1.8961(3) 1.3610(3) 1.63052(18) 0.0170(4) Uani 1 1 d .
C11 C 1.6813(3) 1.6214(2) 1.71083(18) 0.0148(4) Uani 1 1 d .
C12 C 1.7656(3) 1.4998(3) 1.80881(18) 0.0158(4) Uani 1 1 d .
C13 C 1.6421(3) 1.5548(3) 1.58185(18) 0.0171(4) Uani 1 1 d .
H13A H 1.5596 1.4669 1.5783 0.021 Uiso 1 1 calc R
H13B H 1.5892 1.6301 1.5223 0.021 Uiso 1 1 calc R
C14 C 1.9738(3) 1.7071(3) 1.8272(2) 0.0225(5) Uani 1 1 d .
C15 C 1.6284(3) 1.4939(3) 1.90332(19) 0.0214(5) Uani 1 1 d .
H15A H 1.5300 1.4193 1.8803 0.026 Uiso 1 1 calc R
H15B H 1.6933 1.4693 1.9843 0.026 Uiso 1 1 calc R
C16 C 1.6640(4) 1.2275(3) 1.7529(2) 0.0298(6) Uani 1 1 d .
H16A H 1.6975 1.1364 1.7127 0.045 Uiso 1 1 calc GR
H16B H 1.5516 1.2699 1.7082 0.045 Uiso 1 1 calc GR
H16C H 1.6428 1.2032 1.8348 0.045 Uiso 1 1 calc GR
C17 C 2.1105(3) 1.3505(3) 1.66179(19) 0.0215(5) Uani 1 1 d .
C18 C 1.4626(3) 1.8572(3) 1.7341(2) 0.0279(5) Uani 1 1 d .
H18A H 1.4563 1.8741 1.6475 0.042 Uiso 1 1 calc GR
H18B H 1.5581 1.9212 1.7774 0.042 Uiso 1 1 calc GR
H18C H 1.3434 1.8812 1.7591 0.042 Uiso 1 1 calc GR
C19 C 1.8556(3) 1.7206(3) 1.70211(19) 0.0177(4) Uani 1 1 d .
C20 C 1.8241(3) 1.3436(3) 1.75782(19) 0.0190(5) Uani 1 1 d .
C21 C 1.5480(3) 1.6554(3) 1.89993(19) 0.0217(5) Uani 1 1 d .
H21A H 1.4329 1.6589 1.9364 0.026 Uiso 1 1 calc R
H21B H 1.6379 1.7266 1.9426 0.026 Uiso 1 1 calc R
C22 C 1.9983(4) 1.2764(3) 1.8369(2) 0.0318(6) Uani 1 1 d .
H22A H 2.0111 1.3184 1.9191 0.038 Uiso 1 1 calc R
H22B H 1.9865 1.1665 1.8424 0.038 Uiso 1 1 calc R
loop_
_atom_site_aniso_label
_atom_site_aniso_U_11
_atom_site_aniso_U_22
_atom_site_aniso_U_33
_atom_site_aniso_U_23
_atom_site_aniso_U_13
_atom_site_aniso_U_12
O1 0.0230(8) 0.0213(8) 0.0255(8) -0.0063(7) 0.0112(6) -0.0038(7)
O2 0.0177(7) 0.0349(10) 0.0265(8) -0.0043(8) 0.0090(6) -0.0025(8)
O3 0.0207(8) 0.0310(9) 0.0171(7) -0.0008(7) -0.0004(6) -0.0023(7)
O4 0.0202(7) 0.0185(8) 0.0174(7) -0.0039(6) 0.0095(5) -0.0056(7)
O5 0.0369(9) 0.0188(8) 0.0286(8) -0.0006(7) 0.0138(7) -0.0044(8)
C6 0.0209(10) 0.0185(11) 0.0126(9) -0.0016(8) 0.0042(7) -0.0038(9)
O7 0.0231(8) 0.0514(14) 0.0222(8) 0.0046(8) 0.0043(6) 0.0113(8)
O8 0.0307(9) 0.0494(12) 0.0294(9) -0.0136(9) 0.0080(7) -0.0209(9)
C9 0.0154(9) 0.0179(11) 0.0210(10) -0.0006(9) 0.0067(8) -0.0006(9)
C10 0.0166(10) 0.0173(11) 0.0184(10) -0.0029(9) 0.0073(7) -0.0017(9)
C11 0.0167(9) 0.0132(10) 0.0152(10) -0.0004(8) 0.0046(7) -0.0007(9)
C12 0.0140(9) 0.0192(11) 0.0147(9) 0.0009(9) 0.0037(7) -0.0013(9)
C13 0.0198(10) 0.0175(11) 0.0139(10) 0.0000(9) 0.0022(7) -0.0019(9)
C14 0.0186(10) 0.0313(14) 0.0193(11) -0.0069(10) 0.0090(8) -0.0056(10)
C15 0.0244(11) 0.0239(12) 0.0177(10) 0.0026(10) 0.0093(8) 0.0025(10)
C16 0.0421(14) 0.0160(12) 0.0370(13) 0.0000(11) 0.0254(11) -0.0041(12)
C17 0.0201(10) 0.0217(12) 0.0230(10) -0.0040(10) 0.0043(8) 0.0011(10)
C18 0.0302(12) 0.0222(12) 0.0342(12) 0.0056(11) 0.0142(9) 0.0057(11)
C19 0.0204(10) 0.0174(11) 0.0167(10) -0.0017(9) 0.0081(8) -0.0017(9)
C20 0.0216(10) 0.0169(11) 0.0204(10) 0.0040(9) 0.0094(8) 0.0034(9)
C21 0.0237(11) 0.0242(13) 0.0190(11) -0.0008(9) 0.0093(8) 0.0023(10)
C22 0.0346(13) 0.0378(16) 0.0256(12) 0.0112(11) 0.0130(10) 0.0170(12)
loop_
_atom_type_symbol
_atom_type_description
_atom_type_scat_dispersion_real
_atom_type_scat_dispersion_imag
_atom_type_scat_source
C C 0.0033 0.0016 'International Tables Vol C Tables 4.2.6.8 and 6.1.1.4'
H H 0.0000 0.0000 'International Tables Vol C Tables 4.2.6.8 and 6.1.1.4'
O O 0.0106 0.0060 'International Tables Vol C Tables 4.2.6.8 and 6.1.1.4'
loop_
_geom_angle_atom_site_label_1
_geom_angle_atom_site_label_2
_geom_angle_atom_site_label_3
_geom_angle
C10 O1 H1 109.5
C14 O3 C12 112.46(17)
C19 O4 C6 109.98(15)
C19 O5 H5 109.5
O4 C6 H6 110.8
O4 C6 C10 109.05(16)
O4 C6 C13 104.83(17)
C10 C6 H6 110.8
C13 C6 H6 110.8
C13 C6 C10 110.40(17)
C17 O7 C22 110.35(17)
C11 C9 H9 106.8
C18 C9 H9 106.8
C18 C9 C11 117.66(18)
C18 C9 C21 113.88(19)
C21 C9 H9 106.8
C21 C9 C11 104.29(17)
O1 C10 C6 109.64(16)
O1 C10 C17 109.03(18)
O1 C10 C20 109.19(17)
C6 C10 C17 110.44(19)
C6 C10 C20 114.32(18)
C17 C10 C20 104.01(16)
C9 C11 C12 105.03(15)
C13 C11 C9 116.35(17)
C13 C11 C12 112.39(18)
C13 C11 C19 101.67(16)
C19 C11 C9 119.71(18)
C19 C11 C12 100.85(16)
O3 C12 C11 104.88(16)
O3 C12 C15 104.00(16)
O3 C12 C20 108.30(16)
C15 C12 C11 105.43(17)
C15 C12 C20 116.57(19)
C20 C12 C11 116.39(16)
C6 C13 C11 99.58(16)
C6 C13 H13A 111.9
C6 C13 H13B 111.9
C11 C13 H13A 111.9
C11 C13 H13B 111.9
H13A C13 H13B 109.6
O3 C14 C19 108.32(19)
O8 C14 O3 122.9(2)
O8 C14 C19 128.8(2)
C12 C15 H15A 111.1
C12 C15 H15B 111.1
H15A C15 H15B 109.1
C21 C15 C12 103.29(18)
C21 C15 H15A 111.1
C21 C15 H15B 111.1
H16A C16 H16B 109.5
H16A C16 H16C 109.5
H16B C16 H16C 109.5
C20 C16 H16A 109.5
C20 C16 H16B 109.5
C20 C16 H16C 109.5
O2 C17 O7 122.2(2)
O2 C17 C10 126.2(2)
O7 C17 C10 111.54(17)
C9 C18 H18A 109.5
C9 C18 H18B 109.5
C9 C18 H18C 109.5
H18A C18 H18B 109.5
H18A C18 H18C 109.5
H18B C18 H18C 109.5
O4 C19 C11 103.06(17)
O4 C19 C14 104.38(17)
O5 C19 O4 110.04(16)
O5 C19 C11 122.70(19)
O5 C19 C14 110.27(19)
C14 C19 C11 104.77(17)
C12 C20 C10 112.10(18)
C16 C20 C10 112.00(18)
C16 C20 C12 110.92(17)
C16 C20 C22 108.2(2)
C22 C20 C10 101.41(16)
C22 C20 C12 111.85(19)
C9 C21 C15 103.07(17)
C9 C21 H21A 111.2
C9 C21 H21B 111.2
C15 C21 H21A 111.2
C15 C21 H21B 111.2
H21A C21 H21B 109.1
O7 C22 C20 107.71(18)
O7 C22 H22A 110.2
O7 C22 H22B 110.2
C20 C22 H22A 110.2
C20 C22 H22B 110.2
H22A C22 H22B 108.5
loop_
_geom_bond_atom_site_label_1
_geom_bond_atom_site_label_2
_geom_bond_distance
O1 H1 0.8200
O1 C10 1.419(3)
O2 C17 1.208(3)
O3 C12 1.486(3)
O3 C14 1.334(3)
O4 C6 1.455(3)
O4 C19 1.450(2)
O5 H5 0.8200
O5 C19 1.369(3)
C6 H6 0.9800
C6 C10 1.529(3)
C6 C13 1.510(3)
O7 C17 1.325(3)
O7 C22 1.461(3)
O8 C14 1.198(3)
C9 H9 0.9800
C9 C11 1.554(3)
C9 C18 1.522(3)
C9 C21 1.526(3)
C10 C17 1.533(3)
C10 C20 1.570(3)
C11 C12 1.576(3)
C11 C13 1.525(3)
C11 C19 1.540(3)
C12 C15 1.533(3)
C12 C20 1.560(3)
C13 H13A 0.9700
C13 H13B 0.9700
C14 C19 1.517(3)
C15 H15A 0.9700
C15 H15B 0.9700
C15 C21 1.528(3)
C16 H16A 0.9600
C16 H16B 0.9600
C16 H16C 0.9600
C16 C20 1.532(3)
C18 H18A 0.9600
C18 H18B 0.9600
C18 H18C 0.9600
C20 C22 1.538(3)
C21 H21A 0.9700
C21 H21B 0.9700
C22 H22A 0.9700
C22 H22B 0.9700
loop_
_geom_torsion_atom_site_label_1
_geom_torsion_atom_site_label_2
_geom_torsion_atom_site_label_3
_geom_torsion_atom_site_label_4
_geom_torsion
O1 C10 C17 O2 68.5(3)
O1 C10 C17 O7 -110.0(2)
O1 C10 C20 C12 -141.23(18)
O1 C10 C20 C16 -15.8(2)
O1 C10 C20 C22 99.3(2)
O3 C12 C15 C21 80.1(2)
O3 C12 C20 C10 -85.44(19)
O3 C12 C20 C16 148.54(18)
O3 C12 C20 C22 27.7(2)
O3 C14 C19 O4 -80.70(19)
O3 C14 C19 O5 161.15(17)
O3 C14 C19 C11 27.3(2)
O4 C6 C10 O1 -160.74(15)
O4 C6 C10 C17 -40.6(2)
O4 C6 C10 C20 76.3(2)
O4 C6 C13 C11 -38.3(2)
C6 O4 C19 O5 -120.72(18)
C6 O4 C19 C11 11.7(2)
C6 O4 C19 C14 120.98(18)
C6 C10 C17 O2 -52.0(3)
C6 C10 C17 O7 129.5(2)
C6 C10 C20 C12 -18.0(2)
C6 C10 C20 C16 107.4(2)
C6 C10 C20 C22 -137.5(2)
O8 C14 C19 O4 97.3(3)
O8 C14 C19 O5 -20.9(3)
O8 C14 C19 C11 -154.7(2)
C9 C11 C12 O3 -103.65(17)
C9 C11 C12 C15 5.8(2)
C9 C11 C12 C20 136.70(18)
C9 C11 C13 C6 176.65(18)
C9 C11 C19 O4 -165.22(16)
C9 C11 C19 O5 -40.7(3)
C9 C11 C19 C14 85.8(2)
C10 C6 C13 C11 79.0(2)
C10 C20 C22 O7 22.3(3)
C11 C9 C21 C15 -39.7(2)
C11 C12 C15 C21 -30.0(2)
C11 C12 C20 C10 32.3(2)
C11 C12 C20 C16 -93.7(2)
C11 C12 C20 C22 145.46(18)
C12 O3 C14 O8 168.6(2)
C12 O3 C14 C19 -13.3(2)
C12 C11 C13 C6 -62.2(2)
C12 C11 C19 O4 80.37(17)
C12 C11 C19 O5 -155.09(19)
C12 C11 C19 C14 -28.6(2)
C12 C15 C21 C9 43.4(2)
C12 C20 C22 O7 -97.4(2)
C13 C6 C10 O1 84.6(2)
C13 C6 C10 C17 -155.24(17)
C13 C6 C10 C20 -38.4(2)
C13 C11 C12 O3 128.93(18)
C13 C11 C12 C15 -121.62(19)
C13 C11 C12 C20 9.3(2)
C13 C11 C19 O4 -35.5(2)
C13 C11 C19 O5 89.1(2)
C13 C11 C19 C14 -144.41(18)
C14 O3 C12 C11 -5.8(2)
C14 O3 C12 C15 -116.26(19)
C14 O3 C12 C20 119.13(18)
C15 C12 C20 C10 157.80(17)
C15 C12 C20 C16 31.8(3)
C15 C12 C20 C22 -89.1(2)
C16 C20 C22 O7 140.2(2)
C17 O7 C22 C20 -20.1(3)
C17 C10 C20 C12 102.5(2)
C17 C10 C20 C16 -132.1(2)
C17 C10 C20 C22 -17.0(2)
C18 C9 C11 C12 147.92(19)
C18 C9 C11 C13 -87.1(2)
C18 C9 C11 C19 35.7(3)
C18 C9 C21 C15 -169.24(18)
C19 O4 C6 C10 -101.24(19)
C19 O4 C6 C13 17.0(2)
C19 C11 C12 O3 21.37(19)
C19 C11 C12 C15 130.82(18)
C19 C11 C12 C20 -98.3(2)
C19 C11 C13 C6 44.8(2)
C20 C10 C17 O2 -175.1(2)
C20 C10 C17 O7 6.4(3)
C20 C12 C15 C21 -160.83(17)
C21 C9 C11 C12 20.7(2)
C21 C9 C11 C13 145.65(19)
C21 C9 C11 C19 -91.5(2)
C22 O7 C17 O2 -170.4(2)
C22 O7 C17 C10 8.3(3)
