#------------------------------------------------------------------------------
#$Date: 2019-11-24 17:49:26 +0200 (Sun, 24 Nov 2019) $
#$Revision: 238906 $
#$URL: file:///home/coder/svn-repositories/cod/cif/1/55/55/1555571.cif $
#------------------------------------------------------------------------------
#
# This file is available in the Crystallography Open Database (COD),
# http://www.crystallography.net/
#
# All data on this site have been placed in the public domain by the
# contributors.
#
data_1555571
loop_
_publ_author_name
'Nagaraju, Karre'
'Chegondi, Rambabu'
'Chandrasekhar, Srivari'
_publ_section_title
;
 Expanding Diversity without Protecting Groups: (+)-Sclareolide to
 Indolosesquiterpene Alkaloid Mycoleptodiscin A and Analogues.
;
_journal_issue                   11
_journal_name_full               'Organic letters'
_journal_page_first              2684
_journal_page_last               2687
_journal_paper_doi               10.1021/acs.orglett.6b01145
_journal_volume                  18
_journal_year                    2016
_chemical_absolute_configuration rm
_chemical_formula_moiety         'C24 H35 N O5'
_chemical_formula_sum            'C24 H35 N O5'
_chemical_formula_weight         417.53
_chemical_melting_point          512
_chemical_name_systematic
(4aS,4bR,6R,10bR)-8,9-dimethoxy-1,1,4a,10b-tetramethyl-7-nitro-1,2,3,4,4a,4b,5,6,10b,11,12,12a,-dodecahydrochrysen-6-ol
_space_group_crystal_system      triclinic
_space_group_IT_number           1
_space_group_name_Hall           'P 1'
_space_group_name_H-M_alt        'P 1'
_atom_sites_solution_hydrogens   mixed
_audit_creation_method           SHELXL-2014/7
_cell_angle_alpha                99.814(10)
_cell_angle_beta                 95.953(9)
_cell_angle_gamma                107.509(10)
_cell_formula_units_Z            1
_cell_length_a                   5.9846(16)
_cell_length_b                   7.913(2)
_cell_length_c                   12.691(3)
_cell_measurement_reflns_used    3362
_cell_measurement_temperature    298(2)
_cell_measurement_theta_max      27.54
_cell_measurement_theta_min      2.762
_cell_volume                     557.0(2)
_computing_structure_refinement  'SHELXL-2014/7 (Sheldrick, 2014)'
_diffrn_ambient_temperature      298(2)
_diffrn_measured_fraction_theta_full 0.986
_diffrn_measured_fraction_theta_max 0.972
_diffrn_measurement_device_type  'Bruker APEX-II CCD'
_diffrn_measurement_method       '\f and \w scans'
_diffrn_radiation_type           MoK\a
_diffrn_radiation_wavelength     0.71073
_diffrn_reflns_av_R_equivalents  0.0510
_diffrn_reflns_av_unetI/netI     0.0747
_diffrn_reflns_Laue_measured_fraction_full 0.986
_diffrn_reflns_Laue_measured_fraction_max 0.972
_diffrn_reflns_limit_h_max       7
_diffrn_reflns_limit_h_min       -7
_diffrn_reflns_limit_k_max       10
_diffrn_reflns_limit_k_min       -10
_diffrn_reflns_limit_l_max       16
_diffrn_reflns_limit_l_min       -16
_diffrn_reflns_number            10537
_diffrn_reflns_point_group_measured_fraction_full 0.938
_diffrn_reflns_point_group_measured_fraction_max 0.902
_diffrn_reflns_theta_full        25.242
_diffrn_reflns_theta_max         27.540
_diffrn_reflns_theta_min         2.762
_exptl_absorpt_coefficient_mu    0.086
_exptl_absorpt_correction_type   none
_exptl_crystal_colour            colorless
_exptl_crystal_density_diffrn    1.245
_exptl_crystal_density_method    'not measured'
_exptl_crystal_description       block
_exptl_crystal_F_000             226
_exptl_crystal_size_max          0.32
_exptl_crystal_size_mid          0.30
_exptl_crystal_size_min          0.28
_refine_diff_density_max         0.243
_refine_diff_density_min         -0.329
_refine_diff_density_rms         0.091
_refine_ls_abs_structure_details
;
 Flack x determined using 1249 quotients [(I+)-(I-)]/[(I+)+(I-)]
 (Parsons, Flack and Wagner, Acta Cryst. B69 (2013) 249-259).
;
_refine_ls_abs_structure_Flack   0.4(6)
_refine_ls_extinction_method     none
_refine_ls_goodness_of_fit_ref   1.049
_refine_ls_hydrogen_treatment    mixed
_refine_ls_matrix_type           full
_refine_ls_number_parameters     281
_refine_ls_number_reflns         4642
_refine_ls_number_restraints     3
_refine_ls_restrained_S_all      1.048
_refine_ls_R_factor_all          0.0960
_refine_ls_R_factor_gt           0.0617
_refine_ls_shift/su_max          0.000
_refine_ls_shift/su_mean         0.000
_refine_ls_structure_factor_coef Fsqd
_refine_ls_weighting_details
'w=1/[\s^2^(Fo^2^)+(0.0696P)^2^+0.0721P] where P=(Fo^2^+2Fc^2^)/3'
_refine_ls_weighting_scheme      calc
_refine_ls_wR_factor_gt          0.1300
_refine_ls_wR_factor_ref         0.1429
_reflns_Friedel_coverage         0.856
_reflns_Friedel_fraction_full    0.890
_reflns_Friedel_fraction_max     0.832
_reflns_number_gt                3362
_reflns_number_total             4642
_reflns_threshold_expression     'I > 2\s(I)'
_cod_data_source_file            ol6b01145_si_002.cif
_cod_data_source_block           SCSKNNO2OH
_cod_depositor_comments
;
The following automatic conversions were performed:

data item '_chemical_melting_point' value '512K' was changed to '512'
-- the value should be numeric and without a unit designator.

Automatic conversion script
Id: cif_fix_values 6909 2019-04-08 15:41:33Z antanas 
;
_cod_database_code               1555571
_shelx_shelxl_version_number     2014/7
_shelx_space_group_comment
;
The symmetry employed for this shelxl refinement is uniquely defined
by the following loop, which should always be used as a source of
symmetry information in preference to the above space-group names.
They are only intended as comments.
;
_shelx_res_file
;

    shelx.res created by SHELXL-2014/7

TITL AN30VR_a.res in P1          New: P1
CELL  0.71073    5.9846    7.9130   12.6910    99.814    95.953   107.509
ZERR 1           0.0016    0.0020    0.0030     0.010     0.009     0.010
LATT -1
SFAC
SFAC C   2.3100 20.8439  1.0200 10.2075  1.5886  0.5687  0.8650 51.6512  =
        0.2156  0.0033  0.0016 11.5000 0.680 12.01000
SFAC
SFAC H   0.4930 10.5109  0.3229 26.1257  0.1402  3.1424  0.0408 57.7998  =
        0.0030  0.0000  0.0000  0.6240 0.350  1.00800
SFAC
SFAC N  12.2126  0.0057  3.1322  9.8933  2.0125 28.9975  1.1663  0.5826  =
       -11.5290  0.0061  0.0033 19.6000 0.680 14.01000
SFAC
SFAC O   3.0485 13.2771  2.2868  5.7011  1.5463  0.3239  0.8670 32.9089  =
        0.2508  0.0106  0.0060 32.5000 0.680 16.00000
UNIT 24 35 1 5
L.S. 300
ACTA
BOND $H
FMAP 2
PLAN 10
WGHT    0.069600    0.072100
FVAR       2.28090
O1    4    0.656742    0.994694    0.587422    11.00000    0.05228    0.02993 =
         0.07206    0.00950    0.00142    0.01170
O2    4    1.155168    0.957312    0.679962    11.00000    0.03983    0.04944 =
         0.06443    0.01750    0.01890    0.00112
O3    4    0.986856    1.089441    0.794406    11.00000    0.06264    0.03517 =
         0.08645   -0.01400   -0.00097    0.00682
O4    4    1.031519    0.783097    0.892960    11.00000    0.03615    0.05257 =
         0.03714   -0.00262   -0.00225    0.00974
O5    4    0.726433    0.449250    0.890630    11.00000    0.04685    0.05439 =
         0.03730    0.01860   -0.00454   -0.00311
N1    3    0.997167    0.957060    0.732975    11.00000    0.03614    0.03002 =
         0.04854    0.00412   -0.00307    0.00588
C1    1    0.182394    0.386003    0.118722    11.00000    0.07018    0.06958 =
         0.03561    0.01906    0.00705    0.03288
AFIX  23
H1B   2    0.272501    0.438490    0.066243    11.00000   -1.20000
H1C   2    0.023616    0.393248    0.103926    11.00000   -1.20000
AFIX   0
C2    1    0.167333    0.187974    0.105599    11.00000    0.06092    0.07162 =
         0.03128    0.00920    0.00591    0.03104
AFIX  23
H2A   2    0.326901    0.180781    0.110127    11.00000   -1.20000
H2B   2    0.081567    0.122962    0.033892    11.00000   -1.20000
AFIX   0
C3    1    0.044553    0.093012    0.190240    11.00000    0.04004    0.05271 =
         0.03554    0.00534    0.00340    0.02288
C4    1    0.162584    0.212587    0.304470    11.00000    0.02008    0.03721 =
         0.03207    0.00451    0.00366    0.01251
AFIX  13
H4    2    0.328575    0.216175    0.310040    11.00000   -1.20000
AFIX   0
C5    1    0.178519    0.416176    0.323183    11.00000    0.02251    0.03930 =
         0.03169    0.00875    0.00343    0.01874
C6    1    0.299516    0.494532    0.231838    11.00000    0.04640    0.04810 =
         0.04086    0.01879    0.00920    0.02320
AFIX  23
H6A   2    0.297504    0.617819    0.237289    11.00000   -1.20000
H6B   2    0.464297    0.499241    0.242807    11.00000   -1.20000
AFIX   0
C7    1    0.076564    0.129759    0.399037    11.00000    0.03453    0.03495 =
         0.04000    0.00603    0.00848    0.01122
AFIX  23
H7A   2   -0.080692    0.136567    0.405628    11.00000   -1.20000
H7B   2    0.065543    0.002876    0.384906    11.00000   -1.20000
AFIX   0
C8    1    0.245355    0.228775    0.504916    11.00000    0.03544    0.02905 =
         0.03539    0.00917    0.00233    0.00572
AFIX  23
H8A   2    0.399265    0.214305    0.499297    11.00000   -1.20000
H8B   2    0.185429    0.172793    0.563097    11.00000   -1.20000
AFIX   0
C9    1    0.277383    0.432265    0.534404    11.00000    0.01880    0.02594 =
         0.03173    0.00815    0.00908    0.00646
C10   1    0.343648    0.513875    0.433906    11.00000    0.01978    0.02919 =
         0.03185    0.00840    0.00388    0.01265
AFIX  13
H10   2    0.497330    0.498569    0.424354    11.00000   -1.20000
AFIX   0
C11   1    0.481448    0.529917    0.629830    11.00000    0.01751    0.02978 =
         0.03328    0.00681    0.00953    0.00894
C12   1    0.633982    0.704391    0.634032    11.00000    0.02412    0.02676 =
         0.03460    0.00651    0.00926    0.01124
C13   1    0.622617    0.808635    0.545236    11.00000    0.02952    0.02721 =
         0.04606    0.01118    0.00880    0.01260
AFIX  13
H13   2    0.754664    0.804527    0.506320    11.00000   -1.20000
AFIX   0
C14   1    0.396076    0.719717    0.463516    11.00000    0.03524    0.03521 =
         0.03805    0.01116    0.00519    0.02020
AFIX  23
H14A  2    0.412251    0.768966    0.398704    11.00000   -1.20000
H14B  2    0.264750    0.745832    0.493753    11.00000   -1.20000
AFIX   0
C15   1    0.509106    0.443445    0.715856    11.00000    0.02709    0.02882 =
         0.03582    0.00874    0.00753    0.00314
AFIX  43
H15   2    0.402988    0.328805    0.712997    11.00000   -1.20000
AFIX   0
C16   1    0.687682    0.521980    0.804508    11.00000    0.02979    0.04621 =
         0.02799    0.01057    0.00660    0.01205
C17   1    0.847197    0.695453    0.808535    11.00000    0.02808    0.03540 =
         0.02744   -0.00137    0.00302    0.00650
C18   1    0.813129    0.779838    0.725330    11.00000    0.02447    0.02441 =
         0.04131    0.00346    0.01050    0.00799
C19   1   -0.227386    0.049967    0.166430    11.00000    0.04781    0.07605 =
         0.05336   -0.00434   -0.01282    0.01509
AFIX 137
H19A  2   -0.292259   -0.042988    0.101762    11.00000   -1.50000
H19B  2   -0.262541    0.157401    0.156485    11.00000   -1.50000
H19C  2   -0.296391    0.008731    0.226243    11.00000   -1.50000
AFIX   0
C20   1    0.088523   -0.091300    0.180271    11.00000    0.07173    0.04995 =
         0.04721   -0.00207    0.00719    0.02360
AFIX 137
H20A  2   -0.008047   -0.162668    0.223089    11.00000   -1.50000
H20B  2    0.253016   -0.071279    0.205786    11.00000   -1.50000
H20C  2    0.047919   -0.154470    0.105742    11.00000   -1.50000
AFIX   0
C21   1    1.223934    0.710337    0.894876    11.00000    0.04209    0.08414 =
         0.06120    0.01028   -0.00962    0.02088
AFIX 137
H21A  2    1.165458    0.584633    0.898203    11.00000   -1.50000
H21B  2    1.342311    0.775858    0.957346    11.00000   -1.50000
H21C  2    1.292857    0.721807    0.830361    11.00000   -1.50000
AFIX   0
C22   1    0.582112    0.270009    0.889479    11.00000    0.05339    0.06412 =
         0.05121    0.02983   -0.00067    0.00263
AFIX 137
H22A  2    0.420163    0.266292    0.888915    11.00000   -1.50000
H22B  2    0.635942    0.232939    0.952918    11.00000   -1.50000
H22C  2    0.592532    0.189459    0.825824    11.00000   -1.50000
AFIX   0
C23   1   -0.062759    0.449956    0.320220    11.00000    0.03213    0.05879 =
         0.05015    0.00453    0.00076    0.02962
AFIX 137
H23A  2   -0.040085    0.568583    0.362236    11.00000   -1.50000
H23B  2   -0.169421    0.360400    0.349997    11.00000   -1.50000
H23C  2   -0.128841    0.441896    0.246586    11.00000   -1.50000
AFIX   0
C24   1    0.049128    0.452864    0.573455    11.00000    0.02745    0.05390 =
         0.04028    0.00166    0.01292    0.01377
AFIX 137
H24A  2    0.032859    0.411023    0.639840    11.00000   -1.50000
H24B  2   -0.086111    0.382229    0.519275    11.00000   -1.50000
H24C  2    0.058748    0.578144    0.585525    11.00000   -1.50000
AFIX   0
H1A   2    0.540956    0.997404    0.610460    11.00000    0.07879
HKLF 4

REM  AN30VR_a.res in P1          New: P1
REM R1 =  0.0617 for    3362 Fo > 4sig(Fo)  and  0.0960 for all    4642 data
REM    281 parameters refined using      3 restraints

END

WGHT      0.0693      0.0721

REM Highest difference peak  0.243,  deepest hole -0.329,  1-sigma level  0.091
Q1    1   1.2559  1.0194  0.8213  11.00000  0.05    0.24
Q2    1   0.5174  0.5153  0.1014  11.00000  0.05    0.24
Q3    1   0.2396  0.2656  0.7598  11.00000  0.05    0.23
Q4    1  -0.0590  0.3365  0.5563  11.00000  0.05    0.22
Q5    1   0.7078  0.8375  0.3986  11.00000  0.05    0.22
Q6    1  -0.2571  0.1249  0.2431  11.00000  0.05    0.22
Q7    1   0.0523  0.4948  0.6190  11.00000  0.05    0.22
Q8    1  -0.0392 -0.0217  0.4378  11.00000  0.05    0.22
Q9    1   0.2212  0.2963  0.7191  11.00000  0.05    0.22
Q10   1  -0.2506  0.3473  0.2934  11.00000  0.05    0.22
;
_shelx_res_checksum              52352
_shelx_hkl_file
;
   1   0   0 5884.01  248.18
   1   0   0 5909.41  248.18
  -2   0   0 3444.46  151.28
  -2   0   0 3546.75  151.38
   2   0   0 3688.33  151.48
   2   0   0 3644.84  151.38
  -3   0   0  400.46   19.70
  -3   0   0  406.06   20.10
   3   0   0  428.96   20.00
   3   0   0  422.86   20.10
  -4   0   0   61.19    9.80
  -4   0   0   72.99    8.80
   4   0   0   60.29    8.50
   4   0   0   67.19    8.80
  -5   0   0   96.69   12.70
   5   0   0  106.69   13.20
   5   0   0  138.29   16.40
   6   0   0  145.59   19.00
   6   0   0  143.19   24.10
  -7   0   0   50.59   16.40
   7   0   0   76.69   25.30
   7  -1   0   64.89   24.10
  -7   1   0   52.79   27.80
   6  -1   0    7.40   14.30
   6  -1   0   36.60   14.30
   6  -1   0   10.50   15.00
  -6   1   0    6.00   17.40
   5  -1   0  105.09   12.30
   5  -1   0  102.79   15.30
  -5   1   0   93.99   13.50
  -5   1   0  120.99   13.30
   4  -1   0  389.36   20.60
   4  -1   0  411.96   20.90
   4  -1   0  386.36   19.60
  -4   1   0  400.56   21.20
  -4   1   0  394.26   20.70
   3  -1   0 1141.19   49.80
   3  -1   0 1138.69   49.80
  -3   1   0 1151.18   49.90
  -3   1   0 1115.29   49.70
   2  -1   0 5177.28  217.58
   2  -1   0 5288.77  217.28
   2  -1   0 5075.39  217.48
   2  -1   0 5172.98  217.28
  -2   1   0 5132.89  217.18
  -2   1   0 4991.60  217.48
  -2   1   0 5244.38  217.48
   0  -1   0  797.82   33.50
   0  -1   0  789.02   33.40
   0   1   0  797.12   33.50
   0   1   0  755.92   33.40
  -1  -1   0  712.93   30.80
   2   1   0 1122.09   47.20
   2   1   0 1067.29   47.00
  -3  -1   0  154.48   10.70
   3   1   0  158.68   10.30
   3   1   0  166.28   10.40
  -4  -1   0   91.49   14.70
  -4  -1   0  126.99   12.00
   4   1   0  105.69   12.00
   4   1   0  114.69   12.40
  -5  -1   0  715.73   35.90
  -5  -1   0  685.73   35.40
  -5  -1   0  691.53   34.80
   5   1   0  711.83   35.10
  -6  -1   0   59.19   19.40
  -6  -1   0   81.09   14.40
   6   1   0   94.89   17.60
  -7  -1   0   -4.20   20.00
   7   1   0   26.50   29.40
   7  -2   0   15.50   22.70
   7  -2   0   58.29   23.50
  -7   2   0  110.49   26.00
   6  -2   0   99.09   15.00
   6  -2   0   98.69   17.70
   6  -2   0   99.09   22.00
  -6   2   0  118.39   17.90
  -6   2   0   73.29   15.30
   5  -2   0  500.45   25.80
   5  -2   0  508.95   26.10
   5  -2   0  485.15   26.90
   5  -2   0  522.55   28.00
  -5   2   0  504.95   27.20
  -5   2   0  546.25   28.00
   4  -2   0  563.34   28.00
   4  -2   0  575.54   27.00
   4  -2   0  602.64   28.00
  -4   2   0  573.34   28.10
   3  -2   0 1112.19   48.80
   3  -2   0 1081.79   48.80
   3  -2   0 1108.59   48.20
  -3   2   0 1255.87   50.19
  -3   2   0 1080.99   48.40
  -3   2   0 1026.60   48.60
  -3   2   0 1129.29   48.30
  -3   2   0 1078.59   48.70
   2  -2   0   -5.80    2.50
   2  -2   0   -4.30    3.20
   1  -2   0  182.18    9.00
   1  -2   0  184.28    9.30
  -1   2   0  189.88    9.00
  -1   2   0  202.08    9.40
  -1   2   0  186.48    9.10
   0  -2   0 2123.59   89.49
   0  -2   0 2005.90   89.39
   0   2   0 2196.78   89.49
   0   2   0 2102.59   89.39
  -1  -2   0  167.38    8.90
   1   2   0  171.98    9.70
   1   2   0  179.18    9.10
   1   2   0  180.58    9.10
  -2  -2   0  394.26   18.90
   2   2   0  409.56   19.40
  -3  -2   0  345.17   17.70
  -4  -2   0  266.97   17.20
   4   2   0  299.67   17.70
  -5  -2   0  490.05   28.40
  -6  -2   0   53.59   17.40
   7  -3   0   14.90   23.30
   7  -3   0   35.50   19.40
   7  -3   0   -6.20   21.50
  -7   3   0   65.99   24.00
   6  -3   0   18.70   14.10
   6  -3   0   38.40   15.40
   6  -3   0   11.30   13.70
  -6   3   0   31.60   14.20
  -6   3   0   31.00   15.20
   5  -3   0  538.95   29.40
   5  -3   0  585.44   29.80
  -5   3   0  538.95   27.90
  -5   3   0  579.24   30.20
  -5   3   0  556.84   29.80
   4  -3   0  560.14   26.10
   4  -3   0  549.95   27.10
   4  -3   0  538.75   27.30
   4  -3   0  589.64   26.60
  -4   3   0  542.25   27.30
  -4   3   0  527.35   27.20
  -4   3   0  574.44   26.40
  -4   3   0  544.55   26.20
   3  -3   0  623.74   28.10
   3  -3   0  608.24   28.20
  -3   3   0  584.34   28.10
  -3   3   0  585.44   27.50
  -3   3   0  606.64   28.10
  -3   3   0  625.84   27.60
   2  -3   0  546.05   24.70
   2  -3   0  536.85   25.00
   2  -3   0  534.45   24.80
  -2   3   0  539.95   24.70
  -2   3   0  575.34   25.20
   1  -3   0 3313.17  137.99
   1  -3   0 3175.98  137.29
  -1   3   0 3403.46  137.99
  -1   3   0 3116.09  137.19
   0  -3   0 5428.56  230.58
   0   3   0 5600.94  230.58
   0   3   0 5365.26  230.28
  -1  -3   0  222.28   12.20
  -1  -3   0  225.88   12.40
   1   3   0  227.78   12.80
   1   3   0  237.18   12.40
   1   3   0  274.77   13.90
  -2  -3   0   45.60    6.30
   2   3   0   49.30    9.20
  -3  -3   0  104.69   11.20
   3   3   0  113.59   13.60
  -4  -3   0  217.68   18.00
   4   3   0  238.38   20.10
  -5  -3   0    0.00   13.90
  -6  -3   0    8.20   20.30
   7  -4   0   -3.80   21.30
   7  -4   0    8.50   18.90
   7  -4   0   -7.00   19.60
  -7   4   0  -13.40   23.40
   6  -4   0   13.30   14.10
   6  -4   0   23.50   15.60
   6  -4   0   31.90   15.70
  -6   4   0   22.50   14.90
  -6   4   0   31.90   14.70
  -6   4   0   49.30   16.70
   5  -4   0   13.70   10.80
   5  -4   0   13.10   11.40
   5  -4   0   35.80    8.90
  -5   4   0   37.50   10.40
  -5   4   0   26.70   17.30
  -5   4   0   40.20   12.00
  -5   4   0   33.10   11.80
   4  -4   0  310.67   19.10
   4  -4   0  316.87   19.00
  -4   4   0  281.47   17.30
  -4   4   0  329.17   17.80
  -4   4   0  308.87   18.80
  -4   4   0  342.47   19.10
   3  -4   0 1084.99   50.19
   3  -4   0 1093.59   48.60
  -3   4   0 1092.19   48.70
  -3   4   0 1122.29   48.60
   2  -4   0 1737.33   74.79
   2  -4   0 1715.03   74.59
  -2   4   0 1712.13   74.79
  -2   4   0 1724.43   74.59
  -2   4   0 1820.82   75.39
   1  -4   0 4605.34  205.68
  -1   4   0 5134.19  206.28
   0  -4   0 4318.27  183.58
   0   4   0 4286.57  183.08
   0   4   0 4386.86  183.48
  -1  -4   0  225.08   14.10
  -1  -4   0  226.38   12.60
   1   4   0  242.98   13.50
   1   4   0  211.28   15.00
   1   4   0  215.48   12.80
  -2  -4   0  181.38   12.50
   2   4   0  179.48   14.70
   2   4   0  170.98   13.50
  -3  -4   0   41.90   10.20
   3   4   0   48.70   11.90
  -4  -4   0   64.59   16.20
   4   4   0   61.59   19.90
  -5  -4   0   26.70   20.30
   7  -5   0   69.39   23.10
   7  -5   0   78.99   29.60
  -7   5   0   86.29   40.50
  -7   5   0   62.79   22.60
   6  -5   0   -1.90   14.20
   6  -5   0   26.90   15.30
  -6   5   0   45.50   19.50
  -6   5   0   17.10   15.30
  -6   5   0  -12.10   16.50
   5  -5   0   56.19   12.90
   5  -5   0   62.89   12.70
  -5   5   0   80.59   13.00
  -5   5   0   55.49   14.40
  -5   5   0   62.19   11.80
  -5   5   0   76.99   17.30
  -5   5   0   66.09   14.60
   4  -5   0  462.25   25.00
   4  -5   0  463.85   24.90
  -4   5   0  486.95   25.00
  -4   5   0  445.96   24.30
  -4   5   0  421.16   23.20
   3  -5   0  863.61   39.20
   3  -5   0  870.61   39.30
  -3   5   0  835.02   39.10
  -3   5   0  876.31   39.80
  -3   5   0  854.81   39.00
   2  -5   0 1152.18   49.50
  -2   5   0 1118.19   49.50
  -2   5   0 1116.19   49.30
   1  -5   0   66.39    7.10
  -1   5   0   59.19    9.30
   0  -5   0    0.90    5.40
   0   5   0   -5.10    6.60
   0   5   0   12.60    8.80
  -1  -5   0   95.79   10.70
  -1  -5   0   94.29   11.60
   1   5   0  121.19   15.10
   1   5   0   75.29   11.90
   1   5   0   98.99   10.40
  -2  -5   0   82.39   13.60
   2   5   0   87.09   15.30
   2   5   0   97.79   12.90
  -3  -5   0   -2.50   15.90
   3   5   0   16.80   13.60
  -4  -5   0   15.50   17.20
  -5  -5   0   70.69   26.60
   7  -6   0   39.80   25.40
  -7   6   0   12.90   23.50
  -7   6   0   40.80   25.50
  -7   6   0   43.20   30.70
   6  -6   0  154.08   20.90
  -6   6   0  172.98   19.40
  -6   6   0  105.19   20.00
  -6   6   0  177.48   24.50
   5  -6   0   77.09   14.70
   5  -6   0   86.39   15.30
  -5   6   0   71.39   12.90
  -5   6   0  111.39   14.90
  -5   6   0  117.29   17.20
  -5   6   0   80.09   14.60
   4  -6   0  596.44   31.40
   4  -6   0  560.14   30.50
  -4   6   0  562.64   30.20
  -4   6   0  628.14   31.10
   3  -6   0  162.98   14.50
   3  -6   0  177.28   14.30
  -3   6   0  190.18   14.80
  -3   6   0  181.28   14.80
  -3   6   0  167.58   13.40
   2  -6   0  404.16   21.50
  -2   6   0  452.15   23.00
   1  -6   0   99.99   11.10
  -1   6   0  131.29   14.30
   0  -6   0  154.58   14.10
   0   6   0  161.88   18.40
   0   6   0  151.68   15.60
  -1  -6   0  682.33   32.80
   1   6   0  588.94   32.30
   1   6   0  629.44   33.90
   1   6   0  596.64   30.30
   2   6   0  110.19   15.30
   2   6   0   99.79   15.80
  -3  -6   0   96.09   19.20
  -4  -6   0   23.10   24.10
   7  -7   0   15.20   30.60
  -7   7   0   46.90   28.30
  -7   7   0   76.99   34.90
   6  -7   0  181.38   25.40
  -6   7   0  192.88   28.00
  -6   7   0  147.99   23.20
   5  -7   0  160.18   19.80
  -5   7   0  181.98   27.90
  -5   7   0  171.08   23.10
  -5   7   0  131.49   19.40
   4  -7   0   55.59   13.00
  -4   7   0   59.09   13.50
  -4   7   0   87.19   13.60
  -4   7   0   98.69   18.10
   3  -7   0   22.60    9.70
   3  -7   0   17.40    8.70
  -3   7   0   25.60   10.90
  -3   7   0   27.30    9.80
  -3   7   0   24.40   11.20
   2  -7   0   84.29   13.80
  -2   7   0  113.59   13.10
   1  -7   0   98.69   15.10
  -1   7   0  121.99   17.60
  -1   7   0  125.99   20.50
   0  -7   0  140.49   18.70
   0   7   0  138.79   23.40
   0   7   0  195.18   30.60
   1   7   0   73.79   18.00
   1   7   0   91.89   17.50
  -2  -7   0   17.30   17.20
   2   7   0    6.20   17.60
  -3  -7   0   34.40   23.50
  -6   8   0   57.49   29.10
  -6   8   0   67.79   22.90
   5  -8   0   70.19   20.20
  -5   8   0   90.69   22.50
  -5   8   0   52.49   20.80
  -5   8   0   72.79   19.10
   4  -8   0    7.60   12.10
   4  -8   0   18.10   14.20
  -4   8   0   26.10   16.60
  -4   8   0   55.49   17.30
   3  -8   0  195.18   20.50
  -3   8   0  168.18   22.40
  -3   8   0  174.18   27.00
   2  -8   0   -3.20   12.30
  -2   8   0   -7.50   14.00
  -2   8   0   -3.80   19.00
   1  -8   0   99.09   17.20
  -1   8   0   81.49   21.10
   0  -8   0   85.29   18.10
   0   8   0   62.29   22.60
   1   8   0   -6.50   22.30
   2   8   0   27.20   26.80
   5  -9   0    0.10   16.80
  -5   9   0   78.99   28.30
  -5   9   0   28.70   22.80
   4  -9   0  225.18   27.60
  -4   9   0  252.17   31.80
  -4   9   0  190.18   29.00
   3  -9   0   23.60   17.80
  -3   9   0   14.30   17.90
   2  -9   0   19.70   18.40
   1  -9   0   55.79   20.40
   0  -9   0   69.09   22.80
   3 -10   0  -34.80   23.60
  -3  10   0   12.40   23.90
   2 -10   0   48.00   26.00
   2 -10   1   22.30   25.10
  -3  10  -1   51.79   23.60
   3 -10   1   26.90   24.10
   0  -9   1   61.99   21.70
  -1   9  -1   16.50   32.40
   1  -9   1   24.70   19.50
   2  -9   1    8.90   19.00
  -3   9  -1  175.08   24.90
   3  -9   1  236.18   28.20
  -4   9  -1   70.29   19.80
   4  -9   1   53.89   18.00
  -5   9  -1   20.20   22.80
  -5   9  -1   38.20   27.70
   5  -9   1   14.20   16.80
   1   8  -1   23.70   25.70
   0   8  -1   15.90   22.00
   0  -8   1   19.60   16.40
  -1   8  -1   34.40   22.50
   1  -8   1   26.40   14.40
  -2   8  -1  149.19   25.60
  -2   8  -1  124.29   21.80
   2  -8   1  125.69   19.80
  -3   8  -1   86.49   16.10
   3  -8   1   77.79   14.60
  -4   8  -1  155.78   24.60
  -4   8  -1  122.89   18.00
   4  -8   1  127.29   15.70
   4  -8   1   99.19   17.40
  -5   8  -1   49.70   18.00
  -5   8  -1    1.70   19.10
  -5   8  -1   54.49   22.10
   5  -8   1   45.60   20.70
  -6   8  -1   19.10   20.90
  -6   8  -1   48.50   27.80
   3   7  -1    4.20   21.50
  -3  -7   1   41.00   22.50
   2   7  -1   78.39   18.80
   1   7  -1  142.29   19.90
   0   7  -1  138.89   19.50
   0   7  -1  134.79   16.40
   0  -7   1  122.09   17.60
  -1   7  -1  143.39   20.90
  -1   7  -1  134.69   19.00
   1  -7   1  107.29   15.20
  -2   7  -1   82.69   12.60
   2  -7   1   70.39   11.00
  -3   7  -1  127.69   13.90
   3  -7   1  166.48   21.60
   3  -7   1  105.19   13.70
   3  -7   1   91.99   13.40
  -4   7  -1   18.70   12.40
  -4   7  -1   12.30   18.20
   4  -7   1   11.20   12.00
   4  -7   1    4.90   15.90
  -5   7  -1   12.10   17.30
  -5   7  -1    8.20   15.00
   5  -7   1    8.50   14.60
  -6   7  -1  111.09   21.10
  -6   7  -1  130.49   20.50
  -6   7  -1  114.79   24.80
   6  -7   1   88.59   21.80
  -7   7  -1   58.09   28.90
   7  -7   1   -1.60   28.80
  -4  -6   1  130.59   26.30
  -3  -6   1  110.19   19.50
   2   6  -1  227.28   23.20
   2   6  -1  206.38   20.70
   2   6  -1  224.78   22.40
   1   6  -1  425.46   25.40
   1   6  -1  467.35   24.20
   1   6  -1  446.36   28.40
  -1  -6   1  469.75   26.10
   0   6  -1   60.49   10.00
   0   6  -1   79.19   13.40
   0  -6   1   71.39   10.50
  -1   6  -1  118.39   13.40
   1  -6   1  110.59   11.10
  -2   6  -1  148.49   12.40
  -2   6  -1  130.79   11.10
   2  -6   1  125.29   10.80
  -3   6  -1  367.06   19.90
  -3   6  -1  383.16   21.00
  -3   6  -1  374.16   20.60
   3  -6   1  352.36   20.30
   3  -6   1  352.96   20.00
  -4   6  -1   99.59   16.00
  -4   6  -1   77.39   12.40
   4  -6   1  103.19   14.80
   4  -6   1   91.69   12.50
  -5   6  -1  196.08   23.50
  -5   6  -1  231.18   19.40
  -5   6  -1  227.48   21.00
  -5   6  -1  265.07   23.20
   5  -6   1  225.48   20.70
   5  -6   1  194.08   21.10
  -6   6  -1   58.79   17.20
  -6   6  -1   42.10   21.40
  -6   6  -1   57.29   16.80
   6  -6   1   26.90   17.10
  -7   6  -1  144.39   29.80
  -7   6  -1   90.59   25.00
  -7   6  -1   72.09   27.70
   7  -6   1  147.69   27.30
  -5  -5   1  116.19   27.20
  -4  -5   1  153.48   21.50
   3   5  -1  317.17   24.00
   3   5  -1  307.17   24.00
   2   5  -1   89.19   14.00
   2   5  -1   90.29   15.50
   2   5  -1   81.49   11.20
  -2  -5   1   97.19   12.80
   1   5  -1  316.67   20.80
   1   5  -1  315.77   18.60
   1   5  -1  316.77   17.50
  -1  -5   1  318.17   18.30
  -1  -5   1  326.57   18.00
   0   5  -1    9.40    6.80
   0   5  -1    5.20    5.40
   0   5  -1    9.70    9.10
   0  -5   1   13.70    6.00
  -1   5  -1  353.46   18.50
   1  -5   1  355.06   17.80
  -2   5  -1  457.35   22.50
  -2   5  -1  491.35   23.60
  -2   5  -1  480.25   22.40
   2  -5   1  477.55   22.50
  -3   5  -1  454.35   22.30
  -3   5  -1  420.76   22.70
  -3   5  -1  456.75   22.40
   3  -5   1  434.76   22.30
   3  -5   1  452.35   22.50
  -4   5  -1  374.36   20.30
  -4   5  -1  376.46   21.90
  -4   5  -1  360.76   20.50
  -4   5  -1  386.76   22.00
   4  -5   1  383.46   21.70
   4  -5   1  384.76   22.40
  -5   5  -1   52.79   11.40
  -5   5  -1   93.49   18.10
  -5   5  -1   64.19   14.80
  -5   5  -1   38.60   14.30
   5  -5   1   49.50   12.40
   5  -5   1   35.10   12.10
  -6   5  -1   31.00   16.90
  -6   5  -1   49.80   18.80
  -6   5  -1   41.10   15.90
   6  -5   1   20.10   14.90
   6  -5   1   58.39   16.20
   6  -5   1   41.90   16.30
  -7   5  -1   86.99   31.80
   7  -5   1  105.99   22.80
   7  -5   1   97.59   31.10
  -5  -4   1  187.88   25.40
   4   4  -1   95.49   20.20
  -4  -4   1  145.69   17.60
   3   4  -1   67.09   13.00
  -3  -4   1   58.69   10.50
   2   4  -1  433.96   22.90
   2   4  -1  492.75   23.10
   2   4  -1  433.46   25.00
  -2  -4   1  446.16   22.60
   1   4  -1   11.80    5.70
   1   4  -1   21.00    7.40
   1   4  -1    9.70    5.40
  -1  -4   1    1.50    5.10
  -1  -4   1    9.80    4.60
   0   4  -1 3004.80  128.29
   0   4  -1 3112.99  129.69
   0   4  -1 3112.19  128.59
   0  -4   1 2849.81  128.49
   1  -4   1 2048.30   87.49
  -2   4  -1 1029.70   45.40
  -2   4  -1 1092.89   46.10
  -2   4  -1 1008.50   45.40
   2  -4   1 1036.00   45.40
   2  -4   1 1022.90   45.30
  -3   4  -1   60.39    8.40
  -3   4  -1   57.29    9.00
   3  -4   1   50.09    8.40
   3  -4   1   60.19    9.90
  -4   4  -1  343.47   18.90
  -4   4  -1  376.66   25.00
  -4   4  -1  372.76   19.20
  -4   4  -1  358.56   20.30
  -4   4  -1  359.66   20.30
   4  -4   1  345.17   20.20
   4  -4   1  353.66   20.30
  -5   4  -1  106.89   12.40
  -5   4  -1  110.29   13.50
  -5   4  -1  122.89   19.60
  -5   4  -1  113.99   17.40
  -5   4  -1   92.99   14.10
   5  -4   1  103.59   15.60
   5  -4   1  106.29   13.80
  -6   4  -1  -15.50   16.40
  -6   4  -1   23.40   14.90
  -6   4  -1   16.50   15.50
   6  -4   1   17.50   15.20
   6  -4   1   -0.30   14.40
   6  -4   1    5.40   15.10
  -7   4  -1  -17.40   22.20
  -7   4  -1   15.40   23.10
   7  -4   1   18.00   20.20
   7  -4   1   -7.30   21.30
  -6  -3   1   39.50   22.60
  -5  -3   1   17.00   14.50
   4   3  -1   38.50   14.20
  -4  -3   1   32.70   10.10
   3   3  -1   65.89    9.80
  -3  -3   1   66.09    8.80
   2   3  -1  173.48   12.90
   2   3  -1  178.68   12.20
  -2  -3   1  181.78   10.90
  -2  -3   1  179.98   13.40
   1   3  -1 3780.52  160.88
   1   3  -1 3766.52  160.88
   1   3  -1 3986.20  161.78
  -1  -3   1 3650.43  160.78
   0   3  -1  763.92   34.00
   0   3  -1  817.52   35.30
   0   3  -1  791.72   34.30
   0  -3   1  759.02   34.30
  -1   3  -1 1014.20   43.00
   1  -3   1  949.51   42.30
   1  -3   1  993.10   42.40
  -2   3  -1   32.70    5.30
  -2   3  -1   40.20    5.20
   2  -3   1   41.30    5.20
   2  -3   1   36.90    5.10
  -3   3  -1  797.72   35.20
  -3   3  -1  807.52   35.50
  -3   3  -1  870.81   38.10
  -3   3  -1  745.43   35.50
  -3   3  -1  750.62   35.70
   3  -3   1  782.22   35.80
   3  -3   1  773.52   35.70
  -4   3  -1   29.10    8.00
  -4   3  -1   37.10    8.20
  -4   3  -1   32.10    6.90
  -4   3  -1   32.10    6.70
   4  -3   1   24.10    8.00
   4  -3   1   29.20    7.60
   4  -3   1   40.00    6.30
   4  -3   1   37.90    7.40
  -5   3  -1  127.09   13.40
  -5   3  -1   96.19   15.10
  -5   3  -1   95.29   15.90
   5  -3   1  115.09   15.40
   5  -3   1   95.99   14.80
   5  -3   1  107.39   11.50
   5  -3   1  101.49   13.30
  -6   3  -1  111.49   16.60
  -6   3  -1   42.40   15.00
   6  -3   1   75.49   15.80
   6  -3   1   54.49   15.70
   6  -3   1   75.99   16.10
  -7   3  -1   76.99   24.40
   7  -3   1   29.80   23.30
   7  -3   1   35.40   19.80
   6   2  -1  114.19   19.70
   6   2  -1  114.29   22.80
  -6  -2   1  103.79   18.30
   5   2  -1  115.09   18.20
   5   2  -1  118.99   18.30
  -5  -2   1  134.89   18.60
   4   2  -1  493.85   24.60
  -4  -2   1  468.95   24.80
  -3  -2   1  226.08   13.20
   2   2  -1 1689.23   71.99
  -2  -2   1 1729.83   72.29
  -2  -2   1 1575.74   71.49
   1   2  -1  877.01   38.90
   1   2  -1  940.61   39.50
   1   2  -1  870.01   38.80
  -1  -2   1  944.51   39.60
  -1  -2   1  845.62   38.70
   0   2  -1  458.75   20.30
   0   2  -1  483.55   21.30
   0   2  -1  458.25   20.40
   0  -2   1  457.85   20.50
  -1   2  -1  696.73   30.20
  -1   2  -1  695.33   30.20
   1  -2   1  700.03   30.20
  -2   2  -1  118.49    7.80
  -2   2  -1  123.39    7.60
  -2   2  -1  114.89    7.20
  -2   2  -1  106.19    9.40
  -2   2  -1  137.79    7.30
   2  -2   1  121.19    7.70
  -3   2  -1 1112.59   48.20
  -3   2  -1 1070.09   48.70
  -3   2  -1 1145.99   48.60
  -3   2  -1 1089.59   48.80
   3  -2   1 1177.08   48.30
   3  -2   1 1071.79   48.70
   3  -2   1 1082.19   48.70
  -4   2  -1  445.56   21.50
  -4   2  -1  445.16   22.50
  -4   2  -1  418.06   21.90
   4  -2   1  438.26   21.40
   4  -2   1  458.95   22.70
   4  -2   1  424.36   22.40
  -5   2  -1   20.40   10.10
  -5   2  -1   23.60   10.30
   5  -2   1   23.10    9.90
   5  -2   1   17.30   10.30
  -6   2  -1  130.19   21.10
  -6   2  -1  199.98   23.80
   6  -2   1  124.09   19.60
   6  -2   1  184.48   27.80
  -7   2  -1  128.69   27.20
   7  -2   1  107.49   21.40
   7  -2   1  114.09   24.20
  -7  -1   1   95.39   22.10
   6   1  -1  373.86   29.70
  -6  -1   1  337.57   26.40
   5   1  -1  938.11   45.50
   5   1  -1 1072.49   46.40
  -5  -1   1  892.61   44.80
  -5  -1   1  957.10   45.20
   4   1  -1  318.47   18.20
   4   1  -1  285.57   17.60
  -4  -1   1  320.47   17.40
  -4  -1   1  305.07   17.20
   3   1  -1  343.67   17.30
   3   1  -1  339.17   17.30
  -3  -1   1  379.86   18.80
   2   1  -1  138.29    7.80
   2   1  -1  140.19    7.70
  -2  -1   1  146.49    7.80
   1   1  -1 2828.72  124.99
   1   1  -1 3233.18  125.49
  -1  -1   1 2824.42  125.09
  -1   1  -1 6644.14  272.07
  -1   1  -1 6372.26  272.27
   1  -1   1 6605.64  272.07
   1  -1   1 6246.67  272.07
  -2   1  -1  461.55   21.50
  -2   1  -1  485.15   21.20
  -2   1  -1  490.55   21.50
  -2   1  -1  433.06   21.70
   2  -1   1  481.05   21.10
   2  -1   1  475.05   21.50
   2  -1   1  464.35   21.40
  -3   1  -1 1972.90   87.19
  -3   1  -1 1993.80   87.19
   3  -1   1 1980.20   87.19
   3  -1   1 2029.90   87.29
   3  -1   1 2181.08   87.09
  -4   1  -1 1432.96   62.99
  -4   1  -1 1382.16   62.89
   4  -1   1 1425.86   62.49
   4  -1   1 1476.95   63.09
   4  -1   1 1430.56   62.99
  -5   1  -1  281.17   20.00
  -5   1  -1  309.07   21.70
   5  -1   1  283.77   20.30
   5  -1   1  324.07   21.20
   5  -1   1  327.77   19.30
  -6   1  -1  117.89   18.00
   6  -1   1  106.29   17.10
   6  -1   1   86.19   16.80
  -7   1  -1   18.60   28.10
   7  -1   1   33.30   23.20
   7   0  -1  164.78   25.70
  -7   0   1  121.79   18.60
   6   0  -1  362.06   27.20
   6   0  -1  353.26   29.00
  -6   0   1  321.27   33.90
   5   0  -1  106.69   13.00
   5   0  -1  123.49   15.90
  -5   0   1   91.29   13.70
   4   0  -1  368.76   19.50
   4   0  -1  335.97   20.70
  -4   0   1  360.16   19.50
  -4   0   1  363.76   19.20
   3   0  -1  479.25   22.00
   3   0  -1  464.05   21.90
  -3   0   1  435.86   21.80
  -3   0   1  486.45   22.20
   2   0  -1 1557.84   68.29
   2   0  -1 1665.13   68.39
  -2   0   1 1540.05   68.19
  -2   0   1 1643.44   68.39
  -1   0   1 3528.55  148.69
  -1   0  -1 1365.86   57.79
  -1   0  -1 1373.56   57.79
  -1   0  -1 1331.07   58.09
   1   0   1 1361.26   57.69
  -2   0  -1  292.07   14.10
  -2   0  -1  293.47   14.00
   2   0   1  299.27   14.10
   2   0   1  287.47   13.90
  -3   0  -1  210.08   12.30
  -3   0  -1  212.88   12.40
   3   0   1  216.18   12.30
  -4   0  -1  265.27   15.80
   4   0   1  240.08   15.60
   4   0   1  216.08   15.30
  -5   0  -1  333.17   23.80
  -5   0  -1  362.46   23.00
   5   0   1  406.46   23.80
   5   0   1  364.36   22.90
  -6   0  -1  -13.10   17.30
   6   0   1  -13.40   16.00
   6   0   1  -28.20   17.00
   7   0   1   59.59   24.70
   7  -1  -1   47.10   22.40
  -7   1   1  -11.50   24.30
   6  -1  -1   61.99   15.00
   6  -1  -1  108.69   17.00
  -6   1   1   66.29   18.00
   5  -1  -1   36.70   10.30
   5  -1  -1   43.00   10.40
  -5   1   1   49.80   10.40
  -5   1   1   59.49   11.80
   4  -1  -1  985.70   44.50
   4  -1  -1  988.50   44.70
  -4   1   1  988.00   44.70
  -4   1   1  993.10   44.60
   3  -1  -1 3423.86  144.99
   3  -1  -1 3346.97  144.89
  -3   1   1 3445.86  144.99
  -3   1   1 3430.86  144.89
   2  -1  -1 8804.22  367.66
   2  -1  -1 8599.14  367.36
   2  -1  -1 9256.77  367.46
   2  -1  -1 8282.07  367.56
  -2   1   1 8734.43  367.66
  -2   1   1 8738.13  367.36
   0  -1  -1 2526.65  108.49
   0   1   1 2640.04  108.49
   0   1   1 2408.86  108.39
   0   1   1 2517.05  108.69
   0   1   1 2769.92  108.59
  -1  -1  -1 3681.63  156.18
  -1  -1  -1 3763.12  156.28
   1   1   1 3827.32  156.18
   1   1   1 3571.34  156.08
   1   1   1 3686.13  156.58
  -2  -1  -1 2097.19   88.19
   2   1   1 2093.69   88.19
   2   1   1 2028.30   88.09
  -3  -1  -1  124.79   10.90
  -3  -1  -1  148.79   10.80
   3   1   1  161.48   10.20
   3   1   1  152.78   10.10
  -4  -1  -1   97.49   12.70
  -4  -1  -1   95.09   10.50
   4   1   1   91.59   12.70
   4   1   1   81.79   11.90
  -5  -1  -1  168.08   20.50
  -5  -1  -1  210.98   20.50
  -6  -1  -1   61.79   20.10
  -6  -1  -1   48.30   13.90
   6   1   1   54.69   19.40
   6   1   1   62.59   19.20
   7  -2  -1   34.10   21.90
   7  -2  -1   24.70   19.00
   7  -2  -1   -5.30   19.80
  -7   2   1   55.29   24.10
   6  -2  -1  130.59   17.10
   6  -2  -1  152.28   19.70
   6  -2  -1  117.79   17.30
  -6   2   1  174.38   19.40
  -6   2   1  119.29   16.50
   5  -2  -1  252.07   18.50
   5  -2  -1  287.87   20.00
   5  -2  -1  284.97   17.30
  -5   2   1  282.37   19.90
  -5   2   1  257.57   18.90
   4  -2  -1  517.55   25.50
   4  -2  -1  501.85   24.60
   4  -2  -1  526.05   24.80
   4  -2  -1  527.95   25.90
  -4   2   1  527.05   25.70
   3  -2  -1 1178.68   51.79
   3  -2  -1 1202.78   51.29
   3  -2  -1 1276.07   51.39
   3  -2  -1 1127.59   51.69
  -3   2   1 1146.69   51.69
  -3   2   1 1149.29   51.59
  -3   2   1 1187.68   51.19
   2  -2  -1 3675.13  156.28
   2  -2  -1 3590.04  155.98
  -2   2   1 3649.93  156.08
  -2   2   1 3831.02  155.78
  -2   2   1 3635.84  155.88
  -2   2   1 3741.03  155.78
   1  -2  -1 1356.06   56.39
   1  -2  -1 1318.27   56.09
   1  -2  -1 1273.17   55.99
  -1   2   1 1328.87   56.09
  -1   2   1 1305.17   56.09
   0  -2  -1 1283.27   54.49
   0  -2  -1 1303.17   54.49
   0   2   1 1243.58   54.89
   0   2   1 1327.37   54.59
   0   2   1 1245.18   54.39
  -1  -2  -1   56.19    4.80
   1   2   1   66.29    5.00
   1   2   1   60.49    5.30
  -2  -2  -1  777.52   35.30
   2   2   1  818.02   35.50
  -3  -2  -1  349.37   18.00
  -4  -2  -1  684.13   32.40
   4   2   1  649.83   32.20
  -5  -2  -1   56.39   12.50
   5   2   1   62.49   14.10
   5   2   1   68.29   14.70
   5   2   1   87.39   18.50
  -6  -2  -1   30.40   16.80
   7  -3  -1   -5.60   18.60
   7  -3  -1   -1.80   21.80
   7  -3  -1   10.00   19.90
  -7   3   1   24.80   22.20
   6  -3  -1  119.49   16.60
   6  -3  -1   78.09   15.40
   6  -3  -1  118.59   16.50
   6  -3  -1  102.69   22.20
  -6   3   1   98.89   17.00
  -6   3   1   91.59   15.90
   5  -3  -1   73.39   12.30
   5  -3  -1   56.29   11.60
   5  -3  -1   67.09   11.10
   5  -3  -1   52.99    8.70
  -5   3   1   64.09   11.80
  -5   3   1   80.49   11.10
  -5   3   1   47.40    9.60
  -5   3   1   60.69   11.30
   4  -3  -1   90.89    9.40
   4  -3  -1   78.09    8.40
   4  -3  -1   63.09   10.90
   4  -3  -1   72.69   11.50
  -4   3   1   74.59   10.80
  -4   3   1   78.09   11.00
  -4   3   1   78.69    9.20
  -4   3   1   81.89    8.80
   3  -3  -1  138.59   11.20
   3  -3  -1  152.58   10.70
  -3   3   1  135.29   10.20
  -3   3   1  145.69   10.60
   2  -3  -1  176.88   10.00
   2  -3  -1  176.18   10.60
  -2   3   1  182.78    9.70
  -2   3   1  188.58   10.20
   1  -3  -1  593.34   25.70
   1  -3  -1  591.74   26.30
  -1   3   1  581.54   25.70
  -1   3   1  572.64   25.70
   0  -3  -1  805.42   35.50
   0  -3  -1  784.72   35.20
   0   3   1  820.52   35.60
   0   3   1  827.72   35.20
   0   3   1  819.02   36.30
  -1  -3  -1  342.97   16.30
  -1  -3  -1  325.67   16.40
   1   3   1  340.17   16.70
   1   3   1  340.17   16.20
  -2  -3  -1  335.57   17.30
  -3  -3  -1  334.97   18.70
   3   3   1  315.67   20.50
  -4  -3  -1  981.90   45.70
   4   3   1  898.31   46.10
  -5  -3  -1    1.10   14.80
  -6  -3  -1   -2.50   20.00
   7  -4  -1  -12.40   22.70
   7  -4  -1   13.30   19.80
   7  -4  -1   41.70   20.30
  -7   4   1   52.69   24.90
   6  -4  -1   54.69   16.00
   6  -4  -1   50.69   15.70
   6  -4  -1   78.69   16.30
  -6   4   1   68.89   16.00
  -6   4   1   74.09   17.50
  -6   4   1   57.59   15.90
   5  -4  -1  133.09   13.70
   5  -4  -1   99.29   13.90
   5  -4  -1   88.79   13.30
  -5   4   1  143.99   14.00
  -5   4   1  112.49   14.90
  -5   4   1  101.49   15.70
  -5   4   1   93.79   12.20
   4  -4  -1   82.29   12.70
   4  -4  -1   75.59   11.90
  -4   4   1   92.19   12.20
  -4   4   1   74.69   12.00
  -4   4   1   70.09    9.40
   3  -4  -1  517.15   23.80
   3  -4  -1  479.25   25.00
  -3   4   1  474.85   23.90
  -3   4   1  484.15   23.60
   2  -4  -1  412.26   20.40
   2  -4  -1  412.16   19.70
  -2   4   1  424.56   19.80
  -2   4   1  418.76   20.50
  -2   4   1  424.16   20.00
   1  -4  -1 1933.31   84.39
  -1   4   1 2035.30   84.39
  -1   4   1 1918.31   84.09
  -1   4   1 2016.60   84.09
   0  -4  -1  637.84   29.30
   0   4   1  639.04   30.70
   0   4   1  658.83   29.60
  -1  -4  -1   57.29    7.30
   1   4   1   59.49    8.80
   1   4   1   60.99   10.30
   1   4   1   65.69    7.80
  -2  -4  -1  379.86   19.80
   2   4   1  356.86   19.90
  -3  -4  -1   70.19   11.90
   3   4   1   59.39   11.20
  -4  -4  -1   15.50   13.70
   4   4   1   -2.80   19.30
  -5  -4  -1   42.60   19.60
   7  -5  -1   37.10   22.70
   7  -5  -1   -9.40   29.70
  -7   5   1   -5.20   23.50
   6  -5  -1   24.20   16.80
   6  -5  -1    0.20   15.30
   6  -5  -1   14.50   15.30
  -6   5   1   -9.10   19.50
  -6   5   1    6.00   17.00
  -6   5   1   18.50   15.60
   5  -5  -1  281.37   21.60
   5  -5  -1  267.17   21.80
  -5   5   1  278.67   19.60
  -5   5   1  287.57   28.90
  -5   5   1  231.58   18.20
  -5   5   1  265.47   21.50
  -5   5   1  316.77   23.80
   4  -5  -1  823.22   38.80
   4  -5  -1  785.02   38.60
  -4   5   1  824.32   38.70
  -4   5   1  766.12   38.40
  -4   5   1  849.41   37.40
   3  -5  -1  759.12   35.60
   3  -5  -1  764.12   35.50
  -3   5   1  764.92   35.60
  -3   5   1  771.82   35.00
  -3   5   1  728.83   35.20
   2  -5  -1  222.78   13.80
  -2   5   1  231.98   13.90
  -2   5   1  223.98   13.20
  -2   5   1  203.88   13.10
   1  -5  -1  718.53   33.60
  -1   5   1  785.72   34.10
  -1   5   1  733.53   34.40
   0  -5  -1  357.06   18.50
   0   5   1  327.67   23.10
   0   5   1  359.76   19.50
  -1  -5  -1    2.60    7.60
  -1  -5  -1   -7.10    7.00
   1   5   1   12.60    8.20
   1   5   1    2.60    7.10
  -2  -5  -1  114.09   12.70
   2   5   1   84.99   13.40
  -3  -5  -1   -1.90   13.10
   3   5   1  -10.90   14.00
  -4  -5  -1   65.89   20.00
   7  -6  -1   41.70   30.20
  -7   6   1   62.39   32.00
  -7   6   1   28.20   26.00
  -7   6   1  -28.30   26.50
   6  -6  -1  167.48   28.60
  -6   6   1  169.28   26.70
  -6   6   1  214.08   32.00
  -6   6   1  186.18   22.10
   5  -6  -1  241.78   22.90
   5  -6  -1  193.08   22.40
  -5   6   1  257.07   25.40
  -5   6   1  241.98   22.70
   4  -6  -1  202.68   19.80
   4  -6  -1  213.38   18.40
  -4   6   1  261.77   19.40
  -4   6   1  216.88   17.80
  -4   6   1  208.28   17.30
   3  -6  -1  159.68   14.70
   3  -6  -1  195.98   14.40
  -3   6   1  205.58   15.10
  -3   6   1  181.28   15.10
   2  -6  -1  215.48   13.90
  -2   6   1  236.08   16.70
   1  -6  -1   36.00    7.60
  -1   6   1   35.20    9.90
   0  -6  -1  338.27   20.00
   0   6   1  294.27   22.90
   0   6   1  343.57   21.40
  -1  -6  -1  139.69   16.10
  -1  -6  -1  131.69   16.20
   1   6   1  100.49   13.60
   1   6   1  131.39   17.10
   1   6   1  150.08   16.90
  -2  -6  -1   70.29   19.90
   2   6   1   80.89   14.40
  -3  -6  -1   42.70   19.40
  -4  -6  -1   58.39   25.70
   7  -7  -1   43.10   31.90
  -7   7   1   23.00   29.80
   6  -7  -1   62.59   23.60
  -6   7   1  108.69   26.90
  -6   7   1   15.80   21.00
  -6   7   1   60.69   19.50
   5  -7  -1  110.69   18.90
  -5   7   1  104.59   20.70
  -5   7   1   79.89   16.90
  -5   7   1   76.09   17.80
  -5   7   1  110.49   17.10
   4  -7  -1   16.10   13.10
  -4   7   1   17.00   14.80
  -4   7   1   41.10   13.20
  -4   7   1   41.20   12.80
   3  -7  -1   36.70   11.10
   3  -7  -1   45.30    9.80
  -3   7   1   36.40   13.50
  -3   7   1   44.60   18.00
  -3   7   1   36.10   10.40
   2  -7  -1   92.09   13.90
  -2   7   1   96.89   14.40
   1  -7  -1   80.59   13.10
  -1   7   1   86.29   14.00
  -1   7   1   78.29   20.70
   0  -7  -1  279.57   21.80
   0   7   1  245.68   26.20
   0   7   1  225.98   22.40
   1   7   1   49.30   16.80
  -2  -7  -1   27.50   18.60
   2   7   1   24.00   18.90
  -3  -7  -1  112.79   25.30
  -6   8   1   35.50   24.00
  -6   8   1   11.60   28.80
  -6   8   1   12.60   21.20
   5  -8  -1   23.40   18.40
  -5   8   1   -0.60   18.10
  -5   8   1   13.80   26.00
  -5   8   1   27.40   18.50
  -5   8   1   40.80   22.40
   4  -8  -1   43.60   13.50
   4  -8  -1   10.40   14.80
  -4   8   1   50.29   17.50
  -4   8   1   27.40   16.30
  -4   8   1   86.29   19.00
   3  -8  -1   68.59   13.40
  -3   8   1   75.19   15.70
  -3   8   1   13.90   19.60
  -3   8   1   35.60   12.60
  -3   8   1   16.70   15.00
   2  -8  -1    5.50   13.00
  -2   8   1    0.70   13.50
  -2   8   1   13.10   19.90
   1  -8  -1   -4.00   14.80
  -1   8   1   20.80   20.20
  -1   8   1    8.90   24.60
   0  -8  -1   95.19   19.70
   0   8   1   77.19   24.10
   1   8   1   51.69   22.90
   5  -9  -1  -10.10   17.20
  -5   9   1   33.20   21.30
  -5   9   1   30.70   29.00
   4  -9  -1  172.48   29.40
  -4   9   1  177.18   28.40
  -4   9   1  223.68   34.30
   3  -9  -1   14.00   18.20
  -3   9   1   36.40   17.50
   2  -9  -1   10.80   18.80
  -2   9   1   -1.50   16.60
  -1   9   1  127.59   41.10
   0  -9  -1    0.40   22.40
   0   9   1   43.50   47.60
   1 -10   2   45.00   25.80
   2 -10   2  -36.10   23.90
  -3  10  -2    6.80   23.10
   3 -10   2   25.30   23.70
  -4  10  -2   92.09   27.80
   0  -9   2   17.90   20.60
   1  -9   2   75.19   21.00
  -2   9  -2    5.30   17.40
   2  -9   2   22.90   19.10
  -3   9  -2  133.99   21.00
   3  -9   2  196.78   25.90
  -4   9  -2  106.09   22.40
  -4   9  -2   58.29   19.10
   4  -9   2   53.29   19.90
  -5   9  -2   36.80   27.00
   5  -9   2   19.60   18.50
   0   8  -2   40.90   24.40
   0  -8   2   49.00   16.80
  -1   8  -2   37.80   21.60
   1  -8   2   59.89   15.10
  -2   8  -2  388.16   49.80
   2  -8   2  359.96   26.40
  -3   8  -2  189.78   22.50
   3  -8   2  223.28   21.70
  -4   8  -2  163.28   20.90
   4  -8   2  166.48   20.20
   4  -8   2  150.08   17.00
  -5   8  -2   56.59   20.50
  -5   8  -2   24.30   17.40
  -5   8  -2   15.20   18.50
   5  -8   2   48.60   21.10
  -6   8  -2   34.40   21.90
  -6   8  -2   75.59   26.10
   3   7  -2   -4.20   21.90
  -3  -7   2   18.60   23.80
   2   7  -2   34.30   19.30
   1   7  -2  130.49   23.40
   0   7  -2   68.49   14.60
   0   7  -2   99.49   18.20
   0  -7   2   87.79   13.50
  -1   7  -2  218.48   20.80
  -1   7  -2  270.17   25.00
   1  -7   2  239.18   18.40
  -2   7  -2   62.09   12.00
   2  -7   2   89.49   11.90
  -3   7  -2  392.76   22.60
  -3   7  -2  428.36   23.50
  -3   7  -2  407.56   24.40
   3  -7   2  399.76   23.40
   3  -7   2  446.66   23.50
   3  -7   2  370.96   22.60
  -4   7  -2   46.00   15.70
  -4   7  -2   49.00   12.30
   4  -7   2   64.09   13.90
   4  -7   2   55.39   13.30
  -5   7  -2   34.60   15.30
  -5   7  -2   48.80   17.10
  -5   7  -2   50.39   15.50
   5  -7   2   33.40   15.40
  -6   7  -2   74.99   19.70
  -6   7  -2  104.09   24.00
  -6   7  -2   33.00   20.50
   6  -7   2   53.99   21.10
  -4  -6   2   56.39   23.90
   3   6  -2   52.89   17.10
  -3  -6   2   29.40   17.80
   2   6  -2  565.14   31.50
   2   6  -2  566.14   34.80
   2   6  -2  563.14   32.30
   1   6  -2   60.99   11.20
   1   6  -2   72.59   14.40
   1   6  -2   44.80   10.00
  -1  -6   2   58.49   11.00
   0   6  -2  115.19   11.30
   0   6  -2  133.89   17.90
   0   6  -2   92.09   14.60
   0  -6   2  100.99   12.40
  -1   6  -2  715.23   35.50
  -1   6  -2  796.92   38.50
   1  -6   2  740.43   35.30
  -2   6  -2   57.49    9.30
   2  -6   2   53.09    8.30
  -3   6  -2  113.19   11.70
  -3   6  -2  105.59   12.80
  -3   6  -2  123.79   13.20
   3  -6   2  109.69   12.40
   3  -6   2   96.79   11.90
  -4   6  -2  172.38   17.60
  -4   6  -2  155.28   15.90
   4  -6   2  166.58   16.50
   4  -6   2  200.98   17.60
  -5   6  -2   25.20   15.30
  -5   6  -2   17.70   12.20
  -5   6  -2   12.00   20.50
  -5   6  -2   16.80   13.00
   5  -6   2   14.70   12.90
   5  -6   2   18.70   14.00
  -6   6  -2   48.60   17.90
  -6   6  -2   25.80   18.40
  -6   6  -2   13.40   20.10
   6  -6   2   32.60   17.00
  -7   6  -2  336.17   34.70
  -7   6  -2  452.65   45.10
   7  -6   2  329.27   42.50
  -5  -5   2  231.08   38.30
  -4  -5   2  217.68   27.80
   3   5  -2  180.78   20.00
   3   5  -2  200.18   21.30
   2   5  -2   12.40    8.40
   2   5  -2    8.70    9.00
   2   5  -2   14.60   12.60
  -2  -5   2    7.50    8.20
   1   5  -2   94.99   10.30
   1   5  -2   68.09   10.90
   1   5  -2   87.69   14.60
  -1  -5   2   76.39   10.40
   0   5  -2  100.89   14.00
   0   5  -2  104.59    8.80
   0   5  -2  107.59   10.90
   0  -5   2   89.59    9.50
  -1   5  -2  307.87   19.00
   1  -5   2  301.27   15.70
  -2   5  -2  204.18   12.10
   2  -5   2  194.88   12.10
   2  -5   2  210.08   11.50
  -3   5  -2 1113.49   49.10
  -3   5  -2 1099.09   49.10
   3  -5   2 1076.89   49.00
   3  -5   2 1111.89   49.10
  -4   5  -2  319.17   24.10
  -4   5  -2  238.88   16.70
  -4   5  -2  276.57   18.80
  -4   5  -2  273.07   17.90
  -4   5  -2  272.27   16.40
   4  -5   2  280.67   18.10
   4  -5   2  267.07   18.60
  -5   5  -2  381.46   25.10
  -5   5  -2  380.16   23.30
  -5   5  -2  303.07   32.70
  -5   5  -2  338.17   23.80
   5  -5   2  351.36   24.00
   5  -5   2  354.16   23.80
  -6   5  -2  125.09   19.40
  -6   5  -2  146.09   29.70
   6  -5   2   86.29   17.40
   6  -5   2  121.39   18.10
  -7   5  -2   94.59   23.00
  -7   5  -2  119.09   28.30
   7  -5   2   36.20   25.60
   7  -5   2   65.29   23.30
  -5  -4   2  231.58   31.60
   4   4  -2  122.39   20.50
  -4  -4   2  151.88   17.70
   3   4  -2   17.00   10.60
   3   4  -2   11.50   11.30
  -3  -4   2   17.30    8.40
  -3  -4   2    8.10   12.40
   2   4  -2  134.49   11.70
   2   4  -2  122.99   12.50
  -2  -4   2  159.38   14.70
  -2  -4   2  126.99   10.70
   1   4  -2  351.96   18.20
   1   4  -2  379.86   20.50
   1   4  -2  377.16   18.60
  -1  -4   2  342.77   18.30
  -1  -4   2  342.67   17.60
   0   4  -2  147.99    9.10
   0   4  -2  148.19    9.90
   0  -4   2  142.99    9.30
  -1   4  -2  216.48   13.10
   1  -4   2  252.47   12.00
  -2   4  -2  721.13   32.40
  -2   4  -2  709.93   31.80
  -2   4  -2  702.63   31.90
   2  -4   2  706.33   31.90
   2  -4   2  708.73   31.80
  -3   4  -2  185.58   12.60
  -3   4  -2  190.38   12.50
   3  -4   2  200.98   12.60
   3  -4   2  194.68   12.60
  -4   4  -2   -3.40    7.60
  -4   4  -2   -8.60    6.60
  -4   4  -2   -8.50    7.00
  -4   4  -2    1.20    7.50
  -4   4  -2   13.00   12.20
   4  -4   2   17.80    8.00
   4  -4   2   -4.10    8.20
  -5   4  -2   63.29   10.60
  -5   4  -2   36.40   11.90
  -5   4  -2   73.29   12.50
  -5   4  -2   76.69   17.60
  -5   4  -2   90.09   11.80
   5  -4   2   60.79   12.80
   5  -4   2   75.09   13.10
   5  -4   2   69.79   13.10
  -6   4  -2  -10.00   15.30
  -6   4  -2    4.70   15.60
  -6   4  -2   -7.20   14.30
   6  -4   2  -11.00   14.70
   6  -4   2  -20.20   15.00
   6  -4   2    0.40   14.90
  -7   4  -2   34.70   23.30
   7  -4   2   40.60   20.90
   7  -4   2   18.00   23.40
   7  -4   2   -0.10   22.80
  -6  -3   2   85.89   23.10
  -5  -3   2   45.40   16.70
   4   3  -2   47.10   13.30
  -4  -3   2   58.09   11.40
   3   3  -2  245.48   17.20
  -3  -3   2  257.07   15.80
  -3  -3   2  257.07   18.60
   2   3  -2   49.70    7.90
   2   3  -2   27.20    5.70
   2   3  -2   36.60    7.00
  -2  -3   2   25.10    5.20
  -2  -3   2   30.80    7.60
   1   3  -2 5307.67  231.28
   1   3  -2 5478.05  231.18
   1   3  -2 5721.03  232.38
  -1  -3   2 5669.43  232.28
  -1  -3   2 5191.58  231.08
   0   3  -2 1335.67   57.89
   0   3  -2 1343.87   56.59
   0   3  -2 1326.57   56.59
   0  -3   2 1267.47   56.69
  -1   3  -2  111.59    6.90
  -1   3  -2  121.09    7.00
   1  -3   2  135.49    6.60
   1  -3   2  107.29    6.80
  -2   3  -2  172.08    9.80
   2  -3   2  169.08    9.80
   2  -3   2  164.68    9.80
  -3   3  -2    6.90    5.60
  -3   3  -2    4.80    5.30
  -3   3  -2    7.50    5.00
   3  -3   2    9.80    5.60
   3  -3   2    6.60    5.60
  -4   3  -2   27.70    7.00
  -4   3  -2   38.10   12.20
  -4   3  -2   29.30    8.50
  -4   3  -2   24.90    7.80
   4  -3   2   25.00    6.60
   4  -3   2   21.50    7.90
  -5   3  -2   17.20    9.50
  -5   3  -2   19.00   10.80
  -5   3  -2   -3.70   16.70
  -5   3  -2   10.60   10.30
   5  -3   2   -1.80    8.20
   5  -3   2   -5.60   10.20
   5  -3   2    9.50   10.60
  -6   3  -2    4.40   14.80
  -6   3  -2   -5.00   25.80
  -6   3  -2   40.10   16.00
   6  -3   2   14.30   14.90
   6  -3   2   -8.90   14.90
  -7   3  -2  117.59   23.30
   7  -3   2   89.59   24.90
   7  -3   2   78.29   21.90
   7  -3   2  103.19   24.00
  -6  -2   2   -3.10   17.10
   5   2  -2  119.99   18.30
   5   2  -2  129.39   17.80
   4   2  -2   64.59    9.70
  -4  -2   2   96.89   14.00
  -4  -2   2   90.59   11.40
  -3  -2   2   48.10    7.50
  -3  -2   2   64.19   10.10
   2   2  -2 1106.59   46.20
  -2  -2   2 1103.19   46.60
  -2  -2   2  899.51   45.10
   1   2  -2 2556.14  110.99
   1   2  -2 2513.65  111.19
   1   2  -2 2763.42  111.99
  -1  -2   2 2471.25  110.99
  -1  -2   2 2795.42  112.09
   0   2  -2 8126.79  335.37
   0  -2   2 7981.20  335.27
   0  -2   2 7754.32  334.57
  -1   2  -2 2651.33  112.99
  -1   2  -2 2764.82  113.09
   1  -2   2 2603.64  112.99
  -2   2  -2 1268.57   53.99
  -2   2  -2 1218.08   55.09
  -2   2  -2 1315.67   54.19
  -2   2  -2 1232.18   54.19
  -2   2  -2 1227.38   54.19
   2  -2   2 1318.77   53.99
   2  -2   2 1252.07   54.29
   2  -2   2 1210.68   54.19
  -3   2  -2  320.27   17.30
  -3   2  -2  332.47   16.40
  -3   2  -2  314.47   17.10
  -3   2  -2  354.16   20.40
  -3   2  -2  349.47   16.90
   3  -2   2  314.87   17.20
   3  -2   2  337.97   16.40
   3  -2   2  314.67   17.30
   3  -2   2  353.26   16.60
  -4   2  -2  792.82   36.20
  -4   2  -2  775.92   40.50
  -4   2  -2  733.23   36.80
   4  -2   2  770.92   36.20
   4  -2   2  805.32   35.70
   4  -2   2  785.12   36.40
  -5   2  -2  306.27   30.30
  -5   2  -2  271.37   19.90
  -5   2  -2  295.07   20.00
   5  -2   2  244.48   17.20
   5  -2   2  279.27   19.90
   5  -2   2  277.17   20.30
   5  -2   2  269.27   18.40
  -6   2  -2    1.60   16.60
  -6   2  -2   -7.90   14.70
   6  -2   2   20.70   15.50
  -7   2  -2  130.69   26.40
   7  -2   2  124.39   25.90
  -7  -1   2   48.90   20.90
   6   1  -2  100.29   17.50
   6   1  -2   78.59   17.90
  -6  -1   2   71.59   15.20
   5   1  -2  682.53   32.70
   5   1  -2  553.94   31.90
  -5  -1   2  629.94   32.20
  -5  -1   2  665.83   35.70
   4   1  -2  273.27   17.10
   4   1  -2  285.07   16.70
  -4  -1   2  293.17   16.50
  -4  -1   2  291.77   17.10
  -4  -1   2  298.57   19.30
   3   1  -2  390.86   19.30
   3   1  -2  391.06   19.30
  -3  -1   2  446.16   21.30
  -3  -1   2  398.56   19.40
   2   1  -2   19.20    3.20
  -2  -1   2   24.40    3.70
   1   1  -2 3205.68  146.69
   1   1  -2 3690.23  147.49
  -1  -1   2 3231.38  146.69
  -1  -1   2 3793.02  147.69
   0   1  -2 3282.67  133.99
   0   1  -2 3019.10  133.89
   0  -1   2 3143.49  133.99
   0  -1   2 3283.47  134.99
  -1   1  -2   27.30    3.20
  -1   1  -2   39.80    5.40
  -1   1  -2   31.00    3.10
  -1   1  -2   26.90    2.60
   1  -1   2   24.30    3.00
   1  -1   2   25.90    3.00
   1  -1   2   23.50    3.30
   1  -1   2   24.40    2.50
  -2   1  -2 3943.61  164.88
  -2   1  -2 3704.63  164.28
  -2   1  -2 3978.20  164.08
  -2   1  -2 3849.01  164.28
  -2   1  -2 4122.69  164.38
   2  -1   2 3930.71  164.08
   2  -1   2 3776.52  164.78
   2  -1   2 3768.92  164.18
   2  -1   2 3947.51  164.18
   2  -1   2 3810.12  164.28
  -3   1  -2  735.13   33.00
  -3   1  -2  723.63   33.10
  -3   1  -2  764.52   34.90
   3  -1   2  683.73   32.80
   3  -1   2  720.03   33.00
   3  -1   2  736.33   32.70
  -4   1  -2 1118.29   50.49
  -4   1  -2 1118.59   50.49
   4  -1   2 1132.09   53.29
   4  -1   2 1129.59   50.59
   4  -1   2 1112.69   50.29
  -5   1  -2  347.77   22.80
  -5   1  -2  326.27   22.10
   5  -1   2  350.36   22.30
   5  -1   2  293.17   21.50
  -6   1  -2  120.29   18.60
   6  -1   2  101.19   18.90
   6  -1   2  102.59   18.50
   7  -1   2  102.69   24.70
   7   0  -2   38.80   23.20
  -7   0   2   50.89   17.30
   6   0  -2  727.23   38.10
   6   0  -2  640.44   37.30
  -6   0   2  645.84   39.30
   5   0  -2  206.78   17.90
   5   0  -2  190.98   18.10
  -5   0   2  248.28   19.60
  -5   0   2  214.68   17.40
  -5   0   2  215.48   23.60
   4   0  -2   81.09    9.20
   4   0  -2   77.19   10.20
  -4   0   2   81.89    9.50
  -4   0   2   84.19    9.10
   3   0  -2  507.05   23.80
   3   0  -2  518.55   23.80
  -3   0   2  528.75   24.10
  -3   0   2  504.65   23.60
   2   0  -2  289.87   13.70
   2   0  -2  289.17   13.80
  -2   0   2  303.67   14.00
  -2   0   2  289.87   13.70
   1   0  -2 4153.38  180.48
  -1   0   2 4299.67  180.58
  -1   0   2 4341.97  180.48
  -1   0   2 4352.76  180.58
   0   0  -2 2204.48   95.69
   0   0  -2 2234.88   95.99
   0   0   2 2224.98   95.89
   0   0   2 2385.16   95.99
   0   0   2 2314.87   95.99
  -1   0  -2 3270.47  141.39
  -1   0  -2 3307.57  141.69
  -1   0  -2 3450.55  141.49
  -1   0  -2 3265.97  141.49
   1   0   2 3454.75  141.49
   1   0   2 3398.16  141.79
   1   0   2 3289.47  141.39
  -2   0  -2 2362.46  102.79
  -2   0  -2 2392.46  102.69
   2   0   2 2495.05  102.79
  -3   0  -2  510.45   25.00
   3   0   2  521.75   24.40
   3   0   2  519.25   26.40
   3   0   2  512.55   24.20
  -4   0  -2   93.69   14.20
  -4   0  -2   80.69   10.70
   4   0   2   87.99   12.30
   4   0   2   76.09   11.80
  -5   0  -2  113.39   18.20
  -5   0  -2  121.09   15.30
   5   0   2  119.39   17.30
   5   0   2  121.09   18.10
  -6   0  -2    6.10   18.30
   6   0   2   32.90   18.00
   6   0   2   51.19   18.90
   6   0   2   26.70   19.20
   7   0   2   99.19   26.60
   7  -1  -2  136.89   24.50
  -7   1   2  154.08   26.40
  -7   1   2  156.88   25.70
   6  -1  -2  149.88   21.70
   6  -1  -2  123.99   16.60
  -6   1   2  113.19   19.60
  -6   1   2  163.48   24.60
   5  -1  -2  192.28   17.40
   5  -1  -2  198.98   17.20
  -5   1   2  220.68   17.60
  -5   1   2  204.98   18.70
   4  -1  -2  624.04   29.20
   4  -1  -2  597.14   29.20
   4  -1  -2  641.44   28.50
  -4   1   2  586.54   29.10
  -4   1   2  606.44   29.20
   3  -1  -2  372.16   18.90
   3  -1  -2  399.36   18.80
  -3   1   2  406.36   19.10
  -3   1   2  385.76   18.80
   2  -1  -2 7565.84  324.87
   2  -1  -2 7851.91  324.67
   2  -1  -2 7606.14  324.87
   2  -1  -2 7969.40  324.67
  -2   1   2 7589.14  324.87
   0  -1  -2 2742.63  120.19
   0  -1  -2 2945.81  120.09
   0   1   2 2739.53  119.79
   0   1   2 2789.22  120.19
   0   1   2 3004.50  120.09
  -1  -1  -2 2037.70   87.39
  -1  -1  -2 2048.10   86.99
   1   1   2 2021.70   87.39
   1   1   2 2043.20   86.79
   1   1   2 2099.39   86.99
  -2  -1  -2 1187.48   51.19
   2   1   2 1197.38   51.09
   2   1   2 1164.68   50.89
  -3  -1  -2  380.36   19.20
  -3  -1  -2  386.86   19.70
   3   1   2  369.96   18.90
   3   1   2  389.16   19.00
  -4  -1  -2  323.27   20.40
  -4  -1  -2  366.06   19.80
   4   1   2  276.27   20.00
   4   1   2  364.06   20.00
  -5  -1  -2   25.60   13.80
  -5  -1  -2   -0.60   14.70
   5   1   2   15.90   13.90
   5   1   2   50.69   14.50
   5   1   2   23.50   15.40
  -6  -1  -2   47.50   20.90
  -6  -1  -2   70.39   13.60
   6   1   2   34.50   27.30
   6   1   2   29.30   18.90
   7  -2  -2   31.10   18.80
   7  -2  -2  -10.50   22.50
   7  -2  -2    1.50   20.10
  -7   2   2    8.70   23.80
   6  -2  -2   52.79   13.60
   6  -2  -2   65.79   16.90
  -6   2   2   67.19   15.00
  -6   2   2   88.19   17.30
   5  -2  -2   14.20    9.30
   5  -2  -2   29.40   10.30
   5  -2  -2   16.90    8.20
   5  -2  -2   14.60    9.50
  -5   2   2   16.40   10.60
  -5   2   2   15.20   10.30
   4  -2  -2  292.07   17.80
   4  -2  -2  303.87   17.60
   4  -2  -2  310.77   16.70
   4  -2  -2  316.57   16.60
  -4   2   2  322.57   17.70
   3  -2  -2 1014.70   44.90
   3  -2  -2 1004.10   45.00
   3  -2  -2 1017.70   44.50
   3  -2  -2 1041.70   44.40
  -3   2   2 1002.60   44.90
  -3   2   2 1028.60   45.10
  -3   2   2 1016.50   44.40
   2  -2  -2  762.52   33.80
   2  -2  -2  767.32   33.70
  -2   2   2  787.12   33.60
  -2   2   2  771.72   33.50
  -2   2   2  759.32   33.90
  -2   2   2  763.72   33.80
   1  -2  -2 3309.27  142.69
   1  -2  -2 3508.25  142.99
   1  -2  -2 3173.18  142.59
  -1   2   2 3276.87  142.69
  -1   2   2 3585.04  142.99
  -1   2   2 3431.76  142.79
   0  -2  -2 2560.34  103.29
   0  -2  -2 2385.06  103.19
   0   2   2 2369.66  103.09
   0   2   2 2455.05  103.39
  -1  -2  -2  470.95   21.90
  -1  -2  -2  451.85   20.40
   1   2   2  432.86   20.50
  -2  -2  -2  426.46   19.40
   2   2   2  394.56   19.00
   2   2   2  407.06   21.40
  -3  -2  -2  453.35   22.70
  -3  -2  -2  463.95   22.40
  -3  -2  -2  463.95   22.40
   3   2   2  419.26   25.40
   3   2   2  451.85   21.90
  -4  -2  -2  364.36   22.90
  -4  -2  -2  412.16   22.10
   4   2   2  381.56   23.00
   4   2   2  355.06   22.70
   4   2   2  449.26   25.10
  -5  -2  -2   76.29   13.40
   5   2   2   67.99   15.10
   5   2   2   44.30   15.50
  -6  -2  -2   -2.20   17.50
   6   2   2  -11.60   21.30
   7  -3  -2   78.29   19.10
   7  -3  -2   44.30   20.80
   7  -3  -2   80.99   24.70
  -7   3   2   83.39   23.80
   6  -3  -2   18.70   15.50
   6  -3  -2    7.10   13.90
   6  -3  -2   -5.90   12.60
  -6   3   2   53.09   16.40
  -6   3   2    7.40   14.80
   5  -3  -2  167.48   13.50
   5  -3  -2  153.68   14.20
   5  -3  -2  173.38   16.90
   5  -3  -2  175.18   17.20
  -5   3   2  167.48   15.00
  -5   3   2  157.78   18.60
  -5   3   2  169.38   16.70
   4  -3  -2   47.90    7.50
   4  -3  -2   31.70    8.20
   4  -3  -2   38.80    6.80
   4  -3  -2   42.00    9.00
  -4   3   2   26.90    6.70
  -4   3   2   34.80    9.00
  -4   3   2   23.90    8.30
  -4   3   2   45.10    7.60
   3  -3  -2  732.33   33.30
   3  -3  -2  715.03   32.90
  -3   3   2  726.33   32.80
  -3   3   2  720.63   33.20
  -3   3   2  715.23   32.30
   2  -3  -2 1279.57   58.89
   2  -3  -2 1388.66   58.79
   2  -3  -2 1369.86   58.59
  -2   3   2 1341.57   58.39
  -2   3   2 1397.86   58.69
  -2   3   2 1357.96   58.59
   1  -3  -2  315.47   15.00
  -1   3   2  317.87   15.40
  -1   3   2  316.57   14.90
  -1   3   2  323.37   15.20
   0  -3  -2  578.54   25.10
   0  -3  -2  572.84   25.20
   0   3   2  513.55   26.10
   0   3   2  598.34   25.40
  -1  -3  -2   88.89    6.90
  -1  -3  -2  107.29   10.10
  -1  -3  -2   69.69    7.00
   1   3   2   87.89    6.70
  -2  -3  -2  387.66   19.50
  -3  -3  -2  845.22   39.40
   4   3   2  429.56   27.70
   4   3   2  398.66   27.60
  -5  -3  -2   20.60   14.60
   7  -4  -2   31.10   21.40
   7  -4  -2   30.10   19.80
   7  -4  -2   23.10   24.90
  -7   4   2   30.80   23.30
  -7   4   2   30.30   25.90
   6  -4  -2  125.19   18.50
   6  -4  -2  159.38   18.60
  -6   4   2  104.99   17.90
  -6   4   2  122.29   19.40
   5  -4  -2   77.69   12.10
   5  -4  -2  114.49   14.50
   5  -4  -2   94.19   13.80
  -5   4   2  103.59   14.90
  -5   4   2  113.29   13.80
  -5   4   2   88.79   13.60
   4  -4  -2  359.76   21.50
   4  -4  -2  329.57   20.30
  -4   4   2  349.77   19.20
  -4   4   2  351.86   20.50
  -4   4   2  353.26   20.70
   3  -4  -2  443.96   22.00
   3  -4  -2  422.26   21.50
  -3   4   2  412.66   21.90
  -3   4   2  426.16   21.50
  -3   4   2  434.16   20.70
   2  -4  -2 1044.70   53.39
   2  -4  -2 1178.38   50.69
  -2   4   2 1235.68   51.19
  -2   4   2 1206.08   50.89
   1  -4  -2  824.92   33.60
   1  -4  -2  651.23   33.90
  -1   4   2  762.42   33.40
  -1   4   2  793.82   33.70
   0  -4  -2  102.89    8.00
   0  -4  -2  115.49    7.70
   0   4   2   98.29    9.20
  -1  -4  -2  365.56   18.10
   1   4   2  387.76   19.10
   1   4   2  323.87   21.50
  -2  -4  -2  412.86   21.00
   2   4   2  366.56   20.90
  -3  -4  -2  419.16   24.20
   3   4   2  366.16   24.20
  -4  -4  -2   19.40   14.10
   4   4   2   24.30   18.10
  -5  -4  -2   -0.20   19.80
   7  -5  -2   58.89   27.30
   7  -5  -2   29.90   22.60
  -7   5   2   64.19   41.90
  -7   5   2   23.40   24.90
   6  -5  -2   33.50   17.80
   6  -5  -2   44.70   17.60
  -6   5   2  104.49   22.00
  -6   5   2   51.19   17.50
  -6   5   2   57.49   18.20
   5  -5  -2   -0.60   12.80
   5  -5  -2   -1.90   12.80
  -5   5   2    4.50   13.80
  -5   5   2   12.90    9.70
  -5   5   2   20.00   13.50
  -5   5   2   10.60   12.50
   4  -5  -2  145.49   15.60
   4  -5  -2  149.09   16.40
  -4   5   2  119.79   12.60
  -4   5   2  122.49   15.30
  -4   5   2  117.69   15.10
   3  -5  -2  438.36   21.80
   3  -5  -2  339.27   24.80
  -3   5   2  401.56   21.50
  -3   5   2  424.16   21.20
  -3   5   2  368.16   21.30
   2  -5  -2 1007.60   44.30
   2  -5  -2  998.40   44.50
  -2   5   2 1002.80   44.80
  -2   5   2  960.50   44.10
  -2   5   2  993.10   44.10
   1  -5  -2   64.79    7.50
  -1   5   2   62.69   10.20
  -1   5   2   57.49    9.10
  -1   5   2   54.69    8.30
   0  -5  -2  527.35   25.20
   0   5   2  557.14   25.80
   0   5   2  455.45   27.90
  -1  -5  -2   45.70    9.30
  -1  -5  -2   54.09    9.70
   1   5   2   78.49   10.40
   1   5   2   74.29   13.40
   1   5   2   58.59   12.10
   1   5   2   63.69    8.50
  -2  -5  -2   49.10   10.60
  -3  -5  -2   94.29   15.40
   3   5   2   52.59   14.70
  -4  -5  -2   48.00   19.80
   7  -6  -2   42.30   24.40
  -7   6   2   32.50   27.20
  -7   6   2   44.90   34.90
  -7   6   2   85.59   33.20
   6  -6  -2   64.39   20.90
  -6   6   2   86.29   24.10
  -6   6   2   51.39   20.00
  -6   6   2   88.19   20.00
   5  -6  -2  180.98   22.30
   5  -6  -2  150.68   23.10
  -5   6   2  124.89   17.00
  -5   6   2  209.68   26.10
  -5   6   2  192.48   18.80
   4  -6  -2  411.86   24.50
   4  -6  -2  365.06   24.40
  -4   6   2  314.37   23.30
  -4   6   2  393.76   24.90
  -4   6   2  412.86   23.20
   3  -6  -2   88.39   12.20
   3  -6  -2  110.39   11.30
   3  -6  -2  114.09   15.50
  -3   6   2   97.79   13.50
  -3   6   2  104.39   12.10
  -3   6   2   90.09   13.10
   2  -6  -2    7.10    8.10
   2  -6  -2   16.20    6.70
   2  -6  -2   15.40    9.00
  -2   6   2   12.30    8.90
  -2   6   2   13.70    8.00
  -2   6   2    8.20    8.10
  -2   6   2   14.30    9.30
   1  -6  -2   50.09    8.50
   0  -6  -2  103.79   14.00
   0   6   2  124.19   15.60
   0   6   2  127.39   22.40
  -1  -6  -2  -11.70   10.50
  -1  -6  -2    2.60   10.50
   1   6   2    9.90   11.50
   1   6   2   19.10   13.30
  -2  -6  -2   67.09   16.40
   2   6   2   49.00   14.90
  -3  -6  -2   11.90   19.20
  -4  -6  -2  -19.10   23.90
   6  -7  -2  316.67   34.20
  -6   7   2  218.48   32.10
  -6   7   2  242.18   28.70
  -6   7   2  242.38   28.70
  -6   7   2  297.37   39.50
   5  -7  -2   61.19   16.80
  -5   7   2   42.70   20.60
  -5   7   2   12.90   17.10
  -5   7   2   41.60   16.80
  -5   7   2   30.60   15.80
   4  -7  -2   33.40   12.90
  -4   7   2   12.80   13.30
  -4   7   2   23.40   12.60
  -4   7   2   46.90   15.50
   3  -7  -2  139.39   15.00
   3  -7  -2  139.09   17.30
  -3   7   2  120.89   16.20
   2  -7  -2   24.90   10.30
  -2   7   2   14.60   13.90
  -2   7   2   23.60   10.80
  -2   7   2   30.90   10.90
   1  -7  -2   21.40   11.10
  -1   7   2   53.49   14.10
   0  -7  -2   83.59   14.80
   0   7   2   65.39   17.50
   0   7   2   75.89   16.10
   1   7   2  -17.80   17.70
   1   7   2   16.00   29.30
  -2  -7  -2   54.19   19.20
  -3  -7  -2   86.29   27.60
  -6   8   2   33.60   22.30
  -6   8   2   37.20   31.50
  -6   8   2   80.09   26.00
   5  -8  -2  -25.60   18.00
  -5   8   2   12.80   18.20
  -5   8   2   18.20   24.60
   4  -8  -2   74.19   15.90
   4  -8  -2   95.79   15.20
  -4   8   2   91.29   17.80
  -4   8   2   72.39   16.50
  -4   8   2   95.39   19.60
   3  -8  -2   14.10   13.20
  -3   8   2   17.50   14.80
  -3   8   2  -11.60   13.80
  -3   8   2   -4.00   19.50
   2  -8  -2   20.40   13.90
  -2   8   2   -1.30   13.30
  -2   8   2    0.60   19.90
   1  -8  -2   29.50   15.90
  -1   8   2   36.70   27.20
   0  -8  -2   35.40   18.40
   0   8   2    8.60   22.50
   0   8   2   32.70   34.10
   1   8   2   71.39   24.70
   5  -9  -2   30.70   18.30
  -5   9   2   20.80   24.00
  -5   9   2   58.59   33.10
   4  -9  -2   84.09   18.80
  -4   9   2   77.19   26.80
  -4   9   2   74.29   20.60
   3  -9  -2   38.50   19.00
  -3   9   2    9.40   18.90
   2  -9  -2   23.00   19.60
  -2   9   2    9.20   35.80
  -2   9   2   -6.60   18.10
   1  -9  -2   66.59   22.00
  -1   9   2    9.20   19.80
  -1   9   2   15.10   38.70
   0  -9  -2   41.90   23.70
   1 -10   3   66.39   25.60
   2 -10   3   82.39   27.40
  -3  10  -3   -9.20   22.80
   3 -10   3   23.40   24.50
   0  -9   3   54.89   22.30
   1  -9   3   -4.00   19.40
   2  -9   3   11.70   17.80
  -3   9  -3  152.68   26.10
   3  -9   3  164.98   26.90
  -4   9  -3   38.00   20.20
  -4   9  -3   61.49   21.90
   4  -9   3   30.30   18.60
  -5   9  -3   17.50   27.20
   5  -9   3   23.30   19.10
   0  -8   3   20.90   15.70
  -1   8  -3   20.20   38.50
   1  -8   3    9.50   14.30
   2  -8   3  441.86   29.10
  -3   8  -3   86.79   13.90
  -3   8  -3   66.99   12.60
   3  -8   3   89.99   15.40
  -4   8  -3    8.40   16.40
   4  -8   3   17.50   20.90
   4  -8   3   21.90   13.60
  -5   8  -3   14.10   20.30
   5  -8   3    1.90   14.80
   5  -8   3    3.10   18.80
  -6   8  -3   43.80   26.50
   3   7  -3   66.09   28.50
  -3  -7   3   55.59   24.30
   2   7  -3   27.70   21.00
   1   7  -3   28.90   17.70
   0   7  -3   23.40   13.40
   0   7  -3   58.39   15.50
   0  -7   3   48.60   13.10
  -1   7  -3  468.85   31.50
  -1   7  -3  434.96   27.60
   1  -7   3  476.35   26.50
  -2   7  -3  328.57   25.70
   2  -7   3  308.87   20.50
  -3   7  -3  421.56   22.70
  -3   7  -3  397.16   24.90
   3  -7   3  396.76   23.70
   3  -7   3  384.76   23.10
   3  -7   3  416.36   22.60
  -4   7  -3   15.70   13.40
  -4   7  -3   26.20   12.30
   4  -7   3   14.00   12.60
   4  -7   3   30.50   13.60
  -5   7  -3    7.80   17.70
  -5   7  -3   -2.30   14.00
  -5   7  -3   10.60   15.30
   5  -7   3    3.90   15.30
  -6   7  -3   76.79   24.40
  -6   7  -3   41.60   18.40
  -6   7  -3   52.99   27.80
  -4  -6   3   61.79   24.10
   3   6  -3  203.78   26.90
  -3  -6   3  210.38   27.50
   2   6  -3  114.39   18.60
   2   6  -3   79.89   14.80
   2   6  -3   54.39   14.40
   1   6  -3  150.68   14.90
   1   6  -3  122.49   20.40
   1   6  -3  108.49   15.30
   0   6  -3   96.09   11.10
   0   6  -3  106.99   18.40
   0   6  -3  118.19   14.50
   0  -6   3  122.19   12.90
  -1   6  -3  438.66   27.40
  -1   6  -3  408.26   22.30
   1  -6   3  396.06   22.10
  -2   6  -3   93.79   13.90
   2  -6   3   83.79    9.60
  -3   6  -3  148.09   13.90
  -3   6  -3  137.59   12.70
   3  -6   3  145.09   13.00
   3  -6   3  123.99   12.20
   3  -6   3  144.29   14.10
  -4   6  -3   19.40   11.00
  -4   6  -3   10.30   10.50
  -4   6  -3   41.90   14.80
   4  -6   3   22.20   10.60
   4  -6   3   29.80   10.90
  -5   6  -3   78.29   16.30
  -5   6  -3   55.39   17.00
   5  -6   3   88.39   14.90
   5  -6   3   71.99   15.50
  -6   6  -3  366.96   33.10
  -6   6  -3  295.77   30.30
  -6   6  -3  317.07   26.90
   6  -6   3  381.56   30.10
  -7   6  -3  110.09   32.00
  -7   6  -3   77.69   27.30
   5   5  -3   14.30   19.80
  -5  -5   3   68.49   24.80
  -4  -5   3  161.08   21.80
   3   5  -3  231.58   23.60
   3   5  -3  243.78   21.40
   2   5  -3   72.49   13.90
   2   5  -3   58.99   10.20
   2   5  -3   62.89   10.80
  -2  -5   3   65.99   10.60
   1   5  -3   69.19    8.70
   1   5  -3   65.69   12.60
   1   5  -3   80.79    9.70
   0   5  -3  136.59   15.30
   0   5  -3  125.49   11.50
   0   5  -3  122.39   10.20
   0  -5   3  115.59   10.30
  -1   5  -3   41.20   10.30
   1  -5   3   47.40    6.60
  -2   5  -3  363.36   18.50
  -2   5  -3  356.66   18.40
  -2   5  -3  371.36   19.60
   2  -5   3  389.26   18.30
  -3   5  -3  316.37   17.80
  -3   5  -3  309.47   17.80
   3  -5   3  315.07   17.90
   3  -5   3  323.17   18.00
  -4   5  -3  238.48   24.00
  -4   5  -3  253.27   17.60
  -4   5  -3  238.78   15.70
  -4   5  -3  265.07   18.00
  -4   5  -3  219.98   16.20
   4  -5   3  239.28   18.40
   4  -5   3  251.77   17.90
  -5   5  -3   74.59   14.30
  -5   5  -3   33.70   18.90
  -5   5  -3   57.59   14.00
  -5   5  -3   57.39   12.20
   5  -5   3   61.29   13.90
   5  -5   3   64.19   12.70
  -6   5  -3  178.68   26.40
  -6   5  -3  182.28   21.00
   6  -5   3  186.48   24.60
   6  -5   3  214.08   23.80
   6  -5   3  177.18   25.50
  -7   5  -3   11.40   25.10
  -7   5  -3   35.00   24.20
   7  -5   3    1.50   23.80
   7  -5   3   29.70   24.30
   5   4  -3  275.87   28.70
  -5  -4   3  239.38   34.70
  -4  -4   3   62.69   18.70
  -4  -4   3   46.60   15.10
   3   4  -3    0.80   10.70
   3   4  -3   15.10   11.20
  -3  -4   3    7.80    8.60
  -3  -4   3    6.00   13.30
   2   4  -3   84.79   10.50
   2   4  -3   74.49   11.60
   2   4  -3   85.79   14.70
  -2  -4   3   87.19    9.80
  -2  -4   3   94.99   14.80
   1   4  -3  251.97   14.60
   1   4  -3  255.67   14.40
  -1  -4   3  242.78   13.50
  -1  -4   3  269.47   17.00
   0   4  -3   72.79    9.90
   0   4  -3   57.79    8.60
   0   4  -3   56.69    7.40
   0  -4   3   54.99    6.60
  -1   4  -3  517.75   26.10
   1  -4   3  515.45   23.50
  -2   4  -3  290.87   15.00
  -2   4  -3  279.47   14.90
   2  -4   3  286.47   14.90
  -3   4  -3   19.60    6.50
  -3   4  -3   20.80    9.70
  -3   4  -3   15.40    6.70
   3  -4   3   13.00    7.00
   3  -4   3   17.10    6.60
  -4   4  -3  128.99   11.70
  -4   4  -3  118.29   13.40
  -4   4  -3  102.39   13.40
  -4   4  -3  113.99   11.50
  -4   4  -3  119.49   21.10
   4  -4   3  129.49   13.60
   4  -4   3  112.39   13.40
  -5   4  -3  193.98   18.70
  -5   4  -3  172.88   18.50
  -5   4  -3  156.78   21.40
   5  -4   3  198.58   15.60
   5  -4   3  186.48   19.00
   5  -4   3  204.88   19.20
  -6   4  -3   33.90   17.50
  -6   4  -3    8.60   15.20
  -6   4  -3    8.30   16.20
   6  -4   3    0.50   16.80
   6  -4   3   26.50   15.60
  -7   4  -3   85.99   24.60
  -7   4  -3   56.49   25.30
   7  -4   3   33.70   26.00
   7  -4   3    4.70   24.10
   7  -4   3   21.40   22.60
   6   3  -3   81.89   20.70
  -6  -3   3   29.60   21.90
  -5  -3   3   50.29   19.40
  -5  -3   3   21.20   15.50
   4   3  -3  181.88   18.50
  -4  -3   3  131.59   16.40
  -4  -3   3  133.69   21.90
   3   3  -3  124.29   14.10
  -3  -3   3  135.79   11.70
  -3  -3   3  152.98   17.10
   2   3  -3  149.09   11.40
   2   3  -3  152.28   12.90
   2   3  -3  131.79   10.30
  -2  -3   3  135.49    9.60
  -2  -3   3  165.68   13.30
   1   3  -3  859.01   36.40
   1   3  -3  784.02   34.60
   1   3  -3  754.52   34.80
  -1  -3   3  712.03   34.20
  -1  -3   3  790.42   36.40
   0   3  -3  728.23   34.00
   0   3  -3  728.03   32.30
   0   3  -3  752.62   32.30
   0  -3   3  725.73   32.40
   0  -3   3  725.53   33.80
  -1   3  -3 2265.77   94.79
  -1   3  -3 2214.28   96.29
  -1   3  -3 2258.17   94.79
   1  -3   3 2192.88   94.79
  -2   3  -3  960.50   42.50
   2  -3   3  998.60   42.60
   2  -3   3  954.00   42.60
  -3   3  -3  356.66   17.90
  -3   3  -3  331.57   17.70
  -3   3  -3  333.47   17.50
  -3   3  -3  318.57   21.40
   3  -3   3  347.97   18.20
   3  -3   3  332.77   17.90
  -4   3  -3  543.05   25.90
  -4   3  -3  511.15   32.00
  -4   3  -3  525.75   27.20
  -4   3  -3  524.95   26.90
   4  -3   3  561.34   27.20
   4  -3   3  487.55   28.80
   4  -3   3  548.35   25.80
   4  -3   3  554.44   26.20
  -5   3  -3   37.40   11.90
  -5   3  -3   47.70   10.40
  -5   3  -3   26.70   10.40
  -5   3  -3   27.20   17.90
  -5   3  -3   36.20   12.20
   5  -3   3   28.90    9.00
   5  -3   3   36.70   11.50
   5  -3   3   25.80   11.60
   5  -3   3   28.10   12.10
  -6   3  -3   16.30   15.70
  -6   3  -3   24.80   18.10
   6  -3   3   27.70   16.70
   6  -3   3   32.30   16.20
  -7   3  -3  102.79   24.60
   7  -3   3  146.09   26.10
   7  -3   3  129.39   33.00
  -6  -2   3   24.90   17.70
   5   2  -3  148.99   18.60
  -5  -2   3  142.89   24.90
  -5  -2   3  146.39   20.10
  -4  -2   3   90.99   16.60
  -4  -2   3   82.79   11.90
  -3  -2   3  242.48   14.50
  -3  -2   3  280.07   17.60
   2   2  -3 1108.79   47.80
   2   2  -3 1024.30   46.30
  -2  -2   3 1001.60   46.40
  -2  -2   3 1124.39   48.20
   1   2  -3  746.73   31.90
   1   2  -3  739.53   33.40
   1   2  -3  723.53   32.20
  -1  -2   3  752.42   33.60
  -1  -2   3  689.03   31.80
   0   2  -3 2466.55  105.49
   0   2  -3 2582.44  104.39
   0  -2   3 2469.15  105.49
   0  -2   3 2343.57  104.39
  -1   2  -3 1425.36   62.69
  -1   2  -3 1481.35   61.79
  -1   2  -3 1493.25   61.89
   1  -2   3 1455.15   61.89
   1  -2   3 1398.16   61.39
   1  -2   3 1440.46   61.69
  -2   2  -3 1193.78   51.79
  -2   2  -3 1145.49   50.49
  -2   2  -3 1154.18   50.59
   2  -2   3 1142.39   50.49
   2  -2   3 1184.38   50.59
  -3   2  -3  159.68   11.00
  -3   2  -3  144.49   10.80
  -3   2  -3  162.88    9.60
   3  -2   3  137.69   13.50
   3  -2   3  164.18   10.50
   3  -2   3  136.09   11.20
   3  -2   3  141.99   10.90
  -4   2  -3   17.40    8.50
  -4   2  -3   24.20    8.50
  -4   2  -3    2.00    8.10
  -4   2  -3    4.60    6.60
  -4   2  -3   13.10   12.10
   4  -2   3    6.40   10.50
   4  -2   3    8.30    8.40
   4  -2   3   21.70    8.90
   4  -2   3   10.60    8.50
  -5   2  -3  382.76   32.70
  -5   2  -3  423.86   25.80
  -5   2  -3  385.86   25.60
   5  -2   3  437.66   24.20
   5  -2   3  405.46   22.60
   5  -2   3  448.36   26.10
  -6   2  -3  275.37   26.50
  -6   2  -3  233.38   29.50
   6  -2   3  236.58   26.00
   6  -2   3  279.47   23.30
   6  -2   3  232.58   30.10
  -7   2  -3   17.50   25.90
   7  -2   3   55.29   26.30
   7   1  -3   13.10   29.00
   7   1  -3   50.69   23.50
  -7  -1   3  -11.10   20.50
   6   1  -3  161.08   20.00
   6   1  -3  123.79   18.40
  -6  -1   3  132.59   17.50
  -6  -1   3  113.79   22.90
   5   1  -3   23.70   10.80
   5   1  -3   46.70   12.00
  -5  -1   3   47.10    9.90
  -5  -1   3   30.30   11.10
   4   1  -3  691.63   33.00
   4   1  -3  697.63   33.30
  -4  -1   3  725.83   33.40
  -4  -1   3  719.13   35.40
  -4  -1   3  713.13   33.10
   3   1  -3  193.28   11.40
   3   1  -3  195.18   11.40
  -3  -1   3  210.68   11.20
   2   1  -3 1309.57   56.59
  -2  -1   3 1378.46   57.99
  -2  -1   3 1279.37   56.49
  -2  -1   3 1306.07   56.39
   1   1  -3  237.98   11.90
   1   1  -3  218.28   10.10
   1   1  -3  220.78   10.20
   1   1  -3  213.88   10.20
  -1  -1   3  241.18   12.20
  -1  -1   3  192.38   10.30
  -1  -1   3  213.68   10.30
   0   1  -3  828.22   35.80
   0   1  -3  825.22   36.50
   0   1  -3  819.02   35.60
   0  -1   3  814.02   35.60
   0  -1   3  867.01   36.60
  -1   1  -3 4686.33  202.38
  -1   1  -3 4906.61  202.88
  -1   1  -3 4950.90  202.88
  -1   1  -3 5142.79  202.58
  -1   1  -3 5011.10  202.28
  -1   1  -3 4552.64  202.58
   1  -1   3 4917.41  202.18
   1  -1   3 4851.21  201.98
   1  -1   3 4814.02  202.88
   1  -1   3 4570.04  202.28
   1  -1   3 4429.56  202.68
  -2   1  -3 1423.66   58.49
  -2   1  -3 1356.16   58.29
  -2   1  -3 1309.97   58.29
  -2   1  -3 1354.76   59.19
   2  -1   3 1411.06   57.99
   2  -1   3 1303.97   58.09
   2  -1   3 1331.47   57.59
   2  -1   3 1296.57   59.19
   2  -1   3 1363.36   58.39
  -3   1  -3  236.38   14.30
  -3   1  -3  236.78   13.90
   3  -1   3  234.08   13.70
   3  -1   3  219.08   13.60
   3  -1   3  236.58   13.30
  -4   1  -3  504.45   26.20
  -4   1  -3  498.95   30.10
  -4   1  -3  525.25   26.40
   4  -1   3  512.05   25.90
   4  -1   3  491.05   25.10
   4  -1   3  467.65   24.30
   4  -1   3  495.05   25.60
  -5   1  -3   74.19   17.40
  -5   1  -3   87.09   13.40
  -5   1  -3   78.99   15.20
   5  -1   3   82.29   13.70
   5  -1   3   82.89   13.60
   5  -1   3   92.79   12.80
  -6   1  -3  124.59   18.80
   6  -1   3   99.79   20.40
   6  -1   3   93.89   20.80
   7  -1   3  -18.10   25.20
   7   0  -3  224.58   36.70
  -7   0   3  196.58   48.70
  -7   0   3  241.08   30.20
   6   0  -3  460.05   30.80
   6   0  -3  388.06   28.80
  -6   0   3  451.55   32.80
  -6   0   3  396.76   27.90
   5   0  -3  396.76   25.50
   5   0  -3  468.45   25.60
  -5   0   3  473.75   30.20
  -5   0   3  482.35   28.10
  -5   0   3  398.46   24.90
   4   0  -3  295.77   17.10
   4   0  -3  283.87   19.60
  -4   0   3  317.27   17.50
  -4   0   3  300.57   17.30
   3   0  -3  876.71   36.40
   3   0  -3  792.82   35.70
  -3   0   3  789.72   36.00
  -3   0   3  764.02   35.60
   2   0  -3  170.98    9.10
   2   0  -3  182.18    9.10
  -2   0   3  166.58    9.30
  -2   0   3  160.58    9.10
   1   0  -3  493.65   22.10
   1   0  -3  513.35   21.70
   1   0  -3  511.15   21.90
   1   0  -3  509.45   21.70
  -1   0   3  490.25   22.10
  -1   0   3  496.35   21.90
   0   0  -3 4496.95  187.98
   0   0  -3 4884.21  187.78
   0   0   3 4348.67  187.98
   0   0   3 4157.48  187.88
   0   0   3 4546.94  187.98
   0   0   3 4583.44  187.68
   0   0   3 4382.56  188.08
   0   0   3 4282.07  187.48
  -1   0  -3 1058.29   47.60
  -1   0  -3 1060.39   47.30
  -1   0  -3 1074.89   47.20
   1   0   3 1119.39   47.40
   1   0   3 1146.89   47.00
   1   0   3 1072.69   46.80
   1   0   3 1105.99   47.90
   1   0   3 1093.19   47.70
   1   0   3 1164.28   47.40
  -2   0  -3 3702.43  156.68
  -2   0  -3 3740.83  157.28
   2   0   3 3769.02  156.68
   2   0   3 3643.34  156.48
   2   0   3 3631.14  157.38
  -3   0  -3 1746.73   78.99
  -3   0  -3 1889.51   79.79
  -3   0  -3 1861.71   79.49
   3   0   3 1867.01   78.29
   3   0   3 1628.94   78.49
   3   0   3 1884.61   78.49
  -4   0  -3  451.05   25.40
  -4   0  -3  498.55   25.10
   4   0   3  451.35   24.60
   4   0   3  453.55   24.60
  -5   0  -3  119.89   20.50
  -5   0  -3  119.79   20.30
   5   0   3  151.38   20.40
   5   0   3  175.28   19.10
  -6   0  -3   61.99   20.60
   6   0   3   19.40   21.30
   6   0   3   49.30   21.40
   6   0   3   26.00   19.50
   7  -1  -3  481.15   38.80
   7  -1  -3  388.06   29.60
  -7   1   3  377.46   37.90
  -7   1   3  340.47   41.60
   6  -1  -3   42.00   16.80
   6  -1  -3   22.90   14.10
   6  -1  -3   45.10   14.80
  -6   1   3   44.40   17.80
  -6   1   3   42.10   24.90
   5  -1  -3   42.60    9.50
   5  -1  -3   58.19   11.40
   5  -1  -3   53.79   11.40
  -5   1   3   49.80   11.50
  -5   1   3   46.70   12.20
   4  -1  -3  113.69   11.70
   4  -1  -3  120.59   10.10
   4  -1  -3  112.89    9.90
   4  -1  -3  106.29   11.30
  -4   1   3  113.99   11.80
  -4   1   3  112.69   12.10
   3  -1  -3  136.39    9.40
   3  -1  -3  141.99    8.90
   3  -1  -3  154.48   10.00
  -3   1   3  139.89   10.20
  -3   1   3  138.19    9.50
   2  -1  -3 4843.72  209.78
   2  -1  -3 5033.20  209.58
   2  -1  -3 5033.00  209.48
   2  -1  -3 4908.91  209.68
  -2   1   3 4831.22  209.78
  -2   1   3 5001.60  209.58
  -2   1   3 5212.08  209.68
  -2   1   3 4906.61  209.88
   1  -1  -3 3582.94  147.69
   1  -1  -3 3431.06  147.79
  -1   1   3 3547.25  147.89
  -1   1   3 3383.96  147.69
  -1   1   3 3552.84  147.49
   0  -1  -3 1590.84   66.49
   0  -1  -3 1507.55   66.59
   0   1   3 1507.35   66.69
   0   1   3 1630.74   66.59
   0   1   3 1562.14   66.29
  -1  -1  -3 2765.12  116.79
  -1  -1  -3 2787.72  116.99
  -1  -1  -3 2724.93  117.39
   1   1   3 2851.01  117.09
   1   1   3 2719.23  116.59
   1   1   3 2724.03  116.79
   1   1   3 2747.93  117.49
  -2  -1  -3  890.31   39.80
  -2  -1  -3  876.01   38.50
  -2  -1  -3  870.71   38.20
   2   1   3  872.01   38.40
   2   1   3  850.21   39.50
   2   1   3  854.01   38.00
  -3  -1  -3  166.48   12.90
  -3  -1  -3  173.18   12.10
  -3  -1  -3  142.29   17.20
   3   1   3  137.09   12.50
   3   1   3  171.28   11.90
  -4  -1  -3  143.19   16.20
  -4  -1  -3  138.79   15.40
   4   1   3  136.19   16.80
   4   1   3  136.49   14.80
   4   1   3  137.39   14.80
  -5  -1  -3    6.70   14.30
   5   1   3   18.70   14.90
   5   1   3    6.70   13.40
   5   1   3   -7.20   14.50
  -6  -1  -3   20.40   13.50
   6   1   3   -4.90   19.70
   7  -2  -3    1.00   18.30
   7  -2  -3   12.50   23.70
   7  -2  -3   17.50   18.50
   7  -2  -3   13.90   21.40
  -7   2   3   -0.30   24.70
   6  -2  -3   -8.60   24.00
   6  -2  -3    5.20   12.00
   6  -2  -3   -3.80   15.70
  -6   2   3   22.80   14.60
  -6   2   3    7.60   16.70
   5  -2  -3   49.10   11.30
   5  -2  -3   44.60    9.80
   5  -2  -3   43.80   11.00
   5  -2  -3   48.20    9.70
  -5   2   3   64.49   12.10
  -5   2   3   45.40   11.50
   4  -2  -3  251.87   13.90
   4  -2  -3  217.38   15.60
   4  -2  -3  240.88   14.20
   4  -2  -3  240.38   15.10
  -4   2   3  223.48   15.50
  -4   2   3  228.48   15.60
   3  -2  -3 3721.13  154.08
   3  -2  -3 3614.14  154.68
   3  -2  -3 3614.24  154.48
  -3   2   3 3571.44  154.48
  -3   2   3 3636.24  154.18
  -3   2   3 3693.73  154.28
  -3   2   3 3619.74  154.68
   2  -2  -3 2845.92  114.99
   2  -2  -3 2683.33  115.39
   2  -2  -3 2632.24  115.29
  -2   2   3 2774.32  115.29
  -2   2   3 2681.63  115.49
  -2   2   3 2676.43  115.39
   1  -2  -3 1303.97   58.09
   1  -2  -3 1347.87   58.29
   1  -2  -3 1477.45   58.69
  -1   2   3 1518.85   58.89
  -1   2   3 1166.58   58.59
  -1   2   3 1357.46   58.49
   0  -2  -3  311.87   14.50
   0   2   3  307.47   15.30
   0   2   3  296.47   13.90
   0   2   3  295.47   14.50
  -1  -2  -3  936.31   40.90
  -1  -2  -3  889.91   41.00
  -1  -2  -3  988.70   42.40
   1   2   3  940.11   41.20
   1   2   3  963.20   42.30
  -2  -2  -3  156.48   10.90
  -2  -2  -3  179.48   15.80
   2   2   3  162.48   14.20
   2   2   3  162.58   10.90
   2   2   3  155.78    9.80
  -3  -2  -3  184.08   12.20
  -3  -2  -3  155.58   13.80
   3   2   3  178.08   12.60
   3   2   3  163.88   19.90
   3   2   3  160.98   13.20
  -4  -2  -3   98.09   13.40
  -4  -2  -3   71.39   12.90
   4   2   3  109.49   15.10
   4   2   3   96.09   13.10
   4   2   3   87.99   12.30
  -5  -2  -3   47.20   13.00
   5   2   3   33.20   15.70
   5   2   3   17.30   15.70
  -6  -2  -3    8.60   18.00
   6   2   3   53.39   22.80
   7  -3  -3   56.69   26.10
   7  -3  -3   53.19   21.50
   7  -3  -3   87.29   20.30
  -7   3   3   68.99   24.60
   6  -3  -3   59.99   17.40
   6  -3  -3   64.09   15.60
   6  -3  -3   96.79   15.50
  -6   3   3   64.69   16.50
  -6   3   3   98.89   17.80
   5  -3  -3   74.19   10.50
   5  -3  -3   90.19   13.40
   5  -3  -3  111.99   12.50
   5  -3  -3   85.69   12.60
  -5   3   3   83.79   13.00
  -5   3   3   99.79   13.50
  -5   3   3   87.19   13.60
  -5   3   3   72.69   10.50
   4  -3  -3   38.50    9.80
   4  -3  -3   25.00    7.90
   4  -3  -3   30.80    7.80
   4  -3  -3   25.30    7.10
  -4   3   3   19.60    9.30
  -4   3   3   17.00    8.10
  -4   3   3   28.10    8.30
   3  -3  -3 1537.75   68.09
   3  -3  -3 1597.14   67.29
   3  -3  -3 1566.44   67.49
   3  -3  -3 1547.45   66.59
  -3   3   3 1560.44   67.19
  -3   3   3 1534.45   66.99
  -3   3   3 1490.55   67.49
  -3   3   3 1564.94   66.89
   2  -3  -3  773.22   34.00
   2  -3  -3  772.52   34.20
   2  -3  -3  757.42   34.00
  -2   3   3  736.23   34.00
  -2   3   3  730.63   33.80
  -2   3   3  788.12   34.20
   1  -3  -3  275.87   13.90
   1  -3  -3  289.57   14.40
  -1   3   3  295.67   14.70
  -1   3   3  295.97   14.90
  -1   3   3  282.17   13.90
   0   3   3  425.06   18.50
   0   3   3  390.56   18.10
   0   3   3  402.16   18.70
   0   3   3  366.36   20.00
  -1  -3  -3   59.59   11.70
  -1  -3  -3   44.00    6.00
   1   3   3   43.10    7.70
  -2  -3  -3  723.83   31.80
   2   3   3  644.24   31.30
  -3  -3  -3  864.91   39.10
   3   3   3  783.72   38.00
   3   3   3  833.42   39.80
  -4  -3  -3    5.70   11.60
   4   3   3   26.60   17.60
  -5  -3  -3   16.90   16.00
   7  -4  -3  131.39   22.40
   7  -4  -3   78.09   22.10
   7  -4  -3  126.19   28.00
  -7   4   3  126.39   27.80
   6  -4  -3  185.28   18.90
   6  -4  -3  109.69   18.60
   6  -4  -3  155.88   20.50
  -6   4   3  143.89   19.20
  -6   4   3  176.08   20.80
  -6   4   3  111.99   18.00
   5  -4  -3   36.30   13.40
   5  -4  -3   39.70   13.10
   5  -4  -3   33.90   11.50
   5  -4  -3   40.50    9.30
  -5   4   3   34.60   13.70
  -5   4   3   22.90   12.30
  -5   4   3   38.70    8.90
  -5   4   3   45.20   12.90
   4  -4  -3   93.89   13.10
   4  -4  -3  114.19   14.60
  -4   4   3   93.59   14.10
  -4   4   3   93.29   12.50
  -4   4   3   98.59   14.10
   3  -4  -3  207.58   14.20
   3  -4  -3  222.38   14.20
   3  -4  -3  218.38   15.00
  -3   4   3  223.48   14.50
  -3   4   3  215.18   13.70
  -3   4   3  228.58   14.80
  -3   4   3  243.38   13.50
   2  -4  -3  699.13   31.90
   2  -4  -3  714.13   32.20
   2  -4  -3  672.43   32.50
  -2   4   3  717.83   33.10
  -2   4   3  725.43   32.30
   1  -4  -3  478.35   21.90
   1  -4  -3  412.86   25.90
   1  -4  -3  481.85   21.30
  -1   4   3  458.25   21.60
  -1   4   3  461.25   22.20
   0  -4  -3  978.10   43.50
   0  -4  -3 1042.10   44.00
   0   4   3  925.91   43.20
   0   4   3 1035.50   44.10
  -1  -4  -3   44.70    6.80
   1   4   3   55.09   10.30
  -2  -4  -3 2275.97  102.59
   2   4   3 2474.95  106.09
  -3  -4  -3  157.28   16.90
   3   4   3  118.69   19.60
  -4  -4  -3   40.20   15.40
  -5  -4  -3   37.70   20.50
   7  -5  -3   -4.80   27.20
   7  -5  -3   51.99   21.70
  -7   5   3   40.00   25.40
  -7   5   3   62.09   42.90
   6  -5  -3   66.29   18.90
   6  -5  -3   67.99   18.60
  -6   5   3   91.49   18.80
  -6   5   3   55.69   17.80
  -6   5   3   95.99   22.50
   5  -5  -3   16.00   14.00
   5  -5  -3   53.19   13.70
  -5   5   3   31.10   14.60
  -5   5   3   34.20   14.30
   4  -5  -3  182.58   16.30
   4  -5  -3  194.48   17.90
  -4   5   3  158.18   14.80
  -4   5   3  176.68   15.20
  -4   5   3  187.88   17.70
  -4   5   3  140.09   17.30
   3  -5  -3  705.13   34.20
   3  -5  -3  732.43   33.60
  -3   5   3  732.73   33.80
  -3   5   3  683.13   33.90
  -3   5   3  703.13   34.00
   2  -5  -3   64.09    8.60
   2  -5  -3   41.60    8.50
   2  -5  -3   69.79    9.80
  -2   5   3   51.39    8.90
  -2   5   3   51.69    8.70
  -2   5   3   56.19    8.50
   1  -5  -3  711.33   33.50
   1  -5  -3  777.62   33.80
  -1   5   3  623.44   35.50
  -1   5   3  832.42   34.80
  -1   5   3  772.82   39.60
  -1   5   3  722.83   34.00
   0  -5  -3 1097.79   47.80
   0   5   3  944.81   50.59
   0   5   3 1135.69   48.00
  -1  -5  -3  135.49   14.20
  -2  -5  -3    3.10   10.30
   2   5   3  -16.90    9.70
  -3  -5  -3   18.10   14.40
   3   5   3   26.90   14.70
  -4  -5  -3   -8.50   20.50
  -7   6   3  137.89   34.50
  -7   6   3  149.88   29.10
   6  -6  -3   47.30   20.80
  -6   6   3  102.39   19.90
  -6   6   3   68.39   20.20
  -6   6   3   61.09   19.60
  -6   6   3   99.19   23.60
   5  -6  -3   68.99   16.40
   5  -6  -3   99.79   16.40
  -5   6   3   92.69   15.80
  -5   6   3   69.29   18.70
  -5   6   3   73.69   18.30
   4  -6  -3  310.27   23.50
   4  -6  -3  293.57   21.70
  -4   6   3  252.57   22.00
  -4   6   3  279.07   20.90
  -4   6   3  331.37   24.10
   3  -6  -3    8.90   11.40
   3  -6  -3   18.40   11.60
  -3   6   3   10.40   10.60
  -3   6   3   21.10   11.20
  -3   6   3   19.00    9.40
   2  -6  -3  307.37   16.90
   2  -6  -3  276.17   18.80
   2  -6  -3  272.27   19.40
  -2   6   3  315.47   18.70
  -2   6   3  269.47   18.90
  -2   6   3  262.67   18.50
   1  -6  -3  134.69   13.00
  -1   6   3  119.19   18.30
  -1   6   3  144.49   16.10
   0  -6  -3   67.09   11.00
   0   6   3   54.19   18.20
   0   6   3   70.99   12.20
  -1  -6  -3   13.80   11.20
  -1  -6  -3   16.30   11.90
   1   6   3    7.00   14.00
  -2  -6  -3   10.20   15.30
   2   6   3   -2.10   13.00
  -3  -6  -3   25.70   20.80
   6  -7  -3   90.59   23.50
  -6   7   3  117.89   29.20
  -6   7   3   71.39   23.00
  -6   7   3   50.59   23.40
   5  -7  -3   36.70   16.90
  -5   7   3  -10.80   17.40
  -5   7   3   30.10   20.40
  -5   7   3   -7.00   22.40
  -5   7   3   -7.90   16.60
   4  -7  -3   48.20   14.10
  -4   7   3   62.69   14.60
  -4   7   3   30.70   15.60
  -4   7   3   60.89   17.50
   3  -7  -3  135.69   20.40
   3  -7  -3  190.38   23.00
   3  -7  -3  122.09   15.20
  -3   7   3  136.89   20.10
  -3   7   3  130.09   17.70
  -3   7   3  147.39   18.00
   2  -7  -3   -6.50   10.20
  -2   7   3   -2.10   11.40
  -2   7   3   21.30   13.90
   1  -7  -3  188.68   19.10
  -1   7   3  196.98   22.50
  -1   7   3  153.98   18.10
  -1   7   3  210.28   35.70
   0  -7  -3  135.39   20.40
   0   7   3   83.29   19.00
   0   7   3   64.09   26.80
   0   7   3  116.29   17.60
   1   7   3   73.79   19.90
  -2  -7  -3   96.19   20.80
  -6   8   3    7.10   27.50
  -6   8   3  -29.20   25.90
  -6   8   3   25.30   33.60
   5  -8  -3   21.00   20.40
  -5   8   3   15.00   20.40
  -5   8   3   12.10   25.60
  -5   8   3   16.20   21.20
   4  -8  -3    9.40   20.30
   4  -8  -3   44.00   14.30
  -4   8   3   30.40   18.40
  -4   8   3   38.00   21.90
  -4   8   3   15.10   17.80
  -4   8   3   81.49   21.70
   3  -8  -3   18.10   13.40
  -3   8   3    4.20   16.90
  -3   8   3   50.99   21.60
  -3   8   3   24.90   16.30
   2  -8  -3   46.20   14.70
  -2   8   3    0.20   19.90
  -2   8   3    6.50   28.80
  -2   8   3   18.70   15.80
   1  -8  -3   43.50   17.00
  -1   8   3   50.49   20.80
  -1   8   3   77.39   28.70
   0  -8  -3   11.20   19.40
   0   8   3  -45.00   36.10
   0   8   3   32.80   25.00
   1   8   3  -11.70   24.20
  -5   9   3   46.50   28.40
   4  -9  -3   55.79   19.20
  -4   9   3    5.80   23.20
  -4   9   3   12.90   28.10
   3  -9  -3   12.60   19.30
  -3   9   3   35.00   20.70
   2  -9  -3   34.00   20.70
  -2   9   3   30.50   25.50
  -2   9   3   59.89   35.20
   1  -9  -3   96.69   23.20
  -1   9   3  106.29   45.60
  -1   9   3   42.90   27.10
   0  -9  -3   62.79   25.30
   0   9   3   47.30   46.20
   1 -10   4  128.69   28.40
  -2  10  -4   69.09   26.10
   2 -10   4   77.09   25.70
  -3  10  -4   55.49   25.70
   3 -10   4   51.09   27.30
   0  -9   4   67.99   22.40
   1  -9   4   44.60   20.00
   2  -9   4   11.40   18.90
  -3   9  -4   41.10   19.40
   3  -9   4   18.10   19.60
  -4   9  -4   33.70   19.00
  -4   9  -4   34.10   19.60
   4  -9   4   10.30   18.60
  -5   9  -4   74.69   25.70
   5  -9   4   51.09   21.50
   0  -8   4   29.70   15.10
   1  -8   4   39.90   15.80
   2  -8   4  198.98   22.50
  -3   8  -4    2.10   15.20
   3  -8   4   29.90   14.40
  -4   8  -4   54.69   17.20
  -4   8  -4   35.60   16.90
   4  -8   4    9.50   21.80
   4  -8   4   41.80   14.30
  -5   8  -4   26.20   22.10
   5  -8   4    9.90   14.40
   5  -8   4  -34.20   18.50
  -6   8  -4   44.70   28.10
   3   7  -4   50.89   69.99
   2   7  -4   36.70   21.90
   1   7  -4   34.10   18.10
   0   7  -4  168.08   25.20
   0   7  -4  137.29   21.10
   0  -7   4  179.18   19.60
  -1   7  -4  717.43   41.00
  -1   7  -4  671.43   36.80
   1  -7   4  734.93   36.20
  -2   7  -4  414.06   31.50
  -2   7  -4  457.35   25.50
   2  -7   4  422.96   25.50
  -3   7  -4  252.17   17.90
  -3   7  -4  249.78   25.50
  -3   7  -4  183.58   25.50
   3  -7   4  225.98   18.40
  -4   7  -4   37.60   13.40
  -4   7  -4   49.70   13.80
  -4   7  -4   37.70   12.80
   4  -7   4   50.89   13.10
   4  -7   4   37.90   15.00
  -5   7  -4   41.10   18.30
  -5   7  -4   64.59   18.10
   5  -7   4   69.79   17.00
  -6   7  -4   46.40   22.70
  -6   7  -4   17.30   18.70
   6  -7   4   36.60   21.50
  -4  -6   4   54.19   25.50
   3   6  -4  122.49   21.70
  -3  -6   4  186.78   20.30
   2   6  -4   17.90   13.70
   2   6  -4   11.60   13.30
   1   6  -4   78.19   15.70
   1   6  -4   69.99   11.20
   1   6  -4   53.69   12.10
   0   6  -4   97.19   13.00
   0   6  -4   87.39   16.40
   0   6  -4   87.39   11.10
   0  -6   4   90.19   13.20
  -1   6  -4  601.44   36.00
  -1   6  -4  673.23   31.30
   1  -6   4  640.24   31.40
  -2   6  -4  274.67   17.30
  -2   6  -4  241.38   21.90
  -2   6  -4  296.57   15.70
   2  -6   4  227.28   16.40
  -3   6  -4  102.69   12.60
  -3   6  -4  102.09   13.00
   3  -6   4   77.59   12.50
   3  -6   4   89.29   10.80
   3  -6   4   81.99   13.30
  -4   6  -4   -2.50   10.90
  -4   6  -4   -2.30   10.70
  -4   6  -4   11.20   16.10
   4  -6   4   -9.10   11.60
   4  -6   4  -10.20   11.50
  -5   6  -4  116.29   15.10
   5  -6   4   89.19   15.60
   5  -6   4  100.19   18.00
  -6   6  -4  253.37   23.40
  -6   6  -4  215.48   31.20
  -6   6  -4  187.58   31.20
   6  -6   4  226.08   28.20
  -7   6  -4  164.08   30.40
  -7   6  -4   29.40   27.30
   5   5  -4   20.30   19.40
  -5  -5   4   46.20   33.50
  -5  -5   4   76.29   27.00
   4   5  -4  142.09   17.70
  -4  -5   4  153.08   23.10
  -4  -5   4  120.19   26.10
   3   5  -4  129.09   22.10
   3   5  -4  174.08   23.10
  -3  -5   4  170.38   22.30
  -3  -5   4  149.19   25.70
   2   5  -4  103.29   19.20
   2   5  -4  127.29   12.90
   2   5  -4   88.89   14.30
  -2  -5   4  132.49   20.10
  -2  -5   4  125.09   13.20
   1   5  -4  335.07   19.00
   1   5  -4  349.96   23.40
   1   5  -4  329.97   19.80
   0   5  -4  532.25   29.90
   0   5  -4  565.84   27.00
   0   5  -4  555.04   26.30
   0  -5   4  544.45   26.60
  -1   5  -4   90.79   13.00
   1  -5   4   66.79    8.60
  -2   5  -4  168.98   11.30
  -2   5  -4  139.39   11.70
  -2   5  -4  154.58   16.20
   2  -5   4  152.78   10.20
  -3   5  -4   69.49   13.20
  -3   5  -4   83.39   10.20
  -3   5  -4   81.09    9.80
   3  -5   4   59.59   12.20
   3  -5   4   66.99    9.60
  -4   5  -4   78.99   12.20
  -4   5  -4   54.99   16.40
  -4   5  -4   92.89   11.60
  -4   5  -4   64.59   10.40
   4  -5   4   79.99   12.60
   4  -5   4   67.39   12.10
  -5   5  -4  313.27   24.00
  -5   5  -4  336.77   25.00
   5  -5   4  332.97   23.90
   5  -5   4  312.77   25.20
  -6   5  -4   78.19   16.30
  -6   5  -4   57.99   20.90
   6  -5   4  105.39   21.20
   6  -5   4   98.89   18.10
   6  -5   4   62.29   21.10
  -7   5  -4  109.19   28.00
   7  -5   4  134.69   26.30
   7  -5   4   73.19   26.30
   5   4  -4   91.89   18.50
  -5  -4   4   93.29   27.70
  -5  -4   4   62.49   22.40
   4   4  -4  150.28   19.20
  -4  -4   4  156.48   27.50
   3   4  -4   -8.20   11.60
   3   4  -4  -13.20   12.30
  -3  -4   4    5.90   14.30
  -3  -4   4    0.10    8.40
   2   4  -4  101.09   12.30
   2   4  -4  150.48   15.80
   2   4  -4  137.29   13.60
  -2  -4   4  144.29   11.50
  -2  -4   4  144.19   16.60
   1   4  -4   70.29   11.00
   1   4  -4   71.89    8.00
   1   4  -4   57.29    9.00
  -1  -4   4   67.09   12.30
   0  -4   4  129.59    9.00
  -1   4  -4   97.29   12.30
   1  -4   4  128.79    8.10
  -2   4  -4  616.84   28.30
  -2   4  -4  615.14   28.40
  -2   4  -4  598.94   31.20
   2  -4   4  627.64   27.60
   2  -4   4  637.34   28.50
   2  -4   4  602.64   28.30
  -3   4  -4   69.39   12.70
  -3   4  -4   71.99   10.40
  -3   4  -4   59.19    9.90
   3  -4   4   64.09    8.50
   3  -4   4   62.19    9.00
  -4   4  -4   61.99   10.80
  -4   4  -4   50.59   14.40
  -4   4  -4   56.69   10.70
  -4   4  -4   56.49    9.30
  -4   4  -4   44.50    9.40
   4  -4   4   56.09   10.50
   4  -4   4   41.50   10.70
  -5   4  -4  267.17   26.60
  -5   4  -4  271.77   22.20
  -5   4  -4  286.47   21.80
  -5   4  -4  223.68   31.10
  -5   4  -4  211.88   19.30
   5  -4   4  260.67   21.80
   5  -4   4  266.97   22.90
  -6   4  -4   10.40   19.60
  -6   4  -4   27.70   17.00
   6  -4   4   41.90   17.50
   6  -4   4   30.90   17.80
   7  -4   4   64.39   24.60
   7  -4   4   80.39   26.70
   7  -4   4  177.58   49.00
   6   3  -4   76.59   19.90
  -6  -3   4   64.69   26.40
   5   3  -4    8.50   12.20
  -5  -3   4   33.00   21.40
  -5  -3   4   34.70   17.30
  -4  -3   4  127.09   16.40
  -4  -3   4  127.99   18.50
   3   3  -4   95.39   13.50
  -3  -3   4  108.89   11.20
  -3  -3   4  128.49   17.40
   2   3  -4  303.37   16.90
   2   3  -4  305.87   16.00
  -2  -3   4  302.47   19.50
  -2  -3   4  286.27   16.10
   1   3  -4  730.23   31.70
   1   3  -4  710.43   32.10
   1   3  -4  708.13   34.10
  -1  -3   4  678.43   33.80
   0   3  -4   14.90    6.90
   0   3  -4   19.90    3.80
   0  -3   4   12.90    6.20
   0  -3   4   20.90    4.00
  -1   3  -4 2781.62  117.29
  -1   3  -4 2814.82  117.39
  -1   3  -4 2838.12  119.09
   1  -3   4 2701.03  117.09
   1  -3   4 2699.13  117.19
  -2   3  -4 1232.38   55.19
  -2   3  -4 1224.48   53.49
  -2   3  -4 1184.88   54.69
  -2   3  -4 1258.77   53.69
  -2   3  -4 1263.07   53.19
   2  -3   4 1219.38   53.49
  -3   3  -4  221.88   13.20
  -3   3  -4  230.48   14.80
  -3   3  -4  233.98   14.20
  -3   3  -4  254.47   20.00
   3  -3   4  229.38   16.90
   3  -3   4  231.68   14.60
  -4   3  -4   52.09    9.80
  -4   3  -4   59.69   13.80
  -4   3  -4   47.80    8.60
  -4   3  -4   41.10   10.20
   4  -3   4   55.49    9.90
   4  -3   4   51.49    9.20
   4  -3   4   37.80    8.80
   4  -3   4   40.80    9.80
  -5   3  -4  153.08   20.30
  -5   3  -4  137.89   15.70
  -5   3  -4  140.29   21.40
  -5   3  -4  153.78   17.90
  -5   3  -4  199.48   19.50
   5  -3   4  118.39   16.60
   5  -3   4  147.29   18.90
   5  -3   4  160.18   15.40
   5  -3   4  153.48   19.10
  -6   3  -4   59.69   18.20
  -6   3  -4   34.60   21.70
   6  -3   4   54.99   20.30
   6  -3   4   71.09   18.90
   6  -3   4   46.00   19.30
  -7   3  -4   12.40   25.00
   7  -3   4   36.20   26.40
   6   2  -4   26.30   18.90
   6   2  -4   97.69   17.70
  -6  -2   4   59.99   17.80
  -6  -2   4   86.69   25.10
   5   2  -4  191.28   19.40
  -5  -2   4  156.48   19.80
  -5  -2   4  217.08   25.80
   4   2  -4    3.90    7.90
  -4  -2   4    3.20   12.40
  -4  -2   4    9.90    8.30
   3   2  -4  687.43   31.90
  -3  -2   4  719.83   35.20
  -3  -2   4  688.33   32.10
   2   2  -4  429.56   20.90
   2   2  -4  366.86   18.40
   2   2  -4  376.66   18.20
  -2  -2   4  408.66   21.20
  -2  -2   4  373.26   18.30
   1   2  -4  460.65   22.40
   1   2  -4  470.55   20.50
   1   2  -4  471.55   20.90
  -1  -2   4  417.66   20.30
  -1  -2   4  435.26   20.20
  -1  -2   4  454.75   22.90
   0   2  -4    4.40    1.80
   0   2  -4    7.80    3.00
   0   2  -4   -7.20    4.70
   0   2  -4    1.60    2.80
   0  -2   4   -5.50    4.70
   0  -2   4   -5.40    3.40
   0  -2   4    3.00    2.60
  -1   2  -4 1330.97   55.99
  -1   2  -4 1304.97   55.79
  -1   2  -4 1284.97   56.69
   1  -2   4 1286.77   55.69
   1  -2   4 1291.17   55.79
  -2   2  -4 1125.69   48.50
  -2   2  -4 1179.08   48.80
  -2   2  -4 1109.79   48.70
  -2   2  -4 1172.18   50.09
  -2   2  -4 1141.09   48.20
  -2   2  -4 1048.70   48.80
   2  -2   4 1001.80   49.30
   2  -2   4 1096.79   48.40
   2  -2   4 1122.89   48.60
  -3   2  -4  268.67   15.00
  -3   2  -4  238.88   15.60
  -3   2  -4  219.88   19.20
   3  -2   4  207.48   17.50
   3  -2   4  259.47   15.00
   3  -2   4  258.07   15.10
   3  -2   4  264.67   14.20
   3  -2   4  261.27   13.70
  -4   2  -4  133.39   14.10
  -4   2  -4  137.69   14.00
  -4   2  -4  133.79   15.50
  -4   2  -4  126.29   16.60
   4  -2   4  110.39   19.90
   4  -2   4  112.69   14.20
   4  -2   4  105.99   13.50
   4  -2   4  130.09   12.10
  -5   2  -4  192.28   22.10
  -5   2  -4  210.08   20.30
  -5   2  -4  157.88   22.70
   5  -2   4  179.58   20.90
   5  -2   4  163.08   23.40
   5  -2   4  188.48   20.60
   5  -2   4  182.08   18.30
   5  -2   4  185.18   16.90
  -6   2  -4  135.79   19.60
   6  -2   4  125.59   22.00
   6  -2   4  123.79   21.80
   6  -2   4  155.98   22.30
  -7   2  -4  199.18   30.60
   7  -2   4  241.58   32.40
   7  -2   4  236.18   32.70
   7   1  -4   60.29   27.60
   7   1  -4   80.99   22.50
  -7  -1   4   18.70   20.60
  -7  -1   4   15.10   29.10
   6   1  -4   70.19   17.10
   6   1  -4   23.70   16.80
   6   1  -4   21.70   13.90
  -6  -1   4   32.00   22.10
  -6  -1   4   24.80   15.20
   5   1  -4   96.39   16.60
   5   1  -4  118.59   14.30
   5   1  -4  145.89   20.40
  -5  -1   4  126.69   21.30
  -5  -1   4  121.69   15.40
   4   1  -4  207.98   15.60
   4   1  -4  218.48   15.00
   4   1  -4  228.48   15.90
  -4  -1   4  230.08   15.40
  -4  -1   4  261.37   19.50
  -4  -1   4  255.27   14.80
   3   1  -4   66.79    7.50
   3   1  -4   76.69    7.90
   3   1  -4   68.29    8.00
  -3  -1   4   63.69    7.00
  -3  -1   4   76.19   11.70
  -3  -1   4   58.39    8.40
   2   1  -4  275.17   12.70
   2   1  -4  245.18   12.80
   2   1  -4  250.67   12.70
  -2  -1   4  256.57   12.90
  -2  -1   4  276.47   15.50
   1   1  -4 7767.92  336.27
   1   1  -4 7738.43  336.17
   1   1  -4 8261.47  336.17
  -1  -1   4 8311.97  337.67
  -1  -1   4 7896.51  336.17
   0   1  -4 2279.67   96.69
   0   1  -4 2324.77   95.49
   0   1  -4 2248.68   95.99
   0   1  -4 2251.67   95.79
   0  -1   4 2198.18   95.79
   0  -1   4 2266.47   95.99
   0  -1   4 2296.97   96.79
   0  -1   4 2239.68   95.49
  -1   1  -4 4492.45  186.88
  -1   1  -4 4351.46  187.08
  -1   1  -4 4677.53  186.48
  -1   1  -4 4271.37  187.08
  -1   1  -4 4594.84  187.08
   1  -1   4 4182.78  187.38
   1  -1   4 4315.37  186.88
   1  -1   4 3989.60  187.08
   1  -1   4 4799.92  186.78
   1  -1   4 4591.04  186.38
  -2   1  -4  520.15   24.10
  -2   1  -4  550.94   24.40
  -2   1  -4  500.95   25.90
  -2   1  -4  525.85   23.60
  -2   1  -4  519.55   24.50
   2  -1   4  541.35   23.30
   2  -1   4  462.75   25.70
   2  -1   4  510.75   24.20
   2  -1   4  539.05   23.50
   2  -1   4  526.35   24.00
   2  -1   4  548.25   24.20
  -3   1  -4   25.50    9.20
  -3   1  -4   19.80    7.70
  -3   1  -4   22.90    6.60
   3  -1   4   27.00    6.10
   3  -1   4   18.90    6.80
   3  -1   4   25.10    6.20
   3  -1   4   20.10    6.60
  -4   1  -4 1005.60   46.00
  -4   1  -4 1022.30   46.60
   4  -1   4  977.20   45.60
   4  -1   4 1000.40   45.80
   4  -1   4  949.51   49.60
   4  -1   4  966.30   45.10
  -5   1  -4  525.75   38.20
  -5   1  -4  668.63   34.20
  -5   1  -4  593.94   34.90
   5  -1   4  643.84   44.80
   5  -1   4  622.74   31.80
   5  -1   4  628.24   33.70
   5  -1   4  590.74   33.10
   5  -1   4  611.24   34.40
  -6   1  -4  116.39   20.60
   6  -1   4   84.59   21.70
   6  -1   4   84.29   20.40
   7  -1   4    3.00   27.10
   7  -1   4  -22.40   28.30
   7   0  -4  279.87   31.10
   7   0  -4  335.47   36.20
  -7   0   4  227.98   30.80
  -7   0   4  197.88   32.60
   6   0  -4   49.60   16.00
   6   0  -4   65.09   14.80
   6   0  -4   79.39   17.20
   5   0  -4   54.89   11.60
   5   0  -4   65.09   10.70
   5   0  -4   68.89   11.80
  -5   0   4   73.59   18.00
  -5   0   4   63.89    9.50
  -5   0   4   50.19   11.60
   4   0  -4  323.47   17.80
   4   0  -4  299.37   18.10
   4   0  -4  345.17   17.90
  -4   0   4  295.47   18.40
  -4   0   4  308.87   18.20
   3   0  -4  994.80   42.50
   3   0  -4  962.30   42.60
  -3   0   4  951.00   42.70
   2   0  -4 1499.45   62.79
   2   0  -4 1469.15   62.99
   2   0  -4 1482.25   63.59
  -2   0   4 1465.35   63.19
  -2   0   4 1444.56   63.19
   1   0  -4  726.43   31.00
   1   0  -4  741.53   31.40
  -1   0   4  716.13   31.70
  -1   0   4  710.63   31.40
   0   0  -4 1895.01   74.09
   0   0  -4 1775.22   74.39
   0   0  -4 1689.73   74.39
   0   0  -4 1752.42   73.79
   0   0   4 1595.34   74.09
   0   0   4 1702.13   73.69
   0   0   4 1625.64   74.79
   0   0   4 1777.12   74.49
   0   0   4 1830.52   73.99
   0   0   4 1810.22   74.69
  -1   0  -4  650.23   31.00
  -1   0  -4  695.03   30.40
  -1   0  -4  673.63   30.50
  -1   0  -4  708.93   30.60
  -1   0  -4  697.73   29.90
   1   0   4  676.13   31.10
   1   0   4  663.83   30.20
   1   0   4  696.23   30.70
   1   0   4  734.63   30.10
  -2   0  -4 3107.39  128.19
  -2   0  -4 3024.00  128.99
  -2   0  -4 3031.40  128.39
   2   0   4 2896.11  127.89
   2   0   4 2983.70  128.19
   2   0   4 2936.81  128.99
   2   0   4 3114.99  127.59
  -3   0  -4 1011.20   44.90
  -3   0  -4  968.80   45.10
   3   0   4  978.80   44.60
   3   0   4  973.50   44.80
   3   0   4 1023.40   44.20
   3   0   4 1019.50   46.90
  -4   0  -4  429.26   24.90
  -4   0  -4  456.95   24.80
  -4   0  -4  422.16   30.40
   4   0   4  404.56   24.00
   4   0   4  415.26   30.40
   4   0   4  425.76   23.90
  -5   0  -4   17.00   21.00
  -5   0  -4   22.10   15.10
  -5   0  -4   42.50   16.60
   5   0   4   24.50   14.90
   5   0   4   -6.50   15.10
  -6   0  -4   26.10   21.20
   6   0   4   -6.20   20.80
   6   0   4   12.80   20.90
   6   0   4   26.30   25.90
   7  -1  -4   75.99   19.90
   7  -1  -4  117.09   21.00
   7  -1  -4  103.99   24.90
  -7   1   4   75.59   24.80
  -7   1   4   82.39   27.50
  -7   1   4   62.89   18.20
   6  -1  -4   25.90   17.90
   6  -1  -4   34.20   15.90
   6  -1  -4    4.70   14.80
   6  -1  -4   20.70   12.60
  -6   1   4   20.90   16.90
   5  -1  -4  120.29   16.30
   5  -1  -4  153.18   17.10
  -5   1   4  105.79   16.40
  -5   1   4  139.79   18.20
   4  -1  -4  107.79   12.50
   4  -1  -4   99.69   11.30
   4  -1  -4   91.79    9.70
  -4   1   4  115.79   12.20
  -4   1   4  109.09   12.10
   3  -1  -4  735.93   32.80
   3  -1  -4  737.13   32.70
   3  -1  -4  716.63   33.00
  -3   1   4  728.93   33.30
  -3   1   4  734.53   33.00
   2  -1  -4  131.09    7.30
   2  -1  -4  112.79    8.00
   2  -1  -4  121.59    8.40
  -2   1   4  126.39    8.60
  -2   1   4  141.49    8.60
  -2   1   4  118.39    7.40
  -2   1   4  129.59    8.40
   1  -1  -4   26.60    4.00
   1  -1  -4   29.70    4.40
   1  -1  -4   28.20    3.80
   1  -1  -4   30.50    4.40
   1  -1  -4   27.50    4.30
  -1   1   4   32.60    3.30
  -1   1   4   31.40    3.90
  -1   1   4   24.50    4.10
   0  -1  -4 1537.55   69.89
   0  -1  -4 1625.94   69.79
   0   1   4 1569.44   69.79
   0   1   4 1767.02   69.99
   0   1   4 1656.03   69.99
  -1  -1  -4 7028.20  303.57
  -1  -1  -4 7099.39  302.97
  -1  -1  -4 7252.37  303.17
   1   1   4 7439.06  303.27
   1   1   4 7141.09  303.67
  -2  -1  -4  390.76   19.40
   2   1   4  402.96   19.90
   2   1   4  407.06   21.40
  -3  -1  -4  508.95   25.90
  -3  -1  -4  517.55   25.20
   3   1   4  520.15   25.30
   3   1   4  481.45   24.70
  -4  -1  -4   88.59   12.80
  -4  -1  -4   83.69   20.20
  -4  -1  -4   66.19   16.30
   4   1   4   82.49   12.00
   4   1   4   89.89   15.10
   4   1   4   88.99   12.60
   5   1   4   21.60   15.80
   5   1   4   10.00   15.40
   5   1   4    3.00   18.00
  -6  -1  -4   37.70   14.80
   6   1   4   27.00   23.00
   7  -2  -4   46.20   18.30
   7  -2  -4   98.29   20.20
   7  -2  -4   52.29   25.50
   7  -2  -4   70.39   31.00
  -7   2   4   86.69   25.20
   6  -2  -4  101.09   15.50
  -6   2   4   92.49   17.30
  -6   2   4   87.69   18.20
   5  -2  -4  124.89   14.40
   5  -2  -4  102.49   13.60
   5  -2  -4   92.79   13.30
  -5   2   4   91.09   13.50
  -5   2   4  106.49   17.10
   4  -2  -4  115.69   11.30
   4  -2  -4  116.49   13.10
   4  -2  -4  121.59   11.90
   4  -2  -4  130.29   10.50
  -4   2   4  116.69   13.00
  -4   2   4  107.89   13.10
   3  -2  -4 2584.04  107.19
   3  -2  -4 2552.54  107.69
   3  -2  -4 2553.64  107.99
   3  -2  -4 2506.55  107.59
  -3   2   4 2376.06  108.29
  -3   2   4 2550.54  107.89
  -3   2   4 2514.95  107.99
   2  -2  -4  178.88    9.10
   2  -2  -4  165.28   10.20
   2  -2  -4  161.78   10.50
   2  -2  -4  171.68    9.70
  -2   2   4  171.78   10.80
  -2   2   4  159.78   10.40
  -2   2   4  168.58    9.30
  -2   2   4  167.98   10.20
   1  -2  -4  185.08   10.40
  -1   2   4  198.48   11.20
  -1   2   4  171.28   10.60
  -1   2   4  169.48    9.70
   0  -2  -4   57.49    6.10
   0   2   4   46.20    5.30
   0   2   4   48.00    7.50
   0   2   4   39.30    5.80
  -1  -2  -4  740.33   33.80
  -1  -2  -4  756.52   33.70
  -1  -2  -4  754.62   34.20
  -1  -2  -4  810.22   35.80
   1   2   4  773.12   34.10
   1   2   4  767.72   34.40
  -2  -2  -4  179.38   12.50
  -2  -2  -4  165.78   11.20
  -2  -2  -4  144.89   10.40
  -2  -2  -4  165.28   16.80
   2   2   4  169.28   11.10
   2   2   4  172.78   11.80
   2   2   4  184.78   16.50
  -3  -2  -4  240.68   15.70
  -3  -2  -4  215.08   16.20
  -3  -2  -4  216.98   14.20
   3   2   4  207.18   14.60
   3   2   4  217.28   15.40
   3   2   4  154.18   23.10
  -4  -2  -4  160.48   21.00
  -4  -2  -4  148.39   15.10
  -4  -2  -4  130.29   18.80
   4   2   4  142.49   16.70
   4   2   4  149.09   21.00
  -5  -2  -4   49.70   13.80
   5   2   4   33.00   16.70
  -6  -2  -4   74.39   19.50
   6   2   4  116.19   28.50
   7  -3  -4   25.90   23.00
   7  -3  -4   37.20   26.70
   7  -3  -4   23.70   20.10
  -7   3   4   57.59   24.50
   6  -3  -4   35.00   17.40
   6  -3  -4   35.40   16.00
   6  -3  -4   21.80   14.80
  -6   3   4   45.70   17.10
  -6   3   4   20.30   15.70
   5  -3  -4  110.39   17.50
   5  -3  -4  110.79   14.90
   5  -3  -4  110.59   13.80
  -5   3   4  110.19   18.10
  -5   3   4  103.09   14.40
   4  -3  -4  803.82   37.10
   4  -3  -4  793.92   35.90
   4  -3  -4  767.22   36.50
  -4   3   4  788.22   37.40
  -4   3   4  800.62   36.60
   3  -3  -4 1675.23   70.29
   3  -3  -4 1610.64   71.19
   3  -3  -4 1608.24   70.89
  -3   3   4 1617.24   70.99
  -3   3   4 1656.13   70.69
  -3   3   4 1633.04   71.39
  -3   3   4 1645.24   70.69
   2  -3  -4  568.14   26.20
   2  -3  -4  555.14   25.70
  -2   3   4  527.55   25.90
  -2   3   4  565.04   26.40
  -2   3   4  559.64   26.00
   1  -3  -4  548.95   25.10
   1  -3  -4  563.44   25.50
  -1   3   4  508.35   26.50
  -1   3   4  585.54   26.20
  -1   3   4  554.04   25.60
   0   3   4  343.97   19.30
   0   3   4  353.16   16.90
   0   3   4  361.96   17.90
  -1  -3  -4  653.43   29.30
  -1  -3  -4  639.24   29.70
  -1  -3  -4  667.73   33.10
   1   3   4  643.94   29.80
   1   3   4  625.94   29.30
  -2  -3  -4  787.02   35.20
  -2  -3  -4  726.23   34.90
  -2  -3  -4  785.32   41.40
   2   3   4  749.53   35.10
  -3  -3  -4  160.08   14.70
  -3  -3  -4  158.68   15.00
   3   3   4  144.89   14.90
   3   3   4  173.08   18.30
  -4  -3  -4   31.10   12.40
   4   3   4   14.00   13.00
  -5  -3  -4   30.90   17.40
   7  -4  -4   49.50   20.20
   7  -4  -4   33.40   26.90
   7  -4  -4   67.59   25.50
  -7   4   4   74.79   26.90
  -7   4   4   34.50   25.80
   6  -4  -4   50.39   17.10
   6  -4  -4   51.29   16.10
   6  -4  -4   61.79   18.40
  -6   4   4   81.99   19.30
  -6   4   4   39.80   17.90
  -6   4   4   21.80   16.40
   5  -4  -4   77.79   12.10
   5  -4  -4   75.89   15.00
   5  -4  -4   72.39   14.30
  -5   4   4   55.69    9.90
  -5   4   4   96.79   15.10
  -5   4   4   80.49   14.40
  -5   4   4   87.39   15.50
   4  -4  -4  665.03   31.40
   4  -4  -4  647.04   32.40
  -4   4   4  605.34   32.30
  -4   4   4  687.13   32.10
  -4   4   4  616.94   30.80
  -4   4   4  569.34   30.60
   3  -4  -4  123.89   12.30
   3  -4  -4  115.69   12.40
  -3   4   4  108.69   12.20
  -3   4   4  115.09   12.70
  -3   4   4  119.39   12.80
  -3   4   4  122.09   10.50
  -3   4   4  125.29   11.10
   2  -4  -4   67.79   10.50
   2  -4  -4   61.99    9.40
  -2   4   4   81.39    9.80
  -2   4   4   76.99    9.80
  -2   4   4   73.99   10.30
   1  -4  -4  135.59    8.60
   1  -4  -4  144.29   10.50
   1  -4  -4  139.99   11.20
  -1   4   4  155.58   14.80
  -1   4   4  139.29   10.40
  -1   4   4  115.29   10.80
   0  -4  -4   57.49    9.40
   0  -4  -4   45.00    9.80
   0   4   4   49.50    7.90
   0   4   4   44.00   10.00
   0   4   4   47.70    8.10
  -1  -4  -4 1227.28   53.99
   1   4   4 1218.48   57.79
  -2  -4  -4 1235.88   57.49
  -2  -4  -4 1222.28   62.39
   2   4   4 1387.66   64.29
  -3  -4  -4  111.19   17.70
   3   4   4   83.59   22.80
   4   4   4   -0.30   37.10
  -5  -4  -4   19.70   21.40
   7  -5  -4   36.90   22.60
   7  -5  -4  -17.30   27.40
  -7   5   4  -37.40   26.50
  -7   5   4   30.50   34.30
   6  -5  -4   22.50   18.40
   6  -5  -4   43.40   19.10
  -6   5   4   68.29   19.00
  -6   5   4   68.79   19.90
  -6   5   4   58.89   22.90
   5  -5  -4  133.89   22.30
   5  -5  -4  125.69   20.00
  -5   5   4  170.18   18.70
  -5   5   4  154.08   17.80
  -5   5   4  102.99   18.00
   4  -5  -4  156.18   18.90
   4  -5  -4  137.29   16.40
  -4   5   4  164.08   18.10
  -4   5   4  126.39   15.90
  -4   5   4  145.79   15.30
  -4   5   4  132.69   14.50
  -4   5   4  137.79   18.00
   3  -5  -4  111.09   14.10
   3  -5  -4  185.68   15.40
   3  -5  -4  166.58   15.60
  -3   5   4  124.19   14.70
  -3   5   4  160.98   15.80
  -3   5   4  132.89   15.20
   2  -5  -4  156.18   13.50
   2  -5  -4  147.39   13.40
   2  -5  -4  138.59   12.70
  -2   5   4  163.58   14.10
  -2   5   4  147.99   13.80
   1  -5  -4  134.59   10.50
  -1   5   4  144.29   16.30
  -1   5   4  111.59   12.00
   0  -5  -4  528.55   26.70
   0   5   4  564.84   27.20
   0   5   4  509.95   32.50
  -1  -5  -4 2153.68   93.99
   1   5   4 2158.38   98.89
  -2  -5  -4  256.77   20.70
  -3  -5  -4   42.90   15.70
   3   5   4   41.50   32.80
  -4  -5  -4   19.90   22.20
   7  -6  -4  104.79   36.30
  -7   6   4  118.09   30.90
  -7   6   4   82.09   36.30
   6  -6  -4   80.79   20.80
  -6   6   4   59.99   23.30
  -6   6   4   47.50   20.60
  -6   6   4   85.49   22.00
  -6   6   4   87.49   27.50
   5  -6  -4   73.99   16.50
   5  -6  -4   72.49   19.20
  -5   6   4   73.89   18.60
  -5   6   4   62.29   17.80
  -5   6   4   57.59   16.90
   4  -6  -4   79.19   14.10
   4  -6  -4   55.39   15.40
  -4   6   4   69.99   14.20
  -4   6   4   69.59   14.70
  -4   6   4   89.49   17.30
   3  -6  -4  607.04   32.50
   3  -6  -4  632.74   32.60
  -3   6   4  619.24   33.40
  -3   6   4  596.64   32.30
  -3   6   4  636.04   32.70
   2  -6  -4  120.19   16.50
   2  -6  -4  152.48   12.80
   2  -6  -4  120.19   14.80
  -2   6   4  136.49   13.90
  -2   6   4  114.79   17.70
  -2   6   4  141.69   16.30
   1  -6  -4  128.49   15.00
   1  -6  -4  181.38   14.30
  -1   6   4  139.29   18.90
  -1   6   4  130.89   15.10
   0  -6  -4  107.69   15.50
   0   6   4   75.79   22.00
   0   6   4   96.59   13.70
  -1  -6  -4    2.40   12.90
  -1  -6  -4  -22.30   11.80
   1   6   4   15.40   23.90
  -2  -6  -4   41.20   17.40
   2   6   4   -4.90   34.10
  -3  -6  -4   39.30   21.70
   6  -7  -4   22.20   22.60
  -6   7   4    4.30   23.40
  -6   7   4   39.90   30.70
  -6   7   4  -24.70   24.50
   5  -7  -4   53.79   18.90
  -5   7   4   14.10   19.50
  -5   7   4   30.40   25.00
  -5   7   4   42.30   17.90
   4  -7  -4   60.09   18.00
  -4   7   4   71.69   18.20
  -4   7   4   57.69   18.20
  -4   7   4   92.29   20.90
   3  -7  -4   68.29   14.40
  -3   7   4   79.19   15.80
  -3   7   4   75.09   17.60
  -3   7   4   90.29   16.30
   2  -7  -4    4.10   11.20
  -2   7   4  -14.30   13.10
  -2   7   4  -27.00   24.20
  -2   7   4   12.70   14.30
  -2   7   4   -2.50   13.90
   1  -7  -4   31.30   12.80
  -1   7   4   18.10   22.80
  -1   7   4   13.30   15.50
   0  -7  -4   59.59   16.10
   0   7   4   10.60   27.70
   0   7   4   18.50   17.50
   1   7   4   87.49   34.00
  -2  -7  -4   70.99   21.60
  -5   8   4   -2.80   24.00
  -5   8   4   14.70   22.60
  -5   8   4   23.20   30.10
   4  -8  -4   26.50   14.70
  -4   8   4   13.60   22.80
  -4   8   4   12.70   21.50
   3  -8  -4   10.50   14.50
  -3   8   4   -1.50   18.00
  -3   8   4    2.90   20.60
  -3   8   4  -10.80   19.50
   2  -8  -4    4.10   15.60
  -2   8   4   26.10   21.60
  -2   8   4   44.20   28.40
   1  -8  -4   19.60   18.50
  -1   8   4   62.79   33.00
  -1   8   4   53.39   21.70
   0  -8  -4   89.89   21.50
   0   8   4  114.39   36.30
   0   8   4   91.89   27.40
   1   8   4  218.08   51.19
   4  -9  -4   26.00   19.30
  -4   9   4   26.10   29.20
  -4   9   4   -6.40   31.20
   3  -9  -4   40.40   22.10
  -3   9   4   83.79   27.80
  -3   9   4   23.10   44.10
   2  -9  -4  215.08   34.20
  -2   9   4  189.28   45.70
   1  -9  -4   62.09   24.60
  -1   9   4   -0.90   49.00
  -1   9   4   76.69   32.80
   1 -10   5   96.89   30.10
   2 -10   5  149.29   28.40
  -3  10  -5  108.19   25.40
   3 -10   5  148.79   29.40
   0  -9   5  140.69   23.70
   1  -9   5  135.19   23.10
   2  -9   5   89.89   23.00
  -3   9  -5   24.80   19.00
   3  -9   5   41.60   20.10
   4  -9   5    7.40   20.90
  -5   9  -5   33.80   27.10
  -5   9  -5   33.70   24.00
   5  -9   5   35.50   22.80
   0  -8   5   93.49   18.70
   1  -8   5   33.50   15.60
  -2   8  -5  141.89   20.90
   2  -8   5  149.29   22.90
   3  -8   5  193.78   22.00
  -4   8  -5    2.10   16.30
   4  -8   5   27.40   17.30
   4  -8   5   41.40   16.10
  -5   8  -5  121.29   22.30
   5  -8   5   62.39   22.40
   5  -8   5  131.49   18.70
  -6   8  -5   47.30   28.30
   3   7  -5   54.19   70.09
   2   7  -5   25.70   55.99
   1   7  -5   54.79   20.80
   0   7  -5   15.70   14.30
   0   7  -5   27.20   11.40
   0   7  -5   39.00   18.10
   0  -7   5   48.20   13.20
  -1   7  -5  586.54   32.00
  -1   7  -5  545.85   36.30
   1  -7   5  596.14   31.80
  -2   7  -5  202.08   18.40
  -2   7  -5  166.58   25.50
   2  -7   5  182.98   17.80
  -3   7  -5   60.39   19.60
  -3   7  -5   -6.90   18.50
  -3   7  -5   22.40   11.50
   3  -7   5   39.10   11.40
  -4   7  -5   28.10   20.60
  -4   7  -5   51.59   15.00
  -4   7  -5   70.19   15.50
   4  -7   5   72.19   14.50
  -5   7  -5   91.69   21.70
  -5   7  -5  132.59   20.20
  -5   7  -5  143.09   18.50
   5  -7   5  114.39   18.70
  -6   7  -5   -3.00   23.20
  -6   7  -5  -10.80   17.80
   6  -7   5   -3.20   21.40
  -4  -6   5   19.10   26.30
   3   6  -5   32.50   20.30
  -3  -6   5   52.39   18.30
   2   6  -5   16.60   16.20
   2   6  -5   47.60   17.80
   2   6  -5    6.00   13.50
   1   6  -5  171.58   16.50
   1   6  -5  138.79   17.80
   1   6  -5  183.88   22.60
   0   6  -5  805.12   39.40
   0   6  -5  821.62   45.10
   0   6  -5  881.01   41.00
   0  -6   5  909.71   41.30
  -1   6  -5 2120.89   87.69
  -1   6  -5 1940.31   90.79
   1  -6   5 1967.30   87.99
  -2   6  -5  119.69   16.40
   2  -6   5   74.69   11.30
  -3   6  -5  231.58   24.90
  -3   6  -5  262.07   19.00
  -3   6  -5  270.37   26.20
  -3   6  -5  279.57   26.90
   3  -6   5  293.77   16.90
   3  -6   5  258.37   17.70
   3  -6   5  260.67   18.20
  -4   6  -5  -11.70   18.70
  -4   6  -5   15.20   12.80
  -4   6  -5   37.30   15.40
  -4   6  -5   22.10   12.30
   4  -6   5   12.50   12.50
   4  -6   5   32.60   12.20
  -5   6  -5   40.70   16.00
  -5   6  -5   31.10   13.60
   5  -6   5   29.90   15.70
  -6   6  -5   24.60   21.80
  -6   6  -5   34.10   23.90
  -6   6  -5    6.70   16.70
   6  -6   5   65.39   20.60
   5   5  -5   30.10   16.80
  -5  -5   5   44.40   29.70
  -5  -5   5   53.49   35.80
  -4  -5   5  101.19   19.30
   3   5  -5   36.20   15.30
   3   5  -5   47.60   20.30
  -3  -5   5   45.30   16.40
  -3  -5   5   52.79   20.70
   2   5  -5   62.29   11.30
   2   5  -5   75.19   11.90
   2   5  -5  104.89   16.00
  -2  -5   5  101.89   16.80
   1   5  -5  628.34   30.90
   1   5  -5  593.94   31.20
   1   5  -5  635.74   34.40
  -1  -5   5  697.53   34.80
   0   5  -5 2371.66  104.29
   0   5  -5 2366.06  101.29
   0   5  -5 2426.86  101.59
   0  -5   5 2268.47  101.79
  -1   5  -5  531.85   30.20
   1  -5   5  575.14   26.60
  -2   5  -5    3.90    6.60
  -2   5  -5   15.90    7.50
  -2   5  -5   -9.40   10.50
   2  -5   5   14.90    5.30
   2  -5   5    9.60    6.50
  -3   5  -5   78.19   13.00
  -3   5  -5   89.69   11.50
  -3   5  -5   91.79   15.70
  -3   5  -5   97.49   14.80
   3  -5   5  101.89    9.50
   3  -5   5   78.69   12.60
  -4   5  -5   -5.50   16.40
  -4   5  -5   39.60   10.80
  -4   5  -5   41.30   10.80
  -4   5  -5   27.00   12.30
  -4   5  -5   67.09   10.90
   4  -5   5   63.39   12.20
   4  -5   5   51.49   11.90
  -5   5  -5  261.77   23.60
  -5   5  -5  215.58   24.60
  -5   5  -5  217.38   19.80
   5  -5   5  247.08   22.70
   5  -5   5  183.18   24.20
  -6   5  -5  119.99   23.90
  -6   5  -5  168.98   21.80
  -6   5  -5  177.28   26.50
   6  -5   5  160.68   22.50
   6  -5   5  181.28   27.70
  -7   5  -5   78.69   26.90
  -7   5  -5  104.49   28.40
   7  -5   5   99.89   29.40
   5   4  -5    2.00   14.60
  -5  -4   5  -23.10   19.70
  -5  -4   5   40.20   33.40
   4   4  -5  350.26   23.40
  -4  -4   5  401.06   34.10
   3   4  -5  117.39   17.10
   3   4  -5  117.19   18.30
  -3  -4   5  115.09   14.80
  -3  -4   5  140.79   19.80
   2   4  -5  166.88   15.50
   2   4  -5  150.08   13.60
   2   4  -5  173.88   17.90
  -2  -4   5  189.58   18.90
  -2  -4   5  204.58   12.90
   1   4  -5  434.86   25.60
   1   4  -5  442.66   22.10
   1   4  -5  421.76   21.80
  -1  -4   5  458.95   25.20
   0   4  -5  341.47   21.70
   0   4  -5  387.36   18.70
   0  -4   5  337.97   20.70
   0  -4   5  339.27   18.50
  -1   4  -5  174.68   10.00
   1  -4   5  164.48   10.00
   1  -4   5  153.88   10.00
  -2   4  -5   65.29   10.70
  -2   4  -5   69.69    7.70
   2  -4   5   73.59    9.30
   2  -4   5   80.39    6.40
   2  -4   5   69.89    9.10
  -3   4  -5   -6.40    7.80
  -3   4  -5   -9.00   11.90
  -3   4  -5   10.00   10.40
  -3   4  -5   -6.90    6.90
  -3   4  -5    3.40    5.80
   3  -4   5   -3.90    7.80
   3  -4   5    8.30    7.80
  -4   4  -5  734.53   36.90
  -4   4  -5  768.62   36.80
  -4   4  -5  700.43   41.40
  -4   4  -5  647.94   35.70
  -4   4  -5  749.92   35.00
   4  -4   5  752.32   36.70
   4  -4   5  791.92   36.50
  -5   4  -5  460.65   30.80
  -5   4  -5  625.64   32.40
  -5   4  -5  555.64   30.00
  -5   4  -5  511.25   39.70
  -5   4  -5  553.64   34.40
   5  -4   5  531.25   33.00
   5  -4   5  581.24   32.30
  -6   4  -5   83.29   25.30
  -6   4  -5   65.49   19.50
  -6   4  -5   74.19   17.10
   6  -4   5  105.19   22.20
   6  -4   5   74.39   19.60
  -7   4  -5   16.70   27.00
  -7   4  -5   33.00   31.70
   7  -4   5   66.49   28.80
   6   3  -5   -5.00   17.70
  -6  -3   5   20.90   31.30
  -6  -3   5    7.20   25.60
   5   3  -5   74.49   13.20
  -5  -3   5   64.29   23.00
  -5  -3   5   62.49   16.90
   4   3  -5   72.89   10.20
  -4  -3   5   92.99   19.10
  -4  -3   5   67.09   13.00
   3   3  -5   82.29    9.30
   3   3  -5   76.89   11.00
  -3  -3   5   76.19   14.70
  -3  -3   5   67.89    9.10
   2   3  -5   64.29    8.90
   2   3  -5   65.59    9.00
   2   3  -5   69.09   11.60
  -2  -3   5   86.79   12.50
  -2  -3   5   46.60    8.10
   1   3  -5  331.17   17.10
   1   3  -5  341.17   16.50
   1   3  -5  332.47   21.30
  -1  -3   5  306.57   19.80
   0   3  -5   92.39    6.70
   0  -3   5   93.09    6.80
   0  -3   5   60.59   10.60
  -1   3  -5 1417.36   59.79
  -1   3  -5 1386.96   61.89
  -1   3  -5 1396.26   59.99
   1  -3   5 1373.86   59.89
   1  -3   5 1369.96   59.59
  -2   3  -5  201.18   12.00
  -2   3  -5  167.88   14.30
  -2   3  -5  201.78   12.80
   2  -3   5  187.88   12.80
   2  -3   5  198.38   12.40
  -3   3  -5  142.99   12.20
  -3   3  -5  133.69   18.80
  -3   3  -5  115.39   14.50
  -3   3  -5  145.49   10.30
  -3   3  -5  137.49   13.80
   3  -3   5  127.99   12.70
   3  -3   5  147.59   12.80
  -4   3  -5   62.79   10.70
  -4   3  -5   56.59   15.70
  -4   3  -5   81.39   13.40
  -4   3  -5   54.69   11.60
   4  -3   5   68.39   11.00
   4  -3   5   63.19   11.00
   4  -3   5   69.29   11.70
   4  -3   5   63.69    9.60
  -5   3  -5  -21.00   17.90
  -5   3  -5    9.60   15.70
  -5   3  -5   29.50   16.30
  -5   3  -5   31.20   13.90
   5  -3   5   24.50   14.10
   5  -3   5   12.00   14.90
   5  -3   5   28.20   17.70
   5  -3   5    7.40   11.70
  -6   3  -5    1.00   17.20
  -6   3  -5    2.50   17.30
   6  -3   5   41.90   18.60
   6  -3   5   33.60   22.20
  -7   3  -5  106.39   27.50
   7  -3   5  107.29   30.00
   6   2  -5  -14.50   19.80
   6   2  -5    0.30   27.30
   6   2  -5  -16.20   15.30
  -6  -2   5    9.30   27.10
  -6  -2   5   28.00   20.40
   5   2  -5  237.98   21.70
   5   2  -5  235.88   20.20
   5   2  -5  229.98   20.70
  -5  -2   5  242.08   22.50
  -5  -2   5  242.58   28.20
   4   2  -5  172.38   14.30
  -4  -2   5  176.68   15.20
  -4  -2   5  176.38   20.30
   3   2  -5  201.28   12.10
  -3  -2   5  198.78   12.30
  -3  -2   5  163.08   18.60
   2   2  -5 1342.87   57.19
   2   2  -5 1313.67   57.29
  -2  -2   5 1346.87   59.99
  -2  -2   5 1307.07   57.29
   1   2  -5 3024.80  129.99
   1   2  -5 3039.50  128.59
  -1  -2   5 3027.40  128.19
  -1  -2   5 3024.70  130.29
   0   2  -5 9999.00  399.86
   0   2  -5 9175.58  398.36
   0   2  -5 9216.78  398.26
   0  -2   5 9672.03  399.86
   0  -2   5 9285.97  398.16
  -1   2  -5  930.61   40.80
  -1   2  -5  915.41   39.40
   1  -2   5  903.71   40.50
   1  -2   5  897.71   39.70
   1  -2   5  864.61   39.30
  -2   2  -5  200.68   12.70
  -2   2  -5  189.68   12.90
  -2   2  -5  214.28   15.60
  -2   2  -5  206.78   12.00
  -2   2  -5  199.38   12.90
   2  -2   5  194.38   11.90
   2  -2   5  200.18   15.00
   2  -2   5  192.68   12.30
   2  -2   5  204.78   11.00
  -3   2  -5  578.74   29.30
  -3   2  -5  581.14   27.30
  -3   2  -5  610.34   28.50
  -3   2  -5  591.84   32.00
  -3   2  -5  600.54   29.00
   3  -2   5  537.15   31.60
   3  -2   5  600.84   28.50
   3  -2   5  600.54   28.50
   3  -2   5  599.74   28.00
   3  -2   5  597.94   26.80
   3  -2   5  583.54   27.30
  -4   2  -5   33.50   13.90
  -4   2  -5   50.89   12.60
  -4   2  -5   46.10    9.10
  -4   2  -5   49.10   10.20
   4  -2   5   42.20    9.30
   4  -2   5   34.60   10.50
   4  -2   5   44.10   10.10
   4  -2   5   32.10   16.10
  -5   2  -5  143.69   24.00
  -5   2  -5  115.89   21.40
  -5   2  -5  160.38   22.30
   5  -2   5  176.78   21.00
   5  -2   5  122.19   19.10
   5  -2   5  180.18   21.30
   5  -2   5  129.89   17.00
   5  -2   5  158.38   16.20
  -6   2  -5   85.09   19.70
   6  -2   5   52.79   23.40
   6  -2   5   69.99   22.30
   6  -2   5   63.69   19.30
   7  -2   5   26.70   30.20
   7  -2   5   57.29   29.60
   7   1  -5  140.69   32.90
   7   1  -5   73.89   22.80
  -7  -1   5   88.79   36.30
  -7  -1   5  124.59   23.70
   6   1  -5   51.99   16.00
   6   1  -5   68.19   18.20
   6   1  -5   58.09   18.10
  -6  -1   5   54.49   16.50
   5   1  -5   65.49   12.00
  -5  -1   5   63.09   12.50
  -5  -1   5   57.19   16.50
  -5  -1   5   60.59   11.50
   4   1  -5  239.68   15.90
   4   1  -5  249.18   16.50
  -4  -1   5  252.77   17.00
  -4  -1   5  266.47   15.80
  -4  -1   5  260.17   21.30
   3   1  -5 1085.79   46.40
   3   1  -5 1038.20   46.20
   3   1  -5 1053.29   46.60
  -3  -1   5 1020.90   46.30
  -3  -1   5 1059.89   46.70
  -3  -1   5 1096.49   49.30
   2   1  -5 1567.34   64.89
   2   1  -5 1518.25   64.89
   2   1  -5 1472.45   64.99
  -2  -1   5 1486.85   65.19
  -2  -1   5 1521.15   65.09
  -2  -1   5 1531.15   67.19
   1   1  -5 1581.04   68.09
   1   1  -5 1627.94   67.49
   1   1  -5 1573.34   67.79
  -1  -1   5 1619.94   67.69
  -1  -1   5 1609.74   67.79
  -1  -1   5 1608.44   69.59
  -1  -1   5 1513.85   68.09
   0   1  -5   77.29    6.10
   0   1  -5   71.79    4.80
   0   1  -5   81.29    7.80
   0   1  -5   76.59    6.40
   0  -1   5   61.89    6.70
   0  -1   5   65.59    7.80
   0  -1   5   82.09    6.10
  -1   1  -5 1738.33   71.29
  -1   1  -5 1554.24   71.09
  -1   1  -5 1688.63   70.39
  -1   1  -5 1720.63   70.69
  -1   1  -5 1685.43   70.99
  -1   1  -5 1626.24   71.19
   1  -1   5 1524.85   71.39
   1  -1   5 1665.23   70.49
   1  -1   5 1675.73   71.19
   1  -1   5 1727.63   70.19
   1  -1   5 1687.73   71.19
   1  -1   5 1559.14   70.79
  -2   1  -5  123.49   10.30
  -2   1  -5  116.79   10.60
  -2   1  -5  125.49    8.30
  -2   1  -5  112.99    9.60
   2  -1   5  127.09    8.50
   2  -1   5  123.49    9.40
   2  -1   5  120.39    9.80
   2  -1   5  125.89    7.60
   2  -1   5  132.89    9.70
  -3   1  -5 1598.04   72.39
  -3   1  -5 1575.44   76.19
  -3   1  -5 1686.93   71.09
   3  -1   5 1645.34   71.19
   3  -1   5 1585.04   70.79
   3  -1   5 1651.73   70.29
   3  -1   5 1590.54   72.99
   3  -1   5 1657.13   69.89
  -4   1  -5  507.45   27.00
  -4   1  -5  497.25   28.30
  -4   1  -5  431.66   30.30
   4  -1   5  470.15   24.40
   4  -1   5  503.05   33.80
   4  -1   5  472.05   26.70
   4  -1   5  499.35   25.10
   4  -1   5  480.35   26.80
  -5   1  -5   98.19   16.10
  -5   1  -5   28.70   19.10
  -5   1  -5   83.49   18.50
   5  -1   5   67.19   19.50
   5  -1   5   78.69   16.00
   5  -1   5   50.59   11.80
   5  -1   5   90.99   26.30
   5  -1   5   88.69   14.60
   5  -1   5   85.19   16.80
  -6   1  -5   53.49   21.30
   6  -1   5   62.79   23.60
   6  -1   5   -3.40   36.20
   6  -1   5   25.90   24.80
   7   0  -5   24.90   18.70
   7   0  -5   68.49   26.30
  -7   0   5   43.90   20.20
  -7   0   5   -5.50   28.80
   6   0  -5   -5.70   16.10
   6   0  -5    7.30   13.20
   6   0  -5   27.70   16.90
  -6   0   5    4.70   25.40
  -6   0   5   20.20   14.20
   5   0  -5  745.13   35.00
   5   0  -5  716.43   35.90
   5   0  -5  702.73   36.20
  -5   0   5  698.93   36.20
  -5   0   5  696.13   39.60
  -5   0   5  723.03   34.80
   4   0  -5  824.62   37.30
   4   0  -5  792.02   38.00
   4   0  -5  847.12   37.80
  -4   0   5  808.62   39.30
  -4   0   5  828.42   38.30
   3   0  -5 1459.35   62.09
   3   0  -5 1444.66   62.29
   3   0  -5 1453.55   62.79
  -3   0   5 1459.55   62.79
  -3   0   5 1388.06   62.79
   2   0  -5  223.48   11.60
   2   0  -5  207.38   12.70
   2   0  -5  223.18   11.50
  -2   0   5  227.48   12.00
  -2   0   5  219.38   11.40
  -2   0   5  206.98   12.40
   1   0  -5   71.39    6.30
   1   0  -5   74.79    6.10
   1   0  -5   67.19    6.00
   1   0  -5   65.69    4.40
  -1   0   5   63.79    4.80
  -1   0   5   74.79    9.70
  -1   0   5   60.89    5.80
   0   0  -5 1126.09   50.29
   0   0  -5 1106.89   50.49
   0   0  -5 1201.18   49.70
   0   0  -5 1191.08   50.59
   0   0  -5 1278.17   51.59
   0   0   5 1194.98   50.99
   0   0   5 1107.49   50.19
   0   0   5 1151.68   49.70
   0   0   5 1143.29   50.69
  -1   0  -5 4957.50  207.68
  -1   0  -5 4903.11  208.08
  -1   0  -5 4773.52  208.48
  -1   0  -5 4948.90  207.78
  -1   0  -5 4938.21  208.18
  -1   0  -5 4869.01  208.38
   1   0   5 5092.69  207.78
   1   0   5 4746.92  207.98
   1   0   5 4953.50  207.38
   1   0   5 5008.30  208.28
   1   0   5 4989.40  208.38
  -2   0  -5 1126.19   48.70
  -2   0  -5 1155.48   48.30
   2   0   5 1104.09   48.50
   2   0   5  927.01   48.80
   2   0   5 1105.59   48.20
   2   0   5 1149.29   48.70
   2   0   5 1108.69   49.60
  -3   0  -5  589.74   29.30
  -3   0  -5  581.54   29.80
  -3   0  -5  600.44   32.20
   3   0   5  601.84   28.10
   3   0   5  597.54   29.20
   3   0   5  576.54   28.80
   3   0   5  608.94   27.90
   3   0   5  634.64   32.60
  -4   0  -5   66.99   14.00
  -4   0  -5   70.39   13.80
   4   0   5   89.39    9.90
   4   0   5   96.99   15.20
   4   0   5   87.89   12.70
   4   0   5   49.50   12.10
   4   0   5  102.19   19.30
  -5   0  -5  122.89   18.70
   5   0   5  111.89   19.20
   5   0   5  159.78   29.50
   5   0   5  140.49   23.50
   5   0   5  122.29   17.80
  -6   0  -5    7.10   23.50
   6   0   5   46.60   22.40
   6   0   5    9.00   23.30
   6   0   5   -3.40   39.80
   7  -1  -5   16.30   26.00
   7  -1  -5   35.30   19.20
   7  -1  -5   77.59   21.60
  -7   1   5   88.19   32.20
  -7   1   5   53.49   18.10
  -7   1   5   41.30   29.30
   6  -1  -5   93.79   17.60
   6  -1  -5  109.39   16.50
   6  -1  -5  123.99   14.60
   6  -1  -5  101.69   18.20
  -6   1   5  124.39   18.90
   5  -1  -5   43.30   12.10
   5  -1  -5   46.70   11.60
   5  -1  -5   31.50   10.80
  -5   1   5   53.79   13.30
  -5   1   5   32.80   11.90
   4  -1  -5  437.96   23.90
   4  -1  -5  469.55   22.30
   4  -1  -5  469.25   23.30
   4  -1  -5  435.26   22.70
  -4   1   5  463.45   24.40
  -4   1   5  464.65   24.20
   3  -1  -5  138.29    9.10
   3  -1  -5  143.39   10.30
   3  -1  -5  130.79   11.20
  -3   1   5  144.69   11.90
  -3   1   5  138.39   11.70
   2  -1  -5  230.88   11.40
   2  -1  -5  216.08   12.00
   2  -1  -5  223.08   12.60
  -2   1   5  241.58   13.00
  -2   1   5  217.58   11.40
  -2   1   5  223.48   12.50
  -2   1   5  220.98   13.00
   1  -1  -5 1244.18   57.39
   1  -1  -5 1392.66   57.19
   1  -1  -5 1348.17   57.49
   1  -1  -5 1202.78   57.49
   1  -1  -5 1394.46   58.19
  -1   1   5 1333.97   57.09
  -1   1   5 1232.58   57.29
  -1   1   5 1401.96   57.99
  -1   1   5 1539.05   59.39
  -1   1   5 1276.17   57.89
   0  -1  -5 3401.06  148.49
   0  -1  -5 3699.53  148.49
   0   1   5 3319.37  148.09
   0   1   5 3486.25  148.59
   0   1   5 3599.74  147.99
  -1  -1  -5 1363.36   59.89
  -1  -1  -5 1373.16   60.69
  -1  -1  -5 1360.96   60.19
   1   1   5 1413.06   60.09
   1   1   5 1396.56   60.69
   1   1   5 1362.96   58.79
   1   1   5 1384.36   60.09
  -2  -1  -5  569.84   29.20
  -2  -1  -5  540.25   27.60
   2   1   5  558.34   26.80
   2   1   5  582.94   29.10
   2   1   5  593.44   26.20
   2   1   5  588.04   27.40
  -3  -1  -5   26.40   11.80
  -3  -1  -5   12.50   10.10
  -3  -1  -5   20.00   10.40
   3   1   5   14.00    7.30
   3   1   5   15.90    8.80
   3   1   5    7.30    8.40
  -4  -1  -5   -0.60   15.50
  -4  -1  -5  -23.10   12.60
  -4  -1  -5    3.10   12.40
   4   1   5   -5.10   11.30
   4   1   5    4.90   12.50
   4   1   5  -27.80   13.90
   4   1   5    4.90   19.30
   4   1   5    9.50   10.20
  -5  -1  -5   26.50   18.90
   5   1   5   17.10   18.20
   5   1   5   -0.20   16.70
   5   1   5    4.00   32.00
  -6  -1  -5   50.09   16.30
   6   1   5  123.29   26.90
   6   1   5   -6.50   46.30
   7  -2  -5   42.40   26.30
   7  -2  -5   38.20   18.70
   7  -2  -5    2.50   20.00
  -7   2   5   57.09   26.60
   6  -2  -5   27.10   14.40
   6  -2  -5  -12.40   23.00
  -6   2   5   28.50   18.00
  -6   2   5    8.40   17.60
   5  -2  -5   86.49   13.60
   5  -2  -5  105.19   13.90
   5  -2  -5   80.79   11.50
   5  -2  -5   86.19   13.30
  -5   2   5  103.79   14.20
  -5   2   5   97.59   14.20
   4  -2  -5  105.09   13.80
   4  -2  -5  121.39   11.80
   4  -2  -5  115.69   10.70
   4  -2  -5  119.39   12.50
  -4   2   5  121.99   14.10
  -4   2   5  122.39   13.70
   3  -2  -5  569.74   27.80
   3  -2  -5  575.84   27.20
   3  -2  -5  585.34   26.30
  -3   2   5  587.24   27.90
  -3   2   5  579.64   27.80
  -3   2   5  566.64   26.70
   2  -2  -5  247.78   12.30
   2  -2  -5  223.28   13.60
   2  -2  -5  247.98   12.80
   2  -2  -5  224.98   13.30
  -2   2   5  241.48   13.60
  -2   2   5  246.78   15.10
  -2   2   5  255.57   13.80
  -2   2   5  225.18   12.40
  -2   2   5  250.17   14.10
   1  -2  -5   40.20    6.90
   1  -2  -5   39.10    5.50
   1  -2  -5   30.50    6.20
  -1   2   5   45.30    8.10
  -1   2   5   31.20    6.00
  -1   2   5   31.40    5.50
   0  -2  -5 1720.73   72.49
   0   2   5 1699.93   72.59
   0   2   5 1640.54   71.99
   0   2   5 1658.63   73.09
  -1  -2  -5  194.18   15.40
  -1  -2  -5  170.68   11.20
  -1  -2  -5  170.58   11.80
   1   2   5  132.29   13.20
   1   2   5  165.68   12.10
   1   2   5  177.18   15.30
  -2  -2  -5   29.30   10.90
  -2  -2  -5   47.00    8.80
  -2  -2  -5   30.50    5.80
  -2  -2  -5   31.00    7.80
   2   2   5   26.70   11.20
   2   2   5   25.90    8.20
  -3  -2  -5    8.00    7.80
  -3  -2  -5   35.10   10.90
  -3  -2  -5   32.30   10.10
   3   2   5   -9.30   16.20
   3   2   5    9.70   10.00
  -4  -2  -5   24.60   14.50
   4   2   5   31.60   13.50
   4   2   5   14.40   14.70
   4   2   5   66.69   25.40
   4   2   5    8.40   18.30
   4   2   5   35.70   14.30
  -5  -2  -5   36.10   14.90
  -5  -2  -5   21.80   23.40
   5   2   5  -15.00   24.80
   5   2   5   11.20   38.50
   5   2   5   -3.50   18.30
   7  -3  -5    4.10   26.50
   7  -3  -5   21.20   20.30
   7  -3  -5   13.80   24.20
  -7   3   5    0.10   26.80
   6  -3  -5   19.30   20.40
   6  -3  -5   26.00   18.00
   6  -3  -5   31.70   15.00
  -6   3   5   13.80   16.90
  -6   3   5    4.40   18.40
   5  -3  -5  239.68   17.00
   5  -3  -5  258.47   20.50
   5  -3  -5  269.17   22.00
   5  -3  -5  234.98   18.10
  -5   3   5  225.58   19.20
  -5   3   5  228.98   22.90
  -5   3   5  233.38   20.90
  -5   3   5  188.68   15.30
   4  -3  -5  313.57   20.50
   4  -3  -5  302.77   18.70
   4  -3  -5  315.07   17.80
   4  -3  -5  343.67   19.40
  -4   3   5  286.07   18.00
  -4   3   5  300.77   19.30
  -4   3   5  291.77   20.80
  -4   3   5  347.77   20.30
   3  -3  -5  528.75   25.20
  -3   3   5  518.85   25.40
  -3   3   5  491.85   24.80
  -3   3   5  512.15   26.30
  -3   3   5  538.35   26.20
   2  -3  -5   44.80    7.00
   2  -3  -5   26.60   11.60
  -2   3   5   33.50    6.00
  -2   3   5   36.10    7.20
  -2   3   5   34.80    7.50
  -2   3   5   35.90    8.30
  -2   3   5   42.70    7.40
  -1   3   5  761.02   34.80
  -1   3   5  732.13   33.20
  -1   3   5  716.53   34.40
  -1   3   5  748.33   34.00
   0  -3  -5  283.87   16.30
   0   3   5  316.87   16.80
   0   3   5  302.37   18.50
   0   3   5  280.97   15.90
  -1  -3  -5   -6.20    6.60
  -1  -3  -5   -2.80    7.30
  -1  -3  -5   -2.00   10.10
   1   3   5   -0.40    7.50
   1   3   5    1.00    7.10
   1   3   5  -14.20   10.30
  -2  -3  -5  298.57   17.40
  -2  -3  -5  270.67   28.30
   2   3   5  255.77   26.80
  -3  -3  -5   40.00   12.40
  -3  -3  -5   62.79   20.00
  -3  -3  -5   44.80   10.60
   3   3   5   44.80   20.60
  -4  -3  -5   65.89   14.30
   4   3   5   53.79   16.60
   4   3   5   46.10   31.20
   4   3   5   39.80   14.90
  -5  -3  -5   41.50   18.70
   5   3   5   56.89   44.90
   5   3   5   46.60   22.20
   7  -4  -5   69.19   27.80
   7  -4  -5   37.00   21.30
   7  -4  -5   31.00   26.80
  -7   4   5   13.50   27.40
  -7   4   5   56.19   30.00
   6  -4  -5  127.89   19.80
   6  -4  -5  138.59   20.90
   6  -4  -5  173.58   28.60
  -6   4   5  117.09   20.90
  -6   4   5  163.98   22.90
  -6   4   5  131.09   20.70
   5  -4  -5  134.69   17.40
   5  -4  -5  180.28   21.60
   5  -4  -5  175.68   22.40
   5  -4  -5  195.38   20.60
  -5   4   5  140.49   21.70
  -5   4   5  228.28   23.80
   4  -4  -5 1480.15   65.99
   4  -4  -5 1503.85   65.29
  -4   4   5 1298.37   64.39
  -4   4   5 1557.24   66.19
   3  -4  -5   13.30    8.90
   3  -4  -5    9.30    8.90
   3  -4  -5    1.00    7.50
  -3   4   5    2.10    8.20
  -3   4   5   -6.20    8.90
  -3   4   5    4.60    8.30
  -3   4   5   -2.00    9.30
  -3   4   5   17.30    9.20
   2  -4  -5  314.27   17.00
   2  -4  -5  269.37   16.90
   2  -4  -5  289.17   17.60
  -2   4   5  291.47   18.10
  -2   4   5  321.07   18.50
  -2   4   5  286.47   17.40
   1  -4  -5  389.86   20.50
   1  -4  -5  398.56   20.50
  -1   4   5  386.96   21.10
  -1   4   5  391.86   23.00
   0  -4  -5 1169.28   51.99
   0   4   5 1182.88   54.89
   0   4   5 1178.38   51.59
   0   4   5 1160.18   52.39
  -1  -4  -5 1771.52   84.79
  -1  -4  -5 2149.19   85.29
   1   4   5 1792.42   84.79
   1   4   5 1893.41   85.39
   1   4   5 2225.58   89.89
  -2  -4  -5  262.27   18.40
  -2  -4  -5  276.17   31.00
   2   4   5  233.78   19.40
   2   4   5  260.87   19.00
   2   4   5  312.07   33.80
   3   4   5  -46.50   24.90
  -4  -4  -5    7.80   17.70
   4   4   5   17.60   37.10
   7  -5  -5  121.79   30.20
   7  -5  -5  103.39   24.80
  -7   5   5   92.79   35.70
  -7   5   5   50.59   27.70
   6  -5  -5    7.10   20.40
   6  -5  -5   27.30   22.20
   6  -5  -5   18.90   17.80
  -6   5   5    6.30   20.30
  -6   5   5   18.50   26.50
  -6   5   5    1.20   20.10
   5  -5  -5   92.29   15.40
   5  -5  -5   72.59   16.50
   5  -5  -5  103.99   15.50
  -5   5   5   68.89   16.70
  -5   5   5   57.99   17.70
  -5   5   5  112.39   19.10
   4  -5  -5  134.09   17.40
   4  -5  -5  148.49   19.10
  -4   5   5  127.39   16.00
  -4   5   5  160.58   19.60
  -4   5   5  102.99   16.50
  -4   5   5  118.79   17.70
  -4   5   5  181.28   21.10
   3  -5  -5  139.69   15.80
   3  -5  -5  160.28   17.00
  -3   5   5  127.29   15.90
  -3   5   5  158.08   17.40
  -3   5   5  157.88   16.70
   2  -5  -5  226.08   18.40
   2  -5  -5  260.07   18.10
  -2   5   5  227.18   18.80
  -2   5   5  248.78   17.00
  -2   5   5  260.57   17.90
  -2   5   5  263.17   25.00
   1  -5  -5  920.11   46.50
   1  -5  -5  973.20   44.10
  -1   5   5  957.10   43.80
  -1   5   5  939.91   44.80
  -1   5   5 1032.30   48.10
   0   5   5  794.12   39.30
   0   5   5  884.91   44.30
   0   5   5  769.02   37.60
  -1  -5  -5  629.14   31.60
   1   5   5  633.64   45.10
  -2  -5  -5   14.70   13.10
  -3  -5  -5   27.40   17.00
   3   5   5   20.30   34.40
  -4  -5  -5  -33.00   23.80
   4   5   5   21.20   51.49
   7  -6  -5   32.50   26.00
   7  -6  -5   25.40   31.50
  -7   6   5   -6.00   33.10
   6  -6  -5   45.30   20.60
  -6   6   5   -2.10   29.50
  -6   6   5   24.00   22.40
  -6   6   5   27.20   23.30
  -6   6   5   37.90   26.00
   5  -6  -5    5.50   17.40
  -5   6   5   32.60   23.80
  -5   6   5   38.60   18.70
  -5   6   5   55.09   17.50
  -5   6   5   36.00   18.70
   4  -6  -5  173.18   23.00
   4  -6  -5  155.28   23.40
  -4   6   5  139.29   17.40
  -4   6   5  142.49   20.20
  -4   6   5  176.88   23.00
   3  -6  -5  121.99   14.80
   3  -6  -5  120.09   18.90
  -3   6   5  126.59   16.30
  -3   6   5  115.09   17.40
   2  -6  -5  557.14   27.00
   2  -6  -5  474.15   28.30
   2  -6  -5  511.55   28.70
  -2   6   5  520.35   29.90
  -2   6   5  599.14   39.80
  -2   6   5  529.95   30.10
   1  -6  -5  183.98   15.60
   1  -6  -5  127.99   17.20
  -1   6   5  137.29   16.30
  -1   6   5  152.08   24.70
   0   6   5  215.48   34.70
  -1  -6  -5    1.60   13.00
   1   6   5   10.60   25.70
  -2  -6  -5   40.50   18.30
   2   6   5  -16.40   36.90
  -3  -6  -5   29.80   23.30
   3   6   5   56.09   46.70
   6  -7  -5   -9.70   27.00
  -6   7   5   11.00   30.10
  -6   7   5   -4.80   26.10
  -6   7   5   69.59   35.10
   5  -7  -5   76.79   23.60
  -5   7   5   31.80   28.10
  -5   7   5   39.40   19.70
  -5   7   5   33.10   21.80
  -5   7   5   49.90   21.90
   4  -7  -5   85.49   18.80
  -4   7   5   93.29   20.60
  -4   7   5   94.99   23.50
  -4   7   5   96.49   20.60
   3  -7  -5   75.09   17.20
   3  -7  -5   52.39   13.70
  -3   7   5   63.99   17.90
  -3   7   5   72.79   19.90
  -3   7   5   56.59   18.30
   2  -7  -5   28.60   12.80
  -2   7   5   66.69   26.10
  -2   7   5   19.60   16.70
  -2   7   5   33.60   17.70
  -2   7   5   23.70   15.30
   1  -7  -5   16.80   14.20
  -1   7   5    4.10   14.10
  -1   7   5    2.20   27.40
   0  -7  -5   37.50   16.30
   0   7   5   37.90   29.10
   1   7   5   -1.90   37.10
  -2  -7  -5  -21.00   22.40
   2   7   5  -28.20   47.00
  -5   8   5   28.70   28.10
  -5   8   5   52.39   25.70
  -5   8   5   64.79   32.40
   4  -8  -5   31.70   16.10
  -4   8   5   51.59   23.70
  -4   8   5   36.60   26.20
   3  -8  -5    4.60   15.10
  -3   8   5  -19.70   22.50
  -3   8   5    5.80   23.90
  -3   8   5   13.30   35.60
   2  -8  -5  126.29   19.30
  -2   8   5  112.09   25.70
  -2   8   5  141.79   36.00
   1  -8  -5   61.09   20.40
  -1   8   5   -3.70   37.50
  -1   8   5   78.69   25.80
   0  -8  -5  118.69   22.90
   0   8   5   57.39   28.90
   0   8   5   86.89   44.20
   3  -9  -5   89.39   24.20
  -3   9   5   72.99   45.60
  -3   9   5  101.29   32.20
  -3   9   5  114.99   31.90
   2  -9  -5  132.19   26.30
  -2   9   5   87.09   32.40
  -2   9   5   36.40   48.50
  -2  10  -6  108.69   28.80
   2 -10   6  103.39   29.10
   0  -9   6   65.99   24.00
   1  -9   6   90.69   22.60
   2  -9   6   22.30   20.00
  -3   9  -6   89.49   21.70
   3  -9   6   47.00   22.60
  -4   9  -6  -27.50   23.00
  -4   9  -6  -13.40   22.20
   4  -9   6   35.60   20.90
   0  -8   6   14.90   16.70
   1  -8   6    8.60   15.30
   2  -8   6   53.69   16.30
  -3   8  -6  -14.00   16.40
   3  -8   6    1.30   15.80
  -4   8  -6   32.60   17.60
  -4   8  -6   26.80   24.90
  -4   8  -6   46.90   17.70
   4  -8   6   30.00   17.20
   4  -8   6   44.10   16.50
  -5   8  -6   59.19   22.10
  -5   8  -6   26.10   22.90
   5  -8   6   86.89   18.70
   2   7  -6   14.50   61.69
   1   7  -6   20.50   24.60
   0   7  -6   27.70   15.20
   0   7  -6    1.60   19.00
   0   7  -6    6.60   11.80
   0  -7   6   26.00   15.60
  -1   7  -6   96.29   14.70
  -1   7  -6   98.19   20.00
   1  -7   6  119.39   15.30
  -2   7  -6  446.16   34.70
   2  -7   6  481.35   28.10
  -3   7  -6  108.69   18.30
  -3   7  -6  114.79   18.80
  -3   7  -6   94.99   14.60
  -3   7  -6   88.69   22.20
   3  -7   6  119.09   16.80
  -4   7  -6  146.59   23.00
  -4   7  -6   98.49   18.90
  -4   7  -6  100.09   26.80
  -4   7  -6   81.69   16.40
   4  -7   6  137.69   20.30
  -5   7  -6   99.49   24.00
  -5   7  -6  108.29   20.50
   5  -7   6  127.49   20.50
   5  -7   6  116.19   20.10
  -6   7  -6   27.40   25.40
  -6   7  -6   21.20   19.60
   6  -7   6   22.70   24.30
  -4  -6   6   90.69   24.10
  -4  -6   6   75.79   34.40
  -3  -6   6   44.10   26.00
   2   6  -6   76.69   19.70
   2   6  -6   72.49   16.00
  -2  -6   6   79.59   32.30
   1   6  -6  163.58   17.40
   1   6  -6  193.38   18.10
   1   6  -6  126.19   24.00
   0   6  -6 2561.04  114.39
   0   6  -6 2568.64  118.69
   0   6  -6 2705.23  115.09
   0  -6   6 2802.92  115.89
  -1   6  -6  136.29   21.10
   1  -6   6   85.89   13.80
  -2   6  -6  216.38   17.00
  -2   6  -6  250.37   24.60
   2  -6   6  250.07   16.70
  -3   6  -6   52.29   16.50
  -3   6  -6   51.19   22.90
  -3   6  -6   61.89   12.50
   3  -6   6   56.29   11.20
   3  -6   6   87.69   12.40
  -4   6  -6  323.27   26.40
  -4   6  -6  261.17   36.60
  -4   6  -6  289.27   32.00
   4  -6   6  325.07   23.70
   4  -6   6  341.07   20.40
   4  -6   6  336.47   24.20
  -5   6  -6   66.39   18.20
  -5   6  -6   79.29   22.20
  -5   6  -6   83.49   15.20
  -5   6  -6   36.50   23.70
   5  -6   6   55.69   17.90
  -6   6  -6   20.30   18.50
  -6   6  -6   64.79   23.50
  -6   6  -6   39.70   31.60
  -6   6  -6   24.60   31.20
   6  -6   6   38.60   21.40
   5   5  -6   33.90   16.50
  -5  -5   6   31.00   28.50
  -5  -5   6   35.90   35.80
  -4  -5   6   48.60   20.20
  -4  -5   6   76.99   27.70
   3   5  -6   71.09   19.40
   3   5  -6   78.29   14.20
  -3  -5   6   81.29   21.60
  -3  -5   6   83.19   17.60
   2   5  -6  140.19   21.20
   2   5  -6  150.28   15.50
   2   5  -6  118.39   16.20
  -2  -5   6  138.89   23.40
   1   5  -6 2130.89   92.59
   1   5  -6 2081.19   96.09
   1   5  -6 2061.59   92.59
  -1  -5   6 2256.47   95.99
   0   5  -6  116.49   18.20
   0   5  -6   76.99   12.20
   0   5  -6   91.89   10.90
   0  -5   6  107.39   11.20
  -1   5  -6   40.80   12.50
   1  -5   6   41.90    7.70
  -2   5  -6   75.49   13.80
  -2   5  -6   45.40    9.10
  -2   5  -6   47.70    8.20
   2  -5   6   42.10    7.60
   2  -5   6   44.00    9.80
   2  -5   6   57.29    8.40
  -3   5  -6   75.99   15.10
  -3   5  -6   80.69   11.20
  -3   5  -6   90.29   12.60
   3  -5   6   91.79   13.70
   3  -5   6   69.49   10.70
  -4   5  -6   49.80   14.50
  -4   5  -6   22.70   13.00
  -4   5  -6   53.49   16.70
  -4   5  -6   26.10   12.70
   4  -5   6   27.60   12.90
   4  -5   6   38.80   12.10
  -5   5  -6  284.07   31.40
  -5   5  -6  280.17   23.10
  -5   5  -6  323.47   28.00
  -5   5  -6  267.17   30.00
   5  -5   6  235.68   27.70
   5  -5   6  284.87   26.50
  -6   5  -6   15.30   17.70
  -6   5  -6  -21.80   20.50
  -6   5  -6  -23.40   27.00
   6  -5   6    9.50   20.30
   5   4  -6   37.30   13.70
  -5  -4   6   89.39   20.80
  -5  -4   6   41.30   30.60
  -4  -4   6  171.88   30.70
   3   4  -6  438.46   28.00
  -3  -4   6  453.25   25.80
  -3  -4   6  437.86   31.30
   2   4  -6   78.99   14.20
   2   4  -6   88.29   14.00
   2   4  -6   87.69    9.90
  -2  -4   6   92.79   15.60
   1   4  -6  345.77   23.40
   1   4  -6  372.06   19.30
   1   4  -6  358.36   19.00
  -1  -4   6  346.47   23.30
   0   4  -6  175.68   11.60
   0   4  -6  187.38   12.00
   0   4  -6  172.98   16.70
   0  -4   6  152.18   15.60
  -1   4  -6  156.18   11.30
  -1   4  -6  155.18   16.20
  -1   4  -6  156.28   10.40
   1  -4   6  158.08   10.30
  -2   4  -6   29.20   10.60
  -2   4  -6    7.10    8.30
  -2   4  -6   14.70    6.30
   2  -4   6   16.40    6.80
   2  -4   6    8.40    7.00
  -3   4  -6  167.88   18.70
  -3   4  -6  166.38   12.50
  -3   4  -6  161.38   18.20
  -3   4  -6  136.49   16.40
  -3   4  -6  192.38   15.10
   3  -4   6  205.68   15.10
   3  -4   6  178.38   15.70
  -4   4  -6  398.56   34.20
  -4   4  -6  440.56   27.10
  -4   4  -6  437.26   29.90
  -4   4  -6  524.65   28.00
  -4   4  -6  486.25   38.30
  -4   4  -6  459.65   25.50
   4  -4   6  531.25   28.00
   4  -4   6  471.35   27.70
  -5   4  -6  334.97   27.60
  -5   4  -6  273.77   22.40
  -5   4  -6  235.28   30.00
   5  -4   6  275.47   26.10
   5  -4   6  236.78   23.00
   5  -4   6  269.27   25.60
  -6   4  -6  -11.10   28.40
  -6   4  -6   18.50   20.10
   6  -4   6    8.40   22.60
   6  -4   6    4.30   25.30
   6  -4   6   -1.20   20.70
   6   3  -6   46.50   18.40
  -6  -3   6   47.50   27.90
  -6  -3   6   66.99   33.10
   5   3  -6  219.78   20.40
  -5  -3   6  193.98   28.10
   4   3  -6  118.09   15.40
  -4  -3   6  106.29   16.50
  -4  -3   6  124.89   21.20
   3   3  -6  523.65   24.70
   3   3  -6  496.25   27.70
  -3  -3   6  511.35   31.90
  -3  -3   6  526.35   26.10
   2   3  -6   -2.40    7.90
   2   3  -6    8.30    6.60
   2   3  -6   -5.70    9.70
  -2  -3   6  -15.60   10.00
  -2  -3   6   -1.70    5.50
   1   3  -6  426.46   24.30
   1   3  -6  431.56   23.40
   1   3  -6  470.05   21.10
  -1  -3   6  418.96   24.70
  -1  -3   6  431.16   21.00
   0   3  -6  573.84   26.00
   0   3  -6  591.94   25.90
   0   3  -6  581.64   25.70
   0   3  -6  570.24   29.50
   0  -3   6  539.65   29.00
  -1   3  -6  450.75   20.50
  -1   3  -6  423.56   20.90
  -1   3  -6  434.16   23.90
   1  -3   6  415.66   22.50
   1  -3   6  429.86   20.70
  -2   3  -6  360.16   17.60
  -2   3  -6  340.87   21.10
  -2   3  -6  347.07   18.30
  -2   3  -6  350.36   19.10
   2  -3   6  355.96   18.50
   2  -3   6  363.36   18.90
  -3   3  -6  251.77   18.70
  -3   3  -6  273.37   17.00
  -3   3  -6  220.28   19.50
   3  -3   6  265.87   17.10
   3  -3   6  281.17   17.20
  -4   3  -6  877.81   40.60
  -4   3  -6  827.12   42.00
  -4   3  -6  788.82   40.60
  -4   3  -6  777.82   45.10
  -4   3  -6  818.32   39.00
   4  -3   6  836.62   39.60
   4  -3   6  864.31   40.90
   4  -3   6  828.32   40.60
   4  -3   6  797.72   38.60
  -5   3  -6   57.69   16.00
  -5   3  -6   69.89   14.90
  -5   3  -6   83.89   20.10
   5  -3   6   83.29   16.40
   5  -3   6   57.99   16.20
   5  -3   6   62.39   18.90
   5  -3   6   38.80   16.30
  -6   3  -6   28.70   20.60
  -6   3  -6   30.20   19.40
   6  -3   6   36.10   24.50
   6  -3   6    4.30   20.90
   6  -3   6  -24.70   25.60
   6   2  -6   49.20   18.80
   6   2  -6   41.90   15.20
   6   2  -6   77.79   20.70
  -6  -2   6   51.69   28.80
  -6  -2   6   77.69   23.40
   5   2  -6   26.80   10.60
   5   2  -6    1.40   13.10
  -5  -2   6   28.90   14.70
  -5  -2   6   17.00   20.10
   4   2  -6   82.79   12.00
   4   2  -6   81.39   12.60
  -4  -2   6   76.79   17.50
  -4  -2   6   98.69   13.00
   3   2  -6  535.95   24.50
   3   2  -6  549.95   24.70
  -3  -2   6  489.15   30.40
  -3  -2   6  493.75   25.00
   2   2  -6  615.54   26.30
   2   2  -6  543.45   26.30
   2   2  -6  575.94   26.20
  -2  -2   6  584.84   26.40
  -2  -2   6  585.94   30.70
   1   2  -6 3610.14  148.89
   1   2  -6 3543.35  149.59
   1   2  -6 3632.64  151.18
   1   2  -6 3447.05  149.29
   1   2  -6 3467.45  149.19
  -1  -2   6 3527.25  149.19
  -1  -2   6 3406.96  151.38
  -1  -2   6 3575.64  149.09
   0   2  -6 1901.61   81.19
   0   2  -6 1920.61   82.99
   0   2  -6 1917.71   81.49
   0  -2   6 1877.91   83.09
   0  -2   6 1950.90   80.79
   0  -2   6 1859.51   81.09
   0  -2   6 1894.81   81.49
  -1   2  -6  556.04   26.70
  -1   2  -6  525.55   25.40
  -1   2  -6  551.64   24.00
  -1   2  -6  550.04   24.90
   1  -2   6  539.95   26.20
   1  -2   6  532.55   24.80
   1  -2   6  537.55   27.40
  -2   2  -6   35.80    7.70
  -2   2  -6   27.20    6.50
  -2   2  -6   34.30    8.00
   2  -2   6   26.10    6.70
   2  -2   6   16.30    6.70
  -3   2  -6  502.55   26.80
  -3   2  -6  532.55   29.90
  -3   2  -6  488.15   26.90
  -3   2  -6  541.45   26.20
   3  -2   6  509.35   25.80
   3  -2   6  502.45   30.50
   3  -2   6  511.95   26.20
  -4   2  -6  241.48   24.70
  -4   2  -6  203.08   20.70
  -4   2  -6  243.68   16.90
  -4   2  -6  227.68   22.10
  -4   2  -6  227.88   19.90
   4  -2   6  184.08   15.70
   4  -2   6  244.08   20.10
   4  -2   6  281.37   19.70
   4  -2   6  248.38   17.80
   4  -2   6  245.58   16.70
   4  -2   6  256.57   28.70
  -5   2  -6  202.48   27.70
  -5   2  -6  265.07   25.50
   5  -2   6  284.07   26.20
   5  -2   6  219.78   19.10
   5  -2   6  246.48   25.50
   5  -2   6  204.28   28.70
   5  -2   6  241.28   22.90
  -6   2  -6   50.99   20.80
   6  -2   6   38.50   33.90
   6  -2   6   56.59   22.40
   6  -2   6   64.99   25.90
   6  -2   6   25.30   27.30
   7   1  -6   35.90   22.20
   7   1  -6   37.80   25.50
  -7  -1   6    2.20   35.70
  -7  -1   6    5.50   22.60
   6   1  -6    7.50   16.70
   6   1  -6   27.70   13.90
   6   1  -6   11.30   17.80
   6   1  -6   48.50   20.00
  -6  -1   6   44.50   16.10
  -6  -1   6   23.30   24.30
   5   1  -6   79.59   15.20
   5   1  -6   79.59   11.40
   5   1  -6   85.89   13.40
  -5  -1   6   77.69   19.70
  -5  -1   6   72.69   12.10
   4   1  -6 1204.78   51.89
   4   1  -6 1189.58   51.79
   4   1  -6 1173.88   52.19
  -4  -1   6 1104.69   55.89
  -4  -1   6 1211.88   52.19
  -4  -1   6 1189.18   52.59
  -4  -1   6 1071.39   53.99
   3   1  -6  504.35   24.10
   3   1  -6  516.15   23.40
   3   1  -6  512.35   23.60
  -3  -1   6  476.95   24.80
  -3  -1   6  484.55   24.10
  -3  -1   6  480.75   27.60
   2   1  -6  981.50   40.40
   2   1  -6  913.81   40.60
   2   1  -6  897.51   40.80
  -2  -1   6  918.11   43.40
  -2  -1   6  924.91   41.30
   1   1  -6 1094.29   47.60
   1   1  -6 1153.18   47.10
   1   1  -6 1061.49   48.00
  -1  -1   6 1085.79   49.70
  -1  -1   6 1113.19   47.60
  -1  -1   6 1132.89   47.40
  -1  -1   6 1060.19   48.10
   0   1  -6   53.99    7.00
   0   1  -6   34.60    4.40
   0   1  -6   47.90    6.80
   0   1  -6   40.40    6.40
   0  -1   6   45.70    6.10
   0  -1   6   43.60    6.90
  -1   1  -6  591.24   25.90
  -1   1  -6  572.44   26.60
  -1   1  -6  558.84   27.10
  -1   1  -6  592.34   27.30
   1  -1   6  615.14   25.60
   1  -1   6  556.54   26.60
   1  -1   6  601.14   26.10
   1  -1   6  581.24   27.20
  -2   1  -6  297.87   18.10
  -2   1  -6  312.67   16.20
  -2   1  -6  316.77   18.00
  -2   1  -6  324.17   17.10
  -2   1  -6  310.27   19.90
   2  -1   6  335.77   16.20
   2  -1   6  323.57   17.40
   2  -1   6  306.67   15.30
   2  -1   6  323.37   17.50
   2  -1   6  341.97   20.10
   2  -1   6  302.07   16.80
  -3   1  -6  187.68   16.80
  -3   1  -6  202.88   18.60
  -3   1  -6  191.88   14.60
   3  -1   6  246.28   21.60
   3  -1   6  197.08   12.00
   3  -1   6  164.18   14.60
   3  -1   6  201.08   15.60
   3  -1   6  165.38   15.00
  -4   1  -6  -23.30   13.30
  -4   1  -6   15.70   11.00
  -4   1  -6    4.60   13.40
   4  -1   6    1.50   10.40
   4  -1   6   -2.60   12.30
   4  -1   6   21.40   18.90
   4  -1   6   12.70    7.60
   4  -1   6   14.40   12.10
   4  -1   6   12.90   11.40
  -5   1  -6   68.79   18.30
  -5   1  -6   53.09   20.50
   5  -1   6   79.69   19.70
   5  -1   6  139.19   28.90
   5  -1   6   74.19   17.60
  -6   1  -6   96.89   24.90
   6  -1   6   45.80   39.20
   6  -1   6  110.59   26.40
   6  -1   6   82.29   23.70
   7   0  -6   42.10   26.60
   7   0  -6   20.70   18.20
   7   0  -6   -3.60   22.50
  -7   0   6    5.10   19.40
  -7   0   6    1.10   31.90
   6   0  -6   17.80   12.70
   6   0  -6   31.80   18.40
   6   0  -6   37.80   17.00
  -6   0   6   51.19   23.00
  -6   0   6  -14.10   29.00
  -6   0   6   31.70   14.00
   5   0  -6   68.59   12.60
   5   0  -6   64.79   13.70
   5   0  -6   63.59   10.10
  -5   0   6   85.79   18.70
  -5   0   6   63.79   13.80
   4   0  -6 1134.09   49.80
   4   0  -6 1099.49   49.30
   4   0  -6 1103.99   50.19
  -4   0   6 1111.59   50.59
   3   0  -6  596.24   28.70
   3   0  -6  614.44   27.50
   3   0  -6  605.74   28.20
  -3   0   6  610.54   28.90
   2   0  -6   44.90    5.70
   2   0  -6   40.40    6.00
   2   0  -6   47.30    6.40
  -2   0   6   41.70    6.50
  -2   0   6   41.50    6.40
   1   0  -6  114.89   10.50
   1   0  -6   96.39    8.10
   1   0  -6  103.69    7.00
   1   0  -6   98.79    7.70
   1   0  -6   91.29    8.20
  -1   0   6   87.39    8.50
  -1   0   6   84.39    7.50
  -1   0   6   71.69   10.40
  -1   0   6   98.09    6.30
   0   0  -6  351.36   18.40
   0   0  -6  373.46   16.90
   0   0  -6  398.06   17.60
   0   0  -6  374.86   18.10
   0   0  -6  380.16   18.40
   0   0   6  362.46   17.90
   0   0   6  394.66   17.40
   0   0   6  362.26   18.70
   0   0   6  379.46   16.80
   0   0   6  369.26   19.10
   0   0   6  366.06   18.70
  -1   0  -6  227.78   15.80
  -1   0  -6  252.27   14.90
  -1   0  -6  257.67   13.20
  -1   0  -6  267.87   14.20
   1   0   6  272.27   15.10
   1   0   6  265.07   12.70
   1   0   6  288.57   14.90
   1   0   6  265.57   13.30
  -2   0  -6  411.66   23.30
  -2   0  -6  399.86   20.70
   2   0   6  366.96   20.40
   2   0   6  391.46   21.20
   2   0   6  408.06   19.80
   2   0   6  406.56   18.80
   2   0   6  423.96   22.80
   2   0   6  390.86   21.10
  -3   0  -6  330.37   22.00
  -3   0  -6  360.96   21.20
  -3   0  -6  354.46   25.20
   3   0   6  358.76   20.90
   3   0   6  362.76   21.30
   3   0   6  389.86   26.80
   3   0   6  365.66   18.80
  -4   0  -6  329.77   26.60
  -4   0  -6  345.87   31.10
  -4   0  -6  444.76   25.80
   4   0   6  400.86   22.80
   4   0   6  461.85   36.40
   4   0   6  389.26   25.40
   4   0   6  409.16   25.70
  -5   0  -6  118.19   20.40
   5   0   6   89.39   29.80
   5   0   6   73.79   20.00
   5   0   6   93.59   20.80
   6   0   6  177.08   26.30
   6   0   6  131.99   43.00
   6   0   6  137.89   27.30
   7  -1  -6  111.29   20.60
   7  -1  -6  159.08   23.30
   7  -1  -6  159.28   28.00
  -7   1   6  102.49   32.70
   6  -1  -6   42.60   18.30
   6  -1  -6   32.90   17.90
   6  -1  -6   32.40   12.90
  -6   1   6   56.89   13.20
  -6   1   6   24.40   19.70
   5  -1  -6  416.66   25.60
   5  -1  -6  443.06   23.10
   5  -1  -6  334.97   24.00
   5  -1  -6  420.56   27.40
  -5   1   6  447.26   28.00
  -5   1   6  421.56   26.20
   4  -1  -6   85.99    9.70
   4  -1  -6   77.49   10.30
   4  -1  -6   84.69   12.40
   4  -1  -6   71.89    9.70
  -4   1   6   86.89   11.30
  -4   1   6   90.89   12.10
   3  -1  -6  155.88   13.40
   3  -1  -6  160.58   10.50
   3  -1  -6  171.38   11.60
   3  -1  -6  166.58   12.10
  -3   1   6  173.28   13.90
  -3   1   6  160.88   13.70
   2  -1  -6   57.69    8.50
   2  -1  -6   59.99    7.70
   2  -1  -6   77.49   10.60
   2  -1  -6   74.59    6.70
  -2   1   6   62.99    9.90
  -2   1   6   63.09    8.40
   1  -1  -6 1422.76   58.59
   1  -1  -6 1361.16   59.59
   1  -1  -6 1308.57   59.09
   1  -1  -6 1308.57   58.89
   1  -1  -6 1387.06   58.99
  -1   1   6 1430.36   59.49
  -1   1   6 1355.56   59.39
  -1   1   6 1394.56   58.39
  -1   1   6 1281.47   58.69
   0  -1  -6  589.84   28.70
   0  -1  -6  627.64   28.50
   0  -1  -6  643.24   28.60
   0  -1  -6  647.64   27.90
   0   1   6  592.54   28.10
   0   1   6  642.44   29.20
   0   1   6  614.34   28.90
  -1  -1  -6 1598.94   67.39
  -1  -1  -6 1543.35   67.79
   1   1   6 1578.24   68.69
   1   1   6 1514.85   67.39
   1   1   6 1535.85   67.79
  -2  -1  -6  218.88   16.10
  -2  -1  -6  220.08   14.70
  -2  -1  -6  240.18   18.30
   2   1   6  254.27   19.00
   2   1   6  233.28   15.70
   2   1   6  195.48   14.60
  -3  -1  -6  172.58   15.70
  -3  -1  -6  157.68   16.80
  -3  -1  -6  116.59   21.20
   3   1   6  152.78   13.70
   3   1   6  156.18   15.50
   3   1   6  164.58   15.20
   3   1   6  139.09   24.10
  -4  -1  -6  107.59   16.80
  -4  -1  -6   97.39   19.60
  -4  -1  -6   92.79   16.00
   4   1   6   73.99   12.60
   4   1   6  105.29   15.20
   4   1   6   90.69   25.40
  -5  -1  -6  -10.40   20.90
   5   1   6  -12.90   19.00
   5   1   6   10.90   32.30
   5   1   6   12.70   20.30
   6   1   6   -4.90   28.90
   7  -2  -6  123.59   27.30
   7  -2  -6   70.29   19.40
   7  -2  -6  119.19   21.00
  -7   2   6   59.79   30.20
   6  -2  -6   68.09   19.20
   6  -2  -6   99.09   19.60
  -6   2   6  124.49   21.20
   5  -2  -6   69.89   15.20
   5  -2  -6   70.89   13.30
   5  -2  -6   58.79   13.50
   5  -2  -6   85.99   12.30
  -5   2   6   81.79   15.20
  -5   2   6   96.59   15.60
   4  -2  -6   93.69   11.10
   4  -2  -6   82.19   11.70
   4  -2  -6   97.39   13.40
   4  -2  -6   72.69   10.60
  -4   2   6   91.39   12.50
  -4   2   6   80.49   12.20
   3  -2  -6   55.59    9.50
   3  -2  -6   48.80    7.90
   3  -2  -6   55.49    7.10
   3  -2  -6   52.59    8.10
  -3   2   6   51.69    7.80
  -3   2   6   63.69    9.50
  -3   2   6   52.19    9.90
  -3   2   6   53.69    8.90
   2  -2  -6  102.29    9.90
   2  -2  -6  109.39   10.50
   2  -2  -6  105.19    9.80
   2  -2  -6  123.79    8.80
  -2   2   6  139.89   11.30
  -2   2   6   94.99   11.20
  -2   2   6  115.79    8.40
  -2   2   6   96.69   10.10
   1  -2  -6   79.39    9.50
   1  -2  -6   78.49    9.40
  -1   2   6  103.29   10.50
  -1   2   6   77.09    8.70
  -1   2   6   84.89   10.00
  -1   2   6   99.19   12.50
   0  -2  -6  587.44   27.40
   0   2   6  599.94   28.10
   0   2   6  580.14   28.90
   0   2   6  575.94   27.00
  -1  -2  -6  205.88   14.50
  -1  -2  -6  237.48   18.40
   1   2   6  184.38   13.50
   1   2   6  237.58   17.50
   1   2   6  211.28   14.70
  -2  -2  -6   57.29   10.10
  -2  -2  -6   56.19   13.10
  -2  -2  -6   48.00    7.30
  -2  -2  -6   79.29   13.20
   2   2   6   53.09   13.30
  -3  -2  -6  129.49   17.30
  -3  -2  -6  109.89   13.00
  -3  -2  -6  140.09   17.80
  -3  -2  -6  140.49   17.70
   3   2   6  139.99   16.40
   3   2   6  154.48   21.60
   3   2   6  118.09   16.10
  -4  -2  -6    3.50   15.60
  -4  -2  -6  -10.30   12.00
   4   2   6    2.30   14.70
   4   2   6  -17.50   15.50
   4   2   6    5.20   26.30
  -5  -2  -6   10.20   15.60
   5   2   6   15.40   21.10
   5   2   6   38.80   39.90
   7  -3  -6   40.60   27.00
   7  -3  -6   25.80   21.10
  -7   3   6  -40.10   29.30
   6  -3  -6   42.80   16.30
   6  -3  -6   47.40   19.40
  -6   3   6   38.60   19.00
  -6   3   6   81.39   21.20
   5  -3  -6  137.09   20.60
   5  -3  -6  115.49   14.20
   5  -3  -6  109.39   15.10
  -5   3   6   92.59   16.60
  -5   3   6  112.49   18.20
   4  -3  -6  812.62   40.40
   4  -3  -6  801.42   39.50
   4  -3  -6  905.91   40.30
   4  -3  -6  840.22   38.50
  -4   3   6  836.62   41.20
  -4   3   6  849.81   40.30
  -4   3   6  885.91   41.60
   3  -3  -6  241.58   15.00
   3  -3  -6  191.98   16.00
   3  -3  -6  207.58   12.60
  -3   3   6  169.18   13.60
  -3   3   6  189.78   15.80
  -3   3   6  209.38   16.50
  -3   3   6  187.98   15.30
   2  -3  -6  169.58   12.20
   2  -3  -6  180.78   13.20
   2  -3  -6  191.18   13.70
  -2   3   6  179.38   14.70
  -2   3   6  165.78   13.90
  -2   3   6  164.48   13.50
  -2   3   6  170.08   11.40
   1  -3  -6  260.47   16.00
   1  -3  -6  263.67   15.80
  -1   3   6  244.08   16.50
  -1   3   6  264.27   17.80
  -1   3   6  250.87   14.90
   0  -3  -6  173.08   13.50
   0  -3  -6  155.78   14.20
   0   3   6  166.08   12.70
   0   3   6  178.98   16.80
   0   3   6  180.78   13.90
  -1  -3  -6   66.19   10.30
  -1  -3  -6   64.39   12.90
  -1  -3  -6   64.59    9.80
   1   3   6   65.39   13.70
   1   3   6   50.39   10.20
   1   3   6   77.49   12.30
  -2  -3  -6   98.59   12.60
  -2  -3  -6  132.59   18.40
  -2  -3  -6   96.29   13.90
  -2  -3  -6   86.89   10.70
   2   3   6  125.59   19.30
   2   3   6  114.39   13.90
   2   3   6   95.49   15.30
  -3  -3  -6   18.30   16.50
  -3  -3  -6    5.50   10.80
  -3  -3  -6   10.00   22.10
   3   3   6    5.50   22.60
   3   3   6   -5.20   12.10
  -4  -3  -6   -2.70   14.80
   4   3   6   14.40   32.00
   4   3   6   10.70   16.60
  -5  -3  -6  174.28   24.90
   5   3   6  239.98   38.40
   5   3   6  203.18   50.99
   7  -4  -6   12.80   28.60
   7  -4  -6   95.79   23.40
   7  -4  -6   59.09   30.10
  -7   4   6   73.99   29.60
  -7   4   6  -13.00   32.00
   6  -4  -6   21.90   20.80
   6  -4  -6    8.90   16.50
   6  -4  -6   -0.60   20.40
  -6   4   6   34.70   20.50
  -6   4   6    1.30   22.80
  -6   4   6    7.50   20.30
   5  -4  -6  214.68   17.90
   5  -4  -6  227.58   24.40
   5  -4  -6  219.48   20.50
   5  -4  -6  239.38   24.90
  -5   4   6  213.58   21.30
  -5   4   6  199.58   24.60
   4  -4  -6 1094.39   47.60
   4  -4  -6  948.41   47.40
  -4   4   6  997.80   46.80
  -4   4   6  942.61   47.60
  -4   4   6 1059.19   48.90
  -4   4   6  933.11   46.10
   3  -4  -6   38.40    9.60
   3  -4  -6   71.49   12.20
   3  -4  -6   74.09   11.00
  -3   4   6   55.49   12.40
  -3   4   6   67.29   10.30
  -3   4   6   70.79   12.40
  -3   4   6   59.69   11.10
   2  -4  -6   48.10    9.10
   2  -4  -6   38.00   10.50
  -2   4   6   54.69   10.60
  -2   4   6   37.70    9.80
  -2   4   6   27.60   10.80
   1  -4  -6   74.19   12.40
   1  -4  -6   58.79   13.40
  -1   4   6   81.29   13.50
  -1   4   6   61.49   12.30
  -1   4   6   82.59   10.00
   0  -4  -6  116.09   13.50
   0  -4  -6  138.49   13.70
   0   4   6  102.29   13.60
   0   4   6   99.69   15.70
   0   4   6  102.89   15.40
  -1  -4  -6  142.19   14.90
   1   4   6  157.58   20.70
   1   4   6  140.99   16.90
   1   4   6  127.69   14.60
  -2  -4  -6   -7.00   10.60
  -2  -4  -6    0.70   19.80
   2   4   6  -28.20   23.20
   2   4   6   16.60   14.20
   2   4   6   -1.50   13.10
  -3  -4  -6   29.50   14.90
   3   4   6    7.50   14.10
   3   4   6   14.10   29.00
  -4  -4  -6  172.88   28.50
   4   4   6  166.68   42.50
   7  -5  -6   97.09   26.20
   7  -5  -6   18.80   30.70
  -7   5   6   80.59   31.90
  -7   5   6   28.20   39.80
   6  -5  -6   27.60   24.80
   6  -5  -6   79.99   18.50
   6  -5  -6   66.69   23.90
  -6   5   6   28.80   23.00
  -6   5   6   49.90   22.30
   5  -5  -6  342.37   27.70
   5  -5  -6  248.88   29.50
  -5   5   6  254.67   28.70
  -5   5   6  313.97   33.30
  -5   5   6  345.47   25.40
   4  -5  -6   36.20   14.70
   4  -5  -6   22.20   14.40
  -4   5   6   10.40   15.40
  -4   5   6   10.40   13.30
  -4   5   6   28.90   17.10
   3  -5  -6  258.07   20.10
   3  -5  -6  319.07   21.30
   3  -5  -6  341.67   22.10
  -3   5   6  288.57   22.50
  -3   5   6  358.46   24.40
  -3   5   6  295.67   23.20
  -3   5   6  276.97   19.30
   2  -5  -6  281.27   19.80
   2  -5  -6  330.07   22.90
   2  -5  -6  301.57   21.50
  -2   5   6  310.07   22.00
  -2   5   6  384.46   29.40
  -2   5   6  320.87   21.00
  -2   5   6  288.57   21.90
   1  -5  -6  133.29   15.60
   1  -5  -6  121.69   19.10
  -1   5   6  168.38   23.60
  -1   5   6  118.19   18.50
  -1   5   6  152.68   17.10
   0  -5  -6  334.27   22.30
   0   5   6  358.86   24.30
   0   5   6  447.76   34.00
   0   5   6  334.17   21.20
   1   5   6  397.16   26.20
  -2  -5  -6   44.50   15.10
   2   5   6   46.20   27.80
  -3  -5  -6   28.00   18.00
   3   5   6   -1.90   36.30
   6  -6  -6  -16.90   24.90
  -6   6   6   54.29   23.90
  -6   6   6   37.00   24.90
  -6   6   6   56.79   29.80
  -6   6   6   79.79   33.60
   5  -6  -6   72.49   22.50
  -5   6   6   25.20   27.50
  -5   6   6   67.99   19.40
  -5   6   6   33.90   20.80
  -5   6   6   32.20   22.00
   4  -6  -6   -6.20   27.40
   4  -6  -6   32.10   16.30
  -4   6   6  -11.40   17.50
  -4   6   6  -10.40   17.20
  -4   6   6   12.60   22.30
  -4   6   6  -14.00   16.50
   3  -6  -6  -23.40   13.60
   3  -6  -6   -3.60   13.50
   3  -6  -6   29.20   15.20
  -3   6   6   -6.50   15.20
  -3   6   6   17.20   14.80
   2  -6  -6   34.00    9.40
   2  -6  -6   31.80   14.40
   2  -6  -6   63.19   14.70
  -2   6   6   23.70   19.80
  -2   6   6   20.90   13.80
   1  -6  -6  193.38   21.90
  -1   6   6  259.07   20.60
  -1   6   6  213.48   36.50
  -1   6   6  218.68   23.70
   0   6   6  226.68   29.80
   0   6   6  184.58   19.40
   0   6   6  176.98   22.90
  -1  -6  -6    2.40   14.30
   1   6   6  -50.79   29.40
  -2  -6  -6   -4.70   20.80
   2   6   6   18.90   36.20
   6  -7  -6   48.70   35.00
  -6   7   6    9.90   30.60
  -6   7   6   53.89   42.70
  -6   7   6   35.90   32.00
   5  -7  -6   68.19   26.80
  -5   7   6   38.30   24.60
  -5   7   6    5.60   22.30
  -5   7   6    5.10   29.70
   4  -7  -6   66.69   20.10
  -4   7   6   94.99   25.60
  -4   7   6   41.70   21.20
  -4   7   6   16.70   20.90
   3  -7  -6   40.90   25.40
   3  -7  -6    9.90   12.50
  -3   7   6   25.60   30.50
  -3   7   6   35.20   20.00
  -3   7   6   27.50   22.00
  -3   7   6   53.69   20.00
  -2   7   6   48.20   19.80
  -2   7   6   55.19   19.90
  -2   7   6   36.30   30.10
  -2   7   6   28.40   23.20
  -1   7   6   44.30   29.40
  -1   7   6   14.50   18.10
   0   7   6   52.79   36.00
   1   7   6   39.00   40.10
  -5   8   6   16.00   31.90
  -5   8   6   37.40   29.70
  -5   8   6  101.59   37.60
   4  -8  -6  -10.10   17.40
  -4   8   6   68.09   28.20
  -4   8   6   50.89   44.10
  -4   8   6   31.40   30.50
   3  -8  -6   21.40   17.40
  -3   8   6   59.69   37.70
  -3   8   6   47.80   26.50
  -3   8   6  -20.70   24.60
   2  -8  -6    0.00   18.90
  -2   8   6   45.10   23.30
  -2   8   6   55.99   26.30
  -2   8   6    8.70   38.70
   1  -8  -6    8.80   22.00
  -1   8   6   48.70   41.80
  -1   8   6    3.80   26.70
   0  -8  -6   64.89   23.70
   0   8   6  106.59   48.70
   1  -9   7   23.90   22.60
  -2   9  -7   56.19   21.80
   2  -9   7   23.50   22.30
  -3   9  -7   30.50   21.20
   3  -9   7    1.70   23.50
  -4   9  -7   23.50   23.10
   4  -9   7   -8.40   23.00
   1  -8   7   52.09   18.30
   2  -8   7   64.49   18.10
  -3   8  -7   13.60   17.30
   3  -8   7   18.80   16.80
  -4   8  -7    1.00   18.20
   4  -8   7   25.40   19.60
   4  -8   7    5.00   17.70
  -5   8  -7   -6.10   22.70
  -5   8  -7   23.00   20.80
   5  -8   7    3.80   21.00
   2   7  -7   60.89   67.99
   1   7  -7   22.60   58.49
   0   7  -7   59.89   24.00
   0   7  -7   54.59   13.90
   0   7  -7   65.99   24.30
  -1   7  -7  110.09   16.70
  -1   7  -7  123.69   21.10
   1  -7   7  117.89   19.50
  -2   7  -7    9.70   19.20
   2  -7   7   21.00   12.80
  -3   7  -7   98.99   24.70
  -3   7  -7  132.29   21.30
  -3   7  -7  165.78   21.00
   3  -7   7  166.88   19.10
  -4   7  -7  261.07   31.20
  -4   7  -7  364.86   28.50
   4  -7   7  262.47   25.90
   4  -7   7  316.67   27.00
  -5   7  -7   75.89   21.30
   5  -7   7   96.69   20.50
   5  -7   7   54.69   16.40
  -6   7  -7   38.90   21.80
  -6   7  -7   63.49   27.00
   6  -7   7   17.30   18.60
  -4  -6   7   96.89   36.00
  -3  -6   7   -0.10   26.90
   2   6  -7   24.90   20.60
   2   6  -7   -5.90   20.50
  -2  -6   7    7.50   22.40
   1   6  -7  419.26   26.10
   1   6  -7  402.46   25.90
   1   6  -7  374.66   33.20
  -1  -6   7  456.45   32.60
   0   6  -7    6.60    9.00
   0   6  -7    6.50   11.80
   0   6  -7    5.40   16.20
   0  -6   7   11.40    9.80
  -1   6  -7   89.99   17.20
   1  -6   7   59.59   11.20
  -2   6  -7   12.90   10.00
  -2   6  -7   38.40   15.90
   2  -6   7   17.50    8.50
  -3   6  -7  118.39   16.90
  -3   6  -7  108.89   20.50
  -3   6  -7   81.99   14.60
   3  -6   7  111.79   14.30
   3  -6   7  110.89   16.80
   3  -6   7   81.39   13.00
  -4   6  -7  131.69   18.50
  -4   6  -7   96.49   19.40
  -4   6  -7  142.89   39.20
  -4   6  -7  120.99   22.50
   4  -6   7  108.79   18.00
   4  -6   7  128.29   27.40
   4  -6   7  101.09   15.20
  -5   6  -7   90.89   25.50
  -5   6  -7   56.99   20.80
  -5   6  -7   29.20   25.90
   5  -6   7   53.19   19.20
  -6   6  -7  -28.90   24.20
  -6   6  -7  -15.40   19.80
  -6   6  -7   51.39   35.80
   6  -6   7   20.00   23.30
   5   5  -7   22.70   17.20
  -5  -5   7   50.39   31.90
  -5  -5   7   73.69   38.90
   4   5  -7   41.60   12.50
  -4  -5   7   57.29   19.40
  -4  -5   7   69.79   30.80
   3   5  -7   37.30   14.60
   3   5  -7    7.90   19.60
  -3  -5   7   47.90   31.50
   2   5  -7  588.74   31.30
   2   5  -7  568.34   35.60
   2   5  -7  583.84   32.20
  -2  -5   7  680.73   38.40
   1   5  -7  689.33   34.00
   1   5  -7  706.13   33.90
   1   5  -7  660.13   39.40
  -1  -5   7  732.93   39.50
   0   5  -7  555.34   28.10
   0   5  -7  543.55   32.40
   0   5  -7  578.54   27.50
   0  -5   7  524.85   31.40
   0  -5   7  596.14   27.80
  -1   5  -7   49.10    8.10
  -1   5  -7   38.90   14.50
  -1   5  -7   51.89    8.80
   1  -5   7   53.99    8.40
  -2   5  -7  133.89   21.60
  -2   5  -7  141.09   14.20
  -2   5  -7  133.59   14.50
   2  -5   7  153.88   14.20
   2  -5   7  153.78   12.90
   2  -5   7  153.78   11.90
  -3   5  -7   76.49   12.50
  -3   5  -7  124.79   22.80
  -3   5  -7   89.49   14.10
   3  -5   7   73.39   12.40
   3  -5   7   64.69   11.50
  -4   5  -7   85.49   22.40
  -4   5  -7  142.89   21.90
  -4   5  -7  148.69   27.50
  -4   5  -7  118.99   18.20
  -4   5  -7  146.49   23.80
   4  -5   7  147.89   19.60
   4  -5   7  115.59   16.60
  -5   5  -7   -6.60   15.50
  -5   5  -7  -16.10   30.20
  -5   5  -7   30.40   23.40
  -5   5  -7   49.20   22.20
   5  -5   7   43.90   18.30
   5  -5   7  -10.40   23.40
  -6   5  -7   42.80   32.90
  -6   5  -7   33.80   19.40
  -6   5  -7   43.30   24.60
   6  -5   7   34.40   24.80
   5   4  -7    4.70   12.90
  -5  -4   7   39.20   29.90
  -5  -4   7  -17.40   23.00
   4   4  -7   26.70   10.10
  -4  -4   7   21.80   24.40
   3   4  -7   15.90   15.00
  -3  -4   7   -2.00   17.70
  -3  -4   7   16.50   10.50
   2   4  -7  616.54   30.70
   2   4  -7  687.03   32.20
   2   4  -7  539.25   35.00
  -2  -4   7  647.44   35.80
   1   4  -7  108.09   11.80
   1   4  -7  113.29   12.30
   1   4  -7   89.99   16.80
  -1  -4   7  106.39   17.50
   0   4  -7  457.75   27.10
   0   4  -7  468.65   22.40
   0   4  -7  456.05   22.20
   0  -4   7  428.16   26.50
  -1   4  -7  150.98   10.80
  -1   4  -7  138.89   12.20
  -1   4  -7  111.29   17.30
   1  -4   7  136.09   10.80
  -2   4  -7  210.18   20.40
  -2   4  -7  243.88   14.90
  -2   4  -7  208.48   16.30
   2  -4   7  211.08   14.50
  -3   4  -7  170.18   20.90
  -3   4  -7  136.89   18.40
  -3   4  -7  175.08   16.10
   3  -4   7  196.38   17.20
   3  -4   7  164.08   15.50
  -4   4  -7  686.33   41.40
  -4   4  -7  813.92   39.10
  -4   4  -7  736.83   36.50
  -4   4  -7  655.53   38.30
  -4   4  -7  701.53   44.20
   4  -4   7  782.32   38.50
   4  -4   7  734.03   38.40
  -5   4  -7   52.09   18.60
  -5   4  -7   30.60   21.40
  -5   4  -7   45.20   15.90
   5  -4   7   44.30   17.60
   5  -4   7   44.70   19.80
   5  -4   7    1.20   16.30
  -6   4  -7   -5.00   19.20
   6  -4   7   11.90   23.50
   6   3  -7   37.60   18.10
   6   3  -7   14.70   21.80
  -6  -3   7   23.40   25.40
  -6  -3   7   52.99   34.90
   5   3  -7   65.89   13.10
  -5  -3   7   26.70   18.40
  -5  -3   7   52.99   26.00
   4   3  -7   80.59   12.40
  -4  -3   7   89.69   21.20
  -4  -3   7  112.59   14.10
   3   3  -7  213.18   13.30
   3   3  -7  146.99   18.00
  -3  -3   7  171.98   23.70
  -3  -3   7  198.88   15.30
   2   3  -7   -5.20   11.20
   2   3  -7    7.20    4.60
   2   3  -7    6.10    8.50
  -2  -3   7   -2.60   12.40
   1   3  -7   12.30    5.30
   1   3  -7   -4.00    9.10
   1   3  -7   15.40    3.60
  -1  -3   7   11.10    9.90
  -1  -3   7   15.70    4.60
   0   3  -7   88.19   13.80
   0   3  -7  100.99    8.20
   0   3  -7   76.99    9.10
   0  -3   7   78.89    8.40
   0  -3   7   76.29   11.60
  -1   3  -7   85.39   13.40
  -1   3  -7   94.49    8.90
   1  -3   7   87.49   12.50
   1  -3   7   87.89   10.10
   1  -3   7   88.49    9.50
  -2   3  -7  311.17   19.00
  -2   3  -7  311.37   21.60
  -2   3  -7  342.17   17.90
  -2   3  -7  336.07   19.20
   2  -3   7  321.27   19.00
   2  -3   7  298.57   17.80
  -3   3  -7 1017.70   50.69
  -3   3  -7 1046.60   47.20
  -3   3  -7 1023.20   47.90
  -3   3  -7  977.60   47.50
   3  -3   7  978.30   46.70
   3  -3   7 1071.99   47.40
  -4   3  -7  645.34   40.20
  -4   3  -7  609.04   35.30
  -4   3  -7  626.34   37.50
  -4   3  -7  622.54   33.30
  -4   3  -7  697.23   35.50
   4  -3   7  640.64   35.20
   4  -3   7  700.53   35.50
   4  -3   7  714.43   41.90
   4  -3   7  659.43   34.30
  -5   3  -7   33.70   17.40
  -5   3  -7   13.80   21.80
  -5   3  -7   33.70   15.40
   5  -3   7   30.90   18.10
   5  -3   7   20.30   18.00
   5  -3   7   -0.40   19.70
  -6   3  -7   -2.20   23.70
  -6   3  -7   12.20   20.40
   6  -3   7   -8.10   29.80
   6  -3   7   74.69   22.90
   6  -3   7   40.60   26.70
   6   2  -7   17.20   20.10
   6   2  -7   11.00   15.50
   6   2  -7    6.00   18.40
  -6  -2   7   31.10   30.20
  -6  -2   7   43.50   23.50
   5   2  -7   61.09   14.60
   5   2  -7   56.49   11.50
  -5  -2   7   97.99   16.00
  -5  -2   7   31.20   25.60
   4   2  -7   25.60   10.10
   4   2  -7   34.60    7.90
  -4  -2   7   11.70   17.80
   3   2  -7  174.68   12.20
   3   2  -7  145.89   11.60
  -3  -2   7  147.39   20.90
  -3  -2   7  176.98   14.40
   2   2  -7   95.09    9.00
   2   2  -7   95.29    7.40
   2   2  -7   92.29    9.00
  -2  -2   7   60.49    9.50
  -2  -2   7   81.99    9.30
  -2  -2   7   97.29   13.00
  -2  -2   7   95.79   13.80
   1   2  -7 1626.14   67.59
   1   2  -7 1507.15   68.29
   1   2  -7 1733.03   71.59
  -1  -2   7 1589.14   67.99
  -1  -2   7 1494.05   70.89
  -1  -2   7 1560.94   67.99
   0   2  -7  315.97   15.00
   0   2  -7  330.37   16.00
   0   2  -7  328.87   19.30
   0  -2   7  312.57   17.00
   0  -2   7  299.97   19.00
  -1   2  -7  282.57   15.90
  -1   2  -7  264.67   17.00
  -1   2  -7  273.77   14.80
  -1   2  -7  267.07   13.30
   1  -2   7  258.97   16.60
   1  -2   7  278.77   15.90
  -2   2  -7  171.88   12.80
  -2   2  -7  169.98   14.80
  -2   2  -7  191.48   17.60
   2  -2   7  181.88   13.90
   2  -2   7  174.28   12.90
   2  -2   7  204.78   18.10
  -3   2  -7   35.60   13.10
  -3   2  -7   43.30    8.90
  -3   2  -7   69.49   14.30
  -3   2  -7   50.09    9.70
   3  -2   7   77.39   15.10
   3  -2   7   60.99   10.80
   3  -2   7   36.80   10.60
   3  -2   7   53.79    9.50
   3  -2   7   54.79   10.60
  -4   2  -7   86.79   13.30
  -4   2  -7   72.49   16.40
  -4   2  -7   73.09   12.40
  -4   2  -7   66.89   16.40
   4  -2   7   52.89   14.60
   4  -2   7   64.19   14.40
   4  -2   7   69.99   13.90
   4  -2   7   72.19   10.90
   4  -2   7  103.59   20.90
  -5   2  -7    2.60   17.40
  -5   2  -7   -6.70   21.80
  -5   2  -7    9.70   17.00
   5  -2   7   -3.50   17.60
   5  -2   7   17.30   19.70
   5  -2   7   -2.80   26.90
  -6   2  -7  -15.70   24.70
   6  -2   7   -4.20   27.50
   6  -2   7   52.19   31.70
   6  -2   7   11.90   35.80
   6  -2   7   24.50   23.10
   6   1  -7   31.60   13.80
   6   1  -7   43.90   17.00
   6   1  -7   24.50   20.50
  -6  -1   7   27.20   20.10
  -6  -1   7   25.10   27.30
   5   1  -7   79.89   11.30
   5   1  -7   77.29   14.40
   5   1  -7   75.49   14.70
  -5  -1   7   87.89   27.40
  -5  -1   7  102.69   18.80
   4   1  -7  378.76   20.70
   4   1  -7  375.86   21.80
   4   1  -7  419.26   22.00
  -4  -1   7  402.86   22.60
  -4  -1   7  404.96   23.50
  -4  -1   7  330.37   28.00
   3   1  -7  659.33   30.90
   3   1  -7  670.33   30.60
   3   1  -7  680.73   31.70
  -3  -1   7  629.34   35.80
  -3  -1   7  700.63   31.80
  -3  -1   7  683.13   32.30
   2   1  -7  911.21   40.70
   2   1  -7  852.81   41.80
   2   1  -7  954.60   40.00
  -2  -1   7  909.31   44.00
  -2  -1   7  932.51   41.00
  -2  -1   7  933.01   41.60
  -2  -1   7  944.71   40.70
   1   1  -7 1768.52   76.69
   1   1  -7 1813.52   76.29
   1   1  -7 1827.82   75.59
  -1  -1   7 1888.61   76.39
  -1  -1   7 1591.94   77.09
  -1  -1   7 1767.52   78.49
   0   1  -7   61.09    7.70
   0   1  -7   68.19    6.80
   0   1  -7   52.79    7.10
   0   1  -7   72.09    8.70
   0   1  -7   43.60    4.50
   0   1  -7   66.49   10.60
   0  -1   7   63.09    9.30
   0  -1   7   54.29    7.80
   0  -1   7   54.09    8.20
  -1   1  -7 1025.10   43.40
  -1   1  -7  964.10   44.40
  -1   1  -7  976.60   42.90
  -1   1  -7  965.20   43.70
   1  -1   7  965.40   44.40
   1  -1   7 1012.40   44.30
   1  -1   7 1016.50   42.70
  -2   1  -7    5.50    5.90
  -2   1  -7    3.70    8.90
  -2   1  -7    3.80    6.90
  -2   1  -7   -5.80    9.70
   2  -1   7   -0.70    8.40
   2  -1   7   16.20    9.80
   2  -1   7    4.20    7.60
   2  -1   7   11.40    7.00
   2  -1   7   -5.10    8.00
   2  -1   7   12.70    4.30
  -3   1  -7   43.60   10.30
  -3   1  -7   36.60   12.90
  -3   1  -7   49.10   12.40
   3  -1   7   23.60   10.50
   3  -1   7   36.80    9.00
   3  -1   7   51.99   10.80
   3  -1   7   38.70   10.50
  -4   1  -7  420.26   25.70
  -4   1  -7  301.47   32.30
  -4   1  -7  350.86   27.70
   4  -1   7  363.76   26.10
   4  -1   7  347.77   25.30
   4  -1   7  369.46   29.40
   4  -1   7  394.36   21.20
  -5   1  -7  127.69   20.40
   5  -1   7  170.38   27.60
   5  -1   7  115.89   20.70
   5  -1   7  112.79   30.90
   5  -1   7  121.79   23.10
  -6   1  -7   51.69   29.30
   6  -1   7   69.09   28.60
   6  -1   7   33.20   39.80
   6  -1   7   51.09   25.10
   7   0  -7   47.80   29.10
   7   0  -7   10.50   20.80
   7   0  -7   67.89   22.90
  -7   0   7   49.90   20.80
  -7   0   7   -8.50   34.90
   6   0  -7  102.09   19.90
   6   0  -7   77.59   19.50
   6   0  -7   66.59   13.80
  -6   0   7   56.59   27.10
  -6   0   7   57.09   23.50
   5   0  -7  293.27   23.10
  -5   0   7  270.67   26.10
  -5   0   7  232.78   29.90
  -5   0   7  320.87   24.10
   4   0  -7   66.99   10.60
   4   0  -7   44.60    7.50
   4   0  -7   47.80   10.60
  -4   0   7   62.49   16.30
  -4   0   7   55.29   12.80
  -4   0   7   48.00   10.90
   3   0  -7   51.79    5.90
   3   0  -7   59.69   10.00
   3   0  -7   60.99    9.30
  -3   0   7   62.99    9.30
  -3   0   7   68.99   10.90
   2   0  -7  197.98   10.10
   2   0  -7  198.28   12.10
   2   0  -7  176.68   13.10
  -2   0   7  192.98   11.40
  -2   0   7  191.18   13.80
   1   0  -7  232.68   13.50
   1   0  -7  226.88   16.10
   1   0  -7  225.68   11.00
   1   0  -7  215.68   12.90
   1   0  -7  226.38   12.20
  -1   0   7  234.78   13.80
  -1   0   7  220.08   11.30
  -1   0   7  223.78   14.30
  -1   0   7  219.18   12.50
  -1   0   7  202.48   15.20
   0   0  -7  501.45   22.40
   0   0  -7  521.05   26.70
   0   0  -7  496.85   24.20
   0   0  -7  455.65   27.50
   0   0  -7  511.25   23.10
   0   0  -7  512.15   23.60
   0   0   7  480.75   24.80
   0   0   7  513.45   22.50
   0   0   7  524.75   24.50
   0   0   7  486.75   24.20
   0   0   7  519.65   23.30
   0   0   7  471.05   23.50
  -1   0  -7  181.28   12.30
  -1   0  -7  182.88   10.40
  -1   0  -7  161.48   10.80
  -1   0  -7  163.78   13.20
  -1   0  -7  169.08   12.80
   1   0   7  152.78   12.90
   1   0   7  165.88   10.70
   1   0   7  175.18   12.60
   1   0   7  149.79   13.10
   1   0   7  166.48    9.40
  -2   0  -7  243.78   15.90
  -2   0  -7  252.67   17.50
  -2   0  -7  241.58   19.30
   2   0   7  236.28   16.90
   2   0   7  231.38   15.90
   2   0   7  245.38   14.80
   2   0   7  250.47   20.20
   2   0   7  242.78   16.70
   2   0   7  243.08   13.20
  -3   0  -7  317.17   27.00
  -3   0  -7  419.46   23.00
  -3   0  -7  384.36   24.10
   3   0   7  367.76   21.40
   3   0   7  351.16   23.30
   3   0   7  389.96   30.10
   3   0   7  412.86   19.90
   3   0   7  378.56   22.50
  -4   0  -7  116.29   19.20
  -4   0  -7  112.99   18.70
  -4   0  -7  127.89   16.80
   4   0   7  135.19   20.20
   4   0   7  125.99   17.50
   4   0   7  103.09   15.90
   4   0   7  120.59   26.80
  -5   0  -7   46.70   21.20
   5   0   7   82.89   20.90
   5   0   7   38.10   31.90
   5   0   7   37.60   21.00
   6   0   7   33.30   30.80
   6   0   7   13.30   29.60
   6   0   7  -60.99   47.00
   7  -1  -7   91.39   19.20
   7  -1  -7  136.49   28.70
   7  -1  -7   96.99   22.00
  -7   1   7   69.79   20.20
  -7   1   7   82.29   34.80
   6  -1  -7   52.89   19.70
   6  -1  -7  118.79   20.70
  -6   1   7   63.79   22.10
   5  -1  -7  272.27   20.40
   5  -1  -7  298.47   23.50
   5  -1  -7  259.17   23.00
  -5   1   7  287.77   26.10
  -5   1   7  275.17   23.30
   4  -1  -7  153.58   16.60
   4  -1  -7  116.19   15.60
  -4   1   7  161.18   16.30
  -4   1   7  134.29   18.30
   3  -1  -7   78.09   10.10
   3  -1  -7   64.79    8.50
   3  -1  -7   64.99    8.60
   3  -1  -7   58.69    8.50
  -3   1   7   71.49    9.80
  -3   1   7   47.60   11.20
   2  -1  -7   40.40    6.50
   2  -1  -7   41.10    6.80
   2  -1  -7   33.80    7.30
   2  -1  -7   29.90    7.20
  -2   1   7   24.60    7.80
  -2   1   7   45.80    9.50
  -2   1   7   38.80    7.80
   1  -1  -7  105.89    9.40
   1  -1  -7   95.99   10.40
   1  -1  -7  108.99    9.90
  -1   1   7   93.89   11.00
  -1   1   7   98.99    9.60
  -1   1   7  108.29    7.90
   0  -1  -7  182.08   10.30
   0  -1  -7  194.28   12.50
   0  -1  -7  180.38   13.20
   0   1   7  188.78   13.30
   0   1   7  189.18   12.30
   0   1   7  167.48   13.30
  -1  -1  -7   67.49   11.20
  -1  -1  -7   64.99    9.30
   1   1   7   70.69   10.20
   1   1   7   57.49    8.70
   1   1   7   68.49    7.10
   1   1   7   74.49    9.90
   1   1   7   60.49   10.40
  -2  -1  -7   35.40   10.90
  -2  -1  -7   48.80   10.10
  -2  -1  -7   35.10   11.70
   2   1   7   50.49   10.70
   2   1   7   40.80   13.10
   2   1   7   54.19    6.20
  -3  -1  -7   49.30   14.00
  -3  -1  -7   52.09   13.20
  -3  -1  -7   54.29   13.10
   3   1   7   42.00   17.80
   3   1   7   56.99   12.20
   3   1   7   43.20    8.10
   3   1   7   58.49   12.40
  -4  -1  -7   -2.40   17.20
   4   1   7   19.90   15.60
   4   1   7   14.70   26.10
   4   1   7   -4.00   15.90
  -5  -1  -7   22.80   22.50
   5   1   7    0.60   35.30
   5   1   7   66.19   22.00
   7  -2  -7   33.10   21.00
   7  -2  -7  -32.80   28.50
  -7   2   7   90.39   34.00
   6  -2  -7  126.99   21.50
   6  -2  -7  130.49   19.00
   6  -2  -7  171.08   22.50
  -6   2   7  136.29   24.40
   5  -2  -7   77.89   16.10
   5  -2  -7   83.59   14.30
  -5   2   7   82.09   17.30
  -5   2   7   71.29   15.50
   4  -2  -7   51.69   12.40
   4  -2  -7   51.49   11.90
   4  -2  -7   47.90   11.40
   4  -2  -7   63.49    9.80
  -4   2   7   66.69   13.40
  -4   2   7   79.09   13.60
   3  -2  -7  141.79   15.20
   3  -2  -7  173.88   13.40
   3  -2  -7  138.99   12.70
  -3   2   7  141.49   14.30
  -3   2   7  142.09   15.90
  -3   2   7  167.98   15.20
   2  -2  -7  107.79   10.20
   2  -2  -7  106.99   11.10
   2  -2  -7  114.79   12.10
   2  -2  -7  138.39   11.20
  -2   2   7  127.29    9.60
  -2   2   7  124.99   12.00
  -2   2   7  123.49   13.00
  -2   2   7  132.39   12.90
   1  -2  -7   56.49    8.30
   1  -2  -7   43.80    7.60
  -1   2   7   46.30    6.70
  -1   2   7   44.90    8.60
  -1   2   7   38.50    9.00
  -1   2   7   46.70   11.60
  -1   2   7   53.89    7.70
   0  -2  -7  495.15   25.60
   0  -2  -7  524.15   27.30
   0  -2  -7  523.15   25.40
   0   2   7  502.25   24.80
   0   2   7  491.75   23.90
   0   2   7  515.65   26.20
   0   2   7  518.75   25.80
  -1  -2  -7  480.85   24.80
  -1  -2  -7  431.16   25.00
  -1  -2  -7  495.35   28.80
   1   2   7  478.05   25.60
   1   2   7  523.55   28.80
  -2  -2  -7   70.89   14.90
  -2  -2  -7   66.39    8.60
  -2  -2  -7   86.99   12.70
  -2  -2  -7   90.49   11.90
   2   2   7   70.29   16.50
   2   2   7  113.09   14.80
   2   2   7  104.49   15.10
  -3  -2  -7   14.10   14.20
  -3  -2  -7    0.40    9.40
  -3  -2  -7   -1.90   14.50
  -3  -2  -7   -4.20   17.60
   3   2   7  -24.10    9.50
   3   2   7    0.10   24.70
  -4  -2  -7   11.60   21.70
  -4  -2  -7   -7.10   12.70
   4   2   7   -8.10   18.50
   4   2   7    9.10   30.20
   4   2   7    1.90   17.10
  -5  -2  -7   11.10   17.70
   5   2   7   41.30   23.90
   5   2   7    2.80   43.10
   7  -3  -7   15.90   29.10
   7  -3  -7   24.10   23.30
  -7   3   7   70.69   33.80
   6  -3  -7   39.00   20.00
   6  -3  -7   37.50   17.00
   6  -3  -7  -14.60   23.20
  -6   3   7   56.89   23.90
   5  -3  -7   62.69   15.40
   5  -3  -7   81.39   13.80
   5  -3  -7   29.70   13.80
   5  -3  -7   86.29   16.10
  -5   3   7   52.09   17.00
  -5   3   7   54.19   18.70
   4  -3  -7  139.39   18.00
   4  -3  -7  109.09   17.10
   4  -3  -7   75.89   11.90
  -4   3   7   93.99   14.60
  -4   3   7   95.29   14.50
  -4   3   7  141.39   19.30
   3  -3  -7   85.99   11.30
   3  -3  -7   88.79   13.20
   3  -3  -7   86.99   13.70
  -3   3   7  107.59   14.50
  -3   3   7  111.49   16.60
   2  -3  -7  200.68   14.90
   2  -3  -7  186.28   15.10
   2  -3  -7  175.28   13.40
  -2   3   7  197.98   16.00
  -2   3   7  187.38   16.10
  -2   3   7  173.68   14.70
  -2   3   7  177.98   18.50
  -2   3   7  178.18   12.40
   1  -3  -7  493.55   26.40
   1  -3  -7  486.65   25.70
  -1   3   7  469.15   28.20
  -1   3   7  500.05   24.70
  -1   3   7  533.25   26.30
  -1   3   7  489.75   26.00
   0  -3  -7  110.79   13.50
   0  -3  -7   99.49   13.90
   0   3   7   98.39   12.80
   0   3   7   94.09   13.80
   0   3   7   97.79   15.30
  -1  -3  -7  124.69   21.70
  -1  -3  -7  117.59   15.70
  -1  -3  -7  130.69   21.60
   1   3   7  104.69   16.60
   1   3   7  130.59   14.50
   1   3   7  162.48   16.30
  -2  -3  -7   23.50   12.50
  -2  -3  -7    1.50   19.70
  -2  -3  -7   32.70   11.70
  -2  -3  -7    6.40    9.30
   2   3   7    7.20   15.50
   2   3   7   -1.10   23.90
   2   3   7   37.00   13.30
  -3  -3  -7   39.50   15.80
  -3  -3  -7   49.99   13.10
   3   3   7   60.19   22.40
   3   3   7   26.10   15.60
   3   3   7   55.19   26.80
  -4  -3  -7    1.90   16.50
   4   3   7   22.10   35.80
   4   3   7   18.60   19.50
   7  -4  -7   73.09   26.10
   7  -4  -7  145.79   35.60
  -7   4   7  121.39   34.90
  -7   4   7  111.59   40.20
   6  -4  -7   39.30   17.70
  -6   4   7    8.60   23.90
  -6   4   7   58.19   24.70
  -6   4   7   31.70   27.30
   5  -4  -7  387.36   30.70
   5  -4  -7  473.85   31.70
   5  -4  -7  396.86   25.00
  -5   4   7  428.26   29.50
  -5   4   7  484.65   35.30
  -5   4   7  365.96   30.80
   4  -4  -7   12.30   11.50
   4  -4  -7   24.90   13.60
   4  -4  -7   33.20   14.50
  -4   4   7   66.19   17.60
  -4   4   7   35.30   12.90
  -4   4   7   43.90   15.50
  -4   4   7   23.50   16.00
   3  -4  -7   86.19   12.80
   3  -4  -7   82.39   13.90
  -3   4   7   85.99   14.30
  -3   4   7  100.09   16.40
  -3   4   7   91.99   15.70
  -3   4   7   92.89   15.50
  -3   4   7   81.89   11.30
   2  -4  -7  178.08   17.00
   2  -4  -7  141.99   13.70
   2  -4  -7  169.18   16.40
  -2   4   7  184.28   16.10
  -2   4   7  157.48   18.60
  -2   4   7  169.08   18.20
  -2   4   7  152.58   16.80
   1  -4  -7   17.30   10.50
   1  -4  -7   -1.80   13.40
  -1   4   7   18.10   13.40
  -1   4   7   10.40   11.60
  -1   4   7   14.90    9.60
   0  -4  -7   60.99   12.90
   0  -4  -7   80.39   11.70
   0   4   7   93.19   14.10
   0   4   7   80.09   17.20
   0   4   7   70.59   13.40
  -1  -4  -7  121.69   17.40
  -1  -4  -7  147.09   17.10
   1   4   7  104.49   15.90
   1   4   7  108.99   16.70
   1   4   7  138.89   26.90
  -2  -4  -7   58.39   12.10
   2   4   7   35.70   14.90
   2   4   7   50.29   25.70
   2   4   7   61.59   15.90
  -3  -4  -7  101.29   18.00
   3   4   7  103.09   35.00
   3   4   7   79.79   21.00
   3   4   7   67.59   17.60
  -4  -4  -7  173.68   24.30
   4   4   7  204.58   48.90
   6  -5  -7  266.77   37.70
  -6   5   7  273.07   32.70
  -6   5   7  255.87   42.20
   5  -5  -7  351.66   33.00
   5  -5  -7  357.06   31.90
  -5   5   7  291.47   30.70
  -5   5   7  323.27   28.30
  -5   5   7  307.87   31.80
  -5   5   7  427.16   42.60
   4  -5  -7   -0.10   14.90
   4  -5  -7   19.10   15.00
  -4   5   7    7.30   15.90
  -4   5   7  -16.00   18.10
  -4   5   7   21.10   19.90
  -4   5   7  -15.90   16.50
  -4   5   7  -13.60   17.60
   3  -5  -7  110.99   15.90
   3  -5  -7   89.29   15.90
  -3   5   7   88.29   18.20
  -3   5   7   99.49   24.30
  -3   5   7   94.59   16.30
  -3   5   7   92.09   15.80
   2  -5  -7   48.50   11.50
   2  -5  -7   73.29   14.00
   2  -5  -7   82.49   15.30
  -2   5   7   69.89   15.60
  -2   5   7   73.09   17.90
  -2   5   7   65.49   13.20
  -2   5   7   33.80   15.80
   1  -5  -7  103.49   17.10
  -1   5   7   79.59   21.30
  -1   5   7  130.79   20.80
  -1   5   7  132.29   16.80
   0  -5  -7  102.29   14.90
   0  -5  -7   99.39   15.50
   0   5   7   71.09   28.00
   0   5   7   93.19   21.90
   0   5   7   81.59   14.40
   1   5   7   69.99   15.00
   1   5   7   42.60   27.00
   1   5   7   66.99   16.10
   2   5   7   52.79   31.60
   2   5   7   11.40   17.20
  -3  -5  -7   43.90   20.40
   3   5   7   18.80   41.50
   6  -6  -7  -35.10   31.30
  -6   6   7   67.09   35.60
  -6   6   7   54.39   30.80
  -6   6   7   56.89   39.00
  -6   6   7   42.90   33.10
   5  -6  -7   69.59   24.20
  -5   6   7   94.29   30.70
  -5   6   7   37.10   24.00
  -5   6   7   34.50   24.20
  -5   6   7   -1.50   25.20
   4  -6  -7   34.20   18.30
  -4   6   7   29.90   25.40
  -4   6   7    3.40   20.10
   3  -6  -7   56.49   17.20
  -3   6   7   87.59   19.30
  -3   6   7   42.70   19.20
  -3   6   7   45.60   20.10
  -2   6   7   -6.10   15.90
  -2   6   7   24.00   18.40
  -2   6   7   21.60   17.40
  -2   6   7   28.30   24.60
  -1   6   7  164.58   25.80
  -1   6   7  132.29   28.60
   0   6   7  427.56   52.69
   0   6   7  281.67   26.60
   0   6   7  279.17   24.00
  -1  -6  -7   51.09   17.20
   1   6   7   60.99   36.40
  -2  -6  -7   73.09   23.60
   2   6   7    6.90   40.60
   5  -7  -7   -0.80   27.70
  -5   7   7   60.69   35.00
  -5   7   7   -5.20   28.30
  -5   7   7  -56.29   26.40
   4  -7  -7  -22.70   22.50
  -4   7   7   10.00   24.10
  -4   7   7   47.00   28.60
  -4   7   7  -13.10   23.20
   3  -7  -7  -18.20   18.50
   3  -7  -7    8.40   13.60
  -3   7   7   14.90   24.10
  -3   7   7   -3.70   21.40
  -3   7   7    2.00   32.10
  -3   7   7   -4.20   21.90
  -2   7   7   59.69   34.20
  -2   7   7   77.49   23.70
  -2   7   7   63.09   22.90
  -2   7   7   62.59   20.50
  -1   7   7  170.58   37.90
  -1   7   7  150.98   24.90
   0   7   7   23.90   39.10
   1   7   7  -29.70   46.80
   4  -8  -7  -30.90   17.70
  -4   8   7   10.00   35.40
  -4   8   7  -44.90   43.20
  -4   8   7  -20.00   31.50
   3  -8  -7    5.80   19.20
  -3   8   7   48.90   44.10
  -3   8   7   15.60   27.40
  -3   8   7   -9.90   29.50
   2  -8  -7   45.10   21.80
  -2   8   7   34.20   29.80
  -2   8   7   25.00   47.20
  -2   8   7  111.79   29.50
  -1   8   7   18.30   45.50
  -1   8   7   36.50   35.10
   1  -9   8   39.30   23.80
   2  -9   8  109.09   25.90
  -3   9  -8   -3.10   23.50
   3  -9   8    9.30   25.90
  -4   9  -8   74.39   27.30
  -4   9  -8   29.40   26.80
   4  -9   8   50.59   27.30
   1  -8   8   84.69   18.80
  -2   8  -8    9.70   17.40
   2  -8   8   45.30   19.10
  -3   8  -8  -17.60   17.00
  -3   8  -8  -19.20   24.00
  -3   8  -8   19.00   17.40
   3  -8   8   16.40   19.30
  -4   8  -8    8.70   20.10
  -4   8  -8    2.20   20.30
   4  -8   8    5.20   19.40
  -5   8  -8   30.90   27.50
  -5   8  -8   -8.60   25.70
   5  -8   8    9.80   22.70
   1  -7   8    4.20   14.00
  -2   7  -8   -6.30   24.10
  -2   7  -8   20.90   13.90
   2  -7   8   35.10   14.60
  -3   7  -8  127.59   41.10
  -3   7  -8   92.49   17.70
   3  -7   8  132.09   17.00
  -4   7  -8  110.89   23.80
  -4   7  -8  120.79   20.50
   4  -7   8  112.49   19.20
   4  -7   8  156.58   25.00
  -5   7  -8   61.29   21.80
  -5   7  -8   79.89   23.70
   5  -7   8   10.40   22.30
  -4  -6   8   70.79   38.60
  -3  -6   8   10.70   28.40
  -2  -6   8    1.50   22.60
   1   6  -8    9.80   19.80
   1   6  -8    6.90   13.20
   1   6  -8  -11.00   13.20
  -1  -6   8  -19.80   18.90
   0   6  -8   10.10   13.40
   0   6  -8   44.60   10.60
   0   6  -8   27.40   17.20
  -1   6  -8  212.18   27.10
   1  -6   8  237.48   19.20
  -2   6  -8  143.29   21.30
  -2   6  -8  142.69   17.40
  -2   6  -8  153.88   22.40
   2  -6   8  149.69   16.80
  -3   6  -8  252.37   24.80
  -3   6  -8  293.97   31.50
  -3   6  -8  330.97   25.30
   3  -6   8  317.87   29.10
   3  -6   8  256.77   21.90
  -4   6  -8   38.10   17.90
  -4   6  -8   58.89   23.70
  -4   6  -8   12.30   20.90
   4  -6   8   52.09   16.80
  -5   6  -8   68.39   28.60
  -5   6  -8   46.50   18.00
  -5   6  -8   31.20   23.00
  -5   6  -8   59.19   30.70
   5  -6   8   29.20   21.50
  -6   6  -8   25.40   23.80
  -6   6  -8   26.20   28.60
   6  -6   8    5.10   29.00
  -4  -5   8   59.39   20.30
  -4  -5   8   40.90   30.90
   3   5  -8   17.40   15.00
  -3  -5   8    0.10   23.70
   2   5  -8  654.23   31.70
   2   5  -8  540.85   37.60
   2   5  -8  563.64   34.70
  -2  -5   8  629.84   45.60
   1   5  -8  248.18   18.90
   1   5  -8  227.68   25.10
   1   5  -8  291.17   18.70
  -1  -5   8  307.67   27.20
   0   5  -8  101.89   12.50
   0   5  -8   94.79   17.70
   0   5  -8   88.19   11.50
   0  -5   8  108.89   19.50
  -1   5  -8   11.90   14.90
  -1   5  -8   10.10    8.00
  -1   5  -8    5.50    9.10
   1  -5   8    5.70    8.20
  -2   5  -8   -2.30   10.00
  -2   5  -8    0.00   16.30
   2  -5   8    5.20    9.10
   2  -5   8    3.10   10.70
  -3   5  -8  154.98   25.10
  -3   5  -8  130.79   19.00
  -3   5  -8  112.09   16.50
   3  -5   8  156.78   19.90
   3  -5   8  103.79   16.80
  -4   5  -8  129.79   21.90
  -4   5  -8   96.89   26.10
  -4   5  -8  138.59   37.20
  -4   5  -8   89.29   15.00
   4  -5   8   93.09   17.10
   4  -5   8  140.19   23.20
  -5   5  -8   23.40   27.10
  -5   5  -8    9.60   17.60
  -5   5  -8   31.90   22.00
   5  -5   8   34.20   19.60
  -6   5  -8   36.30   27.20
  -6   5  -8    9.00   23.10
   6  -5   8   26.70   30.20
   5   4  -8   21.90   14.00
  -5  -4   8  -11.60   22.50
  -5  -4   8   23.70   33.90
   4   4  -8   17.60    9.90
  -4  -4   8   36.40   26.00
   3   4  -8  177.08   24.40
  -3  -4   8  187.18   31.70
   2   4  -8  680.53   33.50
   2   4  -8  715.43   35.60
  -2  -4   8  685.13   39.40
   1   4  -8  107.09   19.40
   1   4  -8  159.58   14.20
   1   4  -8  179.68   15.00
  -1  -4   8  161.58   20.10
   0   4  -8  192.88   14.10
   0   4  -8  191.68   20.30
   0   4  -8  205.58   13.30
   0   4  -8  199.08   13.90
   0  -4   8  204.78   19.50
  -1   4  -8   82.69   11.40
  -1   4  -8   93.29   10.80
  -1   4  -8  119.99   14.90
   1  -4   8   86.69   13.10
   1  -4   8   76.29   11.80
  -2   4  -8  240.18   23.30
  -2   4  -8  221.28   18.00
  -2   4  -8  244.48   16.70
   2  -4   8  210.18   16.00
   2  -4   8  225.08   17.70
  -3   4  -8   66.19   12.40
  -3   4  -8   59.69   16.40
  -3   4  -8   66.19   15.00
  -3   4  -8   37.20   17.60
   3  -4   8   61.49   12.70
   3  -4   8  108.79   16.70
  -4   4  -8  186.78   22.00
  -4   4  -8  162.68   24.50
  -4   4  -8  176.58   24.00
  -4   4  -8  181.58   25.10
  -4   4  -8  232.38   19.50
   4  -4   8  190.48   22.20
   4  -4   8  250.67   23.50
  -5   4  -8  104.29   23.50
  -5   4  -8  102.69   17.90
  -5   4  -8   36.30   28.90
   5  -4   8   58.49   22.80
   5  -4   8   90.59   21.00
   5  -4   8   82.79   22.20
  -6   4  -8  -10.70   22.40
  -6   4  -8   16.50   28.80
   6  -4   8   33.80   26.50
   6  -4   8   31.60   29.60
   6   3  -8   32.50   18.60
   6   3  -8   36.80   20.20
  -6  -3   8   61.99   39.20
  -6  -3   8   21.40   26.00
   5   3  -8    2.60   11.70
  -5  -3   8   -3.50   19.20
  -5  -3   8    4.50   27.60
   4   3  -8  101.49   14.00
  -4  -3   8   86.69   29.30
  -4  -3   8   79.59   14.10
   3   3  -8  177.98   13.40
   3   3  -8  168.08   19.00
  -3  -3   8  189.48   25.60
   2   3  -8  153.28   15.70
   2   3  -8  148.09   13.00
   2   3  -8  185.68   10.60
  -2  -3   8  154.48   13.60
  -2  -3   8  173.78   21.20
   1   3  -8  241.68   11.70
   1   3  -8  210.98   13.30
   1   3  -8  222.98   14.50
   1   3  -8  220.78   18.80
  -1  -3   8  173.38   19.70
  -1  -3   8  229.78   13.10
   0   3  -8   52.79    6.30
   0   3  -8   65.69    9.90
   0   3  -8   52.29    7.60
   0   3  -8   50.19   11.70
   0  -3   8   51.09    7.50
   0  -3   8   43.10   11.50
   0  -3   8   59.99    8.70
  -1   3  -8   10.80    8.00
  -1   3  -8    4.00    6.40
  -1   3  -8    4.60   10.60
   1  -3   8   -2.70    9.90
  -2   3  -8  462.75   25.80
  -2   3  -8  468.25   24.50
  -2   3  -8  440.26   29.10
  -2   3  -8  464.75   25.50
  -2   3  -8  455.05   23.10
   2  -3   8  464.15   24.30
   2  -3   8  507.85   25.90
  -3   3  -8 1537.05   65.79
  -3   3  -8 1371.56   65.99
  -3   3  -8 1426.66   64.59
  -3   3  -8 1405.56   67.29
   3  -3   8 1570.54   66.29
   3  -3   8 1414.16   65.29
  -4   3  -8   49.80   17.10
  -4   3  -8   41.80   15.20
  -4   3  -8   25.60   18.50
  -4   3  -8   69.89   18.80
   4  -3   8   45.00   15.90
   4  -3   8   58.99   16.60
  -5   3  -8   18.70   20.20
  -5   3  -8   23.10   18.00
   5  -3   8   38.90   21.60
   5  -3   8   35.00   21.50
   5  -3   8   30.10   19.60
  -6   3  -8  -13.70   30.40
   6  -3   8   -7.80   29.90
   6  -3   8   20.40   36.70
   6  -3   8    6.80   26.60
   6   2  -8   61.79   16.90
   6   2  -8   29.90   18.10
  -6  -2   8    6.50   31.10
  -6  -2   8   69.49   24.60
   5   2  -8   38.20   11.40
  -5  -2   8   15.20   25.80
   4   2  -8   28.20   10.70
  -4  -2   8   42.00   20.70
   3   2  -8   38.30    6.80
   3   2  -8   68.39    9.30
   3   2  -8   57.29    9.60
  -3  -2   8   55.69   16.50
   2   2  -8   61.49   10.40
   2   2  -8   94.99   10.50
   2   2  -8   74.69    7.70
  -2  -2   8   65.89    9.70
  -2  -2   8   84.19   10.30
  -2  -2   8   80.49   15.10
   1   2  -8  329.57   15.40
   1   2  -8  329.37   17.50
  -1  -2   8  316.17   16.20
  -1  -2   8  304.97   22.00
  -1  -2   8  310.87   18.20
  -1  -2   8  347.47   17.00
   0   2  -8  187.88   12.40
   0   2  -8  200.78   13.40
   0  -2   8  195.68   12.80
   0  -2   8  187.18   16.40
   0  -2   8  192.88   10.60
  -1   2  -8  170.68   14.50
  -1   2  -8  173.18   11.50
  -1   2  -8  171.08   10.20
  -1   2  -8  183.58   12.60
  -1   2  -8  152.88   15.60
  -1   2  -8  177.78   14.80
   1  -2   8  162.68   15.00
   1  -2   8  173.68   14.60
   1  -2   8  180.38    9.80
  -2   2  -8 1142.49   50.69
  -2   2  -8 1207.58   52.19
  -2   2  -8 1192.38   53.69
  -2   2  -8 1110.59   52.89
  -2   2  -8 1130.59   51.29
  -2   2  -8 1184.48   53.09
   2  -2   8 1222.48   52.69
   2  -2   8 1210.78   50.19
   2  -2   8 1088.99   51.79
   2  -2   8 1088.29   50.99
   2  -2   8 1162.78   52.29
  -3   2  -8  801.72   39.80
  -3   2  -8  807.42   38.00
  -3   2  -8  770.62   40.90
  -3   2  -8  763.62   36.70
  -3   2  -8  733.83   39.40
   3  -2   8  790.02   38.00
   3  -2   8  801.22   38.70
   3  -2   8  920.21   44.20
   3  -2   8  693.83   34.90
   3  -2   8  740.83   36.60
   3  -2   8  746.33   37.60
  -4   2  -8   23.90   16.60
  -4   2  -8   11.20   17.50
  -4   2  -8   21.00   14.70
   4  -2   8    8.30   25.50
   4  -2   8   13.30   16.30
   4  -2   8    4.50   15.20
  -5   2  -8   15.30   27.10
  -5   2  -8   22.70   19.50
   5  -2   8   31.40   23.00
   5  -2   8   45.10   20.00
   5  -2   8   27.30   31.10
  -6   2  -8   40.50   30.20
   6  -2   8   47.60   28.60
   6  -2   8  -10.90   31.90
   6  -2   8   28.10   41.20
   6   1  -8   16.70   13.10
   6   1  -8   -0.90   22.00
   6   1  -8  -10.50   16.50
  -6  -1   8  -48.60   29.30
   5   1  -8   22.70   10.10
   5   1  -8   37.40   15.90
  -5  -1   8   27.80   20.70
  -5  -1   8   49.40   19.00
   4   1  -8   34.30   11.30
   4   1  -8   13.70    7.50
  -4  -1   8   32.10   16.80
  -4  -1   8   29.10   11.00
  -4  -1   8   26.70   13.60
   3   1  -8  306.47   26.80
   3   1  -8  251.47   15.20
   3   1  -8  291.17   16.90
  -3  -1   8  283.17   17.80
  -3  -1   8  298.57   19.80
  -3  -1   8  254.57   23.70
   2   1  -8 1687.33   68.79
   2   1  -8 1695.93   69.79
   2   1  -8 1545.55   69.99
  -2  -1   8 1532.85   72.69
  -2  -1   8 1471.65   70.39
  -2  -1   8 1614.14   69.29
  -2  -1   8 1683.13   69.59
   1   1  -8  692.53   30.50
   1   1  -8  646.44   28.50
   1   1  -8  641.74   30.40
  -1  -1   8  625.64   32.90
  -1  -1   8  627.34   31.00
  -1  -1   8  645.44   29.70
  -1  -1   8  634.94   28.90
   0   1  -8   62.59    9.00
   0   1  -8   73.59    9.70
   0   1  -8   64.29    9.40
   0   1  -8   48.60    5.10
   0   1  -8   64.89   12.40
   0   1  -8   62.89    7.80
   0  -1   8   69.79    9.70
   0  -1   8   57.79   10.00
   0  -1   8   54.79    6.30
  -1   1  -8  240.98   14.80
  -1   1  -8  243.68   16.10
  -1   1  -8  239.78   13.30
  -1   1  -8  262.57   14.10
  -1   1  -8  245.18   16.80
   1  -1   8  238.48   12.50
   1  -1   8  211.38   20.00
   1  -1   8  253.77   16.00
   1  -1   8  243.78   16.50
   1  -1   8  252.37   13.90
  -2   1  -8   13.10   11.30
  -2   1  -8    2.50    8.20
  -2   1  -8    1.50    7.10
   2  -1   8   -0.80    9.90
   2  -1   8    7.40    9.90
   2  -1   8  -10.00    4.90
  -3   1  -8    5.50   11.30
  -3   1  -8   23.90   14.30
  -3   1  -8   14.00   13.60
   3  -1   8   17.20   16.80
   3  -1   8   20.40   12.10
   3  -1   8   17.20   10.00
   3  -1   8  -13.10   12.00
   3  -1   8  -10.70   12.00
  -4   1  -8   80.79   16.10
  -4   1  -8   63.89   23.10
  -4   1  -8   72.09   17.90
   4  -1   8   82.39   17.10
   4  -1   8   57.39   16.60
   4  -1   8   78.39   25.30
   4  -1   8   56.09   10.80
   4  -1   8   79.79   17.20
  -5   1  -8   37.10   21.90
   5  -1   8   36.00   31.40
   5  -1   8   31.80   21.10
   5  -1   8   47.30   23.40
   5  -1   8   46.60   24.60
   6  -1   8   21.60   29.90
   6  -1   8   28.80   33.20
   6  -1   8  -28.20   45.70
   6   0  -8   55.69   14.10
   6   0  -8   35.40   21.00
   6   0  -8   50.39   18.50
   6   0  -8   58.89   20.40
  -6   0   8   90.59   28.70
  -6   0   8  122.29   25.30
   5   0  -8   99.89   15.70
   5   0  -8  122.69   17.70
  -5   0   8  124.19   19.00
  -5   0   8   88.79   24.00
  -5   0   8  115.09   28.20
   4   0  -8  263.67   19.10
   4   0  -8  223.88   15.70
   4   0  -8  239.48   18.10
   4   0  -8  263.27   20.20
  -4   0   8  244.98   20.00
  -4   0   8  263.47   26.80
  -4   0   8  267.37   22.70
   3   0  -8  165.88   13.60
   3   0  -8  163.98   14.70
   3   0  -8  156.18   10.50
  -3   0   8  150.68   14.60
  -3   0   8  151.88   19.80
  -3   0   8  159.48   16.80
   2   0  -8  104.99   12.30
   2   0  -8  125.09   11.50
   2   0  -8  118.69    8.00
  -2   0   8  115.49   14.10
  -2   0   8  125.99    9.70
  -2   0   8  101.39   14.40
  -2   0   8  118.29   11.70
   1   0  -8  395.46   19.20
   1   0  -8  419.56   20.70
   1   0  -8  371.56   20.60
   1   0  -8  385.06   20.30
   1   0  -8  378.86   22.30
  -1   0   8  379.76   22.90
  -1   0   8  364.46   18.50
  -1   0   8  399.56   21.50
   0   0  -8  151.18   11.70
   0   0  -8  131.69   12.80
   0   0  -8  139.59   10.20
   0   0  -8  128.09    8.90
   0   0   8  142.49   11.80
   0   0   8  138.19   13.40
   0   0   8  131.89    8.60
   0   0   8  150.48   13.20
  -1   0  -8   99.09    9.70
  -1   0  -8  106.59   11.70
  -1   0  -8  107.29   14.60
  -1   0  -8   95.89   12.70
  -1   0  -8   83.49    9.40
  -1   0  -8   80.69   14.50
   1   0   8  111.19   13.10
   1   0   8   87.99   13.10
   1   0   8   76.49    7.60
   1   0   8  100.89   12.60
  -2   0  -8  104.49   18.10
  -2   0  -8  133.29   13.70
  -2   0  -8  101.59   15.80
   2   0   8  108.19   15.40
   2   0   8   98.59   11.00
   2   0   8  120.79   21.30
   2   0   8  105.29    9.50
  -3   0  -8    1.80   13.90
  -3   0  -8   -3.10   12.00
  -3   0  -8   14.50   14.30
   3   0   8  -13.80   17.70
   3   0   8    4.10    6.90
   3   0   8    1.30   12.50
   3   0   8   -5.00   11.30
   3   0   8   -1.10   13.50
   3   0   8  -11.50   12.50
  -4   0  -8   67.99   17.20
  -4   0  -8   31.00   19.10
   4   0   8   51.39   18.00
   4   0   8  115.69   27.50
  -5   0  -8   31.10   23.90
   5   0   8   32.80   36.30
   5   0   8   -0.90   29.70
   5   0   8   79.99   24.90
   5   0   8   56.79   23.90
   7  -1  -8   69.09   24.60
   7  -1  -8   40.20   19.10
   7  -1  -8   67.59   31.10
  -7   1   8    5.90   37.10
   6  -1  -8  197.58   21.40
   6  -1  -8  210.78   25.10
   6  -1  -8  178.28   29.70
   6  -1  -8  175.38   21.10
  -6   1   8  164.18   31.70
  -6   1   8  182.08   26.90
   5  -1  -8   21.30   14.80
  -5   1   8   22.80   15.90
  -5   1   8   33.80   18.80
   4  -1  -8   11.40   12.50
   4  -1  -8   -1.20   11.70
   4  -1  -8   19.60    9.00
  -4   1   8   -3.20   12.10
  -4   1   8   10.70   14.20
   3  -1  -8  145.29   13.70
   3  -1  -8  125.99   12.20
   3  -1  -8  132.09   14.70
  -3   1   8  102.09   16.60
  -3   1   8  108.29   15.00
   2  -1  -8  -13.70    8.40
   2  -1  -8   -4.50    7.50
   2  -1  -8    1.60    7.50
   2  -1  -8    8.20    7.90
   2  -1  -8    1.10    7.20
  -2   1   8    0.80    8.90
  -2   1   8    5.30    6.40
  -2   1   8   -5.60    9.50
  -2   1   8   -7.20    9.30
   1  -1  -8  184.08   14.10
   1  -1  -8  196.08   14.50
   1  -1  -8  168.48   13.20
   1  -1  -8  182.58   11.90
  -1   1   8  163.58   20.00
  -1   1   8  166.88   14.70
  -1   1   8  177.68   13.10
  -1   1   8  170.18   11.10
  -1   1   8  193.78   15.30
   0  -1  -8   54.59    9.00
   0   1   8   54.19   10.60
   0   1   8   49.10    9.50
   0   1   8   64.49   10.20
   0   1   8   64.49    8.90
  -1  -1  -8   31.00    9.40
  -1  -1  -8   10.20   11.20
  -1  -1  -8   11.70   10.00
   1   1   8   15.00   11.40
   1   1   8   26.00   11.10
   1   1   8    7.50   10.00
  -2  -1  -8   63.49   12.50
  -2  -1  -8   86.99   14.80
  -2  -1  -8   63.09   12.30
   2   1   8   85.39   16.50
   2   1   8   87.09    9.70
   2   1   8   54.89   10.30
   2   1   8   68.19   13.50
  -3  -1  -8  179.28   23.20
  -3  -1  -8  223.98   21.70
   3   1   8  214.98   19.00
   3   1   8  245.28   22.10
   3   1   8  209.78   16.90
  -4  -1  -8   70.49   18.80
   4   1   8   93.89   30.50
   4   1   8   90.79   20.60
   4   1   8   79.99   20.50
   4   1   8   74.49   21.90
  -5  -1  -8  -13.80   16.50
   5   1   8   16.10   26.00
   5   1   8   32.60   25.70
   5   1   8  -60.99   40.10
   7  -2  -8  162.08   33.90
   7  -2  -8   61.69   24.60
   6  -2  -8   65.99   24.00
   6  -2  -8   63.99   17.30
   6  -2  -8  106.79   24.00
  -6   2   8   71.59   26.30
   5  -2  -8   40.10   16.40
   5  -2  -8   53.19   17.90
   5  -2  -8   66.39   12.80
   5  -2  -8   55.79   16.30
  -5   2   8   47.70   19.90
  -5   2   8   52.89   17.30
   4  -2  -8   54.09   11.60
   4  -2  -8   63.19   21.30
   4  -2  -8   44.90   11.10
   4  -2  -8   55.89   13.20
  -4   2   8   33.20   13.70
  -4   2   8   50.99   15.50
   3  -2  -8  128.09   14.20
   3  -2  -8  101.89   11.80
  -3   2   8  128.39   14.20
  -3   2   8  115.69   16.40
  -3   2   8  114.49   17.50
   2  -2  -8   66.99    9.30
   2  -2  -8   49.99   13.00
   2  -2  -8   84.19   12.30
  -2   2   8   55.99   11.00
  -2   2   8   78.69   16.20
  -2   2   8   66.59    8.70
  -2   2   8   69.19   11.90
  -2   2   8   82.29   12.30
   1  -2  -8   81.49   10.70
   1  -2  -8   81.99   11.90
   1  -2  -8   60.99    9.60
   1  -2  -8   62.09   10.50
   1  -2  -8   64.69    8.90
  -1   2   8   57.69   12.00
  -1   2   8   62.49    9.70
  -1   2   8   69.29   12.10
  -1   2   8   66.39   15.70
   0  -2  -8  712.33   33.00
   0  -2  -8  698.03   33.20
   0   2   8  681.83   33.90
   0   2   8  659.43   32.40
   0   2   8  641.34   31.30
  -1  -2  -8  368.26   22.00
  -1  -2  -8  319.27   21.60
  -1  -2  -8  344.27   26.60
   1   2   8  349.96   22.50
   1   2   8  325.97   21.90
   1   2   8  344.17   21.00
   1   2   8  295.87   18.70
  -2  -2  -8  226.18   25.90
  -2  -2  -8  215.38   20.20
  -2  -2  -8  232.18   20.20
   2   2   8  194.48   20.70
   2   2   8  262.77   21.20
   2   2   8  236.58   30.50
  -3  -2  -8   93.99   12.70
  -3  -2  -8   98.99   17.40
   3   2   8  101.09   27.10
   3   2   8  114.79   18.20
  -4  -2  -8   15.00   14.60
  -4  -2  -8   18.80   22.40
   4   2   8    5.10   20.00
   4   2   8    1.80   35.10
   7  -3  -8   27.90   24.90
   7  -3  -8   14.60   34.90
  -7   3   8  -29.70   40.70
   6  -3  -8  -14.20   24.50
   6  -3  -8   14.30   17.40
   6  -3  -8   16.90   24.30
  -6   3   8   30.90   28.30
   5  -3  -8   41.00   13.70
   5  -3  -8   19.30   18.10
   5  -3  -8   23.10   17.30
  -5   3   8  -10.80   20.80
  -5   3   8   65.09   20.90
  -5   3   8   29.70   17.10
   4  -3  -8   52.49   11.70
   4  -3  -8   64.89   15.40
   4  -3  -8   63.09   13.90
  -4   3   8   67.49   17.70
  -4   3   8   71.39   15.50
  -4   3   8   59.39   13.20
  -4   3   8   87.79   17.50
   3  -3  -8  141.39   18.50
   3  -3  -8  117.49   14.30
   3  -3  -8  128.99   16.60
  -3   3   8  151.58   19.20
  -3   3   8   85.59   13.20
  -3   3   8  122.99   15.10
  -3   3   8  131.29   17.40
   2  -3  -8  346.17   20.70
   2  -3  -8  295.87   20.70
  -2   3   8  354.46   21.80
  -2   3   8  297.27   17.80
  -2   3   8  318.27   20.80
  -2   3   8  279.47   24.30
  -2   3   8  354.56   22.90
   1  -3  -8   46.70   12.00
   1  -3  -8   49.40    9.70
   1  -3  -8   39.80   14.40
  -1   3   8   65.09   10.60
  -1   3   8   58.09   12.50
  -1   3   8   48.80   13.20
   0  -3  -8   95.79   15.80
   0  -3  -8  119.09   14.10
   0   3   8   99.49   15.00
   0   3   8   94.69   17.20
   0   3   8   91.69   14.00
  -1  -3  -8   86.39   17.60
  -1  -3  -8  105.89   17.30
  -1  -3  -8   93.39   13.70
   1   3   8   88.79   18.90
   1   3   8   87.29   15.00
   1   3   8  113.59   16.30
  -2  -3  -8   43.00   16.60
  -2  -3  -8   57.09   28.00
   2   3   8   62.29   16.30
   2   3   8   41.30   16.20
   2   3   8   13.80   22.00
  -3  -3  -8   73.79   25.70
   3   3   8   97.99   31.70
   3   3   8   70.09   21.90
   3   3   8   74.09   18.80
  -4  -3  -8   92.29   20.70
   4   3   8   90.39   41.50
   4   3   8   84.29   23.00
   6  -4  -8  102.99   29.60
   6  -4  -8  133.09   28.20
   6  -4  -8  146.09   20.70
  -6   4   8  144.29   31.40
  -6   4   8  105.89   30.00
   5  -4  -8  183.88   28.60
   5  -4  -8  194.28   27.70
  -5   4   8  180.68   25.70
  -5   4   8  201.38   28.60
  -5   4   8  182.58   28.30
   4  -4  -8   71.29   16.20
   4  -4  -8  113.09   16.80
   4  -4  -8   39.40   12.60
  -4   4   8   83.99   21.00
  -4   4   8   64.59   17.40
  -4   4   8   54.69   19.60
   3  -4  -8  182.28   19.90
   3  -4  -8  137.99   20.90
  -3   4   8  189.98   22.80
  -3   4   8  117.19   15.30
  -3   4   8  166.78   20.50
   2  -4  -8   65.89   14.50
   2  -4  -8   60.69   13.80
  -2   4   8   62.99   15.30
  -2   4   8   60.99   15.10
  -2   4   8   62.79   13.50
   1  -4  -8   65.99   13.80
  -1   4   8   60.89   15.60
  -1   4   8   57.19   17.30
  -1   4   8   61.29   12.10
   0  -4  -8   26.50   12.50
   0  -4  -8   27.90   14.70
   0   4   8   36.40   12.80
   0   4   8   23.30   14.70
  -1  -4  -8   61.89   17.30
  -1  -4  -8   56.19   15.30
   1   4   8   13.50   23.50
   1   4   8   44.30   15.00
   1   4   8   42.20   16.00
  -2  -4  -8   40.70   13.80
   2   4   8   -1.80   30.00
   2   4   8   35.30   18.50
  -3  -4  -8  292.37   29.60
   3   4   8  258.57   29.70
   3   4   8  354.96   62.99
   6  -5  -8  271.17   27.80
  -6   5   8  253.97   36.00
  -6   5   8  317.77   49.70
   5  -5  -8  107.89   23.40
  -5   5   8  107.49   24.00
  -5   5   8   80.89   22.40
  -5   5   8   51.59   42.00
  -5   5   8   65.19   27.60
   4  -5  -8  114.69   19.10
   4  -5  -8   80.69   19.20
  -4   5   8   58.89   20.70
  -4   5   8  111.79   23.30
  -4   5   8   76.69   21.90
  -4   5   8  102.09   39.00
   3  -5  -8   16.90   14.80
   3  -5  -8  -31.90   16.50
   3  -5  -8   -0.30   15.40
  -3   5   8   12.70   17.30
  -3   5   8  -23.50   13.10
  -3   5   8   -1.30   17.30
  -3   5   8   11.10   20.50
  -3   5   8   -2.70   17.40
   2  -5  -8   56.69   16.30
   2  -5  -8   63.59   17.40
  -2   5   8   76.09   25.80
  -2   5   8   83.19   16.10
  -2   5   8   67.19   29.80
  -2   5   8   90.29   22.10
  -2   5   8   73.09   19.90
   1  -5  -8  297.47   24.50
  -1   5   8  307.07   51.89
  -1   5   8  366.26   24.20
  -1   5   8  366.96   32.40
   0  -5  -8  132.29   18.60
   0   5   8  126.59   16.60
   0   5   8  146.59   28.00
   0   5   8  132.59   19.80
   1   5   8   42.40   18.70
   1   5   8   58.79   29.90
   1   5   8   15.40   19.10
   2   5   8  156.98   37.90
   2   5   8  143.09   22.80
   6  -6  -8   89.79   47.70
  -6   6   8   26.90   38.50
  -6   6   8  109.09   45.60
  -6   6   8   40.80   37.60
   5  -6  -8  -22.20   25.50
  -5   6   8   73.49   27.60
  -5   6   8   -3.80   25.50
  -5   6   8   10.30   27.60
  -5   6   8   -6.80   35.70
   4  -6  -8   68.19   22.70
  -4   6   8   34.40   22.40
  -4   6   8   43.50   24.30
  -4   6   8   74.49   28.90
   3  -6  -8  102.49   19.20
  -3   6   8   81.69   22.10
  -3   6   8  112.69   21.30
  -3   6   8  141.39   26.20
   2  -6  -8   76.89   24.90
  -2   6   8   79.19   19.70
  -2   6   8   76.49   22.30
  -2   6   8   96.99   22.30
  -2   6   8   85.79   32.50
   1  -6  -8  196.78   28.50
  -1   6   8  314.57   51.09
  -1   6   8  191.98   25.60
  -1   6   8  222.18   28.80
   0   6   8   13.10   20.30
   0   6   8  -13.70   31.40
   0   6   8   16.70   17.20
   1   6   8    0.40   39.30
  -5   7   8   -7.10   32.80
  -5   7   8   34.70   40.50
  -5   7   8   51.49   33.40
   4  -7  -8    0.70   26.70
  -4   7   8   26.10   39.90
  -4   7   8    8.20   26.70
  -4   7   8   40.80   33.30
   3  -7  -8    5.00   14.90
   3  -7  -8  -11.70   24.00
  -3   7   8   29.80   28.40
  -3   7   8  -74.89   38.00
  -3   7   8  -35.30   25.80
  -2   7   8  159.18   30.30
  -2   7   8  294.37   43.30
  -2   7   8  217.48   36.00
  -1   7   8   38.60   38.70
  -1   7   8   45.40   26.80
  -1   7   8   -8.00   31.00
   0   7   8   -9.90   42.90
  -3   8   8  -22.50   34.20
   1  -9   9   99.79   25.40
  -2   9  -9   24.70   24.10
   2  -9   9   40.80   26.00
  -3   9  -9   71.69   26.80
   3  -9   9   28.20   27.20
   1  -8   9   68.59   20.30
   2  -8   9   30.20   19.30
  -3   8  -9   27.60   19.30
   3  -8   9  -10.50   21.50
  -4   8  -9   13.70   23.00
  -4   8  -9    7.00   21.70
   4  -8   9   37.30   23.20
  -3  -7   9   54.89   36.20
  -2  -7   9   12.20   28.50
   1  -7   9   11.60   15.70
   2  -7   9  -13.10   15.20
  -3   7  -9   70.69   18.40
   3  -7   9   14.00   16.60
  -4   7  -9   79.99   24.40
   4  -7   9   65.29   21.80
  -5   7  -9  164.58   24.90
  -5   7  -9  150.48   27.70
  -4  -6   9  132.09   41.50
  -3  -6   9   22.50   30.60
  -2  -6   9    5.50   24.60
   1   6  -9   -6.10   14.40
   1   6  -9   14.60   15.80
  -1  -6   9    1.70   21.20
   0   6  -9   70.49   20.60
   0   6  -9   91.69   16.10
   0   6  -9   73.59   12.70
  -1   6  -9   21.80   12.70
  -1   6  -9   46.00   19.50
  -2   6  -9  422.46   26.80
  -2   6  -9  352.86   36.30
  -2   6  -9  358.46   25.50
   2  -6   9  362.06   23.30
  -3   6  -9   99.39   18.90
  -3   6  -9  141.19   19.60
  -3   6  -9  130.59   25.80
   3  -6   9  107.69   27.00
  -4   6  -9   73.59   17.80
  -4   6  -9   51.69   24.50
  -4   6  -9   96.59   22.40
  -4   6  -9  110.09   27.50
   4  -6   9   80.69   19.40
  -5   6  -9   50.39   20.50
  -5   6  -9   88.09   34.90
  -5   6  -9   48.20   28.10
   5  -6   9   44.10   24.50
   4   5  -9   24.00   12.50
  -4  -5   9   16.10   32.50
   3   5  -9   14.20   16.00
  -3  -5   9   56.39   27.10
   2   5  -9  178.88   29.00
   2   5  -9  224.68   20.30
   2   5  -9  189.98   23.50
  -2  -5   9  212.38   28.20
   1   5  -9  145.69   17.70
   1   5  -9  140.89   16.30
   1   5  -9  131.59   20.30
  -1  -5   9  146.69   24.40
   0   5  -9   73.89   17.60
   0   5  -9   69.79   10.70
   0   5  -9   66.89   11.70
   0  -5   9   70.69   17.10
  -1   5  -9   48.10   11.40
  -1   5  -9   51.89   10.70
  -1   5  -9   62.49   17.10
   1  -5   9   40.90   11.40
  -2   5  -9  237.08   21.20
  -2   5  -9  256.07   20.40
  -2   5  -9  234.38   28.10
   2  -5   9  205.88   18.30
   2  -5   9  259.37   20.40
  -3   5  -9  112.99   24.20
  -3   5  -9   98.79   17.80
  -3   5  -9   88.09   21.50
  -3   5  -9   90.99   18.90
   3  -5   9  129.29   17.50
   3  -5   9   94.99   15.10
  -4   5  -9   -4.10   19.60
  -4   5  -9    9.30   23.60
  -4   5  -9   12.20   14.40
   4  -5   9   38.60   18.40
  -5   5  -9   18.80   18.60
  -5   5  -9  -30.00   29.90
  -5   5  -9   13.20   24.90
   5  -5   9   13.30   23.00
   5   4  -9   17.30   14.40
  -5  -4   9   32.10   24.10
  -5  -4   9   54.59   34.90
   4   4  -9   36.80   11.00
  -4  -4   9   92.89   28.80
   3   4  -9  421.26   23.20
   3   4  -9  441.06   33.20
  -3  -4   9  456.95   38.40
   2   4  -9  437.16   23.80
   2   4  -9  431.86   21.00
   2   4  -9  329.47   29.80
   2   4  -9  440.16   26.40
  -2  -4   9  406.76   32.80
   1   4  -9   15.70   10.00
   1   4  -9   10.20   14.40
   1   4  -9   24.50    9.80
  -1  -4   9    8.50   15.60
   0   4  -9  179.78   14.20
   0   4  -9  169.08   13.10
   0   4  -9  145.99   14.30
   0   4  -9  139.99   20.80
   0  -4   9  166.58   19.70
   0  -4   9  168.78   17.60
  -1   4  -9  129.69   20.40
  -1   4  -9  152.38   13.90
   1  -4   9  128.69   19.20
   1  -4   9  147.79   15.20
  -2   4  -9  151.58   16.10
  -2   4  -9  142.39   18.40
  -2   4  -9  147.39   20.90
   2  -4   9  100.69   15.10
   2  -4   9  117.79   18.00
  -3   4  -9   40.90   15.20
  -3   4  -9   22.50   11.70
  -3   4  -9   43.20   16.90
  -3   4  -9   31.60   15.90
  -3   4  -9   39.70   16.40
   3  -4   9   42.80   14.60
   3  -4   9   39.60   13.00
  -4   4  -9   -5.10   14.50
  -4   4  -9   -7.50   19.90
  -4   4  -9   31.20   17.40
   4  -4   9   27.30   17.70
   4  -4   9    7.20   19.00
  -5   4  -9   48.60   26.20
  -5   4  -9   44.50   18.70
  -5   4  -9   13.90   27.40
   5  -4   9   63.49   23.50
  -6   4  -9   93.99   35.20
   6  -4   9   87.49   36.10
   6  -4   9    1.60   30.80
   5   3  -9  -11.10   18.90
   5   3  -9   12.50   12.50
  -5  -3   9   -5.50   19.40
  -5  -3   9   11.60   29.50
   4   3  -9  115.09   15.20
  -4  -3   9  131.29   26.30
   3   3  -9  669.13   36.50
   3   3  -9  702.23   31.60
  -3  -3   9  631.14   42.30
   2   3  -9   38.80    6.20
   2   3  -9   26.50   11.10
  -2  -3   9   44.90   16.40
  -2  -3   9   21.00    8.20
   1   3  -9  268.67   17.00
   1   3  -9  292.17   16.50
   1   3  -9  253.37   22.40
   1   3  -9  291.87   13.90
  -1  -3   9  234.08   23.10
  -1  -3   9  276.87   16.00
  -1  -3   9  265.87   15.50
   0   3  -9   37.00   16.20
   0   3  -9   26.40   13.00
   0   3  -9   32.30    8.30
   0  -3   9   22.60    5.60
   0  -3   9   43.50    9.80
   0  -3   9   36.70    8.10
   0  -3   9   22.20   11.90
  -1   3  -9    6.40    8.80
  -1   3  -9   16.90    9.90
  -1   3  -9   13.50   12.20
   1  -3   9   25.70   10.40
   1  -3   9   11.60   11.60
   1  -3   9   20.00   11.00
  -2   3  -9  143.59   15.90
  -2   3  -9  146.69   17.90
  -2   3  -9  139.29   16.70
  -2   3  -9  106.59   16.70
   2  -3   9  155.58   17.10
   2  -3   9  140.89   15.70
  -3   3  -9  500.25   29.50
  -3   3  -9  486.75   30.80
  -3   3  -9  448.26   31.10
  -3   3  -9  509.25   34.00
   3  -3   9  481.65   28.40
   3  -3   9  513.75   30.40
   3  -3   9  480.45   28.70
  -4   3  -9  207.48   30.70
  -4   3  -9  245.08   26.30
  -4   3  -9  223.38   20.80
   4  -3   9  169.58   24.50
   4  -3   9  238.98   25.80
   4  -3   9  145.59   27.50
   4  -3   9  181.48   15.60
   4  -3   9  195.18   23.10
  -5   3  -9   52.99   18.50
  -5   3  -9   -2.80   28.80
  -5   3  -9   36.20   24.00
   5  -3   9   18.30   28.20
   5  -3   9   -2.30   33.40
   5  -3   9   19.10   22.10
   5  -3   9   18.80   27.10
  -6   3  -9   83.49   34.50
   6  -3   9   95.89   37.10
   6  -3   9   43.10   32.60
   6   2  -9   10.40   16.10
   6   2  -9  -39.00   18.30
  -6  -2   9   14.70   35.00
   5   2  -9   16.70   11.30
   5   2  -9   10.90   15.70
  -5  -2   9   11.10   28.80
   4   2  -9   86.49   14.60
   4   2  -9   93.59   13.00
   4   2  -9   66.49   13.50
  -4  -2   9   55.09   23.80
  -4  -2   9   93.29   14.80
   3   2  -9  116.09   14.20
   3   2  -9   96.59   10.70
   3   2  -9  101.29   12.40
  -3  -2   9   91.99   14.30
  -3  -2   9  108.09   20.50
   2   2  -9   37.70    9.50
   2   2  -9   36.60    5.70
   2   2  -9   32.40    9.00
  -2  -2   9   22.60   14.60
  -2  -2   9   47.80   11.40
  -2  -2   9   39.60    7.10
  -2  -2   9   25.30    8.40
   1   2  -9   22.60    9.90
   1   2  -9   15.00    4.50
  -1  -2   9   18.00    5.30
  -1  -2   9   28.80    7.60
  -1  -2   9    1.40   11.70
  -1  -2   9    9.50    9.20
   0   2  -9  359.36   17.90
   0   2  -9  375.36   21.10
   0   2  -9  381.26   20.40
   0   2  -9  387.06   19.20
   0  -2   9  380.76   18.10
   0  -2   9  415.86   22.00
   0  -2   9  337.47   24.10
   0  -2   9  373.36   20.10
  -1   2  -9  127.59    9.30
  -1   2  -9  107.89   13.10
  -1   2  -9  132.09   16.90
  -1   2  -9  103.49   11.20
  -1   2  -9  125.69   13.40
   1  -2   9   92.49   13.70
   1  -2   9   87.29   15.20
   1  -2   9  101.89   15.00
   1  -2   9  140.89    8.80
  -2   2  -9 2927.81  130.49
  -2   2  -9 2956.90  130.19
  -2   2  -9 2883.91  128.29
  -2   2  -9 3201.58  129.79
  -2   2  -9 2912.01  128.89
   2  -2   9 2951.20  129.39
   2  -2   9 3195.28  130.29
   2  -2   9 3046.20  129.89
  -3   2  -9    7.30   11.50
  -3   2  -9   14.70   13.00
  -3   2  -9    2.30   16.40
  -3   2  -9   23.00   15.20
  -3   2  -9   22.80   15.40
   3  -2   9   26.90    6.70
   3  -2   9    6.90   13.50
   3  -2   9   12.90   15.10
   3  -2   9    4.50   14.50
  -4   2  -9   59.89   15.60
  -4   2  -9   86.79   17.40
  -4   2  -9   41.90   20.10
   4  -2   9   77.09   18.50
   4  -2   9   77.09   19.40
   4  -2   9   26.00   27.70
   4  -2   9   64.29   19.20
  -5   2  -9   59.49   24.10
   5  -2   9   24.40   35.40
   5  -2   9    0.00   26.00
   5  -2   9   74.29   25.50
   5  -2   9   63.79   23.30
   6   1  -9  -18.90   17.90
   6   1  -9    1.60   24.60
   6   1  -9   38.90   15.60
  -6  -1   9   14.00   32.90
   5   1  -9   16.30   10.00
   5   1  -9    4.80   15.70
   5   1  -9    6.80   16.80
  -5  -1   9   34.50   21.30
  -5  -1   9   12.30   24.50
   4   1  -9   50.49   13.20
  -4  -1   9   82.19   16.90
  -4  -1   9   62.69   13.80
  -4  -1   9   20.00   32.80
   3   1  -9  199.28   12.70
   3   1  -9  208.38   16.40
   3   1  -9  224.08   15.90
  -3  -1   9  174.48   23.40
  -3  -1   9  184.58   15.70
  -3  -1   9  173.08   20.00
  -3  -1   9  204.08   17.00
   2   1  -9  166.68   10.60
   2   1  -9  187.38   14.60
   2   1  -9  163.38   14.70
  -2  -1   9  183.38   20.70
  -2  -1   9  194.18   13.80
  -2  -1   9  143.29   12.10
  -2  -1   9  127.59   19.50
   1   1  -9   64.29    7.30
   1   1  -9   79.29   12.60
  -1  -1   9   59.29    7.90
  -1  -1   9   54.59   11.50
  -1  -1   9   68.69   11.00
  -1  -1   9   71.79   13.80
   0   1  -9 1034.70   43.90
   0   1  -9 1001.90   44.80
   0   1  -9  847.02   47.90
   0   1  -9 1034.50   46.10
   0   1  -9 1028.10   46.20
   0   1  -9 1050.89   45.40
   0  -1   9 1078.89   46.70
   0  -1   9 1026.10   43.90
   0  -1   9  987.20   45.20
   0  -1   9  970.40   47.50
  -1   1  -9  959.00   43.60
  -1   1  -9  946.71   44.40
  -1   1  -9  919.61   44.50
  -1   1  -9  971.70   42.20
  -1   1  -9  933.51   42.90
  -1   1  -9  887.61   46.60
   1  -1   9  978.30   41.60
   1  -1   9 1023.70   44.90
   1  -1   9  939.71   43.90
   1  -1   9  929.81   42.50
  -2   1  -9  358.96   20.40
  -2   1  -9  364.56   26.00
  -2   1  -9  373.76   22.10
  -2   1  -9  375.06   24.80
  -2   1  -9  343.87   23.30
   2  -1   9  320.47   19.80
   2  -1   9  384.76   23.40
   2  -1   9  369.66   23.10
  -3   1  -9   -7.70   13.30
  -3   1  -9   -1.90   16.60
  -3   1  -9   28.90   16.10
   3  -1   9   -3.40   13.70
   3  -1   9   15.20   21.40
   3  -1   9   11.00    7.00
   3  -1   9    2.50   15.60
   3  -1   9   12.10   11.80
   3  -1   9    6.20   14.40
  -4   1  -9   14.30   17.60
  -4   1  -9   -2.40   20.40
   4  -1   9   -4.40   19.00
   4  -1   9   15.90   29.50
   4  -1   9   15.80   19.10
   4  -1   9   12.30   20.60
  -5   1  -9   63.59   25.60
   5  -1   9    0.90   26.50
   5  -1   9    9.40   34.10
   5  -1   9   18.00   24.80
   5  -1   9   38.30   27.70
   6   0  -9   70.79   15.50
   6   0  -9   87.59   19.20
   6   0  -9   51.79   23.30
  -6   0   9   95.39   29.30
  -6   0   9  103.29   31.30
   5   0  -9   77.59   17.10
   5   0  -9  107.09   19.20
  -5   0   9  107.39   22.40
  -5   0   9   92.79   27.20
   4   0  -9   76.09   14.40
   4   0  -9  118.89   15.50
  -4   0   9  101.19   14.70
  -4   0   9  141.09   19.00
  -4   0   9  103.59   22.50
   3   0  -9  251.57   17.50
   3   0  -9  216.38   18.40
  -3   0   9  209.78   16.50
  -3   0   9  218.18   24.10
  -3   0   9  238.18   21.70
  -3   0   9  236.08   18.30
   2   0  -9  347.37   21.00
   2   0  -9  373.86   20.90
   2   0  -9  338.97   20.10
   2   0  -9  371.76   19.10
  -2   0   9  376.06   22.90
  -2   0   9  346.57   20.30
  -2   0   9  348.97   25.40
  -2   0   9  360.46   18.60
   1   0  -9  289.17   18.70
   1   0  -9  276.57   18.00
  -1   0   9  265.37   17.60
  -1   0   9  283.57   20.00
  -1   0   9  298.67   14.80
  -1   0   9  290.37   21.70
   0   0  -9  351.86   18.50
   0   0  -9  369.86   22.40
   0   0  -9  362.66   23.70
   0   0  -9  371.06   21.60
   0   0  -9  407.36   21.30
   0   0  -9  374.46   19.90
   0   0   9  409.76   28.00
   0   0   9  387.76   22.40
   0   0   9  397.86   22.80
   0   0   9  355.96   18.00
   0   0   9  362.46   23.20
   0   0   9  388.56   19.30
  -1   0  -9  269.37   19.20
  -1   0  -9  283.37   17.90
  -1   0  -9  261.77   19.20
  -1   0  -9  227.18   15.70
   1   0   9  264.87   15.80
   1   0   9  279.77   19.80
   1   0   9  255.87   14.10
  -2   0  -9   14.80   11.30
  -2   0  -9    7.60   13.60
  -2   0  -9    3.30   13.20
   2   0   9   -0.60   13.40
   2   0   9   26.10   16.40
   2   0   9   12.10   12.90
   2   0   9   24.40    9.70
   2   0   9   15.80    6.30
  -3   0  -9    4.70   17.30
  -3   0  -9   37.20   17.20
  -3   0  -9    6.70   15.00
   3   0   9   11.90   15.80
   3   0   9   23.60   16.10
   3   0   9    6.90   20.60
   3   0   9   21.00    8.40
   3   0   9   -0.50   12.70
  -4   0  -9   66.69   20.40
   4   0   9   99.39   29.90
   4   0   9   61.69   21.60
   4   0   9   55.49   21.40
   4   0   9   79.19   22.40
  -5   0  -9   33.20   28.70
   5   0   9   57.59   27.80
   5   0   9  -15.00   40.80
   6  -1  -9   49.40   24.20
  -6   1   9    3.20   30.90
  -6   1   9   16.20   27.50
   5  -1  -9   59.69   17.00
   5  -1  -9  150.08   24.60
   5  -1  -9   93.39   14.10
  -5   1   9   99.89   22.50
   4  -1  -9  107.19   15.60
   4  -1  -9  103.79   12.80
   4  -1  -9   84.59   16.00
   4  -1  -9   96.69   14.10
  -4   1   9   93.69   17.00
  -4   1   9  100.59   15.40
   3  -1  -9  711.23   35.70
   3  -1  -9  752.32   35.50
   3  -1  -9  724.33   33.80
  -3   1   9  707.93   37.60
  -3   1   9  695.73   35.90
   2  -1  -9   24.00    8.80
   2  -1  -9   16.60   10.60
   2  -1  -9   11.70   10.20
   2  -1  -9   25.30    9.40
  -2   1   9   34.50   16.60
  -2   1   9   18.50   12.00
  -2   1   9    6.10    9.60
   1  -1  -9  246.28   18.60
  -1   1   9  250.47   19.60
  -1   1   9  221.88   18.20
   0  -1  -9  122.29   15.60
   0  -1  -9  110.89   11.60
   0  -1  -9  111.59   14.50
   0   1   9  136.89   15.70
   0   1   9  112.89   13.50
   0   1   9  103.19    8.90
   0   1   9  107.09   14.20
   0   1   9   88.59   14.00
  -1  -1  -9   -3.80   11.50
  -1  -1  -9   11.60   10.90
   1   1   9   -3.20   11.20
   1   1   9    9.10   12.30
   1   1   9   12.50   12.30
   1   1   9   10.80    8.80
  -2  -1  -9  102.79   15.80
  -2  -1  -9  102.89   14.30
  -2  -1  -9  117.09   16.10
   2   1   9   80.49   12.10
   2   1   9   93.19   16.60
   2   1   9   92.59   10.90
   2   1   9  142.09   17.30
   2   1   9   92.29   17.30
   2   1   9  112.69   20.10
  -3  -1  -9   70.69   20.10
  -3  -1  -9  121.39   18.40
   3   1   9   97.59   27.70
  -4  -1  -9   46.80   22.70
   4   1   9   53.29   22.50
   4   1   9   46.90   23.80
   4   1   9   47.10   34.60
  -5  -1  -9   26.10   19.10
   5   1   9   91.89   28.80
   5   1   9    2.90   49.30
   6  -2  -9    9.90   26.00
   6  -2  -9   19.70   16.70
   6  -2  -9   34.80   23.20
  -6   2   9   25.80   29.90
   5  -2  -9   25.20   16.30
   5  -2  -9   26.10   15.00
  -5   2   9   31.10   22.10
  -5   2   9   16.80   18.90
   4  -2  -9   81.89   14.30
   4  -2  -9   87.99   17.50
   4  -2  -9  117.09   16.00
  -4   2   9   99.49   18.00
  -4   2   9  123.69   19.20
   3  -2  -9   14.40   10.00
   3  -2  -9   31.20   12.90
   3  -2  -9   13.60   10.70
   3  -2  -9   31.60   12.00
  -3   2   9    3.50   13.10
  -3   2   9   19.10   14.90
  -3   2   9   29.80   14.70
   2  -2  -9   17.10   11.00
   2  -2  -9    0.70   11.40
   2  -2  -9   12.30    9.20
   2  -2  -9   18.30    9.10
   2  -2  -9   18.70    9.50
  -2   2   9    9.80   12.90
  -2   2   9   28.20   12.90
  -2   2   9   -5.10   17.50
  -2   2   9    8.50   10.50
  -2   2   9   18.90    8.40
   1  -2  -9  148.99   16.20
   1  -2  -9  131.29   14.10
  -1   2   9  124.99   14.80
  -1   2   9  179.48   18.70
  -1   2   9  140.69   17.10
   0  -2  -9   39.00   12.30
   0  -2  -9   38.20   11.80
   0   2   9   35.20    9.40
   0   2   9   41.50   13.20
   0   2   9   41.10   11.70
  -1  -2  -9    3.50   13.10
  -1  -2  -9    8.40   16.00
  -1  -2  -9   13.70   13.00
   1   2   9    7.50   12.80
   1   2   9    3.00   18.40
   1   2   9   11.90   14.50
   1   2   9   31.50   13.50
  -2  -2  -9  259.67   24.60
  -2  -2  -9  279.07   24.10
  -2  -2  -9  270.17   30.90
   2   2   9  281.57   27.20
   2   2   9  209.58   23.50
   2   2   9  279.97   41.40
  -3  -2  -9   19.00   12.30
  -3  -2  -9   23.60   19.40
   3   2   9   -8.10   27.70
   3   2   9   26.10   22.20
   3   2   9   23.70   19.50
  -4  -2  -9   10.60   17.20
   4   2   9   19.10   23.00
   4   2   9  -48.00   39.90
   6  -3  -9   87.89   25.40
   6  -3  -9   33.50   19.50
   6  -3  -9   26.70   28.50
  -6   3   9   37.60   31.30
   5  -3  -9   27.70   20.70
   5  -3  -9  -13.10   17.50
  -5   3   9    7.90   20.30
  -5   3   9   19.00   24.70
   4  -3  -9   89.19   16.70
   4  -3  -9   79.19   14.90
   4  -3  -9   33.90   18.50
  -4   3   9   75.59   20.00
  -4   3   9   61.99   18.70
  -4   3   9   64.99   19.10
  -4   3   9   51.69   14.40
   3  -3  -9  145.89   18.80
   3  -3  -9  106.19   14.80
   3  -3  -9  104.99   15.80
   3  -3  -9  130.59   20.30
  -3   3   9  114.69   14.00
  -3   3   9  127.99   18.40
  -3   3   9  148.09   19.40
  -3   3   9   85.89   20.70
  -3   3   9  154.68   22.60
   2  -3  -9   37.20   13.50
   2  -3  -9   34.70   10.00
   2  -3  -9   23.30   13.00
  -2   3   9   43.90   15.80
  -2   3   9   29.10   17.10
  -2   3   9   40.30   15.20
  -2   3   9   24.90    9.50
   1  -3  -9  140.19   17.80
   1  -3  -9  121.99   14.70
  -1   3   9  177.38   21.60
  -1   3   9  163.78   16.40
  -1   3   9  120.29   12.80
  -1   3   9  151.78   24.50
   0  -3  -9  378.56   25.90
   0  -3  -9  440.66   27.40
   0   3   9  430.56   27.60
   0   3   9  425.26   25.50
  -1  -3  -9  219.38   23.70
  -1  -3  -9  275.67   24.10
  -1  -3  -9  264.07   31.70
   1   3   9  226.08   21.80
   1   3   9  243.88   30.50
  -2  -3  -9   66.89   18.00
   2   3   9    0.20   28.20
   2   3   9   41.10   19.00
   2   3   9   17.40   18.50
  -3  -3  -9   19.60   22.30
  -3  -3  -9   26.90   17.90
   3   3   9    2.60   35.60
   3   3   9   48.00   21.00
   6  -4  -9  152.38   22.90
   6  -4  -9  179.28   34.00
  -6   4   9  152.08   41.80
  -6   4   9  139.89   33.90
   5  -4  -9   31.10   20.70
   5  -4  -9  103.49   22.90
   5  -4  -9   80.59   17.90
  -5   4   9   98.69   22.30
  -5   4   9   73.39   29.50
  -5   4   9   98.99   25.70
   4  -4  -9  154.98   22.70
   4  -4  -9  168.88   25.30
  -4   4   9  202.58   26.20
  -4   4   9  156.18   22.50
  -4   4   9  169.58   25.20
   3  -4  -9   38.50   16.50
   3  -4  -9   30.80   11.80
   3  -4  -9   -3.70   16.60
  -3   4   9   63.19   17.50
  -3   4   9   16.70   12.60
  -3   4   9   41.80   19.90
  -3   4   9   14.10   21.20
  -3   4   9   39.40   19.80
   2  -4  -9  319.57   23.70
   2  -4  -9  267.57   20.30
  -2   4   9  317.97   24.00
  -2   4   9  255.67   19.30
  -2   4   9  379.16   28.50
   1  -4  -9   16.90   11.00
   1  -4  -9   41.90   15.30
  -1   4   9   30.60   11.10
  -1   4   9    6.20   17.80
  -1   4   9   61.09   21.50
  -1   4   9   36.30   13.50
  -1   4   9   41.60   17.90
   0  -4  -9    9.60   15.10
   0  -4  -9  -12.00   16.20
   0   4   9  -26.20   26.90
   0   4   9    9.30   22.30
   0   4   9   17.30   15.40
  -1  -4  -9   18.70   19.30
   1   4   9    5.80   17.20
   1   4   9  -21.40   26.70
   1   4   9    9.70   19.20
  -2  -4  -9   20.10   22.00
   2   4   9  -15.40   33.80
   2   4   9   69.49   21.30
   2   4   9    2.20   22.00
  -3  -4  -9  164.88   22.80
   3   4   9  116.19   26.20
   3   4   9  206.98   47.40
   6  -5  -9   77.09   24.60
   6  -5  -9   23.60   33.70
  -6   5   9  130.89   43.70
  -6   5   9   50.19   36.00
   5  -5  -9   71.29   25.00
   5  -5  -9   52.89   21.20
  -5   5   9  101.39   29.00
  -5   5   9   43.40   24.70
  -5   5   9   49.99   34.20
  -5   5   9   35.60   29.90
   4  -5  -9   96.39   21.60
  -4   5   9   67.19   26.10
  -4   5   9   43.20   22.90
  -4   5   9   84.39   29.80
  -4   5   9   41.00   21.90
   3  -5  -9  122.69   19.60
  -3   5   9   74.79   23.80
  -3   5   9   69.39   21.70
  -3   5   9  101.79   19.90
  -3   5   9  116.79   26.60
   2  -5  -9   18.80   22.50
  -2   5   9   21.80   21.80
  -2   5   9   11.50   17.90
  -1   5   9   11.70   16.00
  -1   5   9    2.20   20.40
  -1   5   9   41.70   27.90
   0   5   9  -61.69   33.20
   0   5   9    8.80   16.90
   0   5   9  -32.40   20.70
  -1  -5  -9   80.29   23.30
   1   5   9   73.29   34.20
   1   5   9   81.09   22.90
   2   5   9  170.48   28.00
   2   5   9  232.28   46.30
   5  -6  -9   84.79   29.10
  -5   6   9   47.20   39.40
  -5   6   9    2.80   33.90
  -5   6   9   33.50   34.10
   4  -6  -9   -5.40   25.10
  -4   6   9   39.30   26.10
  -4   6   9    8.30   27.20
  -4   6   9   41.80   31.90
  -4   6   9   44.50   28.10
   3  -6  -9   47.60   23.00
  -3   6   9   47.30   38.70
  -3   6   9    6.40   27.20
  -3   6   9  -11.60   27.00
   2  -6  -9   25.20   28.00
  -2   6   9   15.00   26.10
  -2   6   9   60.79   21.40
  -2   6   9   84.39   26.00
  -2   6   9   38.50   35.30
  -1   6   9   43.40   25.40
  -1   6   9    0.30   23.20
  -1   6   9  -44.70   34.90
   0   6   9  -27.50   37.80
   1   6   9  -30.00   44.10
  -4   7   9  -28.00   34.00
  -4   7   9   35.70   38.60
  -3   7   9  -15.20   31.50
  -3   7   9   11.80   32.80
  -3   7   9   54.49   47.80
  -2   7   9   91.09   34.70
  -2   7   9   97.39   31.00
  -2   7   9  101.59   46.40
  -1   7   9   46.20   49.20
  -1   7   9   39.90   29.90
  -2   9 -10   20.00   26.90
   2  -9  10    7.20   26.60
   2  -8  10   -9.10   21.50
   3  -8  10   -2.20   24.00
  -4   8 -10   57.49   28.30
  -2  -7  10   72.49   31.30
  -2   7 -10    6.70   18.10
  -3   7 -10   56.49   21.90
  -3   7 -10   93.99   21.80
   3  -7  10   33.30   20.50
  -4   7 -10   40.50   24.90
  -3  -6  10   59.49   33.00
  -2  -6  10   17.80   26.30
   1   6 -10   25.10   17.20
   1   6 -10    0.20   17.50
  -1  -6  10   46.50   22.40
   0   6 -10    7.40   17.40
   0   6 -10   -4.50   12.60
   0  -6  10   44.00   20.30
  -1   6 -10   49.70   24.00
  -2   6 -10  298.47   28.80
  -2   6 -10  351.26   27.90
  -2   6 -10  368.16   36.40
   2  -6  10  279.97   29.10
  -3   6 -10  426.26   32.40
  -3   6 -10  373.66   32.70
  -3   6 -10  294.47   43.10
   3  -6  10  378.96   30.40
  -4   6 -10  345.57   36.90
  -4   6 -10  260.47   47.20
   4  -6  10  247.38   32.50
  -5   6 -10   13.30   29.70
  -5   6 -10   38.30   22.80
   5  -6  10   34.00   28.20
   4   5 -10   14.90   12.60
  -4  -5  10  -22.80   35.50
   3   5 -10    5.10   20.90
  -3  -5  10   10.30   27.40
   2   5 -10   21.00   14.40
   2   5 -10  -12.20   17.90
  -2  -5  10   -4.50   23.30
   1   5 -10   19.20   13.10
   1   5 -10   24.00   19.00
   1   5 -10   30.20   12.90
  -1  -5  10   37.60   21.00
   0   5 -10    0.70   17.70
   0   5 -10    2.70   12.40
   0   5 -10    2.00   11.60
   0  -5  10    6.80   18.10
  -1   5 -10  788.62   41.60
  -1   5 -10  618.04   41.10
  -1   5 -10  725.83   35.90
   1  -5  10  695.63   35.60
  -2   5 -10  132.69   21.90
  -2   5 -10  198.78   27.30
  -3   5 -10  179.28   24.70
  -3   5 -10  181.78   26.20
  -3   5 -10  198.48   26.00
   3  -5  10  194.88   25.80
  -4   5 -10   46.00   23.80
  -4   5 -10   78.89   17.60
  -4   5 -10   97.79   27.00
   4  -5  10  126.59   23.40
  -5   5 -10   74.29   29.10
  -5   5 -10    4.90   20.90
   5  -5  10    0.70   26.20
  -5  -4  10   90.69   39.70
   4   4 -10   12.70   10.00
  -4  -4  10   38.20   29.20
   3   4 -10  160.48   14.50
  -3  -4  10  150.18   27.80
   2   4 -10  217.58   14.80
   2   4 -10  242.28   22.40
  -2  -4  10  192.78   41.50
   1   4 -10   47.60   17.10
   1   4 -10   48.60   10.80
   1   4 -10   27.30   10.70
  -1  -4  10   28.30   17.50
  -1  -4  10   21.70    8.10
   0   4 -10   91.69   14.00
   0   4 -10   71.09   16.30
   0   4 -10  102.29   15.10
   0  -4  10   84.79   13.00
   0  -4  10  118.19   21.40
  -1   4 -10  108.69   17.50
  -1   4 -10  141.19   18.80
  -1   4 -10  121.59   15.90
   1  -4  10  136.49   17.10
   1  -4  10  112.29   17.70
   1  -4  10  136.69   19.10
  -2   4 -10   -4.80   16.30
  -2   4 -10   18.50   13.00
  -2   4 -10   30.60   15.20
  -2   4 -10    6.30   10.50
   2  -4  10   32.60   14.70
  -3   4 -10   31.70   18.60
  -3   4 -10  -12.90   21.00
  -3   4 -10   -7.80   16.10
  -3   4 -10   16.80   13.50
   3  -4  10   14.00   17.30
   3  -4  10   -2.60   15.90
  -4   4 -10  -16.40   15.90
  -4   4 -10   23.80   23.60
  -4   4 -10   -7.20   25.80
   4  -4  10   12.10   21.30
   4  -4  10   29.20   28.10
  -5   4 -10  -32.00   27.40
  -5   4 -10   -8.80   20.80
  -5   4 -10   69.69   35.20
   5  -4  10  -13.30   26.70
   5   3 -10   67.29   13.10
  -5  -3  10   39.00   32.20
   4   3 -10  143.69   21.20
   4   3 -10  129.89   15.50
  -4  -3  10  135.09   29.60
   3   3 -10  512.25   28.60
   3   3 -10  471.05   24.50
   3   3 -10  491.85   32.90
  -3  -3  10  449.76   38.70
   2   3 -10   22.00   10.30
   2   3 -10   20.30    6.70
   2   3 -10   10.90   12.40
  -2  -3  10   15.10    8.50
  -2  -3  10   23.00    9.20
  -2  -3  10   29.00   18.30
   1   3 -10   68.89   11.30
   1   3 -10   79.89   13.40
   1   3 -10   51.29    8.00
  -1  -3  10   70.99   16.20
  -1  -3  10   60.79   14.40
  -1  -3  10   73.79   12.10
  -1  -3  10   62.29    7.80
   0   3 -10  119.49   20.60
   0   3 -10  139.69   16.00
   0   3 -10  169.48   14.60
   0   3 -10  157.38   10.30
   0  -3  10  157.18   11.50
   0  -3  10  153.38   17.90
   0  -3  10  136.39   14.50
   0  -3  10  117.39   20.60
  -1   3 -10   45.50   13.10
  -1   3 -10   49.40   10.90
  -1   3 -10   44.60   15.80
   1  -3  10   47.40    6.60
   1  -3  10   41.30   13.30
   1  -3  10   43.50   15.10
   1  -3  10   45.90   13.30
  -2   3 -10  149.09   21.90
  -2   3 -10  176.48   23.80
  -2   3 -10  152.88   15.80
  -2   3 -10  184.38   21.90
  -2   3 -10  178.08   19.00
   2  -3  10  175.08   20.00
   2  -3  10  166.08   12.10
  -3   3 -10  278.07   29.00
  -3   3 -10  324.07   29.80
  -3   3 -10  370.96   23.70
  -3   3 -10  387.06   27.00
  -3   3 -10  344.57   32.10
   3  -3  10  313.17   25.10
   3  -3  10  354.06   27.50
  -4   3 -10   83.09   20.70
  -4   3 -10   32.00   24.90
  -4   3 -10   77.29   17.70
   4  -3  10   73.09   21.30
   4  -3  10   58.19   30.20
   4  -3  10   85.89   21.60
  -5   3 -10   27.90   22.70
   5  -3  10   21.30   25.80
   5  -3  10   41.60   36.90
   5  -3  10   34.10   30.00
   6   2 -10  -23.10   17.10
   6   2 -10   18.20   18.70
  -6  -2  10   55.59   38.90
   5   2 -10  201.48   21.00
   5   2 -10  180.38   27.90
   5   2 -10  196.18   29.80
  -5  -2  10  189.28   34.50
   4   2 -10  283.67   24.90
   4   2 -10  301.17   18.90
   4   2 -10  254.87   23.80
  -4  -2  10  268.17   36.40
   3   2 -10   70.99   12.10
   3   2 -10   83.39   16.10
   3   2 -10   70.69    8.80
  -3  -2  10   75.39   11.60
  -3  -2  10   61.29   24.50
   2   2 -10   98.09   10.00
   2   2 -10  149.79   24.90
   2   2 -10  129.39   15.00
  -2  -2  10  129.49   18.60
  -2  -2  10  135.19   14.00
  -2  -2  10  112.69   12.30
  -2  -2  10   97.39   18.80
   1   2 -10   20.70    9.30
   1   2 -10   19.70    5.30
   1   2 -10   34.30   10.70
  -1  -2  10   22.40    5.90
  -1  -2  10   15.20    8.80
  -1  -2  10    6.20   14.50
   0   2 -10   78.49   18.50
   0   2 -10  134.19   14.50
   0   2 -10  133.59   16.10
   0   2 -10  134.99    9.70
   0  -2  10  116.99   16.70
   0  -2  10  119.49    9.70
   0  -2  10  137.19   18.00
   0  -2  10  121.19   14.10
  -1   2 -10 1633.64   75.39
  -1   2 -10 1683.13   76.89
  -1   2 -10 1840.42   76.39
   1  -2  10 1735.93   74.19
   1  -2  10 1798.52   77.29
   1  -2  10 1679.83   76.49
  -2   2 -10  377.96   23.40
  -2   2 -10  416.46   25.80
  -2   2 -10  407.06   22.00
  -2   2 -10  362.56   28.60
  -2   2 -10  396.36   26.50
   2  -2  10  425.16   20.20
   2  -2  10  437.26   27.30
  -3   2 -10  289.97   27.10
  -3   2 -10  295.57   29.00
  -3   2 -10  301.97   22.20
  -3   2 -10  345.07   25.40
   3  -2  10  277.97   25.20
   3  -2  10  301.97   24.60
   3  -2  10  301.97   26.00
   3  -2  10  237.68   20.80
  -4   2 -10   42.30   20.20
  -4   2 -10    9.60   23.50
   4  -2  10   33.20   21.00
   4  -2  10   20.80   31.80
   4  -2  10  -28.20   21.20
   4  -2  10   43.30   22.40
  -5   2 -10  -35.00   27.80
   5  -2  10   70.49   30.90
   5  -2  10   -4.10   40.40
   5  -2  10   30.80   26.90
   5  -2  10   -1.60   31.60
   6   1 -10   21.20   18.40
   6   1 -10   18.70   15.80
   6   1 -10   35.50   26.20
  -6  -1  10   94.89   37.10
   5   1 -10   37.70   11.50
   5   1 -10   45.00   18.10
   5   1 -10   33.10   19.40
  -5  -1  10   43.50   26.20
  -5  -1  10   83.09   26.70
   4   1 -10   95.29   16.00
   4   1 -10   35.80   15.30
   4   1 -10   58.49    9.40
  -4  -1  10   57.89   21.00
  -4  -1  10   42.30   22.30
   3   1 -10   68.99   13.10
   3   1 -10   54.49    7.60
   3   1 -10   62.99   12.70
  -3  -1  10   66.89   25.60
  -3  -1  10   46.40    9.90
  -3  -1  10   46.90   18.60
  -3  -1  10   63.49   12.30
   2   1 -10   63.89   12.10
   2   1 -10   71.69   12.50
   2   1 -10   68.99    8.20
  -2  -1  10   74.79   16.90
  -2  -1  10   71.59   15.00
  -2  -1  10   89.09   13.60
  -2  -1  10   53.19    7.80
   1   1 -10  557.24   28.70
   1   1 -10  519.45   28.70
   1   1 -10  452.15   31.30
   1   1 -10  583.74   25.20
  -1  -1  10  552.84   25.60
  -1  -1  10  584.94   30.90
  -1  -1  10  522.25   33.30
  -1  -1  10  558.04   27.60
   0   1 -10 1396.36   57.49
   0   1 -10 1148.49   61.59
   0   1 -10 1354.76   59.39
   0   1 -10 1277.57   60.09
   0   1 -10 1304.77   60.19
   0   1 -10 1297.67   58.69
   0  -1  10 1328.87   59.19
   0  -1  10 1424.56   61.09
   0  -1  10 1352.96   61.79
   0  -1  10 1345.87   57.39
  -1   1 -10 2009.80   83.49
  -1   1 -10 2036.20   85.09
  -1   1 -10 1853.31   84.09
  -1   1 -10 1834.02   85.49
   1  -1  10 2062.09   86.19
   1  -1  10 1962.80   82.79
   1  -1  10 1889.91   85.69
   1  -1  10 1956.20   84.89
   1  -1  10 1784.02   83.49
  -2   1 -10  218.88   18.90
  -2   1 -10  194.98   16.60
  -2   1 -10  184.18   21.50
   2  -1  10  153.38   20.50
   2  -1  10  177.48   21.40
   2  -1  10  169.88   15.50
  -3   1 -10   22.50   19.30
  -3   1 -10    2.30   20.20
  -3   1 -10   21.70   15.80
   3  -1  10   39.50   16.70
   3  -1  10   48.90   17.40
   3  -1  10   30.50   18.40
   3  -1  10   25.20   27.20
   3  -1  10   28.60   12.20
   3  -1  10   -1.60   16.60
  -4   1 -10   30.30   22.10
   4  -1  10   43.40   23.00
   4  -1  10   62.69   33.00
   4  -1  10   56.99   26.10
   4  -1  10   66.99   22.30
  -5   1 -10   29.80   28.60
   5  -1  10   76.99   42.90
   5  -1  10   57.69   29.20
   5  -1  10   37.60   30.50
   6   0 -10   22.70   15.20
   6   0 -10   64.19   24.80
   6   0 -10   28.40   18.90
  -6   0  10    4.50   33.00
   5   0 -10   17.30   16.70
   5   0 -10  -20.60   19.70
   5   0 -10   11.10   10.70
  -5   0  10   40.10   24.90
  -5   0  10   44.90   27.40
   4   0 -10   30.70   16.10
  -4   0  10   56.89   19.60
  -4   0  10   61.59   24.30
  -4   0  10   59.99   15.90
   3   0 -10  590.64   29.50
   3   0 -10  522.85   29.30
   3   0 -10  517.55   25.10
  -3   0  10  487.85   36.20
  -3   0  10  525.15   29.10
  -3   0  10  498.25   27.50
  -3   0  10  555.14   32.30
   2   0 -10  508.05   27.90
   2   0 -10  558.44   25.00
   2   0 -10  513.55   29.20
   2   0 -10  531.05   26.90
   2   0 -10  578.84   29.00
  -2   0  10  514.15   28.40
  -2   0  10  559.74   31.60
  -2   0  10  546.25   33.70
   1   0 -10  575.54   24.80
   1   0 -10  479.85   28.10
   1   0 -10  523.35   30.00
   1   0 -10  526.55   26.80
   1   0 -10  522.05   29.20
  -1   0  10  509.75   27.60
  -1   0  10  542.05   25.10
  -1   0  10  542.65   31.30
  -1   0  10  551.04   32.10
   0   0 -10  821.52   41.00
   0   0 -10  832.52   39.60
   0   0 -10  913.21   40.90
   0   0 -10  824.02   42.90
   0   0 -10  886.31   38.30
   0   0 -10  762.12   48.00
   0   0  10  922.21   42.80
   0   0  10  796.92   41.90
   0   0  10  834.42   39.00
   0   0  10  876.71   40.50
   0   0  10  897.71   43.30
  -1   0 -10   66.29    9.60
  -1   0 -10   92.69   13.50
  -1   0 -10  118.89   17.90
   1   0  10   85.59   14.70
   1   0  10   82.19    8.10
   1   0  10  106.69   13.90
   1   0  10   96.59   15.60
  -2   0 -10   91.69   16.70
  -2   0 -10  139.49   19.10
  -2   0 -10   92.19   16.90
   2   0  10  103.19   19.10
   2   0  10  160.78   22.10
   2   0  10  111.19   11.60
   2   0  10  109.39   23.00
   2   0  10  142.99   21.90
  -3   0 -10   62.19   18.00
  -3   0 -10   31.50   20.10
   3   0  10   31.70   29.60
   3   0  10   87.19   20.50
   3   0  10   67.09   20.00
  -4   0 -10   39.50   23.10
   4   0  10   33.20   24.70
   4   0  10   67.89   36.40
   4   0  10   21.40   24.00
   4   0  10   13.80   25.10
   5   0  10  -13.60   49.90
   5   0  10   45.30   31.90
   5   0  10   -4.50   32.60
   6  -1 -10   26.20   26.70
   6  -1 -10  -12.90   18.40
  -6   1  10   20.10   35.20
  -6   1  10    4.70   32.20
   5  -1 -10   27.40   14.90
   5  -1 -10   40.70   21.10
  -5   1  10   -7.30   23.50
  -5   1  10  -14.00   27.20
   4  -1 -10  340.57   39.20
   4  -1 -10  305.47   25.60
   4  -1 -10  253.67   22.40
   4  -1 -10  293.27   20.10
  -4   1  10  293.77   28.90
  -4   1  10  352.96   26.70
   3  -1 -10   79.29   12.80
   3  -1 -10   94.69   15.00
   3  -1 -10   89.29   21.30
   3  -1 -10   64.69   12.80
  -3   1  10   77.79   14.60
  -3   1  10   95.79   17.60
   2  -1 -10  199.78   18.30
   2  -1 -10  166.58   16.20
   2  -1 -10  161.48   15.60
  -2   1  10  186.58   21.60
  -2   1  10  158.48   13.70
  -2   1  10  166.48   17.50
   1  -1 -10  -10.10   11.70
   1  -1 -10   -7.40   11.20
   1  -1 -10    2.20    9.70
  -1   1  10    2.60   11.30
  -1   1  10  -22.20   13.90
  -1   1  10  -23.20   14.00
  -1   1  10   -2.40    8.50
   0  -1 -10  102.89   15.00
   0  -1 -10  125.89   16.50
   0  -1 -10   87.89   13.10
   0   1  10  116.09   19.20
   0   1  10  102.39   14.20
   0   1  10   80.59   15.70
  -1  -1 -10   42.30   14.40
  -1  -1 -10   55.19   13.50
   1   1  10   10.60   15.00
   1   1  10   18.90   10.30
   1   1  10   25.20    6.90
   1   1  10   35.90   15.70
  -2  -1 -10   23.00   15.40
  -2  -1 -10   -8.20   15.50
  -2  -1 -10  -33.10   18.50
   2   1  10   13.70   13.20
   2   1  10  -32.90   29.70
   2   1  10    6.90   17.70
   2   1  10  -11.10   17.90
  -3  -1 -10   43.40   20.80
   3   1  10   51.19   21.20
   3   1  10   50.09   34.80
   3   1  10   42.80   21.60
   3   1  10   25.90   32.40
  -4  -1 -10   32.60   17.10
  -4  -1 -10   21.30   26.90
   4   1  10   42.40   26.00
   4   1  10  -20.50   40.80
   6  -2 -10   20.60   20.20
   6  -2 -10  -12.40   28.70
  -6   2  10   18.80   35.40
   5  -2 -10   47.50   15.60
   5  -2 -10  -18.00   20.90
   5  -2 -10   -5.20   19.30
  -5   2  10   -6.40   24.60
   4  -2 -10  168.88   27.30
   4  -2 -10  196.18   18.20
   4  -2 -10  165.38   24.10
  -4   2  10  181.28   25.00
  -4   2  10  181.08   24.40
  -4   2  10  201.28   28.50
   3  -2 -10   74.99   15.20
   3  -2 -10   35.70   15.00
   3  -2 -10   28.90   12.80
   3  -2 -10   58.59   12.50
  -3   2  10   34.70   11.50
  -3   2  10    4.20   14.80
  -3   2  10   36.10   18.20
   2  -2 -10   65.99   11.70
   2  -2 -10   77.29   12.60
   2  -2 -10   91.59   14.50
   2  -2 -10   69.09   11.70
   2  -2 -10   51.29   14.40
  -2   2  10   76.59   10.60
  -2   2  10   57.09   22.40
  -2   2  10   77.79   16.30
  -2   2  10   57.79   17.00
  -2   2  10   70.39   13.50
   1  -2 -10  187.98   19.50
   1  -2 -10  133.99   15.80
   1  -2 -10  156.48   15.90
  -1   2  10  175.28   20.10
  -1   2  10  206.18   22.60
  -1   2  10  161.68   17.70
  -1   2  10  158.38   13.40
   0  -2 -10   49.60   14.70
   0  -2 -10   56.19   14.10
   0   2  10   74.29   16.40
   0   2  10   34.30   16.10
   0   2  10   75.89   19.60
   0   2  10   70.89   11.60
  -1  -2 -10  340.07   28.10
  -1  -2 -10  452.85   27.40
   1   2  10  397.46   30.70
   1   2  10  479.85   42.90
   1   2  10  375.16   27.00
  -2  -2 -10  113.79   19.20
   2   2  10  102.79   30.70
   2   2  10  110.29   20.80
   2   2  10   52.39   21.20
   2   2  10  105.09   20.80
  -3  -2 -10   85.29   24.10
  -3  -2 -10   83.99   17.90
   3   2  10   77.89   27.30
   3   2  10  109.29   36.90
   3   2  10   78.99   24.40
  -4  -2 -10   15.60   20.80
   4   2  10   28.80   46.70
   4   2  10   27.90   27.40
   6  -3 -10  117.79   22.70
   6  -3 -10   72.79   30.20
   5  -3 -10   61.59   17.20
   5  -3 -10   88.29   36.40
  -5   3  10   30.70   29.80
  -5   3  10   49.99   28.10
   4  -3 -10   33.90   19.50
   4  -3 -10   76.29   19.90
   4  -3 -10   39.50   16.30
  -4   3  10   29.20   19.90
  -4   3  10   61.89   22.60
  -4   3  10   59.59   23.10
   3  -3 -10  119.29   17.70
   3  -3 -10  129.89   17.10
   3  -3 -10  173.08   22.80
   3  -3 -10  205.48   23.30
  -3   3  10  172.28   22.60
  -3   3  10  212.88   27.10
  -3   3  10  199.98   24.30
  -3   3  10  144.09   16.50
   2  -3 -10  647.54   35.00
  -2   3  10  549.74   33.30
  -2   3  10  607.84   36.70
   1  -3 -10  354.06   26.30
  -1   3  10  425.36   30.40
  -1   3  10  328.37   30.60
   0  -3 -10   65.39   16.80
   0  -3 -10   68.19   16.40
   0   3  10   74.29   16.50
   0   3  10   78.29   27.20
   0   3  10   77.49   19.50
  -1  -3 -10  170.38   25.80
   1   3  10  180.18   23.80
   1   3  10  269.37   45.30
   1   3  10  166.68   28.20
  -2  -3 -10   13.90   21.60
   2   3  10   30.60   31.60
   2   3  10   49.20   22.20
   2   3  10    8.40   21.40
   3   3  10   70.09   24.80
   3   3  10   32.10   40.20
   6  -4 -10    9.30   35.10
   6  -4 -10    9.60   23.30
  -6   4  10  -27.40   35.40
  -6   4  10    8.00   60.99
   5  -4 -10  -23.50   21.50
   5  -4 -10   44.50   36.20
   5  -4 -10   23.90   19.70
  -5   4  10   43.10   27.90
  -5   4  10   76.69   38.20
  -5   4  10   43.70   24.70
   4  -4 -10  313.07   31.50
   4  -4 -10  328.47   34.70
   4  -4 -10  267.77   24.80
  -4   4  10  329.67   31.10
  -4   4  10  375.36   38.20
  -4   4  10  276.67   45.80
   3  -4 -10  625.04   40.90
   3  -4 -10  768.82   40.80
  -3   4  10  783.22   44.30
  -3   4  10  678.23   40.30
  -3   4  10  614.24   40.50
   2  -4 -10  201.08   29.10
   2  -4 -10  129.59   19.70
  -2   4  10  199.28   27.70
  -2   4  10  177.78   25.00
  -2   4  10  177.38   24.60
   1  -4 -10  -13.00   19.40
   1  -4 -10   18.60   16.90
  -1   4  10    9.40   24.90
  -1   4  10    0.60   15.50
  -1   4  10    4.70   19.70
   0  -4 -10   43.60   20.40
   0   4  10   70.59   19.40
   0   4  10   54.09   22.20
  -1  -4 -10  -36.40   21.50
   1   4  10   58.49   31.40
   1   4  10   39.50   21.00
   1   4  10   -7.20   22.40
   2   4  10  141.59   27.10
   2   4  10  121.19   41.70
   5  -5 -10   90.19   24.80
   5  -5 -10  105.99   30.20
  -5   5  10   24.70   27.50
  -5   5  10  154.88   40.40
  -5   5  10   28.30   36.60
  -5   5  10   54.49   32.30
   4  -5 -10   37.90   24.80
  -4   5  10   29.10   27.60
  -4   5  10   43.00   33.50
  -4   5  10   45.70   28.90
  -4   5  10   31.90   28.30
   3  -5 -10  153.68   24.70
  -3   5  10  120.99   27.30
  -3   5  10  150.98   29.70
  -3   5  10  154.78   25.90
  -3   5  10  201.68   25.00
   2  -5 -10   -3.50   26.80
  -2   5  10    6.80   24.80
  -2   5  10   -3.90   27.20
  -2   5  10  -13.40   23.40
   1  -5 -10   21.90   23.00
  -1   5  10   44.80   19.40
  -1   5  10   21.70   26.60
   0  -5 -10   33.30   24.60
   0   5  10   39.60   25.10
   0   5  10   30.00   24.60
   0   5  10    0.10   37.10
   1   5  10   88.49   40.90
   1   5  10  -26.40   25.90
   5  -6 -10   88.99   37.20
  -5   6  10   48.20   46.20
  -5   6  10   69.19   46.20
  -5   6  10   17.20   39.70
   4  -6 -10   24.90   28.70
  -4   6  10    2.10   37.80
  -4   6  10   -0.80   32.00
  -4   6  10    9.80   34.20
   3  -6 -10    4.60   26.20
  -3   6  10  -12.40   31.50
  -3   6  10    1.20   32.30
  -2   6  10   82.19   29.70
  -2   6  10   15.80   30.20
  -1   6  10  -57.59   40.20
  -1   6  10   10.10   30.00
   0   6  10   23.30   45.70
   0   6  10  -13.80   29.10
   2  -8  11    9.30   23.30
  -3   8 -11   37.30   29.20
  -2  -7  11  151.18   36.00
  -2   7 -11  -28.90   20.30
  -3   7 -11   30.80   24.60
  -4   7 -11   43.30   28.90
  -3  -6  11  135.09   35.20
  -2  -6  11    3.10   29.00
   1   6 -11   22.70   22.60
  -1  -6  11   43.80   23.80
   0   6 -11   -3.70   20.20
   0   6 -11    2.60   14.40
   0  -6  11   12.50   22.10
  -1   6 -11   -4.50   16.20
  -1   6 -11   -5.40   16.10
  -2   6 -11  141.29   48.40
  -2   6 -11   54.59   22.00
  -2   6 -11   83.99   20.60
   2  -6  11   81.89   20.20
  -3   6 -11   74.19   22.70
  -3   6 -11   79.89   32.60
  -3   6 -11   18.00   24.90
   3  -6  11   64.59   22.50
  -4   6 -11   72.19   27.80
  -4   6 -11   17.70   21.30
  -4   6 -11   30.00   37.70
   4  -6  11   38.10   25.80
   4   5 -11   38.10   14.10
  -4  -5  11   54.39   39.50
   3   5 -11    3.80   10.70
  -3  -5  11  -26.00   29.20
   2   5 -11    2.90   16.70
  -2  -5  11    0.70   24.80
   1   5 -11   12.60   15.40
  -1  -5  11  -31.10   21.90
   0   5 -11  329.27   23.80
   0   5 -11  244.58   30.90
   0  -5  11  302.17   33.90
  -1   5 -11   -7.10   14.40
  -1   5 -11    5.50   24.50
  -1   5 -11   17.70   21.10
  -2   5 -11  118.99   20.20
  -2   5 -11  106.29   18.70
  -2   5 -11  118.19   24.10
   2  -5  11  127.69   20.00
  -3   5 -11   92.69   23.90
  -3   5 -11   97.69   26.40
  -3   5 -11  114.89   22.90
   3  -5  11   74.99   21.10
  -4   5 -11  158.48   27.40
  -4   5 -11   99.69   19.80
  -4   5 -11   74.29   30.70
   4  -5  11  118.69   26.70
  -5   5 -11   28.10   32.90
  -5   5 -11   13.90   27.10
   5  -5  11   45.80   31.90
   4   4 -11    8.80   11.40
  -4  -4  11    2.90   31.90
   3   4 -11   25.70    9.30
  -3  -4  11   37.20   27.20
   2   4 -11   50.09   17.70
   2   4 -11   80.79   11.30
  -2  -4  11   47.50   23.80
  -2  -4  11   82.29   13.20
   1   4 -11   81.29   21.40
   1   4 -11   93.49   13.60
   1   4 -11   70.89   10.30
  -1  -4  11   72.69   10.60
   0   4 -11  187.88   22.20
   0   4 -11  183.38   21.60
   0   4 -11  173.48   22.30
   0  -4  11  156.38   17.10
   0  -4  11  150.08   20.90
   0  -4  11  165.58   26.40
  -1   4 -11   92.39   19.10
  -1   4 -11   61.29   15.30
  -1   4 -11   86.19   15.70
   1  -4  11   82.89   19.20
   1  -4  11   64.89   17.70
   1  -4  11   91.19   15.70
  -2   4 -11   18.20   14.50
  -2   4 -11    4.30   19.40
  -2   4 -11   19.50   18.10
   2  -4  11    2.00   17.30
  -3   4 -11   51.59   21.90
  -3   4 -11  -23.50   20.00
  -3   4 -11   20.70   22.50
  -3   4 -11   27.00   16.40
   3  -4  11   10.90   19.90
  -4   4 -11  -15.60   28.60
  -4   4 -11    6.70   19.70
  -4   4 -11   46.20   25.60
   4  -4  11   60.09   23.90
  -5   4 -11   21.10   34.40
  -5   4 -11   20.60   25.50
   5  -4  11    8.50   29.80
   5   3 -11   40.40   14.60
  -5  -3  11   62.89   36.30
   4   3 -11   61.89   11.40
  -4  -3  11  101.69   30.30
   3   3 -11  148.99   14.60
   3   3 -11  124.69   22.20
   3   3 -11  207.48   19.40
  -3  -3  11  160.98   27.80
   2   3 -11   90.39   13.50
   2   3 -11   98.09   15.40
  -2  -3  11   70.39   11.40
  -2  -3  11   97.29   15.40
   1   3 -11   77.39   12.80
   1   3 -11   53.49    7.70
   1   3 -11   82.49   25.40
  -1  -3  11   46.40   11.00
  -1  -3  11   48.90    8.40
  -1  -3  11   60.49   19.40
  -1  -3  11   43.90   15.70
   0   3 -11   47.60   12.80
   0   3 -11   43.90   12.00
   0  -3  11   29.80   16.90
   0  -3  11   24.70    6.90
   0  -3  11   41.60   16.40
   0  -3  11   23.40   10.80
  -1   3 -11   27.20   15.40
  -1   3 -11   32.50   14.50
  -1   3 -11   27.40   12.50
  -1   3 -11   19.00   16.90
  -1   3 -11   34.00   11.60
   1  -3  11   15.40    6.60
   1  -3  11   16.30   14.20
   1  -3  11   27.50   16.00
   1  -3  11   23.30   15.20
  -2   3 -11   34.20   18.80
  -2   3 -11   48.60   18.00
  -2   3 -11   56.49   15.80
  -2   3 -11   26.40   21.70
   2  -3  11   33.30    7.60
   2  -3  11   31.70   16.60
  -3   3 -11   25.90   18.60
  -3   3 -11   41.90   22.30
   3  -3  11    6.10   18.80
   3  -3  11   12.00   19.30
   3  -3  11   -5.40   28.40
  -4   3 -11   39.80   20.00
  -4   3 -11   19.00   34.60
   4  -3  11    6.00   35.20
   4  -3  11   37.90   34.90
   4  -3  11   17.50   25.80
  -5   3 -11   96.89   27.00
  -5   3 -11  140.89   35.60
   5  -3  11   49.10   46.20
   5  -3  11   75.99   35.70
   5  -3  11   75.89   32.50
   5   2 -11   69.49   23.00
   5   2 -11   23.10   12.30
  -5  -2  11    1.20   34.20
   4   2 -11  531.35   27.20
   4   2 -11  531.45   33.60
   4   2 -11  500.25   34.80
  -4  -2  11  495.05   47.00
   3   2 -11   15.20    7.70
   3   2 -11   39.90   18.40
   3   2 -11    6.90   15.60
  -3  -2  11   18.00   15.20
  -3  -2  11    6.30   23.70
  -3  -2  11   -2.20   12.00
  -3  -2  11   47.10   19.50
   2   2 -11  123.99   10.90
   2   2 -11  117.09   15.10
  -2  -2  11  117.79   13.70
  -2  -2  11  142.89   22.40
  -2  -2  11  161.78   25.50
   1   2 -11   40.40    6.80
   1   2 -11   47.90   12.90
   1   2 -11   34.30   12.00
  -1  -2  11   33.30   17.50
  -1  -2  11   36.70    7.00
  -1  -2  11   50.39   15.90
  -1  -2  11   40.90   10.90
   0   2 -11  117.89   18.10
   0   2 -11   92.19   13.80
   0   2 -11  109.29   10.20
   0   2 -11   78.29   15.70
   0  -2  11  101.89   15.60
   0  -2  11   71.09    9.80
   0  -2  11  113.79   17.30
  -1   2 -11  108.69   17.90
  -1   2 -11  107.19   15.00
  -1   2 -11  135.09   12.30
  -1   2 -11  120.99   17.50
   1  -2  11  126.39   10.80
   1  -2  11  146.19   21.30
   1  -2  11  115.59   21.70
   1  -2  11  127.29   19.30
  -2   2 -11  116.09   18.60
  -2   2 -11  137.19   19.90
  -2   2 -11  145.89   24.30
  -2   2 -11  160.38   20.70
   2  -2  11  127.29   16.50
   2  -2  11  146.59   23.40
   2  -2  11  146.79   12.50
  -3   2 -11  108.79   23.60
  -3   2 -11   87.09   19.80
   3  -2  11   90.99   21.00
   3  -2  11   91.89   21.20
  -4   2 -11   16.50   24.60
  -4   2 -11   34.30   32.90
   4  -2  11   -8.00   37.90
   4  -2  11   51.49   25.20
   4  -2  11   77.59   26.50
   5  -2  11  239.78   36.90
   5  -2  11  259.37   52.69
   5  -2  11  373.86   51.29
   6   1 -11   -1.80   20.90
   6   1 -11   13.30   16.20
  -6  -1  11   46.80   43.70
   5   1 -11  134.09   23.90
   5   1 -11  119.69   17.70
  -5  -1  11  117.39   33.00
  -5  -1  11  182.08   35.30
   4   1 -11   67.49   18.60
   4   1 -11  102.29   19.60
   4   1 -11   71.09   10.80
  -4  -1  11  123.89   35.20
  -4  -1  11  108.39   26.50
   3   1 -11   10.90   11.60
   3   1 -11   16.90   12.80
  -3  -1  11    3.70   37.00
  -3  -1  11  -11.00   10.60
  -3  -1  11   10.70   13.80
  -3  -1  11    3.60   18.20
   2   1 -11  100.39   14.90
   2   1 -11  130.19   10.70
   2   1 -11  142.89   20.70
  -2  -1  11  121.79   21.80
  -2  -1  11   95.19   12.80
  -2  -1  11  119.89   16.20
  -2  -1  11  129.39   19.10
   1   1 -11  637.44   32.00
   1   1 -11  701.83   34.40
   1   1 -11  692.43   30.10
   1   1 -11  534.05   36.80
   1   1 -11  560.04   33.70
   1   1 -11  724.43   33.70
  -1  -1  11  621.64   30.30
  -1  -1  11  664.03   32.70
  -1  -1  11  640.04   38.90
  -1  -1  11  716.23   35.70
   0   1 -11  981.00   47.90
   0   1 -11 1038.30   50.89
   0   1 -11 1055.49   46.50
   0   1 -11 1132.49   49.50
   0  -1  11 1021.20   48.60
   0  -1  11 1144.79   51.59
   0  -1  11  969.60   46.00
   0  -1  11 1041.10   51.89
  -1   1 -11  482.75   25.40
  -1   1 -11  438.36   29.60
  -1   1 -11  560.24   29.00
  -1   1 -11  520.35   30.80
   1  -1  11  494.75   30.30
   1  -1  11  479.55   23.80
   1  -1  11  527.05   29.00
   1  -1  11  538.05   31.50
   1  -1  11  451.35   25.60
  -2   1 -11   -8.00   17.00
  -2   1 -11    9.40   13.20
  -2   1 -11   -3.00   18.40
  -2   1 -11    2.60   14.70
   2  -1  11   10.40   18.50
   2  -1  11    2.50    7.50
   2  -1  11  -31.00   19.10
   2  -1  11   13.90   16.90
  -3   1 -11   13.10   19.50
  -3   1 -11    8.90   20.90
  -3   1 -11    1.10   16.90
   3  -1  11  -18.80   31.50
   3  -1  11   29.10   21.00
   3  -1  11   29.50   21.20
  -4   1 -11   14.80   24.30
   4  -1  11   15.60   28.50
   4  -1  11  -17.30   38.60
   4  -1  11   33.00   26.20
   6   0 -11  111.99   29.60
   6   0 -11   27.50   21.00
  -6   0  11   74.49   39.20
   5   0 -11   49.20   22.70
   5   0 -11   21.70   11.10
   5   0 -11  -24.10   20.10
  -5   0  11   22.20   29.80
  -5   0  11   31.50   29.60
   4   0 -11  139.19   17.60
   4   0 -11  213.48   25.80
   4   0 -11  158.68   14.90
   4   0 -11  134.79   20.80
  -4   0  11  153.58   29.70
  -4   0  11  180.48   29.30
   3   0 -11  129.39   18.40
   3   0 -11  165.28   19.80
   3   0 -11  127.99   12.50
   3   0 -11  111.59   17.20
  -3   0  11  138.49   16.60
  -3   0  11  148.89   24.90
  -3   0  11   96.69   12.50
   2   0 -11  243.98   19.30
   2   0 -11  254.27   18.20
   2   0 -11  265.77   14.80
   2   0 -11  238.48   22.40
   2   0 -11  205.58   20.10
  -2   0  11  230.28   16.40
  -2   0  11  270.97   20.60
  -2   0  11  250.57   25.80
  -2   0  11  248.58   28.30
   1   0 -11  452.65   28.60
   1   0 -11  593.24   30.20
   1   0 -11  502.15   27.40
   1   0 -11  444.16   30.10
  -1   0  11  506.85   25.20
  -1   0  11  543.65   33.80
  -1   0  11  522.35   28.60
  -1   0  11  597.64   33.00
   0   0 -11  368.46   22.50
   0   0 -11  305.07   17.60
   0   0 -11  272.37   24.70
   0   0 -11  270.37   22.10
   0   0 -11  281.67   20.00
   0   0  11  280.97   16.50
   0   0  11  358.16   25.90
   0   0  11  310.57   26.20
   0   0  11  274.37   18.30
   0   0  11  287.07   24.20
   0   0  11  325.67   22.30
  -1   0 -11  160.08   16.70
  -1   0 -11  202.38   17.60
  -1   0 -11  226.88   23.60
  -1   0 -11  223.58   20.60
   1   0  11  159.28   13.70
   1   0  11  215.98   22.90
   1   0  11  231.28   23.90
   1   0  11  191.88   21.90
  -2   0 -11    2.60   16.20
  -2   0 -11   -9.80   20.30
  -2   0 -11   22.60   17.70
  -2   0 -11   11.40   14.80
   2   0  11   -5.40   18.00
   2   0  11  -13.40   18.80
   2   0  11   28.60   19.10
   2   0  11    8.70   37.20
  -3   0 -11   30.10   20.60
   3   0  11    3.90   34.30
   3   0  11   -0.50   23.60
   3   0  11   52.79   28.70
   3   0  11  -11.60   21.60
  -4   0 -11  -10.00   27.00
   4   0  11   33.20   27.80
   4   0  11   10.30   28.70
   4   0  11  -30.70   42.10
   6  -1 -11    7.20   29.80
  -6   1  11   40.60   40.50
   5  -1 -11   56.19   16.50
   5  -1 -11   54.29   24.90
  -5   1  11   18.30   31.50
  -5   1  11   84.89   28.70
   4  -1 -11   -2.20   19.60
   4  -1 -11   52.19   31.00
   4  -1 -11   20.40   14.80
  -4   1  11  -18.10   25.50
  -4   1  11   37.00   22.30
  -4   1  11   -1.30   19.00
   3  -1 -11  121.59   18.80
   3  -1 -11  122.09   16.30
   3  -1 -11   92.79   16.50
   3  -1 -11   67.19   15.40
  -3   1  11   96.29   17.40
  -3   1  11  127.19   20.50
   2  -1 -11   57.19   17.60
   2  -1 -11   10.10   12.60
   2  -1 -11   39.40   12.40
   2  -1 -11   15.80   14.70
   2  -1 -11   20.10   12.60
  -2   1  11   22.70   17.90
  -2   1  11   53.29   19.20
  -2   1  11   22.90   13.80
   1  -1 -11   63.69   13.30
   1  -1 -11   62.69   15.30
   1  -1 -11   61.99   13.20
  -1   1  11   60.39   14.60
  -1   1  11   62.29   18.30
  -1   1  11   75.99   18.60
  -1   1  11   60.19   10.20
   0  -1 -11   90.89   17.60
   0  -1 -11   39.80   13.10
   0  -1 -11   50.79    9.80
   0  -1 -11   51.09   14.80
   0   1  11   78.59   17.30
   0   1  11   51.99   18.20
   0   1  11   96.09   18.20
   0   1  11   93.19   16.00
  -1  -1 -11   87.99   18.30
   1   1  11   78.49   13.80
   1   1  11  130.99   19.80
   1   1  11   77.59   19.30
   1   1  11   87.39    9.60
  -2  -1 -11   73.89   21.10
  -2  -1 -11   53.09   18.20
   2   1  11   68.39   22.00
   2   1  11   53.99   30.70
   2   1  11   46.00   20.60
  -3  -1 -11   21.60   23.80
   3   1  11   33.40   25.30
   3   1  11   43.30   36.80
   3   1  11   38.10   28.70
   3   1  11   32.80   25.10
  -4  -1 -11   37.20   19.40
   4   1  11   -1.90   30.40
   4   1  11   23.00   31.90
   4   1  11   47.90   50.19
   6  -2 -11   30.90   23.30
   6  -2 -11   37.20   33.20
  -6   2  11  -41.00   41.50
   5  -2 -11   58.69   26.00
   5  -2 -11   66.69   19.50
   5  -2 -11   55.19   23.00
  -5   2  11  105.49   29.90
   4  -2 -11  118.29   26.50
   4  -2 -11   89.19   22.50
   4  -2 -11  118.69   18.20
  -4   2  11  121.79   21.40
  -4   2  11  200.98   32.50
   3  -2 -11   11.70   17.70
   3  -2 -11    8.10   18.40
   3  -2 -11   11.50   14.10
   3  -2 -11    6.40   18.30
  -3   2  11    9.80   20.40
  -3   2  11    2.50   17.70
  -3   2  11   -9.60   13.10
   2  -2 -11  104.29   20.30
   2  -2 -11  135.49   22.60
  -2   2  11   89.49   17.10
  -2   2  11  102.29   14.50
  -2   2  11  108.39   20.80
   1  -2 -11   56.49   16.00
   1  -2 -11   79.39   14.10
   1  -2 -11   33.80   13.50
  -1   2  11   57.99   15.00
  -1   2  11  110.69   20.70
  -1   2  11   45.30   11.40
   0  -2 -11   93.79   17.00
   0  -2 -11   79.69   17.30
   0   2  11   62.49   20.60
   0   2  11  110.59   17.60
  -1  -2 -11  100.19   18.50
  -1  -2 -11   32.00   20.70
   1   2  11   79.89   29.30
   1   2  11   58.79   21.40
   1   2  11   58.99   21.70
  -2  -2 -11   28.50   20.80
   2   2  11   -0.60   28.70
   2   2  11    3.30   23.80
   2   2  11  -23.90   22.00
   2   2  11  -13.50   33.40
  -3  -2 -11  -21.40   28.20
   3   2  11  -15.80   28.00
   3   2  11  -15.20   26.20
   3   2  11  -34.20   39.90
   6  -3 -11   63.89   35.20
   6  -3 -11   30.60   25.60
  -6   3  11   16.10   43.00
  -6   3  11   28.80   40.00
   5  -3 -11   48.20   28.30
   5  -3 -11   11.80   20.10
   5  -3 -11   11.70   23.60
  -5   3  11   51.29   32.70
  -5   3  11   45.90   31.80
   4  -3 -11   31.00   23.80
   4  -3 -11   61.49   24.20
   4  -3 -11   27.70   17.80
  -4   3  11   23.70   26.00
  -4   3  11   19.10   21.50
  -4   3  11   65.69   26.50
   3  -3 -11  115.19   19.50
   3  -3 -11  120.49   18.30
   3  -3 -11  164.28   26.80
  -3   3  11  136.09   25.90
  -3   3  11   85.49   28.70
  -3   3  11  155.28   25.40
  -3   3  11  100.79   24.50
   2  -3 -11   52.29   17.10
   2  -3 -11   86.89   22.70
  -2   3  11   38.90   25.60
  -2   3  11   83.99   21.50
  -2   3  11   98.39   17.70
  -2   3  11   62.79   22.40
   1  -3 -11   94.29   19.70
  -1   3  11   95.09   21.90
  -1   3  11  128.09   24.70
  -1   3  11  155.28   22.90
   0  -3 -11   99.59   21.40
   0  -3 -11  106.29   35.20
   0   3  11  128.19   27.40
   0   3  11  101.09   26.80
   0   3  11   70.99   22.40
  -1  -3 -11  148.79   23.10
   1   3  11   90.19   26.30
   1   3  11  121.49   32.60
   1   3  11  104.39   34.20
   1   3  11   87.79   25.40
  -2  -3 -11   49.70   24.90
   2   3  11   48.20   27.20
   2   3  11   50.69   26.90
   2   3  11   32.70   39.10
   5  -4 -11  100.19   33.30
   5  -4 -11   68.39   23.20
  -5   4  11   39.20   32.40
  -5   4  11   39.00   40.10
   4  -4 -11   89.09   26.50
  -4   4  11   64.19   31.20
  -4   4  11   85.79   27.60
  -4   4  11  126.19   60.59
  -4   4  11   70.99   29.20
   3  -4 -11  141.79   37.40
   3  -4 -11  173.28   24.00
  -3   4  11  192.98   44.80
  -3   4  11  152.78   25.80
  -3   4  11   88.49   27.70
   2  -4 -11   85.19   26.80
  -2   4  11   82.09   28.10
  -2   4  11   55.99   20.40
  -2   4  11   52.39   24.50
  -2   4  11    7.30   26.80
   1  -4 -11   18.70   22.70
  -1   4  11   15.50   22.20
  -1   4  11   48.10   35.50
  -1   4  11   23.50   27.90
  -1   4  11   -1.90   22.10
   0  -4 -11  121.49   24.70
   0   4  11   71.79   23.20
   0   4  11   46.60   25.40
   0   4  11   52.09   34.80
   0   4  11   59.49   27.10
  -1  -4 -11  -23.50   25.40
   1   4  11  -26.40   26.80
   1   4  11   23.80   39.90
   2   4  11   73.39   30.90
   2   4  11   31.70   48.50
   5  -5 -11  -16.80   48.50
  -5   5  11  -20.60   45.80
  -5   5  11   54.39   39.90
  -5   5  11   64.09   43.20
   4  -5 -11  111.89   27.80
  -4   5  11  101.49   32.50
  -4   5  11  105.19   31.20
  -4   5  11  158.38   39.90
  -4   5  11   60.49   35.20
   3  -5 -11  -21.00   26.20
  -3   5  11   32.00   30.80
  -3   5  11   44.40   33.40
  -3   5  11   11.60   27.10
  -3   5  11   40.50   27.20
  -2   5  11   21.90   30.20
  -2   5  11   12.40   28.20
  -2   5  11    9.60   24.00
  -2   5  11   31.70   27.30
   1  -5 -11   42.10   26.50
  -1   5  11    7.90   29.80
  -1   5  11   37.20   27.00
   0   5  11   30.80   43.50
   0   5  11   22.30   28.80
   1   5  11   42.20   49.90
   1   5  11  -28.90   31.20
  -4   6  11  -38.30   43.00
  -4   6  11   29.80   39.10
  -4   6  11  -51.39   42.80
  -3   6  11    2.40   37.90
  -3   6  11  -49.10   33.10
  -3   6  11   72.29   39.30
  -2   6  11  -70.09   50.69
  -2   6  11   30.80   36.40
  -2   6  11   -9.60   35.60
  -1   6  11  -32.40   50.89
  -1   6  11   28.90   36.40
  -1  -7  12  135.59   33.60
  -2   7 -12   67.99   24.20
  -3   7 -12   31.40   29.00
  -3  -6  12  111.99   40.50
  -2  -6  12   56.49   30.50
  -1  -6  12   14.50   26.80
   0   6 -12   59.19   29.00
   0  -6  12   36.50   24.00
  -1   6 -12   23.80   19.00
  -1   6 -12   20.10   18.00
  -2   6 -12    7.70   20.90
  -2   6 -12  -45.40   22.50
   2  -6  12   16.90   22.40
  -3   6 -12   25.90   25.20
   3  -6  12    8.10   26.10
  -4   6 -12   96.59   25.20
  -4   6 -12   56.99   34.00
  -3  -5  12  -30.40   32.80
  -2  -5  12   32.20   27.70
  -1  -5  12   15.40   23.50
   0   5 -12  -11.20   16.00
   0   5 -12   11.00   15.30
   0  -5  12   11.30   22.90
  -1   5 -12   46.90   17.50
  -1   5 -12   68.69   19.20
  -1   5 -12   40.30   24.20
   1  -5  12   46.90   19.40
  -2   5 -12   15.30   19.90
  -2   5 -12   38.70   27.10
  -2   5 -12   18.60   16.60
  -2   5 -12   28.60   21.60
   2  -5  12   -2.40   22.70
  -3   5 -12  254.77   41.50
  -3   5 -12  169.08   27.50
  -3   5 -12   74.39   37.10
  -3   5 -12  169.48   24.90
   3  -5  12  209.58   34.50
  -4   5 -12   -3.20   30.10
  -4   5 -12   61.49   22.80
   4  -5  12   48.50   29.60
   4   4 -12   13.70   13.00
  -4  -4  12   87.39   37.90
   3   4 -12   16.40    9.60
  -3  -4  12   38.60   29.90
   2   4 -12   30.20    8.60
   2   4 -12   54.59   16.30
   2   4 -12   13.30   19.40
  -2  -4  12   44.90   26.20
   1   4 -12   54.99   15.30
   1   4 -12   49.50    8.30
   1   4 -12   58.39   15.80
  -1  -4  12   56.59   23.10
  -1  -4  12   61.29   14.40
   0   4 -12  107.39   17.00
   0   4 -12   65.29   10.10
   0   4 -12   52.09   23.20
   0   4 -12   97.39   15.40
   0  -4  12   93.69   40.60
   0  -4  12   90.09   19.30
  -1   4 -12   -3.10    8.60
  -1   4 -12   23.00   16.20
  -1   4 -12   14.10   17.10
  -1   4 -12  -24.80   20.90
   1  -4  12   48.90   20.30
  -2   4 -12   23.30   20.30
  -2   4 -12   -6.90   18.30
  -2   4 -12   35.00   15.20
  -2   4 -12   23.00   22.70
   2  -4  12   24.20   20.80
  -3   4 -12    4.70   26.50
  -3   4 -12   24.80   23.10
  -3   4 -12  -19.40   18.20
   3  -4  12   43.60   23.50
  -4   4 -12   58.39   22.20
  -4   4 -12   27.80   29.80
  -4   4 -12  105.59   35.80
   4  -4  12  -22.60   26.50
   5   3 -12    1.30   15.40
  -5  -3  12  -27.30   42.70
  -4  -3  12   12.90   33.80
   3   3 -12   34.70   15.60
   3   3 -12   46.90    9.90
   3   3 -12   34.20   23.40
  -3  -3  12   52.59   27.80
   2   3 -12   69.39    8.90
   2   3 -12   38.30   16.80
   2   3 -12   88.39   17.00
  -2  -3  12   92.09   25.10
  -2  -3  12   90.59   26.70
   1   3 -12   20.80   15.00
   1   3 -12   36.80   15.80
   1   3 -12   36.20    8.10
   1   3 -12   24.90   22.00
  -1  -3  12   58.19   26.10
  -1  -3  12   29.10   13.00
  -1  -3  12   38.10   18.30
  -1  -3  12   20.90    9.00
   0   3 -12  244.68   23.00
   0   3 -12  144.39   25.90
   0  -3  12  211.88   25.50
   0  -3  12  188.78   15.60
   0  -3  12  225.18   27.40
   0  -3  12  184.78   20.00
  -1   3 -12   55.39    9.50
  -1   3 -12   85.99   20.30
  -1   3 -12   69.09   17.50
   1  -3  12   76.99   15.80
   1  -3  12   92.09   20.20
   1  -3  12   53.79    8.80
   1  -3  12   90.59   18.90
  -2   3 -12    7.80   10.60
  -2   3 -12    5.40   20.50
  -2   3 -12   -2.30   14.70
   2  -3  12   13.80   19.40
   2  -3  12    6.20   21.90
  -3   3 -12   26.80   18.40
  -3   3 -12  -13.80   26.80
  -3   3 -12   27.10   25.70
   3  -3  12   37.70   23.90
   3  -3  12   -0.60   22.30
  -4   3 -12   34.50   29.50
  -4   3 -12    8.40   34.50
  -4   3 -12   36.00   22.00
   4  -3  12    7.50   30.40
   4  -3  12  -44.30   41.80
   4  -3  12   46.90   28.30
   5   2 -12  186.58   21.80
   5   2 -12  166.88   29.20
  -5  -2  12  187.68   41.60
   4   2 -12  149.39   25.20
   4   2 -12  159.28   17.10
   4   2 -12  190.98   28.20
  -4  -2  12  146.89   34.90
  -4  -2  12  122.39   33.20
   3   2 -12   81.29   16.10
   3   2 -12   63.09   21.00
   3   2 -12   72.19   10.10
  -3  -2  12   64.39   27.00
  -3  -2  12  119.29   23.10
   2   2 -12   12.70   15.20
   2   2 -12    7.60    7.10
  -2  -2  12   24.50   13.10
  -2  -2  12    8.20   24.30
  -2  -2  12  -16.00   23.00
  -2  -2  12    1.90    9.90
   1   2 -12  129.39   20.60
   1   2 -12  118.19   16.70
  -1  -2  12  106.29   22.10
  -1  -2  12   96.69   12.80
  -1  -2  12  100.19   14.50
  -1  -2  12  123.89   20.10
   0   2 -12  136.59   22.40
   0   2 -12   78.79   15.70
   0  -2  12   85.39   14.20
   0  -2  12   94.59   19.10
  -1   2 -12   16.90   15.40
  -1   2 -12  -14.70   18.90
  -1   2 -12   -2.70    9.00
  -1   2 -12   -6.80   12.80
  -1   2 -12   27.70   17.50
   1  -2  12   -9.60   18.30
   1  -2  12    0.90   15.40
   1  -2  12   -2.90    7.10
   1  -2  12   10.60   17.60
  -2   2 -12   78.29   18.60
  -2   2 -12   22.70   19.90
  -2   2 -12   62.09   11.90
  -2   2 -12   58.19   15.40
   2  -2  12   50.49   20.60
   2  -2  12   62.69   26.10
   2  -2  12   38.20   22.20
  -3   2 -12   -0.90   23.30
  -3   2 -12   -7.80   22.60
  -3   2 -12   11.00   18.60
   3  -2  12  -14.20   23.60
   3  -2  12   49.99   23.50
  -4   2 -12  213.08   31.00
   4  -2  12   78.09   43.70
   4  -2  12  132.09   30.20
   4  -2  12  156.98   32.70
   5   1 -12  239.88   23.00
   5   1 -12  256.87   33.50
  -5  -1  12  232.98   41.10
   4   1 -12   39.60   21.50
   4   1 -12   30.20   10.10
   4   1 -12   63.19   21.10
  -4  -1  12   -6.20   27.90
  -4  -1  12   68.39   25.00
   3   1 -12   63.09   19.10
   3   1 -12   -2.90   15.20
   3   1 -12    9.80    8.10
  -3  -1  12   39.20   25.30
  -3  -1  12   25.90   22.40
   2   1 -12  -27.70   15.40
   2   1 -12    2.40    8.00
  -2  -1  12   -6.00   14.20
  -2  -1  12  -18.50   22.40
  -2  -1  12   -5.70    8.60
  -2  -1  12    2.60   20.80
   1   1 -12   39.10   13.50
   1   1 -12   26.90   19.70
   1   1 -12   66.99   15.70
   1   1 -12   54.89   16.00
  -1  -1  12   68.89   18.60
  -1  -1  12   62.19   13.70
  -1  -1  12   36.60    8.30
  -1  -1  12   45.10   19.40
   0   1 -12  277.47   25.20
   0   1 -12  379.06   25.00
   0   1 -12  305.17   27.00
   0  -1  12  315.37   23.50
   0  -1  12  291.67   28.40
   0  -1  12  258.17   17.10
  -1   1 -12    3.40   15.80
  -1   1 -12   20.40   23.00
  -1   1 -12   24.50   19.60
  -1   1 -12  -14.30   13.30
  -1   1 -12    0.60    9.90
  -1   1 -12    0.70   18.00
   1  -1  12    2.70   13.30
   1  -1  12  -20.50   18.50
   1  -1  12    5.20    7.40
   1  -1  12  -34.00   17.10
   1  -1  12    8.10   15.70
  -2   1 -12  163.58   25.50
  -2   1 -12  141.29   23.40
   2  -1  12  172.08   23.50
   2  -1  12  160.28   23.50
   2  -1  12  172.28   24.50
  -3   1 -12    5.70   23.50
  -3   1 -12  -20.50   28.80
   3  -1  12  120.79   36.10
   3  -1  12   -0.30   39.40
   3  -1  12   64.89   24.50
   4  -1  12  135.79   33.60
   4  -1  12  123.29   48.40
   4  -1  12  127.59   34.20
   5   0 -12  -13.20   25.40
  -5   0  12   42.30   33.60
  -5   0  12   78.99   31.10
   4   0 -12   33.40   22.00
   4   0 -12   12.50    9.70
   4   0 -12   32.00   22.40
  -4   0  12   27.40   25.00
  -4   0  12   45.10   26.60
   3   0 -12    6.10   13.70
   3   0 -12   11.90   18.70
   3   0 -12    8.30    8.00
  -3   0  12   28.80   23.70
  -3   0  12   51.19   21.80
  -3   0  12    6.60   18.10
  -3   0  12   30.70   23.60
   2   0 -12   15.10   27.10
   2   0 -12   17.60   14.50
   2   0 -12    7.30   14.80
  -2   0  12   -2.60   21.10
  -2   0  12   33.80   19.60
  -2   0  12   22.40   14.80
  -2   0  12   -0.20    8.70
   1   0 -12  493.05   28.90
   1   0 -12  438.86   25.50
   1   0 -12  419.46   30.20
  -1   0  12  483.35   31.90
  -1   0  12  422.06   32.60
  -1   0  12  376.16   22.50
  -1   0  12  412.96   27.40
   0   0 -12  343.97   30.30
   0   0 -12  466.15   30.30
   0   0 -12  476.15   28.50
   0   0 -12  395.26   26.20
   0   0  12  370.46   31.30
   0   0  12  445.86   32.40
   0   0  12  389.16   28.10
  -1   0 -12   -8.40   16.00
  -1   0 -12  -16.40   10.80
  -1   0 -12    7.70   18.80
  -1   0 -12   -7.50   13.50
   1   0  12  -12.70   19.00
   1   0  12  -25.50   19.80
   1   0  12   12.10   17.80
  -2   0 -12   34.40   22.00
  -2   0 -12   -5.00   19.20
   2   0  12   -5.30   22.50
   2   0  12    8.20   23.70
   2   0  12   25.20   34.60
   2   0  12   45.80   23.50
  -3   0 -12    7.90   24.10
   3   0  12  -21.50   27.50
   3   0  12    5.40   30.00
   3   0  12  -16.60   39.70
   3   0  12  -17.50   26.10
  -4   0 -12   -5.00   33.90
   4   0  12  -34.90   35.10
   4   0  12  -20.80   52.49
   4   0  12  -24.30   35.10
   5  -1 -12   23.30   26.90
   5  -1 -12   39.10   20.30
  -5   1  12   33.30   34.90
  -5   1  12   88.59   33.40
   4  -1 -12   18.30   23.20
   4  -1 -12   30.00   22.50
   4  -1 -12   -2.60   16.40
  -4   1  12   47.90   25.80
  -4   1  12   26.90   28.60
   3  -1 -12    0.20   15.20
   3  -1 -12   12.90   17.00
   3  -1 -12   30.90   22.10
  -3   1  12   15.30   22.40
  -3   1  12   11.10   24.00
  -3   1  12   -4.10   19.50
   2  -1 -12   66.69   19.20
   2  -1 -12   62.89   21.80
   2  -1 -12   58.19   15.40
   2  -1 -12   51.69   17.30
   2  -1 -12   35.80   16.00
  -2   1  12   86.69   17.40
  -2   1  12  111.59   24.50
  -2   1  12   35.80   22.60
   1  -1 -12  166.48   18.80
   1  -1 -12  167.78   21.50
   1  -1 -12  180.08   21.20
   1  -1 -12  220.98   26.20
  -1   1  12  183.48   23.40
  -1   1  12  173.78   25.90
  -1   1  12  202.98   27.70
   0  -1 -12  123.59   16.50
   0  -1 -12  139.39   19.40
   0  -1 -12  210.38   23.30
   0   1  12  181.88   25.20
   0   1  12  163.78   23.10
   0   1  12  128.49   14.40
   0   1  12  197.98   23.90
  -1  -1 -12  -15.20   21.50
  -1  -1 -12   47.50   18.40
   1   1  12   25.30   21.80
   1   1  12    6.80   19.60
   1   1  12   32.20   22.90
  -2  -1 -12   59.49   21.20
   2   1  12   25.20   24.20
   2   1  12  -10.80   26.10
   2   1  12   12.00   37.20
   2   1  12   60.29   25.60
  -3  -1 -12   -4.10   28.90
   3   1  12   33.70   29.80
   3   1  12   -8.90   30.80
   3   1  12   15.10   42.50
   5  -2 -12   59.59   30.10
   5  -2 -12   17.00   34.10
   5  -2 -12   49.80   20.90
  -5   2  12  107.99   35.90
   4  -2 -12   70.19   24.70
   4  -2 -12   51.29   26.80
   4  -2 -12   66.49   18.30
  -4   2  12   76.39   28.10
  -4   2  12   83.79   30.20
   3  -2 -12   21.40   19.60
   3  -2 -12  -13.50   17.00
   3  -2 -12   12.20   22.10
  -3   2  12  -19.80   24.30
  -3   2  12  -44.10   20.30
  -3   2  12    5.00   24.40
   2  -2 -12   97.49   24.50
   2  -2 -12   69.19   17.60
   2  -2 -12   40.60   19.60
  -2   2  12   59.69   23.00
  -2   2  12   78.79   18.80
  -2   2  12  117.59   25.90
   1  -2 -12   31.50   19.20
   1  -2 -12   15.70   18.20
   1  -2 -12   18.90   16.40
  -1   2  12   45.90   22.80
  -1   2  12    5.10   17.00
  -1   2  12   75.29   21.70
  -1   2  12   16.80   20.70
   0  -2 -12   -5.80   12.60
   0  -2 -12   87.29   21.70
   0  -2 -12   60.49   20.00
   0   2  12   32.40   20.00
   0   2  12   41.20   23.30
   0   2  12   39.20   26.60
  -1  -2 -12   28.90   21.40
   1   2  12   22.30   25.40
   1   2  12  -11.40   21.70
   1   2  12   59.19   35.60
   1   2  12    0.90   22.70
  -2  -2 -12    0.00   25.90
   2   2  12  -31.70   39.70
   2   2  12   58.19   29.20
   3   2  12  -17.40   34.80
   3   2  12    0.90   51.69
   3   2  12    9.50   31.90
   5  -3 -12   68.29   24.00
   5  -3 -12  -51.09   27.60
   5  -3 -12   19.80   32.30
  -5   3  12   41.00   38.30
   4  -3 -12   15.10   19.50
   4  -3 -12   65.39   29.30
  -4   3  12  -18.20   35.70
  -4   3  12   53.69   46.80
  -4   3  12   -8.60   30.40
  -4   3  12    9.10   29.60
   3  -3 -12   64.19   22.90
   3  -3 -12   35.80   24.60
  -3   3  12   17.10   28.50
  -3   3  12   32.90   26.00
  -3   3  12   47.70   22.40
   2  -3 -12   -8.50   20.40
  -2   3  12   15.20   24.10
  -2   3  12   37.60   20.20
  -2   3  12   41.40   32.60
   1  -3 -12   76.99   22.10
  -1   3  12   47.40   23.10
  -1   3  12   30.70   19.50
  -1   3  12   38.10   27.40
  -1   3  12   32.80   29.90
   0  -3 -12  161.78   25.60
   0   3  12  129.29   27.00
   0   3  12  162.98   24.10
   0   3  12  165.58   29.40
  -1  -3 -12  -14.60   26.40
   1   3  12   40.50   39.80
   1   3  12   68.99   29.00
   2   3  12   48.40   32.30
   2   3  12   24.20   31.70
   2   3  12  -17.10   49.90
   5  -4 -12   54.79   38.20
   5  -4 -12   43.60   26.80
  -5   4  12   86.39   45.60
  -5   4  12   67.29   39.50
  -5   4  12   30.80   46.20
   4  -4 -12   43.30   22.80
   4  -4 -12   26.10   39.10
  -4   4  12   16.50   36.60
  -4   4  12   47.00   31.00
  -4   4  12   25.20   31.80
  -4   4  12  -15.10   36.60
   3  -4 -12  -34.60   21.20
   3  -4 -12   32.70   28.60
  -3   4  12  -24.50   31.70
  -3   4  12  -42.80   34.10
  -3   4  12  -30.60   25.10
  -3   4  12  -25.20   27.80
  -2   4  12   46.30   24.80
  -2   4  12   55.99   29.10
  -2   4  12  117.19   33.90
  -2   4  12   80.49   31.80
   1  -4 -12   96.19   26.90
  -1   4  12   86.19   27.10
  -1   4  12   74.19   24.40
  -1   4  12  172.48   33.30
   0  -4 -12   68.19   30.40
   0   4  12   58.59   31.30
   0   4  12  -14.40   43.70
   0   4  12  117.59   31.10
   1   4  12   27.20   47.80
   1   4  12  -65.09   31.30
   4  -5 -12  115.29   35.60
  -4   5  12   91.69   42.30
  -4   5  12  128.89   40.50
  -4   5  12   58.69   44.50
   3  -5 -12   31.40   40.00
  -3   5  12    4.80   40.60
  -3   5  12    6.20   36.30
  -3   5  12   -2.10   33.40
  -2   5  12    7.40   35.90
  -2   5  12   19.00   30.90
  -2   5  12   -0.30   33.30
  -1   5  12   58.49   39.70
  -1   5  12   69.59   32.20
   0   5  12   25.20   35.80
   0   5  12    8.30   36.90
  -1  -7  13   99.69   37.90
  -2   7 -13    8.30   28.60
  -2  -6  13  148.29   38.50
  -1  -6  13   -2.30   29.50
   0  -6  13   -9.20   27.80
  -1   6 -13   49.30   22.30
  -2   6 -13   62.69   25.30
  -3   6 -13   92.39   29.70
   3   5 -13   -1.90   11.50
  -3  -5  13  -12.90   39.30
  -2  -5  13    3.30   31.00
  -1  -5  13   72.99   28.50
   0   5 -13    1.80   19.80
   0   5 -13   21.40   17.80
   0  -5  13   38.70   26.80
  -1   5 -13   16.30   20.50
  -1   5 -13   71.79   21.90
   1  -5  13   43.90   37.80
  -2   5 -13   14.00   46.10
  -2   5 -13   11.80   18.80
  -2   5 -13   44.10   34.70
  -2   5 -13   28.00   23.20
   2  -5  13   25.00   26.60
  -3   5 -13   51.89   29.10
   3  -5  13   17.00   31.00
   4   4 -13   15.50   14.50
  -4  -4  13   -5.50   43.10
   3   4 -13   21.00   10.70
  -3  -4  13    3.40   32.40
   2   4 -13   34.20    9.50
   2   4 -13   41.70   17.80
   2   4 -13   27.60   17.50
  -2  -4  13   24.40   27.40
   1   4 -13   42.60   23.50
   1   4 -13   91.79   18.20
   1   4 -13   44.50    9.30
  -1  -4  13   43.10   27.10
   0   4 -13   37.90    9.20
   0   4 -13   42.10   19.70
   0   4 -13   59.09   18.20
   0  -4  13   40.60   35.90
   0  -4  13   50.59   24.80
  -1   4 -13    5.70   20.70
  -1   4 -13   13.40   19.50
   1  -4  13  -37.90   21.80
  -2   4 -13   -0.60   30.50
  -2   4 -13  -20.60   21.80
   2  -4  13  -34.20   23.60
  -3   4 -13  -32.80   34.40
  -3   4 -13   10.60   21.90
  -3   4 -13   10.50   27.00
   3  -4  13  -22.20   28.80
  -4   4 -13   28.70   32.90
  -4   4 -13   48.80   28.30
   4  -4  13   21.40   34.60
   4   3 -13    1.20   13.30
  -4  -3  13   -2.80   36.80
   3   3 -13   48.90   20.30
   3   3 -13   44.30   10.70
  -3  -3  13   64.49   32.40
   2   3 -13   30.00   18.50
   2   3 -13   40.40   18.20
   2   3 -13   27.30    9.00
  -2  -3  13   18.20   23.60
  -2  -3  13   81.39   29.20
   1   3 -13   36.60   18.40
   1   3 -13   34.00    9.00
   1   3 -13   57.39   17.60
  -1  -3  13   18.90   23.50
  -1  -3  13  101.59   29.10
   0   3 -13   72.29   17.30
   0   3 -13   87.39   19.50
   0  -3  13   16.40   26.30
   0  -3  13   67.39   22.30
  -1   3 -13    9.20    9.50
  -1   3 -13   27.00   18.90
  -1   3 -13   59.99   34.70
  -1   3 -13   20.00   15.20
   1  -3  13   35.30   22.10
   1  -3  13    2.30   21.30
  -2   3 -13  -15.00   22.00
  -2   3 -13    5.00   16.10
  -2   3 -13    8.80   12.00
  -2   3 -13   14.80   24.10
   2  -3  13  -38.20   23.30
  -3   3 -13   63.29   30.20
  -3   3 -13   64.89   27.40
  -3   3 -13   39.10   21.60
   3  -3  13   59.09   26.50
  -4   3 -13   22.50   27.50
  -4   3 -13   13.60   35.70
   4  -3  13   58.39   36.50
   4   2 -13  -33.90   25.80
   4   2 -13   11.80   11.80
  -4  -2  13   71.79   33.80
   3   2 -13   92.59   18.80
   3   2 -13   81.79   10.50
  -3  -2  13   89.99   29.30
   2   2 -13   53.29   18.90
   2   2 -13   68.89   10.00
   2   2 -13  122.19   19.90
  -2  -2  13  128.09   24.60
  -2  -2  13   56.79   26.90
   1   2 -13   26.90    8.90
   1   2 -13   28.20   14.40
   1   2 -13   52.29   17.10
   1   2 -13   34.40   18.40
  -1  -2  13   23.30   28.40
  -1  -2  13   44.70   23.60
   0   2 -13  -11.70    9.10
   0   2 -13   13.90   32.30
   0   2 -13   -7.00   14.00
   0  -2  13  -20.10   20.20
   0  -2  13   17.70   17.70
   0  -2  13    0.40   20.60
  -1   2 -13   26.50   11.00
  -1   2 -13   45.90   21.20
  -1   2 -13    6.00   14.90
   1  -2  13   27.40   20.90
   1  -2  13   25.90   21.50
   1  -2  13   25.30   19.80
  -2   2 -13   11.20   16.80
  -2   2 -13  -23.20   23.80
   2  -2  13    0.40   23.30
   2  -2  13   26.70   27.60
  -3   2 -13   87.79   30.70
  -3   2 -13   52.19   23.70
  -3   2 -13   78.59   28.90
   3  -2  13   64.99   28.50
   3  -2  13   60.49   29.40
   4  -2  13  186.88   40.40
   5   1 -13   69.99   30.70
   5   1 -13   51.09   16.00
  -5  -1  13   33.40   45.00
   4   1 -13   -3.40   10.70
   4   1 -13    1.00   25.10
  -4  -1  13    8.20   30.30
  -4  -1  13  -56.69   33.10
   3   1 -13  -14.60   16.70
   3   1 -13  -26.10   18.60
   3   1 -13    9.80    9.20
   3   1 -13   -1.20   25.90
  -3  -1  13   42.20   29.30
  -3  -1  13   46.60   26.00
   2   1 -13   49.30    9.30
   2   1 -13   54.69   19.60
  -2  -1  13   69.59   24.40
  -2  -1  13   43.10   25.90
   1   1 -13   30.20   25.10
   1   1 -13   28.90   14.90
   1   1 -13   45.20    9.20
   1   1 -13   39.30   29.90
  -1  -1  13   21.50   22.00
  -1  -1  13   58.79   17.10
   0   1 -13   24.80   18.90
   0   1 -13    1.20   15.20
   0   1 -13   20.80   19.40
   0   1 -13    9.10    9.60
   0  -1  13   14.50   21.40
   0  -1  13  -27.10   20.40
   0  -1  13   -5.70   17.90
  -1   1 -13   69.49   19.60
  -1   1 -13   17.30   11.70
  -1   1 -13   -7.80   15.40
  -1   1 -13   17.40   22.20
   1  -1  13   21.60   22.90
   1  -1  13   23.60   19.60
   1  -1  13   47.00   23.90
  -2   1 -13    0.70   21.90
  -2   1 -13  -18.20   24.00
   2  -1  13   17.30   25.20
   2  -1  13   -3.10   24.20
   2  -1  13   22.30   26.00
  -3   1 -13  160.68   35.90
   3  -1  13  187.28   31.70
   3  -1  13  272.87   45.40
   3  -1  13  313.47   50.19
   3  -1  13  201.98   33.70
   5   0 -13   30.90   30.50
   5   0 -13   22.50   13.90
  -5   0  13   28.00   40.80
   4   0 -13   16.70   29.80
   4   0 -13   41.50   10.60
   4   0 -13   12.30   18.80
   4   0 -13    8.90   25.50
  -4   0  13   99.59   31.00
  -4   0  13   10.40   31.90
   3   0 -13  -10.10   16.00
   3   0 -13    1.30    9.50
   3   0 -13   19.20   25.60
   3   0 -13    2.70   20.00
  -3   0  13   34.70   29.10
  -3   0  13    5.50   26.80
   2   0 -13  111.09   18.50
   2   0 -13  142.39   21.70
  -2   0  13  147.49   26.40
  -2   0  13  144.69   27.20
  -2   0  13  117.19   19.80
   1   0 -13  139.29   19.30
   1   0 -13  142.29   15.20
   1   0 -13  151.28   21.40
   1   0 -13  182.18   25.50
  -1   0  13  145.09   20.30
  -1   0  13  146.09   25.90
   0   0 -13  187.38   22.60
   0   0 -13  226.88   31.80
   0   0 -13  207.38   27.90
   0   0 -13  218.48   18.70
   0   0  13  244.98   26.40
   0   0  13  243.98   29.70
   0   0  13  226.78   29.30
   0   0  13  275.47   31.60
  -1   0 -13   35.80   13.50
  -1   0 -13   31.10   17.60
  -1   0 -13   70.49   24.10
  -1   0 -13   49.70   21.20
   1   0  13   47.60   25.40
   1   0  13   58.59   21.60
   1   0  13   26.80   25.90
  -2   0 -13  -20.00   23.70
   2   0  13  -15.90   28.40
   2   0  13   28.40   25.80
   2   0  13   11.10   26.10
  -3   0 -13   90.29   31.90
   3   0  13   43.90   34.10
   3   0  13  124.59   51.49
   3   0  13   30.00   33.30
   5  -1 -13   18.70   33.00
   5  -1 -13   11.30   23.20
  -5   1  13  187.68   54.19
  -5   1  13   16.50   41.70
   4  -1 -13   14.50   28.10
   4  -1 -13  -13.50   18.20
  -4   1  13   -0.40   32.60
  -4   1  13   63.09   30.20
   3  -1 -13   15.20    9.90
   3  -1 -13  -18.20   20.30
   3  -1 -13  -25.00   27.70
   3  -1 -13  -12.10   17.60
  -3   1  13   12.80   28.70
  -3   1  13   72.69   27.50
   2  -1 -13  152.18   22.20
   2  -1 -13  196.18   29.20
  -2   1  13  193.98   35.10
  -2   1  13  159.48   27.30
  -2   1  13  269.07   35.30
  -2   1  13  213.38   31.50
   1  -1 -13  448.96   34.30
   1  -1 -13  538.55   33.70
   1  -1 -13  390.06   28.50
  -1   1  13  436.46   36.90
  -1   1  13  376.26   36.60
  -1   1  13  417.66   31.00
   0  -1 -13   22.90   20.50
   0  -1 -13   -4.00   21.10
   0  -1 -13  -39.00   16.90
   0   1  13  -32.00   25.50
   0   1  13    4.60   22.00
   0   1  13   17.00   24.60
  -1  -1 -13   60.79   22.90
   1   1  13   70.49   23.30
   1   1  13    7.80   32.00
   1   1  13   35.60   24.80
  -2  -1 -13    9.10   25.70
   2   1  13   55.19   30.50
   2   1  13   -2.40   28.70
   2   1  13   67.99   32.70
   5  -2 -13    0.30   25.90
   5  -2 -13   12.40   35.70
  -5   2  13   37.30   42.10
  -5   2  13   76.99   40.50
   4  -2 -13   49.80   30.70
   4  -2 -13  -11.50   20.00
  -4   2  13  -51.79   32.50
  -4   2  13    6.30   31.50
   3  -2 -13   50.49   36.80
  -3   2  13   10.40   32.90
  -3   2  13    0.30   31.00
  -3   2  13   66.19   30.60
   2  -2 -13  142.59   25.00
  -2   2  13  208.48   31.00
  -2   2  13  191.48   31.40
  -2   2  13  295.17   38.50
  -2   2  13  181.78   28.50
   1  -2 -13   30.20   19.50
   1  -2 -13   61.59   22.20
   1  -2 -13  -34.80   21.80
  -1   2  13   -3.10   29.60
  -1   2  13  -12.30   20.70
  -1   2  13   49.80   25.60
  -1   2  13   -3.90   26.10
   0  -2 -13   -6.70   23.90
   0   2  13    0.20   23.80
   0   2  13   17.80   30.70
   0   2  13    9.10   26.10
  -1  -2 -13   48.60   26.70
   1   2  13   37.70   27.90
   1   2  13   55.39   46.30
   1   2  13   57.39   31.20
   1   2  13   90.89   27.80
  -2  -2 -13   15.30   34.20
   2   2  13   67.19   52.09
   2   2  13  -13.70   35.80
   4  -3 -13   -7.00   32.20
   4  -3 -13  -11.20   22.40
  -4   3  13  -19.40   33.90
   3  -3 -13  -13.90   21.80
   3  -3 -13   15.90   38.30
  -3   3  13  -31.90   29.90
  -3   3  13   18.10   28.30
  -3   3  13    5.50   35.10
  -3   3  13  -30.00   52.59
  -2   3  13    9.50   28.40
  -2   3  13   32.50   32.90
  -2   3  13    8.00   23.30
  -2   3  13   99.19   34.30
   1  -3 -13   23.90   25.80
  -1   3  13   67.79   33.10
  -1   3  13   39.70   26.60
  -1   3  13   38.10   28.80
  -1   3  13   66.69   24.20
   0  -3 -13   58.19   29.80
   0   3  13   62.39   46.30
   0   3  13   49.80   31.20
   0   3  13   52.89   41.40
   0   3  13   59.99   34.40
  -1  -3 -13   43.70   37.10
   1   3  13   -8.20   31.10
   1   3  13   14.10   34.80
   4  -4 -13   11.50   36.00
  -4   4  13  -71.69   45.20
  -4   4  13   29.30   39.20
  -4   4  13  -49.99   44.30
   3  -4 -13  -74.69   37.70
  -3   4  13   34.40   39.80
  -3   4  13   29.10   34.30
  -3   4  13   61.89   41.20
  -3   4  13  -78.99   38.80
  -2   4  13   32.80   31.80
  -2   4  13   40.90   37.80
  -2   4  13   39.50   34.30
   1  -4 -13  262.17   43.30
  -1   4  13  126.39   33.80
  -1   4  13  188.58   38.30
   0   4  13   22.60   38.50
   0   4  13  101.59   53.49
   0   4  13   56.09   36.60
  -1  -6  14   18.30   34.70
   0   6 -14   76.89   25.20
   0  -6  14  -37.10   30.70
  -1   6 -14   21.40   27.00
  -2   6 -14   67.69   30.20
   2   5 -14    6.40   11.50
  -2  -5  14    0.70   35.80
   1   5 -14   41.40   21.10
   1   5 -14   12.60   10.50
  -1  -5  14   83.19   33.80
   0   5 -14    7.20   10.60
   0   5 -14   18.90   22.40
   0  -5  14  -22.00   29.10
  -1   5 -14   27.30   11.80
  -1   5 -14   53.49   24.30
  -2   5 -14   29.30   27.30
  -3   5 -14   -3.90   33.40
  -3   5 -14   29.10   27.00
   3   4 -14   16.00   11.80
  -3  -4  14   27.50   39.90
   2   4 -14  -13.60   10.40
   2   4 -14    6.70   21.40
  -2  -4  14  -29.20   31.10
   1   4 -14   10.40   20.90
   1   4 -14   45.50   34.40
   1   4 -14   24.40    9.80
  -1  -4  14   63.79   32.00
   0   4 -14  -18.70   23.60
   0   4 -14   13.00    9.90
   0   4 -14   25.00   20.50
   0  -4  14   27.00   28.50
   0  -4  14   36.70   26.30
  -1   4 -14   -3.90   28.40
  -1   4 -14    4.90   11.10
  -1   4 -14   14.50   23.40
   1  -4  14   -5.10   26.60
   1  -4  14  -23.00   26.50
  -2   4 -14   88.99   21.80
  -2   4 -14  113.69   27.50
   2  -4  14   86.19   30.50
  -3   4 -14   72.99   32.80
  -3   4 -14   69.79   27.30
   3  -4  14   79.89   36.00
   4   3 -14    3.50   14.40
  -4  -3  14   38.60   46.40
   3   3 -14   33.90   23.90
  -3  -3  14   43.60   35.40
   2   3 -14   42.30   21.40
   2   3 -14   29.40   26.40
   2   3 -14   19.20   10.30
  -2  -3  14    7.10   33.60
  -2  -3  14   34.30   32.60
   1   3 -14   99.19   21.50
   1   3 -14   76.89   11.20
  -1  -3  14  122.29   28.10
  -1  -3  14   81.39   30.00
   0   3 -14   42.30   17.90
   0   3 -14   25.00   10.50
   0   3 -14   37.20   21.10
   0   3 -14   74.99   24.10
   0  -3  14   48.00   25.20
   0  -3  14   25.90   27.70
  -1   3 -14    0.10   16.80
  -1   3 -14   37.60   26.20
  -1   3 -14    1.40   23.10
  -1   3 -14   12.80   11.40
   1  -3  14  -25.50   25.90
   1  -3  14   19.10   29.00
  -2   3 -14   32.50   13.90
  -2   3 -14   27.60   28.30
  -2   3 -14   10.60   20.50
  -2   3 -14   32.70   27.40
   2  -3  14   -8.70   27.60
  -3   3 -14   16.90   31.50
  -3   3 -14    2.30   27.20
   3  -3  14   -5.40   33.10
   4   2 -14  -14.00   13.00
   4   2 -14   20.40   33.70
  -4  -2  14   44.30   41.10
   3   2 -14   54.59   11.70
  -3  -2  14  118.69   37.80
  -3  -2  14   52.89   32.90
   2   2 -14   50.09   21.80
   2   2 -14    3.30    9.50
   2   2 -14    9.20   18.20
   2   2 -14   -9.00   21.90
  -2  -2  14   17.40   30.00
  -2  -2  14   70.29   30.50
   1   2 -14   60.89   10.40
   1   2 -14   85.19   21.90
   1   2 -14  111.89   24.20
  -1  -2  14   69.39   28.40
  -1  -2  14   94.69   27.40
   0   2 -14   31.60   16.60
   0   2 -14   18.20   23.40
   0   2 -14    5.50   22.00
   0   2 -14    3.30   10.20
   0  -2  14   18.30   24.80
   0  -2  14   12.60   34.40
  -1   2 -14   -3.00   12.30
  -1   2 -14   -5.00   25.50
  -1   2 -14  -28.40   22.50
  -1   2 -14   -0.90   17.10
   1  -2  14  -20.00   24.80
   1  -2  14  -15.20   25.00
  -2   2 -14   26.20   21.40
  -2   2 -14   34.40   28.30
  -2   2 -14   32.40   27.10
   2  -2  14  -16.70   28.30
  -3   2 -14  118.49   34.60
  -3   2 -14  117.29   29.20
   3  -2  14   97.29   35.30
   4   1 -14   61.89   13.30
   4   1 -14   94.89   31.60
   4   1 -14   33.60   20.70
  -4  -1  14  115.69   38.80
   3   1 -14    0.10   32.30
   3   1 -14   20.20   19.40
   3   1 -14    2.60   10.10
  -3  -1  14  -23.90   32.70
  -3  -1  14  -29.50   32.70
   2   1 -14   32.20    9.60
   2   1 -14  -16.70   18.00
   2   1 -14   42.00   26.40
   2   1 -14   46.60   23.20
  -2  -1  14   50.29   30.50
  -2  -1  14   65.89   27.80
   1   1 -14   30.40   17.10
   1   1 -14   39.90   21.70
   1   1 -14   30.90   10.10
   1   1 -14   50.89   22.60
  -1  -1  14   52.69   26.10
  -1  -1  14    3.20   27.60
   0   1 -14    3.20   23.50
   0   1 -14   13.70   16.90
   0   1 -14   15.00   24.10
   0   1 -14   10.80   10.80
   0  -1  14  -24.50   25.40
   0  -1  14   12.40   26.40
  -1   1 -14   -1.40   18.30
  -1   1 -14   36.20   27.30
  -1   1 -14    5.10   13.90
  -1   1 -14   -1.40   28.80
   1  -1  14   16.30   26.80
   1  -1  14   26.20   38.10
  -2   1 -14  133.19   29.80
  -2   1 -14   84.79   24.40
   2  -1  14   99.99   32.60
  -3   1 -14  150.38   36.10
  -3   1 -14  121.69   31.50
   3  -1  14  142.69   37.50
   3  -1  14  123.69   39.10
   4   0 -14   15.60   12.50
   4   0 -14   11.00   21.10
   4   0 -14   12.40   32.70
  -4   0  14   55.29   35.50
  -4   0  14   62.29   39.20
   3   0 -14  -11.70   31.30
   3   0 -14    9.60   24.00
   3   0 -14   -2.30   10.60
   3   0 -14   52.39   19.20
  -3   0  14   95.69   32.20
  -3   0  14   -7.60   29.70
   2   0 -14   36.10   23.50
   2   0 -14   17.60   18.70
   2   0 -14    3.60   23.20
   2   0 -14    5.30   10.40
  -2   0  14    2.40   29.50
  -2   0  14    9.50   28.60
   1   0 -14  235.28   33.40
   1   0 -14  233.38   38.00
   1   0 -14  149.19   22.90
   1   0 -14  157.88   17.80
  -1   0  14   93.69   59.99
  -1   0  14  249.97   35.80
   0   0 -14  205.08   20.50
   0   0 -14  298.27   44.60
   0   0 -14  155.48   24.10
   0   0  14  206.98   33.30
   0   0  14  232.88   37.40
   0   0  14  183.68   28.80
  -1   0 -14   25.60   20.00
  -1   0 -14   53.99   32.50
  -1   0 -14    8.20   14.90
  -1   0 -14   34.10   28.80
   1   0  14   60.29   25.00
   1   0  14   16.90   27.90
  -2   0 -14  150.88   39.00
   2   0  14  193.38   36.00
   2   0  14  211.38   35.20
   2   0  14  174.18   37.40
   4  -1 -14   37.80   23.10
   4  -1 -14   44.80   35.00
  -4   1  14   43.80   38.20
  -4   1  14   45.70   39.00
   3  -1 -14  -59.49   33.80
   3  -1 -14    0.10   24.30
   3  -1 -14   27.20   21.40
  -3   1  14   17.60   33.00
  -3   1  14    7.60   31.50
   2  -1 -14  239.58   20.40
   2  -1 -14  241.58   26.00
   2  -1 -14  220.48   34.50
  -2   1  14  236.88   40.70
  -2   1  14  243.58   37.00
  -2   1  14  349.47   41.70
   1  -1 -14   47.90   20.60
   1  -1 -14   13.20   13.00
   1  -1 -14   62.59   24.80
   1  -1 -14   20.40   33.10
  -1   1  14   72.99   30.60
  -1   1  14   39.50   28.30
  -1   1  14   17.00   22.30
   0  -1 -14  -48.80   36.80
   0  -1 -14   -2.80   15.10
   0  -1 -14  -27.80   25.50
   0   1  14   -1.30   27.80
   0   1  14   45.60   27.00
  -1  -1 -14   29.10   28.40
   1   1  14   29.90   30.10
   1   1  14  -50.99   34.30
   1   1  14   57.79   29.30
  -2  -1 -14   25.70   32.90
   2   1  14   -7.20   37.10
   2   1  14  -24.10   37.60
   4  -2 -14   74.39   38.30
   4  -2 -14    1.50   25.30
  -4   2  14   78.69   42.10
  -4   2  14   -6.00   37.90
   3  -2 -14   40.00   36.30
   3  -2 -14   56.09   22.70
   3  -2 -14   57.99   28.10
  -3   2  14   69.39   34.00
  -3   2  14   68.99   38.50
   2  -2 -14  207.88   37.30
   2  -2 -14  232.18   26.70
  -2   2  14  190.88   36.20
  -2   2  14  156.78   35.50
   1  -2 -14   40.60   22.30
   1  -2 -14    4.80   27.60
  -1   2  14   57.59   33.10
  -1   2  14   28.80   55.79
  -1   2  14   50.99   32.70
  -1   2  14   42.00   25.60
   0  -2 -14   18.50   17.60
   0  -2 -14    5.70   29.60
   0   2  14  -37.80   27.20
   0   2  14   -6.10   31.00
   0   2  14    3.30   36.90
  -1  -2 -14   -2.10   32.50
   1   2  14  -52.99   38.10
   1   2  14    0.80   36.00
   3  -3 -14  101.09   26.20
   3  -3 -14  117.19   41.40
  -3   3  14   47.40   35.40
  -3   3  14   64.99   44.90
   2  -3 -14   43.20   33.00
  -2   3  14    0.80   32.10
  -2   3  14   91.19   42.40
  -2   3  14   28.30   33.40
  -2   3  14   81.39   33.20
   1  -3 -14   42.50   32.00
  -1   3  14  -18.80   34.00
  -1   3  14  -54.89   35.10
  -1   3  14   81.59   38.10
   0  -3 -14   61.39   36.00
   0   3  14  -28.80   40.20
   0   3  14   65.79   38.30
   1   5 -15   35.50   28.60
   1   5 -15   62.09   14.10
  -1  -5  15   74.79   38.20
   0   5 -15  -21.60   26.50
   0   5 -15    3.50   12.20
   0  -5  15  -39.10   34.40
  -1   5 -15  -24.60   28.30
   2   4 -15   -9.00   27.60
   2   4 -15    5.60   12.10
  -2  -4  15  -13.70   37.10
   1   4 -15   63.29   24.90
   1   4 -15   13.30   11.70
  -1  -4  15   26.10   35.50
   0   4 -15   66.49   26.10
   0  -4  15   79.39   33.50
  -1   4 -15   25.70   14.00
  -1   4 -15   36.80   20.70
  -1   4 -15   54.89   28.10
   1  -4  15   37.00   32.10
  -2   4 -15   98.39   32.50
  -2   4 -15   58.09   17.50
  -2   4 -15   37.70   25.70
   3   3 -15  -18.60   28.80
   3   3 -15   17.10   13.90
  -3  -3  15   96.99   45.50
   2   3 -15   55.29   12.40
   2   3 -15   69.39   25.00
  -2  -3  15   14.20   36.40
   1   3 -15   24.20   11.70
   1   3 -15   58.59   25.20
   1   3 -15   42.60   21.10
  -1  -3  15   66.59   34.40
  -1  -3  15   41.90   32.50
   0   3 -15   24.00   12.40
   0   3 -15   40.40   20.40
   0   3 -15   39.30   25.90
   0  -3  15   58.59   30.80
   0  -3  15   15.60   31.20
  -1   3 -15   81.59   21.30
  -1   3 -15   92.39   28.20
  -1   3 -15   82.99   15.50
   1  -3  15  109.09   33.40
   1  -3  15  126.69   31.40
  -2   3 -15    5.50   16.80
  -2   3 -15   35.20   26.20
  -2   3 -15   16.80   31.40
   2  -3  15   27.00   35.20
   3   2 -15   24.50   13.40
   3   2 -15   21.00   22.60
  -3  -2  15   65.59   41.00
   2   2 -15  362.56   36.40
   2   2 -15  230.98   20.90
  -2  -2  15  349.96   48.30
  -2  -2  15  397.36   48.40
   1   2 -15  120.49   26.70
   1   2 -15  134.79   18.00
   1   2 -15  107.79   21.90
  -1  -2  15  135.49   32.70
  -1  -2  15  141.49   35.20
   0   2 -15   -6.10   12.40
   0   2 -15   26.10   26.00
   0   2 -15   29.40   30.60
   0   2 -15   17.00   19.40
   0  -2  15    3.20   27.20
   0  -2  15   37.30   32.00
  -1   2 -15   27.50   38.90
  -1   2 -15  -15.80   14.50
  -1   2 -15  -29.40   28.50
  -1   2 -15    8.30   20.50
   1  -2  15    5.40   29.50
   1  -2  15   -8.10   31.20
  -2   2 -15    3.00   26.90
  -2   2 -15    9.60   32.70
   2  -2  15   15.20   37.30
   2  -2  15  -19.90   35.70
   3   1 -15  122.59   24.50
   3   1 -15   90.99   14.00
  -3  -1  15  173.78   41.00
   2   1 -15   56.59   27.20
   2   1 -15   24.60   12.10
   2   1 -15   -5.50   20.70
  -2  -1  15   60.79   31.70
  -2  -1  15   34.60   34.20
   1   1 -15   17.20   27.00
   1   1 -15  -43.90   20.10
   1   1 -15    6.50   12.40
   1   1 -15   14.40   27.30
  -1  -1  15  -12.90   32.50
  -1  -1  15  -23.50   30.50
   0   1 -15    5.60   13.60
   0   1 -15   37.20   20.80
   0   1 -15   38.60   30.00
   0   1 -15   36.60   28.00
   0  -1  15  -42.20   29.50
   0  -1  15   -7.40   37.20
  -1   1 -15   56.19   23.10
  -1   1 -15   84.89   29.20
  -1   1 -15   29.50   34.50
  -1   1 -15   79.99   17.50
   1  -1  15   74.79   32.80
   1  -1  15   55.89   33.30
  -2   1 -15  144.39   35.00
  -2   1 -15   38.10   29.00
   2  -1  15   58.29   40.20
   2  -1  15  119.89   39.30
   3   0 -15   -4.30   12.30
   3   0 -15  -10.00   23.50
  -3   0  15   56.39   41.30
  -3   0  15  -10.30   37.70
   2   0 -15   25.70   21.50
   2   0 -15   43.20   28.50
   2   0 -15   22.80   12.50
   2   0 -15   12.20   29.60
  -2   0  15   36.50   33.70
  -2   0  15  -41.90   32.90
   1   0 -15   25.30   13.20
   1   0 -15   29.00   28.10
   1   0 -15   20.10   21.70
   1   0 -15   56.19   27.40
  -1   0  15  -26.90   31.10
  -1   0  15  -56.49   31.20
   0   0 -15   38.80   31.00
   0   0 -15   70.39   28.90
   0   0 -15    4.10   20.80
   0   0 -15   24.00   16.20
   0   0  15  130.59   35.30
   0   0  15   45.00   34.10
  -1   0 -15  103.19   32.20
   1   0  15   92.29   38.40
   1   0  15  149.88   37.20
   3  -1 -15   -4.10   25.60
  -3   1  15   -3.20   41.00
  -3   1  15   13.60   38.00
   2  -1 -15  113.49   33.00
   2  -1 -15   83.79   23.90
   2  -1 -15   23.70   29.90
  -2   1  15   49.40   33.50
  -2   1  15   94.79   37.80
  -2   1  15  128.39   38.60
   1  -1 -15   48.50   23.90
   1  -1 -15   22.30   29.60
  -1   1  15   71.59   33.80
   0  -1 -15   70.79   34.30
   0  -1 -15   62.99   19.00
   0   1  15   36.40   34.30
   0   1  15   42.90   39.90
  -1  -1 -15   81.29   45.50
   1   1  15   10.50   41.10
   1   1  15  -44.90   42.00
   3  -2 -15  107.49   29.80
  -3   2  15  248.28   51.79
  -3   2  15  154.38   41.90
   2  -2 -15   43.30   35.20
  -2   2  15  191.88   38.10
  -2   2  15   71.09   40.30
  -2   2  15  132.09   45.60
   1  -2 -15    3.10   36.00
  -1   2  15   62.29   37.80
  -1   2  15   24.60   42.70
  -1   2  15   29.50   34.50
   0   2  15  -59.99   43.20
   0   2  15  -19.90   40.40
   0   4 -16   17.60   15.10
   0   4 -16   -1.20   38.10
   0  -4  16   -1.60   38.20
   2   3 -16   73.89   15.60
   2   3 -16   41.50   25.20
   1   3 -16  121.19   25.90
   1   3 -16  174.98   21.90
   1   3 -16  181.28   31.50
  -1  -3  16  165.98   40.30
   0   3 -16   29.80   24.40
   0   3 -16   69.09   31.30
   0   3 -16   37.60   15.60
   0  -3  16  118.49   38.90
  -1   3 -16   65.39   18.90
   1  -3  16   98.49   37.40
   2   2 -16   44.00   30.80
   2   2 -16   44.50   15.00
  -2  -2  16  120.89   41.70
   1   2 -16   68.39   33.00
   1   2 -16   44.20   14.80
   1   2 -16   20.40   23.90
  -1  -2  16   -8.60   35.90
   0   2 -16    8.90   23.90
   0   2 -16    3.10   15.50
   0   2 -16   44.70   31.50
   0  -2  16   50.09   35.70
   0  -2  16  -50.29   39.70
  -1   2 -16   12.70   19.60
  -1   2 -16   -4.90   26.80
  -1   2 -16   68.59   34.90
   1  -2  16   98.59   42.20
   1  -2  16   16.10   37.00
   2   1 -16  -22.70   25.30
   2   1 -16    6.70   14.00
   2   1 -16   19.60   32.50
  -2  -1  16  -21.30   40.70
   1   1 -16   12.90   15.20
   1   1 -16   23.90   25.20
   1   1 -16  -26.30   32.40
  -1  -1  16   12.30   40.40
  -1  -1  16   54.59   37.40
   0   1 -16   95.69   26.20
   0   1 -16   22.00   17.10
   0   1 -16   29.70   31.90
   0  -1  16  -45.00   38.90
   0  -1  16   13.90   36.90
   2   0 -16   34.30   35.10
   2   0 -16  -21.50   26.10
  -2   0  16    7.00   43.40
  -2   0  16   19.00   40.90
   1   0 -16   70.89   28.10
   1   0 -16    2.60   16.30
   1   0 -16  -27.70   33.60
  -1   0  16   16.80   39.40
  -1   0  16   66.39   37.50
  -1   0  16  -79.89   43.60
   0   0 -16   14.10   19.60
   0   0 -16   31.50   29.00
   0   0 -16   63.99   35.30
   0   0  16   -3.30   36.60
   0   0  16   -2.60   41.30
   0   0  16  -17.00   41.70

_computing_structure_solution     'SHELXT 2014/4 (Sheldrick, 2014)'
;
_shelx_hkl_checksum              11706
loop_
_space_group_symop_operation_xyz
'x, y, z'
loop_
_atom_site_label
_atom_site_type_symbol
_atom_site_fract_x
_atom_site_fract_y
_atom_site_fract_z
_atom_site_U_iso_or_equiv
_atom_site_adp_type
_atom_site_occupancy
_atom_site_site_symmetry_order
_atom_site_calc_flag
_atom_site_refinement_flags_posn
_atom_site_refinement_flags_adp
O1 O 0.6567(7) 0.9947(5) 0.5874(3) 0.0526(9) Uani 1 1 d . .
O2 O 1.1552(6) 0.9573(5) 0.6800(3) 0.0528(9) Uani 1 1 d . .
O3 O 0.9869(7) 1.0894(5) 0.7944(3) 0.0679(11) Uani 1 1 d . .
O4 O 1.0315(5) 0.7831(4) 0.8930(2) 0.0452(8) Uani 1 1 d . .
O5 O 0.7264(5) 0.4492(5) 0.8906(2) 0.0504(9) Uani 1 1 d . .
N1 N 0.9972(6) 0.9571(5) 0.7330(3) 0.0406(9) Uani 1 1 d . .
C1 C 0.1824(10) 0.3860(8) 0.1187(4) 0.0553(13) Uani 1 1 d . .
H1B H 0.2725 0.4385 0.0662 0.066 Uiso 1 1 calc R U
H1C H 0.0236 0.3932 0.1039 0.066 Uiso 1 1 calc R U
C2 C 0.1673(9) 0.1880(8) 0.1056(4) 0.0528(13) Uani 1 1 d . .
H2A H 0.3269 0.1808 0.1101 0.063 Uiso 1 1 calc R U
H2B H 0.0816 0.1230 0.0339 0.063 Uiso 1 1 calc R U
C3 C 0.0446(8) 0.0930(6) 0.1902(3) 0.0417(11) Uani 1 1 d . .
C4 C 0.1626(6) 0.2126(5) 0.3045(3) 0.0295(9) Uani 1 1 d . .
H4 H 0.3286 0.2162 0.3100 0.035 Uiso 1 1 calc R U
C5 C 0.1785(6) 0.4162(6) 0.3232(3) 0.0291(9) Uani 1 1 d . .
C6 C 0.2995(8) 0.4945(7) 0.2318(3) 0.0420(11) Uani 1 1 d . .
H6A H 0.2975 0.6178 0.2373 0.050 Uiso 1 1 calc R U
H6B H 0.4643 0.4992 0.2428 0.050 Uiso 1 1 calc R U
C7 C 0.0766(7) 0.1298(6) 0.3990(3) 0.0366(10) Uani 1 1 d . .
H7A H -0.0807 0.1366 0.4056 0.044 Uiso 1 1 calc R U
H7B H 0.0655 0.0029 0.3849 0.044 Uiso 1 1 calc R U
C8 C 0.2454(7) 0.2288(5) 0.5049(3) 0.0344(10) Uani 1 1 d . .
H8A H 0.3993 0.2143 0.4993 0.041 Uiso 1 1 calc R U
H8B H 0.1854 0.1728 0.5631 0.041 Uiso 1 1 calc R U
C9 C 0.2774(6) 0.4323(5) 0.5344(3) 0.0251(9) Uani 1 1 d . .
C10 C 0.3436(6) 0.5139(5) 0.4339(3) 0.0257(9) Uani 1 1 d . .
H10 H 0.4973 0.4986 0.4244 0.031 Uiso 1 1 calc R U
C11 C 0.4814(6) 0.5299(5) 0.6298(3) 0.0261(9) Uani 1 1 d . .
C12 C 0.6340(7) 0.7044(5) 0.6340(3) 0.0275(9) Uani 1 1 d . .
C13 C 0.6226(7) 0.8086(5) 0.5452(3) 0.0329(10) Uani 1 1 d . .
H13 H 0.7547 0.8045 0.5063 0.039 Uiso 1 1 calc R U
C14 C 0.3961(7) 0.7197(6) 0.4635(3) 0.0338(10) Uani 1 1 d . .
H14A H 0.4123 0.7690 0.3987 0.041 Uiso 1 1 calc R U
H14B H 0.2647 0.7458 0.4938 0.041 Uiso 1 1 calc R U
C15 C 0.5091(7) 0.4434(6) 0.7159(3) 0.0315(9) Uani 1 1 d . .
H15 H 0.4030 0.3288 0.7130 0.038 Uiso 1 1 calc R U
C16 C 0.6877(7) 0.5220(6) 0.8045(3) 0.0343(10) Uani 1 1 d . .
C17 C 0.8472(7) 0.6955(6) 0.8085(3) 0.0323(10) Uani 1 1 d . .
C18 C 0.8131(7) 0.7798(5) 0.7253(3) 0.0301(9) Uani 1 1 d . .
C19 C -0.2274(10) 0.0500(9) 0.1664(4) 0.0641(15) Uani 1 1 d . .
H19A H -0.2923 -0.0430 0.1018 0.096 Uiso 1 1 calc R U
H19B H -0.2625 0.1574 0.1565 0.096 Uiso 1 1 calc R U
H19C H -0.2964 0.0087 0.2262 0.096 Uiso 1 1 calc R U
C20 C 0.0885(10) -0.0913(7) 0.1803(4) 0.0572(14) Uani 1 1 d . .
H20A H -0.0080 -0.1627 0.2231 0.086 Uiso 1 1 calc R U
H20B H 0.2530 -0.0713 0.2058 0.086 Uiso 1 1 calc R U
H20C H 0.0479 -0.1545 0.1057 0.086 Uiso 1 1 calc R U
C21 C 1.2239(9) 0.7103(9) 0.8949(5) 0.0644(15) Uani 1 1 d . .
H21A H 1.1655 0.5846 0.8982 0.097 Uiso 1 1 calc R U
H21B H 1.3423 0.7759 0.9573 0.097 Uiso 1 1 calc R U
H21C H 1.2929 0.7218 0.8304 0.097 Uiso 1 1 calc R U
C22 C 0.5821(9) 0.2700(8) 0.8895(4) 0.0585(15) Uani 1 1 d . .
H22A H 0.4202 0.2663 0.8889 0.088 Uiso 1 1 calc R U
H22B H 0.6359 0.2329 0.9529 0.088 Uiso 1 1 calc R U
H22C H 0.5925 0.1895 0.8258 0.088 Uiso 1 1 calc R U
C23 C -0.0628(7) 0.4500(7) 0.3202(4) 0.0450(12) Uani 1 1 d . .
H23A H -0.0401 0.5686 0.3622 0.067 Uiso 1 1 calc R U
H23B H -0.1694 0.3604 0.3500 0.067 Uiso 1 1 calc R U
H23C H -0.1288 0.4419 0.2466 0.067 Uiso 1 1 calc R U
C24 C 0.0491(7) 0.4529(7) 0.5735(3) 0.0409(11) Uani 1 1 d . .
H24A H 0.0329 0.4110 0.6398 0.061 Uiso 1 1 calc R U
H24B H -0.0861 0.3822 0.5193 0.061 Uiso 1 1 calc R U
H24C H 0.0587 0.5781 0.5855 0.061 Uiso 1 1 calc R U
H1A H 0.541(12) 0.997(9) 0.610(5) 0.08(2) Uiso 1 1 d . .
loop_
_atom_site_aniso_label
_atom_site_aniso_U_11
_atom_site_aniso_U_22
_atom_site_aniso_U_33
_atom_site_aniso_U_23
_atom_site_aniso_U_13
_atom_site_aniso_U_12
O1 0.052(2) 0.030(2) 0.072(2) 0.0095(16) 0.0014(19) 0.0117(17)
O2 0.0398(18) 0.049(2) 0.064(2) 0.0175(17) 0.0189(16) 0.0011(16)
O3 0.063(2) 0.035(2) 0.086(3) -0.0140(19) -0.001(2) 0.0068(18)
O4 0.0362(17) 0.053(2) 0.0371(16) -0.0026(15) -0.0023(13) 0.0097(15)
O5 0.0469(19) 0.054(2) 0.0373(17) 0.0186(16) -0.0045(14) -0.0031(17)
N1 0.036(2) 0.030(2) 0.049(2) 0.0041(19) -0.0031(18) 0.0059(17)
C1 0.070(3) 0.070(4) 0.036(2) 0.019(2) 0.007(2) 0.033(3)
C2 0.061(3) 0.072(4) 0.031(2) 0.009(2) 0.006(2) 0.031(3)
C3 0.040(2) 0.053(3) 0.036(2) 0.005(2) 0.0034(19) 0.023(2)
C4 0.0201(18) 0.037(2) 0.032(2) 0.0045(18) 0.0037(16) 0.0125(18)
C5 0.023(2) 0.039(3) 0.032(2) 0.0088(18) 0.0034(16) 0.0187(19)
C6 0.046(3) 0.048(3) 0.041(2) 0.019(2) 0.009(2) 0.023(2)
C7 0.035(2) 0.035(3) 0.040(2) 0.006(2) 0.0085(18) 0.011(2)
C8 0.035(2) 0.029(3) 0.035(2) 0.0092(19) 0.0023(18) 0.0057(19)
C9 0.0188(18) 0.026(2) 0.032(2) 0.0082(17) 0.0091(16) 0.0065(16)
C10 0.0198(18) 0.029(2) 0.032(2) 0.0084(17) 0.0039(16) 0.0126(17)
C11 0.0175(19) 0.030(2) 0.033(2) 0.0068(18) 0.0095(16) 0.0089(18)
C12 0.0241(19) 0.027(2) 0.035(2) 0.0065(17) 0.0093(16) 0.0112(18)
C13 0.030(2) 0.027(3) 0.046(2) 0.0112(19) 0.0088(18) 0.0126(19)
C14 0.035(2) 0.035(3) 0.038(2) 0.0112(19) 0.0052(18) 0.020(2)
C15 0.027(2) 0.029(2) 0.036(2) 0.0087(19) 0.0075(17) 0.0031(18)
C16 0.030(2) 0.046(3) 0.028(2) 0.011(2) 0.0066(17) 0.012(2)
C17 0.028(2) 0.035(3) 0.027(2) -0.0014(19) 0.0030(17) 0.007(2)
C18 0.024(2) 0.024(2) 0.041(2) 0.0035(19) 0.0105(17) 0.0080(18)
C19 0.048(3) 0.076(4) 0.053(3) -0.004(3) -0.013(2) 0.015(3)
C20 0.072(4) 0.050(3) 0.047(3) -0.002(2) 0.007(3) 0.024(3)
C21 0.042(3) 0.084(4) 0.061(3) 0.010(3) -0.010(2) 0.021(3)
C22 0.053(3) 0.064(4) 0.051(3) 0.030(3) -0.001(2) 0.003(3)
C23 0.032(2) 0.059(3) 0.050(3) 0.005(2) 0.001(2) 0.030(2)
C24 0.027(2) 0.054(3) 0.040(2) 0.002(2) 0.0129(18) 0.014(2)
loop_
_atom_type_symbol
_atom_type_description
_atom_type_scat_dispersion_real
_atom_type_scat_dispersion_imag
_atom_type_scat_source
C C 0.0033 0.0016 'International Tables Vol C Tables 4.2.6.8 and 6.1.1.4'
H H 0.0000 0.0000 'International Tables Vol C Tables 4.2.6.8 and 6.1.1.4'
N N 0.0061 0.0033 'International Tables Vol C Tables 4.2.6.8 and 6.1.1.4'
O O 0.0106 0.0060 'International Tables Vol C Tables 4.2.6.8 and 6.1.1.4'
loop_
_geom_angle_atom_site_label_1
_geom_angle_atom_site_label_2
_geom_angle_atom_site_label_3
_geom_angle
C13 O1 H1A 106(5)
C17 O4 C21 114.6(4)
C16 O5 C22 118.4(4)
O2 N1 O3 124.6(4)
O2 N1 C18 116.7(4)
O3 N1 C18 118.7(4)
C6 C1 C2 111.9(4)
C6 C1 H1B 109.2
C2 C1 H1B 109.2
C6 C1 H1C 109.2
C2 C1 H1C 109.2
H1B C1 H1C 107.9
C1 C2 C3 114.3(4)
C1 C2 H2A 108.7
C3 C2 H2A 108.7
C1 C2 H2B 108.7
C3 C2 H2B 108.7
H2A C2 H2B 107.6
C2 C3 C19 111.4(4)
C2 C3 C20 107.5(4)
C19 C3 C20 106.5(4)
C2 C3 C4 108.0(4)
C19 C3 C4 114.0(3)
C20 C3 C4 109.3(3)
C7 C4 C3 114.9(3)
C7 C4 C5 111.0(3)
C3 C4 C5 117.0(3)
C7 C4 H4 104.0
C3 C4 H4 104.0
C5 C4 H4 104.0
C23 C5 C6 108.0(3)
C23 C5 C10 111.0(3)
C6 C5 C10 108.6(3)
C23 C5 C4 114.8(3)
C6 C5 C4 107.1(3)
C10 C5 C4 107.1(3)
C1 C6 C5 113.8(4)
C1 C6 H6A 108.8
C5 C6 H6A 108.8
C1 C6 H6B 108.8
C5 C6 H6B 108.8
H6A C6 H6B 107.7
C8 C7 C4 111.1(3)
C8 C7 H7A 109.4
C4 C7 H7A 109.4
C8 C7 H7B 109.4
C4 C7 H7B 109.4
H7A C7 H7B 108.0
C7 C8 C9 113.6(3)
C7 C8 H8A 108.8
C9 C8 H8A 108.8
C7 C8 H8B 108.8
C9 C8 H8B 108.8
H8A C8 H8B 107.7
C11 C9 C8 110.9(3)
C11 C9 C24 106.5(3)
C8 C9 C24 108.0(3)
C11 C9 C10 108.1(3)
C8 C9 C10 107.7(3)
C24 C9 C10 115.7(3)
C14 C10 C5 115.2(3)
C14 C10 C9 109.0(3)
C5 C10 C9 116.9(3)
C14 C10 H10 104.8
C5 C10 H10 104.8
C9 C10 H10 104.8
C12 C11 C15 119.7(4)
C12 C11 C9 121.3(3)
C15 C11 C9 119.0(3)
C11 C12 C18 116.1(3)
C11 C12 C13 124.1(4)
C18 C12 C13 119.8(4)
O1 C13 C12 112.2(3)
O1 C13 C14 111.9(3)
C12 C13 C14 111.7(3)
O1 C13 H13 106.9
C12 C13 H13 106.9
C14 C13 H13 106.9
C13 C14 C10 110.4(3)
C13 C14 H14A 109.6
C10 C14 H14A 109.6
C13 C14 H14B 109.6
C10 C14 H14B 109.6
H14A C14 H14B 108.1
C16 C15 C11 122.6(4)
C16 C15 H15 118.7
C11 C15 H15 118.7
O5 C16 C15 126.5(4)
O5 C16 C17 115.1(3)
C15 C16 C17 118.5(4)
C18 C17 O4 119.4(4)
C18 C17 C16 118.1(3)
O4 C17 C16 122.5(4)
C17 C18 C12 125.0(4)
C17 C18 N1 114.4(4)
C12 C18 N1 120.4(4)
C3 C19 H19A 109.5
C3 C19 H19B 109.5
H19A C19 H19B 109.5
C3 C19 H19C 109.5
H19A C19 H19C 109.5
H19B C19 H19C 109.5
C3 C20 H20A 109.5
C3 C20 H20B 109.5
H20A C20 H20B 109.5
C3 C20 H20C 109.5
H20A C20 H20C 109.5
H20B C20 H20C 109.5
O4 C21 H21A 109.5
O4 C21 H21B 109.5
H21A C21 H21B 109.5
O4 C21 H21C 109.5
H21A C21 H21C 109.5
H21B C21 H21C 109.5
O5 C22 H22A 109.5
O5 C22 H22B 109.5
H22A C22 H22B 109.5
O5 C22 H22C 109.5
H22A C22 H22C 109.5
H22B C22 H22C 109.5
C5 C23 H23A 109.5
C5 C23 H23B 109.5
H23A C23 H23B 109.5
C5 C23 H23C 109.5
H23A C23 H23C 109.5
H23B C23 H23C 109.5
C9 C24 H24A 109.5
C9 C24 H24B 109.5
H24A C24 H24B 109.5
C9 C24 H24C 109.5
H24A C24 H24C 109.5
H24B C24 H24C 109.5
loop_
_geom_bond_atom_site_label_1
_geom_bond_atom_site_label_2
_geom_bond_distance
O1 C13 1.423(5)
O1 H1A 0.78(6)
O2 N1 1.216(5)
O3 N1 1.216(5)
O4 C17 1.374(5)
O4 C21 1.434(6)
O5 C16 1.350(5)
O5 C22 1.418(6)
N1 C18 1.480(6)
C1 C6 1.516(7)
C1 C2 1.521(7)
C1 H1B 0.9700
C1 H1C 0.9700
C2 C3 1.538(7)
C2 H2A 0.9700
C2 H2B 0.9700
C3 C19 1.544(7)
C3 C20 1.545(7)
C3 C4 1.554(6)
C4 C7 1.526(6)
C4 C5 1.560(6)
C4 H4 0.9800
C5 C23 1.543(5)
C5 C6 1.550(6)
C5 C10 1.559(5)
C6 H6A 0.9700
C6 H6B 0.9700
C7 C8 1.524(6)
C7 H7A 0.9700
C7 H7B 0.9700
C8 C9 1.537(6)
C8 H8A 0.9700
C8 H8B 0.9700
C9 C11 1.537(5)
C9 C24 1.544(5)
C9 C10 1.560(5)
C10 C14 1.534(6)
C10 H10 0.9800
C11 C12 1.396(6)
C11 C15 1.405(5)
C12 C18 1.403(5)
C12 C13 1.513(6)
C13 C14 1.515(6)
C13 H13 0.9800
C14 H14A 0.9700
C14 H14B 0.9700
C15 C16 1.381(6)
C15 H15 0.9300
C16 C17 1.406(6)
C17 C18 1.371(6)
C19 H19A 0.9600
C19 H19B 0.9600
C19 H19C 0.9600
C20 H20A 0.9600
C20 H20B 0.9600
C20 H20C 0.9600
C21 H21A 0.9600
C21 H21B 0.9600
C21 H21C 0.9600
C22 H22A 0.9600
C22 H22B 0.9600
C22 H22C 0.9600
C23 H23A 0.9600
C23 H23B 0.9600
C23 H23C 0.9600
C24 H24A 0.9600
C24 H24B 0.9600
C24 H24C 0.9600
