#------------------------------------------------------------------------------
#$Date: 2019-11-24 15:15:52 +0200 (Sun, 24 Nov 2019) $
#$Revision: 238305 $
#$URL: file:///home/coder/svn-repositories/cod/cif/1/55/50/1555079.cif $
#------------------------------------------------------------------------------
#
# This file is available in the Crystallography Open Database (COD),
# http://www.crystallography.net/
#
# All data on this site have been placed in the public domain by the
# contributors.
#
data_1555079
loop_
_publ_author_name
'He, Guangke'
'Li, Yuan'
'Yu, Zilun'
'Chen, Zhaoqiang'
'Tang, Yongming'
'Song, Guangliang'
'Loh, Teck-Peng'
_publ_section_title
;
 Selectfluor&#x2122;-catalyzed oxidative cyclization of ynamides enables
 facile synthesis of oxazolidine-2,4-diones
;
_journal_issue                   21
_journal_name_full               'Organic Chemistry Frontiers'
_journal_page_first              3644
_journal_paper_doi               10.1039/C9QO00845D
_journal_volume                  6
_journal_year                    2019
_chemical_formula_sum            'C16 H13 N O3'
_chemical_formula_weight         267.27
_space_group_crystal_system      monoclinic
_space_group_IT_number           7
_space_group_name_Hall           'P -2yc'
_space_group_name_H-M_alt        'P 1 c 1'
_atom_sites_solution_hydrogens   geom
_audit_update_record
;
2018-11-28 deposited with the CCDC.	2019-09-16 downloaded from the CCDC.
;
_cell_angle_alpha                90
_cell_angle_beta                 101.496(7)
_cell_angle_gamma                90
_cell_formula_units_Z            2
_cell_length_a                   14.099(2)
_cell_length_b                   5.2916(9)
_cell_length_c                   9.1495(16)
_cell_measurement_reflns_used    6381
_cell_measurement_temperature    273.(2)
_cell_measurement_theta_max      31.3711
_cell_measurement_theta_min      2.9488
_cell_volume                     668.92(19)
_computing_cell_refinement       'SAINT V8.38A (Bruker AXS Inc., 2017)'
_computing_data_reduction        'SAINT V8.38A (Bruker AXS Inc., 2017)'
_computing_molecular_graphics    'shelXle (C.B. Huebschle, rev 924)'
_computing_structure_refinement  'SHELXL-2018/3 (Sheldrick, 2018)'
_computing_structure_solution    'XT, VERSION 2014/5'
_diffrn_ambient_temperature      273.(2)
_diffrn_detector_area_resol_mean 7.3910
_diffrn_measured_fraction_theta_full 0.989
_diffrn_measured_fraction_theta_max 0.989
_diffrn_measurement_device_type  ' Bruker D8 VENTURE PHOTON II'
_diffrn_radiation_type           'Mo K\a'
_diffrn_radiation_wavelength     0.71073
_diffrn_reflns_av_R_equivalents  0.0247
_diffrn_reflns_av_unetI/netI     0.0305
_diffrn_reflns_limit_h_max       20
_diffrn_reflns_limit_h_min       -18
_diffrn_reflns_limit_k_max       7
_diffrn_reflns_limit_k_min       -7
_diffrn_reflns_limit_l_max       13
_diffrn_reflns_limit_l_min       -13
_diffrn_reflns_number            12828
_diffrn_reflns_theta_full        30.50
_diffrn_reflns_theta_max         30.50
_diffrn_reflns_theta_min         2.95
_exptl_absorpt_coefficient_mu    0.092
_exptl_absorpt_correction_T_max  0.7263
_exptl_absorpt_correction_T_min  0.6482
_exptl_absorpt_correction_type   multi-scan
_exptl_absorpt_process_details
;
SADABS-2016/2 - Bruker AXS area detector scaling and absorption correction
;
_exptl_crystal_density_diffrn    1.327
_exptl_crystal_density_method    'not measured'
_exptl_crystal_description       block
_exptl_crystal_F_000             280
_exptl_crystal_size_max          0.200
_exptl_crystal_size_mid          0.200
_exptl_crystal_size_min          0.200
_refine_diff_density_max         0.142
_refine_diff_density_min         -0.105
_refine_ls_abs_structure_details
;

Refined as an inversion twin.
;
_refine_ls_abs_structure_Flack   0.1(19)
_refine_ls_extinction_method     none
_refine_ls_goodness_of_fit_ref   1.067
_refine_ls_hydrogen_treatment    constr
_refine_ls_matrix_type           full
_refine_ls_number_parameters     315
_refine_ls_number_reflns         3765
_refine_ls_number_restraints     785
_refine_ls_restrained_S_all      1.015
_refine_ls_R_factor_all          0.0506
_refine_ls_R_factor_gt           0.0410
_refine_ls_shift/su_max          0.000
_refine_ls_shift/su_mean         0.000
_refine_ls_structure_factor_coef Fsqd
_refine_ls_weighting_details
'w=1/[\s^2^(Fo^2^)+(0.0706P)^2^+0.0245P] where P=(Fo^2^+2Fc^2^)/3'
_refine_ls_weighting_scheme      calc
_refine_ls_wR_factor_gt          0.1183
_refine_ls_wR_factor_ref         0.1268
_reflns_number_gt                3062
_reflns_number_total             3765
_reflns_threshold_expression     'I > 2\s(I)'
_cod_data_source_file            c9qo00845d3.cif
_cod_data_source_block           LLYY
_cod_depositor_comments
;
The following automatic conversions were performed:

data item '_exptl_absorpt_correction_type' value 'Multi-Scan' was
changed to 'multi-scan' in accordance with the
/home/saulius/struct/COD-crude-data/automatic-downloads/DataCite-retrospective/RSC/depositions/lib/dictionaries/cif_core.dic
dictionary named 'cif_core.dic' version 2.4.2 last updated on
2011-04-26.

Automatic conversion script
Id: cif_fix_values 6909 2019-04-08 15:41:33Z antanas 
;
_cod_original_cell_volume        668.9(2)
_cod_database_code               1555079
_shelx_res_file
;

TITL P2c_b.res in Pc
    pc.res
    created by SHELXL-2018/3 at 09:41:56 on 24-Nov-2018
REM Old TITL P2c in P2/c
REM SHELXT solution in Pc
REM R1 0.214,  Rweak 0.006,  Alpha 0.009,  Orientation as input
REM Flack x = -0.241 ( 0.448 ) from Parsons' quotients
REM Formula found by SHELXT:  C17 N2 O2
CELL  0.71073  14.0987   5.2916   9.1495   90.000  101.496   90.000
ZERR    2   0.0023   0.0009   0.0016    0.000    0.007    0.000
LATT -1
SYMM X, -Y, 1/2+Z
SFAC C H N O
UNIT 32 26 2 6
TEMP 0
L.S. 10
BOND $H
LIST 4
FMAP 2
TWIN
HTAB
acta
shel 999 0.7
conf
PLAN 2
simu 0.02 0.02
delu 0.01 0.01

WGHT    0.070600    0.024500
BASF   0.13133
FVAR       0.89296   0.35965
PART 1
AFIX  66
C1    1    0.871865    0.906545    0.522638    21.00000    0.05363    0.10159 =
         0.05357    0.00286    0.00664   -0.01946
AFIX  43
H1    2    0.916735    0.990628    0.478313    21.00000   -1.20000
AFIX  65
C2    1    0.773812    0.960389    0.478818    21.00000    0.04549    0.07256 =
         0.04718   -0.00686   -0.00204   -0.01315
AFIX  43
H2    2    0.753078    1.080498    0.405174    21.00000   -1.20000
AFIX  65
C3    1    0.706748    0.834718    0.545067    21.00000    0.02881    0.05930 =
         0.05382    0.00507    0.00608    0.00370
C4    1    0.737737    0.655201    0.655137    21.00000    0.03282    0.04935 =
         0.04296    0.01256   -0.00727   -0.00382
AFIX  43
H4    2    0.692866    0.571119    0.699462    21.00000   -1.20000
AFIX  65
C5    1    0.835789    0.601355    0.698958    21.00000    0.02963    0.04901 =
         0.06802    0.00026   -0.01343   -0.00050
AFIX  43
H5    2    0.856523    0.481246    0.772602    21.00000   -1.20000
AFIX  65
C6    1    0.902854    0.727024    0.632710    21.00000    0.04117    0.07709 =
         0.07227   -0.01021    0.01233   -0.00529
AFIX  43
H6    2    0.968458    0.690997    0.662030    21.00000   -1.20000
AFIX   0
C7    1    0.606790    0.908472    0.468299    21.00000    0.04018    0.04550 =
         0.04153   -0.00211    0.00157    0.00841
AFIX  13
H7    2    0.608917    1.020587    0.383760    21.00000   -1.20000
AFIX   0
same C8a > O3a
dfix 1.23 0.005 C9 O3 C9a O3a
C8    1    0.536903    0.691885    0.421380    21.00000    0.03860    0.03874 =
         0.04070   -0.00294   -0.00547    0.01333
C9    1    0.480291    0.927612    0.595737    21.00000    0.03375    0.04973 =
         0.04071   -0.00428    0.00205    0.00789
N1    3    0.464094    0.721200    0.496835    21.00000    0.03667    0.04187 =
         0.04272   -0.00340   -0.00231    0.00861
O1    4    0.564022    1.041008    0.583703    21.00000    0.03851    0.04020 =
         0.05509   -0.01080    0.00606    0.00460
O2    4    0.543319    0.528675    0.332532    21.00000    0.04249    0.05655 =
         0.06532   -0.02084   -0.00047    0.01303
O3    4    0.434497    0.989133    0.689059    21.00000    0.04391    0.08872 =
         0.03789   -0.01717    0.00868   -0.00085
C10   1    0.390942    0.599683    0.535537    21.00000    0.03504    0.06100 =
         0.03758   -0.01842   -0.00817    0.01823
AFIX  23
H10A  2    0.396822    0.625194    0.641951    21.00000   -1.20000
H10B  2    0.401793    0.421108    0.521416    21.00000   -1.20000
AFIX  66
C11   1    0.279159    0.655192    0.459783    21.00000    0.02567    0.03455 =
         0.05512    0.00510   -0.00563    0.00839
C12   1    0.266964    0.833952    0.346256    21.00000    0.04240    0.04863 =
         0.04807    0.00031    0.00864    0.01701
AFIX  43
H12   2    0.320592    0.898200    0.313804    21.00000   -1.20000
AFIX  65
C13   1    0.174614    0.916688    0.281231    21.00000    0.06023    0.06926 =
         0.05040    0.00175    0.00807    0.02016
AFIX  43
H13   2    0.166455    1.036290    0.205274    21.00000   -1.20000
AFIX  65
C14   1    0.094460    0.820663    0.329733    21.00000    0.04033    0.09875 =
         0.08159   -0.00066   -0.00436    0.01609
AFIX  43
H14   2    0.032672    0.876020    0.286227    21.00000   -1.20000
AFIX  65
C15   1    0.106654    0.641903    0.443260    21.00000    0.02805    0.06806 =
         0.09003   -0.00789    0.00941    0.01064
AFIX  43
H15   2    0.053025    0.577657    0.475710    21.00000   -1.20000
AFIX  65
C16   1    0.199003    0.559166    0.508286    21.00000    0.03637    0.04737 =
         0.07301    0.00594    0.02728    0.00512
AFIX  43
H16   2    0.207161    0.439563    0.584243    21.00000   -1.20000
AFIX  66
PART 2
C1A   1    0.117002    0.576906    0.441040   -21.00000    0.04996    0.07285 =
         0.10099   -0.00887    0.02000   -0.00324
AFIX  43
H1A   2    0.069060    0.474996    0.466529   -21.00000   -1.20000
AFIX  65
C2A   1    0.213989    0.518065    0.492593   -21.00000    0.04140    0.05660 =
         0.07301   -0.00853    0.01329   -0.00089
AFIX  43
H2A   2    0.230937    0.376787    0.552575   -21.00000   -1.20000
AFIX  65
C3A   1    0.285644    0.670382    0.454497   -21.00000    0.04491    0.05922 =
         0.04873   -0.00112    0.00835   -0.01084
C4A   1    0.260313    0.881539    0.364848   -21.00000    0.04310    0.04478 =
         0.06362   -0.00118    0.01080    0.00930
AFIX  43
H4A   2    0.308256    0.983449    0.339359   -21.00000   -1.20000
AFIX  65
C5A   1    0.163327    0.940383    0.313294   -21.00000    0.04440    0.07396 =
         0.06218   -0.00147    0.00367    0.02375
AFIX  43
H5A   2    0.146380    1.081662    0.253312   -21.00000   -1.20000
AFIX  65
C6A   1    0.091671    0.788069    0.351389   -21.00000    0.03744    0.09346 =
         0.08930   -0.01546    0.00242    0.00809
AFIX  43
H6A   2    0.026781    0.827439    0.316895   -21.00000   -1.20000
AFIX   0
C7A   1    0.382358    0.570223    0.506436   -21.00000    0.04975    0.05792 =
         0.05279    0.01742   -0.00964   -0.01281
AFIX  13
H7A   2    0.381166    0.447828    0.586434   -21.00000   -1.20000
AFIX   0

C8A   1    0.453544    0.816135    0.574725   -21.00000    0.04306    0.04876 =
         0.04396   -0.00519   -0.00221    0.00985
C9A   1    0.510474    0.590180    0.400437   -21.00000    0.04709    0.05087 =
         0.04677   -0.00606   -0.00069    0.01629
N1A   3    0.526974    0.792243    0.499409   -21.00000    0.04134    0.04726 =
         0.04744   -0.00569   -0.00058    0.00378
O1A   4    0.427910    0.474987    0.411733   -21.00000    0.04555    0.05187 =
         0.05456   -0.01878    0.00363    0.00630
O2A   4    0.442068    0.984798    0.657715   -21.00000    0.07034    0.05931 =
         0.04737   -0.02150    0.00820    0.00898
O3A   4    0.562815    0.527464    0.316578   -21.00000    0.04986    0.08136 =
         0.05807   -0.01472    0.01191    0.01699
C10A  1    0.605983    0.972122    0.507182   -21.00000    0.04348    0.04798 =
         0.07326    0.01239   -0.00120    0.00132
AFIX  23
H10C  2    0.600685    1.097459    0.582504   -21.00000   -1.20000
H10D  2    0.597947    1.059216    0.412220   -21.00000   -1.20000
AFIX  66
C11A  1    0.708502    0.858873    0.543438   -21.00000    0.04978    0.04269 =
         0.05271    0.00369   -0.00211   -0.00656
C12A  1    0.722171    0.642777    0.631505   -21.00000    0.04196    0.07073 =
         0.05179    0.00505   -0.01103    0.00341
AFIX  43
H12A  2    0.669062    0.557620    0.653598   -21.00000   -1.20000
AFIX  65
C13A  1    0.815217    0.553959    0.686551   -21.00000    0.04420    0.06204 =
         0.06627   -0.00406   -0.00609    0.00151
AFIX  43
H13A  2    0.824362    0.409376    0.745474   -21.00000   -1.20000
AFIX  65
C14A  1    0.894595    0.681235    0.653530   -21.00000    0.04053    0.08806 =
         0.08584    0.00760   -0.00012    0.01282
AFIX  43
H14A  2    0.956849    0.621809    0.690360   -21.00000   -1.20000
AFIX  65
C15A  1    0.880927    0.897331    0.565463   -21.00000    0.03917    0.10127 =
         0.07353    0.00054    0.00469   -0.01435
AFIX  43
H15A  2    0.934036    0.982487    0.543370   -21.00000   -1.20000
AFIX  65
C16A  1    0.787882    0.986152    0.510416   -21.00000    0.04907    0.06439 =
         0.05968    0.00736   -0.00947   -0.02108
AFIX  43
H16A  2    0.778737    1.130735    0.451494   -21.00000   -1.20000
PART 0
AFIX   0
HKLF 4




REM  P2c_b.res in Pc
REM wR2 = 0.126799, GooF = S = 1.06740, Restrained GooF = 1.01550 for all data
REM R1 = 0.040973 for 3062 Fo > 4sig(Fo) and 0.050555 for all 3765 data
REM 315 parameters refined using 785 restraints

END

WGHT      0.0727      0.0220

REM Instructions for potential hydrogen bonds
EQIV $1 x, -y+1, z+1/2
HTAB C10 O2_$1
EQIV $2 x, y-1, z
HTAB C7A O2A_$2
EQIV $3 x, y+1, z
HTAB C10A O3A_$3

REM Highest difference peak  0.142,  deepest hole -0.105,  1-sigma level  0.024
Q1    1   0.3965  0.4930  0.6223  11.00000  0.05    0.14
Q2    1   0.1133  0.6599  0.3669  11.00000  0.05    0.13
;
_shelx_res_checksum              83250
_shelx_hkl_file
;
   0   0  -3    0.28    0.14
   0   0  -3    0.26    0.05
   0   0   3    0.13    0.06
   0   0   3    0.02    0.10
   0   0   4    1.48    0.28
   0   0   4    1.47    0.12
   0   0  -4    1.66    0.34
   0   0  -5    0.06    0.19
   0   0   5   -0.14    0.19
   0   0  -5    0.02    0.07
   0   0   5   -0.11    0.10
   0   0   6  219.74    8.22
   0   0  -6  220.50    8.09
   0   0  -6  222.22    8.20
   0   0   6  221.20    8.09
   0   0   6  218.15    8.16
   0   0   7    0.20    0.12
   0   0  -7   -0.11    0.48
   0   0   7    0.10    0.16
   0   0  -7    0.15    0.13
   0   0   8    7.71    0.42
   0   0  -8    6.96    0.41
   0   0   8    7.36    0.51
   0   0  -8    7.55    0.61
   0   0   9    0.06    0.15
   0   0   9    0.00    0.19
   0   0  -9    0.20    0.14
   0   0  -9    0.04    0.28
   0   0 -10    1.52    0.22
   0   0 -10    1.10    0.34
   0   0  10    1.72    0.30
   0   0  10    1.34    0.42
   0   0  10    1.20    0.25
   0   0  11    0.06    0.19
   0   0 -11   -0.35    0.30
   0   0  11    0.00    0.19
   0   0  12    2.06    0.42
   0   0  12    2.07    0.31
   0   0  12    1.34    0.36
   0   0 -12    2.56    0.46
   0   0  13   -0.33    0.17
   0   0  13   -0.06    0.22
   0   0 -13   -0.03    0.32
   0   1   0    1.02    0.10
   0  -1   0    1.03    0.07
   0  -1   0    0.98    0.10
   0   1   2  365.76   13.48
   0   1  -2  368.81   13.49
   0  -1   2  370.12   13.48
   0  -1  -2  367.21   13.47
   0   1   3    9.07    0.47
   0   1   3    8.88    0.37
   0   1  -3    9.30    0.49
   0   1   3    8.95    0.45
   0   1  -3   10.01    0.37
   0  -1  -3    8.11    0.44
   0  -1   3    8.22    0.35
   0  -1   3    9.65    0.38
   0  -1  -3    7.64    0.38
   0  -1  -3    8.70    0.43
   0  -1   3    8.91    0.47
   0   1   4  288.21   10.59
   0   1  -4  288.11   10.59
   0   1   4  284.71   10.58
   0   1   4  289.89   10.51
   0  -1   4  284.12   10.50
   0  -1   4  283.36   10.52
   0  -1   4  288.73   10.59
   0  -1  -4  290.82   10.59
   0  -1  -4  289.59   10.57
   0  -1  -4  283.02   10.52
   0   1   5   69.62    2.67
   0   1  -5   69.14    2.69
   0   1   5   68.17    2.57
   0   1   5   70.35    2.69
   0   1  -5   66.53    2.57
   0  -1  -5   69.01    2.66
   0  -1  -5   70.88    2.59
   0  -1   5   68.56    2.57
   0  -1   5   71.31    2.59
   0  -1   5   68.86    2.60
   0  -1   5   70.51    2.69
   0   1  -6   17.96    0.91
   0   1  -6   18.78    0.72
   0   1   6   18.99    0.73
   0   1   6   17.42    0.93
   0   1   6   17.02    0.84
   0  -1  -6   18.47    0.75
   0  -1   6   19.01    0.74
   0  -1   6   17.61    0.92
   0  -1  -6   18.03    0.84
   0  -1   6   16.99    0.72
   0  -1   6   18.03    0.77
   0   1   7   11.02    0.49
   0   1   7   10.96    0.81
   0   1  -7   10.06    0.48
   0   1   7   10.00    0.90
   0   1  -7   11.00    0.72
   0  -1   7   10.64    0.55
   0  -1  -7   10.96    0.65
   0  -1   7   11.53    0.75
   0  -1  -7   11.30    0.52
   0  -1   7   10.05    0.51
   0  -1   7   11.01    0.49
   0   1   8    2.17    0.31
   0   1   8    1.04    0.37
   0   1  -8    1.72    0.33
   0   1  -8    1.98    0.24
   0   1   8    2.26    0.27
   0  -1   8    2.30    0.32
   0  -1   8    2.22    0.31
   0  -1  -8    2.53    0.27
   0  -1   8    2.34    0.29
   0  -1  -8    2.02    0.29
   0   1   9    0.32    0.35
   0   1  -9    0.93    0.35
   0   1  -9    0.39    0.15
   0   1   9    0.64    0.16
   0   1   9    0.63    0.21
   0  -1  -9    0.73    0.29
   0  -1   9    1.03    0.36
   0  -1   9    0.51    0.20
   0  -1   9    0.45    0.18
   0  -1  -9    0.75    0.14
   0   1  10    9.75    0.95
   0   1 -10    9.58    0.78
   0   1 -10    9.42    0.52
   0   1  10    9.98    0.54
   0  -1  10    8.52    0.75
   0  -1  10   10.00    0.51
   0  -1  10    9.35    0.87
   0  -1 -10   11.11    0.76
   0  -1  10    9.60    0.54
   0  -1 -10    9.05    0.56
   0   1 -11   -0.03    0.32
   0   1  11   -0.35    0.27
   0   1  11    0.12    0.20
   0  -1 -11   -0.27    0.28
   0  -1  11   -0.25    0.17
   0  -1  11    0.14    0.21
   0   1  12    0.13    0.20
   0   1 -12    0.36    0.36
   0  -1  12    0.28    0.23
   0  -1  12    0.04    0.15
   0  -1 -12   -0.08    0.27
   0  -1  12    0.28    0.21
   0   1  13   -0.04    0.23
   0   1  13    0.01    0.23
   0   1 -13   -0.01    0.36
   0  -1  13    0.45    0.31
   0  -1  13   -0.19    0.15
   0  -1 -13    0.19    0.34
   0  -1  13   -0.18    0.21
   0   2   1   82.13    3.09
   0   2  -1   82.40    3.11
   0   2  -1   85.24    3.11
   0   2   1   86.28    3.11
   0   2   1   82.60    3.15
   0   2  -1   80.82    3.10
   0  -2  -1   80.97    3.15
   0  -2   1   82.72    3.11
   0  -2   1   89.28    3.09
   0  -2   1   87.07    3.11
   0   2  -2    4.73    0.34
   0   2   2    5.77    0.29
   0   2  -2    5.52    0.27
   0  -2   2    5.43    0.27
   0  -2   2    5.31    0.26
   0  -2  -2    4.71    0.35
   0  -2   2    5.34    0.27
   0  -2  -2    5.27    0.25
   0   2  -3  113.18    4.12
   0   2   3  109.66    4.07
   0   2  -3  109.90    4.06
   0   2   3  109.97    4.11
   0   2   3  107.10    4.15
   0  -2  -3  110.47    4.08
   0  -2   3  110.95    4.07
   0  -2   3  109.99    4.10
   0   2  -4    2.16    0.21
   0   2   4    3.31    0.41
   0   2  -4    1.95    0.26
   0   2   4    2.77    0.37
   0  -2  -4    2.33    0.34
   0  -2  -4    2.35    0.25
   0  -2   4    1.77    0.22
   0  -2   4    1.83    0.22
   0   2   5  171.12    6.22
   0   2   5  167.66    6.31
   0   2  -5  170.26    6.32
   0   2  -5  167.31    6.21
   0  -2   5  169.77    6.23
   0  -2  -5  171.88    6.33
   0  -2   5  168.98    6.30
   0  -2  -5  165.18    6.26
   0  -2   5  166.95    6.18
   0   2   6   13.57    0.81
   0   2   6   13.31    0.73
   0   2  -6   13.94    0.80
   0   2   6   13.98    0.59
   0   2  -6   14.41    0.62
   0  -2   6   13.28    0.57
   0  -2  -6   14.14    0.68
   0  -2   6   13.81    0.61
   0  -2   6   12.84    0.76
   0   2   7    0.10    0.32
   0   2  -7    0.53    0.12
   0   2   7    0.53    0.14
   0   2   7    0.20    0.18
   0   2  -7    0.38    0.40
   0  -2  -7    0.40    0.24
   0  -2   7    0.22    0.12
   0  -2   7    0.31    0.26
   0  -2   7    0.60    0.17
   0   2   8    5.56    0.72
   0   2   8    4.83    0.35
   0   2  -8    4.51    0.60
   0   2  -8    4.44    0.32
   0  -2   8    4.70    0.34
   0  -2   8    4.55    0.37
   0  -2   8    4.29    0.26
   0  -2  -8    4.99    0.46
   0   2  -9    6.84    0.47
   0   2  -9    6.66    0.69
   0   2   9    6.96    0.85
   0   2   9    6.78    0.63
   0   2   9    6.25    0.48
   0  -2  -9    5.54    0.55
   0  -2   9    8.33    0.75
   0  -2   9    6.05    0.44
   0  -2   9    6.37    0.42
   0  -2   9    6.65    0.33
   0   2 -10    3.98    0.52
   0   2  10    4.62    0.66
   0   2  10    4.06    0.61
   0   2 -10    4.09    0.36
   0   2  10    4.85    0.38
   0  -2  10    4.74    0.58
   0  -2  10    4.29    0.41
   0  -2  10    3.69    0.29
   0  -2  10    4.44    0.38
   0  -2 -10    4.92    0.56
   0   2  11    0.14    0.18
   0   2 -11   -0.22    0.32
   0  -2  11    0.19    0.11
   0  -2  11   -0.02    0.21
   0  -2 -11    0.11    0.27
   0  -2  11    0.23    0.19
   0   2  12    0.63    0.26
   0   2 -12    0.10    0.34
   0  -2 -12    0.73    0.34
   0  -2  12    0.18    0.19
   0  -2  12    0.17    0.23
   0  -2  12    0.42    0.12
   0   3   0   -0.04    0.05
   0   3   0   -0.08    0.06
   0   3   0    0.06    0.14
   0   3   0   -0.13    0.08
   0  -3   0    0.46    0.13
   0  -3   0   -0.06    0.10
   0   3  -1  161.84    5.86
   0   3   1  159.54    5.92
   0   3   1  159.12    5.83
   0   3  -1  158.89    5.87
   0   3   1  160.03    5.87
   0   3  -1  156.87    5.84
   0  -3  -1  157.33    5.92
   0  -3   1  157.14    5.87
   0  -3   1  158.22    5.88
   0   3   2  138.87    5.18
   0   3  -2  141.30    5.18
   0   3  -2  140.63    5.20
   0   3  -2  139.98    5.16
   0   3   2  141.65    5.20
   0   3   2  138.36    5.26
   0  -3   2  137.36    5.18
   0  -3  -2  135.79    5.26
   0  -3   2  146.47    5.16
   0  -3   2  141.80    5.19
   0   3  -3    4.02    0.40
   0   3   3    4.76    0.48
   0   3  -3    3.66    0.25
   0   3   3    4.09    0.33
   0   3  -3    3.86    0.19
   0  -3  -3    3.85    0.23
   0  -3   3    3.66    0.23
   0  -3  -3    4.30    0.38
   0  -3   3    4.32    0.25
   0  -3   3    3.50    0.26
   0   3   4  117.31    4.46
   0   3   4  122.01    4.41
   0   3  -4  119.17    4.47
   0  -3   4  119.99    4.41
   0  -3  -4  116.80    4.41
   0  -3   4  116.79    4.42
   0   3  -5   44.32    1.66
   0   3  -5   43.88    1.79
   0   3   5   43.52    1.78
   0   3   5   42.10    1.68
   0  -3   5   43.47    1.69
   0  -3  -5   43.06    1.69
   0  -3  -5   44.26    1.84
   0  -3   5   43.04    1.72
   0   3   6   24.10    1.34
   0   3   6   26.65    1.06
   0   3  -6   26.17    1.22
   0   3  -6   25.86    1.05
   0  -3   6   25.60    1.07
   0  -3   6   27.98    1.26
   0  -3  -6   26.40    1.10
   0   3  -7    1.01    0.34
   0   3   7    0.84    0.38
   0   3   7    1.40    0.20
   0   3  -7    1.24    0.16
   0  -3  -7    1.02    0.23
   0  -3   7    1.54    0.25
   0  -3   7    1.32    0.18
   0   3   8    2.28    0.51
   0   3  -8    3.93    0.33
   0   3   8    3.69    0.51
   0   3  -8    4.10    0.61
   0   3   8    4.23    0.37
   0  -3   8    3.94    0.37
   0  -3  -8    3.81    0.43
   0   3   9   -0.17    0.28
   0   3   9    0.34    0.47
   0   3  -9   -0.05    0.15
   0   3  -9    0.41    0.46
   0   3   9    0.10    0.18
   0  -3   9   -0.15    0.15
   0  -3   9    0.31    0.41
   0  -3  -9   -0.12    0.26
   0   3 -10    0.31    0.32
   0   3  10   -0.19    0.18
   0  -3  10    0.41    0.22
   0  -3 -10    0.08    0.23
   0   3 -11    0.45    0.33
   0   3  11    0.22    0.20
   0  -3  11    0.19    0.19
   0  -3 -11    0.28    0.26
   0   3  12    0.20    0.22
   0   3 -12    0.94    0.41
   0  -3  12    0.16    0.19
   0  -3 -12    0.26    0.29
   0   4   0    1.58    0.14
   0   4   0    2.02    0.22
   0   4   0    1.78    0.26
   0   4   0    1.73    0.18
   0  -4   0    1.77    0.24
   0  -4   0    1.33    0.23
   0   4   1    2.14    0.23
   0   4  -1    2.07    0.24
   0   4   1    2.59    0.29
   0   4   1    2.27    0.17
   0   4  -1    2.51    0.36
   0   4  -1    2.15    0.27
   0   4   1    2.56    0.19
   0  -4   1    2.55    0.29
   0  -4  -1    2.68    0.35
   0  -4   1    2.36    0.25
   0   4  -2    0.21    0.16
   0   4   2    0.14    0.10
   0   4  -2    0.02    0.19
   0   4   2    0.20    0.13
   0   4   2    0.53    0.30
   0   4  -2    0.14    0.13
   0  -4  -2    0.26    0.19
   0  -4   2    0.10    0.14
   0  -4   2    0.38    0.13
   0   4  -3    7.56    0.54
   0   4  -3    7.32    0.35
   0   4  -3    7.97    0.42
   0   4   3    7.70    0.60
   0   4   3    7.66    0.46
   0  -4  -3    7.83    0.55
   0  -4   3    7.61    0.48
   0  -4   3    7.57    0.38
   0  -4   3    7.96    0.37
   0   4   4    1.27    0.21
   0   4   4    1.70    0.27
   0   4  -4    1.23    0.17
   0   4   4    1.77    0.32
   0  -4   4    1.42    0.16
   0  -4  -4    1.02    0.25
   0   4  -5   32.77    1.32
   0   4   5   34.77    1.34
   0   4  -5   31.75    1.43
   0   4   5   32.03    1.42
   0  -4   5   33.58    1.35
   0  -4  -5   32.36    1.31
   0  -4  -5   35.93    1.52
   0  -4   5   33.54    1.34
   0   4   6    9.93    0.73
   0   4  -6    9.69    0.52
   0   4   6   10.43    0.54
   0   4  -6   10.21    0.71
   0  -4   6    9.59    0.55
   0  -4  -6    9.21    0.51
   0  -4   6   10.41    0.55
   0   4   7    1.11    0.36
   0   4   7    0.84    0.28
   0   4  -7    0.54    0.32
   0   4   7    0.33    0.26
   0  -4   7    1.30    0.23
   0  -4   7    0.86    0.22
   0  -4  -7    1.09    0.19
   0   4  -8    0.74    0.19
   0   4   8    0.65    0.17
   0   4   8    0.81    0.38
   0   4  -8    0.84    0.32
   0  -4   8    0.67    0.21
   0  -4  -8    0.51    0.18
   0   4   9    0.13    0.39
   0   4   9   -0.11    0.18
   0   4  -9   -0.29    0.30
   0  -4  -9    0.23    0.19
   0  -4   9    0.13    0.16
   0  -4   9   -0.07    0.23
   0   4 -10    2.48    0.41
   0   4  10    3.00    0.42
   0  -4 -10    2.37    0.31
   0  -4  10    2.33    0.32
   0   4 -11    0.08    0.33
   0   4  11    0.50    0.26
   0  -4  11    0.32    0.22
   0  -4 -11   -0.06    0.24
   0   5   0    0.62    0.13
   0   5   0    1.19    0.39
   0  -5   0    1.16    0.22
   0   5  -1    0.55    0.23
   0   5  -1    0.69    0.14
   0   5   1    0.80    0.28
   0  -5  -1    0.20    0.22
   0  -5   1    0.35    0.16
   0  -5   1    0.70    0.19
   0   5   2    9.57    0.51
   0   5  -2   10.64    0.54
   0   5   2   10.36    0.73
   0   5  -2   10.01    0.54
   0  -5   2   10.56    0.55
   0  -5  -2    9.45    0.66
   0  -5   2    9.25    0.73
   0   5   3    0.45    0.30
   0   5  -3    0.10    0.17
   0   5  -3    0.21    0.13
   0   5  -3    0.31    0.23
   0   5   3    0.16    0.20
   0  -5  -3    0.02    0.22
   0  -5   3    0.34    0.16
   0   5  -4    0.77    0.28
   0   5   4    1.15    0.26
   0   5   4    1.02    0.36
   0   5  -4    1.01    0.20
   0  -5  -4    0.61    0.28
   0  -5   4    0.64    0.18
   0   5  -5   20.88    1.03
   0   5   5   18.05    0.88
   0   5   5   17.85    0.93
   0   5   5   17.05    1.14
   0   5  -5   18.00    0.92
   0  -5   5   17.62    1.13
   0  -5   5   18.39    0.78
   0   5  -6    2.06    0.25
   0   5  -6    2.16    0.36
   0   5   6    2.26    0.38
   0   5   6    2.64    0.37
   0   5   6    2.19    0.49
   0  -5   6    2.56    0.29
   0  -5   6    2.11    0.27
   0   5   7    1.56    0.38
   0   5   7    0.92    0.22
   0   5  -7    1.13    0.31
   0  -5  -7    1.09    0.19
   0  -5   7    0.74    0.23
   0  -5   7    0.94    0.19
   0   5   8    1.21    0.25
   0   5  -8    0.80    0.33
   0   5   8    1.38    0.74
   0  -5   8    1.43    0.29
   0  -5  -8    0.59    0.18
   0  -5   8    0.72    0.24
   0   5   9    1.47    0.27
   0   5  -9    1.81    0.38
   0  -5  -9    2.55    0.36
   0  -5   9    1.92    0.28
   0   5 -10    0.40    0.33
   0   5  10    0.53    0.26
   0  -5  10    0.52    0.25
   0  -5 -10    0.32    0.21
   0   6   0    4.42    0.56
   0   6   0    3.59    0.41
   0   6   1    0.09    0.20
   0   6  -1    0.06    0.22
   0   6   1    0.51    0.30
   0   6  -1    0.21    0.18
   0  -6  -1    0.45    0.26
   0   6  -2    1.05    0.22
   0   6  -2    0.49    0.20
   0   6   2    0.45    0.32
   0   6   2    0.41    0.26
   0  -6   2    0.64    0.24
   0   6   3    0.46    0.34
   0   6  -3    0.34    0.14
   0   6  -3    0.27    0.27
   0  -6   3    0.28    0.19
   0   6   4    0.17    0.24
   0   6  -4    0.38    0.26
   0   6   4    0.69    0.54
   0   6   4    0.56    0.20
   0  -6   4    0.32    0.20
   0   6  -5    0.75    0.24
   0   6   5    0.86    0.28
   0   6   5    0.52    0.23
   0  -6   5    0.85    0.26
   0   6   6    1.03    0.32
   0   6   6    0.63    0.22
   0   6  -6    0.36    0.37
   0  -6   6    0.82    0.25
   0   6  -7    0.00    0.24
   0   6   7    0.26    0.32
   0   6   7   -0.04    0.27
   0  -6   7    0.14    0.17
   0  -6   7    0.23    0.23
   0   6  -8   -0.23    0.44
   0   6   8   -0.04    0.26
   0   6   8   -0.50    0.33
   0  -6   8    0.19    0.25
   0  -6   8    0.09    0.22
   0   7   0    0.03    0.28
   0   7   1    0.32    0.33
   0   7  -1    0.67    0.24
   0   7  -2   -0.06    0.18
   0   7  -3    0.23    0.13
   0  -7   3   -0.05    0.21
   0   7   4    0.30    0.37
   0  -7   4    0.23    0.25
   0   7   5    1.48    0.25
   0  -7   5    2.52    0.36
  -1   0  13   -0.09    0.43
   1   0 -13    0.04    0.34
  -1   0  13    0.35    0.24
  -1   0  13   -0.18    0.18
  -1   0  12    0.97    0.26
  -1   0  12    1.13    0.24
   1   0 -12    1.16    0.39
   1   0 -11   -0.10    0.32
  -1   0  11   -0.01    0.19
  -1   0  10   10.33    0.68
   1   0 -10   12.19    0.83
  -1   0  10    8.74    0.84
  -1   0  10   12.91    0.72
  -1   0   9    0.07    0.20
   1   0  -9    0.00    0.14
   1   0  -9    0.29    0.32
  -1   0   9    0.10    0.15
   1   0  -8    8.52    0.68
   1   0  -8    8.11    0.45
  -1   0   8    8.42    0.45
  -1   0   8    9.11    0.56
  -1   0   7    0.29    0.18
   1   0  -7    0.02    0.12
  -1   0   7    0.09    0.22
   1   0  -7    0.10    0.25
  -1   0   7    0.22    0.12
  -1   0   6   15.91    0.65
  -1   0   6   15.87    0.84
   1   0  -6   16.09    0.65
  -1   0   6   15.51    0.72
  -1   0   5    0.07    0.28
  -1   0   5    0.15    0.07
   1   0  -5    0.02    0.07
   1   0  -5    0.29    0.36
  -1   0   4    0.89    0.21
  -1   0   4    0.64    0.11
  -1   0   4    1.03    0.10
   1   0  -4    0.75    0.11
   1   0  -4    1.00    0.10
   1   0  -4    0.78    0.26
  -1   0   3    0.20    0.16
   1   0  -3    0.11    0.15
  -1   0  -2  330.58   11.95
   1   0   2  321.80   11.95
  -1   0  -3    0.23    0.05
  -1   0  -3    0.06    0.14
   1   0   3    0.45    0.15
   1   0   3    0.22    0.05
   1   0   4   18.50    0.83
   1   0   4   19.65    0.72
   1   0   4   17.80    0.77
  -1   0  -4   18.72    0.72
   1   0   5   -0.01    0.08
   1   0   5    0.16    0.11
  -1   0  -5   -0.09    0.07
  -1   0  -5   -0.03    0.21
   1   0   5   -0.04    0.15
   1   0   6   14.48    0.57
   1   0   6   12.63    0.64
  -1   0  -6   13.62    0.56
   1   0   6   11.60    0.76
   1   0   7   -0.02    0.12
   1   0   7    0.07    0.15
   1   0   7    0.15    0.13
  -1   0  -7   -0.26    0.20
  -1   0  -7    0.18    0.12
   1   0   8   11.15    0.98
  -1   0  -8   12.39    0.74
   1   0   8   12.90    0.58
   1   0   9   -0.15    0.17
  -1   0  -9    0.18    0.10
   1   0   9   -0.05    0.15
  -1   0  -9    0.10    0.25
   1   0  10    2.72    0.49
  -1   0 -10    2.13    0.31
   1   0  10    2.67    0.26
  -1   0 -10    1.90    0.36
   1   0  10    3.55    0.45
   1   0  10    2.86    0.38
   1   0  11    0.05    0.20
   1   0  11    0.01    0.22
  -1   0 -11   -0.09    0.32
  -1   0 -12    8.98    0.80
   1   0  12    8.33    0.62
   1   0  12    9.14    0.60
   1   0  12    8.64    0.74
   1   0  13   -0.03    0.23
  -1   0 -13    0.34    0.38
   1   0  13   -0.10    0.20
  -1   1  13   -0.20    0.22
   1   1 -13   -0.48    0.34
  -1  -1  13   -0.09    0.21
  -1  -1  13   -0.05    0.15
   1  -1 -13   -0.05    0.34
   1   1 -12    0.53    0.39
  -1   1  12    0.39    0.21
   1  -1 -12    0.27    0.34
  -1  -1  12    0.27    0.16
  -1  -1  12    0.27    0.24
  -1  -1  12   -0.01    0.21
  -1   1  11    1.04    0.21
  -1   1  11    0.82    0.48
   1   1 -11    0.68    0.35
  -1  -1  11    1.13    0.19
  -1  -1  11    1.68    0.27
  -1  -1  11    0.71    0.24
   1  -1 -11    1.07    0.35
  -1   1  10   11.09    0.96
   1   1 -10   11.73    0.85
  -1   1  10   11.59    0.67
   1   1 -10   10.57    0.62
  -1  -1  10   11.67    0.91
   1  -1 -10   11.51    0.63
  -1  -1  10   11.95    0.56
   1  -1 -10   11.54    0.81
  -1  -1  10   11.29    0.66
   1   1  -9   15.21    0.67
  -1   1   9   12.13    0.95
   1   1  -9   16.28    0.94
  -1   1   9   15.90    0.68
  -1   1   9   14.49    0.81
  -1  -1   9   14.31    0.69
  -1  -1   9   15.58    0.67
   1  -1  -9   15.57    0.88
  -1  -1   9   15.87    0.76
   1  -1  -9   15.66    0.71
  -1  -1   9   12.73    0.98
  -1   1   8   14.91    1.01
   1   1  -8   17.27    0.74
  -1   1   8   18.26    0.75
  -1   1   8   18.01    0.90
   1   1  -8   18.51    1.00
  -1  -1   8   17.90    0.81
  -1  -1   8   18.37    0.77
   1  -1  -8   18.35    0.93
   1  -1  -8   18.42    0.78
  -1   1   7   16.64    0.67
   1   1  -7   15.28    0.67
   1   1  -7   15.81    0.92
  -1   1   7   15.84    0.83
  -1   1   7   15.40    0.94
  -1  -1   7   15.87    0.69
   1  -1  -7   16.29    0.83
  -1  -1   7   16.10    0.73
   1  -1  -7   16.71    0.70
  -1  -1   7   16.99    0.89
   1   1  -6   12.82    0.51
  -1   1   6   11.16    0.74
  -1   1   6   13.40    0.51
  -1   1   6   11.53    0.63
   1   1  -6   12.51    0.76
  -1  -1   6   11.47    0.70
  -1  -1   6   11.28    0.55
   1  -1  -6   11.28    0.63
   1  -1  -6   12.22    0.66
   1  -1  -6   10.43    0.52
  -1  -1   6   12.53    0.53
  -1   1   5    2.24    0.31
   1   1  -5    2.75    0.41
  -1   1   5    2.12    0.29
  -1   1   5    3.33    0.25
   1  -1  -5    2.77    0.21
  -1  -1   5    2.17    0.32
  -1  -1   5    2.39    0.22
   1  -1  -5    3.54    0.44
   1  -1  -5    2.53    0.36
  -1  -1   5    2.57    0.30
  -1   1   4  980.55   36.03
  -1   1   4  990.28   36.03
   1   1  -4  984.64   36.04
   1  -1  -4  983.38   36.02
   1  -1  -4  968.68   36.03
  -1  -1   4 1000.00   36.03
   1   1  -3  776.06   28.55
  -1   1   3  783.46   28.55
  -1   1   3  781.03   28.54
  -1  -1   3  779.93   28.54
  -1   1   2  583.09   21.05
  -1   1   2  570.78   21.03
   1   1  -2  573.20   21.03
  -1  -1   2  572.61   21.03
  -1   1   0  183.81    6.65
   1   1   0  162.08    6.62
   1  -1   0  184.45    6.61
  -1  -1   0  190.02    6.59
  -1   1  -1  229.27    8.82
   1   1   1  268.40    8.87
   1  -1   1  225.75    8.83
   1   1   3   23.38    0.95
  -1   1  -3   22.38    0.89
  -1   1  -3   24.60    0.96
   1   1   3   23.26    0.96
   1   1   3   22.56    0.89
   1  -1   3   23.20    0.88
   1  -1   3   22.64    0.89
   1  -1   3   25.08    0.97
  -1  -1  -3   23.39    0.89
  -1  -1  -3   23.04    0.92
  -1   1  -4   60.34    2.34
   1   1   4   58.70    2.34
  -1   1  -4   60.12    2.26
   1   1   4   61.65    2.35
   1   1   4   59.61    2.26
   1  -1   4   61.56    2.26
   1  -1   4   61.80    2.27
  -1  -1  -4   60.98    2.32
  -1  -1  -4   62.02    2.27
   1  -1   4   61.73    2.35
   1   1   5   21.44    0.84
   1   1   5   21.32    0.98
  -1   1  -5   20.95    0.84
  -1   1  -5   22.26    0.97
   1   1   5   21.46    0.94
   1  -1   5   21.32    0.88
   1  -1   5   20.81    0.85
  -1  -1  -5   22.03    0.85
  -1  -1  -5   21.73    0.92
   1  -1   5   22.16    1.00
   1  -1   5   21.21    0.84
   1   1   6    9.06    0.54
  -1   1  -6    9.37    0.44
  -1   1  -6   10.71    0.62
   1   1   6    9.48    0.44
   1   1   6   10.45    0.69
   1  -1   6    9.64    0.49
   1  -1   6    9.75    0.46
  -1  -1  -6    9.55    0.49
   1  -1   6   10.04    0.44
   1  -1   6   10.73    0.69
  -1  -1  -6    9.54    0.55
   1   1   7   12.75    0.62
   1   1   7   12.11    0.68
   1   1   7   12.08    0.78
  -1   1  -7   11.42    0.75
  -1   1  -7   12.29    0.53
  -1  -1  -7   10.69    0.54
  -1  -1  -7   12.78    0.89
   1  -1   7   12.86    0.82
   1  -1   7   12.09    0.53
   1  -1   7   11.38    0.62
   1  -1   7   12.53    0.60
   1   1   8    0.00    0.17
   1   1   8    0.25    0.26
  -1   1  -8   -0.06    0.23
  -1  -1  -8    0.19    0.22
   1  -1   8    0.00    0.12
   1  -1   8   -0.12    0.14
   1  -1   8   -0.10    0.14
   1   1   9   -0.18    0.35
  -1   1  -9    0.36    0.27
   1   1   9    0.30    0.16
  -1   1  -9    0.23    0.12
   1   1   9    0.09    0.15
   1  -1   9    0.52    0.19
  -1  -1  -9    0.05    0.24
   1  -1   9   -0.14    0.33
   1  -1   9    0.25    0.14
   1  -1   9    0.38    0.19
  -1  -1  -9    0.05    0.10
   1   1  10    7.42    0.94
  -1   1 -10    8.05    0.72
   1   1  10    8.08    0.63
   1   1  10    8.34    0.49
  -1   1 -10    6.83    0.45
   1  -1  10    8.28    0.46
  -1  -1 -10    8.62    0.67
   1  -1  10    7.56    0.49
   1  -1  10    7.69    0.55
   1  -1  10    8.00    0.87
  -1   1 -11    2.62    0.43
   1   1  11    2.81    0.41
   1   1  11    2.07    0.26
   1  -1  11    2.83    0.34
  -1  -1 -11    2.83    0.40
   1  -1  11    2.98    0.39
   1  -1  11    2.85    0.33
  -1   1 -12   -0.27    0.32
   1   1  12    0.27    0.23
   1  -1  12    0.53    0.18
   1  -1  12    0.22    0.23
  -1  -1 -12    0.00    0.31
   1   2 -12    0.38    0.36
  -1   2  12    0.29    0.23
  -1  -2  12    0.14    0.22
   1  -2 -12    0.13    0.30
  -1   2  11    0.24    0.18
   1   2 -11   -0.39    0.36
  -1  -2  11    0.03    0.20
   1  -2 -11    0.26    0.27
  -1  -2  11    0.19    0.10
  -1  -2  11    0.03    0.17
  -1   2  10    1.23    0.34
   1   2 -10    0.28    0.33
  -1   2  10    0.83    0.20
  -1   2  10    0.70    0.40
   1   2 -10    0.62    0.18
  -1  -2  10    0.70    0.12
  -1  -2  10    0.89    0.21
   1  -2 -10    0.60    0.29
  -1  -2  10    0.58    0.34
  -1  -2  10    1.06    0.19
  -1   2   9    4.08    0.53
   1   2  -9    3.49    0.32
  -1   2   9    3.55    0.35
   1   2  -9    3.33    0.42
  -1  -2   9    3.87    0.24
  -1  -2   9    4.98    0.61
  -1  -2   9    4.10    0.34
  -1  -2   9    4.37    0.38
   1  -2  -9    4.35    0.50
   1   2  -8   21.09    1.12
  -1   2   8   21.54    0.88
   1   2  -8   20.94    0.87
  -1   2   8   21.21    1.16
  -1  -2   8   21.37    0.90
   1  -2  -8   21.16    1.01
  -1  -2   8   21.34    0.87
  -1  -2   8   20.76    0.82
   1   2  -7    0.51    0.40
   1   2  -7    0.34    0.12
  -1   2   7    0.50    0.35
  -1   2   7    0.07    0.14
  -1   2   7    0.16    0.25
  -1  -2   7    0.23    0.12
  -1  -2   7    0.31    0.20
  -1  -2   7   -0.04    0.24
   1  -2  -7    0.07    0.19
   1   2  -6    9.98    0.68
  -1   2   6    8.29    0.59
   1   2  -6    7.86    0.45
  -1   2   6    7.72    0.68
  -1   2   6    8.54    0.42
   1  -2  -6    9.10    0.53
   1  -2  -6    9.08    0.59
  -1  -2   6    8.52    0.60
  -1  -2   6    9.32    0.44
   1   2  -5   60.72    2.33
   1   2  -5   57.91    2.19
  -1   2   5   59.28    2.31
  -1   2   5   59.14    2.21
  -1   2   5   58.42    2.32
   1  -2  -5   58.14    2.32
   1  -2  -5   55.33    2.27
  -1  -2   5   59.54    2.29
  -1  -2   5   59.96    2.21
  -1   2   4  122.54    4.69
  -1   2   4  126.50    4.60
   1   2  -4  126.58    4.68
   1   2  -4  124.58    4.58
  -1   2   4  126.87    4.66
   1  -2  -4  124.49    4.62
   1  -2  -4  123.12    4.69
  -1  -2   4  117.07    4.63
  -1  -2   4  127.55    4.64
  -1   2   3  986.09   35.88
   1   2  -3  979.67   35.90
  -1   2   3  987.90   35.93
  -1  -2   3  998.77   35.88
   1  -2  -3  954.14   35.93
   1   2  -2  228.04    8.37
   1   2  -2  232.09    8.39
  -1   2   2  223.28    8.45
  -1   2   2  225.87    8.40
   1   2  -2  227.28    8.42
  -1  -2   2  230.65    8.40
   1  -2  -2  229.18    8.46
  -1  -2   2  233.64    8.40
   1  -2  -2  232.10    8.39
  -1  -2   2  226.14    8.37
   1   2  -1   10.58    0.45
  -1   2   1   11.65    0.44
  -1   2   1   11.36    0.52
   1   2  -1   10.95    0.46
   1   2  -1   11.17    0.45
   1  -2  -1   11.21    0.51
  -1  -2   1    9.74    0.45
  -1  -2   1    9.94    0.43
  -1  -2   1   11.11    0.45
  -1   2   0  357.01   13.21
   1   2   0  359.22   13.21
  -1   2   0  367.02   13.19
  -1  -2   0  354.13   13.21
  -1  -2   0  360.21   13.19
   1  -2   0  364.57   13.22
   1   2   1  364.98   13.29
  -1   2  -1  368.35   13.24
   1   2   1  369.38   13.25
  -1   2  -1  366.04   13.24
  -1   2  -1  370.54   13.24
   1  -2   1  367.93   13.26
  -1  -2  -1  364.11   13.28
   1  -2   1  322.55   13.23
  -1   2  -2   47.55    1.79
  -1   2  -2   48.92    1.81
   1   2   2   48.71    1.83
  -1   2  -2   48.39    1.84
   1   2   2   48.23    1.88
   1  -2   2   48.22    1.82
   1  -2   2   48.39    1.82
   1  -2   2   47.57    1.82
  -1  -2  -2   48.01    1.88
  -1  -2  -2   50.29    1.81
   1   2   3  635.21   23.32
   1   2   3  634.05   23.37
  -1   2  -3  642.06   23.33
  -1  -2  -3  640.28   23.30
  -1  -2  -3  625.50   23.38
   1  -2   3  644.39   23.32
  -1   2  -4  241.55    8.86
   1   2   4  237.42    8.80
   1   2   4  236.07    8.89
  -1   2  -4  235.37    8.79
   1   2   4  238.56    8.86
   1  -2   4  242.42    8.86
   1  -2   4  240.80    8.81
   1  -2   4  241.76    8.77
  -1  -2  -4  243.23    8.83
  -1   2  -5    3.62    0.45
   1   2   5    3.74    0.27
   1   2   5    4.30    0.47
   1   2   5    4.45    0.41
   1  -2   5    3.85    0.22
   1  -2   5    4.48    0.45
  -1  -2  -5    4.48    0.33
   1  -2   5    3.99    0.28
   1   2   7    1.36    0.24
   1   2   7    1.54    0.18
  -1   2  -7    1.55    0.20
   1   2   7    1.84    0.40
   1  -2   7    1.53    0.17
   1  -2   7    1.55    0.23
  -1  -2  -7    1.50    0.25
   1  -2   7    1.88    0.33
   1  -2   7    1.54    0.18
   1   2   8    3.53    0.31
  -1   2  -8    3.70    0.29
   1   2   8    3.38    0.48
  -1   2  -8    2.63    0.38
   1  -2   8    3.05    0.33
   1  -2   8    3.62    0.24
   1  -2   8    3.45    0.32
  -1  -2  -8    3.69    0.43
  -1   2  -9    8.30    0.57
  -1   2  -9    8.57    0.69
   1   2   9    8.57    0.60
   1   2   9    9.06    0.70
   1  -2   9    6.63    0.46
  -1  -2  -9    7.78    0.63
   1  -2   9    8.07    0.74
   1  -2   9    9.16    0.91
   1  -2   9    7.46    0.48
  -1   2 -10    0.29    0.30
   1   2  10    0.18    0.18
   1   2  10   -0.51    0.26
   1  -2  10    0.24    0.20
  -1  -2 -10   -0.22    0.24
   1  -2  10    0.51    0.41
   1  -2  10    0.00    0.11
   1  -2  10    0.02    0.17
   1   2  11    0.37    0.20
  -1   2 -11    0.22    0.33
   1  -2  11    0.54    0.23
  -1  -2 -11    0.00    0.27
   1  -2  11    0.43    0.20
   1  -2  11    0.41    0.13
  -1   2 -12    0.10    0.49
   1   2  12    0.24    0.26
   1  -2  12   -0.05    0.12
   1  -2  12    0.53    0.45
  -1  -2 -12    0.20    0.47
  -1   3  12   -0.17    0.21
   1   3 -12    0.12    0.42
  -1  -3  12    0.21    0.31
  -1   3  11    0.08    0.21
   1   3 -11    0.63    0.38
   1  -3 -11    0.33    0.27
  -1  -3  11    0.27    0.22
  -1   3  10    1.51    0.24
   1   3 -10    1.12    0.37
   1  -3 -10    1.60    0.29
  -1  -3  10    1.35    0.25
   1   3  -9    0.57    0.17
   1   3  -9    0.46    0.41
  -1   3   9    0.91    0.73
  -1   3   9    0.86    0.19
  -1   3   9    0.67    0.34
   1  -3  -9    0.67    0.24
  -1  -3   9    0.12    0.44
  -1  -3   9    0.37    0.19
  -1   3   8    8.16    0.46
   1   3  -8    8.14    0.74
  -1   3   8    9.39    0.75
  -1   3   8    7.26    0.78
   1   3  -8    7.33    0.43
   1  -3  -8    7.52    0.54
  -1  -3   8    7.58    0.48
  -1   3   7    3.12    0.44
   1   3  -7    3.70    0.31
   1   3  -7    2.50    0.44
  -1   3   7    3.85    0.33
   1  -3  -7    2.82    0.39
   1  -3  -7    4.19    0.61
  -1  -3   7    3.81    0.44
  -1  -3   7    3.90    0.34
  -1   3   6    4.34    0.36
   1   3  -6    4.99    0.33
   1   3  -6    5.21    0.64
  -1   3   6    4.14    0.48
   1  -3  -6    4.95    0.38
  -1  -3   6    4.34    0.42
   1  -3  -6    4.02    0.53
  -1   3   5    0.64    0.15
   1   3  -5    0.97    0.30
   1   3  -5    1.01    0.17
  -1   3   5    0.68    0.27
  -1   3   5    0.49    0.20
   1  -3  -5    0.78    0.17
  -1  -3   5    1.10    0.17
   1  -3  -5    0.53    0.21
  -1  -3   5    0.91    0.18
  -1   3   4    0.24    0.21
   1   3  -4    0.14    0.28
   1   3  -4   -0.02    0.10
  -1   3   4   -0.03    0.12
  -1  -3   4    0.05    0.12
   1  -3  -4    0.13    0.10
   1  -3  -4    0.17    0.18
  -1  -3   4   -0.03    0.10
  -1   3   3   18.32    0.77
   1   3  -3   18.51    0.76
  -1   3   3   19.25    0.89
  -1   3   3   18.05    0.80
   1   3  -3   18.49    0.84
   1  -3  -3   19.06    0.74
   1  -3  -3   17.92    0.87
  -1  -3   3   19.16    0.76
  -1  -3   3   18.70    0.77
  -1   3   2   17.44    0.84
  -1   3   2   18.15    0.74
  -1   3   2   17.96    0.75
   1   3  -2   17.77    0.73
   1   3  -2   17.94    0.73
   1   3  -2   18.16    0.77
  -1  -3   2   18.77    0.72
   1  -3  -2   17.34    0.83
  -1  -3   2   17.70    0.72
  -1  -3   2   18.68    0.74
   1   3  -1    8.81    0.38
  -1   3   1    7.55    0.48
  -1   3   1    7.69    0.39
   1   3  -1    8.19    0.43
   1   3  -1    8.20    0.38
  -1  -3   1    6.54    0.41
  -1  -3   1    8.40    0.40
   1  -3  -1    9.04    0.47
   1   3   0   21.62    0.85
   1   3   0   23.32    0.94
  -1   3   0   22.73    0.94
   1   3   0   22.41    0.85
  -1   3   0   21.61    0.88
   1   3   0   21.91    0.88
  -1  -3   0   22.72    0.93
   1  -3   0   22.73    0.94
  -1  -3   0   20.79    0.92
  -1   3  -1   51.44    1.89
   1   3   1   48.72    1.87
  -1   3  -1   49.48    1.90
  -1   3  -1   48.67    1.87
   1   3   1   48.29    1.95
   1   3   1   52.89    1.90
   1  -3   1   52.03    1.90
  -1  -3  -1   48.32    1.95
   1  -3   1   48.87    1.92
   1   3   2   30.52    1.19
  -1   3  -2   31.02    1.19
   1   3   2   30.58    1.20
  -1   3  -2   30.94    1.17
   1   3   2   29.61    1.27
   1  -3   2   30.99    1.16
   1  -3   2   30.28    1.20
   1  -3   2   30.59    1.20
  -1  -3  -2   29.91    1.27
  -1   3  -3   35.04    1.34
  -1   3  -3   36.47    1.43
   1   3   3   35.87    1.41
  -1   3  -3   35.87    1.38
   1   3   3   35.55    1.49
  -1  -3  -3   35.99    1.49
   1  -3   3   36.50    1.40
   1  -3   3   35.50    1.38
  -1  -3  -3   36.83    1.38
   1  -3   3   35.14    1.38
  -1   3  -4   37.24    1.48
  -1   3  -4   35.60    1.34
   1   3   4   37.38    1.47
   1   3   4   36.12    1.40
   1  -3   4   35.68    1.37
  -1  -3  -4   33.17    1.41
   1  -3   4   36.45    1.41
   1  -3   4   36.11    1.42
   1   3   5    1.06    0.28
  -1   3  -5    0.80    0.14
   1   3   5    0.66    0.17
   1   3   5    0.46    0.18
  -1   3  -5    0.64    0.25
   1  -3   5    0.88    0.20
   1  -3   5    0.81    0.14
  -1  -3  -5    0.58    0.14
   1   3   6    4.03    0.54
  -1   3  -6    4.00    0.51
  -1   3  -6    3.54    0.30
   1   3   6    3.69    0.31
   1  -3   6    3.59    0.31
   1  -3   6    3.34    0.53
  -1  -3  -6    3.75    0.35
  -1   3  -7    1.32    0.17
   1   3   7    1.05    0.17
   1   3   7    1.37    0.34
  -1   3  -7    0.98    0.30
   1  -3   7    1.19    0.19
   1  -3   7    1.95    0.30
  -1  -3  -7    1.53    0.24
  -1   3  -8   15.43    0.88
   1   3   8   15.85    0.77
   1   3   8   14.77    1.00
   1  -3   8   14.03    0.73
  -1  -3  -8   15.78    0.78
   1   3   9    0.02    0.34
   1   3   9    0.33    0.37
   1   3   9    0.10    0.18
  -1   3  -9    0.13    0.16
  -1   3  -9    0.26    0.48
   1  -3   9    0.04    0.29
  -1  -3  -9    0.23    0.22
   1  -3   9    0.35    0.20
  -1   3 -10    0.86    0.33
   1   3  10    0.29    0.21
  -1  -3 -10    0.38    0.23
   1  -3  10    0.12    0.17
   1   3  11   -0.04    0.18
  -1   3 -11    0.01    0.32
  -1  -3 -11   -0.28    0.23
   1  -3  11    0.04    0.23
   1   3  12    2.52    0.38
  -1   3 -12    2.77    0.44
  -1  -3 -12    2.27    0.39
   1   4 -11    0.10    0.36
  -1   4  11    0.34    0.25
   1  -4 -11    0.51    0.26
   1   4 -10    0.09    0.35
  -1   4  10    0.08    0.22
  -1  -4  10    0.12    0.20
   1  -4 -10    0.49    0.25
  -1   4   9    1.44    0.24
  -1   4   9    0.67    0.40
   1   4  -9    1.23    0.37
  -1  -4   9    1.11    0.28
   1  -4  -9    0.64    0.38
  -1  -4   9    1.39    0.27
  -1   4   8    2.84    0.46
  -1   4   8    2.74    0.35
   1   4  -8    2.42    0.43
   1   4  -8    2.10    0.23
   1  -4  -8    2.78    0.35
  -1  -4   8    1.41    0.31
  -1  -4   8    2.58    0.34
  -1   4   7    9.37    0.68
   1   4  -7    8.06    0.47
  -1   4   7    7.87    0.75
   1   4  -7    8.72    0.74
   1  -4  -7    8.37    0.53
  -1  -4   7    9.05    0.54
  -1  -4   7    8.82    0.52
   1  -4  -7    8.78    0.96
  -1   4   6    3.44    0.35
  -1   4   6    2.74    0.64
   1   4  -6    2.54    0.39
   1   4  -6    3.23    0.33
   1  -4  -6    2.63    0.31
  -1  -4   6    2.95    0.34
  -1  -4   6    3.14    0.35
   1   4  -5    7.77    0.45
   1   4  -5    8.40    0.68
  -1   4   5    8.89    0.49
  -1   4   5    8.21    0.62
  -1  -4   5    8.79    0.48
  -1  -4   5    7.94    0.46
   1  -4  -5    8.51    0.65
   1  -4  -5    8.40    0.42
   1   4  -4    3.63    0.52
   1   4  -4    3.35    0.30
  -1   4   4    3.15    0.44
  -1   4   4    4.02    0.55
   1  -4  -4    3.36    0.47
  -1  -4   4    2.81    0.25
  -1  -4   4    2.26    0.28
   1  -4  -4    2.69    0.22
  -1   4   3   55.97    2.28
  -1   4   3   55.16    2.15
   1   4  -3   55.36    2.20
   1   4  -3   55.58    2.14
   1   4  -3   54.60    2.09
  -1  -4   3   57.61    2.16
  -1  -4   3   58.62    2.12
   1  -4  -3   56.04    2.27
  -1   4   2   27.34    1.09
   1   4  -2   27.77    1.13
   1   4  -2   27.86    1.11
   1   4  -2   27.12    1.11
  -1   4   2   27.94    1.55
  -1  -4   2   27.99    1.11
   1  -4  -2   27.03    1.21
  -1  -4   2   27.79    1.12
   1   4  -1    1.64    0.20
  -1   4   1    1.38    0.26
   1   4  -1    1.68    0.23
   1   4  -1    1.69    0.23
  -1   4   1    1.09    0.15
  -1  -4   1    1.41    0.18
  -1  -4   1    1.30    0.17
   1  -4  -1    1.37    0.23
  -1   4   0   35.04    1.51
   1   4   0   39.83    1.47
   1   4   0   39.32    1.58
  -1   4   0   39.53    1.58
   1   4   0   39.05    1.47
   1   4   0   40.07    1.54
   1  -4   0   40.24    1.53
  -1  -4   0   37.54    1.64
   1  -4   0   38.25    1.57
  -1   4  -1    8.07    0.49
   1   4   1    8.31    0.54
   1   4   1    6.67    0.34
   1   4   1    7.79    0.36
   1   4   1    6.83    0.41
   1  -4   1    6.36    0.41
   1  -4   1    8.09    0.47
  -1  -4  -1    8.27    0.50
   1   4   2   15.26    0.65
  -1   4  -2   13.34    0.65
  -1   4  -2   15.71    0.66
   1   4   2   14.25    0.67
  -1   4  -2   15.35    0.68
   1   4   2   15.25    1.13
   1  -4   2   16.39    0.69
  -1  -4  -2   15.20    0.77
   1  -4   2   15.15    0.68
  -1   4  -3    6.13    0.31
   1   4   3    6.72    0.54
  -1   4  -3    6.25    0.46
   1   4   3    6.35    0.41
  -1   4  -3    5.77    0.37
   1  -4   3    6.02    0.30
  -1  -4  -3    5.96    0.50
   1  -4   3    6.67    0.47
   1  -4   3    5.84    0.36
  -1   4  -4    2.24    0.16
   1   4   4    2.45    0.27
  -1   4  -4    3.14    0.41
   1   4   4    2.42    0.32
   1   4   4    1.98    0.31
   1  -4   4    2.16    0.22
   1  -4   4    2.00    0.22
   1  -4   4    2.01    0.23
  -1   4  -5    7.82    0.57
   1   4   5    8.13    0.72
   1   4   5    8.13    0.47
  -1   4  -5    8.10    0.45
   1  -4   5    7.98    0.46
   1  -4   5    8.27    0.48
  -1  -4  -5    7.95    0.43
   1   4   6    2.15    0.31
   1   4   6    2.13    0.35
  -1   4  -6    2.22    0.31
  -1   4  -6    1.95    0.31
  -1  -4  -6    1.80    0.23
   1  -4   6    1.92    0.24
   1  -4   6    2.28    0.28
   1   4   7    7.27    0.47
   1   4   7    7.03    0.71
  -1   4  -7    7.34    0.61
  -1   4  -7    7.36    0.50
   1  -4   7    6.62    0.52
  -1  -4  -7    6.88    0.45
   1  -4   7    6.09    0.67
   1   4   8    0.80    0.22
  -1   4  -8    1.05    0.30
   1   4   8    0.63    0.39
   1  -4   8    0.63    0.20
  -1  -4  -8    0.86    0.21
   1   4   9    0.27    0.41
   1   4   9    0.37    0.20
  -1   4  -9    0.42    0.30
   1  -4   9    0.45    0.19
  -1  -4  -9    0.25    0.20
   1  -4   9    0.20    0.26
   1   4  10    0.12    0.22
  -1   4 -10    0.25    0.31
   1  -4  10    0.15    0.23
  -1  -4 -10    0.15    0.22
   1   4  11    0.21    0.25
  -1   4 -11    0.00    0.33
   1  -4  11    0.09    0.19
  -1  -4 -11    0.91    0.30
  -1   5  10    1.41    0.30
   1   5 -10    0.36    0.34
   1  -5 -10    0.61    0.21
  -1  -5  10    1.52    0.32
  -1   5   9    0.44    0.37
  -1   5   9   -0.08    0.20
   1   5  -9    0.16    0.32
  -1  -5   9   -0.07    0.21
   1  -5  -9    0.26    0.17
  -1   5   8    0.08    0.34
  -1   5   8    0.02    0.20
   1   5  -8    0.39    0.35
  -1  -5   8   -0.27    0.18
   1  -5  -8    0.04    0.14
   1   5  -7    0.09    0.30
  -1   5   7   -0.39    0.29
  -1   5   7   -0.16    0.19
   1  -5  -7   -0.05    0.13
  -1  -5   7   -0.13    0.13
  -1  -5   7    0.19    0.20
  -1   5   6    0.47    0.34
  -1   5   6    0.63    0.41
  -1   5   6    0.33    0.30
   1   5  -6    1.12    0.55
   1   5  -6    0.51    0.20
  -1   5   6    0.30    0.22
   1  -5  -6    0.31    0.13
  -1  -5   6    0.49    0.20
  -1  -5   6    0.26    0.15
   1  -5  -6    0.68    0.32
   1   5  -5    1.16    0.26
  -1   5   5    1.47    0.41
   1   5  -5    1.77    0.34
  -1   5   5    1.79    0.32
  -1   5   5    1.69    0.31
  -1  -5   5    1.67    0.24
  -1  -5   5    2.01    0.26
   1  -5  -5    2.37    0.61
   1   5  -4    0.06    0.17
   1   5  -4   -0.11    0.27
  -1   5   4   -0.11    0.23
  -1   5   4   -0.16    0.28
   1  -5  -4   -0.03    0.23
  -1  -5   4   -0.10    0.16
   1   5  -3    9.68    0.45
  -1   5   3    9.50    0.54
   1   5  -3    8.55    0.63
   1   5  -3    9.12    0.52
  -1   5   3    9.94    0.74
   1  -5  -3   10.44    0.70
  -1  -5   3   10.08    0.54
   1   5  -2   10.83    0.54
  -1   5   2   10.02    0.73
   1   5  -2   10.43    0.59
   1   5  -2    9.92    0.56
   1  -5  -2    9.87    0.67
  -1  -5   2   10.64    0.55
   1   5  -1    4.89    0.37
   1   5  -1    5.10    0.27
   1   5  -1    5.44    0.38
  -1   5   1    5.20    0.56
   1   5  -1    4.51    0.47
  -1  -5   1    5.02    0.38
   1  -5  -1    4.61    0.47
   1   5   0    2.97    0.45
   1   5   0    2.67    0.26
  -1   5   0    2.49    0.45
   1   5   0    2.50    0.31
   1   5   0    2.54    0.21
   1  -5   0    2.58    0.31
   1   5   1    2.29    0.21
   1   5   1    2.50    0.37
   1   5   1    2.59    0.31
  -1   5  -1    2.13    0.28
   1   5   1    2.15    0.24
   1  -5   1    2.53    0.31
   1  -5   1    2.53    0.29
   1   5   2   23.20    1.14
  -1   5  -2   24.09    0.96
   1   5   2   22.59    0.95
   1   5   2   22.54    0.90
   1  -5   2   21.98    0.99
   1  -5   2   21.87    1.01
   1   5   3    5.51    0.65
  -1   5  -3    6.40    0.42
  -1   5  -3    7.36    0.44
   1   5   3    6.06    0.46
  -1   5  -3    6.51    0.37
   1  -5   3    7.57    0.46
   1  -5   3    6.62    0.42
  -1   5  -4    4.32    0.41
   1   5   4    3.99    0.48
   1   5   4    5.03    0.48
  -1   5  -4    4.58    0.25
  -1   5  -4    4.63    0.44
   1   5   4    3.83    0.41
   1  -5   4    4.26    0.39
   1  -5   4    3.95    0.28
   1  -5   4    4.32    0.30
   1   5   5    6.51    0.48
   1   5   5    7.29    0.73
  -1   5  -5    6.37    0.46
   1   5   5    6.44    0.45
  -1   5  -5    6.77    0.50
   1   5   5    6.13    0.58
   1  -5   5    6.83    0.51
   1  -5   5    6.52    0.38
   1   5   6    0.20    0.60
  -1   5  -6    1.58    0.27
   1   5   6    1.05    0.24
  -1   5  -6    0.94    0.21
   1   5   6    1.48    0.35
   1  -5   6    0.95    0.22
   1  -5   6    0.87    0.17
  -1   5  -7    5.18    0.52
   1   5   7    4.85    0.70
   1   5   7    4.95    0.44
   1  -5   7    4.60    0.45
  -1  -5  -7    4.43    0.37
   1  -5   7    5.04    0.39
  -1   5  -8    5.68    0.59
   1   5   8    6.51    0.50
   1   5   8    5.98    0.79
  -1  -5  -8    6.72    0.68
   1  -5   8    6.29    0.53
   1  -5   8    6.89    0.50
  -1   5  -9    2.22    0.37
   1   5   9    1.54    0.37
   1  -5   9    1.29    0.46
   1  -5   9    1.71    0.35
  -1  -5  -9    1.65    0.25
  -1   6   8    0.35    0.33
   1   6  -8    0.70    0.31
  -1   6   8    0.37    0.25
  -1  -6   8    0.24    0.46
  -1  -6   8    0.19    0.19
  -1   6   7    0.53    0.29
   1   6  -7    0.20    0.29
  -1   6   7    0.51    0.28
  -1  -6   7    0.41    0.26
   1   6  -6    1.15    0.31
  -1   6   6    0.62    0.23
  -1  -6   6    0.58    0.22
  -1   6   5    1.08    0.25
   1   6  -5    0.73    0.28
  -1   6   5    0.71    0.23
  -1  -6   5    0.71    0.25
   1   6  -4    0.56    0.27
  -1   6   4    0.17    0.53
   1  -6  -4    0.40    0.30
  -1  -6   4    0.47    0.19
   1   6  -3    1.03    0.26
   1   6  -3    1.33    0.25
   1   6  -3    1.22    0.16
  -1   6   3    1.62    0.40
   1  -6  -3    0.19    0.32
  -1  -6   3    1.29    0.24
  -1   6   2    0.05    0.24
  -1   6   2    0.22    0.32
   1   6  -2    0.29    0.18
   1   6  -2    0.16    0.19
   1  -6  -2    0.25    0.26
  -1  -6   2    0.09    0.18
  -1   6   1    0.78    0.32
  -1   6   1    0.81    0.23
   1   6  -1    1.54    0.28
   1   6  -1    0.60    0.20
   1  -6  -1    0.94    0.27
  -1   6   0    1.92    0.26
  -1   6   0    2.08    0.34
   1   6   0    2.73    0.36
   1   6   0    1.28    0.21
   1  -6   0    1.73    0.29
  -1   6  -1    2.84    0.32
  -1   6  -1    3.03    0.41
   1   6   1    2.61    0.40
   1   6   1    3.10    0.38
   1  -6   1    3.54    0.43
   1   6   2    2.27    0.33
  -1   6  -2    2.06    0.33
  -1   6  -2    1.77    0.32
   1   6   2    2.09    0.38
   1   6   2    2.10    0.24
   1  -6   2    2.03    0.27
   1  -6   2    2.20    0.28
   1   6   3    1.58    0.25
   1   6   3    1.50    0.39
  -1   6  -3    1.20    0.17
   1  -6   3    1.01    0.24
   1   6   4    4.22    0.49
   1   6   4    4.30    0.47
   1  -6   4    4.22    0.43
  -1   6  -5    0.02    0.16
   1   6   5    0.17    0.27
   1   6   5   -0.01    0.18
   1  -6   5    0.01    0.18
   1   6   6    0.56    0.28
  -1   6  -6    0.37    0.21
   1   6   6    0.41    0.32
   1  -6   6    0.35    0.22
   1   6   7    6.36    0.66
   1   6   7    4.79    0.71
  -1   6  -7    5.36    0.52
   1  -6   7    6.36    0.41
   1  -6   7    6.85    0.60
  -1   6  -8    2.72    0.42
   1   6   8    2.84    0.57
   1   6   8    2.57    0.37
   1  -6   8    2.50    0.36
  -1   7   5    0.46    0.27
  -1  -7   5    0.89    0.36
  -1  -7   4    0.17    0.21
   1   7  -3    0.34    0.13
   1   7  -2   -0.01    0.17
  -1   7   1   -0.07    0.29
   1   7  -1    0.01    0.22
  -1   7   0    0.31    0.40
   1   7   0    0.12    0.29
   1   7   1    0.19    0.29
  -1   7  -1    0.07    0.21
  -1   7  -2    0.07    0.18
  -1   7  -3    0.05    0.15
   1  -7   3   -0.09    0.25
   1  -7   4   -0.14    0.42
   1   7   5    0.03    0.26
   1  -7   5    0.07    0.24
  -2   0  13   -0.10    0.30
  -2   0  13    0.12    0.19
   2   0 -13   -0.20    0.34
  -2   0  13   -0.17    0.38
  -2   0  12    2.91    0.43
  -2   0  12    3.89    0.55
   2   0 -12    4.04    0.52
   2   0 -11   -0.07    0.27
   2   0 -11    0.00    0.33
  -2   0  11    0.45    0.23
  -2   0  11    0.04    0.20
   2   0 -10   18.05    1.05
  -2   0  10   17.51    0.93
  -2   0  10   18.28    0.80
   2   0 -10   17.70    0.87
   2   0  -9   -0.07    0.14
  -2   0   9    0.01    0.14
   2   0  -9    0.17    0.32
  -2   0   9   -0.31    0.22
  -2   0   8   26.45    1.15
   2   0  -8   26.34    1.07
  -2   0   8   26.76    1.17
   2   0  -8   27.47    1.28
   2   0  -7   -0.18    0.13
   2   0  -7    0.12    0.28
  -2   0   7    0.26    0.24
  -2   0   7   -0.03    0.11
  -2   0   7   -0.12    0.17
  -2   0   6  108.93    4.09
   2   0  -6  108.46    4.02
   2   0  -6  112.08    4.09
  -2   0   6  108.97    4.14
  -2   0   6  104.48    4.01
   2   0  -6  109.92    4.15
  -2   0   5    0.49    0.21
   2   0  -5    0.34    0.13
  -2   0   5    0.09    0.13
   2   0  -5    0.20    0.28
  -2   0   4   17.47    0.76
   2   0  -4   19.39    0.70
  -2   0   4   17.75    0.81
   2   0  -4   17.65    0.75
  -2   0   4   20.20    0.70
   2   0  -4   16.91    0.82
  -2   0   3    0.23    0.04
   2   0  -3    0.83    0.23
   2   0  -3    0.18    0.04
  -2   0   3    0.02    0.12
   2   0  -3    0.15    0.08
  -2   0   3    0.13    0.10
   2   0  -1    0.59    0.09
  -2   0   1    0.65    0.03
   2   0   0   20.53    0.78
   2   0   1    1.73    0.09
  -2   0  -1    1.77    0.09
   2   0   1    1.87    0.10
  -2   0  -1    1.69    0.10
  -2   0  -3   -0.08    0.08
   2   0   3    0.04    0.12
  -2   0  -3    0.02    0.05
   2   0   3    0.05    0.05
   2   0   5    0.13    0.17
   2   0   5    0.05    0.12
  -2   0  -5    0.10    0.07
  -2   0  -5   -0.06    0.14
   2   0   5    0.11    0.08
   2   0   6    2.25    0.62
  -2   0  -6    3.12    0.37
  -2   0  -6    2.29    0.26
   2   0   6    3.21    0.24
   2   0   6    3.06    0.31
  -2   0  -7   -0.08    0.10
  -2   0  -7    0.07    0.24
   2   0   7    0.11    0.13
   2   0   7    0.21    0.17
   2   0   8    1.76    0.20
   2   0   8    1.88    0.27
  -2   0  -8    2.00    0.31
  -2   0  -9   -0.13    0.07
   2   0   9    0.00    0.17
   2   0   9    0.24    0.17
   2   0   9   -0.09    0.18
  -2   0  -9   -0.08    0.24
  -2   0 -10    5.73    0.61
   2   0  10    5.23    0.44
   2   0  10    4.06    0.58
   2   0  10    5.31    0.45
   2   0  11    0.26    0.31
   2   0  11   -0.04    0.21
  -2   0 -11   -0.18    0.26
   2   0  11    0.15    0.20
   2   0  12   11.48    0.65
   2   0  12   10.89    0.74
   2   0  12   10.56    0.95
  -2   0 -12    8.85    0.99
  -2   1  13    0.24    0.25
   2   1 -13    0.09    0.37
   2  -1 -13    0.10    0.34
  -2  -1  13    0.11    0.36
  -2  -1  13   -0.17    0.14
  -2  -1  13    0.89    0.25
   2   1 -12    1.37    0.43
  -2   1  12    0.85    0.22
  -2   1  12    0.71    0.44
  -2  -1  12    0.54    0.22
   2  -1 -12    1.33    0.39
  -2  -1  12    0.78    0.26
  -2   1  11    6.91    0.47
   2   1 -11    6.27    0.74
  -2  -1  11    6.20    0.56
  -2  -1  11    6.48    0.46
  -2  -1  11    6.53    0.41
   2  -1 -11    7.01    0.72
   2   1 -10    7.52    0.77
  -2   1  10    7.99    0.83
  -2   1  10    9.03    0.64
  -2  -1  10    8.00    0.77
  -2  -1  10    8.34    0.46
  -2  -1  10    7.40    0.50
   2  -1 -10    8.92    0.73
  -2  -1  10    8.27    0.56
  -2   1   9   11.98    0.71
   2   1  -9   11.14    0.82
  -2   1   9   11.48    0.86
  -2   1   9   10.75    0.53
   2   1  -9   10.47    0.53
   2  -1  -9   11.58    0.76
   2  -1  -9   10.93    0.57
  -2  -1   9   10.21    0.55
  -2  -1   9   10.70    0.62
   2   1  -8    7.46    0.39
  -2   1   8    7.96    0.72
   2   1  -8    7.29    0.72
  -2   1   8    7.75    0.58
  -2   1   8    7.47    0.40
  -2  -1   8    7.90    0.56
  -2  -1   8    7.49    0.48
   2  -1  -8    7.56    0.43
   2  -1  -8    7.99    0.63
   2   1  -7    6.23    0.45
  -2   1   7    6.74    0.36
  -2   1   7    5.13    0.64
   2   1  -7    6.94    0.66
  -2   1   7    6.47    0.52
   2  -1  -7    6.92    0.58
   2  -1  -7    7.19    0.38
  -2  -1   7    7.31    0.58
  -2  -1   7    7.33    0.38
   2  -1  -7    6.61    0.50
  -2  -1   7    6.66    0.42
   2   1  -6    8.59    0.36
  -2   1   6    7.30    0.61
  -2   1   6    8.97    0.38
   2   1  -6    8.34    0.65
  -2   1   6    7.50    0.52
   2  -1  -6    7.29    0.49
  -2  -1   6    6.34    0.55
  -2  -1   6    7.74    0.39
  -2  -1   6    7.90    0.42
   2  -1  -6    8.16    0.58
  -2   1   5    1.47    0.28
  -2   1   5    1.99    0.24
   2   1  -5    1.17    0.27
  -2   1   5    2.17    0.25
  -2  -1   5    1.77    0.22
  -2  -1   5    2.22    0.19
   2  -1  -5    1.76    0.20
  -2  -1   5    1.34    0.21
  -2   1   4  196.66    7.07
   2   1  -4  191.16    7.06
   2   1  -4  192.03    7.16
  -2   1   4  190.45    7.14
  -2   1   4  192.73    7.14
   2  -1  -4  193.53    7.08
  -2  -1   4  193.65    7.07
   2  -1  -4  187.74    7.14
   2  -1  -4  195.73    7.14
  -2  -1   4  193.91    7.14
  -2   1   3   13.16    0.53
   2   1  -3   12.92    0.53
   2   1  -3   14.20    0.63
  -2   1   3   13.95    0.62
  -2   1   3   13.65    0.62
  -2  -1   3   13.35    0.53
  -2  -1   3   13.11    0.59
   2  -1  -3   14.44    0.61
   2  -1  -3   13.88    0.61
  -2   1   1  393.46   14.32
   2  -1  -1  388.47   14.32
  -2   1   0   50.19    1.85
   2   1   0   50.02    1.84
   2  -1   0   48.56    1.84
   2  -1   0   50.29    1.86
  -2   1  -3  124.45    4.72
  -2   1  -3  128.09    4.77
   2   1   3  128.52    4.79
   2   1   3  128.84    4.77
  -2  -1  -3  130.58    4.73
   2  -1   3  123.95    4.73
   2  -1   3  133.22    4.72
   2  -1   3  129.35    4.78
  -2  -1  -3  130.02    4.76
   2   1   4   25.38    1.03
  -2   1  -4   30.55    1.02
   2   1   4   26.26    1.11
  -2   1  -4   25.94    1.09
   2   1   4   31.00    1.16
   2  -1   4   25.26    1.11
   2  -1   4   25.73    1.01
  -2  -1  -4   25.14    1.02
  -2  -1  -4   23.90    1.07
  -2   1  -5    4.31    0.38
   2   1   5    4.34    0.35
   2   1   5    4.98    0.26
   2   1   5    4.53    0.45
   2  -1   5    5.21    0.28
   2  -1   5    4.37    0.25
  -2  -1  -5    4.32    0.26
   2  -1   5    4.01    0.46
  -2  -1  -5    4.65    0.34
  -2   1  -6   21.16    0.95
  -2   1  -6   24.31    1.05
   2   1   6   23.82    1.16
   2   1   6   23.53    1.05
   2   1   6   23.75    0.93
  -2  -1  -6   23.12    1.02
  -2  -1  -6   23.42    0.98
   2  -1   6   24.96    1.26
   2  -1   6   23.48    0.93
   2  -1   6   23.79    0.95
   2  -1   6   23.99    0.99
   2   1   7    0.96    0.13
  -2   1  -7    1.25    0.41
   2   1   7    1.27    0.23
   2  -1   7    1.03    0.16
   2  -1   7    1.97    0.39
   2  -1   7    1.65    0.22
  -2  -1  -7    1.05    0.25
   2  -1   7    1.58    0.22
  -2   1  -8    1.86    0.31
   2   1   8    1.73    0.27
   2   1   8    1.30    0.17
   2  -1   8    1.76    0.24
  -2  -1  -8    1.30    0.27
   2  -1   8    1.34    0.22
  -2   1  -9    0.93    0.31
   2   1   9    1.18    0.21
   2  -1   9    1.38    0.19
   2  -1   9    0.94    0.22
   2  -1   9    1.45    0.26
  -2  -1  -9    0.94    0.29
   2   1  10    0.79    0.19
  -2   1 -10    1.11    0.35
   2  -1  10    1.44    0.26
  -2  -1 -10    1.78    0.35
   2  -1  10    1.11    0.24
   2  -1  10    1.45    0.33
  -2   1 -11    4.91    0.67
   2   1  11    5.50    0.48
   2   1  11    5.98    0.71
   2  -1  11    5.61    0.51
  -2  -1 -11    5.70    0.66
   2  -1  11    6.09    0.42
   2  -1  11    5.30    0.51
   2   1  12   -0.12    0.23
  -2   1 -12    0.00    0.47
   2   1  12   -0.43    0.35
   2  -1  12   -0.01    0.17
   2  -1  12    0.41    0.32
   2  -1  12    0.45    0.25
   2   2 -12    0.38    0.43
  -2   2  12    0.37    0.21
  -2  -2  12    0.41    0.23
   2  -2 -12    0.39    0.31
  -2   2  11    0.51    0.21
   2   2 -11    0.50    0.41
  -2  -2  11    0.43    0.21
   2  -2 -11    0.45    0.30
  -2   2  10    2.67    0.32
   2   2 -10    2.17    0.29
  -2   2  10    1.69    0.43
  -2   2  10    2.30    0.41
   2   2 -10    2.27    0.46
  -2  -2  10    2.26    0.41
  -2  -2  10    2.63    0.38
   2  -2 -10    2.17    0.34
   2   2  -9    2.39    0.43
  -2   2   9    3.15    0.33
   2   2  -9    3.15    0.29
  -2   2   9    3.22    0.47
   2  -2  -9    3.61    0.49
  -2  -2   9    3.45    0.35
  -2  -2   9    3.86    0.54
  -2   2   8   32.35    1.27
  -2   2   8   31.99    1.51
   2   2  -8   30.78    1.26
   2   2  -8   32.45    1.53
   2  -2  -8   34.46    1.47
  -2  -2   8   31.37    1.29
   2  -2  -8   32.66    1.41
   2   2  -7   28.03    1.77
  -2   2   7   30.48    1.36
  -2   2   7   32.73    1.27
   2   2  -7   29.14    1.17
  -2   2   7   29.84    1.40
   2  -2  -7   29.94    1.30
  -2  -2   7   29.64    1.20
  -2  -2   7   30.14    1.32
   2   2  -6   58.25    2.31
  -2   2   6   57.63    2.28
  -2   2   6   54.90    2.31
   2   2  -6   54.92    2.11
  -2   2   6   56.95    2.13
   2  -2  -6   55.73    2.27
  -2  -2   6   57.70    2.33
  -2  -2   6   56.68    2.14
   2  -2  -6   55.43    2.21
   2   2  -5  254.46    9.38
  -2   2   5  255.10    9.28
  -2   2   5  254.14    9.39
   2   2  -5  242.20    9.26
  -2   2   5  255.04    9.36
  -2  -2   5  250.15    9.34
  -2  -2   5  257.09    9.28
   2  -2  -5  253.04    9.39
   2   2  -4   40.17    1.65
  -2   2   4   41.49    1.59
   2   2  -4   42.26    1.54
  -2   2   4   41.54    1.67
  -2   2   4   40.25    1.63
  -2  -2   4   40.96    1.60
   2  -2  -4   39.16    1.66
  -2  -2   4   41.16    1.55
   2  -2  -4   40.86    1.59
   2   2  -3   12.85    0.48
  -2   2   3    9.81    0.55
   2   2  -3   11.75    0.57
  -2   2   3   11.58    0.60
  -2  -2   3   10.57    0.51
   2  -2  -3   11.77    0.51
   2  -2  -3   11.33    0.59
  -2  -2   3   11.55    0.48
   2   2  -2  131.53    4.91
  -2   2   2  134.06    4.94
  -2   2   2  132.78    4.93
   2   2  -2  131.36    4.95
   2   2  -2  141.87    4.93
   2  -2  -2  133.01    4.92
   2  -2  -2  129.66    4.99
  -2  -2   2  133.00    4.93
  -2  -2   2  137.74    4.94
   2   2  -1  151.99    5.55
  -2   2   1  152.04    5.56
   2   2  -1  150.80    5.56
   2   2  -1  151.41    5.55
  -2   2   1  149.84    5.59
   2  -2  -1  149.61    5.56
   2  -2  -1  150.00    5.60
  -2  -2   1  151.97    5.55
   2   2   0    3.35    0.18
   2   2   0    3.30    0.22
  -2   2   0    3.47    0.27
  -2   2   0    3.25    0.18
   2  -2   0    3.23    0.19
   2  -2   0    3.25    0.26
  -2   2  -1  140.94    5.10
  -2   2  -1  140.35    5.09
   2   2   1  140.69    5.11
   2   2   1  140.29    5.15
   2  -2   1  137.43    5.12
   2  -2   1  133.07    5.09
   2  -2   1  138.27    5.11
   2   2   2   52.22    2.01
  -2   2  -2   62.67    2.00
   2   2   2   52.00    1.99
  -2   2  -2   52.24    2.00
  -2   2  -2   51.17    1.98
   2  -2   2   50.76    2.00
   2  -2   2   52.69    2.00
   2  -2   2   51.91    2.01
  -2  -2  -2   54.04    2.00
   2   2   3    1.74    0.24
   2   2   3    1.65    0.27
  -2   2  -3    1.60    0.20
  -2   2  -3    2.43    0.19
  -2  -2  -3    2.14    0.21
   2  -2   3    1.58    0.21
   2  -2   3    1.77    0.22
  -2   2  -4  278.45    9.98
   2   2   4  267.92   10.08
   2   2   4  274.50    9.98
  -2   2  -4  280.08   10.03
   2   2   4  275.33   10.05
   2  -2   4  274.22    9.96
  -2  -2  -4  246.45   10.02
   2  -2   4  274.43    9.99
   2  -2   4  276.64   10.05
   2   2   5    2.16    0.21
  -2   2  -5    1.66    0.20
   2   2   5    1.94    0.29
  -2   2  -5    1.81    0.25
   2   2   5    1.75    0.31
   2  -2   5    2.13    0.19
   2  -2   5    1.86    0.23
  -2  -2  -5    1.46    0.19
   2  -2   5    2.08    0.33
  -2   2  -6    3.95    0.43
  -2   2  -6    3.32    0.24
   2   2   6    3.54    0.53
   2   2   6    3.29    0.31
   2   2   6    3.21    0.38
   2  -2   6    2.49    0.35
  -2  -2  -6    3.53    0.33
   2  -2   6    2.44    0.59
   2   2   7    0.17    0.13
   2   2   7    0.03    0.26
  -2   2  -7    0.26    0.27
  -2   2  -7    0.27    0.10
   2   2   7    0.57    0.21
  -2  -2  -7    0.17    0.18
   2  -2   7    0.00    0.10
   2  -2   7    0.29    0.27
   2  -2   7    0.06    0.12
  -2   2  -8    0.54    0.27
   2   2   8    0.60    0.17
   2   2   8    0.99    0.39
  -2  -2  -8    0.68    0.24
   2  -2   8    0.83    0.18
   2  -2   8    0.46    0.18
  -2   2  -9    0.85    0.16
  -2   2  -9    1.11    0.32
   2   2   9    2.01    0.47
   2  -2   9    1.35    0.21
   2  -2   9    1.45    0.16
  -2  -2  -9    1.80    0.38
   2  -2   9    1.11    0.22
  -2   2 -10    1.95    0.37
   2   2  10    2.42    0.53
   2   2  10    1.71    0.22
   2  -2  10    2.12    0.26
  -2  -2 -10    2.24    0.34
   2  -2  10    1.95    0.26
   2  -2  10    1.84    0.24
  -2   2 -11    0.44    0.32
   2   2  11    0.23    0.19
  -2  -2 -11    0.38    0.29
   2  -2  11    0.11    0.20
   2  -2  11    0.46    0.14
   2  -2  11   -0.04    0.21
   2   2  12    0.25    0.23
  -2   2 -12    0.07    0.35
   2  -2  12   -0.25    0.22
  -2  -2 -12   -0.01    0.29
   2  -2  12   -0.14    0.23
   2   3 -12   -0.60    0.52
  -2   3  12    0.36    0.24
  -2  -3  12    0.16    0.29
   2  -3 -12    0.20    0.31
   2   3 -11    0.40    0.40
  -2   3  11    0.37    0.20
  -2  -3  11    0.15    0.20
   2  -3 -11    0.13    0.25
  -2   3  10    1.88    0.24
  -2   3  10    1.28    0.44
   2   3 -10    1.68    0.43
  -2  -3  10    1.87    0.25
   2  -3 -10    1.85    0.31
   2   3  -9    0.44    0.53
  -2   3   9    0.21    0.18
  -2   3   9    0.30    0.35
  -2   3   9    0.37    0.31
  -2  -3   9    0.31    0.30
  -2  -3   9   -0.01    0.22
   2  -3  -9    0.08    0.23
   2   3  -8    1.52    0.42
  -2   3   8    2.41    0.38
  -2   3   8    1.44    0.37
  -2   3   8    1.49    0.23
   2   3  -8    1.54    0.19
  -2  -3   8    1.70    0.23
   2  -3  -8    1.62    0.35
   2  -3  -8    1.26    0.23
   2   3  -7   26.93    1.34
  -2   3   7   28.05    1.11
   2   3  -7   26.54    1.08
  -2   3   7   27.74    1.31
   2  -3  -7   26.72    1.16
  -2  -3   7   27.24    1.20
   2  -3  -7   26.95    1.30
  -2  -3   7   27.24    1.11
   2   3  -6   91.71    3.55
  -2   3   6   99.07    3.57
   2   3  -6   94.35    3.71
  -2   3   6   95.76    3.68
  -2  -3   6   96.74    3.58
   2  -3  -6   95.30    3.73
   2  -3  -6   94.07    3.60
  -2  -3   6   95.74    3.63
  -2   3   5   43.57    1.75
  -2   3   5   44.64    1.66
   2   3  -5   38.59    1.67
   2   3  -5   43.25    1.79
  -2  -3   5   44.15    1.69
  -2  -3   5   43.63    1.65
   2  -3  -5   41.53    1.72
   2   3  -4    2.10    0.33
  -2   3   4    2.54    0.29
   2   3  -4    1.86    0.20
  -2  -3   4    1.81    0.23
   2  -3  -4    1.64    0.25
   2  -3  -4    2.08    0.20
  -2   3   3   24.23    0.96
   2   3  -3   23.70    0.94
   2   3  -3   22.91    1.01
  -2   3   3   23.42    1.07
  -2   3   3   23.83    0.99
  -2  -3   3   24.75    0.94
  -2  -3   3   24.27    0.95
   2  -3  -3   23.69    0.92
   2  -3  -3   23.20    1.06
  -2   3   2   13.34    0.61
  -2   3   2   14.78    0.60
   2   3  -2   14.44    0.59
   2   3  -2   14.91    0.60
   2   3  -2   14.44    0.63
  -2   3   2   15.15    0.73
  -2  -3   2   13.59    0.58
   2  -3  -2   14.82    0.71
  -2  -3   2   11.84    0.63
  -2   3   1  200.69    7.61
   2   3  -1  205.05    7.58
   2   3  -1  211.96    7.56
  -2   3   1  211.14    7.57
   2   3  -1  210.79    7.56
  -2  -3   1  199.00    7.66
   2  -3  -1  198.95    7.63
   2   3   0   35.54    1.37
   2   3   0   36.30    1.40
   2   3   0   36.02    1.44
   2   3   0   36.29    1.38
  -2   3   0   37.19    1.40
  -2   3   0   36.66    1.45
   2  -3   0   35.61    1.41
   2  -3   0   37.20    1.46
   2   3   1    3.50    0.33
  -2   3  -1    4.05    0.25
   2   3   1    4.42    0.26
  -2   3  -1    4.04    0.31
   2   3   1    3.59    0.22
   2  -3   1    3.81    0.26
   2  -3   1    3.53    0.31
  -2   3  -2   49.49    1.91
   2   3   2   51.70    1.94
  -2   3  -2   51.25    1.93
   2   3   2   49.88    2.01
   2   3   2   50.49    1.94
  -2   3  -2   51.22    1.92
   2  -3   2   51.27    1.90
   2  -3   2   50.39    1.95
   2  -3   2   52.47    1.94
  -2   3  -3    2.16    0.30
  -2   3  -3    1.80    0.23
   2   3   3    2.34    0.26
  -2   3  -3    1.90    0.17
   2   3   3    1.76    0.25
   2  -3   3    1.89    0.23
   2  -3   3    2.22    0.27
  -2  -3  -3    1.69    0.20
   2  -3   3    2.39    0.24
  -2   3  -4    4.41    0.40
   2   3   4    4.45    0.31
  -2   3  -4    5.04    0.30
   2   3   4    5.13    0.40
  -2   3  -4    4.37    0.24
   2  -3   4    4.91    0.37
  -2  -3  -4    4.52    0.29
   2  -3   4    4.73    0.30
   2  -3   4    4.51    0.33
  -2   3  -5    1.39    0.25
  -2   3  -5    1.25    0.16
   2   3   5    1.37    0.32
  -2  -3  -5    1.23    0.17
   2  -3   5    1.72    0.27
   2  -3   5    1.73    0.26
   2  -3   5    1.40    0.27
   2   3   6    3.15    0.38
  -2   3  -6    2.99    0.43
   2   3   6    3.18    0.29
   2  -3   6    3.30    0.39
   2  -3   6    3.22    0.30
  -2  -3  -6    3.22    0.38
   2  -3   6    2.69    0.28
   2   3   7    2.00    0.28
   2   3   7    2.40    0.41
  -2   3  -7    1.57    0.30
  -2  -3  -7    1.67    0.26
   2  -3   7    1.69    0.23
   2  -3   7    1.85    0.24
   2  -3   7    2.01    0.30
   2  -3   7    1.52    0.21
   2   3   8    2.55    0.40
   2   3   8    2.28    0.42
   2   3   8    1.87    0.29
  -2   3  -8    1.45    0.32
  -2   3  -8    1.96    0.28
   2  -3   8    2.22    0.24
  -2  -3  -8    1.92    0.28
   2  -3   8    2.19    0.40
   2  -3   8    1.96    0.23
  -2   3  -9    1.55    0.50
   2   3   9    2.37    0.48
   2   3   9    1.58    0.22
   2  -3   9    1.54    0.35
   2  -3   9    1.26    0.22
  -2  -3  -9    1.77    0.28
   2   3  10    0.73    0.22
  -2   3 -10    0.14    0.28
  -2  -3 -10    0.17    0.23
   2  -3  10    0.24    0.18
  -2   3 -11    1.18    0.36
   2   3  11    0.77    0.27
  -2  -3 -11    0.81    0.30
   2  -3  11    0.55    0.29
  -2   4  11    1.32    0.29
   2   4 -11    1.90    0.49
   2  -4 -11    1.49    0.29
  -2  -4  11    2.02    0.32
  -2   4  10    0.03    0.21
   2   4 -10    0.13    0.38
  -2  -4  10    0.26    0.23
   2  -4 -10    0.32    0.23
  -2   4   9    0.07    0.17
   2   4  -9    0.45    0.39
  -2  -4   9    0.15    0.20
  -2  -4   9    0.15    0.23
   2  -4  -9    0.31    0.21
  -2   4   8    1.24    0.21
  -2   4   8    1.51    0.37
   2   4  -8    1.50    0.24
  -2   4   8    1.00    0.54
   2   4  -8    0.94    0.40
   2  -4  -8    1.08    0.37
  -2  -4   8    1.06    0.23
   2  -4  -8    1.54    0.24
  -2  -4   8    0.97    0.31
  -2   4   7    1.46    0.46
   2   4  -7    3.41    0.46
   2   4  -7    2.95    0.32
  -2   4   7    3.41    0.40
  -2   4   7    2.52    0.32
  -2  -4   7    3.22    0.35
   2  -4  -7    2.87    0.38
   2  -4  -7    3.04    0.75
   2   4  -6    8.99    0.77
  -2   4   6   10.03    0.52
  -2   4   6    8.09    0.67
   2   4  -6    8.90    0.48
  -2  -4   6    9.30    0.51
   2  -4  -6    9.15    0.71
  -2  -4   6    9.37    0.51
   2  -4  -6    9.61    0.49
   2   4  -5    0.56    0.17
  -2   4   5    0.64    0.21
  -2   4   5    0.41    0.16
   2   4  -5    0.59    0.32
  -2   4   5    0.34    0.27
   2  -4  -5    0.36    0.26
   2  -4  -5    0.69    0.15
  -2  -4   5    0.55    0.17
  -2  -4   5    0.75    0.17
  -2   4   4    2.11    0.28
   2   4  -4    1.95    0.33
  -2   4   4    2.14    0.32
   2   4  -4    1.56    0.18
  -2  -4   4    1.71    0.25
   2  -4  -4    1.88    0.19
  -2  -4   4    2.27    0.33
   2  -4  -4    1.93    0.32
   2   4  -3    4.01    0.26
  -2   4   3    4.46    0.38
  -2   4   3    3.53    0.54
   2   4  -3    3.63    0.31
   2   4  -3    3.24    0.49
   2  -4  -3    4.18    0.47
  -2  -4   3    3.70    0.31
   2   4  -2    1.59    0.21
   2   4  -2    1.23    0.20
   2   4  -2    1.40    0.20
  -2   4   2    0.83    0.38
  -2   4   2    1.02    0.17
  -2  -4   2    0.94    0.15
   2  -4  -2    1.16    0.23
   2   4  -1   41.50    1.59
  -2   4   1   41.91    1.69
   2   4  -1   42.12    1.70
   2   4  -1   40.94    1.64
  -2  -4   1   40.54    1.61
   2  -4  -1   40.34    1.69
   2   4   0   81.75    3.04
  -2   4   0   81.06    3.12
   2   4   0   84.13    3.05
   2   4   0   79.67    3.13
   2   4   0   84.64    3.12
   2  -4   0   79.45    3.14
   2  -4   0   81.93    3.09
   2   4   1    5.84    0.33
   2   4   1    6.54    0.39
   2   4   1    8.02    0.35
   2  -4   1    5.98    0.38
   2   4   2    1.09    0.16
   2   4   2    1.18    0.39
   2  -4   2    1.18    0.29
   2  -4   2    1.17    0.20
   2   4   3    0.96    0.29
   2   4   3    0.66    0.16
  -2   4  -3    1.19    0.18
   2   4   3    0.96    0.19
  -2   4  -3    0.89    0.13
   2  -4   3    0.80    0.11
   2  -4   3    0.69    0.17
   2  -4   3    1.02    0.18
  -2   4  -4   38.12    1.55
   2   4   4   38.88    1.69
   2   4   4   39.51    1.53
   2   4   4   39.82    1.59
  -2   4  -4   38.06    1.47
   2  -4   4   38.77    1.51
   2  -4   4   37.99    1.52
   2  -4   4   40.85    1.56
   2   4   5    0.96    0.19
  -2   4  -5    0.78    0.23
   2   4   5    0.61    0.26
   2   4   5    0.22    0.17
  -2  -4  -5    0.67    0.15
   2  -4   5    0.74    0.14
   2  -4   5    0.98    0.19
  -2   4  -6    0.73    0.15
   2   4   6    1.08    0.32
   2   4   6    0.50    0.18
  -2   4  -6    1.23    0.26
   2  -4   6    0.80    0.20
  -2  -4  -6    0.88    0.16
   2  -4   6    0.89    0.22
   2   4   7    2.67    0.41
  -2   4  -7    2.07    0.32
   2   4   7    2.50    0.33
  -2   4  -7    2.80    0.32
   2   4   7    3.07    0.44
   2  -4   7    1.88    0.24
  -2  -4  -7    2.47    0.33
   2  -4   7    2.88    0.41
   2   4   8    0.27    0.42
   2   4   8    0.56    0.18
  -2   4  -8    0.50    0.28
   2  -4   8    0.79    0.22
  -2  -4  -8    0.27    0.27
  -2   4  -9    0.29    0.26
   2   4   9    0.40    0.20
   2  -4   9    0.32    0.17
   2  -4   9    0.22    0.25
  -2  -4  -9    0.33    0.21
  -2   4 -10    2.24    0.39
   2   4  10    2.13    0.32
   2  -4  10    1.23    0.22
  -2  -4 -10    1.49    0.27
  -2   5  10    2.01    0.28
   2   5 -10    1.54    0.41
  -2  -5  10    1.23    0.46
   2  -5 -10    1.64    0.24
  -2   5   9   -0.11    0.22
   2   5  -9   -0.05    0.36
  -2   5   9   -0.11    0.30
   2  -5  -9   -0.09    0.20
  -2  -5   9   -0.35    0.19
  -2   5   8    0.00    0.32
   2   5  -8    0.16    0.59
  -2   5   8    0.50    0.20
   2  -5  -8    0.44    0.15
  -2  -5   8    0.35    0.23
  -2  -5   8    0.23    0.19
  -2   5   7    0.28    0.29
   2   5  -7   -0.18    0.17
  -2   5   7   -0.16    0.16
   2   5  -7   -0.02    0.35
  -2  -5   7   -0.06    0.18
   2  -5  -7    0.01    0.31
  -2   5   6    0.87    0.29
  -2   5   6    0.67    0.22
  -2   5   6    0.50    0.24
  -2   5   6    0.94    0.40
   2   5  -6    0.81    0.35
   2   5  -6    0.74    0.21
   2  -5  -6    0.86    0.14
   2  -5  -6    0.49    0.33
  -2  -5   6    0.75    0.18
  -2  -5   6    0.69    0.23
  -2   5   5   -0.05    0.15
   2   5  -5   -0.17    0.30
  -2   5   5   -0.04    0.22
   2   5  -5   -0.07    0.15
  -2   5   5   -0.02    0.29
  -2   5   5    0.27    0.34
  -2  -5   5   -0.07    0.12
   2  -5  -5    0.41    0.45
  -2  -5   5    0.12    0.17
  -2   5   4    0.23    0.20
   2   5  -4    0.66    0.29
  -2   5   4    0.34    0.32
   2   5  -4    0.04    0.15
  -2  -5   4    0.38    0.17
   2  -5  -4    0.13    0.25
   2   5  -3    5.22    0.33
   2   5  -3    4.98    0.50
  -2   5   3    5.20    0.63
   2   5  -3    4.89    0.40
  -2  -5   3    5.58    0.40
   2  -5  -3    5.28    0.55
  -2   5   2    0.59    0.30
   2   5  -2    0.72    0.23
   2   5  -2    0.61    0.17
   2   5  -2    0.47    0.21
  -2  -5   2    0.25    0.15
   2  -5  -2    0.35    0.23
  -2   5   1    1.56    0.31
   2   5  -1    1.08    0.14
   2   5  -1    0.97    0.19
   2   5  -1    1.03    0.25
   2   5  -1    1.05    0.21
   2  -5  -1    1.60    0.32
   2   5   0    3.22    0.25
   2   5   0    4.66    0.69
  -2   5   0    3.98    0.50
   2   5   0    3.17    0.28
   2   5   0    3.45    0.34
   2  -5   0    3.40    0.45
   2   5   1   21.69    1.10
   2   5   1   23.17    0.98
   2   5   1   23.24    0.91
   2   5   1   22.46    0.92
  -2   5  -1   22.06    1.00
   2  -5   1   21.24    1.02
   2  -5   1   23.32    0.99
   2   5   2    4.38    0.37
  -2   5  -2    6.59    0.40
   2   5   2    6.04    0.60
   2   5   2    6.36    0.39
   2   5   2    4.93    0.40
   2  -5   2    5.98    0.45
   2  -5   2    4.33    0.40
  -2   5  -3    0.32    0.13
  -2   5  -3    0.04    0.11
   2   5   3    0.17    0.27
   2   5   3    0.21    0.18
   2   5   3    0.21    0.16
   2  -5   3    0.25    0.18
   2  -5   3    0.34    0.24
   2   5   4    0.76    0.42
   2   5   4    0.98    0.32
   2   5   4    0.96    0.23
  -2   5  -4    1.11    0.13
  -2   5  -4    1.17    0.18
   2  -5   4    0.97    0.24
   2  -5   4    1.14    0.13
   2  -5   4    1.12    0.18
  -2   5  -5    0.51    0.19
   2   5   5    0.49    0.22
   2   5   5    0.53    0.26
  -2   5  -5    0.87    0.19
   2   5   5    0.56    0.20
   2   5   5    0.72    0.33
   2  -5   5    0.61    0.13
   2  -5   5    0.55    0.20
  -2   5  -6    0.49    0.21
   2   5   6    0.52    0.32
   2   5   6    0.44    0.21
   2  -5   6    0.40    0.21
   2  -5   6    0.36    0.15
  -2   5  -7    3.53    0.46
   2   5   7    4.44    0.51
   2   5   7    3.76    0.41
   2  -5   7    3.91    0.44
   2  -5   7    4.31    0.38
  -2   5  -8    0.98    0.30
   2   5   8    0.28    0.40
   2   5   8    0.56    0.26
  -2  -5  -8    0.46    0.21
   2  -5   8    1.21    0.22
   2  -5   8    0.51    0.24
   2   5   9    0.97    0.34
  -2   5  -9    1.65    0.35
  -2  -5  -9    0.51    0.23
   2  -5   9    0.50    0.43
   2   6  -8    0.05    0.34
  -2   6   8   -0.18    0.26
  -2   6   8   -0.27    0.22
  -2  -6   8    0.20    0.24
  -2  -6   8    0.05    0.21
  -2   6   7    0.60    0.24
   2   6  -7   -0.02    0.31
  -2   6   7    0.02    0.24
  -2  -6   7    0.04    0.24
  -2   6   6    0.58    0.22
   2   6  -6    0.43    0.33
  -2   6   6    0.53    0.20
   2  -6  -6    0.39    0.32
  -2  -6   6    0.40    0.21
   2   6  -5    0.22    0.33
  -2   6   5    0.15    0.20
   2  -6  -5    0.35    0.28
  -2  -6   5    0.03    0.17
   2   6  -4    0.24    0.29
  -2  -6   4    0.18    0.18
   2  -6  -4   -0.31    0.23
   2   6  -3    0.39    0.21
   2   6  -3    0.26    0.14
   2   6  -3    0.38    0.28
  -2   6   3   -0.05    0.32
  -2  -6   3    0.18    0.20
   2  -6  -3    0.00    0.25
   2   6  -2    1.37    0.18
   2   6  -2    1.07    0.21
  -2   6   2    0.93    0.37
   2   6  -2    0.94    0.22
   2  -6  -2    1.26    0.30
  -2   6   1    1.34    0.32
  -2   6   1    0.91    0.25
   2   6  -1    1.52    0.24
   2   6  -1    1.30    0.23
   2   6  -1    1.19    0.29
   2   6  -1    1.38    0.15
   2  -6  -1    1.28    0.30
  -2   6   0    2.13    0.30
  -2   6   0    1.18    0.30
   2   6   0    1.62    0.23
   2   6   0    1.76    0.22
   2   6   0    1.26    0.32
   2   6   0    1.31    0.22
   2  -6   0    1.79    0.31
   2   6   1    1.04    0.24
   2   6   1    1.31    0.18
   2   6   1    0.95    0.18
  -2   6  -1    0.86    0.26
  -2   6  -1    1.73    0.27
   2   6   1    1.00    0.33
   2  -6   1    0.99    0.22
   2  -6   1    1.21    0.49
   2   6   2    7.87    0.62
   2   6   2    7.75    0.40
   2   6   2    6.65    0.46
  -2   6  -2    6.44    0.46
   2   6   2    7.12    0.74
   2  -6   2    7.40    0.51
   2  -6   2    6.87    0.52
   2   6   3    0.60    0.34
   2   6   3    0.78    0.23
  -2   6  -3    0.54    0.16
   2   6   3    0.54    0.15
   2  -6   3    0.61    0.23
   2  -6   3    0.17    0.18
   2   6   4    3.90    0.48
  -2   6  -4    3.77    0.27
   2   6   4    3.87    0.47
   2  -6   4    4.26    0.43
   2  -6   4    3.90    0.32
   2   6   5    1.80    0.25
   2   6   5    2.73    0.36
  -2   6  -5    2.33    0.33
   2  -6   5    1.97    0.29
   2   6   6    2.27    0.32
  -2   6  -6    2.37    0.34
   2   6   6    2.84    0.42
   2  -6   6    1.95    0.30
   2   6   7    4.53    0.54
  -2   6  -7    3.87    0.43
   2   6   7    4.43    0.52
   2  -6   7    2.70    0.54
   2  -6   7    4.74    0.37
  -2   6  -8    0.22    0.24
   2   6   8    0.18    0.23
   2  -6   8    0.23    0.25
  -2   7   5    0.15    0.26
   2   7  -5    0.45    0.25
  -2  -7   5    0.04    0.38
  -2  -7   4    0.94    0.28
   2   7  -3    0.94    0.19
   2  -7  -3    0.37    0.31
   2   7  -2    0.20    0.18
   2  -7  -2    0.31    0.27
  -2   7   1    1.46    0.34
   2   7  -1    1.36    0.29
   2  -7  -1    1.23    0.31
   2   7   0    0.56    0.31
   2  -7   0    0.27    0.26
   2   7   1    0.09    0.31
  -2   7  -1   -0.03    0.21
   2  -7   1    0.44    0.22
  -2   7  -2    0.06    0.18
  -2   7  -3    0.58    0.16
   2  -7   3    0.67    0.28
   2   7   4    1.00    0.47
   2  -7   4    1.32    0.32
   2   7   5    0.74    0.25
   2   7   5    0.94    0.22
   2  -7   5    0.49    0.27
  -3   0  13   -0.45    0.29
  -3   0  13    0.00    0.23
   3   0 -13    0.29    0.39
   3   0 -12    3.86    0.54
  -3   0  12    3.38    0.42
   3   0 -11    0.17    0.36
  -3   0  11   -0.13    0.18
   3   0 -11    0.08    0.18
  -3   0  11    0.80    0.27
  -3   0  10   14.19    0.82
   3   0 -10   14.47    0.69
  -3   0  10   14.29    0.69
   3   0 -10   15.49    1.00
  -3   0   9    0.00    0.15
   3   0  -9    0.15    0.31
   3   0  -9   -0.12    0.14
  -3   0   8   37.95    1.58
  -3   0   8   36.59    1.48
   3   0  -8   39.16    1.70
   3   0  -8   39.53    1.48
  -3   0   7    0.10    0.11
   3   0  -7    0.10    0.11
   3   0  -7   -0.01    0.27
  -3   0   7    0.50    0.26
  -3   0   7   -0.04    0.19
   3   0  -7   -0.14    0.29
  -3   0   6    5.12    0.26
   3   0  -6    4.55    0.34
  -3   0   6    4.76    0.39
   3   0  -6    4.07    0.54
   3   0  -6    4.08    0.27
  -3   0   6    5.92    0.59
   3   0  -5    0.74    0.10
  -3   0   5    0.34    0.18
   3   0  -5    0.55    0.14
  -3   0   5    1.02    0.13
  -3   0   5    0.51    0.15
   3   0  -5    0.31    0.23
  -3   0   4  166.64    6.15
   3   0  -4  169.18    6.11
   3   0  -4  164.54    6.16
   3   0  -4  168.15    6.20
  -3   0   4  164.77    6.18
   3   0  -3    0.30    0.10
  -3   0   3    0.33    0.12
   3   0  -3    0.19    0.14
  -3   0   3    0.50    0.07
  -3   0   3    0.32    0.11
   3   0  -3    0.37    0.05
   3   0  -2  216.05    7.96
  -3   0   2  221.64    7.95
  -3   0   2  214.56    7.94
   3   0  -2  214.48    7.95
  -3   0   1    0.06    0.03
   3   0  -1    0.12    0.06
   3   0  -1   -0.03    0.07
   3   0   1    0.56    0.06
  -3   0  -1    0.51    0.06
  -3   0  -1    0.44    0.06
  -3   0  -1    0.32    0.06
   3   0   2  118.82    4.31
  -3   0  -2  113.62    4.31
   3   0   2  119.80    4.35
  -3   0  -2  117.60    4.34
   3   0   3   -0.11    0.06
   3   0   3   -0.01    0.11
  -3   0  -3   -0.01    0.05
   3   0   3    0.08    0.06
  -3   0  -3   -0.02    0.08
   3   0   4   73.99    2.87
   3   0   4   76.64    2.88
   3   0   4   79.26    2.94
  -3   0  -4   77.95    2.85
   3   0   5    0.56    0.23
   3   0   5    0.14    0.19
   3   0   5    0.30    0.10
  -3   0  -5    0.15    0.14
  -3   0  -5    0.34    0.09
  -3   0  -6   31.55    1.30
   3   0   6   30.08    1.29
   3   0   6   30.68    1.37
  -3   0  -6   30.28    1.20
   3   0   6   32.75    1.20
   3   0   6   30.17    1.23
  -3   0  -7    0.03    0.08
  -3   0  -7   -0.03    0.17
   3   0   7    0.08    0.11
   3   0   7    0.25    0.14
   3   0   7    0.25    0.30
   3   0   7    0.07    0.14
   3   0   8   11.20    0.56
  -3   0  -8   12.09    0.70
   3   0   8   11.07    0.66
   3   0   8    9.54    0.58
   3   0   9    0.26    0.20
   3   0   9    0.00    0.37
   3   0   9    0.25    0.19
  -3   0  -9   -0.04    0.40
   3   0   9    0.13    0.24
   3   0  10   17.16    0.82
  -3   0 -10   17.27    1.00
   3   0  10   17.09    0.83
  -3   0 -11   -0.09    0.29
   3   0  11    0.18    0.35
   3   0  11   -0.46    0.21
   3   0  11    0.21    0.26
   3   0  12    3.18    0.48
  -3   0 -12    3.47    0.56
   3   0  12    4.38    0.47
   3   1 -13    0.02    0.41
  -3   1  13    0.29    0.36
  -3  -1  13    0.40    0.27
  -3  -1  13    0.54    0.16
   3  -1 -13   -0.18    0.35
  -3  -1  13    0.55    0.24
   3   1 -12    0.47    0.41
  -3   1  12    0.45    0.33
  -3   1  12    0.41    0.21
  -3  -1  12    0.47    0.21
  -3  -1  12    0.24    0.24
  -3  -1  12    0.63    0.16
   3  -1 -12    0.50    0.37
   3   1 -11    3.35    0.37
  -3   1  11    4.16    0.40
   3   1 -11    5.19    0.74
  -3   1  11    5.25    0.80
  -3  -1  11    3.69    0.39
  -3  -1  11    3.98    0.53
  -3  -1  11    4.22    0.34
   3  -1 -11    4.93    0.67
  -3   1  10    1.04    0.39
   3   1 -10    0.83    0.18
  -3   1  10    0.83    0.18
   3   1 -10    0.58    0.36
  -3  -1  10    0.88    0.20
  -3  -1  10    0.99    0.25
   3  -1 -10    0.71    0.36
  -3  -1  10    0.88    0.32
   3   1  -9    3.03    0.30
  -3   1   9    2.82    0.44
   3   1  -9    2.99    0.47
  -3   1   9    2.96    0.30
  -3   1   9    4.28    0.51
   3  -1  -9    2.56    0.34
  -3  -1   9    2.96    0.33
   3  -1  -9    2.26    0.40
  -3  -1   9    2.89    0.40
   3   1  -8    8.67    0.43
   3   1  -8    7.75    0.76
  -3   1   8    9.41    0.55
  -3   1   8    8.26    0.63
  -3   1   8    8.66    0.73
   3  -1  -8    9.00    0.60
   3  -1  -8    8.21    0.70
   3  -1  -8    9.43    0.48
  -3  -1   8    8.99    0.52
  -3  -1   8    7.85    0.48
  -3   1   7    5.30    0.50
  -3   1   7    5.21    0.59
   3   1  -7    5.74    0.30
  -3   1   7    5.32    0.31
   3   1  -7    5.31    0.67
  -3  -1   7    5.62    0.33
   3  -1  -7    5.61    0.46
  -3  -1   7    5.71    0.40
   3  -1  -7    5.74    0.59
  -3  -1   7    4.63    0.48
   3   1  -6   27.23    1.01
  -3   1   6   26.15    1.15
  -3   1   6   26.14    1.18
  -3   1   6   28.00    1.02
   3   1  -6   26.12    1.23
  -3  -1   6   26.49    1.03
   3  -1  -6   26.76    1.20
   3  -1  -6   25.10    1.04
  -3  -1   6   25.71    1.06
   3  -1  -6   26.39    1.14
   3   1  -5    9.23    0.41
  -3   1   5    9.32    0.54
  -3   1   5    9.04    0.55
   3   1  -5    8.80    0.59
  -3   1   5    8.49    0.39
   3   1  -5    9.49    0.38
   3  -1  -5    8.85    0.80
   3  -1  -5    8.29    0.56
  -3  -1   5    9.74    0.40
  -3  -1   5    9.41    0.43
  -3  -1   5    8.97    0.50
  -3   1   4   63.98    2.36
  -3   1   4   61.89    2.28
   3   1  -4   61.91    2.38
   3   1  -4   60.88    2.29
   3   1  -4   59.31    2.27
  -3  -1   4   58.33    2.28
   3  -1  -4   62.60    2.37
  -3  -1   4   62.27    2.28
   3  -1  -4   63.17    2.37
  -3   1   3   93.43    3.44
   3   1  -3   91.52    3.40
  -3   1   3   91.99    3.46
  -3   1   3   94.21    3.40
   3   1  -3   93.55    3.46
   3   1  -3   91.49    3.39
   3  -1  -3   89.76    3.46
  -3  -1   3   90.27    3.38
  -3  -1   3   92.99    3.39
   3  -1  -3   93.60    3.45
   3   1  -2   12.45    0.52
  -3   1   2   11.50    0.50
   3  -1  -2   12.18    0.53
  -3  -1   2   13.30    0.47
  -3  -1   2   12.98    0.47
   3  -1  -2   12.39    0.56
  -3  -1   2   10.95    0.50
   3   1  -1   31.08    1.13
  -3   1   1   27.81    1.13
  -3   1   1   31.72    1.14
   3   1  -1   27.99    1.14
  -3  -1   1   31.06    1.14
   3  -1  -1   30.74    1.14
  -3  -1   1   31.04    1.13
   3  -1  -1   31.80    1.14
   3  -1  -1   30.91    1.19
  -3   1   0    3.54    0.17
   3   1   0    3.68    0.17
  -3   1   0    2.81    0.20
   3  -1   0    3.81    0.16
   3  -1   0    3.64    0.15
   3  -1   0    3.23    0.23
  -3   1  -1  233.61    8.71
  -3   1  -1  234.13    8.71
  -3   1  -1  235.89    8.71
   3   1   1  237.75    8.73
   3   1   1  235.40    8.70
   3  -1   1  239.43    8.72
  -3  -1  -1  249.68    8.72
  -3   1  -3   51.07    1.96
   3   1   3   50.26    1.94
  -3   1  -3   52.56    1.99
  -3   1  -3   52.04    1.95
   3   1   3   52.73    2.00
  -3  -1  -3   53.56    1.95
   3  -1   3   51.46    1.95
   3  -1   3   54.85    1.95
  -3  -1  -3   52.05    1.98
   3  -1   3   52.66    2.01
   3   1   4   23.45    1.01
  -3   1  -4   22.77    0.98
   3   1   4   23.90    0.94
  -3   1  -4   25.17    0.92
   3  -1   4   24.43    0.92
  -3  -1  -4   22.73    0.97
   3  -1   4   23.47    1.03
  -3  -1  -4   23.80    0.93
  -3   1  -5   43.06    1.68
   3   1   5   40.86    1.70
   3   1   5   43.08    1.60
  -3  -1  -5   42.80    1.61
   3  -1   5   42.22    1.61
  -3  -1  -5   42.23    1.67
   3  -1   5   42.61    1.60
   3  -1   5   41.10    1.72
   3   1   6   93.28    3.58
  -3   1  -6   82.80    3.43
   3   1   6   92.33    3.44
  -3   1  -6   95.88    3.54
   3  -1   6   97.39    3.54
   3  -1   6   91.00    3.67
  -3  -1  -6   93.54    3.46
  -3  -1  -6   94.55    3.53
   3  -1   6   93.07    3.45
   3   1   7    1.67    0.24
   3   1   7    1.87    0.29
  -3   1  -7    1.34    0.27
   3  -1   7    2.00    0.24
   3  -1   7    1.63    0.23
   3  -1   7    2.00    0.28
  -3  -1  -7    1.11    0.24
   3  -1   7    2.37    0.39
  -3   1  -8    4.36    0.51
   3   1   8    4.18    0.43
   3   1   8    5.02    0.35
   3  -1   8    4.74    0.34
   3  -1   8    4.46    0.36
  -3  -1  -8    5.07    0.48
   3  -1   8    4.56    0.51
   3   1   9    4.76    0.49
  -3   1  -9    3.53    0.50
  -3  -1  -9    4.98    0.68
   3  -1   9    3.51    0.51
   3  -1   9    4.42    0.63
   3  -1   9    4.31    0.44
   3  -1   9    4.40    0.36
   3   1  10    0.25    0.26
   3   1  10    0.32    0.22
  -3   1 -10    0.53    0.30
   3   1  10    0.58    0.37
   3  -1  10    0.78    0.23
   3  -1  10    0.51    0.19
  -3  -1 -10    0.34    0.30
   3  -1  10    0.28    0.18
   3   1  11    3.66    0.48
   3   1  11    3.48    0.45
  -3   1 -11    2.71    0.42
  -3  -1 -11    4.56    0.49
   3  -1  11    3.69    0.43
   3  -1  11    3.92    0.38
   3   1  12    0.53    0.27
  -3   1 -12   -0.13    0.32
   3   1  12    0.28    0.26
   3  -1  12    0.64    0.29
  -3  -1 -12   -0.22    0.33
   3  -1  12   -0.09    0.28
   3  -1  12    0.29    0.25
   3   2 -12    0.51    0.43
  -3   2  12    0.35    0.22
  -3  -2  12   -0.06    0.22
   3  -2 -12   -0.09    0.30
   3   2 -11    0.74    0.39
  -3   2  11    0.79    0.19
  -3  -2  11    0.74    0.22
   3  -2 -11    0.39    0.30
  -3   2  10    0.11    0.16
   3   2 -10    0.04    0.34
  -3   2  10   -0.50    0.32
  -3   2  10   -0.36    0.32
  -3  -2  10   -0.13    0.25
  -3  -2  10    0.52    0.24
   3  -2 -10   -0.11    0.27
   3   2  -9    3.24    0.29
  -3   2   9    3.67    0.48
  -3   2   9    2.70    0.32
   3   2  -9    2.60    0.46
   3  -2  -9    3.14    0.42
  -3  -2   9    3.75    0.54
   3  -2  -9    3.68    0.51
  -3  -2   9    3.02    0.34
   3   2  -8   28.72    1.38
  -3   2   8   27.54    1.33
   3   2  -8   26.99    1.09
  -3   2   8   27.66    1.10
  -3  -2   8   27.11    1.13
   3  -2  -8   27.98    1.29
   3  -2  -8   28.36    1.26
  -3   2   7   54.87    2.24
   3   2  -7   52.30    2.06
  -3   2   7   54.89    2.24
  -3   2   7   52.23    2.10
   3   2  -7   59.22    2.60
  -3  -2   7   53.88    2.08
   3  -2  -7   55.72    2.20
  -3  -2   7   55.90    2.20
   3   2  -6    6.47    0.64
   3   2  -6    7.42    0.34
  -3   2   6    6.80    0.57
  -3   2   6    6.97    0.37
  -3   2   6    5.93    0.58
   3  -2  -6    6.37    0.51
  -3  -2   6    6.43    0.65
  -3  -2   6    7.65    0.38
   3  -2  -6    6.37    0.53
  -3   2   5    1.76    0.27
  -3   2   5    1.10    0.24
   3   2  -5    2.28    0.35
   3  -2  -5    1.41    0.28
  -3  -2   5    2.11    0.30
  -3  -2   5    2.10    0.24
   3  -2  -5    1.45    0.24
   3   2  -4  196.64    7.31
  -3   2   4  193.11    7.42
  -3   2   4  200.61    7.38
  -3   2   4  200.52    7.40
  -3  -2   4  202.33    7.37
   3  -2  -4  199.87    7.37
  -3  -2   4  202.80    7.33
   3   2  -3   17.53    0.69
  -3   2   3   17.30    0.74
   3   2  -3   17.96    0.77
   3  -2  -3   16.12    0.82
   3  -2  -3   17.34    0.73
  -3  -2   3   18.46    0.72
  -3  -2   3   18.13    0.70
  -3   2   2  131.81    5.00
  -3   2   2  137.35    5.08
   3   2  -2  138.26    5.00
   3   2  -2  133.81    4.99
   3   2  -2  137.65    5.04
   3  -2  -2  132.23    5.01
  -3  -2   2  137.97    5.01
  -3  -2   2  140.19    5.02
   3   2  -1    2.95    0.16
  -3   2   1    3.59    0.31
   3   2  -1    2.78    0.18
  -3   2   1    2.80    0.18
   3  -2  -1    2.66    0.17
  -3  -2   1    2.86    0.17
   3  -2  -1    3.30    0.29
  -3   2   0  221.37    8.06
   3   2   0  228.34    8.06
  -3   2   0  217.35    8.08
   3   2   0  215.01    8.09
   3  -2   0  223.07    8.07
   3  -2   0  212.98    8.10
   3   2   1    3.80    0.27
  -3   2  -1    4.37    0.23
  -3   2  -1    3.94    0.23
   3   2   1    3.94    0.21
  -3   2  -1    3.91    0.18
   3  -2   1    4.83    0.37
   3  -2   1    4.14    0.30
   3  -2   1    3.79    0.22
  -3   2  -2    5.52    0.26
  -3   2  -2    5.05    0.26
   3   2   2    4.27    0.25
   3   2   2    4.65    0.33
   3   2   2    5.26    0.28
   3  -2   2    4.53    0.26
   3  -2   2    5.92    0.31
   3  -2   2    5.26    0.33
  -3  -2  -2    4.34    0.26
  -3   2  -3   81.29    3.14
   3   2   3   84.36    3.20
   3   2   3   82.35    3.21
  -3   2  -3   83.25    3.18
   3   2   3   98.55    3.31
  -3   2  -3   84.35    3.15
   3  -2   3   83.40    3.17
  -3  -2  -3   81.97    3.17
   3  -2   3   82.58    3.20
   3  -2   3   88.47    3.15
  -3   2  -4  267.64    9.76
  -3   2  -4  259.52    9.71
   3   2   4  260.36    9.82
   3   2   4  265.05    9.71
  -3   2  -4  267.85    9.71
   3   2   4  269.88    9.78
   3  -2   4  262.42    9.70
   3  -2   4  266.82    9.78
   3  -2   4  258.97    9.73
  -3  -2  -4  268.52    9.75
   3   2   5    1.97    0.21
  -3   2  -5    1.60    0.24
  -3   2  -5    1.75    0.20
   3   2   5    2.04    0.29
   3   2   5    1.78    0.29
  -3  -2  -5    1.81    0.27
   3  -2   5    1.52    0.20
   3  -2   5    1.69    0.27
   3  -2   5    1.95    0.20
   3   2   6    0.27    0.17
  -3   2  -6    0.06    0.19
   3   2   6    0.03    0.21
   3   2   6   -0.08    0.26
  -3   2  -6    0.04    0.07
  -3  -2  -6    0.05    0.15
   3  -2   6    0.02    0.30
   3  -2   6   -0.10    0.14
   3   2   7    3.08    0.41
   3   2   7    2.77    0.27
  -3   2  -7    1.89    0.28
   3   2   7    1.21    0.25
  -3  -2  -7    1.81    0.26
   3  -2   7    1.92    0.22
   3  -2   7    3.05    0.41
   3  -2   7    2.55    0.36
   3  -2   7    2.17    0.29
  -3   2  -8   -0.01    0.07
  -3   2  -8    0.10    0.24
   3   2   8    0.24    0.34
   3   2   8    0.41    0.17
   3  -2   8    0.40    0.18
   3  -2   8    0.25    0.13
   3  -2   8    0.15    0.16
  -3  -2  -8    0.02    0.21
   3   2   9    1.58    0.22
   3   2   9    1.59    0.34
   3   2   9    1.70    0.45
  -3  -2  -9    1.27    0.27
   3  -2   9    1.02    0.22
   3  -2   9    1.74    0.24
   3  -2   9    1.26    0.38
   3  -2   9    1.44    0.18
  -3   2 -10    0.28    0.29
   3   2  10   -0.18    0.17
   3  -2  10    0.14    0.20
   3  -2  10    0.13    0.17
  -3  -2 -10    0.08    0.26
   3  -2  10   -0.11    0.13
  -3   2 -11    0.58    0.37
   3   2  11    0.79    0.23
   3  -2  11    1.05    0.19
   3  -2  11    0.75    0.25
  -3  -2 -11    0.79    0.32
   3  -2  11    0.44    0.22
   3   2  12    0.01    0.19
   3   2  12   -0.31    0.29
  -3   2 -12    0.15    0.31
   3  -2  12    0.62    0.24
   3  -2  12   -0.02    0.24
  -3  -2 -12   -0.26    0.27
   3  -2  12   -0.10    0.14
  -3   3  12    0.12    0.32
   3   3 -12    0.30    0.55
  -3  -3  12    0.50    0.21
   3  -3 -12    0.47    0.31
  -3   3  11    0.06    0.20
   3   3 -11    0.14    0.38
  -3  -3  11   -0.04    0.20
   3  -3 -11    0.09    0.27
   3   3 -10    0.08    0.36
  -3   3  10   -0.14    0.34
  -3   3  10    0.11    0.19
   3   3 -10    0.04    0.14
   3  -3 -10    0.17    0.22
  -3  -3  10    0.06    0.19
  -3   3   9    0.26    0.33
   3   3  -9    0.06    0.15
  -3   3   9    0.20    0.18
  -3   3   9    0.12    0.33
  -3  -3   9    0.24    0.16
   3  -3  -9    0.21    0.22
  -3  -3   9    0.11    0.25
   3  -3  -9    0.13    0.28
  -3   3   8   11.67    0.83
   3   3  -8   11.72    0.53
  -3   3   8   11.51    0.81
  -3   3   8   11.59    0.56
   3   3  -8   11.33    0.91
   3  -3  -8   10.72    0.65
   3  -3  -8   11.70    0.79
  -3  -3   8   11.43    0.57
  -3   3   7   14.20    0.83
   3   3  -7   12.89    0.59
  -3   3   7   14.08    0.63
   3   3  -7   14.19    0.93
   3  -3  -7   14.11    0.84
   3  -3  -7   13.55    0.70
  -3  -3   7   12.04    0.70
  -3  -3   7   13.24    0.63
   3   3  -6   69.83    2.81
  -3   3   6   68.76    2.65
   3   3  -6   69.22    2.61
  -3   3   6   70.17    2.74
  -3  -3   6   69.80    2.64
  -3  -3   6   70.08    2.69
   3  -3  -6   68.77    2.80
   3  -3  -6   70.99    2.67
   3   3  -5    6.80    0.38
  -3   3   5    8.39    0.56
  -3   3   5    7.60    0.42
  -3   3   5    5.66    0.50
   3   3  -5    7.54    0.62
   3  -3  -5    6.89    0.47
  -3  -3   5    7.41    0.44
   3  -3  -5    8.74    0.60
  -3  -3   5    7.72    0.41
   3   3  -4    1.57    0.19
  -3   3   4    1.61    0.35
   3   3  -4    1.84    0.30
  -3   3   4    1.70    0.24
  -3   3   4    1.24    0.21
   3  -3  -4    1.41    0.20
  -3  -3   4    1.25    0.17
   3  -3  -4    1.33    0.26
  -3  -3   4    1.39    0.15
   3   3  -3   68.61    2.78
  -3   3   3   73.68    2.73
  -3   3   3   75.78    2.75
  -3   3   3   72.20    2.83
   3   3  -3   71.23    2.72
   3  -3  -3   72.21    2.84
   3  -3  -3   71.35    2.70
  -3  -3   3   74.64    2.73
  -3  -3   3   75.28    2.73
  -3   3   2   13.88    0.69
   3   3  -2   17.86    0.70
   3   3  -2   16.81    0.72
   3   3  -2   16.47    0.68
  -3   3   2   17.13    0.82
  -3  -3   2   17.03    0.82
   3  -3  -2   18.05    0.83
  -3   3   1   59.21    2.19
  -3   3   1   57.54    2.25
   3   3  -1   58.55    2.18
   3   3  -1   56.98    2.21
   3   3  -1   59.32    2.18
   3  -3  -1   58.82    2.20
  -3  -3   1   55.35    2.21
   3   3   0    2.48    0.19
   3   3   0    3.36    0.28
  -3   3   0    2.35    0.21
   3   3   0    2.55    0.18
  -3   3   0    3.05    0.33
   3   3   0    2.49    0.20
   3  -3   0    3.09    0.32
   3  -3   0    2.30    0.21
  -3   3  -1   80.71    2.99
   3   3   1   80.24    3.05
   3   3   1   79.07    2.98
   3   3   1   79.80    2.99
  -3   3  -1   81.99    2.99
   3  -3   1   79.24    3.03
   3  -3   1   78.93    3.00
  -3   3  -2   63.96    2.37
  -3   3  -2   64.28    2.36
   3   3   2   63.52    2.40
   3   3   2   62.76    2.47
  -3   3  -2   65.02    2.39
   3  -3   2   64.11    2.40
   3  -3   2   62.35    2.42
   3  -3   2   61.57    2.36
  -3   3  -3   16.84    0.81
   3   3   3   18.06    0.75
  -3   3  -3   18.16    0.72
   3   3   3   15.59    0.70
   3   3   3   16.96    0.83
  -3   3  -3   16.98    0.68
   3  -3   3   17.01    0.74
  -3  -3  -3   16.31    0.71
   3  -3   3   17.01    0.75
   3  -3   3   16.12    0.72
   3   3   4    1.90    0.23
  -3   3  -4    1.75    0.23
  -3   3  -4    1.42    0.21
   3   3   4    1.83    0.24
  -3   3  -4    1.75    0.18
   3   3   4    1.75    0.26
   3  -3   4    1.66    0.23
   3  -3   4    2.29    0.22
   3   3   5    2.33    0.30
  -3   3  -5    2.02    0.26
   3   3   5    1.99    0.21
   3  -3   5    2.33    0.26
   3  -3   5    2.38    0.29
   3  -3   5    2.04    0.29
  -3  -3  -5    2.29    0.26
  -3   3  -6   24.79    1.09
   3   3   6   25.30    1.18
   3   3   6   25.73    1.00
  -3  -3  -6   24.65    1.06
   3  -3   6   23.13    1.14
   3  -3   6   24.01    0.99
   3   3   7    2.37    0.39
  -3   3  -7    1.31    0.29
   3   3   7    2.34    0.30
   3  -3   7    1.25    0.18
   3  -3   7    1.72    0.26
  -3  -3  -7    1.37    0.24
   3   3   8   -0.05    0.23
   3   3   8    0.20    0.17
  -3   3  -8    0.23    0.12
  -3   3  -8    0.43    0.25
  -3  -3  -8    0.29    0.19
   3  -3   8    0.30    0.14
   3  -3   8    0.13    0.14
   3  -3   8    0.34    0.20
   3   3   9    0.23    0.18
  -3   3  -9   -0.10    0.25
   3  -3   9    0.22    0.16
   3  -3   9    0.06    0.29
   3  -3   9    0.29    0.20
  -3  -3  -9    0.41    0.24
   3  -3   9    0.34    0.14
  -3   3 -10    0.02    0.25
   3   3  10   -0.03    0.19
   3  -3  10   -0.11    0.14
  -3  -3 -10    0.24    0.24
   3  -3  10    0.24    0.19
   3   3  11    0.65    0.28
  -3   3 -11    0.79    0.36
  -3  -3 -11    0.85    0.28
   3  -3  11    0.68    0.32
   3   4 -11    2.93    0.55
  -3   4  11    2.74    0.44
   3  -4 -11    2.34    0.32
  -3  -4  11    3.02    0.42
  -3   4  10    0.74    0.24
   3   4 -10    1.20    0.46
  -3  -4  10    0.95    0.22
   3  -4 -10    1.27    0.26
   3   4  -9    1.64    0.47
   3   4  -9    1.71    0.22
  -3   4   9    1.88    0.23
  -3   4   9    2.92    0.50
  -3  -4   9    2.55    0.36
  -3  -4   9    2.33    0.34
   3  -4  -9    1.78    0.42
   3  -4  -9    1.96    0.27
  -3   4   8    0.21    0.52
   3   4  -8    0.35    0.40
  -3   4   8    0.48    0.19
  -3   4   8    0.45    0.32
  -3  -4   8    0.70    0.21
   3  -4  -8    0.44    0.31
  -3  -4   8    0.29    0.22
   3  -4  -8    0.38    0.19
   3   4  -7    0.36    0.14
  -3   4   7    0.02    0.31
  -3   4   7    0.53    0.19
   3   4  -7    0.69    0.37
  -3   4   7    0.75    0.29
  -3  -4   7    0.55    0.18
   3  -4  -7    0.95    0.47
   3  -4  -7    0.26    0.16
   3   4  -6    3.01    0.50
   3   4  -6    3.39    0.31
  -3   4   6    3.77    0.36
  -3   4   6    3.51    0.49
  -3  -4   6    3.28    0.33
  -3  -4   6    4.28    0.35
   3  -4  -6    3.22    0.42
   3  -4  -6    3.09    0.29
  -3   4   5    3.17    0.42
  -3   4   5    2.98    0.35
   3   4  -5    2.63    0.29
   3   4  -5    3.13    0.42
   3  -4  -5    2.58    0.37
   3  -4  -5    2.85    0.25
  -3  -4   5    2.58    0.30
  -3  -4   5    2.75    0.31
  -3   4   4   21.06    1.04
  -3   4   4   23.18    1.22
   3   4  -4   25.69    1.03
   3   4  -4   25.70    1.16
  -3   4   4   25.86    1.06
  -3  -4   4   26.37    1.06
   3  -4  -4   25.61    0.98
  -3  -4   4   27.21    1.04
   3  -4  -4   26.60    1.23
  -3   4   3    0.20    0.30
   3   4  -3    0.40    0.14
   3   4  -3    0.13    0.15
  -3   4   3    0.47    0.15
   3   4  -3    0.03    0.21
   3  -4  -3    0.27    0.26
  -3  -4   3    0.48    0.15
   3   4  -2   22.85    1.23
  -3   4   2   25.89    1.22
   3   4  -2   27.61    1.10
  -3   4   2   26.94    1.09
  -3  -4   2   28.20    1.09
   3  -4  -2   28.04    1.21
  -3   4   1    4.42    0.31
  -3   4   1    4.77    0.52
   3   4  -1    4.80    0.31
   3   4  -1    5.21    0.39
   3  -4  -1    4.80    0.45
  -3   4   0   28.94    1.25
   3   4   0   29.20    1.26
   3   4   0   30.01    1.16
   3   4   0   30.17    1.17
   3   4   0   31.18    1.31
   3  -4   0   28.30    1.27
   3  -4   0   31.38    1.21
   3   4   1    5.02    0.30
   3   4   1    4.59    0.33
  -3   4  -1    5.51    0.41
   3   4   1    4.69    0.43
   3  -4   1    4.83    0.42
   3  -4   1    4.63    0.38
   3   4   2    1.53    0.25
   3   4   2    1.31    0.17
   3  -4   2    1.18    0.21
  -3   4  -3   18.62    0.77
   3   4   3   19.32    0.84
   3   4   3   17.96    0.95
   3   4   3   18.95    0.82
  -3   4  -3   19.25    0.77
   3   4   3   19.72    0.84
   3  -4   3   18.97    0.84
   3  -4   3   19.04    0.76
   3  -4   3   18.02    0.84
   3   4   4   10.03    0.53
   3   4   4    9.71    0.69
   3   4   4    9.64    0.86
  -3   4  -4    9.97    0.51
  -3   4  -4    9.96    0.44
   3  -4   4    9.78    0.53
   3  -4   4    9.89    0.49
   3  -4   4    9.83    0.53
  -3   4  -5    0.58    0.20
   3   4   5    0.59    0.17
   3   4   5    0.71    0.27
   3   4   5    0.42    0.24
  -3   4  -5    0.75    0.12
   3  -4   5    0.95    0.18
   3  -4   5    1.03    0.19
   3  -4   5    0.94    0.19
  -3  -4  -5    0.48    0.16
   3   4   6    8.69    0.49
  -3   4  -6    9.28    0.56
   3   4   6    9.12    0.70
   3  -4   6    8.36    0.60
  -3  -4  -6    9.06    0.49
   3  -4   6    8.33    0.45
   3  -4   6    8.32    0.53
  -3   4  -7    0.14    0.13
  -3   4  -7    0.17    0.21
   3   4   7    0.30    0.28
   3   4   7    0.18    0.31
   3   4   7   -0.13    0.14
   3  -4   7    0.02    0.20
  -3  -4  -7    0.02    0.14
   3  -4   7    0.18    0.15
   3   4   8   -0.33    0.18
   3   4   8    0.13    0.34
  -3   4  -8   -0.15    0.22
   3  -4   8    0.22    0.21
  -3  -4  -8    0.07    0.17
   3  -4   8   -0.03    0.14
  -3   4  -9    0.07    0.24
   3   4   9    0.18    0.21
   3  -4   9    0.60    0.27
  -3  -4  -9    0.01    0.18
   3  -4   9    0.18    0.17
   3   4  10    1.90    0.40
  -3   4 -10    2.11    0.35
  -3  -4 -10    1.85    0.30
   3  -4  10    1.60    0.41
   3   5 -10    3.61    0.56
  -3   5  10    3.26    0.45
  -3  -5  10    3.21    0.39
   3  -5 -10    3.80    0.42
   3   5  -9    3.20    0.53
  -3   5   9    3.75    0.44
   3  -5  -9    2.81    0.34
  -3  -5   9    3.14    0.43
  -3   5   8    0.54    0.29
   3   5  -8    0.70    0.44
  -3   5   8    0.80    0.23
  -3  -5   8    0.74    0.23
  -3  -5   8    0.66    0.23
   3  -5  -8    0.35    0.36
   3  -5  -8    0.50    0.16
  -3   5   7    0.14    0.25
   3   5  -7    0.12    0.18
  -3   5   7    0.09    0.21
   3   5  -7    0.69    0.39
  -3  -5   7    0.36    0.21
   3  -5  -7    0.26    0.13
   3  -5  -7    0.04    0.30
   3   5  -6    2.17    0.44
  -3   5   6    1.79    0.30
  -3   5   6    2.32    0.48
  -3   5   6    2.80    0.38
  -3   5   6    2.41    0.30
  -3  -5   6    2.36    0.40
   3  -5  -6    2.35    0.22
   3  -5  -6    2.22    0.39
  -3   5   5    3.60    0.36
   3   5  -5    3.15    0.44
  -3   5   5    3.66    0.38
  -3   5   5    3.95    0.53
   3   5  -5    3.58    0.34
  -3   5   5    4.24    0.59
   3  -5  -5    2.92    0.71
  -3  -5   5    3.16    0.36
  -3   5   4    5.19    0.67
   3   5  -4    4.19    0.36
   3   5  -4    4.96    0.55
   3  -5  -4    4.82    0.57
  -3  -5   4    4.47    0.38
   3   5  -3    1.98    0.19
   3   5  -3    1.26    0.22
   3   5  -3    1.62    0.29
  -3   5   3    1.61    0.35
  -3  -5   3    1.54    0.24
   3  -5  -3    1.54    0.31
   3   5  -2    1.76    0.23
   3   5  -2    1.21    0.23
  -3   5   2    0.89    0.32
   3   5  -2    0.94    0.22
   3  -5  -2    0.80    0.27
  -3  -5   2    1.24    0.22
   3   5  -1    8.44    0.48
   3   5  -1    8.41    0.42
   3   5  -1    9.00    0.49
   3   5  -1    8.86    0.59
  -3   5   1    8.10    0.67
   3  -5  -1    8.29    0.75
   3   5   0   21.30    0.89
   3   5   0   21.18    0.91
  -3   5   0   19.97    0.99
   3   5   0   21.13    0.87
   3  -5   0   21.46    0.94
   3  -5   0   20.63    1.02
   3   5   1   10.76    0.50
   3   5   1   10.41    0.51
   3   5   1   11.00    0.56
   3   5   1   10.24    0.69
  -3   5  -1    8.30    0.76
   3  -5   1   10.43    0.64
   3  -5   1   10.96    0.57
   3   5   2    0.28    0.18
   3   5   2    0.58    0.27
   3   5   2    0.85    0.17
   3   5   2    0.44    0.14
  -3   5  -2    1.24    0.19
   3  -5   2    0.72    0.19
   3  -5   2    0.70    0.22
  -3   5  -3    3.30    0.28
   3   5   3    3.71    0.53
   3   5   3    3.05    0.35
   3   5   3    3.39    0.43
   3   5   3    3.89    0.39
   3  -5   3    3.17    0.36
   3  -5   3    3.01    0.35
  -3   5  -4    1.17    0.14
   3   5   4    0.86    0.28
   3   5   4    0.94    0.35
   3   5   4    1.27    0.26
  -3   5  -4    0.88    0.15
   3   5   4    1.00    0.21
   3  -5   4    1.22    0.17
   3  -5   4    0.84    0.24
   3  -5   4    1.04    0.20
  -3   5  -5    1.56    0.22
  -3   5  -5    2.26    0.20
   3   5   5    2.49    0.35
   3   5   5    2.47    0.35
   3   5   5    3.12    0.43
   3   5   5    2.60    0.35
  -3   5  -5    2.51    0.29
   3  -5   5    1.98    0.25
   3  -5   5    1.80    0.23
   3  -5   5    2.45    0.35
  -3   5  -6    1.05    0.21
   3   5   6    1.14    0.32
   3   5   6    0.80    0.21
   3  -5   6    0.78    0.22
   3  -5   6    1.11    0.20
   3   5   7    0.11    0.41
   3   5   7   -0.06    0.21
  -3   5  -7    0.12    0.21
   3  -5   7    0.03    0.20
   3  -5   7    0.05    0.16
   3   5   8    0.13    0.22
  -3   5  -8    0.34    0.25
   3  -5   8    0.51    0.25
   3  -5   8    0.89    0.20
   3   5   9    2.56    0.30
  -3   5  -9    2.72    0.37
   3  -5   9    2.38    0.33
  -3  -5  -9    2.08    0.28
  -3   6   8    0.55    0.24
   3   6  -8    1.05    0.39
  -3   6   8    1.38    0.28
  -3  -6   8    0.46    0.23
  -3   6   7   -0.02    0.23
   3   6  -7   -0.20    0.37
   3  -6  -7   -0.20    0.33
  -3  -6   7   -0.14    0.19
  -3   6   6   -0.10    0.23
   3   6  -6    0.29    0.37
  -3  -6   6    0.02    0.18
   3  -6  -6    0.08    0.28
  -3   6   5    0.13    0.23
   3   6  -5   -0.13    0.32
  -3  -6   5    0.37    0.20
   3  -6  -5    0.27    0.31
   3   6  -4    0.41    0.31
   3   6  -4    0.39    0.23
  -3  -6   4    0.37    0.19
   3  -6  -4    0.43    0.31
   3   6  -3    3.13    0.37
  -3   6   3    3.40    0.47
   3   6  -3    2.83    0.30
   3   6  -3    2.78    0.40
   3  -6  -3    3.31    0.44
  -3  -6   3    2.86    0.39
   3   6  -2    1.57    0.24
   3   6  -2    1.97    0.22
   3   6  -2    1.85    0.30
   3   6  -2    1.76    0.26
   3  -6  -2    1.69    0.34
   3   6  -1    2.63    0.37
   3   6  -1    2.49    0.25
  -3   6   1    2.58    0.36
   3   6  -1    2.46    0.36
   3   6  -1    2.98    0.35
   3  -6  -1    2.26    0.35
   3   6   0    1.42    0.21
  -3   6   0    0.76    0.28
   3   6   0    1.19    0.17
   3   6   0    0.83    0.19
  -3   6   0    1.15    0.29
   3   6   0    1.69    0.32
   3  -6   0    1.44    0.29
   3   6   1    2.99    0.31
   3   6   1    3.54    0.44
  -3   6  -1    2.87    0.43
   3   6   1    2.98    0.38
   3   6   1    3.19    0.30
   3  -6   1    2.99    0.39
   3  -6   1    3.39    0.47
   3   6   2    1.71    0.23
  -3   6  -2    1.80    0.23
   3   6   2    1.78    0.21
   3   6   2    2.16    0.43
   3   6   2    1.85    0.40
   3  -6   2    1.43    0.25
   3  -6   2    1.96    0.29
  -3   6  -3    2.91    0.42
   3   6   3    4.36    0.47
   3   6   3    3.67    0.42
   3   6   3    3.31    0.49
   3   6   3    3.75    0.33
   3  -6   3    3.63    0.40
   3  -6   3    4.13    0.45
   3   6   4    0.77    0.23
  -3   6  -4    1.53    0.23
   3   6   4    1.71    0.30
   3  -6   4    0.99    0.22
   3  -6   4    1.15    0.20
   3   6   5    2.09    0.29
   3   6   5    2.53    0.37
   3  -6   5    2.55    0.35
  -3   6  -6    0.52    0.16
   3   6   6    0.92    0.39
   3   6   6    0.45    0.24
   3  -6   6    0.49    0.24
  -3   6  -7    0.27    0.20
   3   6   7   -0.12    0.39
   3   6   7    0.08    0.25
   3  -6   7   -0.04    0.14
   3  -6   7    0.07    0.24
   3   7  -5    0.20    0.30
  -3   7   5   -0.04    0.23
   3  -7  -5   -0.23    0.45
  -3  -7   5   -0.18    0.27
   3   7  -4   -0.55    0.27
   3   7  -4    0.07    0.10
   3  -7  -4    0.07    0.30
   3   7  -3    0.46    0.12
   3  -7  -3    0.72    0.31
   3   7  -2    1.44    0.20
   3   7  -2    1.27    0.28
   3   7  -2    1.43    0.24
   3  -7  -2    1.31    0.34
   3   7  -1    0.62    0.27
  -3   7   1    0.75    0.49
   3  -7  -1    0.23    0.27
   3   7   0    0.54    0.32
  -3   7   0    0.48    0.27
   3  -7   0    0.25    0.29
   3   7   1    1.60    0.38
  -3   7  -1    1.47    0.25
   3   7   1    1.29    0.20
   3  -7   1    0.83    0.26
  -3   7  -2    1.54    0.23
   3   7   2    1.70    0.25
   3   7   2    1.22    0.21
   3  -7   2    1.69    0.28
   3  -7   2    1.44    0.31
   3   7   3    1.00    0.30
   3   7   3    0.66    0.17
  -3   7  -3    1.28    0.18
   3   7   3    0.79    0.26
   3  -7   3    0.57    0.44
   3   7   4    5.87    0.59
   3   7   4    6.44    0.43
   3   7   4    7.52    0.73
  -3   7  -4    6.14    0.36
   3  -7   4    6.51    0.58
   3   7   5    0.78    0.27
   3  -7   5    0.53    0.33
  -4   0  13   -0.47    0.19
  -4   0  13    0.39    0.32
   4   0 -13   -0.11    0.38
   4   0 -12    1.44    0.48
  -4   0  12    1.03    0.22
   4   0 -11    0.02    0.40
  -4   0  11    0.06    0.20
   4   0 -11    0.03    0.19
  -4   0  10    1.97    0.36
  -4   0  10    2.11    0.34
   4   0 -10    1.81    0.23
  -4   0  10    2.45    0.34
   4   0 -10    2.18    0.43
   4   0  -9   -0.06    0.35
  -4   0   9    0.27    0.33
  -4   0   9    0.05    0.15
  -4   0   9    0.00    0.14
   4   0  -9    0.11    0.16
   4   0  -8   17.66    1.01
  -4   0   8   17.84    0.73
  -4   0   8   16.94    0.86
   4   0  -8   17.35    0.73
   4   0  -8   17.27    0.83
   4   0  -7   -0.08    0.10
  -4   0   7    0.10    0.20
   4   0  -7   -0.03    0.18
   4   0  -7    0.03    0.32
  -4   0   7    0.27    0.24
  -4   0   7    0.01    0.10
  -4   0   6    6.65    0.42
  -4   0   6    8.70    0.50
   4   0  -6    7.94    0.45
   4   0  -6    7.50    0.36
  -4   0   6    7.96    0.53
   4   0  -6    7.85    0.62
   4   0  -5    0.83    0.17
  -4   0   5    0.88    0.19
   4   0  -5    0.62    0.25
  -4   0   5    1.47    0.28
  -4   0   4   29.92    1.17
   4   0  -4   27.19    1.10
   4   0  -4   30.00    1.18
  -4   0   4   33.33    1.10
   4   0  -4   28.96    1.22
  -4   0   4   27.14    1.18
   4   0  -3    0.38    0.05
   4   0  -3    0.49    0.13
  -4   0   3    0.75    0.13
   4   0  -3    0.44    0.13
  -4   0   3    0.36    0.09
   4   0  -1    0.69    0.08
  -4   0   0    7.13    0.26
  -4   0   0    6.69    0.29
   4   0   0    6.76    0.27
   4   0   0    6.93    0.30
  -4   0  -1    0.16    0.05
  -4   0  -1    0.31    0.05
   4   0   1    0.28    0.05
   4   0   1    0.30    0.07
   4   0   1    0.40    0.08
  -4   0  -1    0.43    0.06
  -4   0  -3    0.00    0.05
   4   0   3   -0.04    0.06
   4   0   3   -0.05    0.07
  -4   0  -3   -0.04    0.08
  -4   0  -4   23.79    0.98
   4   0   4   23.75    1.02
   4   0   4   25.42    0.94
  -4   0  -4   25.47    0.92
   4   0   4   20.75    0.95
  -4   0  -5    0.25    0.10
   4   0   5    0.20    0.21
  -4   0  -5    0.36    0.28
   4   0   5    0.01    0.11
   4   0   5    0.45    0.11
   4   0   6    5.48    0.54
  -4   0  -6    5.18    0.29
  -4   0  -6    4.81    0.40
   4   0   6    4.21    0.33
   4   0   7   -0.01    0.17
   4   0   7   -0.05    0.14
   4   0   7    0.14    0.14
  -4   0  -7    0.23    0.21
   4   0   7    0.24    0.15
   4   0   8   58.02    2.48
   4   0   8   64.18    2.37
   4   0   8   61.98    2.40
  -4   0  -8   63.81    2.49
   4   0   9   -0.04    0.19
   4   0   9   -0.03    0.18
   4   0   9    0.35    0.42
  -4   0  -9    0.01    0.09
  -4   0  -9   -0.26    0.25
   4   0  10    0.87    0.26
   4   0  10    0.06    0.22
   4   0  10    0.00    0.20
  -4   0 -10    0.27    0.30
   4   0  11   -0.07    0.21
  -4   0 -11    0.11    0.34
   4   0  11    0.36    0.23
   4   0  11    0.19    0.27
   4   0  12   -0.36    0.20
   4   0  12    0.28    0.24
  -4   0 -12    0.16    0.37
   4   1 -13    0.33    0.37
  -4   1  13    0.22    0.24
  -4  -1  13    0.24    0.21
   4  -1 -13   -0.38    0.34
  -4  -1  13    0.35    0.19
  -4  -1  13   -0.04    0.21
  -4   1  12    0.22    0.20
   4   1 -12    0.16    0.40
  -4   1  12    0.74    0.35
  -4  -1  12    0.04    0.20
  -4  -1  12    0.41    0.15
  -4  -1  12   -0.13    0.21
   4  -1 -12    0.17    0.34
   4   1 -11    1.07    0.41
  -4   1  11    1.27    0.35
  -4   1  11    1.00    0.21
   4   1 -11    1.16    0.20
  -4  -1  11    1.08    0.25
  -4  -1  11    0.96    0.21
   4  -1 -11    1.13    0.42
   4   1 -10    0.59    0.40
  -4   1  10    1.62    0.40
  -4   1  10    1.62    0.21
   4   1 -10    1.45    0.19
   4  -1 -10    1.38    0.24
  -4  -1  10    1.49    0.21
  -4  -1  10    1.38    0.25
  -4  -1  10    1.61    0.33
   4  -1 -10    1.28    0.36
  -4   1   9    0.20    0.15
   4   1  -9    0.41    0.39
  -4   1   9    1.04    0.29
  -4   1   9    0.70    0.35
   4   1  -9    0.31    0.16
  -4  -1   9    0.47    0.16
   4  -1  -9    0.53    0.34
   4  -1  -9   -0.10    0.22
   4  -1  -9    0.26    0.18
  -4  -1   9    0.65    0.22
   4   1  -8   53.40    2.21
  -4   1   8   51.28    2.11
   4   1  -8   51.97    1.95
  -4   1   8   50.49    2.13
  -4   1   8   47.97    1.98
   4  -1  -8   51.73    1.98
  -4  -1   8   51.67    1.99
  -4  -1   8   52.83    1.96
   4  -1  -8   50.86    2.10
   4  -1  -8   53.10    2.16
   4   1  -7    1.26    0.34
  -4   1   7    1.42    0.30
   4   1  -7    1.71    0.19
  -4   1   7    1.33    0.30
  -4   1   7    1.73    0.21
  -4  -1   7    2.09    0.32
   4  -1  -7    1.59    0.25
   4  -1  -7    2.22    0.37
  -4  -1   7    1.70    0.16
   4  -1  -7    1.75    0.19
   4   1  -6   28.98    1.12
   4   1  -6   27.43    1.08
  -4   1   6   29.29    1.23
  -4   1   6   28.17    1.08
  -4   1   6   28.57    1.22
   4   1  -6   30.04    1.30
  -4  -1   6   28.92    1.23
  -4  -1   6   23.67    1.14
   4  -1  -6   28.96    1.22
  -4  -1   6   28.50    1.11
   4  -1  -6   28.99    1.27
  -4   1   5   24.84    1.06
   4   1  -5   24.93    0.94
   4   1  -5   24.72    0.98
  -4   1   5   24.86    0.95
  -4   1   5   25.16    1.08
   4   1  -5   24.65    1.10
   4  -1  -5   23.08    1.31
  -4  -1   5   24.67    0.96
  -4  -1   5   25.36    0.95
  -4   1   4   30.64    1.28
  -4   1   4   29.41    1.25
   4   1  -4   32.42    1.17
  -4   1   4   32.41    1.18
   4   1  -4   29.79    1.20
  -4  -1   4   33.44    1.18
   4  -1  -4   30.33    1.28
   4  -1  -4   30.26    1.28
  -4  -1   4   31.81    1.25
  -4  -1   4   33.17    1.18
  -4   1   3  161.95    5.87
  -4   1   3  155.82    5.84
  -4   1   3  161.82    5.81
   4   1  -3  157.08    5.81
   4   1  -3  155.85    5.79
   4  -1  -3  160.44    5.86
  -4  -1   3  158.45    5.80
   4  -1  -3  156.45    5.88
  -4  -1   3  157.17    5.80
  -4  -1   3  157.41    5.84
  -4   1   2  509.43   18.97
   4   1  -2  528.86   19.00
  -4   1   2  521.96   19.01
   4  -1  -2  513.84   19.02
  -4  -1   2  521.07   18.99
   4   1  -1  107.97    3.90
   4   1  -1  103.96    3.88
  -4   1   1  106.73    3.91
  -4   1   1  106.56    3.88
   4   1  -1  101.19    3.87
   4  -1  -1  107.37    3.89
  -4  -1   1  104.64    3.89
   4  -1  -1  103.76    3.92
   4  -1  -1  108.76    3.89
  -4   1   0   65.28    2.41
  -4   1   0   65.96    2.40
   4   1   0   62.25    2.40
   4   1   0   63.02    2.39
   4  -1   0   63.87    2.40
   4  -1   0   69.12    2.40
   4  -1   0   65.01    2.42
   4   1   1  439.05   16.07
  -4   1  -2  585.71   21.69
  -4  -1  -2  600.56   21.70
   4   1   3  280.86   10.32
  -4   1  -3  277.12   10.28
  -4   1  -3  283.20   10.30
  -4   1  -3  279.80   10.26
   4   1   3  269.67   10.26
   4  -1   3  282.01   10.28
  -4  -1  -3  281.46   10.27
   4  -1   3  284.04   10.32
  -4  -1  -3  284.68   10.31
   4   1   4    3.34    0.22
   4   1   4    3.53    0.31
  -4   1  -4    3.09    0.43
  -4   1  -4    3.77    0.21
  -4  -1  -4    3.73    0.22
   4  -1   4    3.18    0.24
  -4  -1  -4    3.74    0.28
   4  -1   4    3.45    0.23
   4  -1   4    3.46    0.38
  -4   1  -5    1.24    0.15
  -4   1  -5    1.01    0.18
   4   1   5    1.10    0.27
   4   1   5    1.22    0.20
   4   1   5    1.00    0.13
   4  -1   5    1.01    0.13
  -4  -1  -5    1.02    0.16
   4  -1   5    1.18    0.22
   4  -1   5    0.97    0.26
  -4  -1  -5    1.01    0.13
   4   1   6    0.45    0.13
  -4   1  -6    0.30    0.10
   4   1   6    0.35    0.19
  -4   1  -6    0.34    0.17
  -4  -1  -6    0.28    0.11
  -4  -1  -6    0.28    0.20
   4  -1   6    0.42    0.24
   4  -1   6    0.43    0.13
  -4   1  -7    8.47    0.56
   4   1   7    7.93    0.56
   4   1   7    7.85    0.43
   4  -1   7    7.49    0.64
  -4  -1  -7    8.48    0.54
   4  -1   7    7.71    0.43
   4  -1   7    7.48    0.43
   4   1   8   29.96    1.31
   4   1   8   31.30    1.24
  -4   1  -8   30.72    1.36
   4  -1   8   30.89    1.24
   4  -1   8   29.31    1.32
  -4  -1  -8   32.52    1.36
   4   1   9    2.10    0.34
  -4   1  -9    1.46    0.34
   4   1   9    1.29    0.40
   4   1   9    1.63    0.24
   4   1   9    1.97    0.29
   4  -1   9    1.47    0.21
  -4  -1  -9    1.86    0.33
   4  -1   9    1.48    0.44
   4  -1   9    2.22    0.30
   4  -1   9    1.73    0.23
   4   1  10    0.80    0.27
   4   1  10    0.58    0.22
  -4   1 -10    0.81    0.31
   4   1  10    0.29    0.31
   4  -1  10    0.84    0.21
   4  -1  10    0.54    0.26
   4  -1  10    0.99    0.24
  -4  -1 -10    0.96    0.32
   4   1  11    0.05    0.23
   4   1  11    0.04    0.22
  -4   1 -11    0.12    0.30
  -4  -1 -11   -0.05    0.29
   4  -1  11    0.06    0.21
   4  -1  11    0.24    0.19
   4   1  12    1.58    0.29
  -4   1 -12    0.89    0.38
   4   1  12    1.32    0.27
   4  -1  12    1.16    0.27
   4  -1  12    1.12    0.33
  -4  -1 -12    1.23    0.39
   4  -1  12    1.51    0.24
   4   2 -12    0.20    0.44
  -4   2  12    0.16    0.19
   4  -2 -12    0.03    0.29
  -4  -2  12    0.12    0.20
   4   2 -11    1.29    0.24
   4   2 -11    0.36    0.46
  -4   2  11    1.02    0.20
   4  -2 -11    1.05    0.36
  -4  -2  11    1.47    0.23
   4   2 -10    0.33    0.42
   4   2 -10   -0.12    0.16
  -4   2  10   -0.29    0.47
  -4   2  10   -0.13    0.18
  -4   2  10    0.18    0.32
   4  -2 -10    0.01    0.27
  -4  -2  10   -0.05    0.27
  -4  -2  10   -0.05    0.16
   4   2  -9    9.09    0.46
  -4   2   9    9.83    0.49
   4   2  -9   10.20    0.87
  -4   2   9    9.19    0.75
   4  -2  -9    9.44    0.71
   4  -2  -9    8.22    0.69
  -4  -2   9    9.52    0.51
  -4   2   8    3.71    0.42
   4   2  -8    2.63    0.26
   4   2  -8    3.35    0.49
  -4   2   8    2.87    0.31
   4  -2  -8    3.03    0.37
   4  -2  -8    2.43    0.35
   4   2  -7   35.29    1.51
   4   2  -7   37.08    1.70
  -4   2   7   37.13    1.63
  -4   2   7   38.04    1.44
  -4   2   7   37.85    1.61
  -4  -2   7   38.41    1.46
  -4  -2   7   37.73    1.57
   4  -2  -7   35.32    1.97
   4  -2  -7   38.71    1.59
   4   2  -6    0.01    0.29
  -4   2   6    0.15    0.24
   4   2  -6   -0.01    0.09
  -4   2   6    0.09    0.23
  -4   2   6    0.01    0.12
  -4  -2   6    0.05    0.13
   4  -2  -6    0.21    0.23
  -4  -2   6    0.24    0.18
   4  -2  -6    0.02    0.20
  -4   2   5    7.71    0.49
  -4   2   5    6.99    0.55
  -4   2   5    7.27    0.36
   4   2  -5    7.02    0.55
   4   2  -5    6.92    0.33
  -4  -2   5    7.43    0.42
   4  -2  -5    7.34    0.51
   4  -2  -5    7.29    0.51
  -4  -2   5    6.53    0.35
  -4   2   4   16.78    0.75
  -4   2   4   17.18    0.83
   4   2  -4   17.80    0.68
   4   2  -4   17.00    0.80
  -4  -2   4   17.48    0.69
  -4  -2   4   16.62    0.73
   4  -2  -4   17.14    0.77
   4  -2  -4   17.80    0.83
   4   2  -3    0.28    0.13
   4   2  -3    0.34    0.08
  -4   2   3    0.31    0.11
  -4   2   3    0.15    0.09
  -4   2   3    0.18    0.24
  -4  -2   3    0.25    0.07
  -4  -2   3    0.08    0.08
   4  -2  -3    0.22    0.15
   4  -2  -3    0.28    0.19
  -4   2   2   10.72    0.45
  -4   2   2   10.53    0.56
   4   2  -2   10.31    0.47
  -4   2   2   10.23    0.42
   4   2  -2   10.16    0.41
   4   2  -2   10.05    0.42
  -4  -2   2   10.94    0.46
   4  -2  -2   10.23    0.55
   4  -2  -2   10.21    0.46
  -4  -2   2   10.78    0.43
   4   2  -1   87.26    3.21
   4   2  -1   85.60    3.19
   4   2  -1   83.67    3.19
  -4   2   1   87.64    3.20
  -4   2   1   88.37    3.24
   4  -2  -1   84.59    3.20
   4  -2  -1   87.31    3.26
   4   2   0   75.86    2.80
  -4   2   0   77.97    2.82
  -4   2   0   74.14    2.81
   4  -2   0   74.86    2.81
   4  -2   0   74.89    2.85
  -4   2  -1   31.54    1.19
  -4   2  -1   32.95    1.22
  -4   2  -1   31.84    1.22
   4   2   1   32.20    1.23
   4   2   1   32.26    1.21
   4  -2   1   31.93    1.22
   4  -2   1   31.24    1.22
   4  -2   1   31.45    1.26
   4   2   2  144.51    5.20
   4   2   2  143.65    5.25
  -4   2  -2  141.85    5.17
  -4   2  -2  143.97    5.17
  -4   2  -2  138.01    5.16
   4   2   2  142.62    5.16
   4  -2   2  143.04    5.18
   4  -2   2  143.14    5.19
   4  -2   2  121.41    5.26
   4   2   3   17.48    0.75
   4   2   3   16.45    0.69
  -4   2  -3   17.94    0.69
  -4   2  -3   16.40    0.68
  -4   2  -3   17.46    0.71
   4  -2   3   17.85    0.71
  -4  -2  -3   16.39    0.71
   4  -2   3   16.41    0.70
   4  -2   3   17.32    0.77
   4   2   4  184.62    6.76
   4   2   4  181.00    6.68
  -4   2  -4  184.12    6.68
  -4   2  -4  173.02    6.77
   4   2   4  178.47    6.80
  -4   2  -4  181.62    6.69
   4  -2   4  182.77    6.76
  -4  -2  -4  186.47    6.73
   4  -2   4  178.65    6.68
   4  -2   4  185.11    6.70
   4   2   5   26.05    0.99
  -4   2  -5   26.22    1.07
  -4   2  -5   22.70    0.98
   4   2   5   25.26    1.13
   4  -2   5   24.65    1.02
  -4  -2  -5   26.07    1.06
   4  -2   5   24.61    0.99
   4  -2   5   24.57    1.15
   4   2   6    2.39    0.32
  -4   2  -6    1.44    0.23
   4   2   6    2.05    0.32
   4   2   6    1.79    0.19
   4  -2   6    2.34    0.25
  -4  -2  -6    1.34    0.21
   4  -2   6    1.96    0.36
  -4  -2  -6    1.84    0.21
   4  -2   6    1.49    0.19
   4   2   7   73.70    2.74
   4   2   7   71.37    2.93
  -4   2  -7   73.63    2.85
  -4  -2  -7   74.90    2.83
   4  -2   7   69.76    2.90
   4  -2   7   72.77    2.73
   4  -2   7   72.99    2.77
   4   2   8    4.06    0.38
   4   2   8    4.20    0.75
   4   2   8    4.89    0.55
  -4   2  -8    4.72    0.50
   4  -2   8    5.72    0.34
   4  -2   8    5.08    0.41
   4  -2   8    3.97    0.49
  -4  -2  -8    4.26    0.47
   4   2   9    0.42    0.30
  -4   2  -9    0.70    0.28
   4   2   9    0.77    0.48
   4   2   9    0.79    0.18
  -4  -2  -9    0.57    0.24
   4  -2   9    0.99    0.22
   4  -2   9    0.80    0.17
   4  -2   9    1.31    0.40
   4  -2   9    0.53    0.20
   4   2  10   -0.26    0.18
  -4   2 -10   -0.40    0.27
  -4  -2 -10    0.16    0.26
   4  -2  10    0.01    0.17
   4  -2  10   -0.09    0.19
   4  -2  10    0.09    0.16
  -4   2 -11    0.58    0.30
   4   2  11    0.34    0.27
   4   2  11   -0.13    0.22
   4  -2  11    0.79    0.23
   4  -2  11    0.13    0.24
   4  -2  11    0.48    0.16
  -4  -2 -11    0.45    0.32
  -4   3  12   -0.15    0.26
   4   3 -12   -0.44    0.50
   4  -3 -12   -0.07    0.29
  -4  -3  12    0.03    0.20
  -4   3  11    0.20    0.19
   4   3 -11   -0.06    0.44
  -4  -3  11    0.17    0.18
   4  -3 -11    0.18    0.26
   4   3 -10    0.63    0.44
   4   3 -10    0.62    0.15
  -4   3  10    0.91    0.19
  -4   3  10    0.40    0.33
  -4  -3  10    0.67    0.20
   4  -3 -10    0.68    0.35
   4  -3 -10    0.73    0.27
  -4   3   9    0.11    0.31
   4   3  -9    0.01    0.45
  -4   3   9    0.17    0.23
  -4   3   9    0.24    0.34
   4   3  -9    0.36    0.15
  -4  -3   9    0.03    0.14
   4  -3  -9    0.17    0.27
  -4  -3   9    0.39    0.24
   4  -3  -9    0.38    0.25
  -4   3   8    0.52    0.33
   4   3  -8    0.12    0.38
   4   3  -8    0.12    0.12
  -4   3   8    0.23    0.15
  -4   3   8   -0.01    0.29
  -4  -3   8    0.01    0.17
   4  -3  -8    0.56    0.24
   4  -3  -8    0.27    0.27
  -4   3   7    0.30    0.16
   4   3  -7    0.21    0.15
   4   3  -7    0.31    0.36
  -4   3   7    0.39    0.28
  -4  -3   7    0.24    0.16
   4  -3  -7    0.12    0.19
   4  -3  -7    0.37    0.27
  -4   3   6   17.90    0.84
  -4   3   6   18.20    0.90
   4   3  -6   20.74    0.88
   4   3  -6   17.30    1.05
   4  -3  -6   17.97    0.97
  -4  -3   6   17.74    0.84
   4  -3  -6   17.92    0.83
  -4  -3   6   17.24    0.77
   4   3  -5   59.52    2.26
  -4   3   5   60.26    2.31
   4   3  -5   61.15    2.42
  -4   3   5   60.24    2.34
  -4   3   5   64.35    2.30
   4  -3  -5   59.02    2.60
  -4  -3   5   62.62    2.29
   4  -3  -5   59.57    2.31
  -4  -3   5   56.02    2.38
  -4   3   4   57.37    2.31
   4   3  -4   57.99    2.27
   4   3  -4   56.32    2.17
  -4   3   4   58.28    2.20
  -4   3   4   57.25    2.26
   4  -3  -4   56.88    2.18
   4  -3  -4   57.59    2.32
  -4  -3   4   59.59    2.21
  -4  -3   4   58.52    2.19
   4   3  -3  111.27    4.22
  -4   3   3  111.00    4.27
  -4   3   3  112.41    4.15
  -4   3   3  114.64    4.19
   4   3  -3  109.17    4.15
  -4  -3   3  119.22    4.18
   4  -3  -3  112.49    4.29
   4  -3  -3  108.38    4.14
  -4   3   2  186.62    6.90
   4   3  -2  182.15    6.86
   4   3  -2  183.90    6.80
   4   3  -2  186.25    6.84
   4   3  -2  190.26    6.82
  -4   3   2  186.38    6.84
  -4  -3   2  179.66    6.83
   4  -3  -2  187.57    6.93
   4   3  -1   24.71    1.02
  -4   3   1   25.35    1.07
  -4   3   1   25.48    1.00
   4   3  -1   25.55    1.00
   4   3  -1   24.82    0.98
   4  -3  -1   24.56    1.09
   4  -3  -1   25.09    1.00
   4   3   0    2.84    0.19
   4   3   0    2.85    0.28
  -4   3   0    3.00    0.32
   4   3   0    2.58    0.21
  -4   3   0    2.85    0.22
   4   3   0    2.60    0.20
   4  -3   0    2.56    0.21
   4   3   1   10.46    0.48
  -4   3  -1   11.03    0.50
  -4   3  -1   10.89    0.49
   4   3   1   10.69    0.48
   4   3   1    9.91    0.55
   4  -3   1   10.77    0.57
   4  -3   1   10.95    0.49
  -4   3  -2  178.87    6.58
  -4   3  -2  177.89    6.60
  -4   3  -2  178.01    6.61
   4   3   2  185.18    6.60
   4   3   2  177.38    6.70
   4   3   2  180.48    6.63
   4  -3   2  177.79    6.59
   4  -3   2  176.45    6.64
   4  -3   2  180.74    6.62
  -4   3  -3   15.48    0.67
   4   3   3   15.52    0.66
   4   3   3   15.69    0.71
   4   3   3   13.38    1.01
  -4   3  -3   15.60    0.64
  -4   3  -3   16.26    0.66
   4  -3   3   15.52    0.71
   4  -3   3   15.44    0.72
   4  -3   3   15.10    0.68
   4   3   4    1.51    0.27
   4   3   4    1.66    0.43
  -4   3  -4    1.10    0.18
   4   3   4    1.18    0.17
  -4   3  -4    1.62    0.20
   4  -3   4    1.42    0.26
   4  -3   4    1.89    0.23
  -4  -3  -4    1.19    0.18
   4  -3   4    0.94    0.25
   4   3   5   11.71    0.71
   4   3   5   12.93    0.57
  -4   3  -5   11.57    0.54
  -4   3  -5   13.36    0.63
   4  -3   5   11.90    0.59
   4  -3   5   11.88    0.59
  -4  -3  -5   12.57    0.60
   4  -3   5   11.63    0.70
  -4   3  -6   88.53    3.39
   4   3   6   89.49    3.31
   4   3   6   89.35    3.47
   4  -3   6   89.49    3.35
  -4  -3  -6   88.77    3.37
   4  -3   6   85.19    3.43
   4   3   7    0.39    0.32
  -4   3  -7    0.05    0.21
   4   3   7   -0.03    0.16
   4  -3   7    0.35    0.19
  -4  -3  -7    0.15    0.18
   4  -3   7    0.35    0.18
   4  -3   7   -0.07    0.22
   4   3   8    0.29    0.18
   4   3   8    0.16    0.33
  -4   3  -8    0.11    0.22
  -4   3  -8    0.10    0.11
   4   3   8    0.29    0.29
   4  -3   8    0.22    0.15
   4  -3   8    0.42    0.38
   4  -3   8    0.07    0.14
  -4  -3  -8    0.20    0.25
   4  -3   8    0.06    0.14
  -4   3  -9    0.19    0.26
   4   3   9    0.08    0.19
   4  -3   9    0.11    0.16
   4  -3   9    0.19    0.15
   4  -3   9    0.21    0.16
  -4  -3  -9    0.39    0.26
   4  -3   9    0.15    0.31
  -4   3 -10   -0.03    0.27
   4   3  10    0.02    0.17
   4  -3  10    0.01    0.14
   4  -3  10   -0.01    0.17
   4  -3  10   -0.02    0.15
  -4  -3 -10   -0.17    0.25
  -4   3 -11    0.18    0.30
   4   3  11   -0.04    0.20
   4  -3  11    0.18    0.15
   4  -3  11   -0.31    0.20
  -4  -3 -11    0.26    0.30
   4  -3  11    0.12    0.24
   4   4 -11    1.61    0.48
  -4   4  11    1.61    0.37
   4  -4 -11    1.51    0.29
  -4  -4  11    1.38    0.27
  -4   4  10    2.12    0.27
   4   4 -10    2.62    0.54
  -4   4  10    1.93    0.43
  -4  -4  10    1.74    0.26
   4  -4 -10    2.02    0.30
   4   4  -9    0.80    0.17
   4   4  -9    1.06    0.44
  -4   4   9    0.89    0.33
  -4   4   9    0.87    0.19
   4  -4  -9    0.77    0.30
   4  -4  -9    1.17    0.25
  -4  -4   9    0.90    0.23
  -4  -4   9    0.64    0.27
   4   4  -8    0.40    0.16
   4   4  -8    0.44    0.41
  -4   4   8    0.81    0.21
  -4   4   8    0.32    0.29
   4  -4  -8    0.51    0.19
  -4  -4   8    0.49    0.19
   4  -4  -8    0.50    0.32
  -4   4   7    1.43    0.36
   4   4  -7    1.97    0.41
  -4   4   7    1.27    0.28
   4   4  -7    1.33    0.17
  -4   4   7    1.37    0.22
   4  -4  -7    1.39    0.20
   4  -4  -7    1.42    0.42
  -4  -4   7    1.36    0.21
   4   4  -6    5.90    0.36
  -4   4   6    5.50    0.47
  -4   4   6    5.77    0.40
   4   4  -6    5.46    0.66
   4  -4  -6    5.24    0.59
   4  -4  -6    5.50    0.35
  -4  -4   6    5.35    0.39
  -4  -4   6    5.58    0.38
  -4   4   5    0.16    0.08
  -4   4   5    0.16    0.17
   4   4  -5    0.28    0.15
   4   4  -5    0.23    0.30
  -4   4   5   -0.02    0.10
  -4   4   5   -0.14    0.18
  -4  -4   5    0.14    0.15
   4  -4  -5    0.04    0.11
   4  -4  -5    0.04    0.26
   4   4  -4  101.46    3.95
  -4   4   4  106.29    3.94
   4   4  -4  106.00    4.06
  -4  -4   4  108.21    3.98
   4  -4  -4  106.49    4.13
  -4  -4   4  111.12    4.00
   4  -4  -4  103.59    3.92
  -4   4   3   63.07    2.51
   4   4  -3   60.81    2.31
   4   4  -3   63.53    2.43
   4   4  -3   63.94    2.35
  -4   4   3   64.87    2.40
   4  -4  -3   52.92    2.87
  -4  -4   3   65.57    2.39
   4   4  -2    6.66    0.43
   4   4  -2    6.45    0.42
   4   4  -2    6.44    0.46
  -4   4   2    7.26    0.61
  -4   4   2    7.66    0.41
   4  -4  -2    7.34    0.57
  -4  -4   2    6.96    0.39
   4   4  -1    0.45    0.18
  -4   4   1    0.62    0.16
   4   4  -1    0.24    0.13
   4   4  -1    0.59    0.18
  -4   4   1    0.70    0.47
   4  -4  -1    0.65    0.21
   4  -4  -1    0.68    0.20
   4   4   0    0.81    0.21
   4   4   0    0.67    0.22
   4   4   0    0.66    0.13
  -4   4   0    0.41    0.12
  -4   4   0    0.30    0.22
   4   4   0    0.44    0.13
   4  -4   0    0.51    0.17
   4  -4   0    0.83    0.22
   4   4   1    1.01    0.16
  -4   4  -1    1.02    0.19
  -4   4  -1    0.56    0.15
   4   4   1    0.87    0.16
   4   4   1    0.72    0.21
   4  -4   1    0.50    0.26
   4  -4   1    0.83    0.22
   4   4   2    2.30    0.26
  -4   4  -2    2.42    0.29
   4   4   2    1.90    0.31
   4   4   2    1.49    0.20
   4  -4   2    1.42    0.19
   4  -4   2    2.25    0.27
   4   4   3   34.63    1.32
   4   4   3   34.04    1.33
  -4   4  -3   33.49    1.27
   4   4   3   32.83    1.46
  -4   4  -3   32.96    1.28
   4   4   3   29.89    1.41
   4  -4   3   31.79    1.39
   4  -4   3   33.89    1.34
   4  -4   3   33.20    1.27
   4   4   4    3.88    0.34
  -4   4  -4    3.38    0.26
  -4   4  -4    3.28    0.29
   4   4   4    3.88    0.50
   4   4   4    3.81    0.40
   4  -4   4    3.51    0.31
   4  -4   4    3.29    0.33
   4  -4   4    3.66    0.48
  -4   4  -5    7.96    0.46
   4   4   5    6.27    0.57
   4   4   5    7.88    0.59
  -4   4  -5    7.18    0.39
   4   4   5    7.89    0.46
   4  -4   5    7.34    0.47
   4  -4   5    8.07    0.48
   4  -4   5    8.02    0.48
  -4   4  -6   -0.05    0.11
  -4   4  -6    0.30    0.19
   4   4   6    0.40    0.25
   4   4   6   -0.11    0.21
   4   4   6    0.21    0.25
   4  -4   6   -0.06    0.17
   4  -4   6    0.01    0.17
  -4  -4  -6   -0.11    0.16
   4  -4   6   -0.36    0.16
  -4   4  -7   -0.01    0.19
   4   4   7    0.19    0.18
   4  -4   7   -0.07    0.15
   4  -4   7    0.00    0.19
   4  -4   7   -0.04    0.14
  -4  -4  -7    0.09    0.18
  -4   4  -8   -0.05    0.22
   4   4   8   -0.03    0.19
   4   4   8   -0.06    0.37
   4  -4   8    0.16    0.15
   4  -4   8   -0.06    0.16
   4  -4   8    0.22    0.22
  -4  -4  -8   -0.01    0.15
   4   4   9   -0.16    0.20
  -4   4  -9    0.17    0.24
   4  -4   9    0.37    0.28
  -4  -4  -9   -0.01    0.17
   4  -4   9    0.10    0.15
   4   4  10    0.00    0.22
  -4   4 -10   -0.17    0.24
   4  -4  10    0.01    0.15
  -4  -4 -10    0.42    0.23
  -4   5  10    1.64    0.26
   4   5 -10    2.21    0.50
   4  -5 -10    1.91    0.27
  -4  -5  10    2.40    0.32
  -4   5   9    3.69    0.43
  -4   5   9    3.53    0.53
   4   5  -9    3.45    0.56
   4  -5  -9    3.64    0.37
   4  -5  -9    3.34    0.57
  -4  -5   9    3.93    0.45
  -4   5   8    1.22    0.25
  -4   5   8    0.61    0.26
   4   5  -8    1.40    0.48
   4  -5  -8    1.46    0.45
   4  -5  -8    0.76    0.18
  -4  -5   8    0.94    0.22
  -4  -5   8    0.83    0.23
  -4   5   7    0.20    0.18
   4   5  -7    0.13    0.39
  -4   5   7    0.19    0.25
   4   5  -7    0.34    0.17
   4  -5  -7    0.17    0.12
  -4  -5   7    0.30    0.20
   4  -5  -7   -0.13    0.30
  -4  -5   7    0.37    0.17
  -4   5   6    0.23    0.18
  -4   5   6    0.33    0.17
   4   5  -6    0.25    0.23
   4   5  -6    0.17    0.33
  -4   5   6    0.13    0.54
  -4   5   6    0.10    0.24
   4  -5  -6    0.19    0.11
   4  -5  -6    0.43    0.31
  -4  -5   6    0.31    0.15
  -4  -5   6    0.20    0.18
  -4   5   5    0.20    0.36
   4   5  -5    0.23    0.30
  -4   5   5    0.36    0.19
  -4   5   5    0.17    0.13
   4   5  -5    0.16    0.16
   4  -5  -5   -0.05    0.29
  -4  -5   5    0.17    0.17
  -4   5   4    2.69    0.43
   4   5  -4    1.97    0.33
   4   5  -4    1.62    0.20
   4  -5  -4    2.03    0.34
  -4  -5   4    1.73    0.22
   4   5  -3    0.93    0.13
  -4   5   3    0.87    0.35
   4   5  -3    1.01    0.26
   4   5  -3    1.16    0.19
  -4   5   3    0.95    0.20
   4   5  -3    0.85    0.20
   4  -5  -3    1.12    0.30
  -4  -5   3    0.62    0.21
   4   5  -2    0.71    0.17
  -4   5   2    0.62    0.32
   4   5  -2    0.80    0.23
   4   5  -2    0.92    0.23
   4  -5  -2    0.73    0.28
   4   5  -1    3.05    0.34
   4   5  -1    3.00    0.34
  -4   5   1    3.94    0.39
   4   5  -1    3.60    0.28
   4   5  -1    3.04    0.45
   4  -5  -1    3.60    0.51
   4   5   0    1.81    0.34
   4   5   0    1.59    0.20
   4   5   0    1.34    0.20
  -4   5   0    1.23    0.27
   4   5   0    1.62    0.19
   4  -5   0    1.33    0.26
   4  -5   0    1.54    0.32
  -4   5  -1    6.79    0.47
   4   5   1    6.14    0.38
   4   5   1    6.62    0.42
   4   5   1    6.55    0.56
   4   5   1    6.11    0.38
   4  -5   1    6.47    0.44
   4  -5   1    6.80    0.53
  -4   5  -2    2.58    0.30
   4   5   2    3.81    0.35
   4   5   2    3.22    0.49
   4  -5   2    3.36    0.40
   4  -5   2    3.80    0.35
   4   5   3    0.50    0.19
  -4   5  -3    0.35    0.14
   4   5   3    0.26    0.15
   4   5   3    0.32    0.20
   4   5   3    0.38    0.25
   4  -5   3    0.19    0.28
   4  -5   3    0.42    0.20
   4   5   4    1.70    0.28
   4   5   4    1.73    0.26
  -4   5  -4    1.53    0.16
   4   5   4    1.68    0.32
   4  -5   4    1.50    0.24
   4  -5   4    1.58    0.23
   4   5   5    1.38    0.23
  -4   5  -5    1.75    0.25
  -4   5  -5    1.47    0.21
   4   5   5    1.41    0.30
   4   5   5    0.93    0.22
   4   5   5    1.00    0.33
   4  -5   5    1.31    0.23
   4  -5   5    1.63    0.22
  -4   5  -6    0.74    0.19
   4   5   6    1.20    0.34
   4   5   6    0.78    0.20
   4  -5   6    0.74    0.16
   4  -5   6    0.67    0.22
   4  -5   6    0.72    0.26
  -4   5  -7    2.54    0.36
   4   5   7    2.67    0.45
   4   5   7    1.94    0.25
   4  -5   7    2.68    0.36
   4  -5   7    2.54    0.32
   4   5   8    0.83    0.24
  -4   5  -8    1.09    0.25
   4  -5   8    1.52    0.26
   4  -5   8    0.81    0.24
   4   5   9   -0.03    0.24
  -4   5  -9   -0.22    0.23
   4  -5   9    0.61    0.24
   4   6  -8    2.02    0.49
  -4   6   8    2.93    0.36
  -4   6   8    1.77    0.25
   4  -6  -8    1.50    0.46
  -4  -6   8    1.88    0.29
   4   6  -7    2.85    0.52
  -4   6   7    3.23    0.45
  -4  -6   7    3.58    0.44
   4  -6  -7    3.10    0.57
   4   6  -6    0.43    0.38
  -4   6   6    0.08    0.20
  -4  -6   6    0.35    0.23
   4  -6  -6    0.27    0.32
   4   6  -5    3.35    0.46
   4  -6  -5    3.13    0.47
  -4  -6   5    3.58    0.42
   4   6  -4    3.26    0.44
   4   6  -4    1.91    0.25
   4  -6  -4    2.85    0.42
  -4  -6   4    3.00    0.38
   4   6  -3    3.55    0.53
  -4   6   3    3.58    0.47
   4   6  -3    3.59    0.42
   4   6  -3    3.38    0.32
   4   6  -3    3.22    0.25
   4  -6  -3    3.39    0.45
   4   6  -2   -0.15    0.23
   4   6  -2    0.01    0.11
  -4   6   2   -0.10    0.38
   4   6  -2    0.04    0.18
   4   6  -2   -0.02    0.21
   4  -6  -2   -0.01    0.29
   4   6  -1    0.37    0.21
   4   6  -1    0.44    0.18
  -4   6   1    0.44    0.29
   4   6  -1    0.62    0.26
   4  -6  -1    0.39    0.25
   4   6   0    6.00    0.46
   4   6   0    7.27    0.63
  -4   6   0    7.41    0.58
   4   6   0    6.46    0.44
   4  -6   0    6.22    0.59
   4   6   1    1.86    0.36
   4   6   1    1.78    0.22
   4   6   1    1.73    0.21
   4   6   1    1.89    0.25
  -4   6  -1    1.90    0.26
   4  -6   1    1.41    0.27
   4  -6   1    1.71    0.30
  -4   6  -2    6.48    0.45
   4   6   2    5.76    0.40
   4   6   2    5.33    0.45
   4  -6   2    6.62    0.50
   4  -6   2    6.69    0.60
  -4   6  -3    8.53    0.47
   4   6   3    9.02    0.79
   4   6   3    8.11    0.49
   4   6   3    9.11    0.59
   4   6   3    8.52    0.57
   4  -6   3    8.95    0.58
   4  -6   3    8.21    0.56
   4   6   4    0.97    0.27
   4   6   4    0.88    0.26
  -4   6  -4    0.72    0.15
   4  -6   4    0.78    0.26
   4  -6   4    0.80    0.20
  -4   6  -5   -0.03    0.11
   4   6   5    0.18    0.22
   4   6   5    0.22    0.27
   4  -6   5    0.25    0.22
   4   6   6    2.35    0.41
  -4   6  -6    2.39    0.26
   4   6   6    2.37    0.30
   4  -6   6    2.58    0.39
   4   6   7    0.64    0.24
   4  -6   7    0.68    0.26
   4  -6   7    0.60    0.15
   4   7  -5    0.16    0.35
  -4   7   5    0.32    0.26
   4  -7  -5   -0.06    0.41
   4   7  -4    0.44    0.34
   4   7  -4    0.42    0.12
   4  -7  -4    0.68    0.36
   4   7  -3    0.09    0.11
   4   7  -3    0.00    0.37
   4  -7  -3   -0.03    0.26
   4   7  -2    0.34    0.16
   4   7  -2    0.32    0.21
   4   7  -2    0.23    0.12
   4   7  -2    0.34    0.28
   4  -7  -2    0.35    0.27
   4   7  -1    0.02    0.14
   4   7  -1   -0.21    0.23
   4   7  -1   -0.03    0.24
   4  -7  -1    0.07    0.25
   4   7   0    0.45    0.44
  -4   7   0    0.09    0.24
   4   7   0    0.65    0.22
   4  -7   0    0.80    0.28
   4   7   1    2.22    0.26
   4   7   1    2.36    0.31
   4   7   1    1.89    0.40
   4  -7   1    2.32    0.35
   4   7   2    2.38    0.39
   4   7   2    2.70    0.39
  -4   7  -2    2.42    0.36
   4  -7   2    3.08    0.36
   4  -7   2    2.18    0.50
   4   7   3    0.83    0.26
   4   7   3    1.47    0.34
   4   7   3    1.04    0.20
  -4   7  -3    1.28    0.19
   4  -7   3    1.30    0.25
   4  -7   3    1.22    0.30
   4   7   4    0.22    0.29
   4   7   4    0.21    0.25
   4   7   4    0.14    0.17
   4  -7   4    0.14    0.23
   4  -7   4    0.05    0.17
  -5   0  13    0.90    0.35
   5   0 -13   -0.36    0.38
  -5   0  13    0.14    0.22
  -5   0  12    1.62    0.24
   5   0 -12    1.51    0.41
   5   0 -11    0.23    0.20
   5   0 -11    0.29    0.44
  -5   0  11    0.19    0.28
   5   0 -10    0.99    0.47
  -5   0  10    1.30    0.35
  -5   0  10    1.27    0.20
  -5   0  10    0.87    0.30
   5   0  -9   -0.05    0.34
   5   0  -9    0.17    0.21
  -5   0   9    0.46    0.15
   5   0  -9    0.13    0.16
  -5   0   9    0.01    0.17
  -5   0   8    1.48    0.16
   5   0  -8    0.70    0.35
   5   0  -8    1.27    0.23
   5   0  -8    1.31    0.19
  -5   0   8    1.20    0.27
   5   0  -7   -0.11    0.34
  -5   0   7    0.08    0.10
   5   0  -7   -0.16    0.15
  -5   0   7   -0.01    0.21
  -5   0   7    0.07    0.17
   5   0  -7    0.18    0.10
   5   0  -6  128.79    4.81
  -5   0   6  131.76    4.87
   5   0  -6  134.93    4.97
   5   0  -6  128.90    4.89
  -5   0   6  126.75    4.80
  -5   0   6  132.00    4.91
   5   0  -5    0.69    0.17
   5   0  -5    1.20    0.15
  -5   0   5    1.00    0.20
   5   0  -5    0.90    0.27
  -5   0   5    0.86    0.21
   5   0  -4   22.45    0.94
  -5   0   4   22.89    0.92
  -5   0   4   25.19    0.85
   5   0  -4   21.28    0.97
   5   0  -4   20.37    0.85
  -5   0   3    0.02    0.08
  -5   0   3    0.17    0.10
   5   0  -3    0.08    0.13
   5   0  -3    0.07    0.11
   5   0  -2   34.30    1.32
  -5   0   2   35.04    1.31
  -5   0   2   33.77    1.30
   5   0  -2   34.50    1.32
  -5   0   1    0.69    0.08
   5   0  -1    0.61    0.08
   5   0   0   83.31    3.07
  -5   0   0   86.33    3.10
  -5   0   0   79.76    3.08
   5   0   0   86.14    3.10
   5   0   1    0.16    0.05
  -5   0  -1    0.06    0.04
   5   0   1    0.21    0.11
   5   0   1    0.07    0.06
  -5   0  -2  111.81    4.21
   5   0   2  115.13    4.18
   5   0   2  116.41    4.23
  -5   0  -2  113.83    4.21
  -5   0  -2  111.89    4.17
   5   0   2  113.08    4.20
   5   0   3    0.01    0.08
   5   0   4  453.29   17.03
  -5   0  -4  465.34   17.09
   5   0   4  474.82   17.12
   5   0   4  468.95   17.06
   5   0   5   -0.08    0.11
   5   0   5    0.08    0.11
   5   0   5   -0.09    0.39
  -5   0  -5    0.07    0.14
  -5   0  -5    0.11    0.09
   5   0   6    1.02    0.19
   5   0   6    1.20    0.17
  -5   0  -6    1.17    0.15
  -5   0  -6    1.25    0.32
   5   0   6    1.53    0.29
   5   0   7    0.07    0.12
  -5   0  -7    0.02    0.21
   5   0   7    0.02    0.18
   5   0   7    0.09    0.15
  -5   0  -7    0.25    0.11
   5   0   7   -0.06    0.25
   5   0   8    4.90    0.41
  -5   0  -8    5.05    0.53
   5   0   8    3.30    0.48
   5   0   8    4.61    0.45
   5   0   8    4.73    0.42
  -5   0  -9    0.08    0.13
   5   0   9   -0.16    0.19
   5   0   9    0.15    0.20
  -5   0  -9   -0.06    0.27
   5   0   9    0.35    0.43
   5   0  10   29.60    1.46
  -5   0 -10   30.29    1.41
   5   0  10   27.91    1.41
   5   0  10   29.08    1.25
   5   0  11    0.16    0.23
   5   0  11   -0.26    0.23
  -5   0 -11    0.13    0.31
   5   0  12    0.12    0.22
   5   0  12    0.16    0.22
  -5   0 -12    0.37    0.34
   5   1 -13   -0.01    0.41
  -5   1  13   -0.05    0.21
  -5  -1  13    0.00    0.19
  -5  -1  13   -0.07    0.24
  -5  -1  13    0.09    0.20
   5  -1 -13    0.12    0.36
  -5   1  12    0.73    0.21
  -5   1  12    0.86    0.36
   5   1 -12    0.81    0.41
   5  -1 -12    0.71    0.44
  -5  -1  12    0.04    0.21
  -5  -1  12    0.44    0.20
   5   1 -11    0.47    0.18
   5   1 -11    0.71    0.39
  -5   1  11    1.01    0.35
  -5   1  11    0.41    0.18
   5  -1 -11    0.26    0.40
  -5  -1  11    0.36    0.25
  -5  -1  11    0.21    0.21
   5   1 -10    0.08    0.42
   5   1 -10    0.37    0.16
  -5   1  10    0.28    0.17
  -5   1  10    0.33    0.35
  -5  -1  10    0.52    0.28
   5  -1 -10    0.22    0.41
   5  -1 -10    0.18    0.26
  -5  -1  10    0.49    0.20
  -5  -1  10    0.35    0.21
  -5   1   9    4.50    0.60
   5   1  -9    4.60    0.60
   5   1  -9    3.95    0.33
  -5   1   9    6.07    0.55
  -5   1   9    4.61    0.33
  -5  -1   9    4.44    0.42
   5  -1  -9    4.05    0.52
  -5  -1   9    4.27    0.35
   5  -1  -9    3.66    0.45
   5   1  -8    0.81    0.16
  -5   1   8    0.50    0.27
  -5   1   8    0.74    0.14
  -5   1   8    0.20    0.24
   5   1  -8    1.09    0.43
  -5  -1   8    1.15    0.16
   5  -1  -8    0.61    0.23
  -5  -1   8    0.97    0.20
   5  -1  -8    0.68    0.34
  -5   1   7    1.77    0.27
   5   1  -7    2.20    0.21
   5   1  -7    2.54    0.27
  -5   1   7    2.25    0.34
  -5   1   7    2.56    0.22
  -5  -1   7    2.81    0.24
  -5  -1   7    2.79    0.30
   5  -1  -7    1.93    0.27
   5  -1  -7    1.77    0.34
   5   1  -6  131.73    5.01
   5   1  -6  136.09    5.06
  -5   1   6  133.07    5.01
  -5   1   6  138.89    5.12
  -5   1   6  139.12    5.13
   5   1  -6  137.16    5.18
   5  -1  -6  138.77    5.14
  -5  -1   6  135.66    5.02
  -5  -1   6  135.05    5.28
  -5  -1   6  137.42    5.02
   5   1  -5   76.94    2.85
  -5   1   5   76.02    2.81
   5   1  -5   75.04    2.80
   5   1  -5   75.22    2.94
  -5   1   5   77.72    2.91
  -5   1   5   75.69    2.89
   5  -1  -5   76.51    2.93
  -5  -1   5   75.80    2.81
   5  -1  -5   74.58    2.95
  -5  -1   5   76.31    2.89
  -5  -1   5   74.95    2.81
  -5   1   4    4.66    0.32
   5   1  -4    5.76    0.23
   5   1  -4    4.94    0.48
  -5   1   4    5.23    0.25
  -5   1   4    4.97    0.42
   5   1  -4    5.16    0.32
  -5  -1   4    5.12    0.32
   5  -1  -4    5.57    0.41
  -5  -1   4    6.17    0.26
   5  -1  -4    5.06    0.39
  -5  -1   4    5.60    0.25
   5   1  -3    9.27    0.41
  -5   1   3    8.75    0.38
   5   1  -3    8.70    0.35
  -5   1   3    8.70    0.41
  -5   1   3    8.98    0.49
   5   1  -3    9.44    0.46
  -5  -1   3    9.48    0.36
   5  -1  -3    8.79    0.47
   5  -1  -3    8.68    0.50
  -5  -1   3    9.26    0.42
  -5  -1   3    9.87    0.38
   5   1  -2   11.73    0.50
  -5   1   2   11.56    0.53
  -5   1   2   10.71    0.45
  -5   1   2   10.34    0.46
   5  -1  -2   11.23    0.56
   5  -1  -2   11.17    0.49
  -5  -1   2   11.24    0.48
  -5  -1   2   13.33    0.46
   5   1   0   58.86    2.16
   5   1   0   58.33    2.18
  -5   1   0   58.78    2.17
   5  -1   0   58.35    2.17
  -5  -1   0   55.30    2.19
   5  -1   0   59.72    2.20
   5  -1   0   61.06    2.18
  -5   1  -2   82.36    3.04
   5   1   2   82.41    3.08
   5   1   2   81.22    3.03
  -5   1  -2   81.89    3.05
   5   1   2   79.69    3.07
  -5   1  -2   83.55    3.06
  -5  -1  -2   85.60    3.07
   5  -1   2   81.85    3.04
   5  -1   2   83.39    3.08
  -5  -1  -2   81.38    3.04
   5  -1   2   81.20    3.05
   5   1   3    0.85    0.14
   5   1   3    0.96    0.10
   5   1   3    1.56    0.18
  -5   1  -3    1.12    0.14
  -5   1  -3    1.16    0.14
  -5  -1  -3    1.50    0.16
   5  -1   3    0.71    0.19
  -5  -1  -3    1.03    0.13
   5  -1   3    1.17    0.17
   5  -1   3    0.94    0.13
  -5   1  -4  219.69    8.13
   5   1   4  214.54    8.07
   5   1   4  216.93    8.13
   5   1   4  219.03    8.16
  -5   1  -4  218.81    8.08
   5  -1   4  222.89    8.17
  -5  -1  -4  214.68    8.09
   5  -1   4  222.67    8.09
  -5  -1  -4  221.36    8.13
   5  -1   4  230.86    8.17
  -5   1  -5    0.09    0.15
   5   1   5    0.56    0.19
   5   1   5    0.20    0.10
   5   1   5    0.17    0.15
  -5   1  -5    0.55    0.15
  -5  -1  -5    0.10    0.20
   5  -1   5    0.23    0.12
  -5  -1  -5    0.32    0.16
   5  -1   5    0.16    0.24
   5  -1   5    0.32    0.14
   5   1   6    3.69    0.42
   5   1   6    3.62    0.42
  -5   1  -6    3.06    0.26
  -5   1  -6    4.25    0.39
   5   1   6    3.95    0.44
   5  -1   6    3.83    0.31
  -5  -1  -6    3.80    0.29
  -5  -1  -6    4.86    0.51
   5  -1   6    3.80    0.32
   5  -1   6    4.68    0.48
   5   1   7    0.85    0.21
  -5   1  -7    0.17    0.22
   5   1   7   -0.07    0.15
   5   1   7    0.16    0.19
  -5  -1  -7    0.13    0.22
   5  -1   7    0.30    0.17
   5  -1   7   -0.11    0.15
  -5  -1  -7   -0.03    0.11
  -5   1  -8    0.28    0.24
   5   1   8    0.19    0.21
   5   1   8    0.17    0.16
   5  -1   8    1.10    0.38
  -5  -1  -8    0.25    0.25
  -5  -1  -8    0.45    0.16
   5  -1   8    0.44    0.20
   5  -1   8    0.23    0.19
   5  -1   8    0.38    0.25
   5   1   9   23.02    1.14
   5   1   9   22.73    0.96
   5   1   9   19.90    1.44
   5   1   9   21.38    1.41
  -5   1  -9   22.56    1.11
   5  -1   9   21.93    0.98
   5  -1   9   21.02    1.31
   5  -1   9   21.92    0.96
   5  -1   9   21.20    1.05
  -5  -1  -9   20.50    0.99
  -5  -1  -9   23.38    1.10
  -5   1 -10    3.88    0.50
   5   1  10    3.87    0.49
   5   1  10    4.13    0.45
  -5  -1 -10    3.92    0.59
   5  -1  10    4.29    0.43
   5  -1  10    4.32    0.41
  -5   1 -11    0.75    0.34
   5   1  11    0.68    0.24
   5   1  11    0.50    0.25
   5  -1  11    0.44    0.22
  -5  -1 -11    0.51    0.32
   5  -1  11    0.32    0.23
   5  -1  11    1.01    0.28
   5   1  12   -0.06    0.26
   5   1  12    0.04    0.26
  -5   1 -12    0.15    0.33
  -5  -1 -12    0.34    0.41
   5  -1  12   -0.01    0.19
   5  -1  12    0.27    0.26
   5   2 -12    0.68    0.49
  -5   2  12    0.72    0.22
  -5  -2  12    0.88    0.22
   5  -2 -12    0.44    0.35
   5   2 -11    1.07    0.18
  -5   2  11    1.12    0.22
   5   2 -11    1.45    0.51
   5  -2 -11    0.78    0.35
  -5  -2  11    1.34    0.23
   5   2 -10    0.65    0.46
  -5   2  10    0.19    0.28
   5   2 -10    0.24    0.15
  -5   2  10    0.48    0.37
  -5   2  10    0.31    0.27
  -5  -2  10    0.68    0.52
  -5  -2  10    0.25    0.19
   5  -2 -10    0.29    0.31
   5   2  -9    1.01    0.15
   5   2  -9    0.44    0.42
  -5   2   9    0.74    0.34
  -5   2   9    1.63    0.20
   5  -2  -9    0.95    0.34
   5  -2  -9    1.33    0.32
  -5  -2   9    1.09    0.19
   5   2  -8   25.74    1.04
  -5   2   8   26.31    1.24
  -5   2   8   27.11    1.06
   5   2  -8   27.73    1.37
   5  -2  -8   25.71    1.27
  -5  -2   8   26.62    1.08
   5  -2  -8   26.61    1.26
  -5   2   7    6.87    0.56
   5   2  -7    5.51    0.34
   5   2  -7    7.12    0.74
  -5   2   7    7.86    0.64
  -5   2   7    6.47    0.37
   5  -2  -7    5.97    0.59
  -5  -2   7    6.86    0.51
  -5  -2   7    6.41    0.39
   5  -2  -7    6.97    0.61
  -5   2   6   79.65    3.09
   5   2  -6   80.81    3.17
  -5   2   6   79.68    3.15
   5   2  -6   78.72    2.98
  -5   2   6   81.43    3.01
   5  -2  -6   82.38    3.12
   5  -2  -6   80.69    3.16
  -5  -2   6   82.66    3.01
  -5  -2   6   79.72    3.08
  -5   2   5   51.28    1.91
  -5   2   5   50.48    2.04
   5   2  -5   50.46    1.88
   5   2  -5   50.81    2.04
  -5   2   5   50.52    1.97
  -5  -2   5   50.91    1.90
  -5  -2   5   51.42    1.96
   5  -2  -5   47.85    2.06
  -5   2   4   60.00    2.27
  -5   2   4   55.47    2.30
  -5   2   4   60.38    2.35
   5   2  -4   60.93    2.33
  -5   2   4   59.93    2.26
   5   2  -4   60.00    2.22
  -5  -2   4   60.25    2.23
   5  -2  -4   60.28    2.30
   5  -2  -4   60.23    2.36
  -5  -2   4   61.76    2.28
  -5   2   3   41.73    1.53
   5   2  -3   37.65    1.63
   5   2  -3   39.90    1.49
  -5   2   3   39.34    1.60
   5   2  -3   38.53    1.49
  -5   2   3   40.71    1.51
   5  -2  -3   39.86    1.55
  -5  -2   3   41.73    1.54
  -5  -2   3   41.20    1.50
   5  -2  -3   38.84    1.62
   5   2  -2  322.01   11.72
  -5   2   2  330.42   11.67
  -5   2   2  315.19   11.74
  -5   2   2  320.53   11.70
   5   2  -2  309.48   11.67
   5  -2  -2  317.22   11.69
  -5  -2   2  318.69   11.68
  -5   2   1  147.58    5.33
   5   2  -1  145.99    5.35
  -5   2   1  147.20    5.36
   5   2  -1  145.52    5.32
   5   2  -1  138.79    5.32
   5  -2  -1  139.52    5.39
   5  -2  -1  143.58    5.34
   5  -2  -1  149.35    5.31
  -5   2  -1   43.67    1.65
  -5   2  -1   44.02    1.65
   5   2   1   43.74    1.63
   5   2   1   43.88    1.67
   5  -2   1   42.74    1.64
   5  -2   1   44.34    1.69
   5  -2   1   43.03    1.65
  -5   2  -2    5.01    0.27
  -5   2  -2    4.86    0.25
  -5   2  -2    5.53    0.27
   5   2   2    4.91    0.26
   5   2   2    4.83    0.29
   5  -2   2    5.37    0.32
   5  -2   2    4.25    0.27
   5  -2   2    5.22    0.32
  -5   2  -3  171.00    6.39
  -5   2  -3  170.69    6.40
   5   2   3  172.71    6.38
  -5   2  -3  176.47    6.39
   5   2   3  177.35    6.45
   5  -2   3  172.97    6.44
   5  -2   3  173.31    6.40
   5  -2   3  171.15    6.40
  -5  -2  -3  176.50    6.42
  -5   2  -4  210.40    7.96
  -5   2  -4  215.41    7.92
   5   2   4  197.29    8.05
   5   2   4  210.99    7.89
   5   2   4  220.60    8.05
  -5  -2  -4  226.58    7.95
   5  -2   4  221.94    7.93
   5  -2   4  216.40    7.98
  -5   2  -5  219.92    8.92
   5   2   5  245.76    8.92
   5   2   5  251.76    9.05
  -5   2  -5  254.57    8.99
   5  -2   5  250.53    8.94
   5  -2   5  246.95    9.04
  -5  -2  -5  249.80    8.99
   5  -2   5  224.62    9.01
  -5   2  -6   21.92    0.96
   5   2   6   18.87    1.03
   5   2   6   20.54    0.86
   5  -2   6   20.53    1.07
   5  -2   6   21.27    0.87
   5  -2   6   21.98    0.90
  -5  -2  -6   19.77    0.90
  -5  -2  -6   21.55    0.94
  -5   2  -7    7.48    0.54
   5   2   7    6.71    0.43
   5   2   7    5.33    0.65
   5  -2   7    8.34    0.52
   5  -2   7    6.71    0.42
  -5  -2  -7    8.02    0.54
   5  -2   7    6.97    0.46
  -5   2  -8    5.97    0.54
   5   2   8    5.99    0.53
   5   2   8    5.74    0.73
   5   2   8    6.18    0.66
   5  -2   8    6.24    0.73
  -5  -2  -8    5.73    0.62
   5  -2   8    5.64    0.46
  -5  -2  -8    5.63    0.45
   5  -2   8    4.90    0.38
   5   2   9    0.35    0.19
   5   2   9    0.37    0.25
  -5   2  -9    0.46    0.26
   5  -2   9   -0.25    0.32
   5  -2   9    0.17    0.20
   5  -2   9   -0.05    0.16
  -5  -2  -9   -0.17    0.23
   5  -2   9    0.21    0.17
  -5   2 -10    0.41    0.31
   5   2  10    0.54    0.24
   5   2  10    0.48    0.20
   5  -2  10    0.54    0.17
  -5  -2 -10    0.85    0.28
   5  -2  10    0.75    0.24
   5  -2  10    0.39    0.22
  -5   2 -11    0.22    0.31
   5   2  11    0.50    0.25
   5   2  11    0.09    0.25
   5  -2  11    0.43    0.33
   5  -2  11    0.59    0.17
   5  -2  11   -0.54    0.33
  -5  -2 -11    0.37    0.45
  -5   3  12    0.37    0.26
   5   3 -12    0.78    0.49
   5  -3 -12    0.22    0.29
  -5  -3  12    0.33    0.20
  -5   3  11   -0.04    0.18
   5   3 -11   -0.52    0.45
   5  -3 -11    0.58    0.28
  -5  -3  11    0.25    0.19
  -5   3  10    0.26    0.17
   5   3 -10   -0.25    0.43
   5   3 -10    0.35    0.17
  -5   3  10    0.46    0.31
   5  -3 -10    0.48    0.30
  -5  -3  10    0.69    0.22
   5  -3 -10    0.50    0.27
   5   3  -9    0.90    0.15
  -5   3   9    1.44    0.42
   5   3  -9    0.87    0.45
  -5   3   9    0.94    0.30
  -5  -3   9    0.71    0.26
   5  -3  -9    0.92    0.33
  -5  -3   9    0.75    0.18
   5  -3  -9    0.89    0.25
  -5   3   8    1.04    0.17
   5   3  -8    1.16    0.16
   5   3  -8    1.01    0.41
  -5   3   8    1.51    0.45
  -5   3   8    1.36    0.32
  -5  -3   8    1.13    0.27
  -5  -3   8    1.04    0.18
   5  -3  -8    0.89    0.32
   5  -3  -8    1.23    0.25
   5   3  -7   31.60    1.48
   5   3  -7   30.09    1.18
  -5   3   7   30.67    1.21
  -5   3   7   29.73    1.32
   5  -3  -7   31.24    1.43
   5  -3  -7   29.00    1.28
  -5  -3   7   29.69    1.22
  -5   3   6    0.25    0.23
  -5   3   6    0.03    0.25
  -5   3   6    0.21    0.19
   5   3  -6    0.39    0.35
   5   3  -6   -0.03    0.13
  -5  -3   6    0.17    0.15
   5  -3  -6    0.33    0.28
   5  -3  -6   -0.01    0.21
  -5  -3   6   -0.11    0.15
  -5   3   5   79.79    3.04
   5   3  -5   80.55    3.14
  -5   3   5   85.85    3.02
  -5   3   5   80.73    3.03
   5   3  -5   78.55    2.98
  -5  -3   5   81.38    3.05
   5  -3  -5   79.30    3.03
   5  -3  -5   73.72    3.29
  -5  -3   5   81.17    3.00
  -5   3   4   18.99    0.86
  -5   3   4   18.58    0.77
   5   3  -4   18.64    0.75
  -5   3   4   16.12    0.89
   5   3  -4   19.32    0.89
  -5  -3   4   19.04    0.80
   5  -3  -4   19.30    0.94
  -5  -3   4   17.78    0.77
   5  -3  -4   18.66    0.78
  -5   3   3    1.90    0.24
  -5   3   3    2.19    0.17
   5   3  -3    1.60    0.21
   5   3  -3    1.98    0.20
   5   3  -3    2.21    0.21
   5   3  -3    2.47    0.16
  -5   3   3    2.19    0.49
  -5  -3   3    2.07    0.26
   5  -3  -3    1.82    0.20
   5  -3  -3    1.46    0.28
   5   3  -2   19.50    0.75
   5   3  -2   18.84    0.81
   5   3  -2   19.36    0.80
  -5   3   2   19.49    0.90
  -5   3   2   18.44    0.79
   5   3  -2   20.09    0.76
  -5  -3   2   17.61    0.77
   5  -3  -2   19.27    0.91
   5   3  -1   63.21    2.44
   5   3  -1   67.36    2.48
  -5   3   1   65.65    2.50
   5   3  -1   64.55    2.44
  -5   3   1   66.99    2.46
   5   3  -1   64.84    2.49
   5  -3  -1   64.96    2.46
   5  -3  -1   64.59    2.55
  -5   3   0    3.12    0.31
   5   3   0    2.46    0.21
   5   3   0    2.79    0.20
   5   3   0    2.85    0.21
  -5   3   0    2.70    0.22
   5   3   0    2.63    0.27
   5  -3   0    2.77    0.37
   5  -3   0    2.50    0.22
   5   3   1   11.21    0.58
   5   3   1   10.41    0.49
  -5   3  -1   11.44    0.51
  -5   3  -1   10.74    0.50
   5  -3   1   10.48    0.50
   5  -3   1   11.21    0.60
   5   3   2    0.40    0.20
  -5   3  -2    0.47    0.13
  -5   3  -2    0.61    0.24
  -5   3  -2    0.66    0.09
   5   3   2    0.50    0.13
   5  -3   2    0.68    0.17
   5  -3   2    0.83    0.15
   5  -3   2    0.51    0.24
  -5   3  -3    4.94    0.32
   5   3   3    4.46    0.37
  -5   3  -3    4.82    0.30
   5   3   3    4.25    0.45
   5   3   3    4.89    0.32
  -5   3  -3    4.86    0.29
   5  -3   3    4.62    0.41
   5  -3   3    4.35    0.34
   5  -3   3    4.08    0.53
  -5   3  -4  122.78    4.50
   5   3   4  123.05    4.51
   5   3   4  101.21    4.67
  -5   3  -4  114.77    4.63
   5   3   4  126.54    4.59
   5  -3   4  119.19    4.53
  -5  -3  -4  127.59    4.54
   5  -3   4  130.65    4.55
   5  -3   4  125.36    4.57
  -5   3  -5   54.13    2.07
   5   3   5   54.00    2.15
  -5   3  -5   52.11    2.03
   5   3   5   52.12    2.02
  -5  -3  -5   54.59    2.07
   5  -3   5   52.99    2.06
   5  -3   5   53.46    2.05
   5  -3   5   51.83    2.13
  -5   3  -6   65.89    2.51
   5   3   6   64.45    2.61
   5   3   6   65.42    2.44
   5  -3   6   62.74    2.57
   5  -3   6   64.25    2.45
   5  -3   6   63.61    2.48
  -5  -3  -6   63.43    2.49
  -5   3  -7    1.82    0.28
   5   3   7    1.72    0.25
   5   3   7    2.02    0.38
   5   3   7    1.32    0.32
   5  -3   7    1.93    0.32
   5  -3   7    1.68    0.30
  -5  -3  -7    1.01    0.22
   5  -3   7    1.91    0.22
  -5   3  -8   -0.08    0.23
   5   3   8    0.19    0.18
   5   3   8   -0.13    0.31
   5  -3   8   -0.01    0.16
   5  -3   8    0.61    0.29
  -5  -3  -8    0.08    0.21
   5  -3   8    0.03    0.16
   5   3   9    6.79    0.45
  -5   3  -9    6.28    0.55
   5  -3   9    4.90    0.46
   5  -3   9    5.92    0.78
  -5  -3  -9    6.27    0.53
   5  -3   9    5.72    0.41
   5  -3   9    5.81    0.46
   5   3  10   -0.12    0.19
  -5   3 -10   -0.11    0.23
  -5  -3 -10   -0.09    0.21
   5  -3  10    0.04    0.18
   5  -3  10   -0.23    0.16
   5  -3  10    0.06    0.16
   5   3  11    0.06    0.22
  -5   3 -11   -0.13    0.29
   5   3  11   -0.24    0.28
   5  -3  11   -0.38    0.28
   5  -3  11   -0.05    0.21
  -5  -3 -11   -0.22    0.22
   5   4 -11   -0.29    0.42
  -5   4  11    0.17    0.25
   5  -4 -11    0.25    0.24
  -5  -4  11    0.35    0.23
  -5   4  10    0.30    0.31
  -5   4  10    0.02    0.21
   5   4 -10    0.41    0.44
   5  -4 -10    0.38    0.34
  -5  -4  10    0.13    0.23
   5  -4 -10    0.36    0.23
   5   4  -9    0.03    0.14
   5   4  -9    0.15    0.41
  -5   4   9    0.16    0.21
  -5   4   9    0.59    0.30
  -5  -4   9    0.19    0.20
   5  -4  -9   -0.02    0.33
   5  -4  -9    0.27    0.22
   5   4  -8    4.70    0.35
  -5   4   8    5.43    0.49
  -5   4   8    5.44    0.41
  -5   4   8    4.67    0.53
   5   4  -8    4.30    0.86
   5  -4  -8    4.76    0.66
   5  -4  -8    5.26    0.43
  -5  -4   8    4.53    0.40
  -5  -4   8    4.04    0.54
   5   4  -7    0.54    0.33
  -5   4   7   -0.29    0.20
  -5   4   7    0.48    0.32
   5   4  -7    0.09    0.14
  -5   4   7    0.06    0.17
   5  -4  -7    0.25    0.26
   5  -4  -7   -0.07    0.15
  -5  -4   7    0.08    0.15
  -5   4   6    0.59    0.17
  -5   4   6    0.83    0.21
   5   4  -6    0.79    0.17
   5   4  -6    0.60    0.32
   5  -4  -6    0.78    0.15
  -5  -4   6    0.65    0.16
  -5  -4   6    0.59    0.17
   5  -4  -6    0.63    0.29
  -5   4   5    0.07    0.15
   5   4  -5    0.16    0.14
  -5   4   5    0.08    0.09
  -5   4   5   -0.16    0.16
   5  -4  -5    0.26    0.29
   5  -4  -5   -0.05    0.12
  -5  -4   5   -0.08    0.17
  -5  -4   5    0.09    0.17
   5   4  -4   12.67    0.75
  -5   4   4   13.00    0.55
   5   4  -4   14.78    0.65
   5  -4  -4   11.69    0.82
  -5  -4   4   13.37    0.63
   5   4  -3   22.09    0.90
  -5   4   3   20.97    1.09
   5   4  -3   21.19    0.84
  -5   4   3   22.45    0.94
   5   4  -3   21.94    0.99
   5  -4  -3   21.71    1.09
  -5  -4   3   22.66    0.92
   5   4  -2   37.51    1.47
  -5   4   2   37.45    1.46
   5   4  -2   35.94    1.41
   5   4  -2   35.14    1.44
  -5   4   2   37.01    1.56
   5   4  -2   36.85    1.48
   5  -4  -2   37.61    1.61
   5   4  -1   42.84    1.70
  -5   4   1   45.53    1.72
   5   4  -1   43.98    1.71
  -5   4   1   43.14    1.78
   5   4  -1   44.16    1.75
   5  -4  -1   43.43    1.82
   5   4   0   58.00    2.26
   5   4   0   58.32    2.19
   5   4   0   58.78    2.18
  -5   4   0   49.56    2.32
  -5   4   0   59.59    2.20
   5  -4   0   58.90    2.29
   5   4   1    0.12    0.12
  -5   4  -1    0.52    0.15
  -5   4  -1    0.31    0.17
   5   4   1    0.21    0.15
   5  -4   1    0.15    0.13
   5  -4   1    0.16    0.20
   5   4   2    1.70    0.20
  -5   4  -2    2.26    0.29
   5   4   2    2.12    0.31
   5   4   2    1.39    0.21
  -5   4  -2    2.52    0.23
   5  -4   2    1.98    0.24
   5  -4   2    2.21    0.28
  -5   4  -3    5.95    0.29
  -5   4  -3    6.01    0.35
   5   4   3    5.94    0.53
   5   4   3    5.51    0.37
   5   4   3    5.62    0.42
   5   4   3    5.71    0.38
   5  -4   3    5.82    0.47
   5  -4   3    5.74    0.40
   5  -4   3    5.88    0.33
  -5   4  -4    5.91    0.32
   5   4   4    5.41    0.44
   5   4   4    4.72    0.52
  -5   4  -4    4.93    0.31
   5   4   4    4.72    0.37
   5  -4   4    4.70    0.37
   5  -4   4    5.18    0.37
   5  -4   4    5.26    0.45
   5   4   5    4.45    0.50
  -5   4  -5    5.14    0.36
   5   4   5    5.48    0.57
  -5   4  -5    5.29    0.32
   5   4   5    5.91    0.38
   5  -4   5    5.09    0.43
   5  -4   5    4.66    0.43
   5  -4   5    4.81    0.40
  -5   4  -6    0.28    0.13
   5   4   6    0.56    0.24
  -5   4  -6    0.12    0.17
   5   4   6    0.01    0.26
   5   4   6    0.09    0.26
   5  -4   6    0.28    0.20
   5  -4   6    0.00    0.20
   5  -4   6    0.22    0.17
  -5   4  -7    0.19    0.20
   5   4   7    0.29    0.18
   5   4   7    0.21    0.31
  -5  -4  -7    0.35    0.21
   5  -4   7    0.17    0.18
   5  -4   7    0.20    0.15
   5  -4   7    0.60    0.22
   5   4   8    6.40    0.45
  -5   4  -8    5.95    0.51
   5  -4   8    5.61    0.47
   5  -4   8    5.66    0.44
  -5  -4  -8    6.28    0.49
   5   4   9    0.33    0.22
  -5   4  -9    0.35    0.23
  -5  -4  -9    0.59    0.23
   5  -4   9    0.42    0.24
   5  -4   9    0.45    0.15
   5   4  10   -0.07    0.22
  -5   4 -10    0.01    0.26
   5  -4  10    0.05    0.23
  -5  -4 -10   -0.11    0.28
  -5   5  10    1.13    0.45
  -5   5  10    0.99    0.26
   5   5 -10    1.76    0.53
   5  -5 -10    1.57    0.43
  -5  -5  10    1.16    0.26
   5  -5 -10    0.82    0.22
  -5   5   9    0.86    0.21
   5   5  -9    1.09    0.49
  -5   5   9    1.02    0.29
  -5  -5   9    1.33    0.25
   5  -5  -9    1.58    0.54
   5  -5  -9    1.15    0.21
   5   5  -8    2.84    0.43
   5   5  -8    6.14    0.86
  -5   5   8    4.60    0.46
  -5   5   8    4.59    0.42
  -5  -5   8    3.81    0.49
  -5  -5   8    4.10    0.43
   5  -5  -8    3.95    0.34
   5  -5  -8    4.05    0.57
   5   5  -7    3.98    0.40
  -5   5   7    3.83    0.40
  -5   5   7    4.36    0.43
   5   5  -7    3.38    0.53
   5  -5  -7    4.72    0.67
  -5  -5   7    4.06    0.47
   5  -5  -7    3.47    0.28
  -5   5   6    0.43    0.15
   5   5  -6   -0.01    0.35
  -5   5   6    0.28    0.20
  -5   5   6    0.38    0.25
   5   5  -6    0.04    0.15
  -5  -5   6    0.43    0.18
   5  -5  -6    0.21    0.09
   5  -5  -6    0.32    0.29
  -5   5   5    5.72    0.47
  -5   5   5    4.96    0.73
   5   5  -5    5.49    0.62
   5   5  -5    5.05    0.38
   5  -5  -5    5.21    0.63
  -5  -5   5    5.82    0.41
  -5   5   4    7.86    0.99
   5   5  -4    6.90    0.72
   5   5  -4    6.58    0.42
   5  -5  -4    6.68    0.65
  -5  -5   4    6.06    0.44
  -5   5   3    6.21    0.44
   5   5  -3    4.69    0.40
   5   5  -3    4.70    0.50
   5   5  -3    4.88    0.29
  -5   5   3    5.21    0.68
   5   5  -3    5.38    0.40
   5  -5  -3    5.00    0.61
  -5  -5   3    6.14    0.43
  -5   5   2   39.91    1.71
   5   5  -2   42.71    1.69
   5   5  -2   41.81    1.76
  -5   5   2   41.08    1.78
   5   5  -2   41.96    1.69
   5   5  -2   41.61    1.64
   5  -5  -2   42.10    1.83
   5   5  -1   51.61    2.05
   5   5  -1   47.62    2.04
  -5   5   1   52.59    2.12
   5   5  -1   52.06    2.03
   5   5  -1   51.82    2.10
  -5   5   1   59.10    2.25
   5  -5  -1   52.35    2.18
  -5   5   0    0.87    0.25
   5   5   0    0.67    0.16
   5   5   0    0.65    0.18
  -5   5   0    0.64    0.23
   5   5   0    0.89    0.26
   5   5   0    0.66    0.16
   5  -5   0    0.55    0.22
   5  -5   0    0.81    0.26
   5   5   1    0.20    0.14
  -5   5  -1    0.38    0.19
   5   5   1    0.59    0.24
   5   5   1    0.28    0.14
   5   5   1    0.03    0.14
   5  -5   1    0.40    0.26
   5  -5   1    0.19    0.17
  -5   5  -2    1.23    0.20
   5   5   2    1.32    0.24
   5   5   2    1.26    0.29
   5   5   2    1.34    0.20
   5   5   2    0.97    0.19
   5  -5   2    0.86    0.20
   5  -5   2    1.08    0.25
   5   5   3    0.47    0.18
  -5   5  -3   -0.06    0.14
   5   5   3    0.22    0.19
   5   5   3    0.21    0.18
   5   5   3    0.06    0.22
   5  -5   3    0.08    0.19
   5  -5   3    0.08    0.18
   5   5   4    0.38    0.16
   5   5   4    0.40    0.28
   5   5   4    0.28    0.26
  -5   5  -4    0.50    0.13
   5   5   4    0.12    0.19
  -5   5  -4    0.39    0.17
   5  -5   4    0.62    0.20
   5  -5   4    0.45    0.20
  -5   5  -5   11.74    0.58
   5   5   5   12.27    0.61
   5   5   5   11.46    0.74
  -5   5  -5   11.07    0.53
   5  -5   5   12.05    0.66
   5  -5   5   11.19    0.53
   5  -5   5   10.28    0.61
   5   5   6    1.76    0.37
  -5   5  -6    1.29    0.20
   5   5   6    1.37    0.22
   5  -5   6    1.14    0.24
   5  -5   6    1.48    0.29
   5  -5   6    1.36    0.21
   5   5   7   -0.11    0.21
  -5   5  -7   -0.01    0.17
   5  -5   7   -0.11    0.19
   5  -5   7    0.32    0.17
  -5   5  -8    1.33    0.25
   5   5   8    1.13    0.27
   5  -5   8    1.61    0.41
   5   6  -8    2.15    0.51
  -5   6   8    1.72    0.29
  -5  -6   8    1.34    0.27
   5  -6  -8    1.05    0.42
   5   6  -7    5.13    0.61
  -5   6   7    5.25    0.51
   5  -6  -7    5.07    0.69
  -5  -6   7    5.16    0.48
  -5   6   6    0.64    0.26
   5   6  -6    0.22    0.41
  -5  -6   6    0.70    0.23
   5  -6  -6    0.36    0.35
   5   6  -5    0.51    0.29
   5   6  -5    0.45    0.36
   5  -6  -5    1.46    0.38
  -5  -6   5    0.64    0.21
   5   6  -4    0.29    0.19
   5   6  -4    0.67    0.33
   5  -6  -4    0.71    0.33
   5   6  -3    0.39    0.20
   5   6  -3    0.59    0.12
  -5   6   3    0.58    0.38
   5   6  -3    0.80    0.19
   5   6  -3    0.49    0.28
   5  -6  -3    0.13    0.28
  -5   6   2    1.02    0.33
   5   6  -2    0.93    0.19
   5   6  -2    0.78    0.45
   5   6  -2    0.80    0.15
   5   6  -2    0.65    0.24
   5   6  -2    0.76    0.18
   5  -6  -2    0.29    0.31
   5   6  -1    0.39    0.26
  -5   6   1    0.37    0.40
   5   6  -1    0.38    0.18
   5   6  -1    0.32    0.14
   5   6  -1    0.96    0.24
   5  -6  -1    0.44    0.27
  -5   6   0    1.19    0.28
   5   6   0    1.45    0.32
   5   6   0    1.23    0.25
   5   6   0    1.20    0.24
   5   6   0    1.35    0.19
   5  -6   0    0.99    0.30
   5   6   1   -0.03    0.27
  -5   6  -1   -0.13    0.20
   5   6   1   -0.08    0.26
   5   6   1   -0.10    0.15
   5   6   1    0.10    0.15
   5  -6   1    0.14    0.23
   5  -6   1    0.04    0.17
   5   6   2    0.08    0.21
  -5   6  -2    0.01    0.18
   5   6   2    0.40    0.18
   5   6   2   -0.17    0.29
   5   6   2    0.06    0.15
   5  -6   2   -0.03    0.21
   5  -6   2   -0.03    0.17
  -5   6  -3    0.10    0.15
   5   6   3    0.26    0.20
   5   6   3   -0.14    0.37
   5   6   3    0.33    0.24
   5   6   3    0.19    0.16
   5  -6   3    0.24    0.21
   5  -6   3    0.21    0.24
   5   6   4    0.80    0.23
  -5   6  -4    0.75    0.15
   5   6   4    0.78    0.26
   5  -6   4    0.70    0.21
   5  -6   4    1.26    0.28
  -5   6  -5    0.00    0.11
   5   6   5    0.20    0.26
   5   6   5   -0.08    0.20
   5  -6   5    0.20    0.16
   5  -6   5    0.02    0.22
   5   6   6   -0.05    0.24
   5  -6   6    0.53    0.28
   5   6   7    0.44    0.24
  -5   6  -7    0.47    0.16
   5  -6   7    0.55    0.29
   5   7  -5    0.22    0.36
   5  -7  -5    0.33    0.35
   5   7  -4    0.06    0.12
   5   7  -4    0.03    0.33
   5  -7  -4   -0.06    0.30
   5   7  -3    0.02    0.31
   5   7  -3    0.54    0.14
   5  -7  -3    0.47    0.31
   5   7  -2    1.22    0.19
   5   7  -2    1.20    0.17
   5   7  -2    1.45    0.25
   5   7  -2    0.76    0.30
   5  -7  -2    0.89    0.32
   5   7  -1    0.25    0.27
   5   7  -1    0.30    0.14
   5   7  -1    0.48    0.25
   5   7  -1    0.37    0.19
   5  -7  -1    0.17    0.28
   5   7   0    0.03    0.14
  -5   7   0    0.17    0.35
   5   7   0    0.46    0.21
   5  -7   0    0.47    0.27
   5   7   1   -0.03    0.18
   5   7   1    0.57    0.19
  -5   7  -1    0.21    0.22
   5   7   1   -0.16    0.49
   5  -7   1    0.42    0.26
   5   7   2   -0.04    0.23
   5   7   2    0.10    0.20
  -5   7  -2   -0.16    0.21
   5   7   2    0.07    0.16
   5  -7   2   -0.03    0.21
   5  -7   2   -0.12    0.26
   5   7   3    0.67    0.24
   5   7   3    0.69    0.19
  -5   7  -3    0.41    0.17
   5   7   3    0.15    0.28
   5  -7   3    0.44    0.22
   5  -7   3    0.47    0.28
   5   7   4    0.06    0.26
   5  -7   4    0.11    0.28
   5  -7   4   -0.14    0.24
   6   0 -13    0.33    0.42
  -6   0  13    0.23    0.40
  -6   0  13    0.12    0.21
   6   0 -12    0.59    0.48
  -6   0  12    0.30    0.20
   6   0 -11    0.37    0.44
  -6   0  11    0.72    0.25
  -6   0  11   -0.05    0.25
   6   0 -10   32.10    1.28
  -6   0  10   32.72    1.27
   6   0 -10   32.77    1.62
  -6   0  10   29.06    1.47
  -6   0  10   31.20    1.38
  -6   0   9    0.01    0.23
   6   0  -9   -0.22    0.15
   6   0  -9    0.08    0.21
  -6   0   9    0.20    0.39
  -6   0   9    0.04    0.22
   6   0  -9   -0.19    0.36
  -6   0   8   17.98    0.88
   6   0  -8   18.02    0.87
  -6   0   8   18.87    0.75
   6   0  -8   18.41    0.80
   6   0  -8   17.24    1.05
   6   0  -7   -0.20    0.14
   6   0  -7   -0.18    0.09
  -6   0   7   -0.20    0.21
   6   0  -7    0.17    0.37
  -6   0   7   -0.02    0.09
  -6   0   7    0.11    0.19
  -6   0   6    1.13    0.26
   6   0  -6    0.85    0.11
  -6   0   6    0.91    0.11
   6   0  -6    0.59    0.19
   6   0  -6    1.36    0.41
  -6   0   6    0.91    0.20
  -6   0   5    0.07    0.13
   6   0  -5   -0.10    0.14
   6   0  -5    0.12    0.21
   6   0  -5    0.33    0.08
  -6   0   5    0.23    0.16
  -6   0   4  753.05   27.55
   6   0  -4  750.18   27.58
  -6   0   4  756.67   27.57
  -6   0   3   -0.09    0.06
   6   0  -3    0.19    0.14
  -6   0   3    0.04    0.10
   6   0  -3   -0.07    0.09
   6   0  -2    0.25    0.07
  -6   0   2    0.23    0.07
   6   0  -2    0.21    0.12
  -6   0   2    0.33    0.08
   6   0  -1    0.45    0.07
  -6   0   1    0.48    0.07
   6   0  -1    0.45    0.09
   6   0   2  342.81   11.18
   6   0   2  293.76   11.10
  -6   0  -2  289.32   11.10
  -6   0  -2  292.31   11.14
  -6   0  -2  300.59   11.13
   6   0   2  301.67   11.15
  -6   0  -3    0.09    0.09
   6   0   3   -0.06    0.09
  -6   0  -3    0.14    0.07
   6   0   3   -0.04    0.09
   6   0   3    0.16    0.11
   6   0   4   31.03    1.18
  -6   0  -4   30.43    1.23
   6   0   4   30.82    1.21
  -6   0  -4   29.81    1.17
   6   0   4   30.70    1.27
   6   0   5    0.00    0.12
  -6   0  -5    0.13    0.13
  -6   0  -5    0.04    0.12
   6   0   5    0.12    0.21
   6   0   5   -0.03    0.11
  -6   0  -6   38.32    1.58
   6   0   6   38.61    1.64
   6   0   6   39.79    1.51
  -6   0  -6   39.64    1.50
   6   0   6   37.44    1.53
   6   0   7   -0.07    0.17
   6   0   7   -0.01    0.16
  -6   0  -7   -0.18    0.20
  -6   0  -8   25.21    1.19
   6   0   8   22.15    1.03
   6   0   8   24.16    1.04
   6   0   9   -0.41    0.19
   6   0   9    0.32    0.21
  -6   0  -9    0.14    0.26
   6   0   9    0.40    0.27
  -6   0 -10    0.20    0.30
   6   0  10    0.23    0.26
   6   0  10    0.36    0.24
   6   0  10    0.52    0.23
   6   0  11   -0.14    0.29
   6   0  11   -0.12    0.21
  -6   0 -11   -0.45    0.32
  -6   1  13   -0.06    0.19
   6   1 -13   -0.01    0.45
   6  -1 -13   -0.18    0.37
  -6  -1  13    0.13    0.20
  -6  -1  13    0.04    0.17
  -6  -1  13   -0.21    0.15
  -6   1  12    0.23    0.18
   6   1 -12    0.57    0.48
  -6   1  12    0.41    0.34
  -6  -1  12    0.46    0.20
  -6  -1  12    0.45    0.26
   6  -1 -12    0.38    0.39
   6   1 -11    2.49    0.56
  -6   1  11    3.45    0.38
  -6   1  11    5.64    0.83
   6  -1 -11    3.36    0.49
  -6  -1  11    3.01    0.37
  -6  -1  11    3.08    0.36
  -6   1  10   10.24    0.50
   6   1 -10    9.34    0.50
   6   1 -10    9.54    0.92
  -6   1  10    8.37    0.76
  -6  -1  10    7.87    0.73
   6  -1 -10    8.92    0.85
  -6  -1  10    9.58    0.52
   6  -1 -10    9.70    0.70
  -6  -1  10    8.61    0.52
   6   1  -9   35.25    1.68
   6   1  -9   35.55    1.34
  -6   1   9   33.63    1.34
  -6   1   9   33.57    1.54
  -6   1   9   31.26    1.49
   6  -1  -9   35.56    1.63
  -6  -1   9   33.58    1.36
  -6  -1   9   35.55    1.46
   6  -1  -9   34.90    1.53
   6   1  -8   15.77    0.71
  -6   1   8   16.11    0.86
   6   1  -8   16.05    0.74
  -6   1   8   16.12    0.88
   6   1  -8   16.78    1.03
  -6   1   8   14.90    0.67
   6  -1  -8   16.70    0.96
  -6  -1   8   15.48    0.70
   6  -1  -8   15.97    0.87
  -6  -1   8   16.15    0.68
   6   1  -7    1.49    0.20
   6   1  -7    1.84    0.19
   6   1  -7    1.65    0.41
  -6   1   7    1.48    0.46
  -6   1   7    1.66    0.20
  -6   1   7    1.63    0.30
  -6  -1   7    2.36    0.22
   6  -1  -7    1.95    0.40
  -6  -1   7    2.26    0.26
   6  -1  -7    1.70    0.27
  -6   1   6   23.48    1.02
  -6   1   6   22.58    0.97
   6   1  -6   22.64    1.07
   6   1  -6   22.63    0.92
   6   1  -6   22.38    0.85
  -6   1   6   19.78    0.88
  -6  -1   6   21.78    0.86
   6  -1  -6   22.88    1.07
   6  -1  -6   22.62    1.01
  -6  -1   6   22.25    0.87
  -6  -1   6   20.79    0.95
  -6   1   5    9.86    0.58
   6   1  -5    9.95    0.48
  -6   1   5    9.28    0.40
   6   1  -5    9.44    0.39
   6   1  -5    9.18    0.59
  -6   1   5    9.82    0.50
  -6  -1   5    9.62    0.41
  -6  -1   5    9.55    0.40
   6  -1  -5    9.78    0.57
  -6  -1   5    9.81    0.49
   6  -1  -5    9.01    0.61
   6   1  -4   36.69    1.48
  -6   1   4   36.82    1.43
   6   1  -4   36.76    1.42
  -6   1   4   37.20    1.47
  -6   1   4   37.05    1.38
   6   1  -4   35.68    1.36
  -6  -1   4   36.89    1.44
   6  -1  -4   37.03    1.59
  -6  -1   4   36.59    1.37
  -6  -1   4   36.58    1.38
   6  -1  -4   36.84    1.48
  -6   1   3  203.35    7.43
   6   1  -3  192.39    7.51
  -6   1   3  203.96    7.41
   6   1  -3  206.65    7.43
  -6   1   3  200.32    7.46
  -6  -1   3  207.45    7.41
   6  -1  -3  200.97    7.49
   6  -1  -3  201.55    7.46
  -6   1   2   64.64    2.47
  -6   1   2   67.62    2.49
   6   1  -2   65.68    2.51
   6   1  -2   67.53    2.48
   6  -1  -2   66.64    2.54
  -6  -1   2   68.49    2.48
   6  -1  -2   66.95    2.50
   6   1  -1    2.78    0.18
   6   1  -1    2.10    0.18
  -6   1   1    2.99    0.16
   6  -1  -1    3.29    0.29
   6  -1  -1    2.28    0.16
  -6  -1   1    2.40    0.18
   6  -1  -1    2.16    0.15
   6   1   0  366.64   13.33
  -6   1   0  356.55   13.33
  -6   1   0  368.54   13.31
  -6   1  -1  124.00    4.49
   6   1   1  118.62    4.52
   6   1   1  121.03    4.48
  -6   1  -1  124.39    4.52
   6  -1   1  124.73    4.52
   6  -1   1  122.02    4.52
  -6  -1  -1  118.71    4.49
   6  -1   1  124.56    4.50
  -6   1  -2   41.15    1.48
   6   1   2   37.40    1.53
   6   1   2   44.47    1.57
   6   1   2   38.95    1.47
  -6   1  -2   38.14    1.50
  -6   1  -2   39.13    1.50
   6  -1   2   39.71    1.52
  -6  -1  -2   38.43    1.48
   6  -1   2   39.39    1.52
   6  -1   2   38.02    1.49
   6   1   3    0.02    0.11
  -6   1  -3    0.34    0.08
  -6   1  -3    0.29    0.09
  -6   1  -3    0.15    0.17
   6   1   3   -0.12    0.14
   6   1   3    0.07    0.15
   6  -1   3    0.15    0.13
   6  -1   3    0.11    0.10
  -6  -1  -3    0.10    0.08
  -6  -1  -3   -0.06    0.11
   6  -1   3    0.06    0.09
  -6   1  -4   23.15    0.96
   6   1   4   22.40    1.08
   6   1   4   22.03    0.90
  -6   1  -4   22.13    0.90
   6   1   4   22.66    0.96
   6  -1   4   23.80    0.93
  -6  -1  -4   22.80    0.96
   6  -1   4   23.35    0.92
   6  -1   4   23.17    1.02
  -6  -1  -4   25.27    0.92
  -6   1  -5    0.31    0.17
   6   1   5    0.04    0.15
   6   1   5    0.34    0.15
  -6   1  -5    0.24    0.10
   6   1   5    0.22    0.12
   6  -1   5    0.14    0.28
   6  -1   5    0.51    0.15
  -6  -1  -5    0.15    0.17
  -6  -1  -5    0.33    0.12
   6  -1   5    0.40    0.14
   6   1   6  157.83    5.87
  -6   1  -6  147.86    5.82
   6   1   6  155.29    5.71
  -6   1  -6  143.04    5.70
   6   1   6  157.96    5.78
  -6  -1  -6  156.60    5.79
   6  -1   6  154.44    5.87
  -6  -1  -6  156.35    5.73
   6  -1   6  160.03    5.74
   6  -1   6  156.82    5.73
  -6   1  -7   51.73    2.07
   6   1   7   51.77    2.03
   6   1   7   50.89    1.96
   6  -1   7   51.28    1.98
  -6  -1  -7   51.29    2.06
   6  -1   7   48.98    2.11
   6   1   8    1.91    0.27
   6   1   8    2.96    0.39
  -6   1  -8    1.91    0.33
  -6   1  -8    2.90    0.32
   6   1   8    1.75    0.27
  -6  -1  -8    1.37    0.31
   6  -1   8    2.42    0.35
   6  -1   8    3.07    0.41
  -6  -1  -8    2.00    0.33
   6  -1   8    2.28    0.38
   6   1   9    4.26    0.44
   6   1   9    4.21    0.48
  -6   1  -9    5.40    0.58
   6   1   9    4.83    0.49
   6  -1   9    4.57    0.90
   6  -1   9    4.30    0.41
   6  -1   9    4.23    0.42
  -6  -1  -9    4.87    0.56
   6   1  10    0.39    0.22
   6   1  10    0.53    0.25
  -6   1 -10    0.34    0.29
  -6  -1 -10    0.24    0.28
   6  -1  10    0.24    0.22
   6  -1  10    0.82    0.28
   6   1  11    0.18    0.26
   6   1  11    0.25    0.32
  -6   1 -11   -0.03    0.31
   6  -1  11    0.28    0.20
  -6  -1 -11   -0.07    0.36
   6  -1  11    0.41    0.47
  -6   2  12    0.76    0.22
   6   2 -12    0.25    0.48
  -6  -2  12    0.56    0.23
   6  -2 -12    0.57    0.37
   6   2 -11    0.84    0.19
   6   2 -11    0.48    0.47
  -6   2  11    0.88    0.21
   6  -2 -11    0.64    0.30
  -6  -2  11    0.62    0.20
   6  -2 -11    0.47    0.33
  -6   2  10    0.34    0.35
  -6   2  10    0.65    0.32
   6   2 -10    0.79    0.16
  -6   2  10    0.49    0.19
   6   2 -10    1.27    0.51
   6  -2 -10    1.16    0.46
  -6  -2  10    0.81    0.19
   6  -2 -10    0.28    0.34
   6   2  -9    8.01    0.42
  -6   2   9    9.38    1.06
  -6   2   9    8.36    0.46
  -6   2   9    8.66    0.67
   6   2  -9    9.09    1.13
  -6  -2   9    8.89    0.47
   6  -2  -9    8.86    0.73
   6  -2  -9    8.22    0.69
  -6  -2   9    8.52    0.67
  -6   2   8   12.09    0.75
  -6   2   8   12.42    0.57
   6   2  -8   11.72    0.90
   6   2  -8   12.04    0.53
  -6  -2   8   12.37    0.58
   6  -2  -8   12.63    0.81
   6  -2  -8   12.42    0.80
   6   2  -7   -0.01    0.11
  -6   2   7    0.05    0.15
  -6   2   7    0.13    0.22
   6   2  -7    0.05    0.32
  -6   2   7    0.85    0.30
   6  -2  -7    0.18    0.30
  -6  -2   7    0.14    0.14
  -6  -2   7    0.04    0.16
   6  -2  -7    0.17    0.25
   6   2  -6    2.22    0.20
   6   2  -6    2.09    0.38
  -6   2   6    2.03    0.34
  -6   2   6    2.40    0.35
  -6   2   6    2.03    0.23
   6  -2  -6    2.20    0.33
   6  -2  -6    2.20    0.33
  -6  -2   6    1.86    0.26
  -6  -2   6    2.20    0.26
  -6   2   5    9.02    0.42
   6   2  -5    8.93    0.41
   6   2  -5    8.75    0.39
  -6   2   5    9.29    0.86
  -6   2   5    9.38    0.49
   6   2  -5    9.42    0.60
  -6  -2   5    9.18    0.41
  -6  -2   5    9.23    0.37
   6  -2  -5    8.37    0.90
  -6  -2   5   10.42    0.64
   6  -2  -5    9.74    0.61
  -6   2   4   30.68    1.21
   6   2  -4   30.51    1.17
  -6   2   4   31.97    1.22
   6   2  -4   30.47    1.20
   6   2  -4   32.20    1.30
  -6   2   4   31.90    1.32
   6  -2  -4   31.33    1.29
  -6  -2   4   31.28    1.24
   6  -2  -4   31.16    1.34
  -6  -2   4   31.00    1.19
  -6   2   3    0.28    0.08
   6   2  -3    0.29    0.07
   6   2  -3    0.42    0.09
   6   2  -3    0.10    0.13
  -6   2   3    0.39    0.20
  -6   2   3    0.12    0.09
  -6  -2   3    0.26    0.08
   6  -2  -3    0.60    0.17
  -6  -2   3    0.20    0.09
   6  -2  -3    0.40    0.20
  -6   2   2  177.72    6.41
   6   2  -2  177.23    6.45
   6   2  -2  170.92    6.39
   6   2  -2  172.56    6.38
  -6   2   2  170.04    6.45
   6  -2  -2  176.54    6.41
   6  -2  -2  173.89    6.49
   6   2  -1    6.57    0.33
   6   2  -1    7.24    0.31
   6   2  -1    5.71    0.50
  -6   2   1    7.22    0.34
   6  -2  -1    6.24    0.49
   6  -2  -1    7.43    0.32
   6  -2  -1    7.15    0.34
   6   2   0   15.96    0.62
  -6   2   0   15.01    0.64
   6   2   0   14.59    0.60
  -6   2   0   15.20    0.62
   6   2   0   13.45    0.59
   6  -2   0   16.48    0.59
   6  -2   0   14.05    0.61
   6   2   1    0.37    0.08
  -6   2  -1    0.31    0.11
  -6   2  -1    0.40    0.11
   6   2   1    0.33    0.10
   6   2   1    0.40    0.13
   6  -2   1    0.74    0.11
   6  -2   1    0.64    0.17
  -6   2  -2    3.17    0.22
   6   2   2    3.07    0.27
   6   2   2    3.77    0.26
  -6   2  -2    3.38    0.20
  -6   2  -2    3.47    0.23
   6   2   2    3.33    0.21
   6  -2   2    3.25    0.28
   6  -2   2    3.22    0.23
   6  -2   2    3.23    0.33
   6   2   3  166.80    6.31
  -6   2  -3  170.37    6.28
   6   2   3  172.33    6.33
   6   2   3  170.04    6.25
  -6   2  -3  170.28    6.26
  -6   2  -3  171.74    6.27
   6  -2   3  171.54    6.32
   6  -2   3  172.89    6.28
   6  -2   3  163.73    6.28
  -6   2  -4  112.45    4.21
   6   2   4  103.48    4.31
   6   2   4  114.35    4.28
   6   2   4  112.99    4.18
  -6   2  -4  115.12    4.22
  -6   2  -4  115.92    4.19
   6  -2   4  110.26    4.20
   6  -2   4  115.42    4.21
  -6  -2  -4  116.42    4.23
   6  -2   4  113.02    4.28
  -6   2  -5    4.63    0.31
  -6   2  -5    3.52    0.38
   6   2   5    4.38    0.38
   6   2   5    3.88    0.46
   6  -2   5    3.96    0.35
   6  -2   5    2.64    0.36
  -6  -2  -5    3.73    0.39
   6  -2   5    3.32    0.45
   6   2   6    1.03    0.24
   6   2   6    2.06    0.29
  -6   2  -6    1.71    0.43
   6   2   6    2.12    0.31
   6  -2   6    1.76    0.31
  -6  -2  -6    0.90    0.18
  -6  -2  -6    1.24    0.20
   6   2   7   15.37    0.81
   6   2   7   15.15    0.68
   6   2   7   14.90    0.87
  -6   2  -7   16.15    0.80
   6  -2   7   14.58    0.72
  -6  -2  -7   14.94    0.78
   6  -2   7   14.70    0.69
   6   2   8    5.02    0.53
  -6   2  -8    5.67    0.53
   6   2   8    6.32    0.42
   6   2   8    5.43    0.59
   6   2   8    5.73    0.74
  -6  -2  -8    5.77    0.46
   6  -2   8    5.96    0.42
  -6  -2  -8    5.43    0.52
   6  -2   8    5.89    0.46
   6  -2   8    8.42    1.24
   6   2   9    0.51    0.20
   6   2   9    0.27    0.22
  -6   2  -9    0.61    0.28
  -6  -2  -9    0.36    0.24
   6  -2   9    0.50    0.22
   6  -2   9    0.71    0.19
   6  -2   9    0.58    0.21
   6   2  10    0.07    0.23
  -6   2 -10    0.39    0.29
   6   2  10    0.33    0.19
   6  -2  10    0.42    0.23
   6  -2  10    0.23    0.17
  -6  -2 -10    0.21    0.27
   6   2  11    0.96    0.35
  -6   2 -11    1.02    0.50
   6   2  11    0.87    0.24
   6  -2  11    1.50    0.32
  -6  -2 -11    1.08    0.35
   6  -2  11    1.41    0.31
   6  -2  11    1.59    0.34
   6   3 -12    0.30    0.46
  -6   3  12    0.08    0.18
  -6  -3  12    0.36    0.20
   6  -3 -12   -0.02    0.27
   6   3 -11   -0.16    0.49
  -6   3  11    0.62    0.21
  -6  -3  11    0.26    0.19
   6  -3 -11   -0.04    0.28
   6  -3 -11    0.63    0.33
  -6   3  10    0.15    0.17
  -6   3  10    0.58    0.32
   6   3 -10    0.24    0.46
   6  -3 -10    0.18    0.34
   6  -3 -10    0.44    0.28
  -6  -3  10   -0.01    0.22
  -6   3   9    4.06    0.47
  -6   3   9    3.55    0.51
  -6   3   9    3.57    0.50
   6   3  -9    3.35    0.29
   6   3  -9    3.83    0.60
   6  -3  -9    4.00    0.49
  -6  -3   9    3.13    0.33
   6  -3  -9    3.10    0.43
  -6  -3   9    3.67    0.49
  -6   3   8    0.84    0.26
  -6   3   8    0.54    0.16
   6   3  -8    0.45    0.34
   6   3  -8    0.38    0.13
   6  -3  -8    0.41    0.24
  -6  -3   8    1.12    0.24
   6  -3  -8    0.34    0.29
  -6  -3   8    0.40    0.16
   6   3  -7    1.03    0.37
   6   3  -7    1.16    0.15
  -6   3   7    1.67    0.20
  -6   3   7    1.34    0.27
   6  -3  -7    1.32    0.26
   6  -3  -7    1.44    0.33
  -6  -3   7    1.43    0.19
   6   3  -6   51.71    2.15
   6   3  -6   51.22    1.93
  -6   3   6   51.81    2.01
  -6   3   6   52.21    2.00
   6  -3  -6   52.06    2.03
  -6  -3   6   44.80    2.00
   6  -3  -6   52.60    2.17
  -6  -3   6   53.52    1.96
   6   3  -5    1.16    0.32
   6   3  -5    1.09    0.14
  -6   3   5    0.95    0.20
  -6   3   5    0.53    0.16
  -6   3   5    0.77    0.17
   6  -3  -5    0.93    0.22
  -6  -3   5    0.70    0.16
  -6  -3   5    0.73    0.20
   6  -3  -5    0.67    0.25
  -6   3   4  142.57    5.47
  -6   3   4  148.41    5.38
   6   3  -4  140.80    5.37
   6   3  -4  147.11    5.49
   6  -3  -4  143.44    5.40
   6  -3  -4  147.58    5.56
  -6  -3   4  151.20    5.55
   6   3  -3    3.04    0.22
  -6   3   3    2.62    0.18
   6   3  -3    2.93    0.24
  -6   3   3    2.94    0.25
   6   3  -3    3.04    0.31
  -6   3   3    1.94    0.28
   6   3  -3    3.45    0.19
   6  -3  -3    2.93    0.43
   6  -3  -3    2.65    0.26
  -6  -3   3    2.26    0.23
   6   3  -2    5.80    0.27
  -6   3   2    4.35    0.50
   6   3  -2    4.92    0.32
  -6   3   2    4.34    0.29
   6   3  -2    4.60    0.26
   6   3  -2    5.01    0.32
   6  -3  -2    4.73    0.48
   6   3  -1    0.64    0.12
   6   3  -1    0.60    0.11
  -6   3   1    0.95    0.20
   6   3  -1    0.78    0.12
   6   3  -1    0.78    0.16
  -6   3   1    0.34    0.10
   6  -3  -1    0.75    0.21
   6  -3  -1    0.59    0.12
   6   3   0   75.48    2.81
  -6   3   0   73.84    2.80
   6   3   0   75.66    2.82
   6   3   0   70.39    2.80
   6   3   0   77.53    2.79
   6   3   0   72.83    2.86
  -6   3   0   74.80    2.82
   6  -3   0   74.32    2.88
   6  -3   0   76.05    2.81
   6   3   1    7.92    0.41
  -6   3  -1    8.50    0.43
   6   3   1    7.31    0.38
   6   3   1    8.33    0.50
   6   3   1    7.46    0.39
  -6   3  -1    6.95    0.40
   6  -3   1    8.45    0.54
   6  -3   1    7.67    0.41
   6   3   2  235.66    8.45
   6   3   2  240.30    8.52
  -6   3  -2  235.86    8.47
  -6   3  -2  232.61    8.46
  -6   3  -2  236.92    8.42
   6   3   2  200.77    8.74
   6  -3   2  216.49    8.47
   6  -3   2  231.73    8.46
   6  -3   2  236.44    8.51
   6   3   3   54.99    2.29
  -6   3  -3   57.15    2.16
   6   3   3   57.58    2.23
  -6   3  -3   59.58    2.15
   6   3   3   57.11    2.15
   6  -3   3   56.94    2.21
   6  -3   3   58.38    2.22
   6  -3   3   54.09    2.23
  -6   3  -4   18.45    0.80
  -6   3  -4   16.67    0.78
  -6   3  -4   17.98    0.78
   6   3   4   20.52    0.90
   6   3   4   19.41    0.89
   6  -3   4   19.09    0.91
   6  -3   4   18.23    0.81
   6  -3   4   19.17    0.85
   6   3   5   19.16    0.84
  -6   3  -5   21.31    0.88
  -6   3  -5   19.26    0.85
   6   3   5   20.82    0.98
   6  -3   5   20.08    0.99
   6  -3   5   20.17    0.88
   6  -3   5   18.81    0.88
  -6  -3  -5   20.62    0.89
  -6   3  -6   11.78    0.82
   6   3   6   11.83    0.82
   6   3   6   13.47    0.60
   6  -3   6   12.79    0.64
  -6  -3  -6   12.68    0.67
   6  -3   6   12.97    0.64
   6  -3   6   12.55    0.80
   6   3   7   12.66    0.83
  -6   3  -7   11.64    0.64
   6   3   7   10.06    0.77
   6   3   7   10.28    0.63
   6  -3   7   10.75    0.57
   6  -3   7    9.22    0.70
  -6  -3  -7   11.75    0.78
   6  -3   7   11.10    0.59
   6   3   8    3.16    0.37
  -6   3  -8    2.38    0.33
  -6  -3  -8    3.70    0.43
   6  -3   8    3.46    0.36
   6  -3   8    3.51    0.38
   6   3   9    1.96    0.24
  -6   3  -9    2.21    0.33
   6   3   9    2.11    0.34
   6  -3   9    1.77    0.27
   6  -3   9    2.13    0.25
  -6  -3  -9    2.17    0.31
   6  -3   9    2.40    0.35
  -6   3 -10    0.44    0.27
   6   3  10    0.06    0.31
   6   3  10    0.17    0.32
   6  -3  10    0.58    0.20
   6  -3  10    0.03    0.18
   6  -3  10    0.41    0.34
  -6  -3 -10    0.35    0.26
   6   4 -11   -0.09    0.52
  -6   4  11    0.19    0.24
  -6  -4  11    0.20    0.21
   6  -4 -11    0.05    0.23
   6  -4 -11    0.47    0.39
  -6   4  10    1.13    0.25
  -6   4  10    1.55    0.33
   6   4 -10    1.25    0.52
   6  -4 -10    1.63    0.30
   6  -4 -10    1.22    0.35
  -6  -4  10    1.21    0.24
   6   4  -9    0.46    0.44
  -6   4   9    0.44    0.26
  -6   4   9    0.85    0.21
   6  -4  -9    0.39    0.21
   6  -4  -9    0.72    0.35
   6   4  -8    7.15    0.83
  -6   4   8    6.75    0.45
   6   4  -8    6.80    0.39
  -6   4   8    6.86    0.55
  -6   4   8    6.48    0.54
   6  -4  -8    7.36    0.74
  -6  -4   8    6.13    0.45
   6  -4  -8    6.66    0.48
  -6  -4   8    7.26    0.54
   6   4  -7    0.13    0.14
  -6   4   7    0.56    0.34
  -6   4   7    0.20    0.29
  -6   4   7    0.30    0.19
   6   4  -7    0.63    0.38
  -6  -4   7    0.19    0.18
   6  -4  -7   -0.03    0.27
  -6  -4   7    0.06    0.15
   6  -4  -7    0.31    0.16
  -6   4   6    2.97    0.32
  -6   4   6    3.10    0.35
   6   4  -6    3.16    0.44
   6   4  -6    3.61    0.28
  -6  -4   6    3.19    0.37
   6  -4  -6    3.78    0.55
   6  -4  -6    3.21    0.29
  -6   4   5   60.47    2.26
   6   4  -5   60.42    2.44
   6   4  -5   57.03    2.25
  -6  -4   5   57.33    2.31
   6  -4  -5   61.90    2.50
   6  -4  -5   59.37    2.25
  -6  -4   5   61.67    2.29
   6   4  -4    2.22    0.33
  -6   4   4    1.33    0.30
   6   4  -4    1.80    0.32
  -6   4   4    1.84    0.23
   6  -4  -4    2.84    0.39
  -6  -4   4    2.65    0.30
  -6   4   3   79.24    3.13
   6   4  -3   81.21    3.08
   6   4  -3   80.26    3.01
  -6   4   3   78.68    3.03
   6   4  -3   78.84    2.96
   6   4  -3   78.82    2.99
  -6  -4   3   84.12    3.01
   6  -4  -3   77.81    3.17
  -6   4   2   16.51    0.73
   6   4  -2   15.68    0.67
  -6   4   2   16.82    0.87
   6   4  -2   16.07    0.75
   6   4  -2   16.58    0.75
   6   4  -2   15.88    0.69
   6  -4  -2   14.59    0.96
   6   4  -1    3.47    0.32
   6   4  -1    3.22    0.29
   6   4  -1    3.90    0.32
  -6   4   1    3.40    0.48
  -6   4   1    4.25    0.33
   6   4  -1    3.73    0.38
   6  -4  -1    3.12    0.48
   6  -4  -1    3.96    0.38
  -6   4   0    7.23    0.43
   6   4   0    6.65    0.42
   6   4   0    7.87    0.53
  -6   4   0    7.80    0.50
   6  -4   0    8.27    0.60
   6  -4   0    6.54    0.43
  -6   4  -1   68.24    2.94
   6   4   1   77.99    3.05
   6   4   1   78.75    2.97
   6   4   1   82.54    2.96
   6  -4   1   79.05    3.04
   6  -4   1   81.67    2.98
   6   4   2   30.07    1.15
   6   4   2   28.63    1.18
  -6   4  -2   23.23    1.17
   6   4   2   27.65    1.27
   6   4   2   28.36    1.17
   6  -4   2   29.52    1.17
   6  -4   2   28.07    1.23
  -6   4  -3    4.86    0.27
   6   4   3    5.15    0.37
   6   4   3    5.29    0.52
   6   4   3    5.06    0.36
  -6   4  -3    5.00    0.35
   6   4   3    5.38    0.41
   6  -4   3    5.39    0.39
   6  -4   3    5.84    0.49
   6  -4   3    5.56    0.34
   6   4   4    0.30    0.16
  -6   4  -4    0.47    0.12
  -6   4  -4    0.11    0.12
  -6   4  -4    0.41    0.15
   6   4   4    0.59    0.24
   6   4   4    0.42    0.20
   6  -4   4    0.70    0.18
   6  -4   4    0.69    0.23
   6  -4   4    0.49    0.17
   6   4   5    0.61    0.24
   6   4   5    0.18    0.17
  -6   4  -5    0.19    0.14
   6   4   5    0.31    0.37
  -6   4  -5    0.60    0.14
  -6   4  -5    0.40    0.15
   6  -4   5    0.12    0.30
   6  -4   5    0.63    0.22
   6  -4   5    0.67    0.23
   6   4   6    7.52    0.46
  -6   4  -6    7.59    0.47
   6   4   6    6.55    0.70
   6  -4   6    7.37    0.50
   6  -4   6    7.47    0.56
   6  -4   6    6.82    0.52
  -6   4  -7   12.16    0.64
   6   4   7   12.03    0.61
   6   4   7   11.95    0.98
   6  -4   7    9.17    0.68
   6  -4   7   11.62    0.64
   6  -4   7   11.38    0.64
  -6   4  -8    8.58    0.67
   6   4   8   10.29    0.57
  -6  -4  -8    9.12    0.60
   6  -4   8    8.80    0.56
   6  -4   8    8.61    0.58
   6   4   9    0.56    0.30
  -6   4  -9    0.75    0.28
   6  -4   9    0.83    0.38
   6  -4   9    0.67    0.22
  -6  -4  -9    0.98    0.25
  -6   5  10    0.87    0.27
  -6   5  10    0.30    0.33
   6   5 -10   -0.25    0.45
   6  -5 -10    0.60    0.41
  -6  -5  10    0.62    0.22
   6  -5 -10    0.82    0.20
  -6   5   9   -0.10    0.21
  -6   5   9    0.08    0.19
   6  -5  -9   -0.45    0.50
  -6  -5   9    0.11    0.20
   6  -5  -9   -0.09    0.15
   6   5  -8    1.42    0.47
  -6   5   8    0.76    0.24
   6   5  -8    0.63    0.17
  -6   5   8    0.80    0.21
  -6  -5   8    0.50    0.21
   6  -5  -8    1.06    0.28
   6  -5  -8    0.93    0.37
  -6   5   7    2.74    0.38
  -6   5   7    2.04    0.29
   6   5  -7    2.90    0.56
   6  -5  -7    2.51    0.23
  -6  -5   7    2.32    0.29
   6  -5  -7    2.36    0.41
   6   5  -6    1.11    0.19
  -6   5   6    0.94    0.14
   6   5  -6    1.09    0.38
  -6   5   6    0.83    0.33
  -6   5   6    0.74    0.22
   6  -5  -6    1.22    0.34
  -6  -5   6    0.77    0.21
  -6   5   5    0.96    0.37
   6   5  -5    1.20    0.32
   6   5  -5    1.20    0.19
  -6   5   5    1.30    0.24
  -6  -5   5    1.03    0.20
   6  -5  -5    1.19    0.31
  -6   5   4    7.61    0.76
  -6   5   4    6.73    0.88
   6   5  -4    7.33    0.44
   6   5  -4    7.83    0.61
   6  -5  -4    7.44    1.06
  -6  -5   4    6.84    0.46
   6   5  -3    4.09    0.36
   6   5  -3    4.39    0.27
  -6   5   3    5.82    0.54
  -6   5   3    3.94    0.45
   6   5  -3    4.57    0.39
   6   5  -3    3.62    0.48
   6  -5  -3    4.04    0.59
  -6   5   2    4.76    0.62
   6   5  -2    5.08    0.38
   6   5  -2    4.86    0.46
   6   5  -2    4.12    0.52
   6   5  -2    4.69    0.35
  -6   5   2    5.12    0.44
   6  -5  -2    4.83    0.63
  -6   5   1    0.31    0.19
   6   5  -1    0.16    0.13
  -6   5   1    0.11    0.26
   6   5  -1    0.03    0.17
   6   5  -1   -0.08    0.22
   6   5  -1   -0.07    0.17
   6   5  -1    0.02    0.19
   6  -5  -1    0.00    0.26
  -6   5   0    1.19    0.21
   6   5   0    1.13    0.21
  -6   5   0    1.03    0.25
   6   5   0    1.45    0.28
   6   5   0    1.35    0.21
   6   5   0    1.15    0.18
   6  -5   0    1.24    0.31
   6  -5   0    0.63    0.17
   6   5   1   21.62    0.94
  -6   5  -1   21.74    0.96
   6   5   1   21.06    0.94
   6   5   1   21.63    1.02
   6   5   1   21.20    1.07
   6  -5   1   21.32    1.05
   6  -5   1   22.52    0.97
  -6   5  -2    1.51    0.23
   6   5   2    1.21    0.21
   6   5   2    1.77    0.23
  -6   5  -2    1.60    0.21
   6   5   2    2.07    0.35
   6   5   2    1.38    0.23
   6  -5   2    1.23    0.37
   6   5   3   -0.21    0.15
  -6   5  -3    0.02    0.16
   6   5   3   -0.23    0.26
   6   5   3   -0.16    0.22
  -6   5  -3    0.07    0.14
   6   5   3    0.01    0.15
   6  -5   3    0.05    0.20
   6  -5   3   -0.13    0.14
   6   5   4    0.79    0.24
   6   5   4    0.69    0.19
   6   5   4    0.77    0.32
   6   5   4    0.51    0.17
  -6   5  -4    0.70    0.15
   6  -5   4    0.41    0.19
   6  -5   4    0.59    0.22
  -6   5  -5    0.47    0.17
   6   5   5    0.58    0.20
  -6   5  -5    0.85    0.16
   6  -5   5    0.60    0.14
   6  -5   5    0.42    0.20
   6  -5   5    0.30    0.20
   6   5   6    0.39    0.18
  -6   5  -6    0.61    0.17
   6   5   6    0.71    0.31
   6  -5   6    0.44    0.25
   6  -5   6    0.63    0.22
   6  -5   6    0.46    0.20
   6   5   7    0.46    0.21
  -6   5  -7    0.70    0.19
   6  -5   7    0.82    0.24
   6  -5   7    0.77    0.20
   6  -5   7    0.67    0.19
  -6   5  -8    0.72    0.25
   6   5   8    0.93    0.28
   6  -5   8    1.20    0.27
   6   6  -8    0.45    0.46
  -6   6   8    0.27    0.22
   6  -6  -8    0.41    0.43
  -6  -6   8    0.76    0.24
  -6   6   7    1.27    0.25
   6   6  -7    2.12    0.52
   6  -6  -7    0.51    0.55
  -6  -6   7    1.83    0.27
   6   6  -6    0.62    0.40
  -6   6   6    0.74    0.26
  -6  -6   6    0.63    0.21
   6  -6  -6    0.73    0.36
   6   6  -5    0.50    0.20
   6   6  -5    0.58    0.35
  -6  -6   5    0.17    0.20
   6  -6  -5    0.84    0.33
   6   6  -4    0.62    0.34
   6   6  -4    0.80    0.20
   6  -6  -4    1.31    0.37
   6   6  -3    1.94    0.25
   6   6  -3    2.16    0.34
   6   6  -3    2.15    0.22
   6   6  -3    1.94    0.24
   6  -6  -3    1.75    0.38
   6   6  -2    0.28    0.19
  -6   6   2    0.17    0.30
   6   6  -2    0.32    0.14
   6   6  -2    0.59    0.25
   6   6  -2    0.55    0.17
   6   6  -2    0.94    0.35
   6  -6  -2    0.46    0.30
   6   6  -1    0.87    0.23
   6   6  -1    1.03    0.23
   6   6  -1    0.96    0.28
   6   6  -1    0.62    0.33
  -6   6   1    0.87    0.33
   6   6  -1    0.91    0.18
  -6   6   0    6.00    0.58
   6   6   0    7.05    0.63
   6   6   0    5.81    0.44
   6   6   0    5.72    0.46
   6   6   0    5.99    0.42
   6  -6   0    6.39    0.60
   6   6   1    3.34    0.35
   6   6   1    3.26    0.36
   6   6   1    3.29    0.36
   6   6   1    3.71    0.45
  -6   6  -1    3.86    0.45
   6  -6   1    3.64    0.50
   6  -6   1    3.33    0.40
   6   6   2    0.62    0.18
   6   6   2    0.61    0.22
   6   6   2    0.69    0.32
   6   6   2    0.75    0.21
  -6   6  -2    0.49    0.19
   6  -6   2    0.59    0.25
   6  -6   2    0.24    0.18
  -6   6  -3    0.05    0.15
   6   6   3   -0.14    0.20
   6   6   3    0.06    0.20
   6   6   3    0.01    0.15
   6  -6   3    0.03    0.20
   6  -6   3    0.00    0.17
   6   6   4    0.64    0.30
  -6   6  -4    0.51    0.16
   6   6   4    0.89    0.24
   6  -6   4    0.63    0.21
   6  -6   4    0.78    0.21
  -6   6  -5    0.88    0.15
   6   6   5    0.48    0.21
   6   6   5    0.52    0.32
   6  -6   5    0.42    0.23
   6  -6   5    0.40    0.19
   6   6   6    0.16    0.32
   6  -6   6   -0.14    0.21
   6  -6   6   -0.02    0.15
   6   7  -5    0.71    0.38
   6  -7  -5    0.63    0.37
   6   7  -4    0.23    0.34
   6  -7  -4    0.40    0.38
   6   7  -3    0.01    0.13
   6   7  -3   -0.02    0.29
   6  -7  -3    0.15    0.31
   6   7  -2    0.13    0.22
   6   7  -2    0.05    0.13
   6   7  -2    0.39    0.25
   6   7  -2    0.18    0.27
   6  -7  -2    0.34    0.29
   6   7  -1    0.09    0.17
   6   7  -1    0.29    0.27
   6   7  -1    0.50    0.24
   6   7  -1    0.30    0.14
   6  -7  -1    0.14    0.27
   6   7   0    0.22    0.31
   6   7   0    0.06    0.16
   6   7   0   -0.04    0.20
   6   7   0   -0.15    0.32
   6  -7   0    0.21    0.27
   6   7   1    0.64    0.21
  -6   7  -1    0.40    0.22
   6   7   1    0.70    0.20
   6  -7   1    0.55    0.26
   6   7   2    0.57    0.26
  -6   7  -2    0.37    0.18
   6   7   2    0.15    0.17
   6   7   2    0.06    0.24
   6  -7   2   -0.44    0.25
   6  -7   2    0.06    0.24
   6   7   3   -0.06    0.23
   6   7   3    0.25    0.21
  -6   7  -3    0.38    0.20
   6  -7   3   -0.15    0.22
   6  -7   3    0.40    0.26
  -7   0  13   -0.24    0.26
   7   0 -13   -0.01    0.47
  -7   0  13    0.11    0.22
   7   0 -12    2.85    0.61
  -7   0  12    2.99    0.40
   7   0 -11    0.13    0.44
  -7   0  11    0.19    0.19
   7   0 -11    0.06    0.21
  -7   0  10   17.89    0.76
   7   0 -10   15.02    1.23
  -7   0  10   18.01    1.01
   7   0 -10   17.68    1.17
   7   0 -10   18.18    0.79
  -7   0  10   16.46    0.87
   7   0  -9    0.13    0.17
  -7   0   9   -0.05    0.23
  -7   0   9    0.12    0.15
  -7   0   9    0.18    0.24
   7   0  -9   -0.30    0.37
   7   0  -9   -0.03    0.20
   7   0  -8   27.08    1.33
   7   0  -8   25.29    1.14
  -7   0   8   25.82    1.00
  -7   0   8   25.30    1.11
   7   0  -8   24.89    1.02
  -7   0   7    0.01    0.20
  -7   0   7    0.19    0.17
  -7   0   7   -0.09    0.11
   7   0  -7    0.08    0.11
   7   0  -7    0.02    0.16
   7   0  -7   -0.02    0.36
   7   0  -6   56.58    2.08
   7   0  -6   55.99    2.19
   7   0  -6   55.40    2.25
  -7   0   6   55.64    2.13
  -7   0   6   56.22    2.06
  -7   0   6   53.79    2.18
  -7   0   5   -0.16    0.11
  -7   0   5   -0.07    0.06
  -7   0   5    0.10    0.14
   7   0  -5   -0.15    0.16
   7   0  -5    0.00    0.20
  -7   0   4   48.68    1.84
   7   0  -4   47.99    1.88
   7   0  -4   46.99    1.87
  -7   0   4   47.94    1.82
   7   0  -3    0.13    0.15
  -7   0   3    0.24    0.11
  -7   0   3    0.22    0.09
   7   0  -3    0.12    0.10
   7   0  -2  125.12    4.67
  -7   0   2  124.61    4.66
   7   0  -2  128.85    4.68
   7   0   1    0.18    0.15
  -7   0  -1    0.11    0.05
  -7   0  -1   -0.08    0.07
   7   0   1    0.10    0.07
   7   0   1   -0.05    0.06
   7   0   2  442.63   16.19
  -7   0  -2  435.59   16.18
   7   0   2  445.08   16.16
   7   0   3    0.19    0.11
   7   0   3    0.16    0.11
  -7   0  -3    0.17    0.10
   7   0   3    0.31    0.11
  -7   0  -3    0.39    0.10
   7   0   4   64.83    2.46
  -7   0  -4   64.11    2.48
   7   0   4   64.76    2.43
  -7   0  -4   65.85    2.42
  -7   0  -5    0.15    0.19
   7   0   5   -0.18    0.19
  -7   0  -5   -0.03    0.09
   7   0   5   -0.07    0.12
   7   0   5   -0.06    0.13
   7   0   6   13.38    0.60
   7   0   6   13.75    0.64
   7   0   6   11.22    0.64
  -7   0  -6   12.92    0.58
  -7   0  -6   13.63    0.69
   7   0   7   -0.10    0.17
   7   0   7    0.09    0.31
   7   0   7   -0.08    0.18
  -7   0  -7   -0.34    0.20
  -7   0  -8   29.40    1.34
   7   0   8   27.11    1.48
  -7   0  -8   30.24    1.21
   7   0   8   29.04    1.25
   7   0   8   26.35    1.36
   7   0   8   33.09    1.29
  -7   0  -9   -0.26    0.26
   7   0   9    0.08    0.22
   7   0   9    0.11    0.24
   7   0   9   -0.01    0.22
   7   0  10    0.18    0.21
   7   0  10    0.30    0.23
  -7   0 -10    0.31    0.30
   7   0  11    0.12    0.22
  -7   0 -11   -0.12    0.27
   7   0  11    0.15    0.21
  -7   1  13    0.51    0.22
   7   1 -13    0.03    0.42
  -7  -1  13    0.29    0.15
  -7  -1  13    0.49    0.22
   7  -1 -13   -0.09    0.43
  -7   1  12    0.11    0.35
  -7   1  12    0.14    0.18
   7   1 -12    0.44    0.53
  -7  -1  12   -0.12    0.24
   7  -1 -12    0.02    0.37
  -7  -1  12    0.08    0.20
  -7   1  11    6.73    0.60
   7   1 -11    4.63    0.64
   7   1 -11    6.52    0.51
   7  -1 -11    7.21    0.84
  -7  -1  11    6.16    0.41
  -7  -1  11    5.93    0.44
   7  -1 -11    6.88    0.64
   7   1 -10    5.62    0.65
  -7   1  10    5.91    0.63
   7   1 -10    5.63    0.38
  -7   1  10    5.29    0.39
   7  -1 -10    6.02    0.59
   7  -1 -10    5.61    0.78
  -7  -1  10    5.68    0.70
  -7  -1  10    5.48    0.39
  -7  -1  10    5.46    0.39
   7   1  -9    5.12    0.42
  -7   1   9    3.98    0.46
  -7   1   9    5.49    0.33
   7   1  -9    4.95    0.34
   7   1  -9    5.38    0.79
  -7   1   9    5.05    0.56
   7  -1  -9    5.11    0.74
  -7  -1   9    5.03    0.36
   7  -1  -9    4.77    0.55
  -7  -1   9    4.40    0.37
   7   1  -8   20.18    0.81
  -7   1   8   19.98    0.81
  -7   1   8   20.54    0.99
   7   1  -8   19.47    1.14
   7   1  -8   19.69    0.90
  -7   1   8   20.82    1.01
   7  -1  -8   20.95    1.12
  -7  -1   8   19.17    0.83
  -7  -1   8   20.50    0.82
   7   1  -7    7.63    0.37
  -7   1   7    8.04    0.60
  -7   1   7    7.73    0.38
   7   1  -7    7.74    0.46
  -7   1   7    8.03    0.54
   7   1  -7    9.30    0.87
   7  -1  -7    8.06    0.58
  -7  -1   7    9.22    0.43
   7  -1  -7    8.04    0.71
  -7  -1   7    8.23    0.40
   7   1  -6   14.48    0.80
  -7   1   6   13.69    0.62
   7   1  -6   13.79    0.56
  -7   1   6   13.25    0.69
   7   1  -6   14.37    0.66
  -7   1   6   14.09    0.74
   7  -1  -6   14.93    0.82
   7  -1  -6   13.93    0.75
  -7  -1   6   14.58    0.57
  -7  -1   6   13.90    0.58
  -7   1   5    5.57    0.45
  -7   1   5    4.86    0.33
  -7   1   5    4.96    0.24
   7   1  -5    5.46    0.37
   7   1  -5    4.91    0.23
   7  -1  -5    5.19    0.44
  -7  -1   5    4.86    0.24
   7  -1  -5    5.24    0.47
  -7  -1   5    4.90    0.26
  -7  -1   5    4.42    0.34
   7   1  -4    1.29    0.19
  -7   1   4    0.97    0.19
   7   1  -4    1.32    0.18
  -7   1   4    1.04    0.14
  -7   1   4    1.10    0.15
  -7   1   4    1.31    0.13
   7  -1  -4    1.33    0.23
  -7  -1   4    1.12    0.15
   7  -1  -4    1.48    0.25
  -7  -1   4    1.34    0.15
  -7   1   3  101.20    3.70
  -7   1   3  101.67    3.73
  -7   1   3   98.20    3.74
   7   1  -3   99.88    3.72
   7  -1  -3   99.52    3.75
  -7  -1   3  100.27    3.71
  -7  -1   3  103.70    3.75
   7  -1  -3   98.29    3.79
  -7   1   2   76.09    2.91
   7   1  -2   79.49    2.93
   7  -1  -2   77.89    2.94
  -7  -1   2   81.72    2.93
  -7   1   1  257.43    9.26
   7   1  -1  250.35    9.28
   7  -1  -1  257.40    9.27
  -7  -1   1  252.15    9.29
   7  -1  -1  243.02    9.46
   7  -1  -1  257.52    9.29
  -7   1   0  494.18   18.21
  -7   1   0  500.58   18.18
  -7   1  -1   10.11    0.39
  -7   1  -1    9.57    0.43
   7   1   1    7.73    0.43
   7   1   1    9.26    0.37
   7   1   1    8.93    0.43
   7  -1   1   10.05    0.40
  -7  -1  -1    8.64    0.38
   7  -1   1    8.77    0.42
   7  -1   1   10.01    0.45
  -7   1  -2  118.33    4.23
   7   1   2  112.88    4.26
   7   1   2  112.49    4.22
  -7   1  -2  116.82    4.25
  -7   1  -2  114.29    4.26
   7  -1   2  114.23    4.26
  -7  -1  -2  112.87    4.23
   7  -1   2  115.27    4.24
   7  -1   2  115.90    4.28
   7   1   3   68.76    2.63
   7   1   3   70.45    2.71
  -7   1  -3   71.53    2.63
  -7   1  -3   71.15    2.67
  -7   1  -3   69.99    2.67
   7   1   3   70.01    2.67
   7  -1   3   72.50    2.71
  -7  -1  -3   70.25    2.64
   7  -1   3   72.10    2.65
  -7  -1  -3   71.71    2.68
   7  -1   3   70.18    2.66
   7   1   4   29.83    1.25
  -7   1  -4   30.11    1.21
   7   1   4   29.57    1.21
   7   1   4   29.77    1.15
  -7   1  -4   28.59    1.18
   7  -1   4   30.68    1.27
   7  -1   4   30.26    1.19
  -7  -1  -4   30.55    1.22
  -7  -1  -4   30.10    1.16
   7  -1   4   30.36    1.17
   7   1   5   13.19    0.59
  -7   1  -5   14.00    0.66
   7   1   5   12.90    0.72
  -7   1  -5   14.46    0.59
  -7  -1  -5   13.49    0.60
  -7  -1  -5   13.86    0.67
   7  -1   5   13.08    0.75
   7  -1   5   12.57    0.67
   7  -1   5   13.86    0.62
   7   1   6   29.42    1.19
  -7   1  -6   29.20    1.22
   7   1   6   28.49    1.13
   7  -1   6   25.00    1.24
   7  -1   6   28.30    1.28
  -7  -1  -6   27.07    1.13
   7  -1   6   29.27    1.14
  -7  -1  -6   28.41    1.21
   7   1   7    0.70    0.20
   7   1   7    0.53    0.22
  -7   1  -7    0.21    0.13
  -7   1  -7    0.71    0.25
   7  -1   7    0.46    0.19
   7  -1   7    1.23    0.19
  -7  -1  -7    0.68    0.22
   7   1   8    1.32    0.39
   7   1   8    1.02    0.22
  -7   1  -8    1.53    0.19
   7   1   8    1.16    0.36
   7   1   8    1.57    0.33
  -7   1  -8    0.70    0.34
   7  -1   8    1.49    0.42
  -7  -1  -8    1.42    0.22
   7  -1   8    1.16    0.22
  -7  -1  -8    1.32    0.30
   7  -1   8    1.32    0.22
  -7   1  -9    1.94    0.34
   7   1   9    1.20    0.28
   7   1   9    1.61    0.24
  -7  -1  -9    1.82    0.33
   7  -1   9    1.65    0.26
   7  -1   9    1.84    0.26
  -7   1 -10    0.04    0.28
   7   1  10   -0.30    0.21
   7   1  10   -0.05    0.22
  -7  -1 -10    0.21    0.28
   7  -1  10   -0.04    0.21
   7  -1  10    0.09    0.20
   7  -1  10    0.03    0.22
   7   1  11   -0.03    0.22
   7   1  11    0.18    0.23
  -7   1 -11    0.51    0.32
  -7  -1 -11   -0.10    0.29
   7  -1  11    0.10    0.23
   7  -1  11    0.37    0.20
  -7   2  12    0.66    0.20
   7   2 -12    0.29    0.76
  -7  -2  12    0.56    0.20
   7  -2 -12    0.27    0.35
  -7   2  11    0.10    0.16
   7   2 -11   -0.10    0.41
   7  -2 -11   -0.03    0.34
   7  -2 -11    0.28    0.31
   7   2 -10   -0.50    0.40
  -7   2  10    0.01    0.15
  -7   2  10    0.05    0.33
  -7   2  10   -0.05    0.26
   7   2 -10   -0.04    0.14
   7  -2 -10   -0.02    0.31
   7  -2 -10   -0.11    0.28
  -7  -2  10    0.07    0.16
   7   2  -9    1.25    0.51
  -7   2   9    0.81    0.30
   7   2  -9    1.20    0.16
  -7   2   9    1.08    0.18
  -7   2   9    1.75    0.37
   7  -2  -9    0.98    0.37
   7  -2  -9    1.49    0.33
  -7  -2   9    1.45    0.29
  -7  -2   9    1.12    0.20
   7   2  -8    2.16    0.29
  -7   2   8    2.22    0.32
  -7   2   8    2.00    0.29
   7   2  -8    3.67    0.69
  -7  -2   8    2.06    0.32
   7  -2  -8    2.91    0.44
  -7  -2   8    2.43    0.28
   7  -2  -8    2.30    0.36
   7   2  -7   87.36    3.32
  -7   2   7   91.00    3.34
   7   2  -7   88.97    3.56
  -7   2   7   90.06    3.45
   7  -2  -7   91.24    3.54
   7  -2  -7   89.27    3.50
  -7  -2   7   90.95    3.35
  -7   2   6    0.84    0.21
  -7   2   6    0.69    0.14
   7   2  -6    0.76    0.11
   7   2  -6    1.10    0.14
  -7   2   6    0.81    0.30
   7   2  -6    0.37    0.30
   7  -2  -6    0.80    0.45
  -7  -2   6    0.78    0.20
   7  -2  -6    0.48    0.28
  -7  -2   6    0.77    0.09
  -7  -2   6    0.48    0.12
   7   2  -5   16.71    0.72
  -7   2   5   16.40    0.86
  -7   2   5   17.04    0.72
   7   2  -5   17.47    0.87
  -7   2   5   17.21    0.74
  -7   2   5   16.99    0.70
   7   2  -5   17.25    0.66
  -7  -2   5   17.34    0.68
  -7  -2   5   16.69    0.67
  -7  -2   5   17.23    0.76
   7  -2  -5   17.41    0.88
   7  -2  -5   16.65    0.85
   7   2  -4   53.41    2.03
  -7   2   4   56.90    2.08
  -7   2   4   49.56    2.28
  -7   2   4   55.69    2.08
   7   2  -4   55.86    2.16
   7   2  -4   54.58    2.06
  -7  -2   4   54.81    2.05
   7  -2  -4   56.43    2.14
  -7  -2   4   53.62    2.12
  -7  -2   4   56.12    2.04
   7  -2  -4   55.65    2.20
   7   2  -3   15.20    0.67
  -7   2   3   14.84    0.61
   7   2  -3   13.91    0.59
  -7   2   3   15.15    0.60
   7   2  -3   14.45    0.56
  -7   2   3   14.02    0.71
  -7  -2   3   15.04    0.58
   7  -2  -3   14.47    0.66
   7  -2  -3   13.70    0.75
  -7   2   2  214.41    8.04
   7   2  -2  208.56    7.97
   7   2  -2  202.90    7.99
  -7   2   2  220.85    8.00
   7   2  -2  212.51    8.04
   7  -2  -2  217.22    8.01
   7  -2  -2  248.14    8.15
   7   2  -1   50.29    1.84
   7   2  -1   47.23    1.86
   7   2  -1   48.58    1.84
   7   2  -1   51.01    1.90
  -7   2   1   49.08    1.86
   7  -2  -1   49.94    1.85
   7  -2  -1   50.19    1.87
   7  -2  -1   48.06    1.95
   7  -2  -1   50.79    1.84
  -7   2   0   16.26    0.69
   7   2   0   15.67    0.64
  -7   2   0   16.14    0.65
   7   2   0   16.06    0.63
   7  -2   0   16.95    0.64
   7  -2   0   14.72    0.66
   7  -2   0   16.65    0.76
   7   2   1   17.10    0.66
  -7   2  -1   16.82    0.68
  -7   2  -1   16.68    0.70
   7   2   1   15.70    0.70
   7   2   1   16.79    0.71
   7  -2   1   16.03    0.69
   7  -2   1   17.46    0.69
   7  -2   1   17.94    0.76
  -7   2  -2   14.24    0.61
   7   2   2   14.99    0.66
   7   2   2   14.98    0.65
  -7   2  -2   14.55    0.63
   7   2   2   13.65    0.64
   7  -2   2   14.80    0.62
   7  -2   2   14.71    0.65
   7  -2   2   14.80    0.66
  -7   2  -3   11.42    0.59
   7   2   3   11.90    0.53
  -7   2  -3   14.16    0.57
   7   2   3   11.89    0.61
   7   2   3   12.45    0.61
  -7   2  -3   11.34    0.68
   7  -2   3   11.95    0.64
   7  -2   3   14.61    0.60
   7  -2   3   11.70    0.56
  -7   2  -4   33.61    1.37
  -7   2  -4   33.98    1.37
   7   2   4   34.52    1.33
   7   2   4   32.84    1.43
  -7   2  -4   35.32    1.34
   7   2   4   34.88    1.50
  -7  -2  -4   36.52    1.56
   7  -2   4   35.12    1.38
   7  -2   4   35.58    1.37
   7  -2   4   34.26    1.45
  -7   2  -5   26.52    1.18
   7   2   5   31.51    1.29
   7   2   5   28.87    1.23
  -7   2  -5   30.59    1.25
   7  -2   5   31.53    1.23
   7  -2   5   31.64    1.24
   7  -2   5   29.89    1.34
  -7  -2  -5   32.20    1.27
  -7   2  -6    0.88    0.22
   7   2   6    0.57    0.24
   7   2   6    0.50    0.21
   7  -2   6    1.66    0.35
  -7  -2  -6    0.58    0.16
   7   2   7    1.51    0.20
   7   2   7    1.60    0.40
  -7   2  -7    1.08    0.24
   7   2   7    1.08    0.31
   7   2   7    1.94    0.37
   7  -2   7    1.75    0.40
   7  -2   7    2.02    0.23
  -7  -2  -7    1.77    0.27
   7   2   8    4.07    0.39
  -7   2  -8    3.12    0.54
   7   2   8    4.45    0.61
   7   2   8    3.44    0.48
  -7  -2  -8    4.15    0.48
   7  -2   8    4.07    0.41
  -7  -2  -8    4.17    0.46
   7  -2   8    4.23    0.51
   7  -2   8    4.23    0.38
   7   2   9    0.46    0.25
   7   2   9    0.39    0.22
  -7   2  -9    0.35    0.26
  -7  -2  -9    0.19    0.27
   7  -2   9    0.33    0.18
   7  -2   9    0.27    0.22
  -7   2 -10    0.03    0.26
   7   2  10   -0.12    0.24
   7   2  10    0.48    0.22
   7  -2  10    0.17    0.23
  -7  -2 -10    0.18    0.27
   7   2  11    0.38    0.27
   7   2  11    0.27    0.22
  -7   2 -11    0.64    0.31
  -7  -2 -11    0.40    0.27
   7  -2  11    0.48    0.19
   7  -2  11    0.80    0.32
   7   3 -12   -0.36    0.49
  -7   3  12   -0.06    0.16
   7  -3 -12   -0.02    0.27
  -7  -3  12   -0.01    0.18
   7   3 -11    0.61    0.49
  -7   3  11    0.91    0.20
   7   3 -11    1.09    0.19
   7  -3 -11    0.15    0.29
  -7  -3  11    1.22    0.22
   7  -3 -11    1.37    0.36
   7   3 -10    0.43    0.15
  -7   3  10    0.26    0.30
   7   3 -10    0.50    0.50
  -7   3  10    0.67    0.19
   7  -3 -10    0.52    0.34
   7  -3 -10    0.61    0.28
  -7  -3  10    0.70    0.21
   7   3  -9    1.76    0.24
  -7   3   9    1.12    0.23
  -7   3   9    1.19    0.28
  -7   3   9    0.98    0.41
   7   3  -9    1.91    0.54
  -7  -3   9    1.34    0.33
  -7  -3   9    1.52    0.20
   7  -3  -9    1.96    0.38
   7  -3  -9    1.59    0.34
  -7   3   8    5.37    0.67
   7   3  -8    5.14    0.31
  -7   3   8    5.14    0.49
   7   3  -8    6.22    0.84
  -7   3   8    5.22    0.37
  -7  -3   8    4.40    0.59
   7  -3  -8    4.90    0.78
   7  -3  -8    5.14    0.54
  -7   3   7    0.48    0.22
  -7   3   7    0.69    0.39
  -7   3   7    0.69    0.18
   7   3  -7    0.48    0.38
   7   3  -7    0.45    0.26
  -7  -3   7    0.68    0.16
   7  -3  -7    0.31    0.24
   7  -3  -7    0.85    0.31
   7   3  -6  101.62    3.88
  -7   3   6  100.47    3.73
  -7   3   6   97.44    3.73
   7   3  -6   96.90    3.66
   7  -3  -6   99.95    3.90
   7  -3  -6   96.73    3.76
  -7  -3   6  100.12    3.69
  -7   3   5    9.67    0.51
   7   3  -5    8.73    0.70
  -7   3   5    9.68    0.48
   7   3  -5    9.98    0.44
  -7   3   5    9.94    0.52
  -7  -3   5    9.64    0.48
  -7  -3   5   10.18    0.54
   7  -3  -5    9.44    0.70
   7  -3  -5   10.01    0.58
   7   3  -4   18.76    0.72
   7   3  -4   18.31    0.87
   7   3  -4   18.97    0.72
  -7   3   4   17.24    0.73
   7  -3  -4   17.87    0.99
   7  -3  -4   17.65    0.81
  -7  -3   4   18.06    0.75
   7   3  -3    4.94    0.28
   7   3  -3    5.56    0.39
  -7   3   3    4.15    0.46
  -7   3   3    5.11    0.32
   7   3  -3    5.82    0.28
   7  -3  -3    7.33    0.72
   7  -3  -3    5.44    0.36
  -7  -3   3    5.39    0.29
  -7   3   2   50.56    1.98
   7   3  -2   49.69    1.88
  -7   3   2   51.67    1.92
   7   3  -2   48.15    1.89
   7   3  -2   50.45    1.95
   7  -3  -2   50.47    2.04
  -7   3   1    5.58    0.32
   7   3  -1    5.45    0.43
   7   3  -1    5.70    0.34
   7   3  -1    5.57    0.29
   7  -3  -1    5.31    0.51
   7  -3  -1    5.45    0.32
   7   3   0   70.28    2.58
   7   3   0   69.73    2.62
  -7   3   0   70.05    2.59
  -7   3   0   63.91    2.61
   7   3   0   67.86    2.60
   7   3   0   75.65    2.63
   7   3   0   64.63    2.59
   7  -3   0   68.75    2.60
   7  -3   0   68.25    2.69
   7   3   1    2.90    0.25
   7   3   1    3.53    0.41
  -7   3  -1    3.57    0.32
   7   3   1    3.11    0.26
   7   3   1    3.73    0.33
   7   3   1    3.18    0.33
   7  -3   1    3.89    0.47
   7  -3   1    3.43    0.30
   7  -3   1    3.76    0.29
  -7   3  -2    2.58    0.28
  -7   3  -2    2.53    0.30
   7   3   2    2.77    0.36
   7   3   2    2.87    0.27
   7   3   2    3.83    0.42
   7   3   2    3.05    0.31
   7  -3   2    3.58    0.46
   7  -3   2    3.10    0.35
   7   3   3   37.62    1.53
   7   3   3   37.24    1.61
  -7   3  -3   38.23    1.47
   7   3   3   36.30    1.53
  -7   3  -3   37.57    1.47
  -7   3  -3   37.48    1.44
   7   3   3   37.46    1.45
   7  -3   3   38.27    1.49
   7  -3   3   36.27    1.52
   7  -3   3   38.87    1.53
   7   3   4   25.19    1.13
   7   3   4   25.00    1.12
  -7   3  -4   26.36    1.19
  -7   3  -4   26.89    1.03
   7   3   4   23.86    1.06
   7  -3   4   25.72    1.06
   7  -3   4   24.78    1.09
   7  -3   4   25.23    1.14
  -7   3  -5    4.99    0.37
   7   3   5    5.23    0.52
   7   3   5    5.90    0.38
   7   3   5    5.39    0.49
  -7   3  -5    5.30    0.39
   7  -3   5    5.13    0.74
   7  -3   5    5.33    0.40
   7  -3   5    4.86    0.44
   7   3   6   13.18    0.62
  -7   3  -6   12.72    0.67
   7   3   6   13.29    1.01
   7  -3   6   13.17    0.66
   7  -3   6   12.48    0.83
  -7  -3  -6   12.89    0.68
  -7   3  -7    5.38    0.48
  -7   3  -7    5.60    0.48
   7   3   7    5.83    0.55
   7   3   7    4.40    0.66
   7   3   7    4.98    0.40
   7  -3   7    4.22    0.44
   7  -3   7    5.59    0.43
  -7  -3  -7    5.50    0.46
   7   3   8    0.17    0.21
  -7   3  -8    0.22    0.36
   7   3   8    0.43    0.19
   7  -3   8    0.22    0.35
  -7  -3  -8    0.17    0.24
   7  -3   8    0.33    0.21
   7  -3   8    0.32    0.19
   7   3   9    0.39    0.22
  -7   3  -9    0.59    0.26
   7   3   9    0.21    0.24
   7  -3   9    0.68    0.26
   7  -3   9    0.16    0.19
   7  -3   9    0.19    0.20
  -7  -3  -9    0.02    0.21
   7   3  10    0.59    0.30
   7   3  10    0.89    0.25
  -7   3 -10    1.16    0.31
   7  -3  10    0.62    0.22
   7  -3  10    0.71    0.21
  -7  -3 -10    0.65    0.30
  -7   4  11    0.20    0.22
   7   4 -11   -0.58    0.60
   7  -4 -11    0.55    0.35
  -7  -4  11    0.00    0.19
   7  -4 -11    0.17    0.22
   7   4 -10    0.29    0.51
  -7   4  10    0.50    0.27
  -7   4  10    0.55    0.19
   7   4 -10    0.56    0.16
   7  -4 -10    0.36    0.35
  -7  -4  10    0.55    0.20
   7  -4 -10    0.88    0.26
  -7   4   9   -0.07    0.22
   7   4  -9    0.28    0.17
   7   4  -9    0.16    0.46
  -7   4   9    0.30    0.20
   7  -4  -9    0.26    0.22
   7  -4  -9    0.11    0.31
  -7  -4   9    0.24    0.19
   7   4  -8    0.04    0.14
   7   4  -8   -0.10    0.39
  -7   4   8    0.18    0.20
  -7   4   8    0.11    0.17
  -7   4   8    0.15    0.21
   7  -4  -8    0.25    0.19
  -7  -4   8    0.19    0.20
   7  -4  -8    0.27    0.30
  -7  -4   8   -0.03    0.17
  -7   4   7    0.65    0.37
   7   4  -7    0.84    0.15
   7   4  -7    0.66    0.37
  -7   4   7    0.82    0.20
   7  -4  -7    0.72    0.31
   7  -4  -7    0.69    0.19
  -7  -4   7    0.65    0.17
   7   4  -6    0.35    0.32
  -7   4   6    0.15    0.44
  -7   4   6    0.27    0.15
  -7   4   6    0.38    0.20
   7   4  -6    0.45    0.13
  -7  -4   6    0.31    0.19
   7  -4  -6    0.48    0.16
   7  -4  -6   -0.30    0.48
  -7   4   5   39.48    1.51
   7   4  -5   39.27    1.71
   7   4  -5   40.73    1.56
   7  -4  -5   38.72    1.52
  -7  -4   5   39.83    1.56
   7  -4  -5   39.71    1.78
   7   4  -4   19.45    0.89
   7   4  -4   23.13    1.05
  -7  -4   4   22.63    0.92
   7  -4  -4   22.74    1.14
   7   4  -3    6.85    0.42
   7   4  -3    6.27    0.76
  -7   4   3    7.10    0.62
  -7   4   3    7.29    0.43
   7   4  -3    6.81    0.39
   7   4  -3    6.81    0.35
   7  -4  -3    6.98    0.62
  -7   4   2   20.23    0.95
   7   4  -2   19.49    0.87
   7   4  -2   18.83    0.86
   7   4  -2   18.93    0.79
  -7   4   2   19.18    0.83
   7   4  -2   17.01    0.88
   7  -4  -2   20.56    1.01
   7   4  -1   39.99    1.53
  -7   4   1   37.59    1.56
   7   4  -1   37.76    1.48
  -7   4   1   37.31    1.50
   7   4  -1   37.79    1.48
   7   4  -1   36.35    1.56
   7  -4  -1   39.00    1.51
   7  -4  -1   38.00    1.66
   7   4   0   10.95    0.58
  -7   4   0   10.48    0.55
   7   4   0   11.40    0.56
  -7   4   0   11.34    0.62
   7   4   0   11.71    0.58
   7  -4   0   11.18    0.57
   7  -4   0   12.38    1.10
   7   4   1   18.47    0.82
   7   4   1   18.61    0.80
   7   4   1   17.39    0.86
   7   4   1   18.53    0.93
   7   4   1   18.60    0.81
  -7   4  -1   19.00    0.83
   7  -4   1   17.97    0.94
   7  -4   1   18.58    0.83
   7   4   2    3.88    0.32
   7   4   2    3.64    0.33
   7   4   2    3.11    0.45
  -7   4  -2    3.45    0.33
   7  -4   2    3.44    0.47
   7  -4   2    3.91    0.34
  -7   4  -3   20.49    0.84
   7   4   3   20.06    0.91
   7   4   3   20.00    1.02
   7   4   3   19.59    0.86
   7   4   3   20.06    0.83
   7  -4   3   18.85    0.95
   7  -4   3   18.96    0.87
   7  -4   3   19.59    0.83
   7   4   4    2.65    0.37
   7   4   4    1.94    0.29
  -7   4  -4    2.58    0.27
   7   4   4    2.50    0.38
   7  -4   4    2.11    0.30
   7  -4   4    2.33    0.26
   7   4   5    5.03    0.59
   7   4   5    4.44    0.50
  -7   4  -5    5.09    0.35
  -7   4  -5    4.95    0.34
   7   4   5    4.79    0.37
  -7   4  -5    6.41    0.40
   7  -4   5    5.04    0.45
   7  -4   5    5.17    0.49
   7  -4   5    5.50    0.42
   7   4   6    7.23    0.67
   7   4   6    7.71    0.47
  -7   4  -6    6.83    0.66
   7  -4   6    6.02    0.55
   7  -4   6    7.58    0.51
   7  -4   6    6.87    0.54
  -7   4  -7    5.18    0.44
   7   4   7    4.80    0.42
   7  -4   7    4.40    0.45
   7   4   8    1.79    0.35
   7   4   8    2.14    0.27
  -7   4  -8    1.86    0.35
   7  -4   8    1.62    0.25
   7  -4   8    2.90    0.36
   7  -4   8    1.99    0.38
   7   4   9    0.30    0.25
   7   4   9    0.36    0.33
  -7   4  -9    0.42    0.24
   7  -4   9    0.52    0.22
   7  -4   9    0.37    0.23
   7  -4   9    0.39    0.20
   7   5  -9    0.27    0.44
  -7   5   9   -0.10    0.18
  -7   5   9    0.39    0.20
   7  -5  -9    0.26    0.16
   7  -5  -9    0.14    0.44
  -7  -5   9   -0.13    0.20
  -7   5   8    0.44    0.21
  -7   5   8   -0.01    0.16
   7   5  -8   -0.30    0.37
   7   5  -8    0.34    0.16
   7  -5  -8    0.35    0.14
  -7  -5   8    0.32    0.20
   7  -5  -8    0.35    0.31
  -7   5   7    0.53    0.14
  -7   5   7    0.44    0.21
   7   5  -7    0.30    0.37
   7   5  -7    0.52    0.20
  -7  -5   7    0.28    0.18
   7  -5  -7    0.39    0.12
   7  -5  -7    0.51    0.35
  -7   5   6    0.10    0.20
   7   5  -6    0.24    0.16
   7   5  -6    0.39    0.33
   7  -5  -6    0.05    0.28
  -7  -5   6    0.22    0.18
   7   5  -5    1.16    0.36
  -7   5   5    0.77    0.46
   7   5  -5    1.39    0.19
  -7   5   5    1.21    0.22
  -7  -5   5    1.40    0.22
   7  -5  -5    1.30    0.34
  -7   5   4    1.34    0.25
  -7   5   4    0.87    0.35
   7   5  -4    0.88    0.18
   7   5  -4    0.76    0.27
   7  -5  -4    1.31    0.34
   7   5  -3    8.81    0.59
   7   5  -3    7.52    0.39
   7   5  -3    7.58    0.46
   7   5  -3    7.76    0.48
   7  -5  -3    7.81    0.71
   7   5  -2   21.77    1.00
   7   5  -2   22.07    0.93
   7   5  -2   21.31    1.00
   7   5  -2   21.41    0.90
  -7   5   2   21.41    1.02
  -7   5   2   22.17    1.09
   7  -5  -2   23.09    1.17
  -7   5   1   36.56    1.61
   7   5  -1   38.57    1.67
  -7   5   1   40.83    1.65
   7   5  -1   40.04    1.56
   7   5  -1   40.72    1.57
   7   5  -1   39.67    1.60
   7   5  -1   40.30    1.57
   7  -5  -1   38.48    1.73
  -7   5   0    7.68    0.54
   7   5   0    6.65    0.43
   7   5   0    7.14    0.58
   7   5   0    6.37    0.56
  -7   5   0    6.67    0.62
   7   5   0    6.56    0.45
   7   5   0    7.13    0.44
   7  -5   0    6.82    0.47
   7  -5   0    7.51    0.62
  -7   5  -1    8.56    0.55
   7   5   1    8.32    0.51
   7   5   1    9.19    0.51
   7   5   1    9.36    0.56
   7   5   1    9.71    0.52
   7   5   1    8.69    0.65
   7   5   1    9.78    0.51
   7  -5   1    8.70    0.77
   7  -5   1    8.02    0.63
   7   5   2    4.65    0.53
  -7   5  -2    5.26    0.44
   7   5   2    4.49    0.38
   7   5   2    4.31    0.39
   7   5   2    4.26    0.37
  -7   5  -2    4.61    0.38
   7  -5   2    4.10    0.48
   7  -5   2    4.03    0.38
   7   5   3    3.88    0.37
   7   5   3    2.84    0.37
   7   5   3    3.23    0.47
  -7   5  -3    2.73    0.30
  -7   5  -3    2.81    0.31
   7  -5   3    2.85    0.35
   7  -5   3    2.67    0.34
   7   5   4    4.26    0.63
   7   5   4    4.13    0.38
   7   5   4    3.47    0.37
  -7   5  -4    3.69    0.32
   7  -5   4    3.54    0.45
   7  -5   4    4.18    0.40
   7   5   5    0.10    0.24
  -7   5  -5    0.26    0.15
   7   5   5    0.01    0.18
  -7   5  -5    0.09    0.13
   7  -5   5    0.09    0.20
   7  -5   5    0.36    0.27
  -7   5  -6    2.03    0.26
   7   5   6    2.48    0.36
   7  -5   6    2.10    0.29
   7  -5   6    1.88    0.25
   7   5   7   -0.05    0.20
  -7   5  -7    0.24    0.17
   7  -5   7    0.46    0.43
   7  -5   7    0.28    0.21
   7  -5   7    0.50    0.20
   7   5   8    0.51    0.23
   7   5   8    0.37    0.29
  -7   5  -8    0.45    0.36
   7  -5   8    0.26    0.29
   7  -5   8    0.69    0.23
  -7   6   8    0.69    0.22
   7  -6  -8    1.35    0.50
  -7  -6   8    0.64    0.22
  -7   6   7    0.46    0.24
   7   6  -7    1.01    0.46
   7  -6  -7    0.35    0.41
  -7  -6   7    0.56    0.23
  -7   6   6    0.49    0.27
   7   6  -6   -0.05    0.37
  -7  -6   6    0.24    0.21
   7  -6  -6    0.23    0.35
   7   6  -5    0.77    0.20
   7   6  -5    0.71    0.40
   7  -6  -5    0.61    0.35
   7   6  -4    2.45    0.42
   7   6  -4    2.69    0.36
   7  -6  -4    1.66    0.38
   7   6  -3    0.26    0.19
   7   6  -3    0.11    0.27
   7   6  -3    0.44    0.22
   7  -6  -3    0.11    0.29
   7   6  -2    4.70    0.36
  -7   6   2    4.42    0.64
   7   6  -2    4.02    0.34
   7   6  -2    3.67    0.51
   7   6  -2    4.82    0.43
   7   6  -2    5.03    0.50
   7  -6  -2    4.73    0.61
   7   6  -1    0.57    0.20
  -7   6   1    1.05    0.29
   7   6  -1    0.98    0.22
   7   6  -1    0.65    0.18
   7   6  -1    0.79    0.23
   7   6  -1    1.15    0.29
   7  -6  -1    1.20    0.32
   7   6   0    4.37    0.43
  -7   6   0    5.62    0.62
   7   6   0    4.52    0.41
   7   6   0    4.06    0.40
   7   6   0    4.68    0.57
   7   6   0    4.45    0.38
   7   6   1    1.00    0.23
   7   6   1    0.72    0.25
   7   6   1    0.93    0.21
   7   6   1    0.62    0.18
  -7   6  -1    0.81    0.27
   7   6   1    0.82    0.19
   7  -6   1    0.45    0.19
   7  -6   1    1.20    0.30
   7   6   2    0.24    0.17
  -7   6  -2    0.29    0.18
   7   6   2    0.03    0.21
   7   6   2    0.19    0.17
   7   6   2    0.17    0.27
   7  -6   2   -0.01    0.22
   7  -6   2    0.18    0.20
  -7   6  -3    3.68    0.35
   7   6   3    3.14    0.44
   7   6   3    3.03    0.40
   7  -6   3    2.83    0.36
   7  -6   3    3.01    0.41
   7   6   4    0.48    0.22
  -7   6  -4    0.43    0.15
   7   6   4    0.63    0.24
   7  -6   4    0.32    0.22
   7  -6   4    0.58    0.22
  -7   6  -5    2.66    0.29
   7   6   5    2.11    0.30
   7  -6   5    2.53    0.30
   7  -6   5    1.69    0.32
   7   6   6    0.56    0.28
   7  -6   6    0.60    0.26
   7   7  -4    0.02    0.14
   7   7  -4    0.27    0.34
   7  -7  -4    0.21    0.40
   7   7  -3   -0.01    0.14
   7  -7  -3    0.10    0.29
   7   7  -2    0.04    0.22
   7   7  -2    0.18    0.15
   7   7  -2   -0.04    0.29
   7   7  -2   -0.27    0.23
   7  -7  -2    0.16    0.28
   7   7  -1    0.08    0.18
   7   7  -1   -0.07    0.23
   7   7  -1    0.19    0.25
   7  -7  -1    0.43    0.29
   7   7   0   -0.27    0.27
   7   7   0    0.17    0.24
   7   7   0    0.40    0.21
   7  -7   0   -0.24    0.24
   7   7   1    0.15    0.23
   7   7   1    0.46    0.20
   7   7   1    0.25    0.24
   7  -7   1    0.35    0.26
   7   7   2    0.56    0.19
   7   7   2    0.44    0.23
  -7   7  -2    0.21    0.21
   7   7   2    0.60    0.26
   7   7   2    0.43    0.24
   7  -7   2    0.22    0.24
   7  -7   2    0.10    0.21
   8   0 -13    0.09    0.41
  -8   0  13    0.06    0.23
  -8   0  13    0.07    0.19
   8   0 -12    0.53    0.49
  -8   0  12    0.72    0.36
  -8   0  12    0.55    0.22
  -8   0  11   -0.16    0.16
   8   0 -11   -0.01    0.23
   8   0 -11   -0.03    0.41
   8   0 -10    0.65    0.25
  -8   0  10    0.08    0.23
  -8   0  10    0.04    0.15
   8   0 -10   -0.01    0.41
  -8   0  10    0.42    0.29
  -8   0   9    0.15    0.30
  -8   0   9    0.14    0.14
   8   0  -9    0.02    0.33
   8   0  -9   -0.04    0.20
  -8   0   9    0.04    0.22
  -8   0   8   21.58    1.21
   8   0  -8   27.19    1.32
   8   0  -8   27.22    1.18
  -8   0   8   28.87    1.03
  -8   0   8   25.53    1.17
   8   0  -7   -0.02    0.23
  -8   0   7    0.15    0.19
  -8   0   7    0.13    0.17
   8   0  -7    0.00    0.18
  -8   0   7    0.02    0.11
  -8   0   6   13.77    0.64
  -8   0   6   14.26    0.56
   8   0  -6   14.94    0.80
  -8   0   6   13.91    0.66
   8   0  -6   13.42    0.71
  -8   0   5    0.09    0.13
  -8   0   5   -0.01    0.09
   8   0  -5   -0.13    0.17
   8   0  -5    0.12    0.19
  -8   0   5   -0.06    0.05
   8   0  -4    8.20    0.45
  -8   0   4    7.97    0.39
  -8   0   4    7.25    0.38
   8   0  -4    7.13    0.58
   8   0  -3    0.06    0.09
  -8   0   3    0.23    0.10
  -8   0   3    0.15    0.10
  -8   0   2    1.92    0.18
   8   0  -1    0.01    0.11
   8   0   0   36.87    1.45
   8   0   0   37.34    1.40
   8   0   0   38.56    1.44
  -8   0   0   37.25    1.44
  -8   0   0   37.65    1.39
   8   0   1    0.31    0.08
   8   0   1    0.16    0.12
  -8   0  -1    0.14    0.06
  -8   0  -1    0.13    0.08
   8   0   1    0.12    0.09
   8   0   2  335.53   12.28
  -8   0  -2  330.72   12.29
   8   0   2  334.79   12.30
   8   0   2  334.38   12.24
  -8   0  -2  336.33   12.23
  -8   0  -3    0.11    0.09
   8   0   3   -0.02    0.12
  -8   0  -3    0.10    0.12
   8   0   3    0.12    0.13
   8   0   3    0.14    0.11
   8   0   4   12.62    0.56
  -8   0  -4   13.20    0.54
   8   0   4   12.63    0.60
   8   0   4   11.91    0.65
  -8   0  -5   -0.02    0.11
   8   0   5    0.34    0.19
  -8   0  -5   -0.06    0.13
   8   0   5    0.08    0.15
   8   0   5   -0.07    0.16
  -8   0  -6    2.60    0.36
  -8   0  -6    1.96    0.24
   8   0   6    2.39    0.32
   8   0   6    2.91    0.31
   8   0   7    0.32    0.20
   8   0   7    0.15    0.19
  -8   0  -7    0.00    0.22
  -8   0  -7    0.12    0.12
  -8   0  -8    9.86    0.65
   8   0   8    9.53    0.56
   8   0   8    9.23    0.68
   8   0   8    6.93    0.89
  -8   0  -8    9.13    0.53
   8   0   8    7.84    0.87
   8   0   9    0.03    0.30
   8   0   9   -0.10    0.21
  -8   0  -9    0.08    0.26
   8   0   9    0.30    0.21
   8   0  10    1.73    0.29
   8   0  10    2.40    0.31
  -8   0 -10    1.71    0.36
   8   0  11    0.00    0.23
  -8   0 -11    0.38    0.32
   8   0  11    0.01    0.23
  -8   1  13   -0.08    0.18
   8   1 -13    0.01    0.48
  -8  -1  13   -0.07    0.20
   8  -1 -13   -0.09    0.36
  -8  -1  13    0.10    0.18
   8   1 -12    0.41    0.19
   8   1 -12   -0.73    0.48
  -8   1  12   -0.14    0.19
   8  -1 -12   -0.08    0.42
  -8  -1  12    0.10    0.18
  -8  -1  12   -0.06    0.14
   8   1 -11    0.22    0.46
   8   1 -11    0.13    0.17
  -8   1  11    0.08    0.42
  -8   1  11    0.04    0.20
   8  -1 -11   -0.04    0.40
   8  -1 -11   -0.21    0.44
  -8  -1  11    0.10    0.16
  -8  -1  11    0.16    0.17
   8   1 -10   -0.23    0.40
  -8   1  10    0.27    0.15
   8   1 -10    0.25    0.19
  -8   1  10    0.13    0.26
   8   1 -10    0.03    0.16
   8  -1 -10    0.12    0.26
  -8  -1  10    0.08    0.14
  -8  -1  10    0.14    0.16
   8  -1 -10    0.38    0.39
  -8   1   9    0.04    0.13
   8   1  -9    0.21    0.17
   8   1  -9    0.37    0.15
  -8   1   9    0.43    0.26
  -8   1   9    0.37    0.24
   8  -1  -9    0.17    0.24
  -8  -1   9    0.17    0.15
   8  -1  -9    0.46    0.39
  -8  -1   9    0.24    0.18
  -8  -1   9    0.25    0.14
  -8   1   8   15.08    0.77
   8   1  -8   13.27    0.58
  -8   1   8   13.28    0.58
   8   1  -8   14.35    0.95
  -8   1   8   13.69    0.76
   8   1  -8   13.61    0.76
   8  -1  -8   14.82    0.92
  -8  -1   8   12.83    0.60
   8  -1  -8   13.65    0.80
  -8  -1   8   13.68    0.59
   8   1  -7    2.17    0.31
  -8   1   7    1.45    0.24
  -8   1   7    2.05    0.30
  -8   1   7    2.04    0.20
   8   1  -7    1.77    0.20
   8   1  -7    1.81    0.34
   8  -1  -7    1.06    0.73
  -8  -1   7    2.10    0.24
  -8  -1   7    2.11    0.21
   8  -1  -7    1.72    0.30
  -8   1   6    7.28    0.32
   8   1  -6    6.29    0.45
  -8   1   6    6.19    0.48
   8   1  -6    6.70    0.31
  -8   1   6    7.17    0.70
   8  -1  -6    7.44    0.61
  -8  -1   6    6.69    0.31
  -8  -1   6    6.80    0.34
   8  -1  -6    6.40    0.53
  -8   1   5   29.41    1.19
   8   1  -5   29.78    1.28
   8   1  -5   29.76    1.21
  -8   1   5   29.40    1.22
  -8   1   5   28.76    1.11
   8  -1  -5   30.36    1.27
  -8  -1   5   27.67    1.13
  -8  -1   5   30.17    1.11
   8  -1  -5   29.96    1.28
  -8   1   4    2.09    0.15
   8   1  -4    1.90    0.28
  -8   1   4    1.78    0.21
  -8   1   4    2.02    0.31
  -8   1   4    1.66    0.16
   8   1  -4    2.22    0.31
  -8  -1   4    1.98    0.23
  -8  -1   4    2.44    0.19
   8  -1  -4    1.84    0.23
   8  -1  -4    1.69    0.25
  -8   1   3   20.08    0.79
  -8   1   3   20.48    0.83
   8   1  -3   20.57    0.84
  -8   1   3   20.56    0.86
   8   1  -3   20.64    0.88
   8  -1  -3   20.67    0.93
  -8  -1   3   20.82    0.82
   8  -1  -3   20.55    0.86
  -8   1   2   36.08    1.43
   8   1  -2   37.65    1.45
   8   1  -2   38.00    1.42
  -8   1   2   35.25    1.38
  -8  -1   2   38.55    1.42
   8  -1  -2   37.72    1.43
   8  -1  -2   35.69    1.48
  -8   1   1    6.03    0.33
  -8   1   1    5.67    0.27
   8  -1  -1    6.27    0.31
  -8  -1   1    6.32    0.32
   8  -1  -1    5.97    0.27
   8  -1  -1    6.28    0.40
   8   1   0    1.67    0.11
  -8   1   0    1.65    0.14
   8   1   0    1.42    0.16
  -8   1   0    1.68    0.19
   8  -1   0    1.33    0.14
   8  -1   0    1.77    0.25
   8  -1   0    1.45    0.15
  -8  -1   0    1.78    0.19
  -8   1  -1   41.67    1.56
   8   1   1   40.65    1.60
   8   1   1   41.06    1.55
  -8   1  -1   43.37    1.60
   8   1   1   42.54    1.62
   8  -1   1   41.38    1.60
  -8  -1  -1   40.42    1.55
   8  -1   1   41.30    1.61
   8  -1   1   42.01    1.57
   8   1   2  105.10    3.93
  -8   1  -2  106.95    3.89
   8   1   2  105.24    3.88
  -8   1  -2  107.05    3.94
   8   1   2  103.19    3.96
   8  -1   2  104.34    3.95
   8  -1   2  102.99    3.98
   8  -1   2  107.83    3.94
  -8  -1  -2  106.59    3.90
   8   1   3    7.95    0.37
  -8   1  -3    7.86    0.43
   8   1   3    7.65    0.44
  -8   1  -3    7.97    0.36
   8   1   3    7.94    0.43
  -8   1  -3    7.48    0.40
   8  -1   3    7.98    0.43
  -8  -1  -3    8.08    0.37
   8  -1   3    8.49    0.46
   8  -1   3    7.66    0.39
  -8   1  -4   15.89    0.71
  -8   1  -4   16.29    0.67
   8   1   4   16.11    0.67
  -8  -1  -4   14.76    0.70
   8  -1   4   16.16    0.68
   8  -1   4   16.80    0.82
   8  -1   4   16.19    0.71
  -8  -1  -4   15.96    0.88
   8   1   5    1.73    0.22
  -8   1  -5    1.36    0.16
  -8   1  -5    0.99    0.25
   8   1   5    1.29    0.25
  -8  -1  -5    1.32    0.16
   8  -1   5    1.46    0.35
   8  -1   5    2.31    0.31
   8  -1   5    1.72    0.20
  -8  -1  -5    1.62    0.23
  -8   1  -6   11.27    0.62
   8   1   6   11.20    0.55
   8   1   6   11.57    0.62
  -8  -1  -6   11.27    0.63
   8  -1   6   10.67    0.58
   8  -1   6   11.57    0.56
   8   1   7    5.32    0.47
   8   1   7    5.61    0.41
  -8   1  -7    5.41    0.51
   8  -1   7    6.58    0.69
  -8  -1  -7    4.08    0.35
   8  -1   7    5.78    0.43
   8  -1   7    5.01    0.40
  -8  -1  -7    6.31    0.72
   8   1   8    0.31    0.20
   8   1   8    0.32    0.22
   8   1   8    0.54    0.29
  -8   1  -8    0.16    0.19
  -8   1  -8    0.44    0.25
   8  -1   8    0.32    0.19
  -8  -1  -8    0.06    0.17
   8  -1   8    0.07    0.32
  -8  -1  -8   -0.04    0.24
   8  -1   8    0.38    0.20
  -8   1  -9    0.73    0.29
   8   1   9    0.77    0.23
   8   1   9    0.64    0.24
   8  -1   9    0.97    0.26
  -8  -1  -9    0.91    0.31
   8  -1   9    0.68    0.23
   8  -1   9    1.28    0.23
   8   1  10    0.93    0.28
   8   1  10    1.06    0.26
  -8   1 -10    0.95    0.32
   8  -1  10    0.92    0.25
  -8  -1 -10    0.78    0.29
   8  -1  10    1.45    0.24
   8  -1  11    0.22    0.24
   8   2 -12    0.72    0.62
  -8   2  12    0.68    0.20
   8  -2 -12    0.73    0.37
   8  -2 -12    0.80    0.32
  -8  -2  12    0.66    0.20
   8   2 -11   -0.03    0.17
  -8   2  11    0.00    0.17
   8   2 -11   -0.42    0.47
  -8  -2  11    0.02    0.18
   8  -2 -11    0.03    0.27
   8  -2 -11    0.00    0.34
   8   2 -10    0.15    0.14
   8   2 -10   -0.23    0.43
  -8   2  10   -0.11    0.14
  -8   2  10    0.06    0.32
  -8   2  10    0.10    0.25
   8  -2 -10   -0.05    0.28
  -8  -2  10   -0.17    0.16
   8  -2 -10    0.21    0.33
  -8   2   9    9.20    0.46
   8   2  -9    8.79    0.44
  -8   2   9    8.77    0.94
  -8   2   9    8.77    0.65
   8  -2  -9    9.07    0.78
  -8  -2   9    8.52    0.49
  -8  -2   9    9.33    0.64
   8  -2  -9   10.02    0.73
   8   2  -8    2.64    0.24
   8   2  -8    3.05    0.51
  -8   2   8    2.76    0.32
  -8   2   8    3.85    0.42
   8  -2  -8    3.00    0.38
  -8  -2   8    3.06    0.27
  -8  -2   8    2.80    0.35
   8  -2  -8    3.15    0.43
   8   2  -7   14.48    0.91
   8   2  -7   13.86    0.57
   8   2  -7   13.78    0.62
  -8   2   7   14.19    0.72
  -8   2   7   14.26    0.61
   8  -2  -7   13.56    0.85
   8  -2  -7   14.04    0.86
  -8  -2   7   14.11    0.61
  -8  -2   7   14.22    0.56
   8   2  -6    4.14    0.22
  -8   2   6    3.16    0.30
  -8   2   6    5.22    0.51
  -8   2   6    3.46    0.35
  -8   2   6    3.49    0.27
   8   2  -6    3.89    0.56
   8   2  -6    4.20    0.32
   8  -2  -6    2.98    0.37
   8  -2  -6    3.95    0.51
  -8  -2   6    3.31    0.22
  -8  -2   6    3.58    0.25
   8   2  -5    2.20    0.40
  -8   2   5    1.21    0.15
   8   2  -5    1.25    0.20
  -8   2   5    1.15    0.16
   8   2  -5    1.04    0.14
  -8   2   5    1.49    0.20
  -8   2   5    1.32    0.28
   8  -2  -5    1.38    0.30
   8  -2  -5    1.25    0.27
  -8  -2   5    1.27    0.16
  -8  -2   5    1.26    0.18
  -8  -2   5    1.21    0.20
   8   2  -4   75.23    2.88
  -8   2   4   72.65    2.79
  -8   2   4   74.79    2.86
  -8   2   4   75.40    2.79
   8   2  -4   74.82    2.79
  -8  -2   4   75.68    2.84
   8  -2  -4   75.43    2.86
  -8  -2   4   75.11    2.76
   8  -2  -4   74.83    2.93
  -8  -2   4   71.94    2.78
   8   2  -3   34.37    1.33
  -8   2   3   35.58    1.34
   8   2  -3   35.80    1.41
   8  -2  -3   34.49    1.38
   8  -2  -3   34.75    1.48
  -8  -2   3   34.13    1.34
   8   2  -2   17.69    0.72
  -8   2   2   17.30    0.78
  -8   2   2   17.14    0.71
   8   2  -2   17.68    0.67
   8   2  -2   17.62    0.76
   8  -2  -2   18.05    0.87
   8  -2  -2   18.27    0.73
   8   2  -1    4.75    0.32
   8   2  -1    6.17    0.34
  -8   2   1    4.70    0.28
  -8   2   1    6.28    0.45
   8   2  -1    4.86    0.24
   8   2  -1    4.96    0.23
   8  -2  -1    5.36    0.25
   8  -2  -1    4.84    0.27
   8  -2  -1    4.69    0.26
   8  -2  -1    5.65    0.46
   8   2   0   76.48    2.88
  -8   2   0   74.37    2.89
   8   2   0   77.33    2.83
   8   2   0   79.74    2.90
  -8   2   0   76.35    2.86
   8   2   0   77.23    2.85
   8  -2   0   75.79    2.86
   8  -2   0   76.93    2.93
  -8   2  -1   11.71    0.53
  -8   2  -1   11.20    0.50
   8   2   1   12.08    0.47
   8   2   1   11.05    0.53
   8  -2   1   11.75    0.59
   8  -2   1   11.74    0.52
   8  -2   1   11.57    0.51
   8   2   2   98.40    3.72
   8   2   2   93.18    3.66
   8   2   2  100.11    3.70
  -8   2  -2   97.91    3.65
  -8   2  -2  103.40    3.69
   8  -2   2  100.16    3.68
   8  -2   2   96.84    3.70
   8  -2   2   98.58    3.70
   8   2   3    8.40    0.59
  -8   2  -3    9.11    0.43
   8   2   3    7.56    0.47
  -8   2  -3    8.36    0.42
   8   2   3    8.63    0.40
   8  -2   3    9.10    0.52
   8  -2   3    8.72    0.43
   8  -2   3    8.66    0.49
  -8   2  -4    0.81    0.15
  -8   2  -4    0.80    0.17
  -8   2  -4    0.64    0.17
   8   2   4    0.59    0.14
   8   2   4    0.52    0.19
   8  -2   4    0.79    0.25
   8  -2   4    0.75    0.18
   8  -2   4    0.88    0.24
   8   2   5   15.78    0.67
   8   2   5   15.47    0.76
  -8   2  -5   14.74    0.72
   8  -2   5   13.90    0.81
   8  -2   5   15.38    0.85
   8  -2   5   16.51    0.71
  -8  -2  -5   14.96    0.73
   8   2   6   15.42    0.70
  -8   2  -6   15.89    0.77
   8   2   6   15.36    0.81
   8  -2   6   15.89    0.74
   8  -2   6   16.00    0.75
  -8  -2  -6   16.79    0.79
  -8   2  -7    0.41    0.15
   8   2   7   -0.30    0.22
   8   2   7    0.01    0.27
   8   2   7    0.38    0.23
   8   2   7    0.49    0.31
  -8   2  -7    0.21    0.21
  -8  -2  -7    0.76    0.23
   8  -2   7    0.44    0.20
  -8  -2  -7    0.03    0.16
   8  -2   7    0.83    0.19
   8  -2   7    1.17    0.36
  -8   2  -8    2.01    0.29
   8   2   8    1.87    0.24
   8   2   8    2.54    0.33
  -8  -2  -8    1.75    0.29
   8  -2   8    2.06    0.27
   8  -2   8    2.60    0.36
   8  -2   8    3.01    0.50
   8   2   9    0.09    0.18
   8   2   9   -0.11    0.23
  -8   2  -9   -0.32    0.22
  -8  -2  -9    0.20    0.27
   8  -2   9   -0.03    0.20
   8   2  10    0.01    0.26
   8   2  10   -0.03    0.29
  -8   2 -10   -0.28    0.25
  -8  -2 -10   -0.23    0.28
   8  -2  10    0.24    0.25
   8  -2  10    0.07    0.18
   8  -2  10    0.18    0.31
  -8   3  12   -0.06    0.18
   8   3 -12    0.17    0.48
   8  -3 -12    0.11    0.40
   8  -3 -12   -0.20    0.27
  -8  -3  12    0.27    0.19
   8   3 -11    0.00    0.14
   8   3 -11    0.49    0.54
  -8   3  11    0.40    0.20
   8  -3 -11   -0.13    0.29
  -8  -3  11   -0.28    0.17
   8  -3 -11   -0.03    0.34
  -8   3  10    1.70    0.32
   8   3 -10    1.52    0.57
   8   3 -10    1.46    0.18
  -8   3  10    1.43    0.21
   8  -3 -10    1.43    0.35
   8  -3 -10    1.44    0.38
  -8  -3  10    1.61    0.22
   8   3  -9    0.52    0.36
  -8   3   9    0.11    0.25
   8   3  -9   -0.08    0.11
  -8   3   9    0.02    0.15
  -8  -3   9   -0.12    0.15
   8  -3  -9   -0.26    0.27
   8  -3  -9    0.31    0.29
   8   3  -8    3.97    0.52
  -8   3   8    4.65    0.68
  -8   3   8    4.62    0.35
  -8   3   8    4.73    0.45
   8   3  -8    4.57    0.28
  -8  -3   8    4.76    0.47
   8  -3  -8    4.18    0.55
   8  -3  -8    4.87    0.65
  -8  -3   8    4.75    0.35
  -8   3   7    0.13    0.14
  -8   3   7    0.25    0.31
   8   3  -7   -0.11    0.29
   8   3  -7   -0.06    0.11
  -8   3   7    0.06    0.13
  -8   3   7   -0.05    0.18
   8  -3  -7   -0.09    0.24
   8  -3  -7    0.01    0.28
  -8  -3   7    0.03    0.14
  -8  -3   7    0.25    0.20
   8   3  -6    1.84    0.37
  -8   3   6    1.33    0.20
  -8   3   6    1.25    0.32
  -8   3   6    1.58    0.20
   8  -3  -6    1.79    0.33
   8  -3  -6    1.43    0.29
  -8  -3   6    1.14    0.17
   8   3  -5    3.12    0.22
  -8   3   5    2.57    0.26
  -8   3   5    2.07    0.29
   8   3  -5    3.01    0.38
   8   3  -5    3.01    0.28
   8  -3  -5    2.46    0.35
  -8  -3   5    2.75    0.30
  -8  -3   5    2.03    0.31
   8  -3  -5    2.68    0.49
  -8   3   4    2.95    0.22
   8   3  -4    2.29    0.20
   8   3  -4    2.35    0.22
   8   3  -4    2.19    0.31
   8  -3  -4    1.80    0.31
   8  -3  -4    2.65    0.27
  -8  -3   4    2.36    0.22
  -8   3   3   19.66    0.79
   8   3  -3   18.33    0.75
   8   3  -3   18.40    0.73
   8   3  -3   19.16    0.85
   8  -3  -3   17.74    1.05
   8  -3  -3   18.35    0.81
   8   3  -2   22.66    1.10
  -8   3   2   25.94    1.01
   8   3  -2   25.63    0.98
  -8   3   2   24.04    1.07
   8   3  -2   25.43    1.05
   8  -3  -2   26.72    1.19
   8  -3  -2   25.98    1.00
   8   3  -1    2.65    0.24
  -8   3   1    1.54    0.22
  -8   3   1    2.30    0.24
   8   3  -1    2.45    0.25
   8   3  -1    2.36    0.19
   8  -3  -1    1.62    0.30
   8  -3  -1    2.23    0.19
   8  -3  -1    2.34    0.22
   8   3   0   10.16    0.53
   8   3   0   11.29    0.53
  -8   3   0   10.83    0.56
  -8   3   0    9.05    0.56
   8   3   0   10.54    0.52
   8   3   0   11.15    0.48
   8   3   0    9.89    0.50
   8  -3   0   11.32    0.46
   8  -3   0   11.03    0.44
   8  -3   0   10.56    0.51
   8  -3   0   11.41    0.69
   8   3   1   79.46    2.94
  -8   3  -1   79.68    2.95
  -8   3  -1   75.56    2.96
   8   3   1   79.40    2.92
   8   3   1   78.88    2.97
   8   3   1   78.20    2.99
   8  -3   1   78.40    2.96
   8  -3   1   79.46    3.04
   8  -3   1   77.23    2.94
   8   3   2    9.64    0.51
   8   3   2    8.36    0.43
  -8   3  -2    8.89    0.47
   8   3   2    9.65    0.70
  -8   3  -2    8.58    0.45
   8  -3   2    8.25    0.65
   8  -3   2    8.83    0.60
   8  -3   2    8.70    0.51
   8   3   3   13.55    0.77
   8   3   3   13.38    0.69
  -8   3  -3   13.20    0.61
   8   3   3   12.74    0.69
  -8   3  -3   13.56    0.63
   8   3   3   13.33    0.59
   8  -3   3   13.66    0.69
   8  -3   3   13.82    0.64
   8  -3   3   13.08    0.71
   8   3   4    5.15    0.45
   8   3   4    4.97    0.35
  -8   3  -4    5.34    0.35
  -8   3  -4    5.68    0.38
   8   3   4    5.02    0.47
   8  -3   4    5.06    0.46
   8  -3   4    5.71    0.38
   8  -3   4    4.91    0.50
  -8   3  -5   35.79    1.44
   8   3   5   37.23    1.53
   8   3   5   36.01    1.40
   8   3   5   35.08    1.56
  -8   3  -5   35.68    1.45
   8  -3   5   34.87    1.54
   8  -3   5   36.86    1.57
  -8   3  -6    1.08    0.17
   8   3   6    1.03    0.30
   8   3   6    1.69    0.32
  -8   3  -6    0.95    0.21
   8   3   6    0.90    0.31
   8   3   6    0.86    0.21
   8  -3   6    0.90    0.22
   8  -3   6    1.27    0.30
   8  -3   6    1.33    0.25
   8   3   7    0.05    0.17
   8   3   7   -0.10    0.21
  -8   3  -7    0.15    0.22
   8  -3   7    0.33    0.20
  -8  -3  -7   -0.01    0.19
   8  -3   7    0.12    0.20
   8  -3   7    0.95    0.35
   8   3   8    0.78    0.22
   8   3   8    0.70    0.25
  -8   3  -8    0.73    0.25
  -8  -3  -8    0.71    0.22
   8  -3   8    0.69    0.41
   8  -3   8    0.90    0.23
   8  -3   8    1.18    0.27
   8   3   9    0.13    0.22
   8   3   9    0.12    0.27
  -8   3  -9   -0.09    0.24
  -8  -3  -9    0.36    0.27
   8  -3   9    0.06    0.20
   8  -3   9    0.19    0.22
   8   3  10    0.11    0.24
  -8   3 -10    0.13    0.26
   8  -3  10    0.17    0.20
  -8  -3 -10    0.23    0.26
   8  -3  10   -0.19    0.18
   8   4 -11   -0.24    0.47
  -8   4  11   -0.15    0.21
  -8  -4  11    0.07    0.18
   8  -4 -11    0.44    0.37
   8  -4 -11    0.12    0.22
  -8   4  10   -0.01    0.19
   8   4 -10    0.15    0.14
  -8   4  10   -0.11    0.21
   8   4 -10    0.03    0.46
   8  -4 -10   -0.30    0.21
   8  -4 -10    0.14    0.35
  -8  -4  10   -0.30    0.17
   8   4  -9    0.25    0.13
   8   4  -9    0.21    0.41
  -8   4   9    0.18    0.16
  -8   4   9    0.26    0.21
  -8  -4   9    0.23    0.18
   8  -4  -9    0.03    0.19
   8  -4  -9    0.02    0.31
   8   4  -8    0.25    0.13
  -8   4   8    0.21    0.18
  -8   4   8    0.16    0.17
  -8   4   8    0.22    0.23
   8   4  -8    0.20    0.39
  -8  -4   8    0.08    0.17
   8  -4  -8    0.20    0.19
   8  -4  -8    0.15    0.31
   8   4  -7    0.53    0.13
  -8   4   7    0.68    0.20
  -8   4   7    1.05    0.55
   8   4  -7    0.97    0.53
  -8  -4   7    0.62    0.20
   8  -4  -7    0.55    0.18
  -8  -4   7    0.52    0.20
   8  -4  -7    0.68    0.34
  -8   4   6    1.13    0.22
   8   4  -6    0.77    0.28
   8   4  -6    0.95    0.15
  -8   4   6    1.13    0.16
  -8   4   6    0.75    0.33
   8  -4  -6    1.04    0.18
   8  -4  -6    1.03    0.35
  -8  -4   6    1.03    0.18
  -8  -4   6    1.21    0.22
  -8   4   5    2.22    0.21
   8   4  -5    1.57    0.22
   8   4  -5    2.43    0.35
  -8  -4   5    1.96    0.27
   8  -4  -5    1.95    0.23
   8  -4  -5    2.03    0.37
   8   4  -4   12.86    0.73
   8   4  -4   12.28    0.56
   8   4  -4   12.56    0.57
   8   4  -4   12.34    0.52
   8  -4  -4   12.95    0.82
  -8   4   3   21.00    1.03
   8   4  -3   21.83    0.87
   8   4  -3   21.51    0.93
   8   4  -3   22.37    0.99
   8   4  -3   21.40    0.85
   8  -4  -3   20.41    1.09
   8   4  -2    8.82    0.51
  -8   4   2    8.45    0.60
   8   4  -2    8.79    0.42
  -8   4   2    7.17    0.45
   8   4  -2    8.92    0.51
   8   4  -2    8.39    0.42
   8  -4  -2    8.70    0.67
  -8   4   1    0.13    0.13
   8   4  -1    0.13    0.17
   8   4  -1    0.55    0.13
  -8   4   1    0.15    0.22
   8   4  -1    0.11    0.17
   8   4  -1   -0.07    0.14
   8  -4  -1    0.02    0.25
   8  -4  -1    0.23    0.16
  -8   4   0   39.80    1.61
   8   4   0   39.51    1.67
   8   4   0   40.24    1.60
   8   4   0   40.10    1.59
   8   4   0   40.23    1.55
   8   4   0   39.35    1.60
   8  -4   0   40.13    1.72
   8  -4   0   40.69    1.60
   8   4   1   24.19    1.00
   8   4   1   24.30    1.07
  -8   4  -1   25.03    1.05
   8   4   1   25.03    1.02
   8   4   1   23.30    1.14
   8   4   1   24.91    1.06
   8  -4   1   25.83    1.05
   8  -4   1   23.73    1.16
   8   4   2    5.35    0.51
   8   4   2    5.69    0.42
   8   4   2    5.51    0.40
   8   4   2    5.61    0.45
   8   4   2    4.82    0.35
  -8   4  -2    5.20    0.38
   8  -4   2    5.62    0.55
   8  -4   2    5.22    0.38
   8   4   3    2.44    0.35
   8   4   3    2.09    0.27
   8   4   3    2.95    0.29
   8   4   3    2.97    0.38
  -8   4  -3    2.25    0.33
   8   4   3    2.22    0.29
  -8   4  -3    2.80    0.31
   8  -4   3    2.68    0.35
   8  -4   3    2.64    0.32
   8  -4   3    3.33    0.32
   8   4   4    6.03    0.64
   8   4   4    5.49    0.63
  -8   4  -4    6.85    0.50
   8   4   4    6.06    0.38
   8   4   4    6.09    0.49
   8  -4   4    6.02    0.53
   8  -4   4    5.77    0.45
   8   4   5    0.20    0.28
   8   4   5    0.34    0.24
   8   4   5    0.17    0.24
  -8   4  -5    0.10    0.14
  -8   4  -5   -0.13    0.18
  -8   4  -5   -0.01    0.13
   8   4   5    0.00    0.20
   8  -4   5    0.08    0.17
   8  -4   5    0.06    0.23
  -8   4  -6    0.05    0.17
   8   4   6    0.30    0.18
   8   4   6    0.19    0.26
   8  -4   6    0.49    0.26
   8  -4   6    0.17    0.20
   8  -4   6    0.46    0.25
   8   4   7    5.92    0.61
  -8   4  -7    5.50    0.44
   8   4   7    4.91    0.45
   8  -4   7    5.17    0.52
   8  -4   7    4.59    0.47
  -8   4  -8    0.59    0.23
   8   4   8    0.50    0.31
   8   4   8    0.69    0.23
   8  -4   8    0.66    0.25
   8  -4   8    0.33    0.27
   8  -4   8    0.69    0.33
   8   4   9    2.90    0.40
   8   4   9    3.47    0.42
  -8   4  -9    3.80    0.46
   8  -4   9    3.49    0.45
   8  -4   9    3.66    0.49
  -8   5   9    0.50    0.21
   8   5  -9    0.46    0.51
  -8   5   9    0.47    0.19
  -8  -5   9    0.57    0.21
   8  -5  -9    0.50    0.38
   8  -5  -9    0.57    0.17
   8   5  -8    0.06    0.42
   8   5  -8    0.51    0.17
  -8   5   8    0.25    0.21
  -8   5   8    0.24    0.15
  -8  -5   8    0.03    0.20
   8  -5  -8    0.44    0.33
   8  -5  -8    0.20    0.13
   8   5  -7    0.55    0.38
  -8   5   7    0.34    0.24
   8   5  -7    0.47    0.15
  -8   5   7    0.40    0.13
   8  -5  -7    0.38    0.35
  -8  -5   7    0.26    0.18
  -8   5   6    0.02    0.18
   8   5  -6    0.16    0.14
   8   5  -6   -0.03    0.33
  -8  -5   6   -0.03    0.17
   8  -5  -6   -0.36    0.25
   8   5  -5    0.88    0.17
  -8   5   5    0.53    0.21
   8   5  -5    0.84    0.31
   8  -5  -5    0.88    0.36
   8   5  -4    5.63    0.38
  -8   5   4    5.86    0.69
  -8   5   4    6.78    0.50
   8   5  -4    5.84    0.57
   8  -5  -4    6.46    0.67
   8   5  -3   29.35    1.17
   8   5  -3   27.43    1.21
  -8   5   3   28.48    1.34
   8   5  -3   28.93    1.29
  -8   5   3   34.43    1.47
   8  -5  -3   24.41    1.55
  -8   5   2   21.90    1.46
   8   5  -2   26.84    1.06
   8   5  -2   25.87    1.04
   8   5  -2   25.91    1.14
   8   5  -2   25.92    1.14
   8  -5  -2   24.97    1.28
   8   5  -1    3.58    0.35
   8   5  -1    4.00    0.34
   8   5  -1    4.24    0.34
  -8   5   1    3.84    0.51
   8   5  -1    4.04    0.46
   8   5  -1    3.64    0.38
   8  -5  -1    3.61    0.56
   8   5   0    1.61    0.22
   8   5   0    2.07    0.29
   8   5   0    1.57    0.20
   8   5   0    2.01    0.31
  -8   5   0    1.26    0.25
   8   5   0    1.60    0.23
   8  -5   0    1.79    0.33
   8   5   1    0.12    0.13
  -8   5  -1    0.04    0.17
   8   5   1   -0.13    0.18
   8   5   1    0.18    0.22
   8   5   1   -0.02    0.13
  -8   5  -1    0.03    0.17
   8   5   1   -0.12    0.17
   8  -5   1    0.01    0.17
   8  -5   1    0.22    0.25
   8   5   2    0.42    0.22
   8   5   2    0.21    0.28
  -8   5  -2    0.52    0.23
  -8   5  -2    0.22    0.17
   8   5   2    0.43    0.15
   8   5   2    0.56    0.18
   8   5   2    0.26    0.15
   8   5   2    0.38    0.18
   8  -5   2    0.26    0.20
   8  -5   2    0.03    0.23
  -8   5  -3    0.74    0.18
   8   5   3    0.54    0.18
   8   5   3    0.46    0.24
   8   5   3    0.52    0.27
   8   5   3    0.52    0.24
   8  -5   3    0.88    0.27
   8  -5   3    0.65    0.20
   8   5   4    4.58    0.49
   8   5   4    3.50    0.38
   8   5   4    4.05    0.50
  -8   5  -4    4.05    0.34
   8   5   4    3.96    0.37
   8  -5   4    3.77    0.40
   8  -5   4    3.80    0.49
  -8   5  -5    4.92    0.38
   8   5   5    4.97    0.41
   8   5   5    5.17    0.57
   8  -5   5    5.43    0.47
   8  -5   5    4.10    0.50
   8  -5   5    4.71    0.34
   8   5   6    1.18    0.23
   8   5   6    0.96    0.32
  -8   5  -6    1.03    0.17
   8  -5   6    1.44    0.28
   8  -5   6    1.06    0.25
   8  -5   6    1.39    0.22
  -8   5  -7    1.30    0.20
   8   5   7    0.75    0.23
   8   5   7    1.31    0.41
   8  -5   7    1.14    0.27
   8   6  -7    0.69    0.45
  -8   6   7    0.70    0.37
  -8  -6   7    0.20    0.21
   8  -6  -7   -0.03    0.30
   8   6  -6    0.03    0.23
   8   6  -6    0.53    0.39
  -8   6   6    0.04    0.23
   8  -6  -6    0.51    0.35
   8   6  -5    0.60    0.35
   8   6  -5    0.26    0.18
   8  -6  -5    0.88    0.37
   8   6  -4    0.85    0.21
   8   6  -4    0.48    0.31
   8  -6  -4    0.43    0.34
   8   6  -3    0.88    0.21
   8   6  -3    0.77    0.15
   8   6  -3    0.98    0.27
   8   6  -3    1.40    0.36
   8  -6  -3    0.65    0.32
   8   6  -2    4.41    0.48
   8   6  -2    4.49    0.34
   8   6  -2    4.65    0.42
   8   6  -2    4.85    0.48
   8  -6  -2    4.53    0.61
  -8   6   1   -0.07    0.35
   8   6  -1    0.33    0.22
   8   6  -1    0.30    0.25
   8   6  -1    0.36    0.17
   8   6  -1    0.15    0.17
   8   6  -1    0.30    0.20
   8  -6  -1    0.24    0.28
   8   6   0    2.61    0.35
   8   6   0    2.80    0.38
   8   6   0    2.95    0.40
  -8   6   0    3.06    0.47
   8   6   0    2.78    0.35
   8  -6   0    2.71    0.39
  -8   6  -1    1.30    0.23
   8   6   1    1.46    0.34
   8   6   1    1.24    0.25
   8   6   1    1.19    0.30
   8   6   1    1.52    0.35
   8   6   1    1.13    0.30
   8   6   1    1.42    0.34
   8  -6   1    1.36    0.26
   8  -6   1    0.97    0.31
   8   6   2    0.29    0.18
   8   6   2    0.18    0.22
   8   6   2    0.37    0.24
   8   6   2    0.28    0.19
   8  -6   2   -0.02    0.17
   8  -6   2   -0.01    0.40
   8   6   3    5.32    0.45
   8   6   3    5.19    0.43
   8   6   3    6.08    0.55
   8   6   3    5.00    0.60
   8  -6   3    5.78    0.48
   8  -6   3    4.05    0.50
  -8   6  -4    2.04    0.24
   8   6   4    2.38    0.37
   8   6   4    2.23    0.28
   8  -6   4    2.10    0.32
   8  -6   4    1.92    0.34
   8   6   5    0.97    0.25
  -8   6  -5    0.89    0.18
   8  -6   5    0.40    0.24
   8  -6   5    0.71    0.23
   8   7  -3    0.18    0.31
   8  -7  -3   -0.44    0.42
   8   7  -2    0.23    0.16
   8   7  -2    0.50    0.28
   8   7  -2   -0.06    0.34
   8   7  -2    0.38    0.20
   8  -7  -2    0.02    0.30
   8   7  -1    0.31    0.18
   8   7  -1    0.23    0.19
   8   7  -1    0.56    0.25
   8  -7  -1    0.77    0.30
   8   7   0    0.02    0.24
   8   7   0    0.28    0.20
   8   7   0    0.12    0.21
   8   7   0    0.09    0.21
   8   7   1    0.15    0.22
   8   7   1    0.03    0.18
   8   7   1    0.49    0.24
   8  -7   1    0.26    0.26
   9   0 -13   -0.19    0.44
  -9   0  13   -0.07    0.21
  -9   0  13    0.14    0.19
   9   0 -12    3.92    0.64
  -9   0  12    4.31    0.40
  -9   0  12    3.47    0.38
  -9   0  11   -0.02    0.17
   9   0 -11   -0.21    0.22
   9   0 -11   -0.22    0.41
  -9   0  10    0.10    0.15
   9   0 -10   -0.06    0.21
   9   0 -10   -0.14    0.40
  -9   0   9   -0.10    0.13
  -9   0   9    0.04    0.24
   9   0  -9    0.19    0.52
  -9   0   9   -0.11    0.19
   9   0  -9    0.09    0.35
  -9   0   8   12.65    0.64
  -9   0   8   12.99    0.71
   9   0  -8   12.17    0.71
  -9   0   8   12.25    0.54
   9   0  -8   12.58    0.90
  -9   0   7   -0.01    0.15
   9   0  -7    0.01    0.22
   9   0  -7   -0.23    0.17
  -9   0   7    0.03    0.09
  -9   0   7   -0.05    0.14
   9   0  -6    1.53    0.26
  -9   0   6    1.44    0.14
  -9   0   6    1.03    0.18
  -9   0   6    1.60    0.22
   9   0  -6    0.87    0.28
   9   0  -5   -0.01    0.19
   9   0  -5    0.13    0.20
  -9   0   5    0.03    0.11
  -9   0   5    0.03    0.12
  -9   0   4    2.41    0.24
  -9   0   4    2.22    0.24
   9   0  -4    2.66    0.30
   9   0  -4    2.65    0.28
   9   0  -3    0.71    0.14
   9   0  -3    0.45    0.17
   9   0  -2   56.15    2.15
  -9   0   2   55.79    2.13
   9   0  -2   57.17    2.15
   9   0  -1    0.21    0.12
   9   0  -1    0.18    0.09
  -9   0   1    0.30    0.13
   9   0   0   28.03    1.07
   9   0   0   28.66    1.13
  -9   0   0   28.28    1.06
  -9   0   0   28.54    1.13
   9   0   0   28.99    1.12
   9   0   1    0.23    0.13
   9   0   1    0.19    0.08
  -9   0  -1    0.23    0.07
  -9   0  -1    0.39    0.14
   9   0   1    0.18    0.10
  -9   0  -2   46.93    1.72
   9   0   2   46.04    1.73
   9   0   2   45.45    1.80
   9   0   2   45.31    1.77
  -9   0  -3    0.13    0.08
   9   0   3    0.03    0.13
   9   0   3    0.09    0.12
   9   0   3    0.06    0.13
   9   0   4   50.41    1.85
  -9   0  -4   45.51    1.97
   9   0   4   49.96    1.91
  -9   0  -4   46.74    1.86
   9   0   4   50.19    1.96
  -9   0  -5    0.33    0.18
   9   0   5    0.10    0.10
   9   0   5   -0.18    0.14
  -9   0  -5    0.12    0.11
   9   0   5    0.05    0.17
   9   0   6    2.46    0.40
   9   0   6    1.95    0.23
  -9   0  -6    2.15    0.29
   9   0   6    1.83    0.24
   9   0   7   -0.19    0.28
   9   0   7   -0.08    0.18
   9   0   7   -0.08    0.20
  -9   0  -7   -0.09    0.22
   9   0   8    0.69    0.23
  -9   0  -8    0.32    0.28
   9   0   8    0.79    0.21
   9   0   9    0.13    0.23
   9   0   9    0.18    0.18
  -9   0  -9   -0.15    0.23
   9   0  10    1.49    0.27
  -9   0 -10    1.54    0.45
   9   0  10    1.38    0.42
   9   1 -12    0.39    0.75
  -9   1  12   -0.09    0.16
   9  -1 -12    0.38    0.40
  -9  -1  12   -0.07    0.18
  -9  -1  12    0.07    0.12
   9  -1 -12    0.08    0.29
  -9   1  11    0.50    0.29
   9   1 -11    0.53    0.50
  -9   1  11    0.91    0.18
   9   1 -11    0.89    0.19
   9  -1 -11    0.49    0.47
  -9  -1  11    0.83    0.19
   9  -1 -11    0.91    0.33
  -9   1  10    1.64    0.30
  -9   1  10    1.75    0.33
   9   1 -10    1.51    0.19
  -9   1  10    1.81    0.19
   9   1 -10    1.72    0.26
   9   1 -10    1.41    0.48
  -9  -1  10    1.89    0.22
  -9  -1  10    1.38    0.17
   9  -1 -10    1.24    0.46
   9  -1 -10    2.16    0.35
  -9   1   9    0.05    0.15
   9   1  -9    0.20    0.17
   9   1  -9    0.03    0.15
  -9   1   9   -0.06    0.26
   9   1  -9   -0.01    0.40
   9  -1  -9    0.14    0.35
  -9  -1   9    0.09    0.18
  -9  -1   9    0.11    0.14
  -9  -1   9    0.27    0.13
   9  -1  -9    0.16    0.22
  -9   1   8    0.40    0.12
  -9   1   8    0.02    0.19
   9   1  -8    0.44    0.33
   9   1  -8    0.24    0.18
   9   1  -8    0.11    0.12
   9  -1  -8    0.01    0.22
   9  -1  -8    0.32    0.38
  -9  -1   8   -0.01    0.12
  -9  -1   8    0.10    0.13
  -9   1   7    0.29    0.20
   9   1  -7    0.32    0.11
  -9   1   7    0.66    0.24
  -9   1   7    0.64    0.11
   9   1  -7    0.49    0.34
   9   1  -7    0.46    0.19
  -9  -1   7    0.76    0.12
  -9  -1   7    0.53    0.13
   9  -1  -7    0.04    0.28
   9  -1  -7    0.40    0.46
   9   1  -6   25.84    1.18
  -9   1   6   25.67    0.95
  -9   1   6   24.34    1.05
   9   1  -6   24.14    1.17
  -9   1   6   24.29    1.08
   9  -1  -6   24.60    1.17
   9  -1  -6   24.42    1.15
  -9  -1   6   24.88    0.98
  -9   1   5    1.31    0.14
  -9   1   5    1.15    0.24
  -9   1   5    0.91    0.11
  -9   1   5    1.01    0.17
   9   1  -5    0.87    0.23
  -9  -1   5    0.68    0.15
   9  -1  -5    1.08    0.25
  -9  -1   5    1.21    0.18
   9  -1  -5    1.34    0.26
  -9   1   4    6.31    0.41
  -9   1   4    6.54    0.36
  -9   1   4    6.19    0.28
   9   1  -4    6.12    0.42
  -9   1   4    6.35    0.29
   9  -1  -4    6.81    0.53
   9  -1  -4    6.66    0.43
  -9  -1   4    5.94    0.38
  -9  -1   4    5.82    0.32
  -9   1   3    5.65    0.26
   9   1  -3    4.89    0.39
  -9   1   3    5.56    0.36
   9  -1  -3    5.93    0.48
  -9  -1   3    5.37    0.30
   9  -1  -3    5.51    0.35
   9   1  -2   43.68    1.68
  -9   1   2   42.18    1.68
   9   1  -2   44.36    1.70
  -9   1   2   43.75    1.63
   9  -1  -2   42.65    1.82
  -9  -1   2   45.49    1.67
  -9   1   1    0.90    0.12
   9   1  -1    0.77    0.13
  -9   1   1    1.02    0.14
   9  -1  -1    0.75    0.14
  -9  -1   1    0.81    0.13
   9  -1  -1    0.83    0.09
   9  -1  -1    1.09    0.17
   9   1   0   37.61    1.47
  -9   1   0   38.67    1.47
   9   1   0   37.75    1.46
  -9   1   0   38.02    1.42
   9   1   0   37.07    1.40
  -9  -1   0   38.10    1.48
   9  -1   0   36.29    1.49
   9  -1   0   37.60    1.43
   9  -1   0   39.65    1.46
   9   1   1   11.84    0.64
  -9   1  -1   12.16    0.51
   9   1   1   11.96    0.50
  -9   1  -1   12.92    0.57
   9   1   1   12.30    0.58
   9  -1   1   12.54    0.53
   9  -1   1   13.70    0.63
   9  -1   1   12.71    0.56
  -9  -1  -1   12.68    0.51
   9   1   2  244.47    9.01
   9   1   2  243.05    8.96
   9   1   2  243.16    9.04
  -9   1  -2  246.35    9.06
  -9   1  -2  243.64    8.96
   9  -1   2  246.35    8.98
   9  -1   2  239.01    9.03
   9  -1   2  246.74    9.01
  -9  -1  -2  247.17    8.97
  -9   1  -3   11.73    0.57
   9   1   3   12.45    0.73
  -9   1  -3   11.90    0.50
   9   1   3   11.38    0.50
   9  -1   3   11.56    0.53
   9  -1   3   11.72    0.57
  -9  -1  -3   11.59    0.51
   9  -1   3   11.36    0.66
   9   1   4   28.53    1.08
   9   1   4   27.78    1.14
  -9   1  -4   27.07    1.13
  -9   1  -4   27.93    1.07
   9  -1   4   28.13    1.10
   9  -1   4   26.90    1.19
  -9  -1  -4   25.61    1.10
   9   1   5    4.91    0.41
  -9   1  -5    4.53    0.30
   9   1   5    4.50    0.34
  -9   1  -5    5.02    0.38
   9  -1   5    4.50    0.35
  -9  -1  -5    5.02    0.32
  -9  -1  -5    4.66    0.40
   9  -1   5    4.46    0.38
   9  -1   5    4.63    0.45
   9   1   6   -0.09    0.19
  -9   1  -6    0.09    0.17
   9   1   6    0.87    0.18
   9  -1   6    0.13    0.16
  -9  -1  -6    0.12    0.20
  -9   1  -7    1.41    0.17
   9   1   7    0.83    0.25
   9   1   7    1.37    0.36
   9   1   7    0.91    0.25
  -9   1  -7    0.75    0.33
   9  -1   7    1.06    0.22
   9  -1   7    1.54    0.44
   9  -1   7    1.24    0.23
  -9  -1  -7    1.00    0.25
   9   1   8    1.21    0.26
   9   1   8    1.18    0.23
  -9   1  -8    1.03    0.27
  -9  -1  -8    0.77    0.24
   9  -1   8    1.19    0.23
   9  -1   8    1.53    0.27
  -9   1  -9    0.21    0.27
   9   1   9    0.41    0.21
   9   1   9    0.30    0.24
   9  -1   9    0.40    0.21
   9  -1   9    0.31    0.22
  -9  -1  -9    0.43    0.26
  -9   1 -10    0.04    0.36
   9   1  10    0.61    0.26
   9   1  10    0.24    0.34
   9  -1  10    0.55    0.33
   9  -1  10    0.41    0.22
  -9  -1 -10    0.60    0.29
   9   2 -12    0.09    0.49
  -9   2  12    0.19    0.18
   9   2 -12    0.22    0.17
  -9  -2  12    0.21    0.19
   9  -2 -12    0.56    0.30
   9  -2 -12    0.03    0.36
   9   2 -11    0.04    0.46
   9   2 -11    0.33    0.15
  -9   2  11    0.29    0.16
   9  -2 -11    0.46    0.33
  -9  -2  11    0.23    0.17
   9  -2 -11    0.73    0.37
   9   2 -10    0.34    0.49
  -9   2  10    0.29    0.25
  -9   2  10    0.42    0.35
  -9   2  10    0.13    0.14
   9   2 -10    0.23    0.14
   9  -2 -10    0.37    0.28
   9  -2 -10    0.30    0.34
  -9  -2  10    0.33    0.16
  -9   2   9   -0.33    0.40
  -9   2   9    0.16    0.13
   9   2  -9    0.21    0.35
   9   2  -9    0.23    0.14
  -9   2   9    0.22    0.21
   9  -2  -9    0.11    0.37
   9  -2  -9   -0.33    0.38
  -9  -2   9    0.16    0.23
  -9  -2   9    0.03    0.13
   9   2  -8    4.01    0.27
  -9   2   8    3.99    0.41
  -9   2   8    5.80    0.81
   9   2  -8    4.10    0.31
  -9   2   8    4.43    0.44
   9   2  -8    5.60    0.72
  -9  -2   8    3.51    0.50
   9  -2  -8    4.39    0.61
  -9  -2   8    4.34    0.24
   9  -2  -8    4.54    0.57
  -9  -2   8    4.12    0.29
   9   2  -7    2.62    0.30
  -9   2   7    1.94    0.25
  -9   2   7    2.18    0.33
  -9   2   7    2.84    0.25
   9   2  -7    2.27    0.20
  -9  -2   7    2.62    0.20
  -9  -2   7    2.75    0.24
   9  -2  -7    2.37    0.36
   9   2  -6    4.79    0.38
   9   2  -6    4.87    0.23
   9   2  -6    4.12    0.56
  -9   2   6    4.19    0.52
  -9   2   6    3.98    0.33
  -9   2   6    4.55    0.29
   9  -2  -6    4.03    0.55
   9  -2  -6    4.64    0.55
  -9  -2   6    4.37    0.26
  -9  -2   6    4.35    0.26
   9   2  -5    1.87    0.30
  -9   2   5    2.02    0.25
   9   2  -5    2.60    0.35
  -9   2   5    2.45    0.24
  -9   2   5    3.43    0.45
  -9   2   5    1.85    0.27
   9  -2  -5    1.89    0.31
   9  -2  -5    2.23    0.35
  -9  -2   5    2.69    0.21
  -9   2   4    3.50    0.28
  -9   2   4    3.69    0.27
   9   2  -4    3.80    0.42
  -9   2   4    4.49    0.41
   9  -2  -4    4.75    0.42
  -9  -2   4    4.06    0.26
   9  -2  -4    5.48    0.58
   9   2  -3    0.62    0.16
  -9   2   3    0.17    0.10
   9   2  -3    0.22    0.13
  -9   2   3    0.54    0.16
  -9  -2   3    0.51    0.12
   9  -2  -3    0.52    0.15
   9  -2  -3    0.41    0.25
   9   2  -2    0.65    0.13
  -9   2   2    0.32    0.10
   9   2  -2    0.59    0.13
  -9   2   2    0.54    0.15
   9  -2  -2    0.53    0.12
   9  -2  -2    0.21    0.23
  -9   2   1    4.42    0.27
   9   2  -1    4.70    0.21
   9   2  -1    4.97    0.30
   9   2  -1    4.64    0.22
  -9   2   1    4.90    0.37
   9   2  -1    4.76    0.32
   9  -2  -1    4.91    0.47
   9  -2  -1    4.49    0.26
   9  -2  -1    4.81    0.25
   9  -2  -1    4.64    0.29
  -9   2   0   14.65    0.67
   9   2   0   14.51    0.54
   9   2   0   14.04    0.62
   9   2   0   14.35    0.61
  -9   2   0   13.21    0.57
   9  -2   0   13.48    0.70
   9  -2   0   13.57    0.58
   9  -2   0   13.84    0.58
   9  -2   0   11.61    0.58
  -9   2  -1   53.63    1.98
   9   2   1   49.96    1.90
   9   2   1   50.46    1.98
  -9   2  -1   51.18    1.92
   9   2   1   50.97    1.96
   9  -2   1   51.07    1.94
   9  -2   1   50.41    2.00
   9  -2   1   50.63    1.95
   9   2   2    0.75    0.12
  -9   2  -2    0.55    0.13
  -9   2  -2    0.54    0.15
   9   2   2    0.48    0.16
   9  -2   2    0.77    0.20
   9  -2   2    1.12    0.16
   9  -2   2    1.27    0.20
   9   2   3    0.38    0.17
  -9   2  -3    0.42    0.14
  -9   2  -3    0.37    0.12
   9   2   3    0.36    0.12
   9  -2   3    0.35    0.19
   9  -2   3    0.72    0.20
   9  -2   3    0.57    0.17
   9   2   4    0.14    0.19
  -9   2  -4    0.25    0.17
  -9   2  -4    0.24    0.17
   9   2   4    0.37    0.13
   9   2   4    0.06    0.08
   9  -2   4    0.80    0.20
   9  -2   4    0.26    0.21
   9  -2   4    0.29    0.17
   9   2   5    8.66    0.46
  -9   2  -5    8.17    0.51
   9   2   5    8.69    0.56
   9  -2   5    8.79    0.49
   9  -2   5    8.86    0.52
   9  -2   5    9.60    0.64
   9   2   6    1.28    0.19
   9   2   6    1.10    0.31
   9   2   6    0.70    0.25
   9   2   6    1.77    0.31
  -9   2  -6    1.22    0.25
  -9  -2  -6    0.68    0.19
   9  -2   6    1.90    0.25
   9  -2   6    1.32    0.23
  -9   2  -7    0.32    0.20
   9   2   7    0.56    0.25
  -9   2  -7    0.37    0.16
   9   2   7    0.52    0.19
   9  -2   7    0.39    0.20
   9  -2   7    0.48    0.19
  -9  -2  -7    0.53    0.23
   9   2   8   -0.03    0.17
   9   2   8    0.10    0.22
  -9   2  -8   -0.23    0.23
   9  -2   8   -0.06    0.23
  -9  -2  -8   -0.10    0.19
   9  -2   8    0.06    0.20
   9   2   9    0.11    0.26
   9   2   9   -0.10    0.21
  -9   2  -9    0.25    0.23
   9  -2   9    0.01    0.18
  -9  -2  -9    0.08    0.27
   9  -2   9    0.09    0.22
   9   2  10    0.47    0.23
   9   2  10    0.52    0.28
  -9   2 -10    0.21    0.40
   9  -2  10    0.74    0.26
   9  -2  10    0.63    0.21
  -9  -2 -10    0.31    0.26
  -9   3  11   -0.10    0.16
   9   3 -11   -0.17    0.55
   9  -3 -11   -0.04    0.27
   9  -3 -11    0.17    0.31
   9   3 -10    2.45    0.27
  -9   3  10    2.23    0.33
  -9   3  10    2.56    0.38
  -9   3  10    3.15    0.33
   9   3 -10    3.01    0.65
  -9  -3  10    2.63    0.33
   9  -3 -10    3.60    0.49
   9  -3 -10    2.96    0.44
  -9   3   9    0.76    0.19
  -9   3   9    0.86    0.23
   9   3  -9    0.97    0.42
   9   3  -9    0.61    0.13
   9  -3  -9    0.62    0.32
   9  -3  -9    1.09    0.35
  -9  -3   9    0.83    0.20
  -9   3   8    0.90    0.16
   9   3  -8    0.65    0.35
  -9   3   8    0.52    0.21
   9   3  -8    0.88    0.22
  -9   3   8    0.91    0.35
  -9  -3   8    0.50    0.23
   9  -3  -8    0.70    0.30
  -9  -3   8    0.43    0.15
   9  -3  -8    0.21    0.29
   9   3  -7    0.32    0.30
  -9   3   7    0.40    0.18
  -9   3   7    0.88    0.19
   9   3  -7    0.56    0.11
  -9   3   7    0.49    0.16
   9  -3  -7    0.35    0.27
   9  -3  -7    0.42    0.34
  -9  -3   7    0.44    0.15
  -9   3   6    0.47    0.25
  -9   3   6    0.68    0.17
  -9   3   6    0.41    0.29
   9   3  -6    0.58    0.29
  -9   3   6    0.55    0.16
   9   3  -6    0.34    0.11
   9  -3  -6    0.40    0.27
   9  -3  -6    0.34    0.26
   9   3  -5    3.16    0.31
   9   3  -5    3.37    0.21
   9   3  -5    3.68    0.47
  -9   3   5    2.84    0.30
  -9   3   5    2.14    0.26
   9  -3  -5    2.42    0.35
  -9  -3   5    2.28    0.24
   9  -3  -5    2.88    0.42
   9   3  -4   11.20    0.44
   9   3  -4   10.87    0.62
  -9   3   4    9.80    0.64
   9   3  -4   10.76    0.48
   9  -3  -4    9.34    0.72
   9  -3  -4   10.18    0.59
   9   3  -3    0.23    0.17
  -9   3   3    0.28    0.14
  -9   3   3   -0.02    0.07
   9   3  -3    0.14    0.09
   9  -3  -3    0.35    0.26
   9  -3  -3    0.05    0.17
  -9   3   2    5.78    0.45
   9   3  -2    7.30    0.38
   9   3  -2    7.13    0.33
  -9   3   2    7.41    0.40
   9   3  -2    7.27    0.49
   9  -3  -2    7.38    0.32
   9  -3  -2    7.91    0.40
   9   3  -1   34.53    1.34
   9   3  -1   34.84    1.30
  -9   3   1   34.44    1.39
   9   3  -1   34.61    1.31
  -9   3   1   29.42    1.38
   9  -3  -1   36.41    1.32
   9  -3  -1   34.80    1.35
   9  -3  -1   33.35    1.30
   9  -3  -1   36.20    1.55
  -9   3   0    5.95    0.40
   9   3   0    5.06    0.35
   9   3   0    4.07    0.41
   9   3   0    5.66    0.36
  -9   3   0    5.76    0.39
   9   3   0    5.43    0.37
   9   3   0    5.08    0.30
   9  -3   0    4.96    0.33
   9  -3   0    6.11    0.30
   9  -3   0    4.80    0.27
   9   3   1    8.72    0.47
   9   3   1    8.31    0.54
   9   3   1    9.36    0.42
   9   3   1    8.25    0.40
  -9   3  -1    8.06    0.43
  -9   3  -1    8.10    0.47
   9  -3   1    7.60    0.43
   9  -3   1    8.26    0.44
   9   3   2   17.61    0.70
  -9   3  -2   17.17    0.74
   9   3   2   16.88    0.80
  -9   3  -2   17.21    0.76
   9   3   2   17.19    0.79
   9  -3   2   16.37    0.75
   9  -3   2   16.81    0.77
   9  -3   2   16.93    0.97
  -9   3  -3    5.25    0.38
   9   3   3    5.82    0.54
   9   3   3    5.45    0.44
   9   3   3    5.00    0.33
   9   3   3    5.39    0.43
   9  -3   3    4.84    0.46
   9  -3   3    3.98    0.48
   9  -3   3    5.26    0.38
   9   3   4    0.12    0.20
   9   3   4    0.09    0.19
  -9   3  -4    0.10    0.14
   9   3   4   -0.04    0.18
   9   3   4   -0.10    0.14
  -9   3  -4    0.10    0.13
   9  -3   4   -0.01    0.13
   9  -3   4   -0.06    0.20
   9  -3   4   -0.06    0.24
  -9   3  -5    0.38    0.18
  -9   3  -5    0.18    0.23
   9   3   5    0.12    0.23
   9   3   5    0.14    0.17
   9   3   5    0.15    0.24
   9   3   5    0.55    0.24
   9  -3   5    0.63    0.22
   9  -3   5    0.23    0.25
   9  -3   5    0.08    0.16
  -9   3  -6    7.10    0.46
   9   3   6    6.18    0.73
  -9   3  -6    6.97    0.45
   9   3   6    6.80    0.55
   9  -3   6    7.14    0.51
   9  -3   6    5.29    0.60
   9  -3   6    6.93    0.46
   9   3   7    0.27    0.26
  -9   3  -7    0.29    0.19
   9   3   7    0.35    0.18
   9  -3   7    0.40    0.22
   9  -3   7    0.34    0.23
   9   3   8    5.80    0.56
  -9   3  -8    5.48    0.49
   9   3   8    5.65    0.45
   9  -3   8    5.00    0.45
   9  -3   8    5.44    0.61
   9   3   9    0.06    0.28
  -9   3  -9    0.01    0.22
   9   3   9    0.37    0.29
   9  -3   9    0.45    0.22
   9  -3   9    0.21    0.17
  -9  -3  -9    0.14    0.24
  -9   4  10    0.09    0.17
   9   4 -10   -0.17    0.47
  -9   4  10   -0.05    0.22
   9  -4 -10    0.22    0.21
   9  -4 -10    0.32    0.45
  -9   4   9    0.50    0.21
   9   4  -9    0.21    0.13
  -9   4   9    0.16    0.17
   9   4  -9    0.27    0.40
   9  -4  -9    0.20    0.32
   9  -4  -9    0.01    0.20
  -9  -4   9   -0.16    0.17
  -9   4   8    0.20    0.18
  -9   4   8    0.22    0.18
   9   4  -8    0.11    0.12
   9   4  -8   -0.05    0.35
  -9   4   8    0.03    0.22
  -9  -4   8    0.31    0.17
   9  -4  -8    0.05    0.19
   9  -4  -8    0.18    0.31
   9   4  -7    0.41    0.13
  -9   4   7    0.71    0.26
   9   4  -7    0.31    0.38
  -9   4   7    0.65    0.18
   9  -4  -7    0.60    0.32
  -9  -4   7    0.50    0.21
  -9  -4   7    0.37    0.19
   9  -4  -7    0.32    0.19
  -9   4   6    0.48    0.13
  -9   4   6    0.36    0.17
  -9   4   6    0.19    0.22
  -9   4   6    0.14    0.30
   9   4  -6    0.80    0.37
  -9  -4   6    0.22    0.15
   9  -4  -6    0.14    0.29
   9  -4  -6    0.44    0.17
   9   4  -5    1.02    0.14
   9   4  -5    1.03    0.30
  -9   4   5    0.90    0.29
   9  -4  -5    0.61    0.46
   9  -4  -5    0.95    0.16
   9   4  -4    6.95    0.41
   9   4  -4    7.21    0.36
   9   4  -4    7.68    0.56
   9   4  -4    6.77    0.37
   9  -4  -4    7.27    0.67
  -9   4   3    6.78    0.58
   9   4  -3    7.72    0.46
   9   4  -3    7.39    0.39
   9   4  -3    7.81    0.51
   9   4  -3    7.06    0.38
   9  -4  -3    7.86    0.67
  -9   4   2    2.82    0.29
  -9   4   2    3.77    0.45
   9   4  -2    4.00    0.36
   9   4  -2    3.77    0.36
   9   4  -2    3.50    0.27
   9   4  -2    3.77    0.29
   9  -4  -2    3.89    0.55
   9   4  -1    8.85    0.57
   9   4  -1    9.60    0.50
   9   4  -1    9.67    0.53
   9   4  -1    8.71    0.48
  -9   4   1    9.35    0.57
   9   4  -1    9.46    0.45
   9  -4  -1    9.26    0.70
   9  -4  -1    8.83    0.49
   9   4   0   48.80    2.02
  -9   4   0   50.17    1.95
   9   4   0   53.00    2.08
   9   4   0   49.77    1.95
   9   4   0   49.59    1.88
   9   4   0   50.56    1.96
   9   4   0   43.17    2.00
   9  -4   0   49.31    1.94
   9  -4   0   49.53    2.07
   9   4   1    2.34    0.31
   9   4   1    1.95    0.24
   9   4   1    2.63    0.34
   9   4   1    2.30    0.27
  -9   4  -1    2.43    0.35
   9   4   1    2.38    0.31
   9   4   1    2.38    0.26
   9  -4   1    2.43    0.30
   9  -4   1    2.66    0.36
   9   4   2    0.57    0.17
  -9   4  -2    0.38    0.17
   9   4   2    0.64    0.16
   9   4   2    0.20    0.18
   9   4   2    0.50    0.23
   9   4   2    0.41    0.15
   9  -4   2    0.78    0.17
   9  -4   2    0.59    0.27
   9   4   3    0.00    0.15
   9   4   3    0.23    0.14
   9   4   3   -0.06    0.18
  -9   4  -3   -0.16    0.14
   9   4   3    0.06    0.14
   9  -4   3    0.32    0.16
   9  -4   3    0.01    0.23
   9  -4   3    0.14    0.18
  -9   4  -4    0.16    0.14
  -9   4  -4    0.05    0.15
   9   4   4    0.10    0.22
   9   4   4   -0.05    0.15
   9   4   4    0.27    0.19
   9   4   4    0.16    0.23
   9  -4   4   -0.04    0.22
   9  -4   4    0.15    0.20
   9  -4   4    0.24    0.16
   9   4   5    2.22    0.39
  -9   4  -5    1.79    0.23
   9   4   5    1.80    0.25
   9   4   5    1.50    0.29
   9  -4   5    2.05    0.28
   9  -4   5    1.87    0.30
   9  -4   5    1.31    0.29
  -9   4  -6    4.12    0.36
   9   4   6    3.86    0.40
   9   4   6    3.95    0.54
   9  -4   6    5.25    0.53
   9  -4   6    3.80    0.51
   9  -4   6    3.98    0.43
   9   4   7   21.42    0.93
   9   4   7   21.38    1.08
  -9   4  -7   20.17    0.93
   9  -4   7   18.81    1.00
   9  -4   7   20.58    0.99
   9  -4   7   20.12    1.09
   9   4   8    0.56    0.27
   9   4   8    0.17    0.29
  -9   4  -8    0.44    0.23
   9  -4   8    0.08    0.24
   9  -4   8    0.10    0.19
  -9   5   9   -0.28    0.17
   9   5  -9   -0.08    0.13
   9   5  -9   -0.76    0.48
   9  -5  -9   -0.29    0.13
   9  -5  -9    0.17    0.33
  -9  -5   9   -0.21    0.18
  -9   5   8    0.28    0.14
  -9   5   8   -0.09    0.19
   9   5  -8    0.60    0.44
   9  -5  -8    0.40    0.13
   9  -5  -8    0.26    0.37
  -9  -5   8    0.53    0.23
   9   5  -7    0.23    0.36
   9   5  -7    0.09    0.14
  -9   5   7    0.21    0.19
  -9  -5   7    0.03    0.17
   9  -5  -7    0.23    0.34
   9   5  -6    0.33    0.14
  -9   5   6    0.20    0.21
   9   5  -6    0.55    0.37
   9  -5  -6   -0.07    0.26
   9   5  -5    0.60    0.32
   9   5  -5    0.78    0.17
  -9   5   5    0.74    0.24
   9  -5  -5    0.61    0.36
   9   5  -4    0.42    0.15
  -9   5   4    0.18    0.21
   9   5  -4    0.37    0.12
   9   5  -4    0.23    0.15
   9   5  -4    0.03    0.25
   9  -5  -4    0.32    0.32
  -9   5   3    2.52    0.38
   9   5  -3    2.59    0.28
   9   5  -3    1.95    0.30
   9   5  -3    2.40    0.26
   9   5  -3    2.27    0.30
  -9   5   3    2.37    0.30
   9  -5  -3    2.88    0.43
   9   5  -2    0.30    0.15
   9   5  -2    0.15    0.15
  -9   5   2    0.13    0.25
   9   5  -2    0.33    0.20
   9   5  -2    0.22    0.23
  -9   5   2    0.24    0.21
   9  -5  -2    0.40    0.35
   9   5  -1    0.28    0.17
   9   5  -1    0.32    0.18
   9   5  -1    0.55    0.16
  -9   5   1    0.50    0.23
   9   5  -1    0.55    0.23
   9   5  -1    0.30    0.15
   9  -5  -1    0.71    0.32
   9   5   0    0.80    0.17
   9   5   0    0.40    0.17
   9   5   0    0.76    0.18
  -9   5   0    0.51    0.20
  -9   5   0    0.84    0.24
   9   5   0    0.72    0.23
   9   5   0    0.93    0.19
   9   5   0    0.48    0.17
   9  -5   0    0.47    0.28
   9  -5   0    0.34    0.17
   9   5   1   -0.23    0.17
   9   5   1    0.12    0.14
   9   5   1   -0.05    0.20
   9   5   1    0.12    0.17
  -9   5  -1    0.17    0.20
   9   5   1    0.20    0.17
   9   5   1   -0.11    0.15
  -9   5  -1    0.04    0.18
   9  -5   1    0.15    0.17
   9  -5   1   -0.11    0.24
  -9   5  -2    0.16    0.32
   9   5   2    0.20    0.33
   9   5   2   -0.17    0.15
   9   5   2    0.39    0.23
   9   5   2    0.14    0.16
  -9   5  -2    0.13    0.17
   9   5   2    0.12    0.17
   9  -5   2    0.03    0.24
   9  -5   2    0.14    0.16
   9   5   3    0.79    0.24
  -9   5  -3    0.65    0.18
   9   5   3    0.46    0.25
   9   5   3    0.96    0.20
   9   5   3    0.77    0.30
   9  -5   3    1.01    0.24
   9  -5   3    0.90    0.28
  -9   5  -4   -0.07    0.15
   9   5   4    0.04    0.17
   9   5   4   -0.02    0.23
   9  -5   4   -0.16    0.24
   9  -5   4    0.09    0.19
  -9   5  -5    3.60    0.37
   9   5   5    4.29    0.53
   9   5   5    4.27    0.39
   9  -5   5    4.09    0.44
   9  -5   5    3.05    0.32
   9  -5   5    3.57    0.41
   9   5   6    4.55    0.42
   9   5   6    4.93    0.69
   9  -5   6    3.53    0.50
   9  -5   6    3.40    0.58
   9  -5   6    4.00    0.40
   9   5   7    0.52    0.36
   9   5   7    0.89    0.33
   9  -5   7    0.29    0.26
   9  -5   7    0.71    0.25
  -9   6   7    1.29    0.44
   9   6  -7    0.60    0.45
   9  -6  -7    0.64    0.38
  -9   6   6    1.06    0.26
   9   6  -6    1.10    0.44
   9   6  -6    0.76    0.20
   9  -6  -6    0.73    0.45
   9   6  -5    0.26    0.33
   9   6  -5    0.04    0.18
   9  -6  -5    0.53    0.34
   9   6  -4   -0.03    0.24
   9   6  -4    0.07    0.30
   9  -6  -4    0.28    0.30
   9   6  -3    1.85    0.32
   9   6  -3    1.62    0.32
   9   6  -3    1.07    0.19
   9   6  -3    1.20    0.16
   9   6  -3    1.72    0.26
   9  -6  -3    1.72    0.40
   9   6  -2    0.05    0.13
   9   6  -2    0.27    0.25
   9   6  -2    0.04    0.18
   9   6  -2    0.19    0.20
   9   6  -2   -0.06    0.19
   9  -6  -2    0.15    0.28
   9   6  -1    1.63    0.23
   9   6  -1    1.90    0.23
   9   6  -1    2.45    0.34
   9   6  -1    1.85    0.23
   9   6  -1    1.63    0.27
   9  -6  -1    1.99    0.37
   9   6   0    2.84    0.37
   9   6   0    2.35    0.29
   9   6   0    2.71    0.36
   9   6   0    2.44    0.34
   9   6   0    2.26    0.33
   9  -6   0    2.52    0.40
   9   6   1    2.72    0.44
   9   6   1    2.10    0.27
   9   6   1    2.06    0.28
   9   6   1    1.79    0.26
  -9   6  -1    1.45    0.29
   9   6   1    1.95    0.25
   9  -6   1    1.80    0.34
   9  -6   1    1.91    0.29
   9   6   2    0.37    0.19
   9   6   2    0.16    0.22
  -9   6  -2    0.24    0.18
   9   6   2    0.24    0.20
   9  -6   2    0.28    0.20
   9  -6   2    0.12    0.23
   9   6   3   -0.02    0.19
   9   6   3    0.01    0.18
  -9   6  -3   -0.06    0.15
   9   6   3    0.26    0.25
   9  -6   3    0.17    0.20
   9  -6   3   -0.16    0.21
  -9   6  -4    1.10    0.20
   9   6   4    0.98    0.21
   9   6   4    1.34    0.30
   9  -6   4    0.89    0.25
   9  -6   4    1.10    0.28
   9   7  -1    0.14    0.27
   9   7  -1   -0.15    0.21
   9  -7  -1   -0.44    0.25
 -10   0  12    1.97    0.33
  10   0 -12    0.98    0.54
  10   0 -12    1.44    0.31
 -10   0  11   -0.07    0.15
  10   0 -11   -0.28    0.20
  10   0 -11    0.01    0.45
  10   0 -10   -0.05    0.36
 -10   0  10   -0.18    0.25
  10   0 -10    0.14    0.22
 -10   0   9   -0.08    0.12
 -10   0   9    0.09    0.18
 -10   0   9    0.04    0.21
  10   0  -9    0.08    0.41
  10   0  -9    0.33    0.22
 -10   0   8   30.53    1.10
  10   0  -8   26.16    1.27
 -10   0   8   27.86    1.24
 -10   0   8   26.04    1.15
  10   0  -8   28.44    1.40
 -10   0   7    0.00    0.17
 -10   0   7    0.00    0.09
  10   0  -7    0.02    0.27
  10   0  -7    0.07    0.21
 -10   0   7    0.02    0.15
  10   0  -6    3.47    0.45
  10   0  -6    3.50    0.47
 -10   0   6    3.05    0.32
 -10   0   5    0.02    0.13
  10   0  -5   -0.13    0.20
 -10   0   5   -0.01    0.13
  10   0  -5    0.16    0.22
 -10   0   4   30.85    1.24
  10   0  -4   32.59    1.32
  10   0  -4   31.47    1.33
 -10   0   3    0.01    0.11
  10   0  -3    0.03    0.11
  10   0  -3    0.04    0.18
  10   0  -2  160.42    5.99
 -10   0   2  162.48    5.97
  10   0  -2  161.26    5.99
  10   0  -1    0.02    0.09
  10   0  -1    0.22    0.14
 -10   0   1    0.08    0.10
 -10   0   0   25.38    0.97
  10   0   0   26.63    1.05
  10   0   0   25.79    0.98
  10   0   0   25.81    1.06
  10   0   1   -0.01    0.14
 -10   0  -1    0.11    0.11
 -10   0  -1    0.11    0.07
  10   0   1    0.30    0.09
  10   0   1    0.29    0.15
  10   0   2   51.66    2.12
 -10   0  -2   55.60    2.04
 -10   0  -2   56.19    2.13
  10   0   2   56.67    2.08
  10   0   2   53.52    2.13
 -10   0  -3   -0.02    0.10
  10   0   3   -0.01    0.11
  10   0   3    0.04    0.14
  10   0   3    0.10    0.16
 -10   0  -4  164.59    6.03
  10   0   4  166.73    6.08
  10   0   4  159.03    6.03
  10   0   5    0.25    0.19
  10   0   5   -0.02    0.14
 -10   0  -5    0.15    0.11
 -10   0  -5   -0.13    0.13
 -10   0  -6    0.11    0.17
  10   0   6   -0.30    0.17
  10   0   6   -0.02    0.16
 -10   0  -7   -0.02    0.15
  10   0   7   -0.07    0.29
  10   0   7   -0.03    0.19
  10   0   7   -0.01    0.21
 -10   0  -7    0.16    0.21
  10   0   8    2.01    0.29
  10   0   8    1.80    0.25
 -10   0  -8    1.73    0.30
 -10   0  -9    0.07    0.23
  10   0   9    0.12    0.18
  10   0   9    0.11    0.22
 -10   0 -10    1.21    0.32
  10   0  10    1.97    0.29
  10   0  10    2.04    0.33
  10   1 -12    0.44    0.47
 -10   1  12    0.16    0.17
 -10  -1  12    0.17    0.12
  10  -1 -12    0.34    0.44
  10  -1 -12   -0.11    0.28
 -10   1  11    0.78    0.17
  10   1 -11    1.16    0.54
  10   1 -11    0.98    0.23
 -10   1  11    0.59    0.26
  10  -1 -11    0.65    0.41
 -10  -1  11    0.77    0.18
  10  -1 -11    1.09    0.31
 -10  -1  11    0.58    0.13
  10   1 -10    3.22    0.38
  10   1 -10    2.86    0.57
 -10   1  10    3.19    0.30
 -10  -1  10    3.55    0.31
  10  -1 -10    2.94    0.51
  10  -1 -10    3.99    0.53
 -10   1   9    0.15    0.24
 -10   1   9    0.02    0.12
  10   1  -9    0.21    0.33
  10   1  -9    0.17    0.19
  10  -1  -9    0.06    0.24
 -10  -1   9    0.19    0.13
 -10  -1   9   -0.01    0.11
 -10  -1   9    0.11    0.22
  10  -1  -9    0.06    0.37
  10   1  -8    0.51    0.38
 -10   1   8    0.30    0.21
 -10   1   8    0.37    0.11
  10   1  -8   -0.10    0.18
  10  -1  -8   -0.01    0.23
 -10  -1   8    0.13    0.12
  10  -1  -8    0.48    0.31
 -10  -1   8    0.29    0.14
 -10   1   7    4.47    0.40
  10   1  -7    4.28    0.44
 -10   1   7    4.14    0.41
  10   1  -7    4.61    0.56
 -10   1   7    4.22    0.31
  10  -1  -7    4.06    0.52
  10  -1  -7    4.15    0.58
 -10  -1   7    4.45    0.30
  10   1  -6   11.70    0.72
  10   1  -6   11.46    0.65
 -10   1   6   10.38    0.57
 -10   1   6   11.11    0.46
 -10   1   6   11.66    0.49
 -10   1   6   10.83    0.60
  10  -1  -6   10.80    0.80
 -10  -1   6   10.77    0.51
 -10   1   5    3.95    0.37
  10   1  -5    4.50    0.43
  10   1  -5    3.89    0.43
 -10   1   5    4.01    0.21
 -10   1   5    4.06    0.24
 -10   1   5    3.40    0.32
  10  -1  -5    3.82    0.44
 -10  -1   5    4.08    0.28
  10  -1  -5    4.15    0.50
 -10   1   4    3.98    0.34
  10   1  -4    2.70    0.33
  10   1  -4    3.30    0.37
 -10   1   4    2.95    0.18
 -10   1   4    3.49    0.20
 -10  -1   4    3.34    0.26
  10  -1  -4    3.88    0.49
  10  -1  -4    3.17    0.35
  10   1  -3    1.28    0.20
  10   1  -3    1.22    0.19
 -10  -1   3    1.26    0.15
  10  -1  -3    1.91    0.27
  10  -1  -3    1.79    0.25
  10   1  -2    2.35    0.25
 -10   1   2    3.02    0.32
 -10   1   2    2.67    0.16
  10   1  -2    2.36    0.26
  10  -1  -2    2.52    0.28
 -10  -1   2    1.90    0.22
  10  -1  -2    2.35    0.23
  10   1  -1   63.26    2.44
  10   1  -1   63.16    2.41
 -10   1   1   61.52    2.36
 -10   1   1   68.30    2.48
  10  -1  -1   63.68    2.37
 -10  -1   1   64.81    2.42
  10  -1  -1   61.84    2.41
 -10   1   0   73.34    2.77
  10   1   0   77.35    2.85
  10   1   0   73.64    2.76
  10   1   0   74.29    2.83
 -10   1   0   76.97    2.84
  10  -1   0   76.31    2.83
  10  -1   0   74.73    2.79
  10  -1   0   73.98    2.85
  10   1   1    1.16    0.12
  10   1   1    1.26    0.19
 -10   1  -1    1.52    0.26
  10   1   1    1.38    0.18
  10  -1   1    1.20    0.16
  10  -1   1    0.79    0.14
 -10  -1  -1    1.49    0.14
  10  -1   1    1.30    0.20
 -10   1  -2   15.13    0.70
 -10   1  -2   15.62    0.63
  10  -1   2   15.35    0.71
 -10  -1  -2   15.76    0.64
  10  -1   2   14.75    0.82
  10  -1   2   16.48    0.66
 -10   1  -3    2.75    0.35
  10   1   3    2.21    0.31
 -10   1  -3    2.10    0.30
  10   1   3    1.55    0.23
 -10  -1  -3    1.75    0.22
  10  -1   3    2.13    0.29
  10  -1   3    2.16    0.25
  10  -1   3    2.12    0.32
  10   1   4   40.72    1.56
 -10   1  -4   40.48    1.55
  10   1   4   41.43    1.63
 -10   1  -4   39.70    1.62
  10  -1   4   40.29    1.62
 -10  -1  -4   41.45    1.57
  10  -1   4   40.46    1.68
 -10   1  -5    5.36    0.40
  10   1   5    5.49    0.43
  10   1   5    4.77    0.36
  10  -1   5    5.09    0.37
  10  -1   5    5.29    0.41
 -10  -1  -5    5.00    0.33
  10   1   6    4.08    0.59
  10   1   6    4.44    0.38
 -10   1  -6    4.57    0.42
  10   1   6    5.45    0.56
  10  -1   6    5.95    0.44
  10  -1   6    4.49    0.38
  10  -1   6    4.34    0.54
 -10  -1  -6    4.48    0.49
  10   1   7    0.41    0.22
  10   1   7    0.31    0.19
 -10   1  -7    0.64    0.16
 -10   1  -7    0.20    0.19
 -10  -1  -7    0.64    0.18
  10  -1   7    0.79    0.34
  10  -1   7    0.98    0.34
 -10  -1  -7    0.64    0.21
  10  -1   7    0.55    0.21
 -10   1  -8    0.03    0.21
  10   1   8   -0.07    0.19
  10   1   8   -0.03    0.22
 -10  -1  -8    0.21    0.22
  10  -1   8    0.30    0.20
  10  -1   8    0.12    0.20
  10   1   9    2.65    0.34
 -10   1  -9    2.13    0.31
  10   1   9    2.71    0.31
  10  -1   9    3.54    0.42
 -10  -1  -9    3.49    0.50
  10  -1   9    2.39    0.30
  10   1  10    0.09    0.25
 -10   1 -10    0.25    0.26
  10   1  10    0.25    0.23
  10  -1  10   -0.16    0.22
 -10  -1 -10    0.44    0.32
  10  -1  10    0.36    0.22
 -10   2  12    0.22    0.18
  10   2 -12    0.34    0.17
  10   2 -12    0.10    0.51
  10  -2 -12    0.33    0.39
  10  -2 -12    0.75    0.34
 -10  -2  12    0.27    0.18
  10   2 -11   -0.04    0.15
 -10   2  11    0.25    0.16
  10   2 -11   -0.06    0.43
  10  -2 -11    0.07    0.37
 -10  -2  11    0.01    0.15
  10   2 -10    0.27    0.14
 -10   2  10    0.31    0.14
  10   2 -10    0.66    0.43
  10  -2 -10    0.45    0.38
  10  -2 -10    0.49    0.28
  10   2  -9    0.10    0.44
 -10   2   9    0.37    0.14
  10   2  -9    0.09    0.13
 -10   2   9    0.04    0.29
  10   2  -9    0.26    0.13
  10  -2  -9    0.40    0.27
 -10  -2   9    0.51    0.14
  10  -2  -9    0.20    0.31
 -10  -2   9    0.42    0.09
  10   2  -8    3.46    0.32
 -10   2   8    3.84    0.57
 -10   2   8    3.64    0.41
 -10   2   8    3.72    0.35
 -10   2   8    2.97    0.28
  10   2  -8    3.96    0.25
  10  -2  -8    3.88    0.56
 -10  -2   8    3.04    0.41
 -10  -2   8    3.38    0.30
 -10  -2   8    3.52    0.23
  10  -2  -8    3.60    0.49
  10   2  -7    0.38    0.10
 -10   2   7    0.30    0.17
  10   2  -7    0.59    0.18
  10   2  -7    0.65    0.36
 -10   2   7    0.48    0.13
  10  -2  -7    0.21    0.29
  10  -2  -7    0.43    0.32
 -10  -2   7    0.40    0.10
  10   2  -6    1.73    0.25
 -10   2   6    1.44    0.15
 -10   2   6    0.94    0.20
  10   2  -6    1.73    0.33
 -10   2   6    1.18    0.17
  10  -2  -6    1.15    0.34
  10  -2  -6    1.57    0.33
 -10  -2   6    1.55    0.21
 -10   2   5    1.29    0.17
 -10   2   5    1.32    0.17
 -10   2   5    1.11    0.19
  10   2  -5    1.35    0.27
 -10  -2   5    1.57    0.22
  10  -2  -5    1.55    0.29
  10  -2  -5    0.91    0.31
 -10   2   4    2.09    0.30
  10   2  -4    2.10    0.22
 -10   2   4    1.84    0.21
  10   2  -4    1.32    0.25
  10  -2  -4    1.89    0.27
  10  -2  -4    1.45    0.29
 -10  -2   4    1.48    0.22
  10   2  -3    5.58    0.34
  10   2  -3    5.76    0.44
 -10   2   3    5.59    0.30
  10  -2  -3    5.04    0.38
  10  -2  -3    5.10    0.68
 -10  -2   3    5.62    0.33
 -10   2   2   20.08    0.80
  10   2  -2   19.23    0.83
  10  -2  -2   20.80    0.86
  10   2  -1    5.27    0.43
 -10   2   1    4.78    0.36
 -10   2   1    6.36    0.32
  10   2  -1    6.59    0.36
  10  -2  -1    5.95    0.32
  10  -2  -1    6.25    0.31
  10  -2  -1    6.90    0.58
 -10   2   0    1.92    0.21
  10   2   0    2.01    0.16
 -10   2   0    2.04    0.28
  10   2   0    2.68    0.28
  10  -2   0    1.94    0.20
  10  -2   0    1.93    0.21
  10  -2   0    2.63    0.34
 -10   2  -1    1.43    0.19
  10   2   1    0.97    0.23
 -10   2  -1    1.89    0.23
  10   2   1    2.08    0.19
  10  -2   1    2.17    0.23
  10  -2   1    1.46    0.21
 -10   2  -2   62.27    2.34
  10   2   2   59.09    2.27
 -10   2  -2   61.09    2.32
  10   2   2   61.29    2.35
  10  -2   2   61.29    2.38
  10  -2   2   60.64    2.35
  10  -2   2   61.40    2.32
 -10   2  -3   52.76    2.01
  10   2   3   49.55    1.94
 -10   2  -3   52.66    1.95
  10   2   3   51.83    2.03
  10  -2   3   50.81    2.03
 -10   2  -4   72.78    2.78
  10   2   4   72.61    2.78
  10  -2   4   72.58    2.74
  10  -2   4   72.31    2.77
  10  -2   4   69.74    2.82
 -10   2  -5    9.44    0.53
  10   2   5    9.47    0.69
  10   2   5    9.99    0.49
  10  -2   5    7.82    0.53
  10  -2   5   10.08    0.56
  10  -2   5    9.84    0.52
  10   2   6    1.48    0.26
 -10   2  -6    2.05    0.27
 -10   2  -6    1.80    0.26
  10   2   6    1.87    0.37
  10   2   6    1.75    0.21
  10   2   6    1.78    0.33
  10  -2   6    1.56    0.25
  10  -2   6    1.77    0.23
  10  -2   6    1.30    0.34
 -10   2  -7   -0.03    0.18
  10   2   7   -0.11    0.23
  10   2   7    0.08    0.17
 -10  -2  -7    0.03    0.22
  10  -2   7    0.06    0.20
  10  -2   7    0.09    0.28
 -10   2  -8    2.26    0.33
  10   2   8    3.27    0.40
  10   2   8    3.22    0.48
  10  -2   8    3.42    0.44
  10  -2   8    3.06    0.41
  10   2   9    0.22    0.35
 -10   2  -9    0.21    0.24
  10   2   9    0.05    0.21
  10  -2   9   -0.55    0.27
  10  -2   9    0.19    0.20
 -10  -2  -9    0.21    0.32
  10   3 -11    0.10    0.50
 -10   3  11    0.00    0.17
  10   3 -11   -0.11    0.13
 -10  -3  11   -0.17    0.15
  10  -3 -11   -0.18    0.28
  10  -3 -11   -0.26    0.31
  10   3 -10    0.90    0.16
  10   3 -10    1.03    0.52
 -10   3  10    1.46    0.27
 -10   3  10    1.16    0.19
 -10   3  10    0.65    0.30
  10  -3 -10    0.68    0.35
  10  -3 -10    1.25    0.37
 -10  -3  10    0.49    0.17
  10   3  -9    0.13    0.12
 -10   3   9    0.14    0.16
 -10   3   9    0.24    0.26
  10   3  -9    0.18    0.44
  10  -3  -9    0.28    0.31
  10  -3  -9    0.23    0.30
 -10  -3   9    0.09    0.14
  10   3  -8    0.43    0.11
 -10   3   8    0.89    0.21
 -10   3   8    0.42    0.16
  10   3  -8    0.21    0.40
 -10   3   8    0.66    0.44
 -10  -3   8    0.58    0.16
  10  -3  -8    0.62    0.32
  10  -3  -8    0.66    0.29
 -10   3   7    0.37    0.14
  10   3  -7    0.30    0.37
 -10   3   7    0.26    0.30
 -10   3   7    0.62    0.17
 -10   3   7    0.45    0.17
  10   3  -7    0.45    0.10
 -10  -3   7    0.34    0.21
  10  -3  -7    0.28    0.32
 -10  -3   7    0.28    0.14
  10  -3  -7    0.49    0.31
 -10   3   6    1.70    0.44
 -10   3   6    1.83    0.21
  10   3  -6    1.90    0.21
 -10   3   6    1.72    0.24
  10   3  -6    1.70    0.17
 -10   3   6    1.61    0.30
  10   3  -6    1.86    0.36
 -10  -3   6    1.86    0.22
  10  -3  -6    1.87    0.32
  10  -3  -6    1.63    0.33
 -10  -3   6    2.49    0.37
 -10   3   5    3.35    0.32
  10   3  -5    3.36    0.21
  10   3  -5    3.26    0.46
  10   3  -5    3.26    0.32
  10  -3  -5    3.23    0.45
  10  -3  -5    4.06    0.55
  10   3  -4   19.81    0.94
 -10   3   4   20.64    0.88
  10  -3  -4   18.23    0.90
  10  -3  -4   19.75    1.06
  10   3  -3   10.62    0.51
  10   3  -3   11.14    0.60
 -10   3   3   10.84    0.70
  10   3  -3   10.55    0.45
  10  -3  -3   11.47    0.57
  10  -3  -3   10.70    0.74
  10   3  -2    3.10    0.32
  10   3  -2    4.25    0.30
  10   3  -2    3.25    0.22
  10   3  -2    3.77    0.21
 -10   3   2    2.88    0.38
  10  -3  -2    4.78    0.56
  10  -3  -2    3.28    0.21
  10  -3  -2    3.45    0.30
  10   3  -1   39.94    1.50
 -10   3   1   44.74    1.60
  10   3  -1   39.46    1.51
  10   3  -1   39.59    1.56
  10   3  -1   39.75    1.60
 -10   3   1   39.11    1.59
  10  -3  -1   40.60    1.53
  10  -3  -1   37.26    1.51
  10  -3  -1   40.29    1.71
  10  -3  -1   38.24    1.55
  10   3   0    3.37    0.33
  10   3   0    2.80    0.34
 -10   3   0    3.49    0.35
 -10   3   0    3.18    0.30
  10   3   0    2.88    0.33
  10   3   0    3.84    0.25
  10   3   0    3.46    0.31
  10  -3   0    3.17    0.28
  10  -3   0    3.30    0.38
  10  -3   0    3.67    0.25
  10  -3   0    3.09    0.22
  10   3   1    4.37    0.29
 -10   3  -1    4.73    0.33
  10   3   1    4.64    0.38
 -10   3  -1    4.75    0.37
  10   3   1    4.32    0.28
  10   3   1    4.73    0.36
  10  -3   1    4.30    0.32
  10  -3   1    3.98    0.52
 -10   3  -2   41.43    1.55
  10   3   2   38.55    1.47
  10   3   2   40.51    1.56
  10   3   2   36.94    1.58
 -10   3  -2   34.72    1.49
  10  -3   2   38.59    1.54
  10  -3   2   37.10    1.61
  10  -3   2   39.64    1.53
 -10   3  -3   49.43    1.88
  10   3   3   48.43    1.91
  10   3   3   47.06    1.95
  10   3   3   48.29    1.89
  10  -3   3   46.26    1.93
  10  -3   3   46.50    1.91
  10  -3   3   48.47    1.88
 -10   3  -4    6.75    0.44
  10   3   4    6.81    0.65
  10   3   4    6.95    0.39
  10   3   4    6.43    0.74
  10   3   4    6.03    0.71
  10  -3   4    6.12    0.54
  10  -3   4    6.74    0.53
  10  -3   4    6.81    0.44
  10   3   5    1.48    0.19
 -10   3  -5    2.05    0.30
  10   3   5    2.52    0.34
  10   3   5    1.69    0.29
  10   3   5    1.94    0.40
 -10   3  -5    1.87    0.25
 -10   3  -5    1.14    0.19
  10  -3   5    1.70    0.28
  10  -3   5    1.95    0.33
  10  -3   5    1.56    0.22
 -10   3  -6    0.74    0.21
  10   3   6    0.60    0.20
  10   3   6    0.68    0.27
  10  -3   6    0.40    0.17
  10  -3   6    0.51    0.24
  10   3   7    0.15    0.24
  10   3   7    0.07    0.18
 -10   3  -7    0.22    0.20
  10  -3   7    0.26    0.16
  10  -3   7    0.25    0.33
  10  -3   7    0.04    0.41
  10   3   8    0.49    0.22
 -10   3  -8    0.50    0.25
  10   3   8    0.06    0.32
  10  -3   8    0.31    0.17
  10  -3   8    0.33    0.22
 -10   3  -9    1.44    0.31
  10   3   9    1.24    0.25
  10   3   9    1.01    0.31
  10  -3   9    1.40    0.26
  10  -3   9    1.17    0.27
  10   4 -10   -0.03    0.12
  10   4 -10   -0.37    0.81
 -10   4  10    0.02    0.23
 -10   4  10    0.07    0.17
 -10  -4  10   -0.04    0.17
  10  -4 -10   -0.20    0.36
  10  -4 -10    0.17    0.22
 -10   4   9    0.38    0.19
  10   4  -9    0.41    0.50
 -10   4   9    0.14    0.19
  10   4  -9    0.18    0.12
 -10  -4   9    0.37    0.18
  10  -4  -9    0.31    0.21
  10  -4  -9    0.19    0.37
  10   4  -8    2.80    0.24
 -10   4   8    2.37    0.33
 -10   4   8    2.45    0.32
  10   4  -8    2.79    0.53
 -10   4   8    2.41    0.34
  10  -4  -8    2.10    0.29
  10  -4  -8    2.18    0.46
 -10   4   7    2.43    0.30
 -10   4   7    1.56    0.23
  10   4  -7    2.25    0.27
  10   4  -7    1.87    0.41
 -10  -4   7    1.83    0.21
  10  -4  -7    1.99    0.43
  10  -4  -7    1.85    0.25
  10   4  -6    1.34    0.35
 -10   4   6    2.08    0.33
  10   4  -6    1.91    0.21
 -10   4   6    1.77    0.23
  10  -4  -6    2.32    0.32
  10  -4  -6    2.21    0.41
  10   4  -5    0.91    0.14
 -10   4   5    0.95    0.30
  10   4  -5    0.76    0.15
  10   4  -5    0.74    0.30
  10   4  -5    0.81    0.12
  10  -4  -5    1.02    0.17
  10  -4  -5    0.70    0.31
  10   4  -4   -0.07    0.11
  10   4  -4    0.01    0.12
 -10   4   4    0.22    0.25
  10   4  -4    0.04    0.21
  10   4  -3    7.60    0.49
 -10   4   3    6.49    0.71
  10   4  -3    8.42    0.43
  10   4  -3    8.49    0.40
  10   4  -3    8.43    0.56
  10  -4  -3    8.74    0.72
  10   4  -2    2.44    0.34
 -10   4   2    2.20    0.23
  10   4  -2    2.52    0.28
  10   4  -2    2.55    0.23
  10   4  -2    2.56    0.32
 -10   4   2    1.91    0.28
  10  -4  -2    3.06    0.43
  10   4  -1    2.63    0.38
  10   4  -1    2.49    0.26
 -10   4   1    1.83    0.28
  10   4  -1    2.58    0.30
  10   4  -1    3.10    0.34
  10   4  -1    2.45    0.38
  10   4  -1    2.65    0.25
  10  -4  -1    3.29    0.43
  10  -4  -1    2.73    0.29
 -10   4   0    4.06    0.40
  10   4   0    4.66    0.45
  10   4   0    4.53    0.30
  10   4   0    3.72    0.41
  10   4   0    4.13    0.35
  10   4   0    4.06    0.36
  10   4   0    4.33    0.37
  10  -4   0    3.80    0.33
  10  -4   0    4.30    0.56
  10   4   1    0.24    0.14
  10   4   1   -0.02    0.17
  10   4   1    0.04    0.20
 -10   4  -1    0.06    0.16
  10   4   1    0.08    0.14
  10   4   1    0.05    0.13
  10   4   1    0.29    0.14
  10  -4   1    0.12    0.14
  10  -4   1   -0.18    0.24
  10   4   2    0.30    0.14
 -10   4  -2    0.67    0.18
 -10   4  -2    0.38    0.17
  10   4   2    0.56    0.20
  10   4   2    0.30    0.23
  10   4   2    0.29    0.15
  10  -4   2    0.32    0.15
  10  -4   2    0.46    0.27
 -10   4  -3   -0.08    0.15
  10   4   3    0.07    0.20
  10   4   3    0.27    0.18
 -10   4  -3   -0.08    0.16
  10   4   3    0.00    0.12
  10   4   3    0.26    0.22
  10   4   3    0.07    0.14
  10  -4   3    0.13    0.19
  10  -4   3   -0.03    0.25
  10  -4   3    0.06    0.21
  10   4   4    0.24    0.16
  10   4   4    0.28    0.21
  10   4   4    0.25    0.23
 -10   4  -4    0.44    0.19
 -10   4  -4    0.27    0.15
  10  -4   4    0.23    0.23
  10  -4   4    0.13    0.25
  10  -4   4    0.29    0.17
  10   4   5    3.20    0.35
  10   4   5    3.15    0.48
 -10   4  -5    3.28    0.38
  10  -4   5    3.09    0.37
  10  -4   5    2.91    0.38
  10  -4   5    2.91    0.39
  10   4   6   -0.34    0.18
  10   4   6    0.14    0.26
  10  -4   6   -0.04    0.27
  10  -4   6    0.03    0.22
  10  -4   6   -0.49    0.22
  10   4   7    1.67    0.44
  10   4   7    1.86    0.24
  10  -4   7    1.56    0.31
  10  -4   7    1.79    0.42
  10  -4   7    1.90    0.32
  10   4   8    0.78    0.26
 -10   4  -8    0.48    0.21
  10   4   8    0.85    0.32
  10  -4   8    0.75    0.27
  10  -4   8    0.60    0.23
 -10   5   9    0.15    0.20
  10   5  -9    0.04    0.16
  10   5  -9    0.02    0.50
  10  -5  -9    0.27    0.37
 -10  -5   9    0.21    0.18
  10  -5  -9    0.17    0.15
  10   5  -8    0.32    0.13
  10   5  -8   -0.01    0.42
 -10   5   8    0.48    0.22
 -10  -5   8    0.16    0.17
  10  -5  -8    0.10    0.36
  10   5  -7    0.52    0.38
  10   5  -7    0.17    0.13
 -10   5   7    0.42    0.20
  10  -5  -7    0.19    0.32
  10   5  -6    0.16    0.34
  10   5  -6    0.33    0.14
 -10   5   6    0.43    0.21
  10  -5  -6    0.45    0.36
 -10   5   5    0.35    0.22
  10   5  -5    0.18    0.14
  10   5  -5    0.28    0.31
  10  -5  -5    0.30    0.30
 -10   5   4    0.30    0.20
  10   5  -4    0.56    0.27
  10   5  -4    0.42    0.16
  10   5  -4    0.48    0.16
  10   5  -4    0.46    0.15
  10  -5  -4    0.58    0.30
 -10   5   3    0.14    0.19
  10   5  -3    0.17    0.14
  10   5  -3    0.20    0.14
  10   5  -3    0.18    0.17
  10   5  -3    0.08    0.25
  10  -5  -3    0.26    0.28
 -10   5   2    8.41    0.53
  10   5  -2    6.60    0.47
  10   5  -2    6.64    0.53
  10   5  -2    7.69    0.52
 -10   5   2    6.85    0.60
  10   5  -2    7.73    0.42
  10  -5  -2    7.03    0.70
  10   5  -1    2.42    0.32
  10   5  -1    2.96    0.29
  10   5  -1    2.10    0.44
 -10   5   1    2.18    0.30
 -10   5   1    3.72    0.44
  10   5  -1    2.60    0.33
  10   5  -1    2.48    0.31
  10   5  -1    2.72    0.41
  10  -5  -1    3.09    0.43
  10   5   0    2.14    0.33
 -10   5   0    1.70    0.25
 -10   5   0    1.18    0.22
  10   5   0    1.74    0.38
  10   5   0    1.75    0.20
  10   5   0    1.63    0.22
  10   5   0    1.76    0.21
  10   5   0    1.72    0.24
  10  -5   0    2.44    0.31
  10  -5   0    2.03    0.38
 -10   5  -1    0.30    0.20
  10   5   1    0.20    0.16
  10   5   1    0.13    0.20
  10   5   1   -0.03    0.14
  10   5   1    0.11    0.13
 -10   5  -1    0.14    0.24
  10   5   1   -0.11    0.16
  10  -5   1   -0.33    0.33
  10  -5   1   -0.14    0.14
  10   5   2    6.08    0.49
  10   5   2    6.21    0.40
  10   5   2    7.41    0.54
  10   5   2    5.66    0.45
 -10   5  -2    6.18    0.57
  10   5   2    5.02    0.59
  10   5   2    5.26    0.47
  10  -5   2    6.17    0.45
  10   5   3    1.00    0.20
  10   5   3    0.98    0.20
  10   5   3    1.08    0.27
 -10   5  -3    1.05    0.24
  10  -5   3    1.31    0.25
  10   5   4    0.48    0.20
 -10   5  -4    0.60    0.20
  10   5   4    0.96    0.28
  10  -5   4    0.56    0.22
 -10   5  -5   -0.26    0.16
  10   5   5    0.05    0.18
  10   5   5   -0.16    0.24
  10  -5   5    0.00    0.20
  10  -5   5    0.20    0.26
  10   5   6    1.10    0.32
  10   5   6    0.90    0.21
  10  -5   6    1.01    0.30
  10  -5   6    0.94    0.23
  10  -5   6    1.03    0.26
  10   6  -6   -0.14    0.34
 -10   6   6    0.22    0.23
  10   6  -6    0.48    0.17
  10  -6  -6    0.31    0.35
  10   6  -5    0.30    0.19
  10   6  -5    0.55    0.34
  10  -6  -5    0.54    0.50
  10   6  -4    2.91    0.44
  10  -6  -4    2.88    0.46
  10   6  -3   -0.04    0.26
  10   6  -3    0.82    0.29
  10   6  -3    0.34    0.15
  10   6  -3    0.12    0.35
  10  -6  -3    0.15    0.30
  10   6  -2    0.25    0.22
  10   6  -2    0.30    0.21
  10   6  -2    0.32    0.17
  10   6  -2   -0.11    0.21
  10  -6  -2    0.38    0.31
  10   6  -1    4.84    0.39
  10   6  -1    4.94    0.47
  10   6  -1    4.79    0.53
  10   6  -1    4.87    0.40
  10   6  -1    4.14    0.54
  10  -6  -1    5.98    0.64
  10   6   0    0.91    0.21
  10   6   0    1.21    0.25
  10   6   0    1.04    0.24
  10   6   0    0.92    0.20
  10   6   0    0.86    0.29
  10  -6   0    0.36    0.30
  10   6   1    0.16    0.20
  10   6   1    0.07    0.18
  10   6   1   -0.06    0.20
  10  -6   1    0.03    0.17
  10  -6   1   -0.19    0.25
  10   6   2    0.31    0.20
  10   6   2    0.01    0.21
  10   6   2    0.19    0.18
  10  -6   2    0.10    0.18
  10  -6   2   -0.04    0.23
  10   6   3   -0.11    0.16
  10   6   3    0.03    0.23
  10   6   3   -0.08    0.19
  10  -6   3   -0.22    0.25
  10  -6   3    0.03    0.24
  10   6   4   -0.13    0.16
  10   6   4    0.14    0.18
  10   6   4    0.09    0.34
  10  -6   4   -0.06    0.18
  10  -6   4    0.09    0.24
  11   0 -12    0.34    0.30
  11   0 -12   -0.02    0.44
 -11   0  12    0.05    0.17
 -11   0  12    0.82    0.21
  11   0 -11   -0.07    0.21
  11   0 -11   -0.62    0.43
 -11   0  11    0.01    0.15
 -11   0  11    0.16    0.16
  11   0 -10    0.68    0.25
 -11   0  10    1.10    0.16
  11   0 -10    0.25    0.39
 -11   0   9   -0.25    0.19
 -11   0   9   -0.20    0.11
  11   0  -9   -0.29    0.20
  11   0  -9   -0.44    0.35
 -11   0   8   20.67    0.79
  11   0  -8   19.41    1.01
  11   0  -8   20.69    1.14
 -11   0   8   19.68    0.88
 -11   0   8   20.29    1.13
 -11   0   7    0.03    0.18
  11   0  -7    0.08    0.40
  11   0  -7    0.24    0.30
 -11   0   7   -0.15    0.15
 -11   0   6    0.95    0.21
  11   0  -6    1.49    0.32
 -11   0   6    1.05    0.19
  11   0  -6    1.35    0.28
 -11   0   5    0.10    0.15
  11   0  -5    0.08    0.24
 -11   0   5    0.11    0.14
  11   0  -5   -0.02    0.21
  11   0  -4   22.12    0.97
  11   0  -4   21.29    1.01
 -11   0   4   21.10    0.90
 -11   0   3   -0.26    0.13
  11   0  -3   -0.19    0.19
  11   0  -3    0.01    0.13
  11   0  -2   32.25    1.35
 -11   0   2   33.86    1.34
  11   0  -2   34.32    1.37
 -11   0   1    0.23    0.14
  11   0  -1    0.28    0.18
  11   0   0  165.14    6.00
 -11   0   0  161.57    5.92
  11   0   0  160.32    6.01
 -11   0   0  162.18    6.00
  11   0   0  158.59    5.93
  11   0   1    0.34    0.10
  11   0   1   -0.09    0.17
 -11   0  -1   -0.03    0.08
 -11   0  -1    0.19    0.12
  11   0   1   -0.01    0.12
  11   0   2   11.87    0.51
  11   0   2   12.27    0.59
  11   0   2   11.31    0.59
 -11   0  -2   11.75    0.49
  11   0   3    0.12    0.12
  11   0   3   -0.02    0.12
  11   0   3    0.14    0.16
 -11   0  -3   -0.14    0.10
 -11   0  -4   24.30    0.93
  11   0   4   23.44    1.01
  11   0   4   21.45    1.08
  11   0   5   -0.04    0.13
  11   0   5    0.19    0.20
  11   0   5   -0.09    0.16
 -11   0  -5   -0.07    0.11
  11   0   6   26.49    1.14
 -11   0  -6   26.62    1.14
  11   0   6   24.93    1.27
  11   0   6   25.22    1.07
  11   0   7   -0.09    0.17
 -11   0  -7    0.02    0.15
 -11   0  -7   -0.11    0.20
  11   0   7    0.03    0.20
  11   0   8    2.07    0.26
 -11   0  -8    1.80    0.32
  11   0   8    1.85    0.29
  11   0   9    0.06    0.20
  11   0   9   -0.11    0.21
 -11   0  -9    0.30    0.44
 -11   1  12    0.14    0.17
  11   1 -12   -0.51    0.47
  11  -1 -12    0.65    0.68
 -11  -1  12    0.04    0.13
 -11  -1  12    0.17    0.17
  11  -1 -12    0.20    0.25
  11   1 -11   -0.60    0.45
 -11   1  11   -0.03    0.27
 -11   1  11   -0.21    0.14
 -11  -1  11   -0.01    0.15
  11  -1 -11   -0.25    0.24
  11  -1 -11   -0.37    0.36
 -11   1  10    1.09    0.27
  11   1 -10    1.40    0.54
 -11   1  10    0.91    0.16
  11   1 -10    1.06    0.23
  11  -1 -10    1.53    0.45
 -11  -1  10    0.97    0.16
  11  -1 -10    0.60    0.43
 -11  -1  10    0.91    0.15
  11   1  -9    0.52    0.21
 -11   1   9    0.66    0.21
 -11   1   9    0.66    0.23
 -11   1   9    0.61    0.13
  11   1  -9    0.65    0.40
  11  -1  -9    0.71    0.29
 -11  -1   9    0.27    0.13
 -11  -1   9    0.79    0.14
  11  -1  -9    0.22    0.37
  11   1  -8    0.26    0.21
 -11   1   8   -0.08    0.10
  11   1  -8   -0.12    0.37
 -11   1   8   -0.06    0.17
 -11   1   8    0.11    0.13
  11  -1  -8    0.00    0.33
  11  -1  -8   -0.10    0.25
 -11  -1   8    0.47    0.19
 -11   1   7    0.13    0.18
  11   1  -7    0.21    0.22
 -11   1   7    0.29    0.10
 -11   1   7    0.14    0.12
  11   1  -7    0.39    0.31
 -11  -1   7    0.07    0.12
  11  -1  -7    0.10    0.27
  11  -1  -7    0.23    0.26
 -11  -1   7    0.18    0.13
  11   1  -6   64.88    2.64
  11   1  -6   64.85    2.56
 -11   1   6   65.17    2.52
 -11   1   6   68.35    2.44
 -11   1   6   65.65    2.41
  11  -1  -6   65.54    2.62
  11  -1  -6   64.78    2.64
 -11  -1   6   62.71    2.46
 -11   1   5    7.69    0.47
 -11   1   5    8.34    0.49
  11   1  -5    7.51    0.55
  11   1  -5    6.95    0.55
 -11   1   5    7.53    0.35
  11  -1  -5    6.99    0.63
  11  -1  -5    7.92    0.57
 -11  -1   5    7.25    0.41
  11   1  -4   64.22    2.56
  11   1  -4   65.96    2.52
 -11   1   4   64.05    2.50
  11  -1  -4   66.66    2.55
 -11  -1   4   66.04    2.48
  11   1  -3   31.60    1.35
 -11   1   3   34.44    1.35
  11  -1  -3   33.43    1.36
 -11  -1   3   33.01    1.32
  11  -1  -3   35.28    1.51
 -11   1   2    8.04    0.46
 -11   1   2    8.58    0.36
  11   1  -2    8.99    0.48
  11   1  -2    8.47    0.50
  11  -1  -2    8.97    0.63
  11  -1  -2    8.95    0.45
  11   1  -1   41.23    1.60
  11   1  -1   40.79    1.62
 -11   1   1   36.11    1.59
 -11   1   1   40.49    1.51
 -11  -1   1   41.90    1.60
  11  -1  -1   40.11    1.58
  11  -1  -1   41.03    1.53
  11  -1  -1   43.11    1.58
  11   1   0  131.43    4.74
  11   1   0  125.58    4.74
 -11   1   0  130.92    4.66
  11  -1   0  130.91    4.73
 -11  -1   0  133.76    4.76
  11  -1   0  105.95    4.92
  11  -1   0  128.59    4.68
 -11   1  -1   57.22    2.50
  11   1   1   67.36    2.44
  11   1   1   67.58    2.52
 -11   1  -1   68.01    2.45
  11   1   1   57.06    2.52
  11  -1   1   68.69    2.54
 -11  -1  -1   70.19    2.45
  11  -1   1   70.56    2.48
  11   1   2   27.42    1.07
 -11   1  -2   26.82    1.06
  11   1   2   27.97    1.15
 -11   1  -2   26.81    1.14
 -11  -1  -2   28.23    1.07
  11  -1   2   28.46    1.15
  11  -1   2   26.62    1.15
  11  -1   2   28.46    1.09
 -11   1  -3    0.77    0.17
 -11   1  -3    0.96    0.14
  11   1   3    0.59    0.20
  11   1   3    0.58    0.14
  11  -1   3    0.97    0.19
  11  -1   3    1.22    0.21
 -11  -1  -3    0.79    0.14
  11  -1   3    1.23    0.18
 -11   1  -4   22.42    0.91
  11   1   4   22.65    1.00
  11   1   4   21.57    1.02
  11  -1   4   22.77    0.94
  11  -1   4   22.62    0.99
 -11  -1  -4   23.37    0.93
  11   1   5    5.31    0.56
  11   1   5    4.10    0.58
  11   1   5    4.17    0.35
  11  -1   5    4.09    0.41
  11  -1   5    4.29    0.36
  11   1   6   16.98    0.84
  11   1   6   16.89    0.76
 -11   1  -6   16.98    1.03
  11   1   6   14.89    1.05
  11  -1   6   18.23    0.91
  11  -1   6   17.55    0.89
  11  -1   6   16.48    0.97
  11   1   7    5.14    0.49
  11   1   7    4.33    0.41
 -11   1  -7    4.35    0.46
  11  -1   7    4.43    0.42
 -11  -1  -7    4.94    0.48
 -11  -1  -7    4.40    0.42
  11  -1   7    5.11    0.45
  11   1   8    0.32    0.25
 -11   1  -8    0.34    0.25
  11   1   8    0.28    0.21
  11  -1   8    0.37    0.20
 -11  -1  -8    0.13    0.24
  11  -1   8    0.37    0.21
 -11   1  -9    0.13    0.25
  11   1   9    0.73    0.34
  11   1   9    0.26    0.24
 -11  -1  -9    0.24    0.23
  11  -1   9    0.02    0.27
  11  -1   9    0.12    0.21
  11   2 -12   -0.03    0.57
 -11   2  12   -0.05    0.16
  11  -2 -12    0.10    0.28
  11  -2 -12    0.65    0.73
 -11  -2  12   -0.19    0.16
 -11   2  11    0.32    0.21
  11   2 -11    0.24    0.15
 -11   2  11    0.06    0.19
  11   2 -11    0.49    0.58
 -11  -2  11    0.18    0.16
  11  -2 -11   -0.13    0.36
  11  -2 -11    0.13    0.29
 -11   2  10   -0.02    0.13
  11   2 -10   -0.08    0.15
  11   2 -10    0.59    0.41
  11   2 -10    0.03    0.13
 -11  -2  10   -0.01    0.13
  11  -2 -10    0.39    0.29
  11  -2 -10   -0.10    0.38
 -11   2   9    3.44    0.34
 -11   2   9    1.86    0.33
  11   2  -9    2.12    0.28
 -11   2   9    2.30    0.30
  11   2  -9    2.36    0.24
 -11   2   9    2.28    0.26
  11   2  -9    2.93    0.56
  11  -2  -9    2.16    0.40
 -11  -2   9    2.23    0.20
 -11  -2   9    2.34    0.25
 -11   2   8    7.57    0.44
 -11   2   8    6.74    0.64
 -11   2   8    6.35    0.50
 -11   2   8    6.87    0.36
  11   2  -8    7.10    0.70
  11   2  -8    7.20    0.71
 -11  -2   8    6.43    0.34
 -11  -2   8    5.85    0.54
  11  -2  -8    6.45    0.70
 -11   2   7    0.31    0.16
 -11   2   7    0.32    0.19
 -11   2   7    0.39    0.13
  11   2  -7    0.58    0.21
 -11   2   7    0.32    0.24
  11   2  -7    0.07    0.53
  11  -2  -7    0.10    0.27
 -11  -2   7    0.30    0.12
 -11  -2   7    0.37    0.25
  11  -2  -7    0.52    0.29
  11   2  -6   -0.11    0.20
 -11   2   6   -0.01    0.17
 -11   2   6    0.01    0.14
  11   2  -6   -0.09    0.26
 -11   2   6   -0.03    0.11
  11  -2  -6   -0.21    0.26
 -11  -2   6    0.01    0.11
  11  -2  -6   -0.05    0.28
  11   2  -5   67.08    2.59
 -11   2   5   68.73    2.55
 -11   2   5   67.98    2.54
  11   2  -5   68.06    2.69
  11  -2  -5   67.77    2.75
 -11  -2   5   66.71    2.55
  11  -2  -5   65.99    2.66
  11   2  -4   10.57    0.63
  11   2  -4   10.76    0.58
 -11   2   4   11.82    0.51
 -11  -2   4   11.75    0.54
  11  -2  -4   11.66    0.78
  11  -2  -4   11.70    0.63
 -11   2   3   21.16    0.84
  11   2  -3   21.38    0.94
  11   2  -3   19.84    0.87
  11  -2  -3   20.67    1.05
 -11  -2   3   21.48    0.88
  11  -2  -3   20.71    0.91
  11   2  -2   19.12    0.85
  11   2  -2   18.54    0.81
 -11   2   2   18.93    0.76
  11  -2  -2   19.25    0.81
  11  -2  -2   18.48    0.96
 -11   2   1   32.21    1.23
  11   2  -1   32.24    1.28
  11   2  -1   31.33    1.31
  11  -2  -1   30.92    1.26
  11  -2  -1   32.49    1.25
  11  -2  -1   31.56    1.40
  11  -2  -1   32.44    1.25
 -11   2   0   30.24    1.15
  11   2   0   29.44    1.12
  11   2   0   30.54    1.14
  11  -2   0   29.90    1.18
  11  -2   0   29.61    1.19
  11  -2   0   28.38    1.29
  11  -2   0   30.14    1.17
 -11   2  -1  130.95    4.80
  11   2   1  132.74    4.86
 -11   2  -1  133.50    4.86
  11   2   1  130.55    4.78
  11  -2   1  130.05    4.82
  11  -2   1  127.86    4.90
  11  -2   1  124.04    4.85
 -11   2  -2   54.16    2.02
  11   2   2   52.89    2.03
 -11   2  -2   52.23    1.95
  11   2   2   51.11    1.93
  11  -2   2   52.90    2.05
  11  -2   2   45.80    2.08
  11  -2   2   51.56    1.98
 -11   2  -3   10.82    0.58
  11   2   3   11.41    0.61
  11   2   3   10.16    0.49
 -11   2  -3   11.13    0.50
  11  -2   3   10.77    0.62
  11  -2   3    9.94    0.60
  11  -2   3   10.62    0.53
  11   2   4   10.37    0.51
 -11   2  -4   10.28    0.60
  11   2   4   10.21    0.65
  11  -2   4   10.45    0.61
  11  -2   4   10.51    0.64
  11  -2   4   10.99    0.54
  11   2   5    0.07    0.20
 -11   2  -5    0.31    0.14
  11   2   5    0.16    0.15
  11   2   5    0.27    0.20
  11  -2   5    0.15    0.18
  11  -2   5    0.26    0.18
 -11   2  -6    0.10    0.18
 -11   2  -6    0.13    0.16
  11   2   6    0.01    0.21
  11   2   6    0.48    0.29
  11  -2   6    0.03    0.19
  11  -2   6    0.17    0.15
  11   2   7    0.24    0.20
 -11   2  -7    0.40    0.20
  11   2   7    0.38    0.25
  11  -2   7    0.41    0.18
  11  -2   7    0.49    0.21
  11   2   8    0.32    0.21
 -11   2  -8    0.47    0.25
  11   2   8    0.26    0.27
  11  -2   8    0.16    0.18
  11  -2   8    0.32    0.20
 -11   2  -9   -0.21    0.24
  11   2   9    0.19    0.32
  11   2   9   -0.03    0.26
  11  -2   9    0.14    0.18
  11  -2   9    0.07    0.19
 -11   3  11    0.58    0.17
  11   3 -11   -0.01    0.15
  11   3 -11    0.14    0.54
  11  -3 -11    0.39    0.33
 -11  -3  11    0.22    0.15
 -11   3  10    0.50    0.24
  11   3 -10    1.24    0.57
 -11   3  10    0.63    0.16
  11   3 -10    0.32    0.13
 -11  -3  10    0.53    0.29
  11  -3 -10    0.38    0.32
  11  -3 -10    0.13    0.32
 -11   3   9    0.46    0.16
  11   3  -9    0.45    0.44
  11   3  -9    0.30    0.14
 -11  -3   9    0.43    0.15
  11  -3  -9    0.11    0.33
  11  -3  -9    0.00    0.29
 -11   3   8    2.64    0.28
 -11   3   8    3.05    0.37
  11   3  -8    2.46    0.21
  11   3  -8    2.82    0.53
 -11  -3   8    2.33    0.26
  11  -3  -8    2.43    0.43
  11  -3  -8    2.11    0.38
 -11   3   7    0.60    0.15
 -11   3   7    0.90    0.19
 -11   3   7    0.19    0.30
 -11   3   7    0.67    0.18
  11   3  -7    0.80    0.36
 -11  -3   7    0.72    0.24
  11  -3  -7    0.60    0.30
 -11  -3   7    0.67    0.13
  11  -3  -7    0.61    0.29
 -11   3   6    0.39    0.28
  11   3  -6    0.10    0.18
 -11   3   6   -0.07    0.23
 -11   3   6   -0.08    0.15
 -11   3   6    0.18    0.15
  11  -3  -6   -0.15    0.32
  11  -3  -6    0.23    0.27
  11   3  -5    0.22    0.18
  11   3  -5    0.47    0.25
 -11   3   5    0.12    0.14
  11  -3  -5    0.10    0.27
  11  -3  -5    0.17    0.24
  11   3  -4   15.76    0.82
  11   3  -4   16.56    0.71
 -11   3   4   16.68    0.75
  11  -3  -4   15.46    0.78
  11  -3  -4   15.02    0.95
 -11   3   3    7.39    0.54
  11   3  -3    6.05    0.45
  11   3  -3    6.20    0.39
  11  -3  -3    6.42    0.63
  11  -3  -3    6.20    0.43
  11   3  -2    0.93    0.20
  11   3  -2    1.39    0.16
  11   3  -2    1.57    0.19
 -11   3   2    1.27    0.22
  11  -3  -2    1.52    0.19
  11  -3  -2    1.25    0.32
  11  -3  -2    1.32    0.16
  11   3  -1    3.05    0.20
  11   3  -1    2.24    0.25
  11   3  -1    3.11    0.32
  11   3  -1    2.91    0.20
 -11   3   1    2.53    0.34
  11   3  -1    2.61    0.40
 -11   3   1    3.19    0.28
  11  -3  -1    3.20    0.26
  11  -3  -1    3.26    0.22
  11  -3  -1    2.98    0.24
  11  -3  -1    3.49    0.42
  11   3   0    1.16    0.13
  11   3   0    0.80    0.18
  11   3   0    0.66    0.13
  11   3   0    0.72    0.16
 -11   3   0    0.80    0.16
  11   3   0    0.69    0.17
 -11   3   0    0.35    0.17
  11  -3   0    1.08    0.13
  11  -3   0    0.70    0.16
  11  -3   0    1.02    0.27
  11  -3   0    1.16    0.15
  11   3   1    5.72    0.41
 -11   3  -1    6.22    0.37
 -11   3  -1    5.29    0.42
  11   3   1    5.37    0.30
  11   3   1    4.57    0.38
  11   3   1    5.64    0.33
  11  -3   1    5.21    0.56
  11  -3   1    6.25    0.32
  11  -3   1    5.59    0.36
  11  -3   1    6.16    0.37
  11   3   2   12.48    0.55
  11   3   2   13.61    0.66
 -11   3  -2   13.03    0.64
  11   3   2   11.41    0.66
  11  -3   2   11.92    0.74
  11  -3   2   12.37    0.64
  11  -3   2   12.63    0.60
 -11   3  -3    2.29    0.32
  11   3   3    1.81    0.22
  11   3   3    1.56    0.28
  11   3   3    2.02    0.30
  11  -3   3    2.83    0.30
  11  -3   3    2.06    0.30
  11   3   4   15.39    0.83
  11   3   4   14.67    0.79
  11   3   4   15.73    0.66
 -11   3  -4   15.42    0.75
  11   3   4   15.03    0.93
  11  -3   4   14.32    0.82
  11  -3   4   15.08    0.79
  11  -3   4   14.54    0.81
  11   3   5    1.60    0.30
  11   3   5    1.49    0.21
 -11   3  -5    1.34    0.21
  11  -3   5    1.34    0.22
  11  -3   5    1.73    0.33
  11  -3   5    2.22    0.32
  11   3   6   17.90    0.79
  11   3   6   17.77    0.93
  11  -3   6   18.04    1.04
  11  -3   6   16.93    0.83
  11  -3   6   17.33    0.90
  11   3   7    0.34    0.26
  11   3   7    0.42    0.19
 -11   3  -7    0.37    0.20
  11  -3   7    0.38    0.25
  11  -3   7    0.45    0.43
  11  -3   7    0.36    0.22
  11   3   8    0.37    0.26
 -11   3  -8    0.36    0.21
  11   3   8    0.10    0.20
  11  -3   8    0.30    0.21
  11  -3   8    0.42    0.24
  11   4 -10   -0.38    0.15
 -11   4  10    0.11    0.18
  11   4 -10    0.52    0.42
  11  -4 -10    0.03    0.23
 -11  -4  10    0.18    0.16
  11  -4 -10   -0.43    0.33
  11   4  -9    0.25    0.44
 -11   4   9    0.40    0.18
  11   4  -9    0.32    0.12
 -11   4   9    0.01    0.18
  11  -4  -9   -0.22    0.34
  11  -4  -9    0.19    0.22
 -11  -4   9    0.26    0.16
  11   4  -8    1.06    0.40
 -11   4   8    1.52    0.22
  11   4  -8    1.77    0.22
 -11   4   8    1.71    0.28
 -11   4   8    2.18    0.31
  11  -4  -8    1.69    0.28
 -11  -4   8    1.50    0.19
  11  -4  -8    1.57    0.41
  11   4  -7    0.31    0.38
 -11   4   7   -0.10    0.19
  11   4  -7   -0.07    0.10
  11  -4  -7   -0.38    0.28
  11  -4  -7   -0.22    0.19
  11   4  -6    0.40    0.31
 -11   4   6    0.09    0.18
  11   4  -6    0.28    0.10
 -11   4   6    0.17    0.17
  11  -4  -6    0.06    0.32
  11  -4  -6   -0.07    0.18
 -11   4   5    0.53    0.43
  11   4  -5    0.51    0.27
  11   4  -5    0.75    0.16
  11   4  -5    0.73    0.11
  11   4  -5    0.82    0.17
  11  -4  -5    0.59    0.18
  11  -4  -5    0.81    0.33
  11   4  -4    2.41    0.26
  11   4  -4    2.30    0.21
  11   4  -4    2.66    0.31
 -11   4   4    1.57    0.29
  11  -4  -4    2.42    0.39
  11   4  -3    2.88    0.40
  11   4  -3    3.48    0.25
  11   4  -3    3.57    0.31
 -11   4   3    3.08    0.46
  11  -4  -3    3.34    0.46
  11   4  -2    3.26    0.25
  11   4  -2    3.05    0.25
  11   4  -2    3.41    0.37
  11   4  -2    2.86    0.32
  11   4  -2    3.68    0.40
  11  -4  -2    2.41    0.56
  11   4  -1    3.14    0.37
  11   4  -1    2.87    0.34
  11   4  -1    2.79    0.40
  11   4  -1    2.61    0.25
  11   4  -1    2.33    0.31
  11   4  -1    2.53    0.24
  11  -4  -1    2.81    0.42
  11  -4  -1    2.45    0.28
 -11   4   0    0.37    0.21
  11   4   0    0.38    0.13
  11   4   0    0.27    0.18
  11   4   0    0.33    0.17
  11   4   0    0.41    0.21
  11   4   0    0.24    0.15
  11  -4   0    0.35    0.15
  11  -4   0    0.86    0.31
  11   4   1    5.37    0.43
  11   4   1    5.82    0.35
  11   4   1    5.49    0.53
  11   4   1    5.36    0.34
 -11   4  -1    4.79    0.40
  11   4   1    5.86    0.43
 -11   4  -1    4.49    0.41
  11  -4   1    5.58    0.61
  11  -4   1    5.87    0.39
  11   4   2    1.19    0.22
 -11   4  -2    0.84    0.22
  11   4   2    0.80    0.27
  11   4   2    0.88    0.15
  11   4   2    0.73    0.16
  11  -4   2    1.00    0.31
  11  -4   2    1.15    0.32
  11  -4   2    0.90    0.12
 -11   4  -3    1.98    0.25
  11   4   3    1.22    0.18
  11   4   3    1.54    0.21
  11   4   3    1.42    0.36
  11   4   3    1.18    0.30
  11   4   3    1.36    0.26
  11  -4   3    1.50    0.24
  11  -4   3    0.98    0.32
  11  -4   3    1.32    0.25
  11   4   4    4.60    0.51
 -11   4  -4    4.64    0.44
  11   4   4    4.10    0.41
  11  -4   4    4.44    0.64
  11  -4   4    4.78    0.42
  11   4   5   10.39    0.55
  11   4   5   10.52    0.70
 -11   4  -5   10.70    0.63
  11  -4   5    9.36    0.73
  11  -4   5   10.45    0.71
  11  -4   5    9.89    0.61
  11   4   6    0.02    0.19
  11   4   6   -0.13    0.27
  11  -4   6    0.40    0.27
  11  -4   6   -0.29    0.19
  11   4   7    0.81    0.32
  11   4   7    0.30    0.21
  11  -4   7    0.50    0.22
  11  -4   7    0.75    0.31
  11  -4   7    0.46    0.27
  11   5  -8   -0.04    0.11
 -11   5   8   -0.21    0.17
  11   5  -8   -0.33    0.39
  11  -5  -8    0.13    0.32
  11   5  -7    0.33    0.33
  11   5  -7   -0.02    0.12
 -11   5   7    0.23    0.23
  11  -5  -7    0.10    0.38
 -11   5   6    1.27    0.26
  11   5  -6    1.01    0.15
  11   5  -6    1.30    0.40
  11  -5  -6    1.04    0.39
  11   5  -5    1.84    0.38
  11   5  -5    2.28    0.26
  11  -5  -5    2.57    0.44
  11   5  -4    1.50    0.18
  11   5  -4    1.52    0.33
 -11   5   4    1.31    0.26
  11   5  -4    1.01    0.16
  11   5  -4    1.49    0.21
  11  -5  -4    1.35    0.33
  11   5  -3    0.47    0.16
 -11   5   3    0.69    0.21
  11   5  -3    0.41    0.23
  11   5  -3    0.38    0.14
  11   5  -3    0.87    0.20
  11  -5  -3    0.16    0.28
  11   5  -2    3.65    0.30
 -11   5   2    4.37    0.48
  11   5  -2    3.94    0.34
  11   5  -2    3.99    0.42
  11   5  -2    3.95    0.36
  11   5  -2    4.16    0.43
  11  -5  -2    4.23    0.60
  11   5  -1    4.23    0.41
  11   5  -1    4.08    0.32
  11   5  -1    4.30    0.37
  11   5  -1    4.98    0.49
  11   5  -1    3.87    0.32
 -11   5   1    4.21    0.46
  11   5  -1    3.89    0.37
  11  -5  -1    3.98    0.60
 -11   5   0    0.15    0.21
  11   5   0   -0.35    0.25
 -11   5   0   -0.26    0.25
  11   5   0    0.10    0.18
  11   5   0   -0.14    0.15
  11   5   0   -0.04    0.15
  11   5   0    0.00    0.12
  11   5   0    0.15    0.17
  11  -5   0    0.04    0.27
  11  -5   0    0.01    0.15
  11   5   1    1.08    0.23
  11   5   1    1.09    0.29
  11   5   1    1.04    0.18
  11   5   1    1.26    0.25
 -11   5  -1    0.84    0.21
  11   5   1    0.93    0.18
  11  -5   1    1.00    0.20
  11  -5   1    1.51    0.35
  11   5   2    0.36    0.22
  11   5   2    0.42    0.18
  11   5   2    0.37    0.20
 -11   5  -2    0.39    0.19
  11  -5   2    0.44    0.29
  11  -5   2    0.47    0.20
  11   5   3    0.69    0.19
  11   5   3    0.43    0.25
 -11   5  -3    0.38    0.20
  11   5   3    0.81    0.20
  11  -5   3    0.50    0.31
  11  -5   3    0.99    0.24
  11   5   4    0.07    0.24
  11   5   4   -0.14    0.17
  11  -5   4   -0.01    0.27
  11  -5   4    0.07    0.19
  11   5   5   -0.08    0.34
  11   5   5   -0.04    0.17
  11  -5   5    0.28    0.28
  11  -5   5    0.31    0.36
 -11   6   6    1.43    0.41
  11  -6  -6    0.95    0.39
  11   6  -5   -0.03    0.34
  11  -6  -5    0.60    0.36
  11   6  -4    0.85    0.34
  11   6  -4    0.88    0.24
  11  -6  -4    0.95    0.51
  11   6  -3    0.96    0.30
  11   6  -3    1.17    0.23
  11   6  -3    0.85    0.26
  11  -6  -3    0.98    0.38
  11   6  -2    0.32    0.22
  11   6  -2    0.64    0.24
  11   6  -2    0.38    0.17
  11   6  -2    0.41    0.22
  11  -6  -2    0.47    0.30
  11   6  -1    1.76    0.23
  11   6  -1    1.48    0.50
  11   6  -1    1.99    0.30
  11   6  -1    1.68    0.31
  11   6  -1    1.81    0.38
  11  -6  -1    2.05    0.39
  11   6   0    2.61    0.35
  11   6   0    2.01    0.28
  11   6   0    2.48    0.38
  11   6   0    1.93    0.25
  11  -6   0    2.38    0.41
  11   6   1    1.44    0.26
  11   6   1    1.55    0.27
  11   6   1    1.15    0.22
  11  -6   1    1.63    0.36
  11  -6   1    0.99    0.23
  11   6   2    1.12    0.26
  11   6   2    1.18    0.21
  11   6   2    0.75    0.22
  11  -6   2    1.42    0.33
  11  -6   2    0.96    0.41
  11   6   3    0.06    0.18
  11   6   3    0.19    0.28
  11   6   3    0.32    0.20
  11  -6   3    0.12    0.22
  11  -6   3    0.38    0.27
  12   0 -12    0.28    0.24
  12   0 -12   -0.14    0.49
 -12   0  12    0.11    0.17
 -12   0  12   -0.03    0.15
  12   0 -11   -0.28    0.24
  12   0 -11    0.19    0.40
 -12   0  11   -0.11    0.15
  12   0 -10    0.35    0.40
 -12   0  10    0.25    0.13
  12   0 -10    0.24    0.23
  12   0  -9   -0.12    0.40
 -12   0   9   -0.23    0.14
  12   0  -9    0.10    0.23
 -12   0   8    0.14    0.19
  12   0  -8    0.56    0.25
  12   0  -8   -0.05    0.33
  12   0  -7   -0.19    0.30
  12   0  -7    0.14    0.24
 -12   0   7    0.26    0.14
 -12   0   7   -0.08    0.17
 -12   0   6    0.17    0.19
  12   0  -6   -0.17    0.24
 -12   0   6   -0.06    0.14
  12   0  -6   -0.11    0.23
  12   0  -5    0.01    0.22
 -12   0   5    0.11    0.15
 -12   0   4  157.33    5.78
  12   0  -4  146.90    6.11
  12   0  -4  161.66    5.85
 -12   0   3    0.82    0.20
  12   0  -2  508.61   18.43
 -12   0   2  493.01   18.37
  12   0  -1    0.99    0.22
  12   0  -1    0.39    0.21
  12   0  -1    0.46    0.16
 -12   0   1    0.95    0.20
  12   0   0   66.42    2.48
 -12   0   0   68.46    2.39
  12   0   0   66.28    2.40
  12   0   0   65.96    2.49
 -12   0   0   55.48    2.47
  12   0   1    0.16    0.14
 -12   0  -1    0.09    0.08
  12   0   1   -0.06    0.16
  12   0   1   -0.13    0.09
  12   0   2    7.58    0.48
  12   0   2    6.05    0.42
 -12   0  -2    7.80    0.36
  12   0   2    8.59    0.39
  12   0   3    0.04    0.13
  12   0   3    0.06    0.16
 -12   0  -3   -0.14    0.11
  12   0   4    5.15    0.34
 -12   0  -4    5.19    0.32
  12   0   4    5.46    0.47
  12   0   4    5.34    0.43
  12   0   5   -0.25    0.18
  12   0   5    0.05    0.19
  12   0   5   -0.05    0.16
  12   0   6    1.79    0.26
  12   0   7   -0.24    0.17
  12   0   7   -0.24    0.19
 -12   0  -8    0.38    0.28
  12   0   8    0.27    0.21
  12   0   8    0.09    0.21
  12   0   9    0.27    0.27
  12   0   9   -0.30    0.30
 -12   0  -9   -0.31    0.22
 -12   1  12    0.14    0.25
  12   1 -12    1.00    0.55
 -12  -1  12    0.00    0.12
  12  -1 -12    0.15    0.46
  12  -1 -12    0.29    0.28
 -12  -1  12   -0.06    0.15
  12   1 -11   -0.26    0.18
  12   1 -11   -0.19    0.44
 -12   1  11   -0.19    0.14
  12  -1 -11    0.13    0.40
  12  -1 -11   -0.01    0.26
 -12  -1  11   -0.05    0.11
 -12  -1  11   -0.20    0.16
  12   1 -10    0.42    0.36
 -12   1  10    0.17    0.21
 -12   1  10    0.09    0.21
  12   1 -10    0.07    0.19
 -12  -1  10    0.03    0.11
  12  -1 -10    0.36    0.46
 -12  -1  10    0.10    0.13
  12  -1 -10    0.08    0.25
  12   1  -9    0.88    0.38
  12   1  -9    1.00    0.42
 -12   1   9    1.18    0.25
 -12   1   9    1.27    0.14
 -12   1   9    1.40    0.19
  12  -1  -9    1.27    0.37
  12  -1  -9    1.24    0.40
 -12  -1   9    1.07    0.15
 -12   1   8    4.68    0.27
  12   1  -8    4.09    0.55
 -12   1   8    4.13    0.30
  12   1  -8    4.27    0.47
  12  -1  -8    3.58    0.45
 -12  -1   8    4.18    0.30
  12  -1  -8    4.49    0.54
 -12  -1   8    4.04    0.46
 -12   1   7    0.08    0.12
  12   1  -7    0.29    0.23
  12   1  -7    0.34    0.31
 -12   1   7   -0.06    0.17
 -12   1   7    0.23    0.09
 -12  -1   7    0.12    0.13
  12  -1  -7    0.12    0.28
  12  -1  -7    0.06    0.25
  12   1  -6   86.16    3.42
  12   1  -6   88.90    3.48
 -12   1   6   89.62    3.38
 -12  -1   6   88.25    3.32
  12  -1  -6   89.83    3.47
  12  -1  -6   87.95    3.49
  12   1  -5    0.63    0.26
  12   1  -5    0.59    0.23
  12  -1  -5    0.16    0.24
 -12  -1   5    0.32    0.15
  12  -1  -5    0.39    0.29
  12   1  -4    3.00    0.38
 -12   1   4    3.03    0.35
  12   1  -4    3.27    0.33
 -12  -1   4    2.43    0.30
  12  -1  -4    3.28    0.40
  12  -1  -4    2.51    0.37
  12   1  -3  127.66    4.69
 -12   1   3  116.32    4.68
  12   1  -3  127.39    4.73
  12  -1  -3  127.15    4.77
 -12  -1   3  127.07    4.67
  12  -1  -3  125.93    4.71
  12   1  -2    4.07    0.38
 -12   1   2    3.02    0.34
  12   1  -2    2.72    0.34
  12  -1  -2    3.80    0.50
 -12  -1   2    3.91    0.33
  12  -1  -2    3.32    0.32
  12   1  -1  120.47    4.49
 -12   1   1  115.60    4.38
  12   1  -1  125.71    4.50
  12  -1  -1  120.16    4.46
  12  -1  -1  111.96    4.46
 -12  -1   1  123.09    4.48
  12  -1  -1  121.39    4.40
  12  -1  -1  115.52    4.50
  12   1   0   33.86    1.41
  12   1   0   29.11    1.39
 -12   1   0   36.32    1.31
  12  -1   0   37.54    1.39
  12  -1   0   36.22    1.44
 -12  -1   0   35.87    1.43
  12  -1   0   34.40    1.39
  12  -1   0   34.84    1.33
  12   1   1    1.38    0.14
 -12   1  -1    1.59    0.19
  12   1   1    1.80    0.23
  12  -1   1    1.68    0.24
  12  -1   1    2.01    0.24
  12  -1   1    1.68    0.20
  12   1   2   29.14    1.21
  12   1   2   29.23    1.12
 -12   1  -2   29.15    1.12
  12  -1   2   27.87    1.21
  12  -1   2   28.56    1.14
 -12  -1  -2   29.41    1.13
  12  -1   2   29.56    1.22
  12   1   3    8.67    0.44
  12   1   3    8.49    0.57
  12   1   3    9.49    0.55
 -12   1  -3    8.97    0.53
 -12   1  -3    8.77    0.42
  12  -1   3    8.90    0.55
 -12  -1  -3    8.76    0.56
  12  -1   3    8.82    0.46
  12   1   4    5.76    0.69
 -12   1  -4    4.68    0.31
  12   1   4    5.88    0.37
 -12  -1  -4    6.23    0.36
  12  -1   4    5.33    0.46
  12  -1   4    5.74    0.39
  12   1   5    2.22    0.33
  12   1   5    1.89    0.27
  12   1   5    2.22    0.23
  12  -1   5    1.82    0.25
  12  -1   5    2.13    0.25
  12   1   6   10.02    0.64
 -12   1  -6   10.28    0.52
  12  -1   6    9.89    0.61
  12  -1   6    9.26    0.75
 -12  -1  -6   11.06    0.61
  12  -1   6    9.41    0.56
  12   1   7    2.38    0.33
 -12   1  -7    2.77    0.39
  12   1   7    2.29    0.26
  12  -1   7    2.19    0.26
  12  -1   7    2.49    0.31
  12   1   8    0.11    0.23
 -12   1  -8   -0.22    0.24
  12   1   8   -0.02    0.19
  12  -1   8    0.08    0.21
  12  -1   8   -0.10    0.19
  12   1   9    2.00    0.33
 -12   1  -9    2.09    0.34
  12   1   9    1.66    0.30
  12  -1   9    1.91    0.29
  12  -1   9    1.59    0.41
 -12   2  11    0.52    0.24
 -12   2  11    0.55    0.22
  12   2 -11    0.97    0.50
  12  -2 -11    0.77    0.45
  12  -2 -11    0.17    0.28
 -12   2  10   -0.07    0.13
  12   2 -10    0.41    0.18
  12   2 -10    0.28    0.48
 -12  -2  10   -0.08    0.08
  12  -2 -10    0.06    0.26
  12  -2 -10   -0.12    0.38
  12   2  -9    0.20    0.16
 -12   2   9    0.20    0.16
 -12   2   9    0.05    0.13
 -12   2   9   -0.05    0.18
  12   2  -9   -0.19    0.29
  12  -2  -9    0.13    0.34
 -12  -2   9    0.19    0.10
  12  -2  -9   -0.02    0.27
 -12   2   8    0.94    0.21
  12   2  -8    1.02    0.44
 -12   2   8    0.90    0.28
  12   2  -8    0.97    0.23
 -12   2   8    1.12    0.19
 -12   2   8    1.11    0.14
  12  -2  -8    1.03    0.40
 -12  -2   8    1.09    0.14
  12  -2  -8    0.69    0.31
  12   2  -7   17.50    0.85
 -12   2   7   17.91    0.76
 -12   2   7   17.95    0.71
  12   2  -7   18.12    1.05
 -12   2   7   17.77    0.83
  12  -2  -7   16.93    0.99
  12  -2  -7   14.92    1.41
 -12  -2   7   16.88    0.73
 -12   2   6    8.40    0.50
 -12   2   6    9.02    0.44
 -12   2   6    8.37    0.39
  12   2  -6    7.89    0.69
  12   2  -6    7.48    0.56
 -12   2   6    7.58    0.56
  12  -2  -6    7.97    0.64
  12  -2  -6    8.84    0.73
 -12  -2   6    8.14    0.43
 -12   2   5   22.58    0.89
  12   2  -5   22.01    1.07
 -12   2   5   21.98    0.97
  12   2  -5   21.65    0.98
 -12  -2   5   21.58    0.91
  12  -2  -5   21.73    1.04
  12  -2  -5   21.39    1.14
  12   2  -4   20.31    0.92
  12   2  -4   20.85    0.99
 -12   2   4   21.79    0.85
  12  -2  -4   21.34    0.97
  12  -2  -4   21.16    1.10
  12   2  -3    0.89    0.18
  12   2  -3    0.57    0.19
 -12   2   3    0.78    0.13
 -12  -2   3    0.75    0.16
  12  -2  -3    0.74    0.28
  12  -2  -3    0.82    0.18
  12   2  -2    2.12    0.31
 -12   2   2    1.70    0.22
  12   2  -2    2.36    0.25
  12  -2  -2    1.95    0.27
  12  -2  -2    2.30    0.21
  12  -2  -2    2.68    0.36
  12   2  -1   33.13    1.33
  12   2  -1   31.92    1.36
 -12   2   1   33.13    1.26
  12  -2  -1   32.49    1.30
  12  -2  -1   33.20    1.28
  12  -2  -1   32.63    1.31
  12  -2  -1   33.91    1.44
  12   2   0    0.49    0.10
  12   2   0    0.15    0.12
  12   2   0    0.45    0.09
  12   2   0    0.35    0.17
 -12   2   0    0.22    0.12
  12  -2   0    1.24    0.26
  12  -2   0    0.49    0.13
  12  -2   0    0.46    0.14
  12  -2   0    0.31    0.12
  12   2   1    3.89    0.27
 -12   2  -1    3.90    0.35
  12   2   1    3.39    0.38
  12  -2   1    3.35    0.45
  12  -2   1    3.44    0.27
  12  -2   1    3.31    0.47
 -12   2  -2    1.33    0.16
  12   2   2    1.61    0.22
 -12   2  -2    1.65    0.24
  12   2   2    1.93    0.26
  12  -2   2    1.94    0.24
  12  -2   2    1.60    0.26
  12   2   3   26.44    1.17
 -12   2  -3   27.57    1.13
  12   2   3   26.67    1.04
 -12   2  -3   22.73    1.03
  12  -2   3   28.10    1.16
  12  -2   3   27.23    1.08
  12  -2   3   25.41    1.15
  12   2   4    7.52    0.54
  12   2   4    7.51    0.42
  12   2   4    7.53    0.53
  12  -2   4    7.85    0.44
  12  -2   4    7.47    0.54
  12  -2   4    7.00    0.51
 -12   2  -5    0.29    0.15
  12   2   5   -0.08    0.21
  12   2   5    0.02    0.16
  12  -2   5   -0.14    0.25
  12  -2   5   -0.07    0.19
  12  -2   5    0.27    0.24
  12   2   6    4.40    0.39
  12   2   6    3.70    0.47
  12  -2   6    3.84    0.38
  12  -2   6    4.46    0.51
  12  -2   6    3.97    0.45
  12   2   7    0.26    0.24
  12   2   7    0.29    0.21
  12  -2   7    0.36    0.22
  12  -2   7    0.26    0.21
  12   2   8    6.16    0.66
  12   2   8    7.16    0.52
 -12   2  -8    7.00    0.52
  12  -2   8    6.14    0.55
  12  -2   8    6.40    0.53
 -12   3  11   -0.08    0.15
  12  -3 -11    0.18    0.33
  12  -3 -11   -0.44    0.30
 -12   3  10    0.07    0.15
 -12   3  10   -0.21    0.22
  12  -3 -10    0.22    0.30
  12  -3 -10    0.17    0.29
 -12  -3  10    0.08    0.14
 -12   3   9    0.00    0.14
 -12   3   9   -0.24    0.18
  12   3  -9   -0.07    0.44
  12  -3  -9    0.23    0.58
  12  -3  -9   -0.25    0.31
 -12   3   8    1.61    0.24
  12   3  -8    1.16    0.43
 -12   3   8    1.45    0.18
  12  -3  -8    1.75    0.37
  12  -3  -8    0.97    0.37
 -12   3   7    0.55    0.17
  12   3  -7    0.08    0.17
  12   3  -7    0.52    0.35
 -12   3   7    0.40    0.14
 -12   3   7    0.20    0.18
  12  -3  -7   -0.19    0.27
  12  -3  -7    0.12    0.27
 -12   3   6    0.14    0.23
  12   3  -6    0.05    0.28
 -12   3   6    0.22    0.16
  12   3  -6    0.17    0.19
 -12   3   6    0.19    0.24
  12  -3  -6    0.21    0.27
  12  -3  -6    0.44    0.32
  12   3  -5    1.54    0.23
  12   3  -5    1.30    0.30
 -12   3   5    1.23    0.25
 -12   3   5    1.00    0.18
  12  -3  -5    1.68    0.29
  12  -3  -5    1.25    0.36
  12   3  -4    0.11    0.15
 -12   3   4    0.15    0.14
  12   3  -4    0.42    0.16
  12  -3  -4    0.13    0.32
  12  -3  -4    0.10    0.21
 -12   3   3   20.86    0.82
  12   3  -3   17.15    0.80
  12   3  -3   18.91    0.89
  12  -3  -3   17.63    0.83
  12  -3  -3   18.52    1.04
  12  -3  -3   17.62    0.75
  12   3  -2    4.56    0.38
  12   3  -2    5.52    0.50
 -12   3   2    4.37    0.34
  12  -3  -2    5.05    0.58
  12  -3  -2    3.94    0.45
  12  -3  -2    4.79    0.28
 -12   3   1    6.67    0.38
 -12   3   1    5.88    0.43
  12   3  -1    6.76    0.31
  12   3  -1    7.05    0.45
  12   3  -1    6.36    0.41
  12  -3  -1    5.71    0.41
  12  -3  -1    6.84    0.37
  12  -3  -1    5.64    0.62
  12  -3  -1    5.91    0.34
 -12   3   0    0.35    0.17
  12   3   0    0.23    0.17
  12   3   0    0.32    0.14
  12   3   0    0.18    0.13
  12   3   0    0.22    0.12
  12   3   0    0.45    0.11
 -12   3   0    0.32    0.14
  12  -3   0    0.45    0.13
  12  -3   0    0.60    0.12
  12  -3   0    0.30    0.27
  12  -3   0    0.26    0.15
  12   3   1    2.45    0.22
  12   3   1    2.21    0.22
  12   3   1    2.36    0.35
 -12   3  -1    1.84    0.24
 -12   3  -1    2.03    0.27
  12  -3   1    2.48    0.27
  12  -3   1    2.33    0.36
  12  -3   1    2.44    0.27
  12  -3   1    2.09    0.22
  12   3   2   11.04    0.62
 -12   3  -2   11.15    0.60
  12   3   2   10.99    0.49
  12   3   2   10.55    0.64
  12  -3   2   10.08    0.69
  12  -3   2   11.06    0.55
  12  -3   2   10.61    0.59
 -12   3  -3    0.31    0.12
  12   3   3    0.18    0.20
  12   3   3    0.27    0.20
  12   3   3    0.34    0.14
  12  -3   3    0.19    0.27
  12  -3   3    0.63    0.22
  12  -3   3    0.47    0.15
 -12   3  -4   28.13    1.22
  12   3   4   28.16    1.13
 -12   3  -4   27.51    1.14
  12   3   4   28.62    1.25
  12  -3   4   28.88    1.30
  12  -3   4   27.28    1.27
  12  -3   4   27.86    1.19
  12   3   5    1.34    0.28
  12   3   5    1.27    0.31
 -12   3  -5    1.54    0.28
  12  -3   5    1.74    0.25
  12  -3   5    2.04    0.33
  12   3   6    2.15    0.35
  12   3   6    1.92    0.24
  12  -3   6    2.20    0.40
  12  -3   6    1.75    0.32
  12  -3   6    2.39    0.31
  12   3   7   -0.01    0.34
  12   3   7    0.41    0.20
  12  -3   7    0.26    0.24
  12  -3   7    0.24    0.22
 -12   4   9    0.41    0.16
 -12  -4   9    0.57    0.16
  12  -4  -9    0.80    0.48
  12  -4  -9    1.04    0.28
  12   4  -8    0.08    0.42
 -12   4   8    0.32    0.23
 -12   4   8    0.40    0.16
  12  -4  -8   -0.21    0.34
  12  -4  -8    0.39    0.22
  12   4  -7    1.64    0.45
 -12   4   7    1.31    0.25
 -12   4   7    2.13    0.35
  12  -4  -7    1.54    0.44
  12  -4  -7    1.48    0.27
  12   4  -6    1.45    0.37
 -12   4   6    1.10    0.21
 -12   4   6    1.35    0.21
  12  -4  -6    0.69    0.35
  12  -4  -6    1.29    0.23
  12   4  -5   -0.25    0.24
  12   4  -5    0.03    0.16
  12   4  -5    0.01    0.13
  12  -4  -5   -0.06    0.27
  12  -4  -5    0.15    0.21
  12   4  -4   -0.10    0.19
  12   4  -4    0.09    0.15
  12  -4  -4    0.28    0.31
 -12   4   3    0.70    0.25
  12   4  -3    1.07    0.19
  12   4  -3    1.00    0.13
  12   4  -3    1.06    0.26
  12   4  -3    1.07    0.13
  12  -4  -3    1.10    0.31
  12   4  -2    9.04    0.52
  12   4  -2   10.35    0.60
 -12   4   2    9.41    0.62
  12   4  -2   10.00    0.44
  12   4  -2    9.50    0.52
  12  -4  -2    9.53    0.77
  12   4  -1   -0.03    0.12
  12   4  -1    0.31    0.19
 -12   4   1    0.18    0.20
  12   4  -1   -0.01    0.10
  12   4  -1    0.03    0.11
  12   4  -1   -0.23    0.15
  12  -4  -1   -0.03    0.26
  12  -4  -1   -0.04    0.12
  12   4   0    0.33    0.19
  12   4   0    0.17    0.22
  12   4   0    0.24    0.18
 -12   4   0    0.36    0.18
 -12   4   0    0.13    0.19
  12   4   0    0.20    0.16
  12   4   0    0.25    0.12
  12  -4   0    0.23    0.29
  12  -4   0    0.26    0.14
  12   4   1    1.35    0.30
  12   4   1    1.17    0.17
  12   4   1    1.43    0.37
 -12   4  -1    0.88    0.21
  12   4   1    1.17    0.23
  12   4   1    0.95    0.19
  12   4   1    1.19    0.18
 -12   4  -1    0.81    0.31
  12  -4   1    1.05    0.33
  12  -4   1    1.00    0.19
  12   4   2    3.20    0.42
  12   4   2    3.13    0.29
 -12   4  -2    3.66    0.38
 -12   4  -2    3.11    0.38
  12   4   2    2.85    0.27
  12   4   2    3.49    0.46
  12  -4   2    3.14    0.34
  12  -4   2    3.07    0.37
  12  -4   2    2.27    0.39
  12   4   3   11.22    0.66
 -12   4  -3   10.49    0.59
  12   4   3   10.02    0.54
  12   4   3   10.06    0.51
  12  -4   3   10.68    0.58
  12  -4   3    9.10    0.74
  12  -4   3    9.59    0.63
  12   4   4    1.64    0.33
 -12   4  -4    1.19    0.25
  12   4   4    1.16    0.30
  12  -4   4    1.33    0.34
  12  -4   4    1.65    0.30
  12  -4   4    1.22    0.23
  12   4   5    4.04    0.51
  12   4   5    2.92    0.35
  12  -4   5    3.86    0.49
  12  -4   5    3.63    0.39
  12  -4   5    2.32    0.39
  12   4   6    1.63    0.24
  12   4   6    1.93    0.36
  12  -4   6    1.24    0.32
  12  -4   6    1.33    0.28
  12   5  -8    1.26    0.53
 -12   5   8    0.13    0.16
  12  -5  -8   -0.20    0.37
 -12   5   7    0.24    0.19
  12   5  -7    0.25    0.35
  12   5  -7    0.14    0.11
  12  -5  -7    0.18    0.36
 -12   5   6    1.39    0.26
  12   5  -6    1.56    0.21
  12   5  -6    1.24    0.41
  12  -5  -6    0.74    0.37
  12   5  -5    0.40    0.14
  12   5  -5    0.44    0.32
  12  -5  -5    0.58    0.33
  12   5  -4    0.40    0.15
  12   5  -4    0.47    0.15
  12   5  -4    0.10    0.26
  12  -5  -4    0.26    0.33
 -12   5   3    0.08    0.22
  12   5  -3    0.28    0.16
  12   5  -3    0.12    0.14
  12   5  -3    0.21    0.12
  12   5  -3    0.61    0.20
  12   5  -3    0.58    0.23
  12  -5  -3   -0.03    0.28
  12   5  -2    1.44    0.27
  12   5  -2    1.37    0.21
 -12   5   2    1.23    0.28
  12   5  -2    1.62    0.30
  12   5  -2    1.47    0.21
  12   5  -2    1.35    0.17
  12  -5  -2    1.19    0.36
  12   5  -1    1.12    0.26
  12   5  -1    1.43    0.24
  12   5  -1    1.69    0.20
  12   5  -1    1.38    0.18
  12   5  -1    2.18    0.33
  12  -5  -1    1.15    0.36
  12   5   0    2.88    0.39
  12   5   0    2.44    0.30
  12   5   0    2.75    0.29
  12   5   0    3.17    0.40
  12   5   0    2.88    0.38
  12  -5   0    2.86    0.46
  12  -5   0    3.01    0.34
  12   5   1    1.08    0.19
  12   5   1    1.13    0.18
  12   5   1    0.77    0.23
  12   5   1    0.70    0.21
  12  -5   1    0.66    0.19
  12  -5   1    0.81    0.34
  12   5   2    1.19    0.26
  12   5   2    0.62    0.27
  12   5   2    0.93    0.23
  12   5   2    0.99    0.23
  12  -5   2    1.00    0.20
  12  -5   2    0.99    0.34
  12   5   3    3.46    0.47
  12   5   3    3.05    0.33
  12   5   3    3.50    0.49
  12  -5   3    2.94    0.45
  12  -5   3    2.74    0.38
  12   5   4    0.17    0.26
  12   5   4    0.08    0.17
  12  -5   4    0.31    0.23
  12  -5   4    0.06    0.28
  12   5   5   -0.05    0.26
  12   5   5    0.12    0.19
  12  -5   5    0.17    0.20
  12  -5   5    0.05    0.25
  12  -6  -5    0.58    0.33
  12   6  -4    0.25    0.30
  12   6  -4    0.08    0.15
  12  -6  -4   -0.25    0.30
  12   6  -3    0.10    0.26
  12   6  -3    0.18    0.17
  12   6  -3   -0.08    0.15
  12   6  -3   -0.04    0.19
  12   6  -3    0.15    0.15
  12  -6  -3    0.62    0.45
  12   6  -2    0.74    0.30
  12   6  -2    0.48    0.30
  12   6  -2    0.06    0.17
  12   6  -2    0.16    0.18
  12  -6  -2    0.28    0.30
  12   6  -1    2.90    0.38
  12   6  -1    2.17    0.31
  12   6  -1    3.11    0.33
  12   6  -1    2.67    0.40
  12   6  -1    2.88    0.39
  12  -6  -1    3.08    0.46
  12   6   0    2.32    0.27
  12   6   0    2.80    0.34
  12   6   0    2.68    0.40
  12   6   0    3.04    0.43
  12  -6   0    2.63    0.45
  12   6   1    0.75    0.24
  12   6   1    0.65    0.23
  12   6   1    0.51    0.19
  12  -6   1    0.25    0.29
  12  -6   1    0.75    0.42
  13   0 -11    0.20    0.44
  13   0 -11    0.40    0.25
 -13   0  11    0.18    0.15
 -13   0  11   -0.27    0.15
  13   0 -10    2.55    0.37
  13   0 -10    2.92    0.53
  13   0  -9    0.08    0.34
  13   0  -9   -0.01    0.23
  13   0  -8    0.38    0.24
  13   0  -8    0.22    0.34
 -13   0   8    0.15    0.19
 -13   0   7    0.02    0.11
  13   0  -7    0.12    0.30
  13   0  -7    0.02    0.23
  13   0  -6    9.53    0.66
 -13   0   6    6.41    0.43
  13   0  -6   10.14    0.67
  13   0  -5   -0.04    0.22
 -13   0   5    0.21    0.15
  13   0  -5    0.03    0.26
 -13   0   4  214.87    8.13
  13   0  -4  224.67    8.21
  13   0  -4  220.08    8.20
  13   0  -3    0.49    0.25
 -13   0   3    0.79    0.17
  13   0  -3    0.21    0.18
  13   0  -2    4.92    0.45
 -13   0   2    4.24    0.36
  13   0  -2    3.33    0.35
 -13   0   1    0.59    0.16
  13   0  -1    0.45    0.20
  13   0  -1    0.11    0.15
  13   0  -1    0.20    0.14
 -13   0   0    4.66    0.23
  13   0   0    4.13    0.40
  13   0   0    4.87    0.24
  13   0   0    4.01    0.32
  13   0   0    4.66    0.35
  13   0   1   -0.16    0.11
  13   0   1    0.06    0.07
  13   0   1   -0.07    0.16
 -13   0  -1   -0.14    0.08
 -13   0  -2   25.61    0.97
  13   0   2   24.12    0.98
  13   0   2   24.50    1.07
 -13   0  -3    0.05    0.11
  13   0   3    0.31    0.15
  13   0   3   -0.09    0.13
  13   0   3   -0.35    0.19
 -13   0  -4   13.14    0.56
  13   0   4   11.93    0.58
  13   0   4   11.25    0.71
  13   0   4   12.43    0.66
  13   0   5   -0.08    0.16
  13   0   5    0.14    0.23
  13   0   5    0.00    0.19
  13   0   6    0.98    0.24
  13   0   6    0.90    0.21
 -13   0  -6    0.91    0.18
  13   0   7   -0.23    0.19
  13   0   7   -0.05    0.22
  13   0   8    0.82    0.25
  13   0   8    0.46    0.35
  13   1 -11    1.29    0.27
  13   1 -11    0.54    0.44
 -13   1  11    1.56    0.18
 -13  -1  11    2.08    0.24
  13  -1 -11    0.84    0.48
  13  -1 -11    1.54    0.35
 -13   1  10    0.14    0.13
 -13   1  10   -0.17    0.15
  13   1 -10   -0.13    0.42
  13   1 -10    0.36    0.22
  13  -1 -10    0.30    0.38
  13  -1 -10    0.05    0.26
 -13  -1  10    0.52    0.13
 -13   1   9    1.61    0.18
  13   1  -9    0.69    0.31
  13   1  -9    1.44    0.28
 -13   1   9    1.68    0.20
 -13   1   9    1.28    0.23
  13  -1  -9    0.72    0.46
 -13  -1   9    1.27    0.17
  13  -1  -9    1.86    0.36
 -13   1   8   -0.10    0.18
  13   1  -8    0.36    0.37
  13   1  -8   -0.09    0.21
 -13  -1   8    0.09    0.12
  13  -1  -8   -0.44    0.24
  13  -1  -8   -0.08    0.35
  13   1  -7   -0.25    0.27
 -13   1   7    0.16    0.19
 -13   1   7    0.11    0.17
  13   1  -7   -0.06    0.23
  13  -1  -7    0.20    0.27
 -13  -1   7   -0.02    0.12
 -13  -1   7    0.03    0.19
  13  -1  -7    0.37    0.30
  13   1  -6    1.46    0.32
  13   1  -6    1.08    0.35
 -13  -1   6    1.04    0.17
  13  -1  -6    1.50    0.35
  13  -1  -6    1.29    0.31
  13   1  -5   21.54    1.17
  13   1  -5   23.21    1.08
 -13  -1   5   22.53    0.95
  13  -1  -5   22.56    1.07
  13  -1  -5   23.18    1.15
  13   1  -4   17.16    0.86
  13   1  -4   18.10    0.86
  13  -1  -4   16.85    0.95
 -13  -1   4   17.01    0.76
  13  -1  -4   17.23    0.84
  13   1  -3   20.92    0.96
  13   1  -3   21.20    0.95
  13  -1  -3   21.68    1.05
 -13  -1   3   20.86    0.91
  13   1  -2   26.31    1.12
  13   1  -2   27.09    1.13
  13  -1  -2   25.60    1.16
  13  -1  -2   25.94    1.20
 -13  -1   2   26.80    1.10
  13   1  -1    6.23    0.42
  13   1  -1    7.11    0.45
 -13   1   1    6.08    0.29
  13  -1  -1    6.22    0.31
  13  -1  -1    5.19    0.46
 -13  -1   1    7.41    0.44
  13  -1  -1    6.17    0.52
  13  -1  -1    6.37    0.38
  13   1   0   35.22    1.45
  13   1   0   34.24    1.43
 -13   1   0   34.93    1.33
  13  -1   0   35.32    1.47
  13  -1   0   34.88    1.36
  13  -1   0   34.68    1.42
  13  -1   0   37.66    1.48
  13   1   1    9.33    0.55
 -13   1  -1    9.58    0.42
  13   1   1    8.97    0.41
  13  -1   1    9.64    0.58
  13  -1   1    9.59    0.51
  13  -1   1    9.26    0.44
  13   1   2    3.95    0.26
  13   1   2    3.47    0.39
 -13   1  -2    4.11    0.38
  13   1   2    4.00    0.37
 -13  -1  -2    3.82    0.29
  13  -1   2    4.19    0.41
  13  -1   2    4.00    0.28
 -13   1  -3    1.54    0.15
  13   1   3    1.47    0.17
  13   1   3    1.27    0.24
  13   1   3    1.36    0.33
 -13  -1  -3    1.99    0.19
  13  -1   3    1.51    0.19
  13   1   4    4.82    0.44
  13   1   4    4.54    0.47
 -13   1  -4    5.35    0.36
  13   1   4    4.66    0.34
 -13  -1  -4    5.13    0.35
  13  -1   4    4.84    0.35
  13  -1   4    4.97    0.49
  13  -1   4    4.69    0.45
  13   1   5    3.77    0.35
  13   1   5    3.67    0.45
  13  -1   5    4.13    0.44
  13  -1   5    3.34    0.49
  13  -1   5    3.57    0.38
 -13   1  -6    6.65    0.59
  13   1   6    6.80    0.45
  13   1   6    6.48    0.56
 -13  -1  -6    7.10    0.47
  13  -1   6    6.78    0.48
  13  -1   6    6.10    0.52
  13   1   7    0.46    0.26
  13   1   7    0.61    0.20
  13  -1   7    0.51    0.23
  13  -1   7    0.40    0.22
  13   1   8   -0.36    0.20
  13   1   8    0.09    0.25
  13  -1   8    0.12    0.23
  13  -1   8   -0.26    0.20
 -13   2  11    0.23    0.16
  13   2 -11   -0.45    0.46
  13  -2 -11   -0.26    0.38
  13  -2 -11   -0.05    0.31
  13   2 -10    0.42    0.17
 -13   2  10    0.81    0.25
 -13   2  10    0.30    0.14
  13   2 -10    0.29    0.52
  13  -2 -10    0.33    0.30
  13  -2 -10    0.27    0.38
 -13  -2  10    0.49    0.11
 -13   2   9    0.03    0.25
 -13   2   9   -0.24    0.15
  13   2  -9   -0.40    0.29
  13   2  -9   -0.14    0.16
  13  -2  -9   -0.29    0.25
  13  -2  -9   -0.23    0.31
 -13  -2   9    0.01    0.10
  13   2  -8    0.34    0.36
  13   2  -8    0.10    0.20
 -13   2   8    0.34    0.12
 -13   2   8    0.34    0.24
  13  -2  -8    0.22    0.37
 -13  -2   8    0.33    0.21
  13  -2  -8    0.17    0.30
 -13   2   7    2.37    0.29
  13   2  -7    2.42    0.31
 -13   2   7    2.09    0.28
 -13   2   7    1.95    0.29
  13   2  -7    2.15    0.38
 -13   2   7    1.90    0.22
  13  -2  -7    2.42    0.39
  13  -2  -7    2.54    0.41
  13   2  -6    0.17    0.22
 -13   2   6    0.25    0.11
 -13   2   6    0.19    0.13
  13   2  -6    0.14    0.26
 -13   2   6    0.02    0.22
  13  -2  -6    0.41    0.63
  13  -2  -6    0.21    0.28
 -13  -2   6    0.30    0.13
 -13   2   5    9.64    0.50
  13   2  -5    8.07    0.56
 -13   2   5    9.18    0.43
  13   2  -5    8.09    0.71
  13  -2  -5    7.98    0.62
 -13  -2   5    8.85    0.47
  13  -2  -5    7.50    0.71
  13   2  -4   13.18    0.73
 -13   2   4   13.97    0.57
  13   2  -4   12.82    0.73
  13  -2  -4   13.36    0.87
 -13  -2   4   13.53    0.64
  13  -2  -4   12.52    0.70
  13   2  -3    1.35    0.21
  13   2  -3    1.71    0.31
 -13   2   3    1.02    0.14
  13  -2  -3    1.55    0.34
  13  -2  -3    1.04    0.19
 -13  -2   3    1.07    0.19
  13   2  -2    0.39    0.17
  13   2  -2    0.61    0.18
 -13   2   2    0.10    0.11
  13  -2  -2    0.33    0.25
  13  -2  -2    0.30    0.14
  13  -2  -2    0.36    0.13
  13   2  -1    8.27    0.50
 -13   2   1    8.88    0.40
  13   2  -1    8.27    0.50
  13  -2  -1    8.60    0.41
  13  -2  -1    7.85    0.64
  13  -2  -1    8.19    0.44
  13  -2  -1    8.71    0.46
 -13   2   0    2.24    0.24
  13   2   0    2.53    0.34
  13   2   0    2.96    0.33
  13  -2   0    2.95    0.25
  13  -2   0    3.08    0.27
  13  -2   0    2.50    0.26
  13  -2   0    3.14    0.36
  13   2   1   19.49    0.86
 -13   2  -1   20.54    0.76
 -13   2  -1   15.64    0.82
  13   2   1   16.92    0.81
  13  -2   1   18.63    0.83
  13  -2   1   19.33    0.93
  13  -2   1   19.51    0.79
  13   2   2    2.63    0.25
  13   2   2    2.27    0.31
 -13   2  -2    3.00    0.26
  13  -2   2    2.56    0.27
  13  -2   2    2.79    0.34
  13  -2   2    2.90    0.31
  13   2   3    0.57    0.20
 -13   2  -3    0.34    0.17
  13   2   3    0.50    0.22
  13   2   3    0.33    0.15
  13  -2   3    0.53    0.15
  13  -2   3    0.62    0.16
  13  -2   3    0.64    0.24
  13   2   4    1.66    0.19
 -13   2  -4    1.87    0.27
 -13   2  -4    1.28    0.16
  13   2   4    1.65    0.26
  13  -2   4    1.33    0.35
  13  -2   4    1.51    0.19
  13  -2   4    1.79    0.27
  13   2   5    2.66    0.34
  13   2   5    2.93    0.34
 -13   2  -5    3.43    0.32
  13  -2   5    3.11    0.34
  13  -2   5    3.07    0.38
  13  -2   5    3.12    0.45
  13   2   6   11.63    0.61
  13   2   6   11.67    0.72
  13  -2   6   11.55    0.70
  13  -2   6   11.36    0.62
  13   2   7    2.15    0.25
  13   2   7    1.04    0.40
  13  -2   7    1.78    0.27
  13  -2   7    2.22    0.31
  13   2   8    1.00    0.30
  13  -2   8    0.79    0.26
  13  -2   8    0.85    0.23
  13   3 -10    0.20    0.44
 -13   3  10    0.64    0.16
 -13   3  10    0.16    0.23
  13  -3 -10    0.11    0.54
  13  -3 -10    0.36    0.35
  13   3  -9   -0.43    0.47
 -13   3   9    0.27    0.18
 -13   3   9    0.25    0.20
 -13   3   9    0.14    0.14
  13  -3  -9   -0.37    0.27
  13  -3  -9    0.01    0.33
  13   3  -8    0.31    0.43
 -13   3   8    0.02    0.16
 -13   3   8    0.24    0.14
 -13   3   8   -0.09    0.19
  13  -3  -8    0.44    0.34
  13  -3  -8   -0.01    0.32
 -13   3   7    1.74    0.25
  13   3  -7    1.62    0.25
  13   3  -7    1.68    0.41
 -13   3   7    1.95    0.22
  13  -3  -7    1.44    0.37
  13  -3  -7    1.87    0.40
 -13   3   6    6.37    0.53
 -13   3   6    6.28    0.41
  13   3  -6    6.16    0.65
  13   3  -6    6.09    0.49
  13  -3  -6    5.97    0.72
  13  -3  -6    6.25    0.68
 -13   3   5    0.32    0.24
  13   3  -5    0.44    0.26
  13   3  -5    0.53    0.20
 -13   3   5    0.58    0.16
 -13   3   5    0.64    0.16
  13  -3  -5    1.00    0.35
  13  -3  -5    0.61    0.26
  13   3  -4    3.62    0.41
 -13   3   4    3.33    0.32
 -13   3   4    2.86    0.41
  13   3  -4    3.26    0.34
  13  -3  -4    2.87    0.42
  13  -3  -4    3.50    0.41
  13   3  -3    8.95    0.58
  13   3  -3    8.93    0.50
 -13   3   3    9.09    0.48
  13  -3  -3    8.66    0.42
  13  -3  -3    9.78    0.76
  13  -3  -3    9.25    0.53
 -13   3   2   16.68    0.70
  13   3  -2   16.12    0.74
  13  -3  -2   15.71    0.73
  13  -3  -2   16.06    1.12
  13  -3  -2   15.39    0.68
 -13   3   1    3.15    0.30
  13   3  -1    2.99    0.44
 -13   3   1    2.85    0.40
  13   3  -1    3.23    0.34
  13   3  -1    2.01    0.27
  13  -3  -1    3.39    0.43
  13  -3  -1    2.83    0.24
  13  -3  -1    2.73    0.27
  13   3   0    3.80    0.35
  13   3   0    3.91    0.38
 -13   3   0    4.43    0.33
  13   3   0    3.77    0.24
  13   3   0    4.15    0.38
  13   3   0    4.17    0.25
 -13   3   0    4.17    0.45
  13  -3   0    4.34    0.29
  13  -3   0    3.71    0.61
  13  -3   0    4.15    0.31
  13  -3   0    3.87    0.29
  13   3   1    1.53    0.28
 -13   3  -1    1.48    0.24
  13   3   1    1.44    0.21
  13   3   1    1.50    0.22
  13   3   1    1.77    0.21
  13  -3   1    1.75    0.26
  13  -3   1    1.63    0.22
  13  -3   1    1.92    0.26
  13  -3   1    1.78    0.39
  13   3   2    0.69    0.22
 -13   3  -2    1.01    0.21
  13   3   2    0.92    0.15
  13   3   2    0.76    0.24
  13  -3   2    1.03    0.18
  13  -3   2    0.89    0.19
  13  -3   2    1.19    0.30
  13   3   3    2.85    0.28
 -13   3  -3    2.73    0.37
  13   3   3    2.34    0.29
  13  -3   3    2.99    0.38
  13  -3   3    2.82    0.36
  13  -3   3    3.02    0.39
  13   3   4    0.33    0.24
 -13   3  -4    0.21    0.16
  13   3   4    0.25    0.16
  13  -3   4    0.11    0.17
  13  -3   4    0.28    0.26
  13   3   5    0.13    0.23
  13   3   5    0.24    0.18
  13  -3   5    0.62    0.26
  13  -3   5    0.17    0.17
  13   3   6    0.00    0.18
  13   3   6   -0.20    0.27
  13  -3   6    0.02    0.38
  13  -3   6    0.18    0.25
  13  -3   6    0.07    0.17
  13   3   7    0.07    0.25
  13   3   7    0.21    0.19
  13  -3   7    0.17    0.25
  13  -3   7    0.06    0.29
  13   4  -9    0.76    0.58
 -13   4   9    0.92    0.18
  13  -4  -9    0.88    0.38
  13  -4  -9    0.57    0.47
 -13   4   8   -0.10    0.14
  13   4  -8    0.22    0.29
 -13   4   8    0.00    0.21
  13  -4  -8   -0.05    0.23
  13  -4  -8   -0.38    0.42
 -13   4   7    0.20    0.26
 -13   4   7    0.30    0.29
  13   4  -7   -0.32    0.33
  13  -4  -7   -0.22    0.32
  13  -4  -7    0.19    0.38
 -13   4   6    0.13    0.17
 -13   4   6    1.15    0.21
  13   4  -6    0.45    0.33
  13  -4  -6    0.41    0.36
  13  -4  -6    0.15    0.21
 -13   4   5   -0.26    0.21
  13   4  -5    0.02    0.18
  13   4  -5    0.02    0.25
  13  -4  -5   -0.09    0.20
  13  -4  -5    0.00    0.29
  13   4  -4    0.28    0.18
  13   4  -4   -0.23    0.20
  13  -4  -4    0.00    0.31
  13   4  -3    2.84    0.32
  13   4  -3    3.04    0.41
  13  -4  -3    3.14    0.47
  13   4  -2    0.58    0.11
  13   4  -2    0.45    0.18
  13   4  -2    0.53    0.23
  13  -4  -2    0.32    0.28
  13   4  -1    0.96    0.13
  13   4  -1    1.08    0.20
  13   4  -1    1.32    0.27
  13   4  -1    1.14    0.14
 -13   4   1    0.30    0.23
  13  -4  -1    0.96    0.17
  13  -4  -1    0.49    0.32
 -13   4   0    3.18    0.42
  13   4   0    3.64    0.26
  13   4   0    3.81    0.40
  13   4   0    3.29    0.48
  13  -4   0    3.67    0.32
  13  -4   0    3.74    0.49
  13   4   1    2.57    0.38
 -13   4  -1    3.51    0.41
  13   4   1    2.89    0.37
  13   4   1    2.24    0.29
  13   4   1    2.49    0.29
  13   4   1    2.55    0.26
  13  -4   1    2.11    0.32
  13  -4   1    2.88    0.43
  13  -4   1    2.02    0.30
  13   4   2    5.94    0.39
  13   4   2    6.04    0.37
 -13   4  -2    6.32    0.46
  13   4   2    6.59    0.52
  13  -4   2    5.16    0.46
  13  -4   2    6.62    0.69
  13  -4   2    6.52    0.44
  13  -4   2    6.01    0.34
  13   4   3    1.24    0.27
  13   4   3    0.86    0.18
  13   4   3    0.90    0.18
  13  -4   3    0.92    0.20
  13  -4   3    1.44    0.36
  13   4   4    0.02    0.16
  13   4   4    0.10    0.13
  13   4   4    0.10    0.23
  13  -4   4   -0.06    0.28
  13  -4   4    0.26    0.18
  13  -4   4    0.02    0.24
  13   4   5   -0.09    0.36
  13   4   5   -0.09    0.17
  13  -4   5   -0.08    0.16
  13  -4   5    0.01    0.29
  13   4   6    2.47    0.39
  13   4   6    1.75    0.23
  13  -4   6    1.41    0.34
  13  -4   6    1.91    0.26
 -13   5   7   -0.07    0.16
  13   5  -7    0.18    0.43
  13  -5  -7    0.62    0.38
  13   5  -6    0.51    0.35
 -13   5   6    0.51    0.21
  13  -5  -6    0.25    0.37
  13   5  -5    0.46    0.18
  13   5  -5    0.08    0.30
  13   5  -5    0.43    0.14
  13  -5  -5    0.73    0.33
  13   5  -4    0.22    0.26
  13   5  -4    0.09    0.16
  13   5  -4   -0.07    0.18
  13  -5  -4    0.01    0.32
  13   5  -3    0.42    0.22
  13   5  -3    0.27    0.13
  13   5  -3    0.08    0.18
  13   5  -3    0.22    0.16
  13  -5  -3    0.40    0.34
  13   5  -2    0.05    0.19
  13   5  -2    0.25    0.12
  13   5  -2    0.20    0.14
  13   5  -2    0.15    0.19
  13   5  -2    0.21    0.17
  13  -5  -2    0.19    0.32
  13   5  -1   -0.03    0.22
  13   5  -1    0.02    0.13
  13   5  -1   -0.02    0.19
  13   5  -1    0.22    0.25
  13   5  -1   -0.07    0.20
  13  -5  -1    0.18    0.31
  13   5   0    0.68    0.16
  13   5   0    0.46    0.23
  13   5   0    0.55    0.17
  13   5   0    0.58    0.23
  13  -5   0    0.26    0.17
  13  -5   0    0.39    0.33
  13   5   1    4.39    0.48
  13   5   1    5.19    0.36
  13   5   1    4.89    0.48
  13   5   1    4.21    0.36
  13  -5   1    5.36    0.44
  13  -5   1    5.15    0.68
  13   5   2    2.43    0.31
  13   5   2    1.89    0.30
  13   5   2    2.18    0.31
  13   5   2    2.22    0.34
  13  -5   2    2.51    0.44
  13  -5   2    2.75    0.37
  13   5   3    0.39    0.18
  13   5   3    0.26    0.24
  13   5   3    0.24    0.25
  13  -5   3    0.29    0.20
  13  -5   3    0.25    0.31
  13   5   4    0.41    0.18
  13   5   4    0.26    0.25
  13  -5   4    0.32    0.30
  13  -5   4    0.54    0.22
  13   6  -3    0.30    0.17
  13   6  -3    0.25    0.17
  13  -6  -3    0.28    0.36
  13   6  -2   -0.20    0.17
  13   6  -2    0.02    0.16
  13   6  -2   -0.50    0.27
  13   6  -2    0.23    0.24
  13  -6  -2    0.38    0.33
  13   6  -1    0.27    0.20
  13   6  -1    0.49    0.30
  13   6  -1    0.08    0.24
  13  -6  -1    0.50    0.41
  14   0 -11   -0.12    0.49
  14   0 -11    0.03    0.24
 -14   0  10   -0.09    0.15
  14   0 -10    0.31    0.25
  14   0 -10    0.26    0.40
  14   0  -9   -0.12    0.26
  14   0  -9    0.20    0.36
  14   0  -8    0.38    0.28
 -14   0   8    0.33    0.14
  14   0  -8    0.80    0.28
  14   0  -7    0.24    0.28
  14   0  -7   -0.04    0.24
  14   0  -6    0.37    0.25
  14   0  -6    0.43    0.27
  14   0  -5   -0.21    0.18
  14   0  -5   -0.23    0.23
  14   0  -4    0.01    0.15
  14   0  -4    0.18    0.24
  14   0  -3    0.00    0.15
  14   0  -3   -0.31    0.22
  14   0  -2    7.01    0.54
  14   0  -2    7.21    0.45
  14   0  -1    0.56    0.22
  14   0  -1    0.43    0.16
  14   0   0    6.97    0.43
  14   0   0    6.24    0.48
 -14   0  -1   -0.12    0.09
  14   0   1   -0.01    0.18
  14   0   2    1.02    0.27
  14   0   2    0.61    0.13
  14   0   2    0.59    0.17
 -14   0  -2    0.72    0.12
  14   0   3    0.09    0.16
 -14   0  -3   -0.10    0.11
  14   0   3    0.14    0.20
  14   0   3    0.12    0.28
  14   0   4    0.84    0.17
  14   0   4    1.16    0.25
 -14   0  -4    0.93    0.15
  14   0   4    0.55    0.22
  14   0   5   -0.02    0.19
  14   0   5    0.13    0.17
  14   0   6    3.79    0.46
  14   0   6    4.25    0.40
  14   0   7    0.11    0.23
  14   0   7    0.14    0.19
  14   1 -11    1.31    0.57
  14   1 -11    0.80    0.26
  14  -1 -11    1.25    0.35
  14  -1 -11    0.57    0.59
  14   1 -10   -0.06    0.39
  14   1 -10    0.02    0.22
  14  -1 -10    0.20    0.28
  14  -1 -10   -0.17    0.38
  14   1  -9   -0.21    0.21
  14   1  -9   -0.03    0.40
  14  -1  -9    0.24    0.27
  14  -1  -9    0.46    0.43
 -14   1   8    2.61    0.31
  14   1  -8    3.11    0.37
 -14   1   8    2.64    0.38
  14   1  -8    1.70    0.35
 -14  -1   8    2.41    0.26
  14  -1  -8    2.50    0.40
  14  -1  -8    2.90    0.48
  14   1  -7    0.28    0.30
  14   1  -7    0.30    0.25
 -14   1   7    0.27    0.21
 -14  -1   7    0.29    0.13
  14  -1  -7    0.17    0.36
  14   1  -6    0.21    0.24
  14   1  -6    0.10    0.25
 -14   1   6    0.30    0.20
 -14  -1   6    0.05    0.13
  14  -1  -6    0.09    0.27
  14  -1  -6    0.05    0.26
  14   1  -5    0.25    0.22
 -14   1   5    0.40    0.17
  14   1  -5    0.40    0.23
 -14  -1   5    0.23    0.12
  14  -1  -5    0.30    0.27
  14  -1  -5    0.26    0.22
  14   1  -4    3.96    0.39
  14   1  -4    3.59    0.46
 -14  -1   4    4.02    0.31
  14  -1  -4    3.74    0.43
  14  -1  -4    3.76    0.39
  14   1  -3    2.41    0.28
  14   1  -3    2.53    0.33
  14  -1  -3    2.55    0.32
  14  -1  -3    2.49    0.35
 -14  -1   3    1.92    0.27
  14   1  -2   25.19    1.11
  14   1  -2   26.73    1.12
  14  -1  -2   24.60    1.05
  14  -1  -2   25.72    1.19
  14  -1  -2   25.70    1.09
 -14   1   1   11.08    0.44
  14   1  -1   11.02    0.59
  14   1  -1   10.70    0.59
  14  -1  -1   10.62    0.55
  14  -1  -1   10.24    0.53
  14  -1  -1   10.68    0.46
  14  -1  -1   10.88    0.66
  14   1   0    3.15    0.34
 -14   1   0    3.55    0.21
  14   1   0    3.35    0.32
  14   1   0    3.66    0.40
  14  -1   0    2.87    0.30
  14  -1   0    2.66    0.26
  14  -1   0    2.88    0.43
  14   1   1    5.44    0.45
 -14   1  -1    5.93    0.31
  14   1   1    5.96    0.30
  14  -1   1    6.03    0.33
  14  -1   1    6.28    0.61
  14   1   2    4.45    0.42
  14   1   2    4.05    0.38
  14   1   2    3.85    0.27
 -14   1  -2    3.94    0.26
  14  -1   2    4.21    0.29
  14  -1   2    4.17    0.44
 -14   1  -3    0.20    0.11
  14   1   3    0.17    0.19
 -14   1  -3    0.31    0.17
  14   1   3   -0.01    0.13
  14   1   3    0.29    0.17
 -14  -1  -3    0.06    0.13
  14  -1   3    0.20    0.14
  14  -1   3    0.46    0.18
  14  -1   3    0.12    0.17
  14   1   4    0.36    0.15
  14   1   4    0.28    0.21
  14  -1   4    0.46    0.19
 -14  -1  -4    0.75    0.16
  14  -1   4    0.53    0.23
  14  -1   4    0.67    0.18
  14   1   5    1.04    0.25
  14   1   5    0.95    0.18
 -14   1  -5    1.24    0.17
  14  -1   5    0.81    0.19
 -14  -1  -5    0.56    0.25
  14  -1   5    0.60    0.24
  14   1   6    7.11    0.58
  14   1   6    8.08    0.48
  14  -1   6    7.21    0.57
  14  -1   6    7.77    0.51
  14   1   7    0.14    0.27
  14   1   7    0.06    0.18
  14  -1   7    0.04    0.21
  14  -1   7    0.13    0.23
  14   2 -10    1.31    0.44
 -14   2  10    2.78    0.36
 -14   2  10    1.75    0.25
  14  -2 -10    1.16    0.47
  14  -2 -10    1.61    0.40
 -14   2   9    1.82    0.23
 -14   2   9    1.71    0.21
  14   2  -9    1.74    0.54
  14   2  -9    1.47    0.27
  14  -2  -9    1.90    0.42
  14  -2  -9    1.98    0.47
 -14  -2   9    1.56    0.18
 -14   2   8    5.38    0.48
  14   2  -8    4.44    0.59
 -14   2   8    4.41    0.27
  14   2  -8    3.36    0.51
 -14   2   8    4.43    0.34
  14  -2  -8    3.80    0.49
 -14  -2   8    4.03    0.30
  14  -2  -8    4.21    0.53
 -14   2   7    8.64    0.43
  14   2  -7    9.20    0.76
 -14   2   7    8.50    0.38
 -14  -2   7    8.10    0.44
  14  -2  -7    8.20    0.72
  14  -2  -7    7.07    0.74
  14   2  -6    0.62    0.26
 -14   2   6    0.36    0.23
 -14   2   6    0.69    0.13
  14   2  -6    0.44    0.29
  14  -2  -6    0.44    0.27
 -14  -2   6    0.39    0.14
  14  -2  -6    0.60    0.31
 -14   2   5    4.43    0.25
 -14   2   5    4.23    0.43
  14   2  -5    3.62    0.44
 -14   2   5    3.96    0.28
  14   2  -5    4.18    0.48
  14  -2  -5    4.01    0.47
  14  -2  -5    4.52    0.62
 -14  -2   5    4.50    0.35
 -14   2   4    6.15    0.31
  14   2  -4    5.06    0.46
 -14   2   4    6.07    0.46
  14   2  -4    5.36    0.47
 -14  -2   4    5.61    0.40
  14  -2  -4    5.74    0.45
  14  -2  -4    5.25    0.67
 -14   2   3    2.15    0.22
  14   2  -3    2.28    0.34
 -14  -2   3    2.69    0.29
  14   2  -2    7.79    0.49
  14   2  -2    7.34    0.69
 -14   2   2    7.72    0.37
  14  -2  -2    7.17    1.06
  14  -2  -2    8.05    0.41
  14  -2  -2    8.28    0.52
  14   2  -1    1.88    0.41
 -14   2   1    1.95    0.21
  14   2  -1    2.14    0.25
  14  -2  -1    1.93    0.20
  14  -2  -1    1.91    0.23
 -14   2   0    9.77    0.51
  14   2   0    9.79    0.58
  14   2   0   10.26    0.60
  14  -2   0    9.16    0.78
  14  -2   0    9.33    0.51
  14  -2   0   10.83    0.52
  14  -2   0   10.36    0.48
  14   2   1    3.50    0.35
 -14   2  -1    2.42    0.33
 -14   2  -1    3.09    0.25
  14   2   1    2.36    0.28
  14  -2   1    3.31    0.30
  14  -2   1    3.57    0.47
  14  -2   1    2.88    0.29
  14  -2   1    3.08    0.30
  14   2   2    0.23    0.17
  14   2   2    0.25    0.19
  14   2   2    0.25    0.13
 -14   2  -2    0.55    0.18
 -14   2  -2    0.50    0.13
  14  -2   2    0.40    0.14
  14  -2   2    0.55    0.26
  14  -2   2    0.29    0.13
 -14   2  -3    0.24    0.19
  14   2   3    0.13    0.20
  14   2   3    0.38    0.23
  14  -2   3    0.16    0.14
  14  -2   3    0.33    0.24
 -14   2  -4    0.83    0.25
  14   2   4    0.35    0.16
  14   2   4    0.33    0.23
  14  -2   4    0.17    0.23
  14   2   5    3.37    0.48
  14  -2   5    3.43    0.34
  14  -2   5    3.18    0.48
  14  -2   5    2.99    0.51
  14   2   6    0.26    0.30
  14   2   6    0.24    0.19
  14  -2   6    0.17    0.24
  14  -2   6    0.18    0.16
  14   2   7   -0.08    0.25
  14   2   7    0.69    0.22
  14  -2   7    0.98    0.25
  14  -2   7    0.39    0.25
  14   3 -10    0.93    0.54
 -14   3  10    0.42    0.24
 -14   3  10    0.44    0.25
  14  -3 -10    0.63    0.36
  14  -3 -10    0.53    0.35
 -14   3   9    2.22    0.26
  14   3  -9    0.83    0.41
  14  -3  -9    1.72    0.45
  14  -3  -9    2.03    0.41
 -14   3   8    3.75    0.36
  14   3  -8    2.48    0.51
  14   3  -8    3.21    0.37
 -14   3   8    2.65    0.28
  14  -3  -8    3.25    0.50
  14  -3  -8    3.01    0.52
  14   3  -7    2.71    0.47
  14   3  -7    3.25    0.44
 -14   3   7    3.19    0.35
 -14   3   7    3.19    0.28
  14  -3  -7    3.41    0.44
  14  -3  -7    3.18    0.50
 -14   3   6    3.23    0.32
 -14   3   6    2.90    0.32
  14   3  -6    2.95    0.33
  14   3  -6    3.42    0.45
  14  -3  -6    3.08    0.48
  14  -3  -6    3.07    0.39
  14   3  -5   -0.17    0.21
  14   3  -5    0.04    0.22
 -14   3   5    0.12    0.14
 -14   3   5    0.00    0.14
  14  -3  -5    0.14    0.39
  14  -3  -5    0.31    0.30
  14   3  -4    1.13    0.29
  14   3  -4    1.12    0.22
 -14   3   4    0.79    0.17
  14  -3  -4    0.77    0.33
  14  -3  -4    1.01    0.25
 -14   3   3    0.04    0.18
  14   3  -3    0.06    0.16
 -14   3   3    0.06    0.15
  14   3  -3    0.32    0.21
  14  -3  -3    0.17    0.18
  14  -3  -3    0.21    0.29
 -14   3   2    3.09    0.31
  14   3  -2    3.24    0.36
 -14   3   2    2.77    0.36
  14   3  -2    3.21    0.36
  14   3  -2    2.91    0.33
  14  -3  -2    2.94    0.44
  14  -3  -2    3.37    0.25
  14  -3  -2    3.70    0.33
  14   3  -1    0.16    0.16
  14   3  -1   -0.03    0.13
 -14   3   1    0.05    0.14
  14   3  -1    0.11    0.17
 -14   3   1    0.10    0.17
  14  -3  -1    0.17    0.11
  14  -3  -1   -0.01    0.27
  14  -3  -1    0.18    0.14
  14  -3  -1    0.08    0.12
 -14   3   0    0.50    0.19
 -14   3   0    0.65    0.15
  14   3   0    0.56    0.37
  14   3   0    0.52    0.20
  14  -3   0    0.46    0.29
  14  -3   0    0.40    0.14
  14  -3   0    0.56    0.17
  14  -3   0    0.54    0.14
 -14   3  -1    0.62    0.23
  14   3   1    0.42    0.12
  14   3   1    0.59    0.12
  14   3   1    0.32    0.19
  14   3   1    0.25    0.15
  14  -3   1    0.46    0.15
  14  -3   1    0.71    0.31
  14  -3   1    0.37    0.14
  14  -3   1    0.61    0.14
  14   3   2    0.14    0.21
 -14   3  -2    0.10    0.13
  14   3   2    0.18    0.11
  14   3   2   -0.02    0.13
  14  -3   2    0.13    0.27
  14  -3   2    0.05    0.13
  14  -3   2    0.53    0.14
  14  -3   2    0.16    0.15
  14   3   3    0.18    0.14
  14   3   3   -0.05    0.21
 -14   3  -3    0.12    0.15
  14  -3   3    0.35    0.28
  14  -3   3    0.14    0.16
  14  -3   3    0.32    0.16
  14   3   4    0.65    0.26
  14   3   4    0.75    0.18
  14  -3   4    0.91    0.19
  14  -3   4    1.06    0.30
  14  -3   4    0.84    0.25
  14   3   5   -0.08    0.17
  14   3   5   -0.12    0.26
  14  -3   5    0.07    0.28
  14  -3   5   -0.13    0.25
  14  -3   5   -0.12    0.17
  14   3   6    0.26    0.19
  14   3   6   -0.11    0.25
  14  -3   6   -0.11    0.24
  14  -3   6    0.34    0.20
 -14   4   8    0.15    0.15
 -14   4   8    0.21    0.24
  14   4  -8    0.16    0.40
  14  -4  -8    0.13    0.34
  14  -4  -8    0.18    0.24
 -14   4   7    0.15    0.22
  14   4  -7    0.43    0.38
  14  -4  -7   -0.20    0.22
  14  -4  -7    0.06    0.44
  14   4  -6    0.27    0.33
 -14   4   6    0.18    0.17
  14   4  -6    0.05    0.20
  14  -4  -6   -0.27    0.30
  14  -4  -6   -0.11    0.23
  14   4  -5    2.20    0.28
  14   4  -5    2.44    0.39
  14  -4  -5    2.58    0.29
  14  -4  -5    2.17    0.19
  14  -4  -5    2.91    0.48
  14   4  -4    0.45    0.23
  14   4  -4    0.71    0.19
  14  -4  -4    1.20    0.39
  14  -4  -4    0.69    0.10
  14   4  -3    0.64    0.18
  14   4  -3    0.38    0.22
  14  -4  -3    0.20    0.33
 -14   4   2   -0.29    0.16
  14   4  -2    0.06    0.17
  14   4  -2    0.01    0.18
  14  -4  -2   -0.02    0.32
  14   4  -1    0.29    0.21
 -14   4   1    0.75    0.19
  14   4  -1    0.48    0.28
  14  -4  -1    0.40    0.32
  14  -4  -1    0.16    0.14
  14   4   0    0.91    0.22
 -14   4   0    0.97    0.32
  14   4   0    0.33    0.21
  14   4   0    0.49    0.12
  14   4   0    0.72    0.13
  14  -4   0    0.28    0.30
  14   4   1    0.23    0.22
  14   4   1    0.19    0.17
 -14   4  -1    0.19    0.18
  14   4   1    0.15    0.12
  14   4   1   -0.13    0.19
  14  -4   1    0.33    0.17
  14  -4   1    0.25    0.12
  14  -4   1    0.03    0.31
  14  -4   1    0.18    0.17
  14   4   2    0.29    0.23
  14   4   2    0.02    0.12
  14   4   2    0.34    0.24
  14   4   2    0.37    0.15
  14  -4   2    0.08    0.12
  14  -4   2    0.17    0.18
  14  -4   2   -0.04    0.19
  14  -4   2    0.37    0.32
  14   4   3    1.31    0.24
  14   4   3    1.19    0.28
  14   4   3    1.37    0.19
  14  -4   3    1.03    0.21
  14  -4   3    1.29    0.37
  14  -4   3    1.29    0.27
  14   4   4    0.02    0.16
  14   4   4   -0.02    0.31
  14   4   4   -0.26    0.16
  14  -4   4    0.17    0.30
  14  -4   4    0.77    0.23
  14  -4   4    0.10    0.17
  14   4   5    0.84    0.20
  14   4   5    0.40    0.27
  14  -4   5    0.43    0.31
 -14   5   6    0.12    0.20
  14   5  -6   -0.05    0.35
  14  -5  -6    0.27    0.36
  14   5  -5    0.12    0.25
  14   5  -5    0.19    0.18
  14   5  -5    0.13    0.33
  14  -5  -5   -0.06    0.39
  14   5  -4    0.81    0.30
  14   5  -4    0.61    0.19
  14   5  -4    0.74    0.20
  14   5  -3    0.68    0.24
  14   5  -3    0.73    0.31
  14   5  -3    1.09    0.21
  14  -5  -3    0.91    0.38
  14   5  -2    0.40    0.25
  14   5  -2    0.48    0.25
  14   5  -2    0.43    0.14
  14   5  -2    0.61    0.22
  14  -5  -2    0.85    0.40
  14   5  -1    1.82    0.26
  14   5  -1    2.32    0.25
  14   5  -1    1.77    0.22
  14   5  -1    1.79    0.34
  14  -5  -1    1.24    0.41
  14   5   0    2.22    0.27
  14   5   0    1.80    0.29
  14   5   0    1.78    0.31
  14   5   0    2.36    0.28
  14  -5   0    1.89    0.42
  14   5   1    0.26    0.16
  14   5   1    0.47    0.25
  14   5   1    0.68    0.16
  14   5   1    0.15    0.23
  14  -5   1    0.54    0.19
  14  -5   1    0.23    0.33
  14   5   2    0.63    0.20
  14   5   2    0.44    0.25
  14   5   2    0.55    0.32
  14   5   2    0.42    0.16
  14  -5   2    0.42    0.36
  14  -5   2    0.41    0.19
  15   0 -11    0.11    0.26
  15   0 -10    0.08    0.48
  15   0 -10    0.04    0.26
  15   0  -9    0.15    0.25
 -15   0   9    0.15    0.15
  15   0  -9   -0.27    0.34
  15   0  -8    1.55    0.42
  15   0  -8    1.11    0.38
 -15   0   8    2.24    0.30
  15   0  -7   -0.21    0.26
  15   0  -7   -0.07    0.27
 -15   0   6    0.31    0.13
  15   0  -6    0.06    0.25
  15   0  -6    0.36    0.27
  15   0  -5    0.09    0.22
 -15   0   5    0.29    0.13
  15   0  -5    0.29    0.26
  15   0  -4    7.10    0.59
 -15   0   4    4.76    0.36
  15   0  -4    6.43    0.47
  15   0  -3    0.17    0.23
 -15   0   3    0.25    0.12
  15   0  -3    0.11    0.17
  15   0  -2   11.63    0.66
  15   0  -2   10.51    0.57
 -15   0   2    9.07    0.53
  15   0  -1    0.20    0.12
  15   0  -1   -0.11    0.21
  15   0  -1    0.03    0.15
  15   0   0    1.78    0.25
  15   0   0    2.70    0.29
  15   0   0    2.03    0.29
 -15   0   0    2.26    0.30
  15   0   1   -0.12    0.18
 -15   0  -1    0.08    0.09
  15   0   1   -0.08    0.10
 -15   0  -1   -0.02    0.11
  15   0   2   26.39    1.20
  15   0   2   26.58    1.18
  15   0   2   27.18    1.06
  15   0   3    0.06    0.19
  15   0   3   -0.02    0.13
  15   0   3    0.02    0.20
 -15   0  -3   -0.18    0.11
  15   0   4    7.46    0.55
  15   0   4    7.15    0.44
 -15   0  -5    0.15    0.14
  15   0   5   -0.10    0.17
  15   0   5   -0.25    0.19
  15   0   6    4.87    0.55
  15   0   6    5.03    0.43
  15   0   7   -0.20    0.22
  15   0   7   -0.06    0.20
  15   1 -10    0.28    0.24
  15   1 -10    0.21    0.56
 -15  -1  10    0.50    0.14
  15  -1 -10   -0.25    0.41
  15  -1 -10    0.04    0.31
  15   1  -9    0.39    0.25
  15   1  -9   -0.12    0.34
  15  -1  -9   -0.12    0.28
  15  -1  -9    0.16    0.38
  15   1  -8    0.15    0.29
  15   1  -8    0.53    0.27
  15  -1  -8    0.58    0.31
  15  -1  -8   -0.06    0.31
  15   1  -7    0.02    0.24
  15   1  -7   -0.04    0.29
 -15   1   7   -0.23    0.16
  15  -1  -7   -0.04    0.27
  15  -1  -7   -0.02    0.24
 -15   1   6    3.35    0.39
  15   1  -6    3.42    0.51
  15   1  -6    4.10    0.53
  15  -1  -6    3.78    0.56
  15  -1  -6    3.94    0.47
  15   1  -5    0.59    0.27
 -15   1   5    0.43    0.17
  15   1  -5    0.46    0.24
  15  -1  -5    0.80    0.39
  15  -1  -5    0.17    0.22
 -15   1   4    0.31    0.19
  15   1  -4    0.10    0.22
  15   1  -4    0.18    0.18
  15  -1  -4    0.06    0.19
  15   1  -3    2.50    0.30
  15  -1  -3    2.83    0.32
  15   1  -2   11.25    0.66
 -15   1   2   13.96    0.84
  15  -1  -2   11.81    0.62
  15   1  -1    1.37    0.24
  15   1  -1    1.32    0.23
  15  -1  -1    1.29    0.32
  15  -1  -1    1.13    0.20
  15   1   0    0.93    0.18
  15   1   0    1.30    0.33
  15   1   0    0.73    0.17
 -15   1   0    1.46    0.17
  15  -1   0    0.97    0.25
 -15  -1   0    0.89    0.23
  15  -1   0    0.86    0.19
 -15   1  -1    4.04    0.26
  15   1   1    4.46    0.40
  15   1   1    4.01    0.43
  15  -1   1    4.53    0.28
  15  -1   1    3.87    0.35
  15  -1   1    4.39    0.39
  15  -1   1    4.33    0.46
  15   1   2    0.67    0.25
 -15   1  -2    0.89    0.13
  15   1   2    0.89    0.23
  15   1   2    0.95    0.14
  15  -1   2    0.83    0.24
  15  -1   2    0.47    0.15
  15   1   3    9.73    0.62
 -15   1  -3    9.38    0.46
  15   1   3   10.24    0.62
  15  -1   3    9.96    0.49
  15  -1   3   10.13    0.62
  15  -1   3    9.57    0.62
  15   1   4    2.84    0.30
  15   1   4    3.14    0.44
  15  -1   4    2.61    0.30
  15  -1   4    2.29    0.29
  15   1   5    0.65    0.25
 -15   1  -5    0.56    0.16
  15   1   5    1.00    0.29
  15  -1   5    0.50    0.24
 -15  -1  -5    0.90    0.19
  15  -1   5    0.50    0.18
  15   1   6    0.12    0.18
  15   1   6    0.57    0.36
  15  -1   6    0.20    0.25
  15  -1   6    0.09    0.16
  15   1   7    3.21    0.41
  15  -1   7    2.96    0.39
 -15   2  10    0.19    0.21
  15   2 -10    0.52    0.48
  15   2 -10    0.38    0.24
 -15  -2  10    0.48    0.15
  15  -2 -10    0.60    0.41
  15  -2 -10    0.35    0.37
 -15   2   9    2.84    0.37
  15   2  -9    2.04    0.59
  15   2  -9    2.50    0.33
  15  -2  -9    2.48    0.47
 -15  -2   9    1.97    0.27
  15  -2  -9    2.65    0.49
  15   2  -8    0.08    0.25
  15   2  -8    0.67    0.41
  15  -2  -8    0.19    0.31
 -15  -2   8    0.47    0.15
  15  -2  -8    0.52    0.36
  15   2  -7    0.09    0.25
  15   2  -7    0.36    0.33
 -15  -2   7    0.34    0.14
  15  -2  -7    0.26    0.33
  15   2  -6    0.98    0.27
  15   2  -6    0.73    0.30
 -15  -2   6    0.76    0.16
  15  -2  -6    0.79    0.35
  15  -2  -6    1.07    0.33
  15   2  -5    0.63    0.23
 -15   2   5    0.52    0.36
  15   2  -5    0.89    0.24
  15  -2  -5    1.03    0.25
 -15  -2   5    0.95    0.19
  15  -2  -5    1.04    0.35
 -15   2   4    3.73    0.42
  15   2  -4    4.02    0.43
  15   2  -4    4.07    0.43
  15  -2  -4    3.91    0.50
  15  -2  -4    3.78    0.41
  15   2  -3    0.75    0.24
 -15   2   3    0.61    0.19
 -15   2   3    0.43    0.11
  15   2  -3    0.63    0.20
  15  -2  -3    0.42    0.17
  15  -2  -3    0.88    0.15
  15  -2  -3    0.68    0.30
  15   2  -2    3.19    0.32
 -15   2   2    3.36    0.23
  15   2  -2    3.80    0.38
  15   2  -2    2.76    0.33
  15  -2  -2    2.56    0.38
  15  -2  -2    2.84    0.33
  15  -2  -2    3.08    0.27
  15   2  -1    0.75    0.22
 -15   2   1    0.20    0.13
  15   2  -1    0.35    0.18
  15   2  -1    0.35    0.23
 -15   2   1    0.23    0.11
  15  -2  -1    0.31    0.13
  15  -2  -1    0.46    0.12
  15  -2  -1    0.38    0.13
  15  -2  -1    0.42    0.28
 -15   2   0    2.87    0.27
  15   2   0    2.71    0.38
  15   2   0    3.07    0.40
  15   2   0    2.74    0.36
  15  -2   0    2.87    0.30
  15  -2   0    3.04    0.39
  15  -2   0    3.09    0.29
  15  -2   0    2.47    0.24
  15   2   1    1.39    0.23
  15   2   1    1.42    0.23
 -15   2  -1    1.58    0.22
  15  -2   1    1.37    0.19
  15  -2   1    0.78    0.23
  15  -2   1    1.74    0.22
  15  -2   1    1.68    0.30
 -15   2  -2    0.79    0.14
  15   2   2    0.40    0.22
  15   2   2    0.80    0.14
  15  -2   2    1.16    0.30
  15  -2   2    0.75    0.15
  15   2   3    0.82    0.17
  15   2   3    0.93    0.23
  15  -2   3    0.59    0.25
  15  -2   3    0.67    0.17
  15   2   4    0.59    0.24
 -15   2  -4    0.38    0.16
  15   2   4    0.47    0.17
  15  -2   4    0.42    0.25
  15  -2   4    0.64    0.28
  15  -2   4    0.34    0.15
  15   2   5    0.43    0.28
  15   2   5    0.41    0.18
  15  -2   5    0.47    0.18
  15  -2   5    0.32    0.26
  15   2   6    0.02    0.24
  15   2   6    0.08    0.19
  15  -2   6   -0.16    0.18
  15  -2   6   -0.26    0.28
 -15   3   9    0.40    0.14
  15   3  -9    0.55    0.31
  15  -3  -9    0.58    0.35
  15  -3  -9    0.56    0.37
 -15   3   8    2.33    0.26
  15   3  -8    2.50    0.30
  15   3  -8    2.67    0.83
  15  -3  -8    1.99    0.42
  15  -3  -8    1.82    0.42
 -15   3   7    0.13    0.21
 -15   3   7   -0.13    0.16
  15   3  -7    0.34    0.36
  15  -3  -7    0.58    0.35
  15  -3  -7   -0.09    0.28
  15   3  -6    2.40    0.33
  15   3  -6    2.34    0.40
 -15   3   6    2.68    0.26
 -15   3   6    2.22    0.32
  15  -3  -6    2.88    0.49
  15  -3  -6    3.01    0.41
 -15   3   5    0.57    0.16
  15   3  -5    0.62    0.23
 -15   3   5    0.44    0.14
  15   3  -5    0.42    0.28
  15  -3  -5    0.48    0.26
  15  -3  -5    0.30    0.30
  15   3  -4    0.14    0.19
 -15   3   4   -0.18    0.14
  15   3  -4   -0.05    0.20
  15  -3  -4   -0.05    0.29
  15  -3  -4   -0.08    0.08
 -15   3   3    5.13    0.35
  15   3  -3    4.94    0.46
  15   3  -3    5.19    0.42
  15  -3  -3    5.05    0.69
  15  -3  -3    4.88    0.30
  15  -3  -3    5.07    0.42
 -15   3   2    5.56    0.35
  15   3  -2    4.76    0.44
  15   3  -2    5.04    0.43
  15  -3  -2    5.14    0.39
  15  -3  -2    5.04    0.68
  15  -3  -2    4.94    0.32
  15   3  -1    5.86    0.46
  15   3  -1    5.39    0.44
 -15   3   1    5.49    0.36
  15  -3  -1    6.15    0.67
  15  -3  -1    4.87    0.34
  15  -3  -1    5.31    0.35
  15  -3  -1    5.39    0.38
 -15   3   0    0.20    0.13
  15   3   0    0.24    0.20
  15   3   0    0.27    0.17
  15  -3   0    0.12    0.12
  15  -3   0    0.08    0.27
  15  -3   0    0.31    0.14
  15   3   1    0.17    0.20
  15   3   1    0.34    0.12
  15   3   1   -0.03    0.14
  15   3   1    0.40    0.11
  15  -3   1    0.13    0.30
  15  -3   1    0.45    0.14
  15  -3   1    0.16    0.14
  15  -3   1    0.22    0.14
  15   3   2    0.45    0.15
  15   3   2    0.34    0.22
  15   3   2    0.91    0.14
  15  -3   2    0.48    0.30
  15  -3   2    0.45    0.15
  15  -3   2    0.46    0.16
 -15   3  -3    0.32    0.18
  15   3   3    0.43    0.16
  15   3   3    0.23    0.24
  15  -3   3    0.07    0.20
  15  -3   3    0.39    0.28
  15  -3   3    0.76    0.19
  15   3   4    0.45    0.22
  15   3   4    0.43    0.28
  15  -3   4    0.43    0.25
  15  -3   4    0.25    0.16
  15  -3   4   -0.06    0.27
  15   3   5    0.99    0.29
  15   3   5    1.22    0.21
  15  -3   5    1.06    0.24
  15  -3   5    1.28    0.33
 -15   4   8    0.32    0.25
  15  -4  -8    0.64    0.40
 -15   4   7    0.41    0.27
  15   4  -7    1.02    0.44
 -15   4   7    1.01    0.25
  15  -4  -7    0.09    0.32
  15  -4  -7    0.20    0.26
  15   4  -6    0.50    0.37
  15   4  -6    0.61    0.24
 -15   4   6    1.36    0.29
 -15   4   6    0.91    0.20
  15  -4  -6    0.64    0.27
  15  -4  -6    0.74    0.58
  15   4  -5    1.73    0.40
  15   4  -5    1.63    0.27
 -15   4   5    1.50    0.23
  15  -4  -5    1.89    0.18
  15  -4  -5    2.09    0.28
  15  -4  -5    1.83    0.46
  15   4  -4    4.34    0.54
 -15   4   4    3.18    0.43
  15   4  -4    4.87    0.41
  15  -4  -4    3.94    0.26
  15  -4  -4    5.79    0.77
  15   4  -3    2.20    0.27
  15   4  -3    1.75    0.32
 -15   4   3    1.65    0.24
  15  -4  -3    1.46    0.41
  15   4  -2   -0.16    0.16
 -15   4   2    0.27    0.18
  15   4  -2    0.05    0.18
  15  -4  -2    0.01    0.32
 -15   4   1    7.43    0.67
  15   4  -1    5.15    0.47
  15   4  -1    5.43    0.47
  15  -4  -1    4.93    0.72
  15   4   0    0.86    0.24
  15   4   0    0.85    0.24
 -15   4   0    1.17    0.21
  15  -4   0    0.96    0.41
  15  -4   0    0.52    0.17
  15   4   1    5.78    0.51
  15   4   1    5.90    0.38
  15   4   1    5.66    0.34
  15   4   1    5.53    0.51
  15  -4   1    6.07    0.73
  15  -4   1    5.45    0.43
  15  -4   1    5.51    0.42
  15  -4   1    5.65    0.37
  15   4   2    1.72    0.19
  15   4   2    2.12    0.27
  15   4   2    1.60    0.30
  15   4   2    1.59    0.32
  15  -4   2    2.07    0.43
  15  -4   2    1.73    0.26
  15  -4   2    1.74    0.25
  15  -4   2    1.58    0.27
  15   4   3    1.53    0.24
  15   4   3    1.31    0.29
  15   4   3    1.47    0.42
  15  -4   3    1.39    0.23
  15  -4   3    1.99    0.29
  15  -4   3    1.73    0.20
  15  -4   3    1.15    0.37
  15   4   4    1.91    0.33
  15   4   4    1.52    0.21
  15  -4   4    1.31    0.23
  15  -4   4    1.17    0.39
  15   5  -5    2.00    0.35
  15   5  -5    1.14    0.37
  15  -5  -5    0.70    0.39
  15   5  -4    0.97    0.36
  15   5  -4    0.55    0.21
  15   5  -4    0.82    0.23
  15  -5  -4    1.04    0.43
  15   5  -3    5.90    0.55
  15   5  -3    6.72    0.49
  15  -5  -3    6.62    0.84
  15   5  -2    2.72    0.40
  15  -5  -2    1.88    0.55
  15   5  -1    0.69    0.23
  15   5   0    4.97    0.52
  15   5   0    6.15    0.52
  15   5   0    6.28    0.35
  15   5   0    6.14    0.51
  15  -5   0    5.53    0.45
  15   5   1    0.05    0.25
  15   5   1    0.29    0.24
  15   5   1    0.13    0.15
  15  -5   1    0.47    0.40
  15  -5   1    0.21    0.18
  16   0 -10    0.10    0.28
  16   0 -10    0.63    0.52
  16   0  -9    0.17    0.27
  16   0  -9    0.13    0.33
  16   0  -8    1.97    0.39
  16   0  -8    1.01    0.30
 -16   0   8    1.00    0.22
 -16   0   7   -0.04    0.16
  16   0  -7   -0.12    0.29
  16   0  -7   -0.05    0.27
 -16   0   6    2.46    0.32
  16   0  -6    1.92    0.36
  16   0  -6    2.50    0.40
  16   0  -5    0.04    0.21
 -16   0   5    0.26    0.15
  16   0  -5   -0.08    0.25
  16   0  -4    0.21    0.26
  16   0  -4    0.22    0.16
 -16   0   4    0.30    0.16
  16   0  -3   -0.03    0.22
  16   0  -3    0.02    0.20
 -16   0   3   -0.01    0.14
  16   0  -2    0.53    0.23
 -16   0   2   -0.07    0.13
  16   0  -2    0.08    0.14
  16   0  -1   -0.17    0.20
  16   0  -1    0.15    0.14
 -16   0   1   -0.02    0.16
  16   0  -1   -0.02    0.16
  16   0   0   10.00    0.61
  16   0   0    8.60    0.54
  16   0   0    8.36    0.53
 -16   0   0    9.09    0.60
  16   0   1   -0.02    0.19
  16   0   1   -0.12    0.14
  16   0   1    0.34    0.18
 -16   0  -1    0.00    0.10
  16   0   1    0.07    0.10
  16   0   2   18.42    0.78
 -16   0  -2   20.07    0.83
  16   0   2   17.96    0.92
 -16   0  -3   -0.06    0.12
  16   0   3   -0.11    0.13
  16   0   3   -0.28    0.20
  16   0   4    6.53    0.42
  16   0   4    6.26    0.57
  16   0   5    0.18    0.36
 -16   0  -5    0.01    0.17
  16   0   5   -0.07    0.18
  16   0   6   19.61    1.03
  16   0   6   20.32    0.93
  16   1 -10    0.89    0.29
  16   1 -10    0.12    0.43
  16  -1 -10    0.43    0.32
  16  -1 -10   -0.22    0.62
 -16  -1  10    0.04    0.15
  16   1  -9    0.40    0.49
  16   1  -9   -0.28    0.26
  16  -1  -9    0.52    0.41
 -16  -1   9   -0.02    0.13
  16  -1  -9   -0.21    0.26
  16   1  -8    0.69    0.41
  16  -1  -8    0.58    0.31
  16  -1  -8    0.30    0.35
  16   1  -7    0.41    0.29
  16   1  -7    0.38    0.32
  16  -1  -7    0.12    0.28
  16  -1  -7   -0.02    0.29
  16   1  -6    1.74    0.34
  16   1  -6    2.32    0.36
  16  -1  -6    1.94    0.39
  16  -1  -6    1.76    0.33
  16   1  -5    2.70    0.37
 -16   1   5    2.85    0.39
  16   1  -5    2.91    0.43
  16  -1  -5    2.71    0.42
  16   1  -4    2.76    0.38
 -16   1   4    2.31    0.36
  16   1  -4    2.78    0.37
  16  -1  -4    2.81    0.37
  16  -1  -4    2.47    0.38
 -16   1   3    0.62    0.19
  16   1  -3    0.46    0.22
  16  -1  -3    0.79    0.19
  16  -1  -3    0.66    0.30
 -16  -1   3    0.66    0.28
 -16   1   2    7.62    0.51
  16   1  -2    7.27    0.49
  16   1  -2    7.22    0.54
  16   1  -2    7.39    0.46
  16  -1  -2    7.68    0.64
 -16  -1   2    7.96    0.51
  16  -1  -2    7.78    0.49
  16  -1  -2    6.96    0.42
  16   1  -1    8.76    0.55
  16   1  -1    7.83    0.57
  16   1  -1    7.83    0.51
  16  -1  -1    8.86    0.65
  16  -1  -1    8.41    0.48
 -16  -1   1    9.08    0.56
  16  -1  -1    8.79    0.51
  16   1   0    1.29    0.30
  16   1   0    1.00    0.22
  16   1   0    1.29    0.25
 -16   1   0    1.33    0.18
  16  -1   0    1.01    0.18
  16  -1   0    0.87    0.26
  16  -1   0    0.87    0.17
 -16   1  -1   16.69    0.69
  16   1   1   15.39    0.79
  16   1   1   14.51    0.80
  16  -1   1   15.54    0.82
  16  -1   1   15.74    0.79
  16  -1   1   15.28    0.84
  16  -1   1   15.51    0.66
  16   1   2    2.52    0.26
 -16   1  -2    2.33    0.24
  16   1   2    2.31    0.31
  16  -1   2    2.26    0.29
  16  -1   2    2.29    0.34
  16  -1   2    2.68    0.35
  16   1   3    1.30    0.18
  16   1   3    1.25    0.28
  16  -1   3    1.07    0.17
  16  -1   3    0.76    0.26
  16   1   4    6.75    0.57
  16   1   4    6.81    0.44
 -16   1  -4    6.93    0.44
  16  -1   4    6.27    0.58
  16   1   5    7.42    0.48
  16   1   5    6.87    0.68
  16  -1   5    6.87    0.47
  16  -1   5    7.92    0.74
  16   1   6    2.83    0.38
  16   1   6    1.98    0.34
  16  -1   6    1.86    0.32
  16  -1   6    2.67    0.36
  16   2  -9    1.42    0.29
  16   2  -9    0.83    0.47
  16  -2  -9    1.62    0.40
  16  -2  -9    0.98    0.46
  16   2  -8    0.16    0.26
  16   2  -8   -0.18    0.36
  16  -2  -8    0.56    0.36
  16  -2  -8    0.26    0.33
  16   2  -7    0.21    0.26
  16   2  -7    0.43    0.34
  16  -2  -7   -0.20    0.32
  16  -2  -7    0.11    0.31
  16   2  -6    0.18    0.25
  16   2  -6    0.31    0.29
  16  -2  -6    0.56    0.34
  16  -2  -6   -0.13    0.45
  16   2  -5   -0.11    0.21
  16   2  -5    0.02    0.20
  16  -2  -5   -0.29    0.22
 -16  -2   5   -0.11    0.09
  16  -2  -5    0.03    0.31
  16   2  -4    4.95    0.50
  16   2  -4    6.08    0.51
  16  -2  -4    4.97    0.67
  16  -2  -4    5.47    0.48
 -16  -2   4    6.73    0.46
  16   2  -3    0.15    0.21
  16  -2  -3    0.27    0.31
  16  -2  -3    0.51    0.18
  16   2  -2    0.28    0.22
  16   2  -2    0.57    0.22
 -16   2   2    0.38    0.10
  16  -2  -2    0.32    0.30
  16  -2  -2    0.42    0.17
  16   2  -1    0.52    0.21
 -16   2   1    0.47    0.11
  16   2  -1    0.30    0.18
  16  -2  -1    0.51    0.31
  16  -2  -1    0.54    0.16
  16  -2  -1    0.67    0.13
 -16   2   0   20.17    0.79
  16   2   0   19.52    0.94
  16   2   0   20.13    0.95
  16  -2   0   19.44    1.04
  16  -2   0   19.10    0.82
  16  -2   0   19.93    0.89
  16   2   1    0.99    0.25
  16   2   1    1.20    0.25
 -16   2  -1    0.79    0.14
  16  -2   1    0.81    0.29
  16  -2   1    0.76    0.16
  16  -2   1    1.14    0.19
  16   2   2    0.27    0.13
  16   2   2   -0.04    0.20
  16  -2   2   -0.16    0.24
  16  -2   2   -0.02    0.17
  16  -2   2    0.19    0.17
  16  -2   2    0.12    0.13
  16   2   3    0.97    0.26
  16   2   3    0.94    0.16
  16  -2   3    0.77    0.31
  16  -2   3    1.00    0.24
  16   2   4    0.60    0.18
  16   2   4    0.51    0.32
  16  -2   4    0.86    0.30
  16  -2   4    0.57    0.18
  16   2   5    7.18    0.46
  16   2   5    7.98    0.63
  16  -2   5    7.22    0.91
  16  -2   5    7.62    0.48
 -16   3   8    0.18    0.16
  16   3  -8    0.33    0.33
  16   3  -8    0.17    0.40
  16  -3  -8   -0.11    0.37
  16  -3  -8    0.32    0.35
  16   3  -7    3.49    0.39
  16   3  -7    3.87    0.87
 -16   3   7    4.23    0.37
 -16   3   7    4.37    0.33
  16  -3  -7    4.01    0.59
  16   3  -6    1.06    0.38
 -16   3   6    0.64    0.18
  16   3  -6    0.83    0.28
 -16   3   6    0.58    0.13
  16  -3  -6    1.73    0.44
  16  -3  -6    0.77    0.32
  16   3  -5    2.27    0.37
 -16   3   5    2.66    0.27
 -16   3   5    2.06    0.23
  16   3  -5    2.61    0.32
  16  -3  -5    1.98    0.44
  16  -3  -5    1.87    0.34
  16   3  -4    4.48    0.50
 -16   3   4    3.96    0.33
  16   3  -4    4.10    0.45
  16  -3  -4    5.83    0.70
  16  -3  -4    3.69    0.44
  16  -3  -4    3.65    0.28
  16   3  -3    0.76    0.23
  16   3  -3    0.60    0.19
 -16   3   3    0.75    0.16
  16  -3  -3    0.68    0.36
  16  -3  -3    0.71    0.14
  16  -3  -3    0.88    0.22
 -16   3   2    9.24    0.44
  16   3  -2    8.56    0.55
  16   3  -2    8.06    0.57
  16  -3  -2    7.48    0.50
  16  -3  -2    7.92    0.81
  16  -3  -2    7.61    0.44
  16   3  -1    2.15    0.28
  16   3  -1    1.72    0.27
  16  -3  -1    1.70    0.39
  16  -3  -1    1.78    0.23
  16  -3  -1    1.89    0.25
  16   3   0    5.68    0.50
  16   3   0    6.56    0.51
  16  -3   0    6.37    0.41
  16  -3   0    5.86    0.40
  16  -3   0    6.60    0.71
  16  -3   0    5.80    0.38
  16   3   1    1.23    0.26
 -16   3  -1    0.38    0.14
  16   3   1    0.73    0.23
  16  -3   1    0.22    0.17
  16  -3   1    0.79    0.17
  16  -3   1    0.39    0.31
  16  -3   1    0.84    0.16
  16   3   2    0.44    0.24
  16   3   2    0.61    0.13
  16   3   2    0.37    0.24
 -16   3  -2    0.52    0.17
  16   3   2    0.46    0.17
  16  -3   2    0.43    0.33
  16  -3   2    0.63    0.16
  16  -3   2    0.44    0.19
  16  -3   2    0.62    0.18
  16   3   3    1.17    0.31
  16   3   3    1.28    0.19
  16  -3   3    0.96    0.22
  16  -3   3    1.10    0.20
  16  -3   3    1.13    0.36
  16  -3   3    1.05    0.29
  16   3   4    2.17    0.27
  16   3   4    1.48    0.31
  16  -3   4    2.21    0.28
 -16   4   7    0.22    0.27
  16   4  -7    0.20    0.22
  16  -4  -7    0.63    0.44
  16   4  -6    3.76    0.49
 -16   4   6    4.93    0.37
  16   4  -6    4.96    0.74
  16  -4  -6    5.08    0.60
  16  -4  -6    3.42    0.53
  16  -4  -6    3.73    0.27
 -16   4   5    1.19    0.22
  16   4  -5    1.10    0.26
 -16   4   5    1.03    0.22
  16   4  -5    0.50    0.64
  16  -4  -5    1.08    0.27
  16  -4  -5    1.07    0.15
  16  -4  -5    1.54    0.46
  16   4  -4    3.38    0.39
  16   4  -4    3.09    0.43
 -16   4   4    2.79    0.38
  16  -4  -4    3.20    0.25
  16  -4  -4    4.04    0.45
  16  -4  -4    4.29    0.87
  16   4  -3    1.40    0.32
 -16   4   3    1.18    0.25
  16   4  -3    1.17    0.24
  16  -4  -3    0.89    0.39
  16   4  -2    0.10    0.21
  16   4  -2   -0.06    0.20
  16  -4  -2    0.25    0.36
  16  -4  -2    0.13    0.18
  16   4  -1    8.56    0.57
  16   4  -1    8.41    0.59
  16  -4  -1    7.46    0.43
  16  -4  -1    6.92    0.83
  16  -4  -1    8.62    0.47
  16   4   0    1.14    0.30
 -16   4   0    1.49    0.28
  16   4   0    1.35    0.27
  16  -4   0    1.19    0.19
  16  -4   0    1.42    0.21
  16  -4   0    1.15    0.43
  16  -4   0    1.16    0.21
  16   4   1    6.56    0.56
  16   4   1    6.50    0.36
  16   4   1    5.21    0.56
  16  -4   1    6.98    0.46
  16  -4   1    7.24    0.81
  16  -4   1    6.81    0.41
  16   4   2    1.42    0.18
  16   4   2    0.58    0.46
  16   4   2    1.10    0.27
  16   4   2    1.27    0.20
  16  -4   2    1.18    0.26
  16  -4   2    1.03    0.20
  16  -4   2    1.28    0.18
  17   0  -9    0.10    0.28
  17   0  -8    0.54    0.32
  17   0  -8    0.38    0.36
  17   0  -7   -0.13    0.26
  17   0  -7    0.18    0.33
  17   0  -6    2.77    0.39
  17   0  -6    4.47    0.61
  17   0  -5    0.04    0.27
  17   0  -5   -0.10    0.21
  17   0  -4    1.03    0.31
  17   0  -4    0.60    0.25
  17   0  -3   -0.04    0.24
  17   0  -3   -0.06    0.12
  17   0  -3    0.03    0.16
  17   0  -2   10.65    0.61
  17   0  -2   10.28    0.59
  17   0  -2   10.78    0.70
  17   0  -1    0.06    0.15
  17   0  -1   -0.13    0.21
  17   0  -1    0.13    0.15
  17   0   0    1.16    0.25
  17   0   0    1.28    0.27
  17   0   1   -0.13    0.22
  17   0   1    0.01    0.15
  17   0   2    0.31    0.23
 -17   0  -2    0.05    0.12
  17   0   2    0.13    0.11
 -17   0  -3    0.20    0.14
  17   0   3   -0.07    0.13
  17   0   3    0.06    0.22
  17   0   4    8.51    0.57
  17   0   5   -0.46    0.22
  17   0   5   -0.11    0.16
  17   1  -9    0.27    0.29
  17   1  -9   -0.12    0.26
  17  -1  -9    0.15    0.37
  17  -1  -9   -0.21    0.28
  17   1  -8   -0.29    0.36
  17   1  -8   -0.06    0.28
 -17  -1   8    0.26    0.15
  17  -1  -8    0.63    0.34
  17  -1  -8   -0.14    0.33
  17   1  -7    0.68    0.35
  17   1  -7    0.53    0.28
  17  -1  -7    0.46    0.28
 -17  -1   7    0.53    0.16
  17  -1  -7    0.50    0.33
  17   1  -6    0.34    0.28
  17   1  -6    0.32    0.28
 -17  -1   6    0.34    0.17
  17  -1  -6    0.22    0.31
  17  -1  -6   -0.05    0.25
  17   1  -5   -0.19    0.25
  17   1  -5    0.09    0.22
  17  -1  -5   -0.11    0.32
 -17  -1   5   -0.16    0.14
  17  -1  -5   -0.19    0.20
  17   1  -4    0.24    0.24
  17   1  -4    0.33    0.19
  17  -1  -4    0.17    0.29
 -17  -1   4    0.18    0.15
  17  -1  -4    0.32    0.20
  17   1  -3   12.06    0.69
  17   1  -3   12.06    0.72
  17  -1  -3   11.39    0.59
 -17  -1   3   11.33    0.64
  17  -1  -3   10.18    0.81
  17  -1  -3   12.56    0.68
  17   1  -2    2.77    0.35
  17   1  -2    3.12    0.46
  17  -1  -2    2.87    0.31
  17  -1  -2    3.11    0.40
  17  -1  -2    2.82    0.36
  17   1  -1    8.18    0.56
  17   1  -1    8.08    0.60
  17  -1  -1    8.89    0.69
  17  -1  -1    9.04    0.53
  17  -1  -1    7.98    0.51
  17   1   0    0.65    0.21
  17   1   0    0.72    0.24
  17  -1   0    0.47    0.27
  17  -1   0    0.88    0.21
  17  -1   0    0.44    0.18
  17   1   1    0.40    0.20
  17   1   1    0.24    0.24
  17  -1   1    0.29    0.12
  17  -1   1    0.49    0.19
  17  -1   1    0.07    0.16
  17  -1   1    0.41    0.26
 -17   1  -2    6.85    0.36
  17   1   2    5.86    0.56
  17   1   2    5.88    0.35
  17  -1   2    6.58    0.58
  17  -1   2    6.40    0.37
  17   1   3    3.52    0.33
  17   1   3    3.71    0.50
  17  -1   3    4.25    0.54
  17  -1   3    3.86    0.33
 -17   1  -4   12.98    0.64
  17   1   4   13.16    0.79
  17   1   4   12.93    0.63
  17  -1   4   12.33    1.14
  17  -1   4   12.61    0.63
  17   1   5    1.19    0.22
  17   1   5    0.78    0.34
  17  -1   5    0.76    0.19
  17  -1   5    0.95    0.31
  17   2  -8    0.73    0.43
  17  -2  -8    0.41    0.39
  17  -2  -8    0.84    0.36
  17   2  -7    1.17    0.42
  17  -2  -7    0.87    0.35
 -17  -2   7    1.54    0.31
  17  -2  -7    0.69    0.37
  17   2  -6    0.92    0.33
  17   2  -6    1.19    0.36
  17  -2  -6    0.90    0.38
 -17  -2   6    1.28    0.22
  17  -2  -6    1.17    0.31
  17   2  -5    1.68    0.31
 -17  -2   5    1.72    0.24
  17  -2  -5    1.67    0.40
  17  -2  -5    1.61    0.34
  17   2  -4    4.34    0.51
  17   2  -4    4.51    0.48
  17  -2  -4    4.04    0.50
  17  -2  -4    4.65    0.69
  17   2  -3    0.97    0.26
  17   2  -3    1.31    0.27
  17  -2  -3    0.52    0.32
  17  -2  -3    0.81    0.16
  17  -2  -3    0.52    0.20
  17   2  -2   10.98    0.67
  17   2  -2   10.61    0.65
  17  -2  -2   10.56    0.56
  17  -2  -2   10.98    0.84
  17  -2  -2   11.09    0.63
 -17   2   1   -0.11    0.10
  17   2  -1    0.13    0.20
  17   2  -1   -0.22    0.19
  17  -2  -1   -0.03    0.30
  17  -2  -1    0.25    0.17
  17  -2  -1    0.27    0.15
  17   2   0    4.21    0.43
  17   2   0    3.80    0.45
 -17   2   0    3.73    0.27
  17  -2   0    3.47    0.27
  17  -2   0    3.41    0.45
 -17   2  -1    7.68    0.39
  17   2   1    6.76    0.53
  17   2   1    7.36    0.58
  17  -2   1    6.82    0.49
  17  -2   1    7.44    0.48
  17  -2   1    7.07    0.42
  17  -2   1    7.43    0.68
  17   2   2    4.11    0.46
  17   2   2    3.64    0.29
  17   2   2    3.45    0.51
  17  -2   2    3.53    0.45
  17  -2   2    4.01    0.38
  17  -2   2    3.88    0.59
  17  -2   2    4.06    0.34
  17   2   3   19.35    1.32
 -17   2  -3   22.97    0.92
  17   2   3   21.37    0.91
  17  -2   3   21.84    0.95
  17  -2   3   23.44    1.23
  17   2   4    2.75    0.37
  17   2   4    2.68    0.31
  17  -2   4    2.80    0.35
  17  -2   4    4.26    0.57
  17   3  -7    3.91    0.56
  17   3  -7    3.06    0.38
  17  -3  -7    3.20    0.55
  17  -3  -7    2.66    0.43
  17   3  -6    1.88    0.36
  17   3  -6    1.85    0.50
  17  -3  -6   -0.39    0.77
  17  -3  -6    1.97    0.58
 -17   3   5    0.93    0.27
  17   3  -5    0.75    0.27
 -17   3   5    1.02    0.14
  17   3  -5    0.67    0.34
  17  -3  -5    1.45    0.31
  17  -3  -5    0.84    0.40
 -17   3   4   -0.24    0.20
  17   3  -4    0.02    0.21
  17   3  -4    0.08    0.21
  17  -3  -4    0.18    0.34
  17  -3  -4   -0.18    0.20
  17   3  -3    0.23    0.22
 -17   3   3   -0.10    0.12
  17   3  -3    0.01    0.18
  17  -3  -3    0.15    0.12
  17  -3  -3    0.23    0.33
  17  -3  -3    0.11    0.19
 -17   3   2    5.42    0.34
  17   3  -2    5.07    0.48
  17   3  -2    5.09    0.50
  17  -3  -2    5.86    0.77
  17  -3  -2    4.65    0.41
  17  -3  -2    5.40    0.40
  17   3  -1    0.24    0.22
 -17   3   1    0.75    0.14
  17   3  -1    0.59    0.25
  17  -3  -1    0.63    0.18
  17  -3  -1    0.72    0.39
  17   3   0   -0.07    0.22
  17   3   0   -0.03    0.22
  17  -3   0    0.04    0.14
  17  -3   0    0.29    0.35
  17  -3   0    0.33    0.17
  17   3   1    2.08    0.33
  17  -3   1    2.07    0.44
  17  -3   1    2.44    0.32
  17  -3   1    2.00    0.38
  17  -3   1    3.24    0.33
  17   3   2   10.46    0.51
  17   3   2   11.28    0.51
 -17   3  -2   10.89    0.73
  17   3   2   11.37    0.71
  17   3   2    9.90    1.04
  17  -3   2   11.85    0.60
  17  -3   2   11.70    0.60
  17  -3   2   10.10    0.66
  17  -3   2    9.17    1.33
  17   3   3    4.04    0.55
  17   3   3    4.79    0.36
  17  -3   3    3.75    0.50
  17  -3   3    4.41    0.39
  17  -3   3    4.76    0.39
  17   4  -5    2.09    0.36
  17   4  -5    1.53    0.34
 -17   4   5    1.83    0.22
  17  -4  -5    1.25    0.47
  17  -4  -5    1.51    0.19
  17   4  -4    0.31    0.30
 -17   4   4    0.26    0.21
  17   4  -4    0.15    0.23
  17  -4  -4    0.46    0.41
  17  -4  -4   -0.09    0.21
  17   4  -3    0.00    0.20
  17   4  -3    0.19    0.27
  17  -4  -3    0.15    0.21
  17  -4  -3   -0.16    0.35
  17   4  -2    2.82    0.43
 -17   4   2    4.09    0.37
  17   4  -2    3.34    0.48
  17  -4  -2    3.28    0.56
  17   4  -1    4.59    0.49
 -17   4   1    4.73    0.42
  17   4  -1    3.91    0.46
  17  -4  -1    4.13    0.58
  17  -4  -1    3.74    0.36
  17   4   0    1.64    0.33
  17   4   0    1.57    0.29
  17  -4   0    1.57    0.22
  17  -4   0    1.46    0.22
  17  -4   0    1.87    0.24
  17  -4   0    1.99    0.50
  17   4   1   -0.03    0.23
  17  -4   1   -0.09    0.34
  17  -4   1    0.09    0.15
  18   0  -8    0.75    0.36
  18   0  -8    1.15    0.36
  18   0  -7    0.31    0.30
  18   0  -7   -0.63    0.25
  18   0  -6    2.17    0.37
  18   0  -6    2.62    0.41
  18   0  -5    0.20    0.29
  18   0  -5   -0.02    0.22
  18   0  -4    0.23    0.22
  18   0  -4    0.51    0.31
  18   0  -3   -0.13    0.26
  18   0  -3    0.11    0.20
  18   0  -2    5.42    0.47
  18   0  -2    5.61    0.60
  18   0  -1   -0.08    0.23
  18   0  -1    0.07    0.17
  18   0   0   20.36    1.04
  18   0   0   20.93    0.98
  18   0   1   -0.03    0.17
  18   0   1    0.44    0.26
  18   0   2    0.03    0.11
  18   0   2    0.01    0.24
  18   0   2    0.24    0.18
 -18   0  -2    0.17    0.13
  18   0   3    0.13    0.22
  18   0   3    0.14    0.12
  18   0   4    0.98    0.27
  18   0   4    1.28    0.19
 -18   0  -4    1.82    0.22
  18   1  -8   -0.14    0.25
  18   1  -8    0.16    0.35
  18  -1  -8    0.05    0.31
  18  -1  -8    0.02    0.34
  18   1  -7    1.39    0.35
  18   1  -7    1.42    0.44
  18  -1  -7    0.81    0.36
  18  -1  -7    1.32    0.38
  18   1  -6    0.19    0.28
  18   1  -6    0.29    0.30
  18  -1  -6    0.46    0.28
  18  -1  -6    0.02    0.31
  18   1  -5    4.88    0.61
  18   1  -5    4.37    0.53
  18  -1  -5    4.48    0.51
  18  -1  -5    5.29    0.69
  18   1  -4    0.33    0.27
  18   1  -4    0.22    0.19
  18  -1  -4    0.21    0.22
  18  -1  -4    0.48    0.33
  18   1  -3   -0.21    0.19
  18   1  -3   -0.05    0.24
  18  -1  -3   -0.10    0.30
  18  -1  -3   -0.03    0.17
  18   1  -2    0.20    0.24
  18   1  -2    0.01    0.15
  18  -1  -2   -0.12    0.28
  18  -1  -2   -0.16    0.16
  18   1  -1    4.98    0.53
  18   1  -1    4.84    0.46
  18  -1  -1    4.72    0.41
  18  -1  -1    4.60    0.60
  18   1   0    1.13    0.23
  18   1   0    1.29    0.29
  18  -1   0    1.62    0.26
  18  -1   0    0.82    0.30
  18   1   1    0.17    0.21
  18   1   1   -0.08    0.18
 -18   1  -1   -0.09    0.17
  18  -1   1   -0.14    0.10
  18  -1   1   -0.16    0.16
  18  -1   1    0.12    0.26
  18   1   2    0.23    0.31
 -18   1  -2    0.23    0.12
  18   1   2    0.07    0.19
  18  -1   2   -0.04    0.12
  18  -1   2   -0.01    0.16
  18  -1   2   -0.35    0.46
  18   1   3   -0.06    0.13
 -18   1  -3   -0.02    0.13
  18   1   3   -0.09    0.22
  18  -1   3   -0.11    0.26
  18  -1   3    0.00    0.14
  18  -1   4    1.15    0.20
  18   2  -7    0.22    0.29
  18   2  -7   -0.01    0.33
  18  -2  -7   -0.35    0.28
  18  -2  -7    0.52    0.46
  18   2  -6    2.51    0.39
  18   2  -6    2.84    0.77
  18  -2  -6    2.87    0.53
  18  -2  -6    2.36    0.41
  18   2  -5    0.39    0.29
  18   2  -5    0.40    0.29
  18  -2  -5   -0.19    0.36
  18  -2  -5    0.34    0.27
  18   2  -4    3.79    0.52
  18   2  -4    3.25    0.46
  18  -2  -4    3.46    0.48
  18  -2  -4    3.01    0.30
  18  -2  -4    3.10    0.43
  18   2  -3   -0.05    0.23
  18   2  -3   -0.26    0.18
  18  -2  -3    0.05    0.18
  18  -2  -3    0.07    0.12
  18  -2  -3    0.10    0.33
  18   2  -2    0.48    0.23
  18   2  -2    0.13    0.23
  18  -2  -2    0.02    0.32
  18  -2  -2    0.28    0.19
  18  -2  -2    0.15    0.14
  18   2  -1    3.41    0.47
  18   2  -1    3.38    0.43
 -18   2   1    4.18    0.25
  18  -2  -1    4.65    0.67
  18  -2  -1    4.33    0.37
  18  -2  -1    3.93    0.39
  18   2   0    7.21    0.56
 -18   2   0    7.01    0.36
  18   2   0    6.22    0.56
  18  -2   0    6.14    0.70
  18  -2   0    6.45    0.49
  18  -2   0    6.38    0.47
  18  -2   0    7.21    0.40
  18   2   1    9.23    0.67
  18   2   1    9.32    0.97
 -18   2  -1   10.76    0.48
  18  -2   1   10.67    1.14
  18  -2   1    9.02    0.49
  18  -2   1    9.31    0.58
  18   2   2    4.24    0.54
  18   2   2    4.23    0.50
  18  -2   2    4.27    0.63
  18  -2   2    4.54    0.36
  18  -2   2    4.15    0.41
  18   2   3    0.50    0.26
  18   2   3    0.68    0.17
  18  -2   3    0.93    0.33
  18  -2   3    0.76    0.18
  18  -2   3    0.81    0.22
  18   3  -6    1.91    0.43
  18   3  -6    1.83    0.34
  18  -3  -6    1.83    0.50
  18  -3  -6    1.46    0.36
  18   3  -5    0.13    0.25
  18   3  -5    0.09    0.28
  18  -3  -5    0.27    0.33
  18  -3  -5    0.46    0.39
  18  -3  -5    0.24    0.13
  18   3  -4    0.63    0.23
  18   3  -4    0.66    0.25
  18  -3  -4    0.91    0.42
  18  -3  -4    0.75    0.25
  18   3  -3    1.13    0.35
  18   3  -3    0.61    0.24
  18  -3  -3    0.84    0.23
  18  -3  -3    0.74    0.38
 -18   3   2    0.08    0.12
  18   3  -2    0.23    0.25
  18   3  -2    0.23    0.22
  18  -3  -2    0.17    0.18
  18  -3  -2   -0.22    0.42
  18   3  -1    0.51    0.24
  18   3  -1    0.85    0.29
  18  -3  -1    0.55    0.19
  18  -3  -1    0.29    0.37
  18  -3  -1    0.99    0.21
  18   3   0    8.72    0.63
  18   3   0    8.51    0.64
  18  -3   0    8.39    0.47
  18  -3   0    8.85    0.84
  18   3   1   10.14    0.72
 -18   3  -1   10.94    0.52
  18   3   1    9.79    0.69
  18  -3   1    9.08    0.61
  18  -3   1    8.82    0.86
  18  -3   1    9.92    0.54
  18  -3   1   10.48    0.57
  19   0  -7    0.22    0.30
  19   0  -7   -0.13    0.55
  19   0  -6    0.04    0.32
  19   0  -6   -0.15    0.26
  19   0  -5   -0.12    0.24
  19   0  -5   -0.28    0.27
  19   0  -4    6.62    0.69
  19   0  -4    6.34    0.56
  19   0  -3   -0.14    0.25
  19   0  -3   -0.01    0.21
  19   0  -2    1.55    0.26
  19   0  -2    2.03    0.36
  19   0  -1    0.12    0.16
  19   0  -1   -0.23    0.23
  19   0   0    0.80    0.31
  19   0   0    0.34    0.18
  19   0   1   -0.07    0.23
  19   0   1    0.01    0.19
  19   0   2    0.21    0.26
  19   0   2   -0.18    0.30
  19   1  -7    0.61    0.34
  19   1  -7    0.28    0.33
  19  -1  -7    0.38    0.31
  19  -1  -7    0.73    0.61
  19   1  -6    0.25    0.36
  19   1  -6   -0.03    0.30
  19  -1  -6    0.24    0.36
  19  -1  -6    0.39    0.27
  19   1  -5    0.78    0.32
  19   1  -5    1.10    0.33
  19  -1  -5    0.08    0.33
  19  -1  -5    0.78    0.28
  19   1  -4    1.34    0.32
  19   1  -4    1.21    0.31
  19  -1  -4    1.71    0.32
  19  -1  -4    1.02    0.38
  19   1  -3    3.00    0.41
  19   1  -3    2.64    0.36
  19  -1  -3    2.90    0.38
  19  -1  -3    2.86    0.46
  19   1  -2    1.14    0.27
  19   1  -2    1.42    0.29
  19  -1  -2    1.48    0.38
  19  -1  -2    1.44    0.26
  19   1  -1    0.05    0.25
  19   1  -1   -0.11    0.18
  19  -1  -1    0.20    0.17
  19  -1  -1    0.15    0.32
  19   1   0    0.59    0.29
  19   1   0    0.57    0.24
  19  -1   0    0.15    0.33
  19  -1   0    0.51    0.20
  19   1   1    0.07    0.22
  19   1   1   -0.06    0.24
  19  -1   1    0.12    0.27
  19  -1   1    0.01    0.17
  19   1   2    7.26    0.62
 -19   1  -2    7.80    0.40
  19   1   2    7.07    0.56
  19  -1   2    6.42    0.66
  19  -1   2    7.07    0.53
  19  -1   2    7.24    0.40
  19   2  -6    0.03    0.28
  19   2  -6   -0.20    0.29
  19  -2  -6    0.26    0.27
  19  -2  -6    0.08    0.35
  19   2  -5    0.32    0.30
  19   2  -5    0.25    0.26
  19  -2  -5    0.03    0.23
  19  -2  -5   -0.35    0.33
  19   2  -4    0.13    0.26
  19   2  -4    0.06    0.25
  19  -2  -4   -0.12    0.19
  19  -2  -4    0.70    0.42
  19   2  -3    0.10    0.25
  19   2  -3   -0.02    0.18
  19  -2  -3   -0.10    0.39
  19  -2  -3    0.06    0.20
  19   2  -2   -0.05    0.22
  19   2  -2   -0.31    0.19
  19  -2  -2   -0.32    0.32
  19  -2  -2   -0.24    0.15
  19   2  -1    0.06    0.15
  19   2  -1    0.45    0.25
  19  -2  -1    0.20    0.19
  19  -2  -1    0.33    0.30
  19   2   0    0.51    0.21
  19   2   0    0.21    0.36
  19  -2   0    0.08    0.34
  19  -2   0    0.27    0.17
  19   2   1    2.04    0.34
  19   2   1    2.08    0.33
  19  -2   1    1.79    0.24
  19  -2   1    1.76    0.39
  19  -2   1    2.71    0.36
  19   3  -3    0.09    0.25
  19   3  -3    0.08    0.28
  19  -3  -3    0.30    0.21
  19  -3  -3    0.30    0.16
  19  -3  -3   -0.14    0.35
  19   3  -2    1.74    0.41
  19   3  -2    1.88    0.31
 -19   3   2    2.71    0.34
  19  -3  -2    1.88    0.54
  19  -3  -2    1.61    0.23
  19  -3  -2    2.10    0.28
  20   0  -6    0.29    0.40
  20   0  -5    0.05    0.40
  20   0  -4    0.31    0.26
  20   0  -4    0.26    0.51
  20   0  -3   -0.53    0.50
  20   0  -3   -0.17    0.20
  20   0  -2    1.66    0.39
  20   0  -2    1.60    0.29
  20   0  -1   -0.21    0.23
  20   0  -1   -0.27    0.26
  20   0   0    0.49    0.27
  20   0   0    0.14    0.20
  20   1  -5    0.03    0.31
  20   1  -5    0.05    0.26
  20  -1  -5    0.42    0.26
  20  -1  -5    0.44    0.33
  20   1  -4    0.27    0.31
  20   1  -4    0.69    0.23
  20  -1  -4    0.92    0.25
  20  -1  -4    0.77    0.37
  20   1  -3    0.05    0.23
  20   1  -3    0.37    0.34
  20  -1  -3    0.06    0.30
  20  -1  -3    0.40    0.24
  20   1  -2    0.16    0.36
  20   1  -2    0.26    0.21
  20  -1  -2    0.09    0.32
  20  -1  -2    0.31    0.22
  20   1  -1   -0.08    0.21
  20   1  -1    0.15    0.26
  20  -1  -1    0.26    0.31
  20  -1  -1    0.24    0.20
  20   1   0    0.10    0.23
  20   1   0    0.07    0.20
  20  -1   0    0.10    0.17
  20  -1   0    0.25    0.30
  20  -2  -3    0.15    0.36
  20  -2  -2    0.47    0.40
   0   0   0    0.00    0.00
;
_shelx_hkl_checksum              89426
loop_
_space_group_symop_operation_xyz
'x, y, z'
'x, -y, z+1/2'
loop_
_atom_site_type_symbol
_atom_site_label
_atom_site_fract_x
_atom_site_fract_y
_atom_site_fract_z
_atom_site_U_iso_or_equiv
_atom_site_adp_type
_atom_site_calc_flag
_atom_site_refinement_flags_adp
_atom_site_refinement_flags_occupancy
_atom_site_refinement_flags_posn
_atom_site_occupancy
_atom_site_disorder_assembly
_atom_site_disorder_group
C C1 0.8719(8) 0.907(3) 0.5226(10) 0.070(3) Uani d U P G 0.360(4) A 1
H H1 0.916735 0.990628 0.478313 0.084 Uiso calc U P R 0.360(4) A 1
C C2 0.7738(8) 0.960(2) 0.4788(12) 0.057(2) Uani d U P G 0.360(4) A 1
H H2 0.753078 1.080498 0.405174 0.068 Uiso calc U P R 0.360(4) A 1
C C3 0.7067(6) 0.835(2) 0.5451(16) 0.048(3) Uani d U P G 0.360(4) A 1
C C4 0.7377(7) 0.655(2) 0.6551(15) 0.0438(19) Uani d U P G 0.360(4) A 1
H H4 0.692866 0.571119 0.699462 0.053 Uiso calc U P R 0.360(4) A 1
C C5 0.8358(7) 0.6014(19) 0.6990(12) 0.052(2) Uani d U P G 0.360(4) A 1
H H5 0.856523 0.481246 0.772602 0.063 Uiso calc U P R 0.360(4) A 1
C C6 0.9029(6) 0.727(3) 0.6327(12) 0.063(3) Uani d U P G 0.360(4) A 1
H H6 0.968458 0.690997 0.66203 0.076 Uiso calc U P R 0.360(4) A 1
C C7 0.6068(10) 0.908(2) 0.4683(12) 0.0433(17) Uani d U P . 0.360(4) A 1
H H7 0.608917 1.020587 0.38376 0.052 Uiso calc U P R 0.360(4) A 1
C C8 0.5369(5) 0.6919(16) 0.4214(8) 0.0412(14) Uani d U P D 0.360(4) A 1
C C9 0.4803(5) 0.9276(16) 0.5957(8) 0.0421(14) Uani d U P D 0.360(4) A 1
N N1 0.4641(4) 0.7212(9) 0.4968(6) 0.0418(12) Uani d U P D 0.360(4) A 1
O O1 0.5640(3) 1.0410(7) 0.5837(6) 0.0451(12) Uani d U P D 0.360(4) A 1
O O2 0.5433(12) 0.529(3) 0.333(2) 0.056(2) Uani d U P D 0.360(4) A 1
O O3 0.4345(11) 0.989(4) 0.6891(14) 0.057(2) Uani d U P D 0.360(4) A 1
C C10 0.3909(9) 0.600(2) 0.5355(13) 0.047(2) Uani d U P . 0.360(4) A 1
H H10A 0.396822 0.625194 0.641951 0.056 Uiso calc U P R 0.360(4) A 1
H H10B 0.401793 0.421108 0.521416 0.056 Uiso calc U P R 0.360(4) A 1
C C11 0.2792(6) 0.655(2) 0.4598(12) 0.040(2) Uani d U P G 0.360(4) A 1
C C12 0.2670(8) 0.8340(19) 0.3463(12) 0.046(2) Uani d U P G 0.360(4) A 1
H H12 0.320592 0.8982 0.313804 0.056 Uiso calc U P R 0.360(4) A 1
C C13 0.1746(9) 0.917(2) 0.2812(12) 0.060(3) Uani d U P G 0.360(4) A 1
H H13 0.166455 1.03629 0.205274 0.072 Uiso calc U P R 0.360(4) A 1
C C14 0.0945(7) 0.821(3) 0.3297(16) 0.076(3) Uani d U P G 0.360(4) A 1
H H14 0.032672 0.87602 0.286227 0.091 Uiso calc U P R 0.360(4) A 1
C C15 0.1067(7) 0.642(2) 0.4433(18) 0.062(2) Uani d U P G 0.360(4) A 1
H H15 0.053025 0.577657 0.47571 0.075 Uiso calc U P R 0.360(4) A 1
C C16 0.1990(8) 0.5592(19) 0.5083(14) 0.050(2) Uani d U P G 0.360(4) A 1
H H16 0.207161 0.439563 0.584243 0.06 Uiso calc U P R 0.360(4) A 1
C C1A 0.1170(4) 0.5769(12) 0.4410(9) 0.0739(19) Uani d U P G 0.640(4) A 2
H H1A 0.06906 0.474996 0.466529 0.089 Uiso calc U P R 0.640(4) A 2
C C2A 0.2140(4) 0.5181(11) 0.4926(7) 0.0567(15) Uani d U P G 0.640(4) A 2
H H2A 0.230937 0.376787 0.552575 0.068 Uiso calc U P R 0.640(4) A 2
C C3A 0.2856(3) 0.6704(13) 0.4545(9) 0.0511(17) Uani d U P G 0.640(4) A 2
C C4A 0.2603(5) 0.8815(11) 0.3648(9) 0.0505(13) Uani d U P G 0.640(4) A 2
H H4A 0.308256 0.983449 0.339359 0.061 Uiso calc U P R 0.640(4) A 2
C C5A 0.1633(5) 0.9404(12) 0.3133(7) 0.0611(15) Uani d U P G 0.640(4) A 2
H H5A 0.14638 1.081662 0.253312 0.073 Uiso calc U P R 0.640(4) A 2
C C6A 0.0917(4) 0.7881(14) 0.3514(8) 0.0748(19) Uani d U P G 0.640(4) A 2
H H6A 0.026781 0.827439 0.316895 0.09 Uiso calc U P R 0.640(4) A 2
C C7A 0.3824(6) 0.5702(13) 0.5064(8) 0.0562(18) Uani d U P . 0.640(4) A 2
H H7A 0.381166 0.447828 0.586434 0.067 Uiso calc U P R 0.640(4) A 2
C C8A 0.4535(3) 0.8161(9) 0.5747(5) 0.0468(8) Uani d U P D 0.640(4) A 2
C C9A 0.5105(3) 0.5902(11) 0.4004(6) 0.0496(9) Uani d U P D 0.640(4) A 2
N N1A 0.5270(2) 0.7922(5) 0.4994(4) 0.0467(7) Uani d U P D 0.640(4) A 2
O O1A 0.4279(2) 0.4750(5) 0.4117(4) 0.0515(7) Uani d U P D 0.640(4) A 2
O O2A 0.4421(7) 0.9848(17) 0.6577(9) 0.0595(15) Uani d U P D 0.640(4) A 2
O O3A 0.5628(7) 0.527(2) 0.3166(13) 0.0629(17) Uani d U P D 0.640(4) A 2
C C10A 0.6060(6) 0.9721(12) 0.5072(9) 0.0567(16) Uani d U P . 0.640(4) A 2
H H10C 0.600685 1.097459 0.582504 0.068 Uiso calc U P R 0.640(4) A 2
H H10D 0.597947 1.059216 0.41222 0.068 Uiso calc U P R 0.640(4) A 2
C C11A 0.7085(4) 0.8589(14) 0.5434(8) 0.0501(16) Uani d U P G 0.640(4) A 2
C C12A 0.7222(4) 0.6428(14) 0.6315(8) 0.0576(17) Uani d U P G 0.640(4) A 2
H H12A 0.669062 0.55762 0.653598 0.069 Uiso calc U P R 0.640(4) A 2
C C13A 0.8152(5) 0.5540(11) 0.6866(8) 0.0599(15) Uani d U P G 0.640(4) A 2
H H13A 0.824362 0.409376 0.745474 0.072 Uiso calc U P R 0.640(4) A 2
C C14A 0.8946(4) 0.6812(14) 0.6535(9) 0.0732(19) Uani d U P G 0.640(4) A 2
H H14A 0.956849 0.621809 0.69036 0.088 Uiso calc U P R 0.640(4) A 2
C C15A 0.8809(4) 0.8973(15) 0.5655(8) 0.0722(17) Uani d U P G 0.640(4) A 2
H H15A 0.934036 0.982487 0.54337 0.087 Uiso calc U P R 0.640(4) A 2
C C16A 0.7879(5) 0.9862(12) 0.5104(7) 0.0605(16) Uani d U P G 0.640(4) A 2
H H16A 0.778737 1.130735 0.451494 0.073 Uiso calc U P R 0.640(4) A 2
loop_
_atom_site_aniso_label
_atom_site_aniso_U_11
_atom_site_aniso_U_22
_atom_site_aniso_U_33
_atom_site_aniso_U_12
_atom_site_aniso_U_13
_atom_site_aniso_U_23
C1 0.054(5) 0.102(6) 0.054(5) -0.019(4) 0.007(4) 0.003(4)
C2 0.045(5) 0.073(5) 0.047(4) -0.013(4) -0.002(3) -0.007(3)
C3 0.029(4) 0.059(5) 0.054(6) 0.004(3) 0.006(4) 0.005(4)
C4 0.033(3) 0.049(4) 0.043(4) -0.004(3) -0.007(3) 0.013(3)
C5 0.030(4) 0.049(4) 0.068(4) 0.000(3) -0.013(3) 0.000(3)
C6 0.041(4) 0.077(6) 0.072(5) -0.005(4) 0.012(4) -0.010(5)
C7 0.040(3) 0.046(4) 0.042(4) 0.008(3) 0.002(3) -0.002(3)
C8 0.039(3) 0.039(3) 0.041(3) 0.013(2) -0.005(2) -0.003(3)
C9 0.034(3) 0.050(4) 0.041(3) 0.008(3) 0.002(2) -0.004(3)
N1 0.037(3) 0.042(2) 0.043(3) 0.009(2) -0.0023(18) -0.003(2)
O1 0.039(2) 0.040(2) 0.055(2) 0.0046(15) 0.0061(19) -0.0108(16)
O2 0.042(5) 0.057(4) 0.065(7) 0.013(3) 0.000(4) -0.021(4)
O3 0.044(3) 0.089(5) 0.038(4) -0.001(3) 0.009(3) -0.017(3)
C10 0.035(3) 0.061(4) 0.038(4) 0.018(3) -0.008(3) -0.018(3)
C11 0.026(3) 0.035(4) 0.055(5) 0.008(3) -0.006(3) 0.005(3)
C12 0.042(4) 0.049(4) 0.048(4) 0.017(3) 0.009(3) 0.000(3)
C13 0.060(6) 0.069(5) 0.050(4) 0.020(4) 0.008(4) 0.002(4)
C14 0.040(6) 0.099(7) 0.082(6) 0.016(5) -0.004(5) -0.001(6)
C15 0.028(3) 0.068(6) 0.090(6) 0.011(3) 0.009(3) -0.008(4)
C16 0.036(4) 0.047(4) 0.073(5) 0.005(3) 0.027(3) 0.006(3)
C1A 0.050(3) 0.073(4) 0.101(4) -0.003(3) 0.020(3) -0.009(3)
C2A 0.041(3) 0.057(3) 0.073(3) -0.001(2) 0.013(2) -0.009(2)
C3A 0.045(3) 0.059(3) 0.049(3) -0.011(2) 0.008(2) -0.001(2)
C4A 0.043(2) 0.045(2) 0.064(3) 0.0093(17) 0.0108(18) -0.001(2)
C5A 0.044(3) 0.074(3) 0.062(3) 0.024(2) 0.004(2) -0.001(2)
C6A 0.037(3) 0.093(4) 0.089(4) 0.008(3) 0.002(3) -0.015(4)
C7A 0.050(3) 0.058(3) 0.053(3) -0.013(2) -0.010(2) 0.017(3)
C8A 0.043(2) 0.049(2) 0.0440(19) 0.0099(16) -0.0022(15) -0.0052(16)
C9A 0.047(2) 0.051(2) 0.047(2) 0.0163(19) -0.0007(18) -0.0061(19)
N1A 0.0413(18) 0.0473(14) 0.0474(16) 0.0038(12) -0.0006(11) -0.0057(13)
O1A 0.0455(14) 0.0519(13) 0.0546(13) 0.0063(10) 0.0036(11) -0.0188(10)
O2A 0.070(3) 0.059(2) 0.047(3) 0.009(2) 0.008(2) -0.021(2)
O3A 0.050(4) 0.081(3) 0.058(2) 0.017(3) 0.012(2) -0.0147(17)
C10A 0.043(2) 0.048(3) 0.073(4) 0.001(2) -0.001(3) 0.012(2)
C11A 0.050(3) 0.043(2) 0.053(3) -0.007(2) -0.002(3) 0.004(2)
C12A 0.042(2) 0.071(3) 0.052(3) 0.003(2) -0.011(2) 0.005(2)
C13A 0.044(3) 0.062(3) 0.066(3) 0.002(2) -0.006(2) -0.004(2)
C14A 0.041(3) 0.088(4) 0.086(4) 0.013(3) 0.000(3) 0.008(3)
C15A 0.039(2) 0.101(4) 0.074(4) -0.014(3) 0.005(2) 0.001(3)
C16A 0.049(3) 0.064(3) 0.060(3) -0.021(2) -0.009(2) 0.007(3)
loop_
_atom_type_symbol
_atom_type_description
_atom_type_scat_dispersion_real
_atom_type_scat_dispersion_imag
_atom_type_scat_source
C C 0.0033 0.0016 'International Tables Vol C Tables 4.2.6.8 and 6.1.1.4'
H H 0.0000 0.0000 'International Tables Vol C Tables 4.2.6.8 and 6.1.1.4'
N N 0.0061 0.0033 'International Tables Vol C Tables 4.2.6.8 and 6.1.1.4'
O O 0.0106 0.0060 'International Tables Vol C Tables 4.2.6.8 and 6.1.1.4'
loop_
_geom_angle_atom_site_label_1
_geom_angle_atom_site_label_2
_geom_angle_atom_site_label_3
_geom_angle
C2 C1 C6 120.0
C2 C1 H1 120.0
C6 C1 H1 120.0
C3 C2 C1 120.0
C3 C2 H2 120.0
C1 C2 H2 120.0
C4 C3 C2 120.0
C4 C3 C7 130.5(9)
C2 C3 C7 109.2(9)
C3 C4 C5 120.0
C3 C4 H4 120.0
C5 C4 H4 120.0
C4 C5 C6 120.0
C4 C5 H5 120.0
C6 C5 H5 120.0
C5 C6 C1 120.0
C5 C6 H6 120.0
C1 C6 H6 120.0
O1 C7 C3 105.4(9)
O1 C7 C8 103.0(9)
C3 C7 C8 115.7(9)
O1 C7 H7 110.8
C3 C7 H7 110.8
C8 C7 H7 110.8
O2 C8 N1 126.4(11)
O2 C8 C7 127.0(10)
N1 C8 C7 106.5(7)
O3 C9 O1 122.4(11)
O3 C9 N1 128.3(12)
O1 C9 N1 109.0(5)
C10 N1 C8 142.3(7)
C10 N1 C9 103.9(7)
C8 N1 C9 112.0(7)
C9 O1 C7 109.4(6)
N1 C10 C11 122.9(10)
N1 C10 H10A 106.6
C11 C10 H10A 106.6
N1 C10 H10B 106.6
C11 C10 H10B 106.6
H10A C10 H10B 106.6
C12 C11 C16 120.0
C12 C11 C10 114.1(8)
C16 C11 C10 125.6(8)
C13 C12 C11 120.0
C13 C12 H12 120.0
C11 C12 H12 120.0
C12 C13 C14 120.0
C12 C13 H13 120.0
C14 C13 H13 120.0
C15 C14 C13 120.0
C15 C14 H14 120.0
C13 C14 H14 120.0
C14 C15 C16 120.0
C14 C15 H15 120.0
C16 C15 H15 120.0
C15 C16 C11 120.0
C15 C16 H16 120.0
C11 C16 H16 120.0
C2A C1A C6A 120.0
C2A C1A H1A 120.0
C6A C1A H1A 120.0
C3A C2A C1A 120.0
C3A C2A H2A 120.0
C1A C2A H2A 120.0
C4A C3A C2A 120.0
C4A C3A C7A 126.9(5)
C2A C3A C7A 112.9(5)
C5A C4A C3A 120.0
C5A C4A H4A 120.0
C3A C4A H4A 120.0
C4A C5A C6A 120.0
C4A C5A H5A 120.0
C6A C5A H5A 120.0
C5A C6A C1A 120.0
C5A C6A H6A 120.0
C1A C6A H6A 120.0
O1A C7A C3A 119.2(6)
O1A C7A C8A 102.3(5)
C3A C7A C8A 106.9(5)
O1A C7A H7A 109.3
C3A C7A H7A 109.3
C8A C7A H7A 109.3
O2A C8A N1A 126.9(7)
O2A C8A C7A 131.4(6)
N1A C8A C7A 101.4(4)
O3A C9A O1A 125.0(7)
O3A C9A N1A 125.4(8)
O1A C9A N1A 109.6(4)
C8A N1A C9A 110.9(4)
C8A N1A C10A 124.5(4)
C9A N1A C10A 124.2(5)
C7A O1A C9A 115.8(4)
N1A C10A C11A 115.6(5)
N1A C10A H10C 108.4
C11A C10A H10C 108.4
N1A C10A H10D 108.4
C11A C10A H10D 108.4
H10C C10A H10D 107.4
C12A C11A C16A 120.0
C12A C11A C10A 117.5(5)
C16A C11A C10A 121.8(5)
C11A C12A C13A 120.0
C11A C12A H12A 120.0
C13A C12A H12A 120.0
C14A C13A C12A 120.0
C14A C13A H13A 120.0
C12A C13A H13A 120.0
C15A C14A C13A 120.0
C15A C14A H14A 120.0
C13A C14A H14A 120.0
C14A C15A C16A 120.0
C14A C15A H15A 120.0
C16A C15A H15A 120.0
C15A C16A C11A 120.0
C15A C16A H16A 120.0
C11A C16A H16A 120.0
loop_
_geom_bond_atom_site_label_1
_geom_bond_atom_site_label_2
_geom_bond_distance
C1 C2 1.39
C1 C6 1.39
C1 H1 0.93
C2 C3 1.39
C2 H2 0.93
C3 C4 1.39
C3 C7 1.496(15)
C4 C5 1.39
C4 H4 0.93
C5 C6 1.39
C5 H5 0.93
C6 H6 0.93
C7 O1 1.491(10)
C7 C8 1.517(15)
C7 H7 0.98
C8 O2 1.202(13)
C8 N1 1.355(9)
C9 O3 1.213(6)
C9 O1 1.348(9)
C9 N1 1.408(9)
N1 C10 1.322(15)
C10 C11 1.617(15)
C10 H10A 0.97
C10 H10B 0.97
C11 C12 1.39
C11 C16 1.39
C12 C13 1.39
C12 H12 0.93
C13 C14 1.39
C13 H13 0.93
C14 C15 1.39
C14 H14 0.93
C15 C16 1.39
C15 H15 0.93
C16 H16 0.93
C1A C2A 1.39
C1A C6A 1.39
C1A H1A 0.93
C2A C3A 1.39
C2A H2A 0.93
C3A C4A 1.39
C3A C7A 1.452(10)
C4A C5A 1.39
C4A H4A 0.93
C5A C6A 1.39
C5A H5A 0.93
C6A H6A 0.93
C7A O1A 1.280(9)
C7A C8A 1.686(9)
C7A H7A 0.98
C8A O2A 1.203(7)
C8A N1A 1.359(5)
C9A O3A 1.212(5)
C9A O1A 1.336(6)
C9A N1A 1.390(6)
N1A C10A 1.456(8)
C10A C11A 1.539(10)
C10A H10C 0.97
C10A H10D 0.97
C11A C12A 1.39
C11A C16A 1.39
C12A C13A 1.39
C12A H12A 0.93
C13A C14A 1.39
C13A H13A 0.93
C14A C15A 1.39
C14A H14A 0.93
C15A C16A 1.39
C15A H15A 0.93
C16A H16A 0.93
loop_
_geom_torsion_atom_site_label_1
_geom_torsion_atom_site_label_2
_geom_torsion_atom_site_label_3
_geom_torsion_atom_site_label_4
_geom_torsion
C6 C1 C2 C3 0
C1 C2 C3 C4 0
C1 C2 C3 C7 -174.6(10)
C2 C3 C4 C5 0
C7 C3 C4 C5 173.3(13)
C3 C4 C5 C6 0
C4 C5 C6 C1 0
C2 C1 C6 C5 0
C4 C3 C7 O1 69.9(11)
C2 C3 C7 O1 -116.2(9)
C4 C3 C7 C8 -43.1(14)
C2 C3 C7 C8 130.7(9)
O1 C7 C8 O2 -177.9(15)
C3 C7 C8 O2 -63.4(19)
O1 C7 C8 N1 3.5(9)
C3 C7 C8 N1 118.0(10)
O2 C8 N1 C10 17.(2)
C7 C8 N1 C10 -164.1(12)
O2 C8 N1 C9 178.2(15)
C7 C8 N1 C9 -3.1(8)
O3 C9 N1 C10 -3.9(15)
O1 C9 N1 C10 169.5(7)
O3 C9 N1 C8 -172.1(13)
O1 C9 N1 C8 1.4(7)
O3 C9 O1 C7 175.0(13)
N1 C9 O1 C7 1.1(8)
C3 C7 O1 C9 -124.5(8)
C8 C7 O1 C9 -2.8(9)
C8 N1 C10 C11 -106.5(12)
C9 N1 C10 C11 91.7(10)
N1 C10 C11 C12 2.6(12)
N1 C10 C11 C16 -171.0(8)
C16 C11 C12 C13 0
C10 C11 C12 C13 -174.0(9)
C11 C12 C13 C14 0
C12 C13 C14 C15 0
C13 C14 C15 C16 0
C14 C15 C16 C11 0
C12 C11 C16 C15 0
C10 C11 C16 C15 173.2(10)
C6A C1A C2A C3A 0
C1A C2A C3A C4A 0
C1A C2A C3A C7A -174.9(6)
C2A C3A C4A C5A 0
C7A C3A C4A C5A 174.1(7)
C3A C4A C5A C6A 0
C4A C5A C6A C1A 0
C2A C1A C6A C5A 0
C4A C3A C7A O1A -67.1(8)
C2A C3A C7A O1A 107.3(6)
C4A C3A C7A C8A 47.9(7)
C2A C3A C7A C8A -137.6(4)
O1A C7A C8A O2A 172.7(7)
C3A C7A C8A O2A 46.7(10)
O1A C7A C8A N1A -1.6(5)
C3A C7A C8A N1A -127.5(5)
O2A C8A N1A C9A -172.8(7)
C7A C8A N1A C9A 1.8(4)
O2A C8A N1A C10A 0.0(9)
C7A C8A N1A C10A 174.6(5)
O3A C9A N1A C8A 178.4(10)
O1A C9A N1A C8A -1.6(4)
O3A C9A N1A C10A 5.6(11)
O1A C9A N1A C10A -174.4(5)
C3A C7A O1A C9A 118.2(6)
C8A C7A O1A C9A 0.7(6)
O3A C9A O1A C7A -179.6(10)
N1A C9A O1A C7A 0.4(6)
C8A N1A C10A C11A 128.2(6)
C9A N1A C10A C11A -59.9(8)
N1A C10A C11A C12A -30.0(8)
N1A C10A C11A C16A 159.9(5)
C16A C11A C12A C13A 0
C10A C11A C12A C13A -170.3(7)
C11A C12A C13A C14A 0
C12A C13A C14A C15A 0
C13A C14A C15A C16A 0
C14A C15A C16A C11A 0
C12A C11A C16A C15A 0
C10A C11A C16A C15A 169.9(7)
