#------------------------------------------------------------------------------
#$Date: 2019-11-24 19:07:33 +0200 (Sun, 24 Nov 2019) $
#$Revision: 239123 $
#$URL: file:///home/coder/svn-repositories/cod/cif/1/55/57/1555793.cif $
#------------------------------------------------------------------------------
#
# This file is available in the Crystallography Open Database (COD),
# http://www.crystallography.net/
#
# All data on this site have been placed in the public domain by the
# contributors.
#
data_1555793
loop_
_publ_author_name
'Seo, Boram'
'Kim, Ya Gob'
'Lee, Phil Ho'
_publ_section_title
;
 Synthesis of Isothiazole via the Rhodium-Catalyzed Transannulation of
 1,2,3-Thiadiazoles with Nitriles.
;
_journal_issue                   19
_journal_name_full               'Organic letters'
_journal_page_first              5050
_journal_page_last               5053
_journal_paper_doi               10.1021/acs.orglett.6b02499
_journal_volume                  18
_journal_year                    2016
_chemical_formula_moiety         C30H22Br2N2O4S2
_chemical_formula_sum            'C30 H22 Br2 N2 O4 S2'
_chemical_formula_weight         698.43
_space_group_crystal_system      triclinic
_space_group_IT_number           1
_space_group_name_Hall           'P 1'
_space_group_name_H-M_alt        'P 1'
_atom_sites_solution_hydrogens   geom
_audit_creation_method           SHELXL-2013
_cell_angle_alpha                80.790(8)
_cell_angle_beta                 71.850(8)
_cell_angle_gamma                65.087(7)
_cell_formula_units_Z            1
_cell_length_a                   7.9207(11)
_cell_length_b                   9.0758(12)
_cell_length_c                   11.1924(15)
_cell_measurement_reflns_used    20099
_cell_measurement_temperature    170(2)
_cell_measurement_theta_max      28.461
_cell_measurement_theta_min      1.916
_cell_volume                     693.02(17)
_computing_cell_refinement       'Bruker APEX II'
_computing_data_collection       'Bruker APEX II'
_computing_data_reduction        'Bruker APEX II'
_computing_molecular_graphics    'SHELXL-2013 (Sheldrick, 2013)'
_computing_publication_material  'Bruker SHELXTL'
_computing_structure_refinement  'SHELXL-2013 (Sheldrick, 2013)'
_computing_structure_solution    'SHELXL-2013 (Sheldrick, 2013)'
_diffrn_ambient_temperature      170(2)
_diffrn_measured_fraction_theta_full 0.999
_diffrn_measured_fraction_theta_max 0.985
_diffrn_measurement_device_type  multi-scan
_diffrn_measurement_method       'not measured'
_diffrn_radiation_type           MoK\a
_diffrn_radiation_wavelength     0.71073
_diffrn_reflns_av_R_equivalents  0.0584
_diffrn_reflns_av_unetI/netI     0.0733
_diffrn_reflns_Laue_measured_fraction_full 0.999
_diffrn_reflns_Laue_measured_fraction_max 0.985
_diffrn_reflns_limit_h_max       10
_diffrn_reflns_limit_h_min       -10
_diffrn_reflns_limit_k_max       12
_diffrn_reflns_limit_k_min       -12
_diffrn_reflns_limit_l_max       15
_diffrn_reflns_limit_l_min       -14
_diffrn_reflns_number            20099
_diffrn_reflns_point_group_measured_fraction_full 0.999
_diffrn_reflns_point_group_measured_fraction_max 0.985
_diffrn_reflns_theta_full        25.242
_diffrn_reflns_theta_max         28.461
_diffrn_reflns_theta_min         1.916
_diffrn_source                   'fine-focus sealed tube'
_exptl_absorpt_coefficient_mu    3.116
_exptl_absorpt_correction_T_max  0.732
_exptl_absorpt_correction_T_min  0.408
_exptl_absorpt_correction_type   multi-scan
_exptl_absorpt_process_details   'SADABS V2012/1 (Bruker AXS Inc.)'
_exptl_crystal_colour            colourless
_exptl_crystal_density_diffrn    1.674
_exptl_crystal_description       needle
_exptl_crystal_F_000             350
_exptl_crystal_size_max          0.300
_exptl_crystal_size_mid          0.280
_exptl_crystal_size_min          0.100
_refine_diff_density_max         0.395
_refine_diff_density_min         -0.555
_refine_diff_density_rms         0.079
_refine_ls_abs_structure_details
;
 Refined as an inversion twin.
;
_refine_ls_abs_structure_Flack   0.51(3)
_refine_ls_extinction_method     none
_refine_ls_goodness_of_fit_ref   1.008
_refine_ls_hydrogen_treatment    constr
_refine_ls_matrix_type           full
_refine_ls_number_parameters     364
_refine_ls_number_reflns         6809
_refine_ls_number_restraints     87
_refine_ls_restrained_S_all      1.004
_refine_ls_R_factor_all          0.0783
_refine_ls_R_factor_gt           0.0435
_refine_ls_shift/su_max          0.014
_refine_ls_shift/su_mean         0.002
_refine_ls_structure_factor_coef Fsqd
_refine_ls_weighting_details
'w=1/[\s^2^(Fo^2^)+(0.0355P)^2^] where P=(Fo^2^+2Fc^2^)/3'
_refine_ls_weighting_scheme      calc
_refine_ls_wR_factor_gt          0.0848
_refine_ls_wR_factor_ref         0.0968
_reflns_Friedel_coverage         1.000
_reflns_Friedel_fraction_full    0.999
_reflns_Friedel_fraction_max     0.985
_reflns_number_gt                4438
_reflns_number_total             6809
_reflns_threshold_expression     'I > 2\s(I)'
_cod_data_source_file            ol6b02499_si_003.cif
_cod_data_source_block           SBR-2185
_cod_database_code               1555793
_shelx_space_group_comment
;
The symmetry employed for this shelxl refinement is uniquely defined
by the following loop, which should always be used as a source of
symmetry information in preference to the above space-group names.
They are only intended as comments.
;
_shelx_estimated_absorpt_t_min   0.455
_shelx_estimated_absorpt_t_max   0.746
_shelxl_version_number           2013-4
_shelx_res_file
;
TITL ye598P1 in P1
CELL 0.71073   7.92070   9.07580  11.19240  80.7901  71.8504  65.0867
ZERR    1.00   0.00110   0.00120   0.00150   0.0075   0.0077   0.0072
LATT -1
SFAC C  H  N  O  S  Br
UNIT 30  22  2  4  2  2
OMIT    -1   1   4
OMIT    -2   6   9
OMIT    -1  -6 -12
OMIT     3   1   5
OMIT    -2  -1   3
OMIT    -1  -2  -5
OMIT    -8 -10  -8
OMIT    -3  -2  -1
OMIT    -3 -10  -1
OMIT     0  -3   5
OMIT    -1  -2   0
OMIT    -9   0  -4
OMIT    -3   0  -2
OMIT     1   2   5
OMIT    -2   7   8
OMIT     0   1   2
OMIT    -3   8   0
OMIT    -7  -1  -9
OMIT     1   0 -10
OMIT     1   4   3
OMIT    -3 -10   0
OMIT    -3   3  -2
OMIT    -5   6  -1
OMIT    -2 -11   0
OMIT     1   2  -3
OMIT    -3 -10  -6
OMIT    -1  -4  -3
OMIT    -3   8   1
OMIT    -5  -4   0
OMIT     1  -8  -3
OMIT     1   8  -5
OMIT     0  -9  -3
OMIT    -8  -3  -8
OMIT    -3   7   6
OMIT    -9  -5 -11
OMIT     2  -1   8
OMIT     1  -5 -10
OMIT     0   0   3
OMIT    -7 -10   1
OMIT     0  -6 -10
OMIT    -4   1  -9
OMIT    -1  -7 -10
OMIT    -9  -1  -7
OMIT     2  -3  -1
OMIT     0   0  -1
OMIT     0  -7   1
OMIT    -4 -11   1
OMIT    -2  -2  -1
OMIT    -1 -11   0
OMIT    -1  -3 -11
L.S. 10
ACTA
BOND $H
FMAP 2
PLAN 1
SIZE 0.100 0.280 0.300
TWIN
ISOR 0.001 C4 C5 C6 C8 C10 C14 C15 C18 C16 C20 C21 C29 C28 C27
TEMP -103
WGHT    0.035500
BASF   0.51415
FVAR       0.20235
MOLE 1
BR1   6    0.483136   -0.669426   -0.658986    11.00000    0.05985    0.03392 =
         0.04951   -0.01662   -0.01733   -0.01417
BR2   6   -0.238942    1.101140    0.767850    11.00000    0.05829    0.03417 =
         0.04525   -0.01374   -0.01659   -0.01446
C1    1    0.438261   -0.491619   -0.561271    11.00000    0.03918    0.02891 =
         0.03661   -0.02131   -0.00210   -0.01577
C2    1    0.501281   -0.530762   -0.452354    11.00000    0.04745    0.01222 =
         0.03283   -0.00384   -0.01706   -0.00412
AFIX  43
H2    2    0.565087   -0.640319   -0.426650    11.00000   -1.20000
AFIX   0
C3    1    0.465433   -0.399759   -0.382794    11.00000    0.03624    0.01717 =
         0.03612   -0.01259   -0.01299   -0.00787
AFIX  43
H3    2    0.511322   -0.421180   -0.310273    11.00000   -1.20000
AFIX   0
C4    1    0.364823   -0.239963   -0.417173    11.00000    0.02383    0.02361 =
         0.02372   -0.00045   -0.00657   -0.00923
C5    1    0.302094   -0.208910   -0.525802    11.00000    0.02811    0.02703 =
         0.02699   -0.00082   -0.00765   -0.01079
AFIX  43
H5    2    0.240661   -0.099648   -0.553088    11.00000   -1.20000
AFIX   0
C6    1    0.328678   -0.338391   -0.596455    11.00000    0.03377    0.03113 =
         0.03042   -0.00277   -0.00925   -0.01274
AFIX  43
H6    2    0.273090   -0.318995   -0.664343    11.00000   -1.20000
AFIX   0
C7    1    0.315425   -0.102607   -0.344024    11.00000    0.03674    0.01531 =
         0.02823   -0.00143   -0.01621   -0.01210
C8    1    0.299251   -0.096759   -0.211515    11.00000    0.02298    0.02141 =
         0.02301   -0.00048   -0.00720   -0.00858
C9    1    0.252210    0.056060   -0.182075    11.00000    0.02836    0.02528 =
         0.03108   -0.00845   -0.01166   -0.00522
C10   1    0.317955   -0.236713   -0.124655    11.00000    0.02557    0.02569 =
         0.02559   -0.00125   -0.00700   -0.01016
C11   1    0.503001   -0.415092    0.011508    11.00000    0.04630    0.07413 =
         0.06207    0.04759   -0.02994   -0.03677
AFIX  23
H11A  2    0.507275   -0.384328    0.091149    11.00000   -1.20000
H11B  2    0.396688   -0.453037    0.031460    11.00000   -1.20000
AFIX   0
C12   1    0.675442   -0.540393   -0.039063    11.00000    0.11741    0.04189 =
         0.08148    0.01654   -0.04049    0.01538
AFIX 137
H12A  2    0.783220   -0.511878   -0.042385    11.00000   -1.50000
H12B  2    0.680972   -0.559115   -0.124295    11.00000   -1.50000
H12C  2    0.684898   -0.639389    0.013489    11.00000   -1.50000
AFIX   0
C13   1    0.190769    0.134055   -0.056145    11.00000    0.02898    0.01629 =
         0.03244   -0.00413   -0.01186   -0.00444
C14   1    0.103986    0.069763    0.053125    11.00000    0.02851    0.02806 =
         0.02858   -0.00101   -0.00781   -0.01157
AFIX  43
H14   2    0.089313   -0.028655    0.052231    11.00000   -1.20000
AFIX   0
C15   1    0.039167    0.148808    0.162852    11.00000    0.03012    0.02774 =
         0.02909   -0.00025   -0.00661   -0.01285
AFIX  43
H15   2   -0.017648    0.101348    0.237680    11.00000   -1.20000
AFIX   0
C16   1    0.051985    0.297405    0.171188    11.00000    0.02515    0.02539 =
         0.02584   -0.00086   -0.00695   -0.01040
C17   1    0.142226    0.357737    0.057155    11.00000    0.04514    0.01407 =
         0.03975   -0.00471   -0.00878   -0.01638
AFIX  43
H17   2    0.154822    0.457327    0.057055    11.00000   -1.20000
AFIX   0
C18   1    0.214033    0.277915   -0.055757    11.00000    0.03213    0.02990 =
         0.03092   -0.00086   -0.00775   -0.01333
AFIX  43
H18   2    0.277352    0.320563   -0.130702    11.00000   -1.20000
AFIX   0
C19   1   -0.003357    0.369747    0.287841    11.00000    0.02919    0.01929 =
         0.03353    0.00341   -0.01155   -0.01370
C20   1   -0.055414    0.529280    0.323909    11.00000    0.02458    0.02263 =
         0.02504   -0.00053   -0.00760   -0.00913
C21   1   -0.074834    0.534539    0.453148    11.00000    0.03098    0.03053 =
         0.03082   -0.00086   -0.00839   -0.01235
C22   1   -0.079442    0.673343    0.230044    11.00000    0.03533    0.01851 =
         0.02225   -0.01004   -0.00247   -0.00757
C23   1   -0.252930    0.833801    0.082659    11.00000    0.07208    0.01503 =
         0.03741    0.00078   -0.03454   -0.01034
AFIX  23
H23A  2   -0.312164    0.815959    0.023315    11.00000   -1.20000
H23B  2   -0.129664    0.842877    0.033742    11.00000   -1.20000
AFIX   0
C24   1   -0.391484    0.992537    0.153878    11.00000    0.06537    0.02887 =
         0.05562    0.00380   -0.00778   -0.00823
AFIX 137
H24A  2   -0.322235    1.022107    0.198532    11.00000   -1.50000
H24B  2   -0.501944    0.975518    0.214525    11.00000   -1.50000
H24C  2   -0.437814    1.080278    0.093574    11.00000   -1.50000
AFIX   0
C25   1   -0.116057    0.676984    0.526937    11.00000    0.03744    0.01912 =
         0.02582   -0.00641   -0.00356   -0.01260
C26   1   -0.061123    0.649328    0.636928    11.00000    0.05705    0.01467 =
         0.02975    0.00184   -0.01907   -0.00622
AFIX  43
H26   2    0.010640    0.540849    0.660764    11.00000   -1.20000
AFIX   0
C27   1   -0.104918    0.768796    0.710620    11.00000    0.03395    0.03146 =
         0.03001   -0.00271   -0.00925   -0.01205
AFIX  43
H27   2   -0.077319    0.743637    0.789963    11.00000   -1.20000
AFIX   0
C28   1   -0.191105    0.930863    0.672360    11.00000    0.02716    0.02685 =
         0.02721   -0.00041   -0.00706   -0.01104
C29   1   -0.254303    0.960405    0.566246    11.00000    0.03203    0.03124 =
         0.03215   -0.00093   -0.00840   -0.01244
AFIX  43
H29   2   -0.325746    1.069403    0.543279    11.00000   -1.20000
AFIX   0
C30   1   -0.217880    0.838659    0.493051    11.00000    0.03419    0.04171 =
         0.01657    0.00773   -0.01175   -0.01133
AFIX  43
H30   2   -0.261267    0.863118    0.419302    11.00000   -1.20000
AFIX   0
N1    3    0.281478    0.040104   -0.405502    11.00000    0.04797    0.01859 =
         0.03467    0.00516   -0.02815   -0.00658
N2    3   -0.047269    0.392033    0.516474    11.00000    0.05459    0.02565 =
         0.03138   -0.00156   -0.01202   -0.01759
O1    4    0.219407   -0.316371   -0.098225    11.00000    0.05841    0.03707 =
         0.03917   -0.00309   -0.00796   -0.03176
O2    4    0.462263   -0.273235   -0.072712    11.00000    0.03887    0.03347 =
         0.05988    0.02969   -0.01946   -0.01698
O3    4    0.013589    0.752545    0.212947    11.00000    0.04595    0.03990 =
         0.03357    0.01640   -0.01988   -0.02827
O4    4   -0.215195    0.694801    0.174980    11.00000    0.03868    0.02961 =
         0.03622    0.00089   -0.02500   -0.01510
S1    5    0.230221    0.184201   -0.311123    11.00000    0.06410    0.02445 =
         0.02579    0.00381   -0.02072   -0.01800
S2    5    0.010348    0.250315    0.422310    11.00000    0.05862    0.01477 =
         0.04577    0.00052   -0.02643   -0.01005
HKLF 4

REM  ye598P1 in P1
REM R1 =  0.0435 for    4438 Fo > 4sig(Fo)  and  0.0783 for all    6809 data
REM    364 parameters refined using     87 restraints

END

WGHT      0.0363      0.0000

REM Highest difference peak  0.395,  deepest hole -0.555,  1-sigma level  0.079
Q1    1   0.3328 -0.5438 -0.5969  11.00000  0.05    0.39
;
_shelx_res_checksum              10095
_shelx_hkl_file
;
  -1   0   0    3.52    0.31
  -1   0   0    3.16    0.27
  -1   0   0    3.65    0.28
   1   0   0    3.47    0.26
   1   0   0    3.62    0.28
   1   0   0    3.26    0.24
  -2   0   0   43.69    2.59
  -2   0   0   49.04    2.78
  -2   0   0   48.35    2.60
   2   0   0   47.52    3.67
   2   0   0   48.27    2.31
   2   0   0   47.45    2.46
  -3   0   0   11.70    0.92
  -3   0   0   12.46    1.05
  -3   0   0   12.83    1.04
   3   0   0   12.95    0.91
   3   0   0   12.46    0.76
   3   0   0   14.59    0.98
   3   0   0   12.25    0.92
   3   0   0   13.21    0.83
  -4   0   0  148.39    7.90
  -4   0   0  147.01    8.38
  -4   0   0  147.79    7.92
   4   0   0  147.44    7.01
   4   0   0  150.02    7.47
   4   0   0  145.55    7.64
   4   0   0  149.46    7.41
   4   0   0  149.63    7.93
  -5   0   0    1.26    0.51
  -5   0   0    0.83    0.46
  -5   0   0    2.00    0.70
  -5   0   0    1.88    0.57
   5   0   0    0.85    0.44
   5   0   0    1.08    0.38
   5   0   0    0.97    0.49
   5   0   0    2.06    0.55
  -6   0   0    6.83    1.07
  -6   0   0    8.84    1.39
  -6   0   0    6.02    1.20
  -6   0   0    6.38    1.07
   6   0   0    6.63    0.90
   6   0   0    8.12    1.16
   6   0   0    8.19    1.10
   6   0   0    6.93    1.05
  -7   0   0   16.24    1.88
  -7   0   0   11.53    1.74
  -7   0   0   20.49    2.04
   7   0   0   13.48    1.74
   7   0   0   16.29    1.73
   7   0   0   18.02    1.83
   7   0   0   13.39    1.63
  -8   0   0    1.06    0.92
  -8   0   0    1.14    0.91
  -8   0   0    0.28    0.83
   8   0   0    1.68    0.75
   8   0   0    1.91    0.96
   8   0   0    1.90    0.87
  -9   0   0    1.73    1.24
  -9   0   0    0.13    0.76
   9   0   0   -0.02    0.97
   9   0   0   -0.93    0.87
   8  -1   0    0.51    0.86
  -8   1   0   -0.73    0.79
  -8   1   0    0.04    0.68
   7  -1   0    0.63    1.45
   7  -1   0    1.99    0.80
   7  -1   0    1.07    0.85
   7  -1   0    2.30    0.71
  -7   1   0    0.53    0.78
  -7   1   0   -0.43    0.51
   6  -1   0    3.13    0.84
   6  -1   0    1.64    0.59
   6  -1   0    3.59    0.89
   6  -1   0    4.25    0.88
  -6   1   0    3.73    0.92
  -6   1   0    3.73    1.14
  -6   1   0    2.89    0.81
  -6   1   0    2.87    0.91
   5  -1   0   19.53    1.60
   5  -1   0   22.80    1.66
   5  -1   0   20.75    1.38
   5  -1   0   19.44    1.53
  -5   1   0   20.88    1.88
  -5   1   0   21.55    1.65
  -5   1   0   18.73    1.59
  -5   1   0   20.52    1.78
   4  -1   0    0.70    0.46
   4  -1   0    0.25    0.36
   4  -1   0    0.61    0.40
   4  -1   0    0.79    0.39
  -4   1   0    0.70    0.37
  -4   1   0    0.20    0.45
  -4   1   0    1.13    0.46
  -4   1   0    0.73    0.47
   3  -1   0   57.86    3.01
   3  -1   0   58.65    3.19
   3  -1   0   50.52    3.05
   3  -1   0   55.58    4.14
  -3   1   0   54.84    3.06
  -3   1   0   56.72    3.18
  -3   1   0   52.93    3.57
  -3   1   0   57.81    3.15
  -3   1   0   54.79    3.37
   2  -1   0   54.68    2.51
   2  -1   0   44.64    2.75
   2  -1   0   55.47    2.90
   2  -1   0   55.11    2.73
  -2   1   0   52.66    3.06
  -2   1   0   52.73    2.85
  -2   1   0   49.13    2.85
  -2   1   0   51.30    3.22
  -2   1   0   50.94    2.87
   1  -1   0   35.28    1.75
   1  -1   0   29.98    1.79
   1  -1   0   32.08    1.54
   1  -1   0   31.54    1.69
  -1   1   0   32.46    1.77
  -1   1   0   31.91    2.02
  -1   1   0   30.53    1.82
  -1   1   0   33.62    1.91
   0  -1   0   12.83    0.69
   0   1   0   11.72    0.69
   0   1   0   12.38    0.80
  -1  -1   0    1.61    0.20
  -1  -1   0    1.51    0.18
  -1  -1   0    1.38    0.19
   1   1   0    1.37    0.21
   1   1   0    1.36    0.16
   1   1   0    1.28    0.17
  -2  -1   0  836.12   42.67
  -2  -1   0  786.11   39.98
  -2  -1   0  844.15   42.53
  -2  -1   0  815.04   44.66
   2   1   0  896.97   40.00
   2   1   0  874.11   37.79
   2   1   0  820.67   42.11
   2   1   0  835.80   41.12
  -3  -1   0    0.22    0.21
  -3  -1   0    0.07    0.18
  -3  -1   0    0.29    0.22
  -3  -1   0    0.13    0.21
  -3  -1   0    0.13    0.23
   3   1   0    0.28    0.18
   3   1   0    0.02    0.16
   3   1   0    0.08    0.21
   3   1   0    0.00    0.20
  -4  -1   0  167.16    8.63
  -4  -1   0  165.26    9.11
  -4  -1   0  152.82    9.28
  -4  -1   0  162.01    8.62
   4   1   0  172.40    8.16
   4   1   0  162.34    8.31
   4   1   0  160.91    7.66
   4   1   0  161.12    8.19
  -5  -1   0    0.41    0.39
  -5  -1   0    0.29    0.49
  -5  -1   0    0.40    0.46
  -5  -1   0    0.19    0.36
   5   1   0    0.35    0.30
   5   1   0    0.04    0.32
   5   1   0    0.35    0.27
   5   1   0    0.15    0.80
  -6  -1   0    9.85    1.21
  -6  -1   0   12.78    1.60
  -6  -1   0   11.12    1.96
   6   1   0   10.14    1.19
   6   1   0   10.08    1.23
   6   1   0    9.91    1.20
   6   1   0    7.70    1.00
  -7  -1   0    0.06    0.69
  -7  -1   0   -0.11    0.58
  -7  -1   0    0.45    0.73
   7   1   0   -0.62    0.48
   7   1   0    0.07    0.51
   7   1   0    0.69    0.67
   7   1   0   -0.36    0.52
  -8  -1   0    7.40    1.37
  -8  -1   0    4.36    1.16
  -8  -1   0    6.30    1.52
   8   1   0    5.98    2.11
   8   1   0    6.51    1.23
   8   1   0    3.26    0.86
  -9  -1   0    1.58    1.13
  -9  -1   0    2.02    1.14
  -9  -1   0    0.94    1.01
   9   1   0    0.54    0.88
   9   1   0    0.40    0.78
   9   1   0    0.53    0.87
   8  -2   0   -0.18    0.82
   8  -2   0    0.09    0.82
  -8   2   0    0.14    0.94
  -8   2   0   -0.42    0.58
   7  -2   0    0.87    0.85
   7  -2   0   -0.16    0.63
  -7   2   0   -0.12    0.55
  -7   2   0   -0.23    1.11
  -7   2   0    0.36    0.76
   6  -2   0    4.24    1.00
   6  -2   0    3.15    0.84
   6  -2   0    5.03    1.08
  -6   2   0    6.56    1.16
  -6   2   0    2.54    1.17
  -6   2   0    4.19    1.06
   5  -2   0   17.67    1.49
   5  -2   0   17.58    1.55
   5  -2   0   17.42    1.55
   5  -2   0   18.57    1.27
  -5   2   0   16.89    2.05
  -5   2   0   18.13    1.72
  -5   2   0   16.18    1.48
   4  -2   0    5.76    0.87
   4  -2   0    8.33    1.02
   4  -2   0    5.43    0.67
   4  -2   0    6.00    0.85
  -4   2   0    6.13    1.05
  -4   2   0    5.83    0.84
  -4   2   0    5.92    1.11
   3  -2   0    0.26    0.31
   3  -2   0   -0.06    0.29
   3  -2   0    0.23    0.31
   3  -2   0    0.32    0.22
  -3   2   0    0.70    0.34
  -3   2   0    0.49    0.44
  -3   2   0    0.30    0.46
  -3   2   0    0.71    0.34
   2  -2   0   90.62    4.17
   2  -2   0   88.99    4.82
   2  -2   0   87.86    4.53
  -2   2   0   85.05    5.06
  -2   2   0   88.64    4.75
  -2   2   0   85.74    4.87
  -2   2   0   91.85    5.37
   1  -2   0  141.13    6.97
   1  -2   0  141.54    6.48
   1  -2   0  146.39    7.11
   1  -2   0  138.00    7.43
  -1   2   0  127.64    7.53
  -1   2   0  144.12    7.37
  -1   2   0  138.89    8.11
  -1   2   0  150.90    7.05
  -1   2   0  148.86    7.18
  -1   2   0  135.53    7.76
   0  -2   0   66.98    3.81
   0  -2   0   77.53    3.31
   0  -2   0   74.46    3.57
   0   2   0   61.76    3.60
   0   2   0   67.81    3.88
   0   2   0   70.93    3.91
   0   2   0   74.88    3.61
   0   2   0   69.33    4.11
  -1  -2   0    8.98    0.61
  -1  -2   0    8.60    0.55
  -1  -2   0    9.09    0.59
  -1  -2   0    9.41    0.55
   1   2   0    8.35    0.52
   1   2   0    8.75    0.64
   1   2   0    7.41    0.65
  -2  -2   0   43.67    2.54
  -2  -2   0   47.06    2.61
  -2  -2   0   49.33    2.55
   2   2   0   45.81    2.52
   2   2   0   47.49    2.41
   2   2   0   45.89    2.57
   2   2   0   44.20    2.28
  -3  -2   0   -0.11    0.17
  -3  -2   0    0.10    0.17
  -3  -2   0    0.27    0.23
  -3  -2   0   -0.06    0.17
   3   2   0   -0.01    0.11
   3   2   0    0.33    0.23
   3   2   0   -0.13    0.16
   3   2   0    0.07    0.18
   3   2   0    0.20    0.19
  -4  -2   0    7.28    0.79
  -4  -2   0    6.79    0.80
  -4  -2   0    9.52    1.02
  -4  -2   0    7.78    0.68
  -4  -2   0    7.37    0.84
   4   2   0    8.10    0.72
   4   2   0    6.41    0.73
   4   2   0    8.18    0.81
   4   2   0    7.88    0.79
  -5  -2   0    0.59    0.36
  -5  -2   0    0.55    0.44
  -5  -2   0    1.47    0.56
  -5  -2   0    1.16    0.45
   5   2   0    0.48    0.32
   5   2   0    0.56    0.36
   5   2   0    0.49    0.34
   5   2   0    0.63    0.31
  -6  -2   0   47.44    3.28
  -6  -2   0   49.10    3.09
  -6  -2   0   48.14    3.04
   6   2   0   48.28    2.91
   6   2   0   49.47    2.95
   6   2   0   48.20    2.74
  -7  -2   0    9.46    1.35
  -7  -2   0    9.95    1.34
  -7  -2   0    9.04    1.47
   7   2   0    7.75    1.08
   7   2   0    7.69    1.12
   7   2   0    6.09    1.07
  -8  -2   0    2.37    1.09
  -8  -2   0    0.93    1.36
  -8  -2   0    2.20    0.91
   8   2   0    1.27    0.67
   8   2   0    1.85    0.82
   8   2   0    1.54    0.88
   8   2   0    2.19    0.83
  -9  -2   0    0.74    1.00
  -9  -2   0    2.28    1.13
  -9  -2   0   -0.34    1.21
   9   2   0    0.47    0.75
   9   2   0    1.53    0.93
   9   2   0   -0.24    0.84
   7  -3   0    0.33    0.81
   7  -3   0    2.19    1.08
  -7   3   0    0.14    0.91
  -7   3   0    0.35    0.67
  -7   3   0    1.49    1.29
   6  -3   0    1.46    0.78
   6  -3   0    0.71    0.78
   6  -3   0   -0.49    0.70
  -6   3   0    0.47    0.78
  -6   3   0    0.60    0.82
  -6   3   0    0.94    0.97
   5  -3   0   11.89    1.57
   5  -3   0   14.71    1.55
   5  -3   0   11.34    1.47
  -5   3   0   16.85    1.54
  -5   3   0   18.02    2.04
  -5   3   0   15.09    2.07
   4  -3   0    3.14    0.77
   4  -3   0    1.86    0.64
   4  -3   0    2.65    0.65
   4  -3   0    2.40    0.52
  -4   3   0    2.93    0.96
  -4   3   0    1.85    0.60
  -4   3   0    3.15    0.87
   3  -3   0   -0.18    0.32
   3  -3   0    0.31    0.35
   3  -3   0   -0.25    0.37
   3  -3   0    0.24    0.26
  -3   3   0    0.55    0.56
  -3   3   0    0.15    0.45
  -3   3   0    0.06    0.40
  -3   3   0    0.22    0.36
   2  -3   0   45.68    2.71
   2  -3   0   45.30    2.59
   2  -3   0   46.94    2.30
   2  -3   0   45.72    2.76
   2  -3   0   45.42    2.62
  -2   3   0   43.00    3.10
  -2   3   0   46.38    2.90
  -2   3   0   45.81    2.39
  -2   3   0   46.21    2.69
   1  -3   0   49.57    2.60
   1  -3   0   46.95    2.58
   1  -3   0   46.42    2.31
   1  -3   0   45.45    2.76
  -1   3   0   48.31    3.08
  -1   3   0   44.80    2.83
  -1   3   0   44.29    2.63
  -1   3   0   48.82    2.85
  -1   3   0   46.07    2.50
  -1   3   0   47.84    2.69
   0  -3   0   70.35    3.30
   0  -3   0   68.27    3.87
   0  -3   0   70.34    3.60
   0   3   0   71.41    3.62
   0   3   0   69.41    3.91
   0   3   0   64.53    3.93
   0   3   0   65.85    3.64
   0   3   0   72.68    4.18
  -1  -3   0    5.53    0.41
  -1  -3   0    4.72    0.48
  -1  -3   0    4.51    0.55
  -1  -3   0    3.39    0.44
  -1  -3   0    3.61    0.36
   1   3   0    4.01    0.51
   1   3   0    4.10    0.60
   1   3   0    4.77    0.37
   1   3   0    4.19    0.36
   1   3   0    4.27    0.54
  -2  -3   0  115.78    6.00
  -2  -3   0  109.96    5.48
  -2  -3   0  105.88    5.81
  -2  -3   0  111.58    5.22
  -2  -3   0  111.95    5.88
   2   3   0  117.77    5.22
   2   3   0  109.70    5.77
   2   3   0  113.08    5.55
   2   3   0   98.17    5.98
  -3  -3   0   58.56    3.09
  -3  -3   0   60.97    3.39
  -3  -3   0   62.29    3.33
  -3  -3   0   60.17    3.30
   3   3   0   57.83    3.12
   3   3   0   60.21    2.98
   3   3   0   57.59    3.30
   3   3   0   57.41    3.31
  -4  -3   0   -0.04    0.26
  -4  -3   0    0.66    0.34
  -4  -3   0    0.39    0.28
  -4  -3   0   -0.06    0.17
   4   3   0   -0.02    0.25
   4   3   0    0.36    0.24
   4   3   0    0.51    0.27
   4   3   0    0.57    0.27
   4   3   0    0.06    0.18
  -5  -3   0    4.29    0.75
  -5  -3   0    4.34    0.72
  -5  -3   0    3.90    0.66
  -5  -3   0    3.62    0.75
   5   3   0    3.07    0.58
   5   3   0    4.65    0.70
   5   3   0    3.79    0.61
   5   3   0    4.20    0.65
  -6  -3   0   22.89    1.76
  -6  -3   0   23.32    1.75
  -6  -3   0   22.66    1.91
   6   3   0   25.03    1.66
   6   3   0   24.33    1.63
   6   3   0   22.79    1.69
   6   3   0   21.25    1.64
  -7  -3   0    3.53    0.99
  -7  -3   0    4.12    0.97
  -7  -3   0    2.42    0.80
   7   3   0    2.45    0.72
   7   3   0    1.28    0.63
   7   3   0    3.44    0.81
  -8  -3   0   -0.63    0.70
  -8  -3   0    0.00    0.68
  -8  -3   0    0.77    0.96
   8   3   0    0.16    0.63
   8   3   0   -0.38    0.54
   8   3   0   -0.78    0.54
  -9  -3   0    3.38    1.49
  -9  -3   0    1.81    1.95
  -9  -3   0    2.19    0.96
   9   3   0    3.42    0.98
   9   3   0    2.45    1.00
   9   3   0    1.92    0.93
   7  -4   0    0.56    1.01
   7  -4   0    1.00    0.90
  -7   4   0    3.08    1.61
  -7   4   0    1.64    1.03
   6  -4   0    0.90    0.98
   6  -4   0    0.67    0.81
   6  -4   0    2.25    1.05
   6  -4   0    1.67    0.92
  -6   4   0    2.03    1.00
  -6   4   0    1.93    1.27
  -6   4   0    1.18    0.90
   5  -4   0    8.97    1.43
   5  -4   0   11.67    1.61
   5  -4   0    4.92    1.10
   5  -4   0   10.67    1.44
  -5   4   0    8.51    1.31
  -5   4   0    9.54    1.75
  -5   4   0    9.11    1.55
   4  -4   0    6.42    1.09
   4  -4   0    9.49    1.41
   4  -4   0    9.05    1.24
   4  -4   0    7.50    1.15
  -4   4   0    9.68    1.62
  -4   4   0    9.49    1.30
  -4   4   0   10.33    1.48
   3  -4   0   40.57    2.54
   3  -4   0   37.93    2.58
   3  -4   0   37.51    2.63
   3  -4   0   39.63    2.50
  -3   4   0   35.98    2.52
  -3   4   0   42.78    2.85
  -3   4   0   41.73    2.65
  -3   4   0   41.48    3.05
   2  -4   0   14.93    0.97
   2  -4   0   16.21    1.23
   2  -4   0    9.08    1.20
   2  -4   0   13.57    1.14
   2  -4   0   14.95    1.29
  -2   4   0   17.44    1.57
  -2   4   0   15.57    1.33
  -2   4   0   15.64    1.36
  -2   4   0   16.30    1.25
   1  -4   0   39.87    2.06
   1  -4   0   40.71    2.32
   1  -4   0   37.93    2.34
   1  -4   0   41.05    2.56
  -1   4   0   39.02    2.53
  -1   4   0   37.03    2.37
  -1   4   0   40.96    2.80
  -1   4   0   41.94    2.65
  -1   4   0   40.06    2.24
   0  -4   0   26.48    1.67
   0  -4   0   27.29    1.83
   0  -4   0   26.31    1.45
   0   4   0   25.68    1.89
   0   4   0   27.33    1.75
   0   4   0   27.16    1.65
   0   4   0   27.15    1.64
   0   4   0   26.48    1.94
  -1  -4   0    8.93    0.85
  -1  -4   0    7.53    0.65
  -1  -4   0   10.59    0.73
  -1  -4   0    9.95    0.78
   1   4   0   10.84    0.71
   1   4   0    8.44    0.70
   1   4   0    9.91    0.95
   1   4   0    8.53    0.80
   1   4   0    9.63    0.85
  -2  -4   0   43.66    2.43
  -2  -4   0   40.97    2.23
  -2  -4   0   43.91    2.16
  -2  -4   0   41.86    2.31
  -2  -4   0   41.12    2.37
   2   4   0   43.04    2.14
   2   4   0   39.12    2.42
   2   4   0   37.03    2.43
   2   4   0   40.78    2.18
   2   4   0   36.09    2.51
  -3  -4   0   26.64    1.65
  -3  -4   0   24.16    1.55
  -3  -4   0   24.79    1.51
  -3  -4   0   27.69    1.65
   3   4   0   24.78    1.48
   3   4   0   26.31    1.75
   3   4   0   25.23    1.49
   3   4   0   23.05    1.71
  -4  -4   0   20.50    1.48
  -4  -4   0   18.91    1.35
  -4  -4   0   21.60    1.46
  -4  -4   0   20.67    1.47
   4   4   0   22.76    1.39
   4   4   0   23.14    1.45
   4   4   0   19.95    1.55
   4   4   0   22.83    1.40
  -5  -4   0    5.32    0.74
  -5  -4   0    4.61    0.83
  -5  -4   0    7.61    0.97
  -5  -4   0    5.91    0.83
   5   4   0    3.57    0.61
   5   4   0    2.89    0.56
   5   4   0    3.89    0.74
   5   4   0    2.93    0.60
  -6  -4   0   10.62    1.43
  -6  -4   0   13.18    1.34
  -6  -4   0   14.25    1.32
  -6  -4   0   12.54    1.43
   6   4   0   12.58    1.15
   6   4   0   14.61    1.22
   6   4   0   14.49    1.44
   6   4   0   13.91    1.33
  -7  -4   0    2.16    0.78
  -7  -4   0    2.95    0.96
  -7  -4   0    1.85    0.72
   7   4   0    3.15    0.78
   7   4   0    1.67    0.58
   7   4   0    1.93    0.69
   7   4   0    1.61    0.63
  -8  -4   0    1.42    0.85
  -8  -4   0    1.97    1.11
  -8  -4   0    1.24    0.85
   8   4   0    1.38    0.71
   8   4   0    0.87    0.68
   8   4   0    0.20    0.59
  -9  -4   0    0.36    1.24
  -9  -4   0   -0.53    0.83
  -9  -4   0   -0.08    0.87
   9   4   0    0.11    0.69
   9   4   0   -0.38    0.69
 -10  -4   0    0.88    1.12
  10   4   0    0.85    1.02
  10   4   0    0.25    0.89
  10   4   0    1.01    1.00
   6  -5   0    1.98    1.03
   6  -5   0    1.29    0.98
  -6   5   0    0.72    1.27
  -6   5   0    2.01    1.30
   5  -5   0    0.84    0.86
   5  -5   0    0.58    0.90
   5  -5   0    0.08    0.71
  -5   5   0    0.11    0.99
  -5   5   0    0.23    0.94
   4  -5   0    0.66    0.65
   4  -5   0    0.62    0.70
   4  -5   0    2.38    0.81
   4  -5   0    1.65    0.79
  -4   5   0    1.50    1.02
  -4   5   0    0.94    0.79
  -4   5   0    2.00    0.87
   3  -5   0   27.28    2.16
   3  -5   0   32.90    2.26
   3  -5   0   27.02    2.22
   3  -5   0   33.11    2.45
  -3   5   0   33.99    2.53
  -3   5   0   35.84    2.79
  -3   5   0   34.88    2.34
   2  -5   0   16.18    1.41
   2  -5   0   19.38    1.50
   2  -5   0   19.16    1.62
  -2   5   0   15.43    1.44
  -2   5   0   23.00    1.92
  -2   5   0   17.78    1.60
  -2   5   0   16.24    1.55
   1  -5   0    0.00    0.24
   1  -5   0   -0.13    0.26
   1  -5   0    0.57    0.47
   1  -5   0   -0.21    0.35
   1  -5   0   -0.13    0.31
  -1   5   0   -0.24    0.30
  -1   5   0   -0.19    0.37
  -1   5   0    0.11    0.42
  -1   5   0    0.31    0.50
  -1   5   0    0.54    0.50
   0  -5   0   62.31    3.75
   0  -5   0   64.56    3.49
   0  -5   0   62.36    3.36
   0  -5   0   63.48    3.10
   0   5   0   59.76    3.83
   0   5   0   64.90    3.48
   0   5   0   58.93    3.66
   0   5   0   60.54    3.98
   0   5   0   61.45    3.43
  -1  -5   0   53.58    2.91
  -1  -5   0   50.54    3.14
  -1  -5   0   51.06    2.65
  -1  -5   0   50.05    3.03
   1   5   0   56.29    2.87
   1   5   0   57.49    3.05
   1   5   0   48.96    3.01
   1   5   0   51.90    3.31
   1   5   0   47.07    3.24
  -2  -5   0    5.31    0.63
  -2  -5   0    5.14    0.69
  -2  -5   0    4.60    0.61
  -2  -5   0    6.13    0.81
  -2  -5   0    4.68    0.47
   2   5   0    4.60    0.53
   2   5   0    5.00    0.87
   2   5   0    4.24    0.74
   2   5   0    4.65    0.67
  -3  -5   0   30.26    1.78
  -3  -5   0   28.59    1.76
  -3  -5   0   29.59    1.88
  -3  -5   0   25.85    1.88
  -3  -5   0   33.14    1.80
   3   5   0   25.96    2.01
   3   5   0   30.39    1.71
   3   5   0   30.89    1.81
   3   5   0   28.19    1.71
   3   5   0   28.04    1.98
  -4  -5   0   27.63    1.99
  -4  -5   0   34.77    2.20
  -4  -5   0   36.23    2.25
  -4  -5   0   36.57    2.16
   4   5   0   37.64    2.06
   4   5   0   31.48    2.30
   4   5   0   35.73    2.28
   4   5   0   36.92    2.05
  -5  -5   0    8.59    1.04
  -5  -5   0    6.71    0.92
  -5  -5   0    6.19    0.95
  -5  -5   0    5.98    0.82
   5   5   0    7.27    1.08
   5   5   0    6.33    0.79
   5   5   0    6.76    0.84
   5   5   0    5.44    0.83
  -6  -5   0   -0.40    0.36
  -6  -5   0    0.52    0.60
  -6  -5   0    0.30    0.45
  -6  -5   0    0.03    0.50
   6   5   0    0.06    0.37
   6   5   0    0.11    0.56
   6   5   0   -0.15    0.36
   6   5   0   -0.07    0.40
  -7  -5   0   10.34    1.28
  -7  -5   0    8.67    1.27
  -7  -5   0   11.70    1.48
   7   5   0   10.67    1.26
   7   5   0    8.78    1.17
   7   5   0    8.64    1.17
   7   5   0    9.02    1.23
  -8  -5   0   -0.07    0.69
  -8  -5   0    0.58    0.77
   8   5   0    1.61    0.77
   8   5   0    0.26    0.64
   8   5   0    0.70    0.69
  -9  -5   0    1.11    0.97
  -9  -5   0    0.57    0.78
   9   5   0    2.41    0.99
   9   5   0    0.36    0.73
 -10  -5   0    0.76    1.28
  10   5   0   -0.06    0.97
   6  -6   0    0.35    0.89
   5  -6   0    1.86    0.97
   5  -6   0    1.07    0.93
  -5   6   0    1.89    1.13
  -5   6   0    0.25    0.85
   4  -6   0    3.77    1.04
   4  -6   0    2.19    0.91
  -4   6   0    2.68    1.04
  -4   6   0    1.24    0.91
   3  -6   0   30.92    2.46
   3  -6   0   31.37    2.32
  -3   6   0   32.06    2.76
  -3   6   0   26.72    2.38
  -3   6   0   28.78    2.40
   2  -6   0    3.50    0.85
   2  -6   0    0.85    0.51
   2  -6   0    4.40    1.04
   2  -6   0    1.69    0.61
  -2   6   0    5.62    1.09
  -2   6   0    4.10    0.99
  -2   6   0    2.71    0.97
   1  -6   0   -0.05    0.44
   1  -6   0    0.26    0.59
   1  -6   0    0.05    0.38
   1  -6   0    0.71    0.49
  -1   6   0    0.94    0.75
  -1   6   0    0.61    0.50
  -1   6   0    2.09    0.84
  -1   6   0    0.25    0.45
   0  -6   0    0.70    0.44
   0  -6   0    0.41    0.43
   0  -6   0    1.63    0.65
   0  -6   0    1.78    0.46
   0   6   0    1.36    0.67
   0   6   0    1.25    0.53
   0   6   0    1.44    0.55
   0   6   0    1.06    0.48
   0   6   0    1.04    0.57
  -1  -6   0   57.02    3.18
  -1  -6   0   51.14    3.39
  -1  -6   0   54.75    2.85
  -1  -6   0   48.84    3.28
   1   6   0   58.68    3.63
   1   6   0   56.29    3.09
   1   6   0   54.09    3.57
   1   6   0   61.26    3.30
  -2  -6   0   11.79    1.19
  -2  -6   0   12.54    1.34
  -2  -6   0    8.63    0.92
  -2  -6   0   10.93    1.10
   2   6   0    9.50    1.16
   2   6   0    9.99    0.86
   2   6   0   10.00    1.03
   2   6   0   10.07    0.86
   2   6   0   12.48    1.44
  -3  -6   0    7.59    1.06
  -3  -6   0    6.65    0.85
  -3  -6   0    8.75    0.94
  -3  -6   0    7.69    0.98
   3   6   0    7.93    1.16
   3   6   0    6.34    1.02
   3   6   0    7.87    0.86
   3   6   0    7.73    0.89
  -4  -6   0   21.67    1.62
  -4  -6   0   20.72    1.48
  -4  -6   0   23.14    1.67
   4   6   0   21.72    1.43
   4   6   0   21.69    1.71
   4   6   0   20.72    1.49
   4   6   0   20.49    1.74
  -5  -6   0   16.32    1.39
  -5  -6   0   17.04    1.30
  -5  -6   0   15.55    1.40
   5   6   0   15.05    1.30
   5   6   0   16.53    1.43
   5   6   0   17.05    1.25
   5   6   0   17.40    1.81
  -6  -6   0    1.64    0.75
  -6  -6   0    0.68    0.56
  -6  -6   0    0.99    0.53
   6   6   0    2.11    0.61
   6   6   0    0.71    0.66
   6   6   0    0.77    0.46
   6   6   0    2.24    0.61
  -7  -6   0    0.78    0.70
  -7  -6   0    0.59    0.69
  -7  -6   0    1.08    0.68
   7   6   0    0.62    0.54
   7   6   0    0.25    0.69
   7   6   0    0.73    0.64
   7   6   0    1.15    0.65
  -8  -6   0    1.60    0.86
  -8  -6   0    1.12    0.76
  -8  -6   0   -0.12    0.68
   8   6   0    1.63    0.76
   8   6   0    0.86    0.71
   8   6   0    0.98    0.79
   8   6   0    1.04    0.82
  -9  -6   0    1.64    1.14
  -9  -6   0    2.14    1.10
   9   6   0    2.32    0.98
   9   6   0    3.42    1.09
 -10  -6   0    0.90    1.14
  10   6   0   -0.59    0.89
   5  -7   0   12.40    1.98
   5  -7   0   10.72    2.17
  -5   7   0   10.82    2.22
  -5   7   0   10.65    2.10
   4  -7   0    0.52    0.86
   4  -7   0    0.60    1.02
  -4   7   0    1.05    1.11
  -4   7   0   -0.19    0.62
   3  -7   0    5.18    1.37
   3  -7   0    6.57    1.25
  -3   7   0    2.40    1.03
  -3   7   0    2.52    1.16
  -3   7   0    3.26    1.15
   2  -7   0    0.69    0.79
   2  -7   0    0.63    0.68
  -2   7   0    1.00    0.83
  -2   7   0    0.00    0.84
   1  -7   0   55.39    3.44
   1  -7   0   51.14    3.67
   1  -7   0   57.55    3.53
  -1   7   0   54.24    4.00
  -1   7   0   61.55    3.86
   0  -7   0   10.30    1.25
   0  -7   0    7.77    1.30
   0  -7   0    9.73    1.23
   0   7   0    6.50    1.27
   0   7   0    9.80    1.19
   0   7   0    8.41    1.36
  -1  -7   0   91.25    4.85
  -1  -7   0   80.12    5.17
   1   7   0   89.68    5.53
   1   7   0   84.37    4.94
   1   7   0   95.47    5.47
  -2  -7   0   19.23    1.71
  -2  -7   0   25.40    1.78
  -2  -7   0   23.69    1.93
  -2  -7   0   22.47    1.56
   2   7   0   26.39    2.12
   2   7   0   28.36    1.98
   2   7   0   27.75    1.99
   2   7   0   27.56    1.65
  -3  -7   0   12.65    1.31
  -3  -7   0   12.02    1.32
  -3  -7   0   10.38    1.34
  -3  -7   0   10.14    1.14
   3   7   0   10.27    1.43
   3   7   0   10.71    1.46
  -4  -7   0   -0.10    0.36
  -4  -7   0   -0.32    0.45
  -4  -7   0    0.17    0.41
   4   7   0    0.52    0.62
   4   7   0   -0.63    0.45
   4   7   0   -0.23    0.51
  -5  -7   0   16.29    1.52
  -5  -7   0   16.32    1.39
  -5  -7   0   17.70    1.50
   5   7   0   17.88    1.45
   5   7   0   15.71    1.73
   5   7   0   17.14    1.91
  -6  -7   0   22.65    1.81
  -6  -7   0   20.91    1.66
  -6  -7   0   19.72    1.78
   6   7   0   19.35    2.13
   6   7   0   22.36    1.67
  -7  -7   0    0.61    0.73
  -7  -7   0    0.07    0.59
  -7  -7   0    0.67    0.61
   7   7   0   -0.29    0.60
   7   7   0    0.02    0.52
   7   7   0    0.37    0.74
  -8  -7   0    1.44    0.93
  -8  -7   0    1.08    0.79
  -8  -7   0    0.48    0.79
   8   7   0    0.59    0.68
   8   7   0    0.53    0.83
   8   7   0    1.23    0.85
  -9  -7   0    3.80    1.15
  -9  -7   0    3.24    1.17
  -9  -7   0    2.40    1.06
   9   7   0    1.05    0.91
   9   7   0    2.16    1.08
   9   7   0    3.41    1.18
   4  -8   0    3.63    1.39
   4  -8   0    2.16    1.31
  -4   8   0    2.06    1.40
   3  -8   0    3.49    1.13
   3  -8   0    3.72    1.28
  -3   8   0    1.21    0.86
   2  -8   0   -0.16    0.65
   2  -8   0   -0.31    0.78
  -2   8   0    0.83    1.04
  -2   8   0    0.44    0.93
   1  -8   0   33.95    2.59
   1  -8   0   35.20    2.85
  -1   8   0   40.82    3.02
  -1   8   0   38.48    3.14
   0  -8   0    2.85    0.83
   0  -8   0    1.58    0.93
   0   8   0    4.92    1.27
   0   8   0    2.44    1.04
  -1  -8   0    9.23    1.27
  -1  -8   0   12.95    1.45
  -1  -8   0   10.94    1.53
   1   8   0   10.94    1.62
   1   8   0    9.92    1.49
   1   8   0    6.18    1.15
  -2  -8   0   11.30    1.37
  -2  -8   0   11.94    1.60
   2   8   0   11.61    1.48
   2   8   0   11.29    1.48
   2   8   0   12.25    1.69
  -3  -8   0  126.23    6.69
  -3  -8   0  125.80    7.20
  -3  -8   0  114.44    6.97
  -3  -8   0  121.49    6.25
   3   8   0  133.98    7.07
   3   8   0  130.24    7.39
   3   8   0  127.23    6.22
  -4  -8   0   14.55    1.53
  -4  -8   0   12.92    1.67
  -4  -8   0    9.12    1.32
   4   8   0   11.79    1.31
   4   8   0   12.85    1.69
   4   8   0   12.75    1.68
  -5  -8   0    6.78    1.12
  -5  -8   0    6.36    1.16
  -5  -8   0    4.66    0.89
   5   8   0    3.97    1.01
   5   8   0    5.51    0.97
   5   8   0    5.27    1.23
  -6  -8   0    0.70    0.71
  -6  -8   0    0.99    0.75
  -6  -8   0    0.40    0.61
   6   8   0    0.22    0.64
   6   8   0   -0.17    0.72
  -7  -8   0   10.84    1.53
  -7  -8   0   10.34    1.46
  -7  -8   0   10.24    1.60
   7   8   0   12.75    1.60
   7   8   0    9.87    1.37
   7   8   0   12.86    1.83
  -8  -8   0    4.39    1.24
  -8  -8   0    1.46    0.87
  -8  -8   0    2.26    1.03
   8   8   0    2.62    1.05
   8   8   0    2.66    0.92
   8   8   0    2.48    1.14
  -9  -8   0    0.94    1.00
  -9  -8   0    1.63    1.16
  -9  -8   0    0.51    0.97
   9   8   0    1.38    1.16
   9   8   0   -0.44    0.95
   9   8   0   -0.01    0.90
   3  -9   0    0.63    1.05
   3  -9   0    1.86    1.48
   2  -9   0    3.90    1.27
   2  -9   0    3.23    1.12
  -2   9   0    6.30    1.84
  -2   9   0    4.17    1.46
   1  -9   0    1.10    1.07
   1  -9   0    3.82    1.18
  -1   9   0    6.03    1.49
  -1   9   0    3.79    1.40
   0  -9   0    7.35    1.32
   0  -9   0    5.63    1.22
   0   9   0    8.61    1.61
   0   9   0    3.16    1.24
  -1  -9   0    5.36    1.16
  -1  -9   0    6.00    1.15
   1   9   0   10.00    1.54
  -2  -9   0    0.38    0.65
  -2  -9   0    0.95    0.85
   2   9   0   -0.33    0.79
   2   9   0    0.18    0.71
  -3  -9   0    2.23    0.84
  -3  -9   0    1.26    0.72
  -3  -9   0    1.30    0.79
   3   9   0    0.17    0.83
   3   9   0    1.98    0.90
  -4  -9   0    0.57    0.72
  -4  -9   0    0.28    0.74
  -4  -9   0   -0.11    0.60
   4   9   0    0.83    0.82
   4   9   0    0.36    0.90
  -5  -9   0    8.62    1.40
  -5  -9   0    8.48    1.40
  -5  -9   0   10.01    1.38
   5   9   0   10.82    1.69
   5   9   0    9.75    1.55
   5   9   0   10.76    1.41
  -6  -9   0    2.36    0.94
  -6  -9   0    1.90    0.90
  -6  -9   0    1.63    0.90
   6   9   0    2.91    0.98
   6   9   0    2.96    1.13
  -7  -9   0   13.58    1.76
  -7  -9   0   13.95    1.66
  -7  -9   0   10.66    1.59
   7   9   0    8.66    1.66
   7   9   0   13.20    1.76
  -8  -9   0    0.91    1.00
  -8  -9   0   -0.08    0.88
  -8  -9   0   -0.73    0.77
   8   9   0   -0.21    0.85
   8   9   0   -0.33    0.96
   8   9   0   -0.06    1.00
  -9  -9   0   -0.59    1.05
  -9  -9   0    0.12    0.97
  -9  -9   0    1.53    1.21
   9   9   0   -0.82    1.05
   9   9   0    0.36    1.10
   1 -10   0    1.64    1.07
   1 -10   0    4.00    1.34
  -1  10   0    3.86    1.68
  -1  10   0    3.85    1.56
   0 -10   0   -0.03    0.81
   0 -10   0    0.96    1.00
   0  10   0   -0.53    1.07
   0  10   0    0.63    1.07
  -1 -10   0    4.10    1.09
  -1 -10   0    4.18    0.98
  -2 -10   0    4.45    1.11
  -2 -10   0   12.67    1.69
   2  10   0    7.14    1.53
  -3 -10   0    4.39    1.02
   3  10   0    7.41    1.32
   3  10   0    6.72    1.38
  -4 -10   0    1.71    0.82
  -4 -10   0    1.05    0.92
   4  10   0    1.17    1.17
   4  10   0    3.94    1.23
  -5 -10   0    1.29    0.85
  -5 -10   0    0.54    0.83
  -5 -10   0    2.06    1.06
   5  10   0    1.85    1.13
   5  10   0    1.30    1.11
  -6 -10   0    0.00    0.80
  -6 -10   0    0.36    0.72
   6  10   0    0.52    1.04
   6  10   0   -0.27    0.83
  -7 -10   0    1.72    1.12
  -7 -10   0    1.24    0.90
   7  10   0    0.27    1.23
   7  10   0    2.25    1.14
  -8 -10   0    0.88    1.24
  -8 -10   0    0.25    1.01
   8  10   0    0.90    1.26
   8  10   0   -0.23    1.11
  -1 -11   0    0.80    0.85
   1  11   0    3.74    1.35
  -2 -11   0    0.76    0.78
   2  11   0    3.15    1.34
  -3 -11   0   -0.23    0.67
   3  11   0    1.65    1.30
   3  11   0    0.19    0.83
  -4 -11   0    0.53    0.78
   4  11   0    1.99    1.30
   4  11   0    0.73    1.17
  -5 -11   0    2.45    1.06
   5  11   0    6.25    1.56
   5  11   0    4.75    1.50
  -6 -11   0    2.08    1.03
   6  11   0    3.72    1.50
  -7 -11   0    0.74    0.87
   4  12   0    2.07    1.46
   6  11  -1   -0.62    1.14
  -6 -11   1   -0.21    0.71
   5  11  -1    4.87    1.54
   5  11  -1    1.84    1.40
  -5 -11   1    1.18    0.95
  -5 -11   1    2.36    1.30
   4  11  -1    8.22    1.66
   4  11  -1    7.18    1.63
  -4 -11   1    3.32    1.06
  -4 -11   1    5.77    1.38
   3  11  -1    0.50    0.87
   3  11  -1    0.04    1.06
  -3 -11   1   -0.93    0.65
  -3 -11   1   -0.23    1.06
   2  11  -1    0.45    1.18
  -2 -11   1   -0.17    0.98
  -2 -11   1    1.03    0.80
   1  11  -1    0.11    1.10
  -1 -11   1   -0.41    0.95
  -1 -11   1    0.70    1.04
   8  10  -1    0.91    1.24
   8  10  -1    0.08    1.01
  -8 -10   1    1.03    1.10
  -8 -10   1    0.00    1.23
   7  10  -1    5.88    1.59
   7  10  -1    7.30    1.53
  -7 -10   1    4.07    1.17
   6  10  -1   -0.75    1.00
   6  10  -1    1.18    1.11
  -6 -10   1    0.42    0.83
  -6 -10   1    0.39    0.92
   5  10  -1    2.55    1.09
   5  10  -1    3.80    1.33
  -5 -10   1    1.47    0.92
  -5 -10   1    2.32    1.06
   4  10  -1    7.51    1.50
   4  10  -1    7.36    1.60
  -4 -10   1    6.17    1.33
  -4 -10   1    5.61    1.24
   3  10  -1    3.19    1.16
   3  10  -1    2.65    1.08
  -3 -10   1    1.17    0.96
  -3 -10   1    2.61    0.96
   2  10  -1    3.55    1.15
   2  10  -1    1.34    0.78
  -2 -10   1    3.10    0.81
  -2 -10   1    3.38    1.06
   1  10  -1   -0.61    0.81
  -1 -10   1    1.88    1.05
  -1 -10   1    0.93    0.97
   0  10  -1    4.51    1.23
   0  10  -1    8.31    1.71
   0 -10   1    9.35    1.60
   0 -10   1    7.90    1.53
  -1  10  -1    0.17    1.28
  -1  10  -1    0.39    1.31
   1 -10   1    0.43    1.10
   1 -10   1    1.60    1.08
   8   9  -1    0.71    1.14
   8   9  -1    0.52    1.00
   8   9  -1   -0.01    1.00
  -8  -9   1    0.27    1.06
  -8  -9   1    0.37    0.88
  -8  -9   1    0.61    0.92
   7   9  -1   -1.96    0.87
   7   9  -1    1.32    0.90
  -7  -9   1    2.45    1.11
  -7  -9   1    1.87    0.95
  -7  -9   1    0.72    0.75
   6   9  -1    5.43    1.18
   6   9  -1    4.78    1.40
  -6  -9   1    4.33    1.05
  -6  -9   1    5.53    1.26
  -6  -9   1    4.67    1.13
   5   9  -1   33.90    2.76
   5   9  -1   37.43    2.82
   5   9  -1   30.25    2.31
  -5  -9   1   33.04    2.52
  -5  -9   1   28.86    2.51
  -5  -9   1   30.28    2.38
   4   9  -1    2.49    0.99
   4   9  -1    2.32    0.98
   4   9  -1    1.85    0.90
  -4  -9   1    1.44    0.82
  -4  -9   1    1.70    0.82
  -4  -9   1    2.57    0.86
   3   9  -1    0.75    0.85
   3   9  -1    0.13    0.70
  -3  -9   1   -0.11    0.63
  -3  -9   1    0.90    0.78
   2   9  -1   20.01    1.97
   2   9  -1   12.07    1.68
  -2  -9   1   14.17    1.73
  -2  -9   1   13.20    1.85
   1   9  -1    9.01    1.36
   1   9  -1   10.63    1.68
  -1  -9   1   12.60    1.60
  -1  -9   1   12.06    1.73
   0   9  -1    0.12    0.80
   0   9  -1    0.79    0.88
   0  -9   1    1.13    0.96
   0  -9   1    0.13    0.84
  -1   9  -1    5.52    1.39
  -1   9  -1    4.37    1.38
   1  -9   1    4.95    1.34
   1  -9   1    2.12    0.94
  -2   9  -1   10.45    1.94
  -2   9  -1   11.10    2.02
   2  -9   1   10.65    1.72
   2  -9   1   11.92    1.99
  -3   9  -1    0.60    0.99
   3  -9   1    0.69    1.24
   3  -9   1    1.27    1.08
   9   8  -1    1.29    1.10
   9   8  -1   -0.15    1.02
   9   8  -1   -0.93    1.01
  -9  -8   1    0.59    1.06
  -9  -8   1    0.51    1.05
  -9  -8   1    1.55    1.06
   8   8  -1    0.58    1.15
   8   8  -1    0.08    0.70
   8   8  -1   -0.82    0.78
  -8  -8   1   -0.73    0.75
  -8  -8   1    0.68    0.93
   7   8  -1    5.22    1.06
   7   8  -1    4.68    1.28
   7   8  -1    1.78    0.97
  -7  -8   1    4.86    1.12
  -7  -8   1    2.30    0.91
  -7  -8   1    5.18    1.09
   6   8  -1    0.69    0.71
   6   8  -1   -0.18    0.71
  -6  -8   1    0.76    0.74
  -6  -8   1    0.93    0.72
  -6  -8   1    1.17    0.70
   5   8  -1   11.45    1.63
   5   8  -1   10.33    1.33
   5   8  -1    9.71    1.45
  -5  -8   1   11.08    1.42
  -5  -8   1    7.08    1.18
   4   8  -1    2.93    0.91
   4   8  -1    0.99    0.77
   4   8  -1    0.93    0.64
  -4  -8   1    0.59    0.65
  -4  -8   1    1.03    0.66
  -4  -8   1    2.49    0.84
  -4  -8   1    0.23    0.57
   3   8  -1   16.74    1.42
   3   8  -1   19.93    2.14
   3   8  -1   17.82    1.89
  -3  -8   1   13.25    1.55
  -3  -8   1   18.86    1.83
  -3  -8   1   21.57    2.14
  -3  -8   1   17.39    1.45
   2   8  -1    6.92    1.17
   2   8  -1    6.15    1.27
  -2  -8   1    7.14    1.28
  -2  -8   1    8.16    1.10
  -2  -8   1    6.05    1.16
   1   8  -1   29.20    2.48
   1   8  -1   29.45    2.59
   1   8  -1   31.30    2.37
  -1  -8   1   31.56    2.29
  -1  -8   1   36.17    2.55
   0   8  -1    0.44    0.82
   0   8  -1    0.41    0.84
   0  -8   1    0.39    0.64
   0  -8   1    0.56    0.87
  -1   8  -1    2.30    1.05
  -1   8  -1    1.25    0.99
   1  -8   1    3.00    0.92
   1  -8   1    1.58    0.92
  -2   8  -1    8.44    1.66
  -2   8  -1    4.98    1.36
   2  -8   1    5.05    1.17
   2  -8   1    7.11    1.52
  -3   8  -1    8.90    1.72
  -3   8  -1    5.30    1.37
   3  -8   1    7.28    1.58
   3  -8   1    7.75    1.53
  -4   8  -1   -0.20    1.11
   4  -8   1    0.46    1.02
   4  -8   1    0.88    1.37
   9   7  -1    0.16    0.92
   9   7  -1   -0.32    0.87
  -9  -7   1   -0.30    0.89
  -9  -7   1   -0.99    0.92
  -9  -7   1   -0.47    0.94
   8   7  -1   -0.38    0.78
   8   7  -1    0.66    0.89
   8   7  -1    0.70    0.74
  -8  -7   1    1.31    0.89
  -8  -7   1    1.01    0.85
  -8  -7   1    0.98    0.92
   7   7  -1   17.71    2.02
   7   7  -1   14.96    1.65
   7   7  -1   15.52    1.62
  -7  -7   1   13.66    1.76
  -7  -7   1   11.49    1.52
  -7  -7   1   15.71    1.83
   6   7  -1    1.28    0.85
   6   7  -1    1.70    0.75
  -6  -7   1    2.93    0.86
  -6  -7   1    1.92    0.81
  -6  -7   1    1.96    0.74
   5   7  -1    0.09    0.65
   5   7  -1    0.54    0.51
   5   7  -1   -0.07    0.61
  -5  -7   1    0.86    0.57
  -5  -7   1   -0.01    0.54
  -5  -7   1    0.03    0.53
   4   7  -1   27.87    2.22
   4   7  -1   26.78    2.13
   4   7  -1   25.55    1.83
  -4  -7   1   28.51    1.91
  -4  -7   1   26.51    1.92
  -4  -7   1   27.48    1.91
  -4  -7   1   23.66    1.97
   3   7  -1   51.15    2.83
   3   7  -1   47.72    3.33
   3   7  -1   51.52    3.21
  -3  -7   1   51.57    2.98
  -3  -7   1   44.30    2.76
  -3  -7   1   47.17    3.15
   2   7  -1   16.55    1.91
   2   7  -1   19.10    1.56
   2   7  -1   16.39    1.45
  -2  -7   1   17.28    1.44
  -2  -7   1   15.76    1.37
  -2  -7   1   15.70    1.50
  -2  -7   1   15.71    1.29
   1   7  -1    7.23    1.30
   1   7  -1    8.26    1.22
   1   7  -1   10.61    1.22
  -1  -7   1   10.64    1.44
  -1  -7   1    7.48    0.94
  -1  -7   1    7.95    1.08
  -1  -7   1    7.95    1.14
   0   7  -1   11.07    1.56
   0   7  -1   10.49    1.24
   0   7  -1   10.54    1.59
   0  -7   1   15.39    1.78
   0  -7   1   13.37    1.48
  -1   7  -1   28.30    2.48
  -1   7  -1   28.35    2.39
   1  -7   1   24.76    2.22
   1  -7   1   30.48    2.17
  -2   7  -1    7.33    1.46
  -2   7  -1    6.59    1.36
   2  -7   1    8.84    1.36
   2  -7   1    9.67    1.54
  -3   7  -1    6.49    1.39
  -3   7  -1    1.97    0.88
   3  -7   1    6.52    1.26
   3  -7   1    3.99    1.21
   4  -7   1    1.44    1.00
   4  -7   1    2.63    1.21
  -5   7  -1   -0.09    1.16
   5  -7   1   -0.31    0.97
   5  -7   1   -0.55    1.36
   9   6  -1   -0.37    0.84
   9   6  -1    0.86    0.89
  -9  -6   1    0.08    0.86
  -9  -6   1   -0.46    0.99
   8   6  -1    3.32    1.01
   8   6  -1    2.48    0.83
   8   6  -1    1.33    0.77
   8   6  -1    2.94    0.99
  -8  -6   1    1.92    0.88
  -8  -6   1    2.54    0.99
  -8  -6   1    3.71    1.04
   7   6  -1    9.74    1.45
   7   6  -1    7.87    1.18
   7   6  -1    9.03    1.21
   7   6  -1    7.52    1.09
  -7  -6   1   10.85    1.50
  -7  -6   1    8.94    1.24
  -7  -6   1    8.61    1.40
   6   6  -1    4.42    0.81
   6   6  -1    4.23    0.84
   6   6  -1    6.96    1.21
   6   6  -1    7.13    1.04
  -6  -6   1    6.19    1.07
  -6  -6   1    5.41    1.05
  -6  -6   1    5.12    0.91
   5   6  -1    8.34    1.07
   5   6  -1    7.62    0.89
   5   6  -1    7.92    1.28
   5   6  -1    8.20    1.12
  -5  -6   1    8.35    1.04
  -5  -6   1    6.91    1.04
  -5  -6   1    7.19    1.11
   4   6  -1    1.96    0.72
   4   6  -1    2.83    0.64
   4   6  -1    2.59    0.77
   4   6  -1    2.68    0.48
  -4  -6   1    3.49    0.74
  -4  -6   1    2.17    0.59
  -4  -6   1    2.44    0.61
  -4  -6   1    2.61    0.60
   3   6  -1   32.63    1.90
   3   6  -1   28.29    2.12
   3   6  -1   31.89    2.26
  -3  -6   1   28.36    2.06
  -3  -6   1   28.99    1.87
  -3  -6   1   28.52    1.92
  -3  -6   1   30.89    1.99
   2   6  -1   19.79    1.75
   2   6  -1   18.78    1.40
   2   6  -1   25.00    1.73
   2   6  -1   23.63    1.65
  -2  -6   1   22.03    1.53
  -2  -6   1   18.81    1.59
  -2  -6   1   20.60    1.44
   1   6  -1    9.89    1.14
   1   6  -1    9.91    1.33
   1   6  -1    7.96    1.14
  -1  -6   1   10.01    1.00
  -1  -6   1   10.42    1.17
  -1  -6   1    7.71    1.14
  -1  -6   1    9.94    1.08
   0   6  -1   41.05    2.92
   0   6  -1   39.37    2.82
   0  -6   1   41.69    2.57
   0  -6   1   39.48    2.25
   0  -6   1   44.15    2.80
   0  -6   1   38.01    2.50
  -1   6  -1   73.91    4.64
  -1   6  -1   78.19    5.06
  -1   6  -1   80.30    4.83
   1  -6   1   81.12    4.74
   1  -6   1   70.69    4.38
   1  -6   1   81.11    4.41
  -2   6  -1    0.72    0.66
  -2   6  -1   -0.16    0.75
  -2   6  -1    0.44    0.69
   2  -6   1    0.99    0.62
   2  -6   1    1.73    0.83
  -3   6  -1    1.58    0.90
  -3   6  -1    0.60    0.83
  -3   6  -1    0.21    0.74
   3  -6   1    1.56    0.75
   3  -6   1    1.67    0.89
  -4   6  -1    1.03    0.82
  -4   6  -1    1.56    1.03
   4  -6   1    1.61    0.89
   4  -6   1    1.40    0.92
  -5   6  -1    3.55    1.04
  -5   6  -1    6.89    1.53
   5  -6   1    5.83    1.37
   5  -6   1   11.87    1.74
  -6   6  -1    0.75    1.10
  -6   6  -1   -0.22    1.17
   6  -6   1    0.64    1.25
   6  -6   1    1.24    1.15
   9   5  -1    2.99    1.02
   9   5  -1    1.74    0.93
  -9  -5   1    1.01    0.99
  -9  -5   1    1.20    0.94
   8   5  -1    2.20    0.88
   8   5  -1    1.52    0.76
   8   5  -1    1.55    0.76
  -8  -5   1    1.29    0.93
  -8  -5   1    0.42    0.76
  -8  -5   1    1.99    0.86
   7   5  -1    8.92    1.14
   7   5  -1    8.70    1.19
   7   5  -1    8.05    1.23
   7   5  -1    7.09    1.11
  -7  -5   1    9.23    1.38
  -7  -5   1    7.75    1.17
  -7  -5   1    8.14    1.39
   6   5  -1    0.21    0.40
   6   5  -1    0.59    0.61
   6   5  -1   -0.20    0.41
   6   5  -1    0.67    0.48
  -6  -5   1    0.30    0.55
  -6  -5   1    0.05    0.57
  -6  -5   1    0.67    0.49
   5   5  -1   26.12    1.73
   5   5  -1   24.93    1.65
   5   5  -1   26.64    1.98
  -5  -5   1   26.27    1.83
  -5  -5   1   21.38    1.78
  -5  -5   1   24.59    1.71
   4   5  -1    0.37    0.38
   4   5  -1    0.20    0.38
   4   5  -1    0.09    0.28
   4   5  -1    0.28    0.46
  -4  -5   1    0.23    0.32
  -4  -5   1    0.07    0.35
  -4  -5   1    0.32    0.38
   3   5  -1   17.21    1.27
   3   5  -1   19.39    1.18
   3   5  -1   19.28    1.52
   3   5  -1   19.43    1.55
  -3  -5   1   18.85    1.32
  -3  -5   1   18.76    1.33
  -3  -5   1   19.63    1.33
  -3  -5   1   19.19    1.42
   2   5  -1   10.25    0.68
   2   5  -1   10.67    0.84
   2   5  -1    7.77    1.07
   2   5  -1    8.69    0.84
   2   5  -1    7.56    1.01
  -2  -5   1   10.41    1.09
  -2  -5   1    8.83    0.95
  -2  -5   1    8.57    0.91
   1   5  -1   34.47    2.23
   1   5  -1   37.71    2.44
   1   5  -1   34.23    2.07
   1   5  -1   34.54    2.41
   1   5  -1   37.46    1.99
  -1  -5   1   35.75    2.30
  -1  -5   1   35.61    2.09
  -1  -5   1   34.80    2.13
  -1  -5   1   33.48    2.14
  -1  -5   1   37.21    2.02
   0   5  -1    7.91    0.80
   0   5  -1    9.03    1.20
   0   5  -1    7.02    1.07
   0   5  -1    7.60    0.76
   0  -5   1    8.58    0.80
   0  -5   1    9.05    0.85
   0  -5   1    9.74    1.06
   0  -5   1    8.89    0.71
   0  -5   1    7.44    1.04
  -1   5  -1    8.34    1.01
  -1   5  -1    7.03    1.13
  -1   5  -1    7.08    0.83
  -1   5  -1    7.58    1.12
   1  -5   1    6.01    0.74
   1  -5   1    6.84    1.03
   1  -5   1    6.70    0.77
   1  -5   1    8.76    1.08
   1  -5   1    8.73    0.99
  -2   5  -1   16.36    1.46
  -2   5  -1   17.43    1.73
  -2   5  -1   16.53    1.55
   2  -5   1   16.19    1.75
   2  -5   1   16.33    1.32
   2  -5   1   16.42    1.17
   2  -5   1   14.24    1.57
   2  -5   1   15.79    1.33
  -3   5  -1    8.22    1.44
  -3   5  -1    8.14    1.30
  -3   5  -1    9.74    1.24
  -3   5  -1    8.38    1.35
   3  -5   1    6.29    1.00
   3  -5   1    8.32    1.14
   3  -5   1    8.61    1.21
   3  -5   1   10.62    1.47
  -4   5  -1   17.20    2.09
  -4   5  -1   14.16    1.87
   4  -5   1   16.89    1.73
   4  -5   1   17.38    2.02
   4  -5   1   21.78    1.80
  -5   5  -1    4.12    1.27
  -5   5  -1    3.15    1.11
   5  -5   1    2.96    1.03
   5  -5   1    4.42    1.26
  -6   5  -1    1.56    1.13
  -6   5  -1    1.89    1.29
   6  -5   1    2.01    1.00
   6  -5   1   -0.70    0.97
   9   4  -1    0.57    0.83
   9   4  -1   -0.65    0.73
  -9  -4   1   -0.25    0.88
  -9  -4   1    0.51    0.83
   8   4  -1    1.76    0.69
   8   4  -1    1.97    0.83
   8   4  -1    3.62    0.93
  -8  -4   1    2.56    0.91
  -8  -4   1    2.69    1.24
  -8  -4   1    2.01    0.91
   7   4  -1    0.06    0.49
   7   4  -1    0.13    0.64
   7   4  -1    0.15    0.54
   7   4  -1   -0.09    0.50
  -7  -4   1    0.06    0.59
  -7  -4   1   -0.64    0.71
  -7  -4   1   -0.03    0.62
  -7  -4   1    0.43    0.62
   6   4  -1    0.15    0.51
   6   4  -1    0.38    0.44
   6   4  -1    0.23    0.41
   6   4  -1    0.01    0.42
  -6  -4   1    0.07    0.46
  -6  -4   1   -0.51    0.39
  -6  -4   1    0.73    0.57
  -6  -4   1    0.77    0.64
   5   4  -1   10.56    0.99
   5   4  -1   12.07    1.31
   5   4  -1   11.02    1.12
   5   4  -1   10.69    1.12
  -5  -4   1   11.60    1.31
  -5  -4   1   12.40    1.06
  -5  -4   1   12.06    1.10
  -5  -4   1   12.98    1.40
   4   4  -1   45.46    2.42
   4   4  -1   41.79    2.66
   4   4  -1   45.12    2.42
   4   4  -1   39.65    2.59
  -4  -4   1   41.69    2.58
  -4  -4   1   45.27    2.65
  -4  -4   1   38.39    2.41
  -4  -4   1   44.45    2.64
   3   4  -1   17.71    1.05
   3   4  -1   16.77    1.29
   3   4  -1   16.36    1.31
   3   4  -1   16.07    1.12
  -3  -4   1   17.05    1.24
  -3  -4   1   16.06    1.15
  -3  -4   1   15.86    1.11
  -3  -4   1   14.84    1.10
  -3  -4   1   16.41    1.09
   2   4  -1   19.32    1.09
   2   4  -1   18.55    1.27
   2   4  -1   18.62    1.40
   2   4  -1   18.32    1.20
   2   4  -1   19.07    1.40
  -2  -4   1   18.11    1.20
  -2  -4   1   20.03    1.33
  -2  -4   1   18.50    1.22
   1   4  -1   83.21    4.33
   1   4  -1   82.97    5.05
   1   4  -1   83.20    4.62
   1   4  -1   94.69    4.92
  -1  -4   1   86.34    4.60
  -1  -4   1   86.06    4.20
  -1  -4   1   86.47    4.74
  -1  -4   1   85.75    4.45
   0   4  -1   20.22    1.63
   0   4  -1   20.35    1.27
   0   4  -1   20.29    1.56
   0   4  -1   20.28    1.37
   0  -4   1   19.73    1.49
   0  -4   1   22.63    1.38
   0  -4   1   20.23    1.26
   0  -4   1   23.06    1.46
   0  -4   1   22.77    1.25
  -1   4  -1   10.33    0.84
  -1   4  -1   10.43    0.93
  -1   4  -1   11.61    1.24
  -1   4  -1   12.22    1.36
   1  -4   1    9.28    0.76
   1  -4   1    9.30    1.06
   1  -4   1    9.84    0.88
   1  -4   1   11.33    0.83
   1  -4   1   11.11    1.21
  -2   4  -1   19.51    1.70
  -2   4  -1   16.86    1.47
  -2   4  -1   16.21    1.42
  -2   4  -1   15.31    1.29
  -2   4  -1   20.59    1.24
   2  -4   1   17.67    1.39
   2  -4   1   19.99    1.37
   2  -4   1   18.55    1.50
   2  -4   1   18.34    1.19
   2  -4   1   19.10    1.33
  -3   4  -1   21.73    1.56
  -3   4  -1   19.18    1.65
  -3   4  -1   18.28    1.88
   3  -4   1   19.43    1.29
   3  -4   1   20.20    1.58
   3  -4   1   20.08    1.66
   3  -4   1   19.83    1.54
   3  -4   1   20.10    1.51
  -4   4  -1   -0.19    0.50
  -4   4  -1    0.23    0.81
  -4   4  -1    0.26    0.70
   4  -4   1    0.17    0.55
   4  -4   1    0.80    0.61
   4  -4   1    0.65    0.56
   4  -4   1   -0.35    0.30
  -5   4  -1   13.71    1.99
  -5   4  -1    8.32    1.34
  -5   4  -1   15.26    1.91
   5  -4   1   10.78    1.57
   5  -4   1   10.89    1.46
   5  -4   1   11.66    1.56
   5  -4   1   14.17    1.66
  -6   4  -1    5.17    1.42
  -6   4  -1    8.54    1.80
   6  -4   1    6.59    1.34
   6  -4   1    8.36    1.57
   6  -4   1    5.80    1.30
  -7   4  -1    1.88    1.66
  -7   4  -1    0.36    1.06
   7  -4   1    0.56    0.95
   7  -4   1    2.28    1.19
   9   3  -1    0.60    0.84
   9   3  -1    0.06    0.62
   9   3  -1    2.98    1.08
  -9  -3   1    1.03    1.44
  -9  -3   1    0.39    0.95
  -9  -3   1    0.22    2.36
   8   3  -1    1.44    0.80
   8   3  -1    0.26    0.63
   8   3  -1    2.66    0.86
  -8  -3   1    2.00    0.89
  -8  -3   1    1.82    0.99
  -8  -3   1    3.57    1.34
   7   3  -1    2.33    0.72
   7   3  -1   -0.21    0.46
   7   3  -1    1.69    0.68
  -7  -3   1    2.67    0.89
  -7  -3   1    1.77    0.94
  -7  -3   1    2.13    0.85
   6   3  -1    1.20    0.55
   6   3  -1    0.56    0.48
   6   3  -1    1.08    0.53
   6   3  -1    0.64    0.51
  -6  -3   1    2.09    0.68
  -6  -3   1    0.82    0.61
  -6  -3   1    0.56    0.65
  -6  -3   1    2.46    0.69
   5   3  -1   21.00    1.47
   5   3  -1   19.68    1.41
   5   3  -1   19.21    1.51
   5   3  -1   22.60    1.51
  -5  -3   1   21.88    1.59
  -5  -3   1   24.07    1.55
  -5  -3   1   20.28    1.56
   4   3  -1    6.54    0.74
   4   3  -1    5.92    0.67
   4   3  -1    7.06    0.87
   4   3  -1    6.03    0.74
   4   3  -1    6.31    0.75
  -4  -3   1    8.23    0.96
  -4  -3   1    6.26    0.75
  -4  -3   1    6.61    0.84
  -4  -3   1    6.85    0.83
   3   3  -1    1.75    0.38
   3   3  -1    0.75    0.23
   3   3  -1    1.13    0.32
   3   3  -1    0.45    0.32
  -3  -3   1    1.07    0.32
  -3  -3   1    1.41    0.38
  -3  -3   1    0.97    0.32
  -3  -3   1    1.18    0.33
   2   3  -1    3.63    0.58
   2   3  -1    5.79    0.65
   2   3  -1    4.50    0.38
   2   3  -1    6.02    0.60
  -2  -3   1    4.91    0.59
  -2  -3   1    4.76    0.52
  -2  -3   1    4.43    0.38
  -2  -3   1    3.71    0.50
  -2  -3   1    4.84    0.53
   1   3  -1  199.10   10.11
   1   3  -1  202.43   11.15
   1   3  -1  209.56   10.59
   1   3  -1  202.91   10.26
  -1  -3   1  200.26    9.75
  -1  -3   1  192.12   10.38
  -1  -3   1  190.72    9.22
  -1  -3   1  200.67   10.27
   0   3  -1   32.53    1.70
   0   3  -1   32.55    2.06
   0   3  -1   31.90    1.98
   0   3  -1   27.66    1.80
   0   3  -1   32.05    1.85
   0  -3   1   31.86    1.69
   0  -3   1   30.50    1.82
   0  -3   1   30.04    1.79
   0  -3   1   32.13    1.93
   0  -3   1   32.83    1.67
  -1   3  -1    0.80    0.26
  -1   3  -1    0.86    0.35
  -1   3  -1    1.23    0.32
  -1   3  -1   -0.01    0.30
  -1   3  -1    0.82    0.32
   1  -3   1    0.66    0.25
   1  -3   1    1.40    0.34
   1  -3   1    1.10    0.38
   1  -3   1    1.55    0.43
   1  -3   1    0.87    0.28
   1  -3   1    0.74    0.25
  -2   3  -1    9.09    0.64
  -2   3  -1    7.42    0.79
  -2   3  -1    8.63    1.13
  -2   3  -1    8.87    0.99
  -2   3  -1    8.56    0.97
   2  -3   1    7.04    0.61
   2  -3   1    9.52    0.96
   2  -3   1    7.40    0.72
   2  -3   1    7.43    0.78
   2  -3   1    6.51    0.59
   2  -3   1    9.20    1.03
  -3   3  -1   34.63    2.29
  -3   3  -1   33.58    2.34
  -3   3  -1   38.22    2.66
  -3   3  -1   36.30    2.18
   3  -3   1   36.93    1.92
   3  -3   1   37.49    2.28
   3  -3   1   34.61    2.17
   3  -3   1   26.06    2.06
  -4   3  -1    8.57    1.43
  -4   3  -1    9.68    1.16
  -4   3  -1   10.41    1.37
   4  -3   1   12.51    1.29
   4  -3   1   10.07    0.97
   4  -3   1   12.29    1.39
   4  -3   1    8.04    1.08
  -5   3  -1    0.74    0.75
  -5   3  -1    0.41    0.60
  -5   3  -1    1.55    0.90
   5  -3   1    1.48    0.72
   5  -3   1    0.19    0.52
   5  -3   1    1.04    0.52
   5  -3   1    0.82    0.61
  -6   3  -1    0.05    0.72
  -6   3  -1    0.33    0.76
  -6   3  -1    0.54    0.97
   6  -3   1   -0.04    0.66
   6  -3   1    0.74    0.69
   6  -3   1   -0.11    0.66
  -7   3  -1    4.09    1.17
  -7   3  -1    5.94    1.67
   7  -3   1    6.33    1.30
   7  -3   1    8.12    1.62
  -8   3  -1    0.53    1.64
   8  -3   1   -0.69    1.07
   9   2  -1    0.94    0.89
   9   2  -1   -0.08    0.65
   9   2  -1   -1.00    0.70
  -9  -2   1    0.59    0.92
  -9  -2   1    0.90    1.03
  -9  -2   1    0.24    1.47
   8   2  -1    3.62    0.96
   8   2  -1    1.64    0.83
   8   2  -1    2.87    0.90
  -8  -2   1    2.90    0.98
  -8  -2   1    2.19    1.51
  -8  -2   1    2.37    1.22
   7   2  -1    5.17    0.92
   7   2  -1    4.56    0.92
   7   2  -1    5.23    0.98
  -7  -2   1    4.56    1.03
  -7  -2   1    6.64    1.18
  -7  -2   1    5.78    1.32
   6   2  -1   21.38    1.69
   6   2  -1   24.40    1.62
   6   2  -1   22.93    1.70
  -6  -2   1   22.22    1.78
  -6  -2   1   24.18    1.98
  -6  -2   1   20.58    1.73
   5   2  -1    0.09    0.37
   5   2  -1    0.63    1.02
   5   2  -1    0.39    0.34
   5   2  -1    0.69    0.32
  -5  -2   1    0.58    0.48
  -5  -2   1    0.54    0.40
  -5  -2   1    0.26    0.38
  -5  -2   1   -0.13    0.35
   4   2  -1  256.72   12.77
   4   2  -1  254.57   11.76
   4   2  -1  261.56   12.70
   4   2  -1  227.37   12.39
  -4  -2   1  264.21   13.92
  -4  -2   1  265.15   14.04
  -4  -2   1  257.51   13.25
  -4  -2   1  251.01   13.21
  -4  -2   1  242.10   12.44
   3   2  -1   39.88    2.28
   3   2  -1   38.92    2.21
   3   2  -1   39.72    2.08
   3   2  -1   40.27    2.25
   3   2  -1   40.66    2.19
  -3  -2   1   40.10    2.30
  -3  -2   1   34.35    2.15
  -3  -2   1   42.77    2.35
   2   2  -1   26.80    1.54
   2   2  -1   27.45    1.44
   2   2  -1   25.45    1.41
   2   2  -1   26.48    1.60
  -2  -2   1   27.37    1.55
  -2  -2   1   25.69    1.47
  -2  -2   1   26.65    1.57
  -2  -2   1   21.98    1.39
  -2  -2   1   27.34    1.57
   1   2  -1   55.36    2.81
   1   2  -1   57.73    3.10
   1   2  -1   56.56    3.03
  -1  -2   1   57.25    3.05
  -1  -2   1   51.01    2.97
  -1  -2   1   60.02    2.76
  -1  -2   1   58.09    2.87
  -1  -2   1   56.74    2.82
   0   2  -1  205.16   10.42
   0   2  -1  214.90   10.26
   0   2  -1  210.59   11.66
   0   2  -1  210.16   10.97
   0  -2   1  202.25   10.68
   0  -2   1  211.03   10.18
   0  -2   1  218.73   10.24
   0  -2   1  210.65    9.60
   0  -2   1  194.12   10.25
   0  -2   1  215.94   10.44
   0  -2   1  210.09   10.82
  -1   2  -1   14.30    0.96
  -1   2  -1   12.91    0.82
  -1   2  -1   13.68    1.06
  -1   2  -1   13.67    0.93
  -1   2  -1   13.91    0.86
   1  -2   1   14.65    0.98
   1  -2   1   11.40    0.85
   1  -2   1   13.82    0.84
   1  -2   1   13.91    0.82
   1  -2   1   14.82    0.95
   1  -2   1   13.30    0.83
  -2   2  -1   17.12    1.19
  -2   2  -1   15.59    1.29
  -2   2  -1   12.58    1.06
  -2   2  -1   15.63    1.03
   2  -2   1   16.32    1.12
   2  -2   1   16.25    1.09
   2  -2   1   14.92    0.93
   2  -2   1   17.19    0.93
  -3   2  -1  125.52    7.31
  -3   2  -1  131.16    6.89
  -3   2  -1  127.70    7.01
  -3   2  -1  122.64    7.93
   3  -2   1  130.79    6.47
   3  -2   1  128.14    6.58
   3  -2   1  138.34    6.79
   3  -2   1  129.84    6.12
   3  -2   1  129.70    6.96
  -4   2  -1   22.41    2.01
  -4   2  -1   24.69    1.86
  -4   2  -1   23.65    1.68
  -4   2  -1   23.89    1.66
   4  -2   1   24.80    1.73
   4  -2   1   25.74    1.68
   4  -2   1   23.84    1.69
   4  -2   1   23.90    1.48
  -5   2  -1    0.33    0.60
  -5   2  -1    0.24    0.53
  -5   2  -1   -0.15    0.66
   5  -2   1    0.53    0.42
   5  -2   1   -0.18    0.41
   5  -2   1    0.35    0.49
   5  -2   1    0.44    0.51
  -6   2  -1    0.41    0.66
  -6   2  -1   -0.15    0.81
  -6   2  -1   -0.80    0.49
   6  -2   1    0.95    0.55
   6  -2   1   -0.59    0.48
   6  -2   1   -0.06    0.59
   6  -2   1    0.73    0.70
  -7   2  -1    4.10    1.46
  -7   2  -1    2.07    0.84
  -7   2  -1    4.79    1.16
   7  -2   1    6.13    1.33
   7  -2   1    3.72    1.05
   7  -2   1    3.42    0.93
  -8   2  -1    0.18    0.63
  -8   2  -1   -0.15    0.91
   8  -2   1    0.04    0.88
   8  -2   1    0.23    1.10
   9   1  -1    0.51    1.86
   9   1  -1    0.16    0.76
   9   1  -1    0.77    0.88
  -9  -1   1   -0.06    0.95
  -9  -1   1    1.35    1.21
  -9  -1   1   -0.02    1.40
   8   1  -1    2.07    0.89
   8   1  -1    1.86    0.87
   8   1  -1    1.55    0.74
  -8  -1   1    2.83    1.10
  -8  -1   1    2.70    1.12
  -8  -1   1    3.14    1.42
   7   1  -1    0.78    1.35
   7   1  -1    0.90    0.56
   7   1  -1    0.11    0.59
   7   1  -1    0.96    0.61
  -7  -1   1    0.27    0.67
  -7  -1   1   -0.33    0.83
  -7  -1   1    2.25    0.87
   6   1  -1   21.74    1.78
   6   1  -1   23.24    1.74
   6   1  -1   21.00    1.73
   6   1  -1   22.11    1.58
  -6  -1   1   22.71    2.01
  -6  -1   1   25.29    2.39
  -6  -1   1   23.15    1.87
   5   1  -1    3.79    0.69
   5   1  -1    5.77    0.74
   5   1  -1    3.89    0.71
  -5  -1   1    6.22    1.07
  -5  -1   1    4.97    0.79
  -5  -1   1    4.65    0.79
  -5  -1   1    4.87    0.83
   4   1  -1   12.51    1.01
   4   1  -1   12.32    0.91
   4   1  -1   12.68    0.91
   4   1  -1   13.40    1.03
  -4  -1   1   11.34    1.02
  -4  -1   1   13.78    1.18
  -4  -1   1   13.03    1.04
  -4  -1   1   12.32    1.03
   3   1  -1   11.89    0.90
   3   1  -1   13.99    0.90
   3   1  -1   11.74    0.91
   3   1  -1   13.71    0.87
  -3  -1   1   14.57    0.95
  -3  -1   1   14.38    0.95
  -3  -1   1   13.34    0.97
  -3  -1   1   13.05    1.06
  -3  -1   1   12.35    0.96
   2   1  -1  826.50   36.99
   2   1  -1  826.21   41.43
   2   1  -1  819.56   40.28
   2   1  -1  773.27   39.14
  -2  -1   1  818.08   41.78
  -2  -1   1  844.66   41.63
  -2  -1   1  833.20   44.96
  -2  -1   1  823.04   39.15
   1   1  -1   68.86    3.23
   1   1  -1   67.83    3.43
   1   1  -1   69.15    3.54
   1   1  -1   64.87    3.62
  -1  -1   1   66.07    3.23
  -1  -1   1   69.54    3.62
  -1  -1   1   73.43    3.41
   0   1  -1  170.64    8.30
   0   1  -1  164.23    8.70
   0   1  -1  168.95    9.26
   0  -1   1  170.26    8.08
   0  -1   1  158.64    7.65
   0  -1   1  170.89    8.30
  -1   1  -1   14.99    0.95
  -1   1  -1   16.42    1.03
  -1   1  -1   14.44    0.86
   1  -1   1   15.49    0.92
   1  -1   1   14.86    0.84
   1  -1   1   14.94    0.85
   1  -1   1   14.22    0.82
  -2   1  -1  246.14   13.56
  -2   1  -1  257.78   14.11
  -2   1  -1  261.50   14.61
  -2   1  -1  268.03   13.37
   2  -1   1  276.89   12.86
   2  -1   1  258.48   13.45
   2  -1   1  267.47   12.92
   2  -1   1  252.18   11.90
   2  -1   1  260.76   12.65
  -3   1  -1   -0.28    0.25
  -3   1  -1   -0.14    0.21
  -3   1  -1    0.16    0.23
  -3   1  -1    0.18    0.35
   3  -1   1   -0.07    0.18
   3  -1   1    0.01    0.23
   3  -1   1    0.13    0.14
   3  -1   1   -0.16    0.21
   3  -1   1    0.16    0.26
  -4   1  -1    7.83    1.06
  -4   1  -1    7.11    0.85
  -4   1  -1    7.52    1.11
  -4   1  -1    7.61    0.73
  -4   1  -1    7.00    0.90
   4  -1   1    9.29    0.72
   4  -1   1    9.87    0.99
   4  -1   1    8.17    0.94
   4  -1   1    7.87    0.91
  -5   1  -1   49.20    3.25
  -5   1  -1   43.72    3.34
  -5   1  -1   48.91    2.96
   5  -1   1   52.39    3.05
   5  -1   1   48.07    2.61
   5  -1   1   46.26    2.85
   5  -1   1   47.39    2.93
  -6   1  -1    4.19    1.14
  -6   1  -1    3.53    0.95
  -6   1  -1    6.38    1.06
   6  -1   1    4.79    0.77
   6  -1   1    3.74    0.85
   6  -1   1    4.68    0.93
   6  -1   1    4.71    2.46
  -7   1  -1    2.81    0.93
  -7   1  -1    3.44    1.19
  -7   1  -1    2.98    0.90
   7  -1   1    3.74    0.98
   7  -1   1    4.93    1.09
   7  -1   1    4.43    0.90
   7  -1   1    3.24    0.90
  -8   1  -1    0.45    0.81
  -8   1  -1    0.54    0.71
   8  -1   1    0.97    1.05
   8  -1   1    0.81    0.79
  -9   1  -1    1.51    1.21
   9   0  -1    0.49    0.72
  -9   0   1   -0.25    1.19
   8   0  -1   -0.05    0.68
   8   0  -1   -0.38    0.67
  -8   0   1   -0.09    0.82
  -8   0   1   -0.14    0.81
  -8   0   1    1.06    0.94
   7   0  -1    0.78    1.30
   7   0  -1    0.13    0.54
   7   0  -1   -0.48    0.45
   7   0  -1   -0.05    0.59
  -7   0   1    0.33    0.79
  -7   0   1    0.26    0.71
  -7   0   1    1.03    0.85
   6   0  -1    7.27    1.14
   6   0  -1    3.79    0.86
   6   0  -1    3.86    0.85
   6   0  -1    3.87    0.72
  -6   0   1    4.93    0.99
  -6   0   1    6.08    1.11
  -6   0   1    4.83    1.18
   5   0  -1   12.08    1.36
   5   0  -1   12.44    1.13
   5   0  -1   10.91    1.26
   5   0  -1   11.72    1.00
  -5   0   1   15.94    1.77
  -5   0   1   13.87    1.43
  -5   0   1   13.22    1.21
  -5   0   1   14.56    1.58
   4   0  -1   10.51    0.73
   4   0  -1   12.23    1.04
   4   0  -1    9.54    0.83
   4   0  -1   10.99    2.21
   4   0  -1   11.81    0.97
  -4   0   1   12.51    1.36
  -4   0   1   10.11    1.28
  -4   0   1   11.05    1.02
  -4   0   1   13.15    1.13
   3   0  -1    1.42    0.29
   3   0  -1    1.37    0.23
   3   0  -1    0.68    0.31
   3   0  -1    0.54    0.24
   3   0  -1    0.66    0.30
  -3   0   1    1.12    0.36
  -3   0   1    0.66    0.33
  -3   0   1    1.25    0.36
  -3   0   1    0.32    0.33
   2   0  -1   99.38    4.74
   2   0  -1   87.63    4.29
   2   0  -1   91.22    4.59
   2   0  -1   88.29    4.61
  -2   0   1   97.69    4.91
  -2   0   1   88.44    4.86
  -2   0   1   91.48    5.18
   1   0  -1    0.75    0.18
   1   0  -1    0.79    0.14
   1   0  -1    0.71    0.15
  -1   0   1    0.64    0.16
  -1   0   1    0.85    0.23
  -1   0   1    0.64    0.18
  -1   0   1    0.62    0.17
  -1   0   1    0.46    0.15
   0   0  -1   46.76    2.52
   0   0   1   53.94    2.53
  -1   0  -1    8.61    0.60
  -1   0  -1    9.72    0.60
   1   0   1   10.00    0.54
   1   0   1   10.32    0.52
   1   0   1    7.12    0.51
  -2   0  -1  999.28   48.74
  -2   0  -1  959.90   51.23
  -2   0  -1  933.40   52.81
  -2   0  -1 1000.00   49.93
   2   0   1  946.22   47.82
   2   0   1  945.03   47.09
   2   0   1  938.43   47.61
   2   0   1  976.40   44.59
  -3   0  -1   25.50    1.47
  -3   0  -1   22.64    1.31
  -3   0  -1   23.54    1.45
  -3   0  -1   20.41    1.54
  -3   0  -1   22.69    1.60
   3   0   1   24.71    1.33
   3   0   1   21.27    1.29
   3   0   1   23.29    1.45
   3   0   1   24.71    1.43
   3   0   1   26.00    1.42
  -4   0  -1    3.72    0.59
  -4   0  -1    3.73    0.40
  -4   0  -1    2.33    0.60
  -4   0  -1    4.20    0.74
  -4   0  -1    3.26    0.56
   4   0   1    3.12    0.54
   4   0   1    3.38    0.56
   4   0   1    2.86    0.91
   4   0   1    3.50    0.56
   4   0   1    2.98    0.49
  -5   0  -1    3.00    0.74
  -5   0  -1    2.87    0.68
  -5   0  -1    1.85    0.54
  -5   0  -1    0.95    0.47
   5   0   1    1.23    1.21
   5   0   1    1.89    1.20
   5   0   1    1.46    0.49
   5   0   1    1.95    1.47
  -6   0  -1   22.47    1.70
  -6   0  -1   22.08    1.88
  -6   0  -1   18.56    1.68
   6   0   1   19.45    1.65
   6   0   1   21.89    1.50
   6   0   1   23.52    1.72
   6   0   1   18.46    1.59
  -7   0  -1   -0.44    0.60
  -7   0  -1   -0.57    0.51
  -7   0  -1    0.80    0.74
   7   0   1   -0.89    0.51
   7   0   1    0.32    0.49
   7   0   1    0.44    0.65
   7   0   1   -0.45    0.52
  -8   0  -1   -0.02    0.78
  -8   0  -1   -0.45    0.76
  -8   0  -1   -0.11    0.61
   8   0   1   -0.29    0.84
   8   0   1   -0.13    0.69
   8   0   1    0.01    0.65
  -9   0  -1    1.31    0.86
  -9   0  -1    1.48    1.10
   9   0   1    0.16    1.05
   9   0   1    1.52    0.92
   9   0   1    0.25    0.92
   8  -1  -1    0.62    0.91
   8  -1  -1    0.31    0.68
  -8   1   1    1.58    1.04
  -8   1   1    1.29    0.88
   7  -1  -1    1.82    0.83
   7  -1  -1    1.26    0.75
   7  -1  -1    3.34    0.96
  -7   1   1    2.39    0.97
  -7   1   1    3.08    1.07
   6  -1  -1    0.47    0.79
   6  -1  -1    0.23    0.51
   6  -1  -1    0.52    0.59
   6  -1  -1    0.45    0.61
  -6   1   1    1.17    0.84
  -6   1   1    1.28    0.71
  -6   1   1    1.18    0.79
  -6   1   1    0.22    0.72
   5  -1  -1    7.80    1.09
   5  -1  -1    8.28    1.18
   5  -1  -1    8.79    2.81
   5  -1  -1    6.70    0.83
  -5   1   1    7.71    1.35
  -5   1   1    8.08    1.31
  -5   1   1    9.50    1.23
  -5   1   1   10.30    1.28
   4  -1  -1   50.16    2.62
   4  -1  -1   53.12    3.04
   4  -1  -1   48.36    2.87
   4  -1  -1   49.14    3.06
  -4   1   1   48.71    3.06
  -4   1   1   57.54    3.41
  -4   1   1   45.29    3.34
  -4   1   1   54.45    3.10
   3  -1  -1   14.10    1.06
   3  -1  -1   13.06    0.96
   3  -1  -1   14.14    1.04
   3  -1  -1   13.63    0.85
  -3   1   1   12.18    0.81
  -3   1   1   11.61    1.13
  -3   1   1   13.53    1.17
  -3   1   1   10.81    0.99
  -3   1   1   11.84    0.99
   2  -1  -1    0.99    0.27
   2  -1  -1    0.72    0.27
   2  -1  -1    0.83    0.19
   2  -1  -1    0.75    0.28
  -2   1   1    1.24    0.33
  -2   1   1    1.12    0.38
  -2   1   1    0.96    0.29
  -2   1   1    0.35    0.29
  -2   1   1    0.99    0.21
   1  -1  -1   88.16    3.98
   1  -1  -1   85.19    4.59
   1  -1  -1   88.18    4.28
   1  -1  -1   92.46    4.45
  -1   1   1   89.45    4.51
  -1   1   1   84.53    4.87
  -1   1   1   84.78    4.57
  -1   1   1   85.73    4.58
  -1   1   1   82.99    4.98
  -1   1   1   85.82    4.59
   0  -1  -1  253.44   11.98
   0  -1  -1  246.47   11.98
   0   1   1  198.57   11.52
   0   1   1  235.56   12.93
   0   1   1  233.48   11.97
   0   1   1  235.26   12.56
   0   1   1  235.88   12.11
  -1  -1  -1    7.81    0.53
  -1  -1  -1    7.19    0.54
   1   1   1    8.44    0.53
   1   1   1    8.84    0.53
   1   1   1    9.15    0.53
  -2  -1  -1   93.85    5.23
  -2  -1  -1   92.08    4.97
  -2  -1  -1   92.13    4.96
  -2  -1  -1  101.73    5.33
   2   1   1   98.10    4.68
   2   1   1   93.67    4.80
   2   1   1   98.34    4.45
   2   1   1   91.56    4.79
  -3  -1  -1   10.77    0.79
  -3  -1  -1   12.24    0.89
  -3  -1  -1   12.55    0.86
  -3  -1  -1    9.66    0.79
   3   1   1   11.05    0.75
   3   1   1   11.53    0.78
   3   1   1   10.40    0.73
   3   1   1   11.28    0.80
  -4  -1  -1  139.59    8.32
  -4  -1  -1  142.18    7.70
  -4  -1  -1  143.04    8.14
  -4  -1  -1  152.70    7.73
   4   1   1  155.49    7.37
   4   1   1  149.32    7.29
   4   1   1  139.75    6.88
   4   1   1  142.41    7.44
  -5  -1  -1   12.61    1.18
  -5  -1  -1   11.83    1.06
  -5  -1  -1   11.22    1.17
  -5  -1  -1   14.15    1.11
   5   1   1   10.35    0.90
   5   1   1   12.18    1.05
   5   1   1   12.59    1.03
   5   1   1   11.93    0.89
  -6  -1  -1   44.80    6.36
  -6  -1  -1   33.17    2.60
  -6  -1  -1   36.85    2.43
  -6  -1  -1   35.09    2.61
   6   1   1   38.53    2.35
   6   1   1   36.01    2.17
   6   1   1   36.29    2.37
   6   1   1   35.94    2.40
  -7  -1  -1    0.62    0.63
  -7  -1  -1    1.42    0.69
  -7  -1  -1   -0.32    0.72
   7   1   1    0.93    0.62
   7   1   1    0.17    0.48
   7   1   1   -0.21    0.56
   7   1   1    0.50    0.57
  -8  -1  -1    0.77    0.91
  -8  -1  -1    1.17    0.80
  -8  -1  -1    0.88    0.76
   8   1   1    0.53    0.63
   8   1   1    0.78    0.79
   8   1   1    0.49    0.64
   8   1   1    1.62    0.84
  -9  -1  -1   -0.18    0.98
  -9  -1  -1    1.01    0.87
  -9  -1  -1    1.20    1.07
   9   1   1    0.54    0.87
   9   1   1    0.24    0.76
   9   1   1    1.72    1.08
   8  -2  -1    0.45    0.95
   8  -2  -1    0.97    0.84
  -8   2   1    0.14    0.62
  -8   2   1    0.94    1.02
   7  -2  -1    1.74    0.86
   7  -2  -1    3.04    0.89
  -7   2   1    1.79    0.86
  -7   2   1    1.62    0.97
   6  -2  -1   -0.37    0.51
   6  -2  -1    0.05    0.68
   6  -2  -1   -0.59    0.60
  -6   2   1    0.39    0.83
  -6   2   1    0.05    0.70
  -6   2   1   -0.65    0.54
   5  -2  -1    0.11    0.45
   5  -2  -1   -0.50    0.46
   5  -2  -1    0.53    0.40
   5  -2  -1    0.07    1.28
  -5   2   1    0.30    0.56
  -5   2   1    0.55    0.67
  -5   2   1    0.25    0.64
   4  -2  -1   11.02    1.29
   4  -2  -1   13.16    1.22
   4  -2  -1   12.35    0.91
   4  -2  -1   13.26    1.14
  -4   2   1   14.25    1.68
  -4   2   1   13.43    1.64
  -4   2   1   12.42    1.16
   3  -2  -1   51.77    2.96
   3  -2  -1   50.64    2.53
   3  -2  -1   50.06    2.82
   3  -2  -1   47.12    3.00
  -3   2   1   54.64    3.31
  -3   2   1   49.98    2.87
  -3   2   1   46.38    3.34
  -3   2   1   52.74    3.00
   2  -2  -1    1.63    0.42
   2  -2  -1    1.15    0.33
   2  -2  -1    1.74    0.42
   2  -2  -1    1.60    0.25
  -2   2   1    1.23    0.48
  -2   2   1    1.18    0.46
  -2   2   1    1.44    0.36
  -2   2   1    1.31    0.45
  -2   2   1    1.66    0.35
   1  -2  -1   -0.04    0.17
   1  -2  -1    0.12    0.15
   1  -2  -1    0.08    0.19
   1  -2  -1    0.39    0.11
   1  -2  -1    0.18    0.22
  -1   2   1    0.06    0.19
  -1   2   1    0.46    0.27
  -1   2   1    0.36    0.28
  -1   2   1   -0.13    0.10
  -1   2   1    0.03    0.23
   0  -2  -1  113.86    6.46
   0  -2  -1  128.45    6.51
   0  -2  -1  123.21    6.02
   0   2   1  124.72    6.77
   0   2   1  123.67    6.25
   0   2   1  124.84    6.54
   0   2   1  123.44    6.99
  -1  -2  -1   81.69    4.24
  -1  -2  -1   77.42    3.90
  -1  -2  -1   79.76    4.23
   1   2   1   82.67    4.40
   1   2   1   79.43    4.04
   1   2   1   78.45    3.69
   1   2   1   79.29    4.51
   1   2   1   82.12    4.29
   1   2   1   79.33    4.10
  -2  -2  -1   18.60    1.04
  -2  -2  -1   20.34    0.97
  -2  -2  -1   15.63    1.03
   2   2   1   15.46    0.92
   2   2   1   16.96    1.04
   2   2   1   14.19    0.97
   2   2   1   16.34    1.01
  -3  -2  -1    0.38    0.22
  -3  -2  -1    0.02    0.17
  -3  -2  -1    0.33    0.20
  -3  -2  -1    0.03    0.18
  -3  -2  -1    0.36    0.16
   3   2   1    0.53    0.16
   3   2   1    0.91    0.26
   3   2   1    0.57    0.20
   3   2   1    0.55    0.20
   3   2   1    0.60    0.22
  -4  -2  -1  101.52    5.70
  -4  -2  -1  105.15    5.76
  -4  -2  -1  102.34    5.44
  -4  -2  -1   96.57    5.40
   4   2   1   96.36    5.21
   4   2   1  103.44    5.22
   4   2   1  102.33    4.87
   4   2   1   91.63    5.25
   4   2   1  107.88    5.14
  -5  -2  -1    0.85    0.39
  -5  -2  -1    0.93    0.45
  -5  -2  -1    0.50    0.37
  -5  -2  -1    0.42    0.87
   5   2   1    0.55    0.34
   5   2   1    0.37    0.33
   5   2   1    0.54    0.33
   5   2   1    0.54    0.35
  -6  -2  -1    0.17    0.49
  -6  -2  -1    1.26    0.53
  -6  -2  -1    0.08    0.48
   6   2   1    0.47    0.42
   6   2   1    0.86    0.41
   6   2   1    0.91    0.46
   6   2   1    0.74    0.45
  -7  -2  -1    1.25    0.77
  -7  -2  -1    0.07    0.56
  -7  -2  -1   -0.41    0.61
   7   2   1    0.31    0.48
   7   2   1    0.27    0.46
   7   2   1    0.29    0.51
  -8  -2  -1   18.65    2.21
  -8  -2  -1   19.76    1.86
  -8  -2  -1   23.09    2.52
   8   2   1   15.87    1.66
   8   2   1   18.71    2.05
   8   2   1   18.21    1.95
   8   2   1   20.71    1.84
  -9  -2  -1    0.84    1.00
  -9  -2  -1   -0.27    0.85
  -9  -2  -1    1.08    1.00
   9   2   1   -0.74    0.80
   9   2   1    0.13    2.01
   9   2   1    1.55    1.69
   7  -3  -1    0.78    0.72
   7  -3  -1   -0.45    0.73
  -7   3   1    0.15    1.17
  -7   3   1    0.12    0.65
  -7   3   1    1.57    1.04
   6  -3  -1    6.73    1.26
   6  -3  -1    5.85    1.26
   6  -3  -1    6.01    1.09
  -6   3   1    3.71    1.05
  -6   3   1   12.62    1.96
  -6   3   1    5.83    1.22
   5  -3  -1    3.34    0.81
   5  -3  -1    4.52    1.02
   5  -3  -1    3.03    0.91
  -5   3   1    3.71    1.17
  -5   3   1    5.00    1.08
  -5   3   1    3.61    1.09
   4  -3  -1   10.97    1.36
   4  -3  -1    8.65    1.17
   4  -3  -1    9.26    1.13
  -4   3   1   10.97    1.61
  -4   3   1   12.00    1.62
  -4   3   1   12.25    1.40
   3  -3  -1   21.36    1.50
   3  -3  -1   22.25    1.26
   3  -3  -1   22.37    1.64
   3  -3  -1   21.55    1.60
  -3   3   1   22.07    1.55
  -3   3   1   19.49    1.74
  -3   3   1   18.81    1.85
  -3   3   1   22.58    1.63
   2  -3  -1   10.97    1.00
   2  -3  -1   10.70    0.72
   2  -3  -1   10.72    0.91
   2  -3  -1   11.95    1.02
   2  -3  -1   12.98    1.04
  -2   3   1   13.41    1.17
  -2   3   1   14.63    1.31
  -2   3   1   11.92    1.02
  -2   3   1   10.71    0.98
  -2   3   1   12.50    1.29
   1  -3  -1    0.09    0.24
   1  -3  -1    0.20    0.26
   1  -3  -1    0.32    0.15
   1  -3  -1    0.34    0.30
   1  -3  -1   -0.05    0.20
  -1   3   1    0.07    0.27
  -1   3   1    0.07    0.31
  -1   3   1    0.16    0.26
  -1   3   1    0.12    0.28
  -1   3   1    0.19    0.29
  -1   3   1   -0.07    0.15
   0  -3  -1  195.33   10.29
   0  -3  -1  199.96   10.37
   0  -3  -1  200.78    9.63
   0  -3  -1  193.54    8.94
   0   3   1  185.58    9.89
   0   3   1  196.19   11.14
   0   3   1  197.90   10.45
   0   3   1  206.71   10.76
  -1  -3  -1   23.42    1.46
  -1  -3  -1   22.02    1.18
  -1  -3  -1   25.01    1.46
  -1  -3  -1   23.26    1.48
  -1  -3  -1   22.27    1.29
   1   3   1   22.88    1.51
   1   3   1   23.15    1.50
   1   3   1   22.00    1.44
   1   3   1   21.86    1.40
   1   3   1   27.08    1.21
   1   3   1   23.25    1.35
  -2  -3  -1   51.00    2.78
  -2  -3  -1   58.10    3.11
  -2  -3  -1   55.82    3.05
  -2  -3  -1   54.89    3.04
   2   3   1   52.56    3.01
   2   3   1   57.40    3.16
   2   3   1   57.92    3.11
   2   3   1   52.90    2.88
  -3  -3  -1   40.98    2.31
  -3  -3  -1   39.49    2.28
  -3  -3  -1   37.26    2.10
   3   3   1   40.99    2.07
   3   3   1   39.04    2.25
   3   3   1   38.58    2.29
   3   3   1   40.82    2.19
  -4  -3  -1   29.25    1.86
  -4  -3  -1   27.71    1.66
  -4  -3  -1   28.99    1.79
  -4  -3  -1   27.48    1.79
  -4  -3  -1   29.45    1.70
   4   3   1   31.77    1.69
   4   3   1   28.73    1.72
   4   3   1   26.17    1.61
   4   3   1   32.42    1.81
   4   3   1   24.03    1.61
  -5  -3  -1    7.12    0.89
  -5  -3  -1    6.58    0.83
  -5  -3  -1    5.67    0.74
  -5  -3  -1    6.28    0.88
   5   3   1    6.00    0.75
   5   3   1    5.53    0.73
   5   3   1    5.83    0.77
   5   3   1    5.69    0.74
  -6  -3  -1    4.01    0.76
  -6  -3  -1    5.72    0.98
  -6  -3  -1    5.15    0.85
   6   3   1    3.36    0.71
   6   3   1    4.62    0.75
   6   3   1    4.20    0.68
   6   3   1    6.39    0.86
  -7  -3  -1   15.69    1.68
  -7  -3  -1   15.53    1.65
  -7  -3  -1   13.67    1.74
   7   3   1   11.81    1.39
   7   3   1   13.79    1.40
   7   3   1   12.46    1.39
  -8  -3  -1    8.11    1.29
  -8  -3  -1    4.35    1.07
  -8  -3  -1    5.30    1.28
   8   3   1    5.65    1.05
   8   3   1    5.30    1.03
   8   3   1    4.08    0.90
  -9  -3  -1    1.44    1.21
  -9  -3  -1    0.98    0.98
  -9  -3  -1    0.61    1.98
   9   3   1    0.70    0.77
   9   3   1   -0.05    0.84
   9   3   1    0.02    0.64
 -10  -3  -1    0.49    0.99
 -10  -3  -1    0.91    1.45
 -10  -3  -1   -0.13    0.98
  10   3   1    0.67    2.09
  10   3   1    0.61    2.14
  10   3   1    1.27    1.30
   7  -4  -1    0.92    0.97
   7  -4  -1    1.15    1.38
   7  -4  -1    0.04    0.71
  -7   4   1    0.30    1.12
  -7   4   1   -1.41    1.29
  -7   4   1    0.23    0.90
   6  -4  -1    2.04    0.92
   6  -4  -1    2.45    1.11
   6  -4  -1    0.75    0.70
  -6   4   1    1.41    0.90
  -6   4   1    2.00    1.07
  -6   4   1    1.06    1.21
   5  -4  -1    8.32    1.31
   5  -4  -1    3.95    1.09
   5  -4  -1    6.62    1.24
   5  -4  -1    7.61    1.35
  -5   4   1    8.98    1.59
  -5   4   1    9.18    1.42
  -5   4   1   10.85    1.84
   4  -4  -1    0.50    0.59
   4  -4  -1    0.56    0.61
   4  -4  -1    0.59    0.55
   4  -4  -1    1.21    0.70
  -4   4   1    0.45    0.60
  -4   4   1    0.53    0.79
  -4   4   1   -0.06    0.69
   3  -4  -1    7.20    0.97
   3  -4  -1    5.63    0.96
   3  -4  -1    7.14    1.10
   3  -4  -1    5.15    0.89
  -3   4   1    8.33    1.42
  -3   4   1    7.24    1.24
  -3   4   1    5.03    0.91
  -3   4   1    6.22    0.98
   2  -4  -1   18.08    1.38
   2  -4  -1   19.01    1.47
   2  -4  -1   22.79    1.57
   2  -4  -1   21.21    1.57
  -2   4   1   19.03    1.73
  -2   4   1   15.90    1.47
  -2   4   1   18.55    1.57
  -2   4   1   18.30    1.47
  -2   4   1   21.39    1.68
   1  -4  -1   97.88    5.12
   1  -4  -1   94.73    5.34
   1  -4  -1  104.99    5.04
   1  -4  -1   92.97    4.51
   1  -4  -1  100.64    5.44
  -1   4   1  101.30    5.63
  -1   4   1   94.84    5.45
  -1   4   1  101.35    5.93
  -1   4   1   86.16    4.92
  -1   4   1   99.26    5.35
  -1   4   1   90.50    5.20
   0  -4  -1   26.11    1.65
   0  -4  -1   26.19    1.71
   0  -4  -1   22.83    1.47
   0  -4  -1   24.56    1.24
   0   4   1   22.15    1.53
   0   4   1   24.01    1.72
   0   4   1   22.67    1.48
   0   4   1   22.78    1.62
   0   4   1   20.83    1.73
  -1  -4  -1   19.27    1.44
  -1  -4  -1   21.93    1.14
  -1  -4  -1   21.14    1.39
  -1  -4  -1   21.23    1.28
  -1  -4  -1   20.69    1.41
   1   4   1   20.85    1.13
   1   4   1   20.97    1.50
   1   4   1   20.80    1.39
   1   4   1   20.59    1.31
   1   4   1   21.42    1.51
   1   4   1   19.16    1.36
  -2  -4  -1  108.09    5.65
  -2  -4  -1  101.71    5.20
  -2  -4  -1  104.93    5.61
  -2  -4  -1  105.10    5.75
   2   4   1  101.35    5.94
   2   4   1  103.21    5.53
   2   4   1  105.97    5.32
   2   4   1  106.91    5.77
   2   4   1  102.36    4.93
  -3  -4  -1   14.27    1.10
  -3  -4  -1   15.69    1.06
  -3  -4  -1   15.63    1.11
   3   4   1   15.64    1.02
   3   4   1   14.69    0.98
   3   4   1   16.87    1.20
   3   4   1   15.20    1.00
   3   4   1   16.18    1.27
  -4  -4  -1   31.88    1.98
  -4  -4  -1   30.43    1.97
  -4  -4  -1   29.62    1.96
  -4  -4  -1   31.06    1.80
   4   4   1   32.19    1.87
   4   4   1   31.53    2.03
   4   4   1   29.32    1.77
   4   4   1   31.96    1.91
  -5  -4  -1   17.56    1.35
  -5  -4  -1   16.41    1.33
  -5  -4  -1   19.08    1.26
   5   4   1   15.60    1.23
   5   4   1   19.86    1.23
   5   4   1   18.76    1.30
   5   4   1   18.49    1.38
   5   4   1   14.72    1.19
  -6  -4  -1   25.19    1.89
  -6  -4  -1   25.95    1.69
  -6  -4  -1   23.71    1.77
  -6  -4  -1   24.29    1.78
   6   4   1   22.70    1.69
   6   4   1   24.40    1.66
   6   4   1   20.14    1.57
   6   4   1   21.78    1.66
  -7  -4  -1    0.50    0.55
  -7  -4  -1    2.19    0.78
  -7  -4  -1    0.83    0.63
   7   4   1    1.21    0.58
   7   4   1    1.13    0.58
   7   4   1    0.66    0.51
   7   4   1    0.34    0.49
  -8  -4  -1    2.80    1.00
  -8  -4  -1    3.82    1.17
  -8  -4  -1    2.65    0.90
   8   4   1    2.66    0.85
   8   4   1    3.09    0.85
   8   4   1    3.10    0.83
  -9  -4  -1    4.95    1.55
  -9  -4  -1    3.36    1.10
  -9  -4  -1    3.11    1.12
   9   4   1    3.73    0.96
   9   4   1    3.59    1.00
 -10  -4  -1    0.61    1.04
 -10  -4  -1    0.53    1.04
 -10  -4  -1    0.03    1.30
  10   4   1    0.94    1.22
  10   4   1    0.95    0.91
  10   4   1    1.26    1.05
   6  -5  -1    0.10    0.64
   6  -5  -1    1.07    0.94
  -6   5   1    0.40    1.12
  -6   5   1    0.90    1.32
   5  -5  -1    8.97    1.50
   5  -5  -1    7.86    1.48
   5  -5  -1    4.26    1.06
   5  -5  -1    5.92    1.28
  -5   5   1    6.96    1.49
  -5   5   1    7.76    1.70
  -5   5   1    9.29    1.61
   4  -5  -1    2.66    0.90
   4  -5  -1    1.06    0.71
   4  -5  -1    1.68    0.77
   4  -5  -1    4.40    1.10
  -4   5   1    5.91    1.45
  -4   5   1    4.10    1.11
  -4   5   1    3.50    0.95
   3  -5  -1    0.62    0.57
   3  -5  -1    0.42    0.57
   3  -5  -1    0.71    0.63
   3  -5  -1    0.61    0.66
  -3   5   1    0.34    0.56
  -3   5   1    0.13    0.56
  -3   5   1   -0.57    0.69
  -3   5   1    0.54    0.67
   2  -5  -1   49.46    2.98
   2  -5  -1   44.52    2.82
   2  -5  -1   41.32    2.96
   2  -5  -1   46.15    2.77
  -2   5   1   45.57    3.00
  -2   5   1   43.61    2.98
  -2   5   1   48.29    3.39
  -2   5   1   43.49    2.90
  -2   5   1   45.48    3.09
   1  -5  -1   62.77    3.89
   1  -5  -1   62.79    3.79
   1  -5  -1   68.58    3.64
   1  -5  -1   60.62    3.54
  -1   5   1   67.28    4.26
  -1   5   1   59.78    3.87
  -1   5   1   62.83    3.93
  -1   5   1   64.51    3.73
   0  -5  -1    1.05    0.27
   0  -5  -1    1.94    0.51
   0  -5  -1    2.10    0.62
   0  -5  -1    1.87    0.54
   0   5   1    1.22    0.53
   0   5   1    0.94    0.44
   0   5   1    0.32    0.40
   0   5   1    0.69    0.37
   0   5   1    0.96    0.52
  -1  -5  -1    5.21    0.70
  -1  -5  -1    7.57    1.03
  -1  -5  -1    6.90    0.90
  -1  -5  -1    8.29    0.91
  -1  -5  -1    4.98    0.55
   1   5   1    6.31    0.74
   1   5   1    7.23    0.85
   1   5   1    5.73    0.58
   1   5   1    5.15    0.75
   1   5   1    7.39    1.01
   1   5   1    8.19    1.00
  -2  -5  -1  119.47    5.81
  -2  -5  -1  120.84    6.32
  -2  -5  -1  110.89    6.36
  -2  -5  -1  112.43    6.22
  -2  -5  -1  121.60    5.49
   2   5   1  117.33    6.64
   2   5   1  110.39    6.42
   2   5   1  113.33    5.90
   2   5   1  112.30    5.44
   2   5   1  109.74    6.12
  -3  -5  -1   23.92    1.51
  -3  -5  -1   22.62    1.67
  -3  -5  -1   25.20    1.60
  -3  -5  -1   26.60    1.72
   3   5   1   27.32    1.83
   3   5   1   27.21    1.56
   3   5   1   27.35    1.81
   3   5   1   23.77    1.47
   3   5   1   24.18    1.60
  -4  -5  -1    0.81    0.40
  -4  -5  -1    0.75    0.36
  -4  -5  -1    0.54    0.37
  -4  -5  -1    0.79    0.31
   4   5   1    0.39    0.44
   4   5   1    0.66    0.31
   4   5   1    0.84    0.41
   4   5   1    0.76    0.37
  -5  -5  -1    6.50    0.95
  -5  -5  -1    5.44    0.87
  -5  -5  -1    5.77    0.86
  -5  -5  -1    4.40    0.68
   5   5   1    5.09    0.88
   5   5   1    5.92    0.74
   5   5   1    6.04    0.78
   5   5   1    4.30    0.66
   5   5   1    6.35    0.82
  -6  -5  -1   23.92    1.85
  -6  -5  -1   27.30    1.95
  -6  -5  -1   23.83    1.70
  -6  -5  -1   22.99    1.84
   6   5   1   25.05    1.74
   6   5   1   24.88    1.73
   6   5   1   25.93    1.77
   6   5   1   27.17    1.92
  -7  -5  -1   -0.07    0.47
  -7  -5  -1    0.12    0.58
  -7  -5  -1    0.58    0.61
  -7  -5  -1    0.33    0.58
   7   5   1    0.10    0.50
   7   5   1   -0.67    0.44
   7   5   1    0.30    0.50
   7   5   1    0.41    0.51
  -8  -5  -1    0.97    0.75
  -8  -5  -1    1.63    0.97
  -8  -5  -1    2.10    0.86
   8   5   1    1.79    0.76
   8   5   1    1.14    0.60
   8   5   1    1.81    0.77
   8   5   1    2.16    0.73
  -9  -5  -1    0.46    0.76
  -9  -5  -1    0.97    1.05
   9   5   1   -0.10    0.76
   9   5   1   -0.13    0.70
 -10  -5  -1    0.60    1.00
 -10  -5  -1   -0.23    0.99
  10   5   1    1.17    1.02
  10   5   1   -0.40    0.86
   5  -6  -1    7.84    1.43
   5  -6  -1    2.26    0.88
  -5   6   1    4.71    1.37
  -5   6   1    6.31    1.58
   4  -6  -1    0.68    0.71
   4  -6  -1    0.40    0.73
   4  -6  -1   -0.34    0.67
   4  -6  -1    0.24    0.89
  -4   6   1    0.08    0.81
  -4   6   1   -0.59    0.71
  -4   6   1    0.19    0.90
   3  -6  -1   27.95    2.34
   3  -6  -1   32.58    2.34
   3  -6  -1   28.42    2.22
  -3   6   1   30.75    2.50
  -3   6   1   30.05    2.69
  -3   6   1   20.90    2.17
  -3   6   1   25.45    2.27
   2  -6  -1    5.27    1.13
   2  -6  -1    4.71    0.94
   2  -6  -1    4.90    0.94
   2  -6  -1    3.09    0.85
  -2   6   1    6.87    1.40
  -2   6   1    5.78    1.12
  -2   6   1    4.94    1.06
   1  -6  -1   65.77    3.85
   1  -6  -1   63.47    4.18
   1  -6  -1   64.65    4.06
   1  -6  -1   71.17    3.90
  -1   6   1   70.60    4.02
  -1   6   1   68.33    4.24
  -1   6   1   68.30    4.58
  -1   6   1   68.16    4.26
   0  -6  -1   42.22    2.94
   0  -6  -1   44.04    2.63
   0  -6  -1   45.09    2.69
   0  -6  -1   43.61    2.82
   0   6   1   43.25    3.14
   0   6   1   46.70    3.04
   0   6   1   42.95    2.87
   0   6   1   44.99    2.68
   0   6   1   47.43    2.78
  -1  -6  -1   33.42    2.20
  -1  -6  -1   36.27    2.49
  -1  -6  -1   37.28    2.41
  -1  -6  -1   38.65    2.41
  -1  -6  -1   32.49    1.93
   1   6   1   39.08    2.62
   1   6   1   39.66    2.30
   1   6   1   36.73    2.38
   1   6   1   35.91    1.95
   1   6   1   38.88    2.63
  -2  -6  -1   23.72    1.49
  -2  -6  -1   20.20    1.31
  -2  -6  -1   21.55    1.59
  -2  -6  -1   20.29    1.62
  -2  -6  -1   23.24    1.51
   2   6   1   20.55    1.62
   2   6   1   18.86    1.26
   2   6   1   21.93    1.66
   2   6   1   21.19    1.44
   2   6   1   20.53    1.72
  -3  -6  -1   58.44    3.31
  -3  -6  -1   55.04    3.10
  -3  -6  -1   59.33    3.40
  -3  -6  -1   60.21    3.45
   3   6   1   47.68    2.91
   3   6   1   55.05    3.44
   3   6   1   60.63    3.15
   3   6   1   57.51    3.55
   3   6   1   57.80    3.46
  -4  -6  -1   20.58    1.46
  -4  -6  -1   21.36    1.62
  -4  -6  -1   24.49    1.69
   4   6   1   22.65    1.48
   4   6   1   19.97    1.43
   4   6   1   23.65    1.81
   4   6   1   22.88    1.74
  -5  -6  -1   13.05    1.28
  -5  -6  -1   12.84    1.24
  -5  -6  -1   12.87    1.10
   5   6   1   14.66    1.24
   5   6   1   17.40    1.49
   5   6   1   13.38    1.15
   5   6   1   14.57    1.19
  -6  -6  -1   25.93    2.00
  -6  -6  -1   31.92    2.25
  -6  -6  -1   33.41    2.29
   6   6   1   29.97    2.32
   6   6   1   33.59    2.08
   6   6   1   34.25    2.13
   6   6   1   32.49    2.10
  -7  -6  -1    8.85    1.36
  -7  -6  -1    7.69    1.19
  -7  -6  -1    5.79    0.99
   7   6   1    8.44    1.13
   7   6   1    7.18    1.06
   7   6   1    7.10    1.11
   7   6   1    5.69    1.08
  -8  -6  -1    0.28    0.65
  -8  -6  -1    0.70    0.74
  -8  -6  -1   -0.01    0.67
   8   6   1    1.82    0.83
   8   6   1    1.64    0.67
   8   6   1    1.83    0.78
   8   6   1   -0.08    0.63
  -9  -6  -1    0.56    0.79
  -9  -6  -1    1.43    1.05
   9   6   1    0.86    0.81
   9   6   1    1.61    0.91
 -10  -6  -1   -0.57    1.02
 -10  -6  -1    1.19    1.07
  10   6   1   -0.87    0.87
  10   6   1    0.53    1.01
   5  -7  -1   -0.31    0.98
   5  -7  -1    0.96    0.94
  -5   7   1    0.92    1.43
   4  -7  -1    0.16    0.77
   4  -7  -1    0.37    0.84
  -4   7   1    0.42    0.79
  -4   7   1   -0.39    1.03
   3  -7  -1   33.98    2.93
   3  -7  -1   32.76    2.59
  -3   7   1   35.28    2.84
   2  -7  -1   -0.19    0.77
   2  -7  -1    0.62    0.66
   2  -7  -1   -0.39    0.59
  -2   7   1    0.37    0.92
  -2   7   1    0.63    0.89
  -2   7   1    0.49    0.84
   1  -7  -1    1.80    0.69
   1  -7  -1    2.53    0.73
   1  -7  -1    2.59    0.91
  -1   7   1    2.07    0.99
  -1   7   1    2.27    0.88
  -1   7   1    1.87    0.97
   0  -7  -1    3.95    0.82
   0  -7  -1    2.92    0.76
   0  -7  -1    1.82    0.81
   0   7   1    3.73    1.03
   0   7   1    4.23    1.07
  -1  -7  -1  108.85    6.13
  -1  -7  -1  105.03    5.94
  -1  -7  -1  108.22    5.62
   1   7   1   94.34    5.61
   1   7   1  107.06    6.25
   1   7   1  107.07    6.48
  -2  -7  -1    9.61    1.09
  -2  -7  -1   11.62    1.31
  -2  -7  -1   11.47    1.49
   2   7   1    9.50    1.38
   2   7   1   10.09    1.31
   2   7   1    8.79    1.02
   2   7   1    9.87    1.27
  -3  -7  -1   10.98    1.15
  -3  -7  -1   12.46    1.46
  -3  -7  -1   11.30    1.32
   3   7   1    8.29    0.98
   3   7   1   12.06    1.44
   3   7   1   13.06    1.59
   3   7   1   11.21    1.06
  -4  -7  -1   17.22    1.33
  -4  -7  -1   17.66    1.48
  -4  -7  -1   17.34    1.52
   4   7   1   18.92    1.68
   4   7   1   18.95    1.36
   4   7   1   16.58    1.32
   4   7   1   17.46    1.60
  -5  -7  -1   17.40    1.52
  -5  -7  -1   17.73    1.35
  -5  -7  -1   14.91    1.42
   5   7   1   15.70    1.47
   5   7   1   16.50    1.35
   5   7   1   13.34    1.68
   5   7   1   14.40    1.28
  -6  -7  -1    1.22    0.70
  -6  -7  -1    0.41    0.54
  -6  -7  -1    0.20    0.47
   6   7   1    0.27    0.54
   6   7   1    1.47    0.79
   6   7   1    0.21    0.46
  -7  -7  -1    0.17    0.67
  -7  -7  -1    0.01    0.58
  -7  -7  -1   -0.62    0.58
   7   7   1   -0.44    0.53
   7   7   1    0.00    0.59
   7   7   1    0.48    0.80
   7   7   1    0.53    0.58
  -8  -7  -1   14.37    1.65
  -8  -7  -1   16.49    1.88
  -8  -7  -1   14.80    1.81
   8   7   1   12.52    1.71
   8   7   1   12.30    1.59
   8   7   1   11.22    1.47
   8   7   1   11.52    1.47
  -9  -7  -1   -0.45    0.84
  -9  -7  -1    0.30    0.91
   9   7   1    0.58    0.93
   9   7   1   -0.55    0.74
   9   7   1    0.01    0.88
 -10  -7  -1    0.12    1.09
  10   7   1    0.11    0.95
   4  -8  -1    2.79    1.30
   4  -8  -1    1.14    1.31
   3  -8  -1    3.20    1.25
   3  -8  -1    8.90    1.58
  -3   8   1    2.53    0.95
   2  -8  -1    1.89    0.95
   2  -8  -1    5.20    1.10
  -2   8   1    1.82    1.04
  -2   8   1    3.47    1.39
   1  -8  -1    5.25    1.13
   1  -8  -1    6.55    1.15
  -1   8   1    6.21    1.42
  -1   8   1   10.11    1.70
   0  -8  -1    1.10    0.66
   0  -8  -1    1.03    0.65
   0  -8  -1    1.89    0.86
   0   8   1    1.18    0.90
   0   8   1    0.81    0.89
  -1  -8  -1   48.41    3.19
  -1  -8  -1   42.92    2.81
  -1  -8  -1   46.54    2.97
   1   8   1   44.53    3.25
   1   8   1   43.47    3.22
   1   8   1   37.45    2.82
  -2  -8  -1    3.30    0.79
  -2  -8  -1    3.74    1.00
  -2  -8  -1    2.58    0.83
   2   8   1    2.76    0.80
   2   8   1    2.18    0.83
   2   8   1    2.22    0.90
  -3  -8  -1   14.97    1.74
  -3  -8  -1   14.20    1.58
  -3  -8  -1   10.89    1.30
   3   8   1   14.64    1.68
   3   8   1   12.53    1.75
  -4  -8  -1    2.27    0.82
  -4  -8  -1    2.76    0.77
  -4  -8  -1    1.65    0.72
   4   8   1    2.17    0.84
   4   8   1    0.97    0.57
   4   8   1    1.75    0.85
  -5  -8  -1   60.21    3.61
  -5  -8  -1   62.30    3.99
  -5  -8  -1   63.36    3.96
   5   8   1   73.38    4.21
   5   8   1   56.28    3.49
   5   8   1   66.37    4.16
  -6  -8  -1   -0.24    0.70
  -6  -8  -1   -0.25    0.62
  -6  -8  -1   -0.48    0.47
   6   8   1   -0.35    0.63
   6   8   1   -0.06    0.69
  -7  -8  -1    2.06    0.93
  -7  -8  -1    2.38    0.94
  -7  -8  -1    1.33    0.74
   7   8   1    1.29    0.86
   7   8   1    2.04    0.87
   7   8   1    1.99    0.76
  -8  -8  -1    0.39    0.72
  -8  -8  -1   -1.06    0.83
  -8  -8  -1   -0.13    0.79
   8   8   1   -0.67    0.58
   8   8   1   -0.72    0.83
   8   8   1   -0.85    0.72
  -9  -8  -1    1.37    1.16
  -9  -8  -1    1.77    1.00
  -9  -8  -1    1.14    1.06
   9   8   1    1.03    0.93
   9   8   1    0.68    0.97
   9   8   1    0.75    1.14
   2  -9  -1   -0.02    0.81
   2  -9  -1    0.23    0.85
  -2   9   1   -1.12    1.28
  -2   9   1    0.37    1.03
   1  -9  -1    5.24    1.22
   1  -9  -1    2.23    0.92
  -1   9   1    5.33    1.46
  -1   9   1    4.04    1.51
   0  -9  -1    3.37    0.97
   0  -9  -1    6.66    1.25
   0   9   1    6.06    1.40
   0   9   1    7.14    1.53
  -1  -9  -1    5.37    1.20
  -1  -9  -1    8.91    1.29
   1   9   1    6.40    1.24
   1   9   1    7.95    1.43
  -2  -9  -1    4.04    0.91
  -2  -9  -1    2.50    0.94
  -2  -9  -1    3.83    0.96
   2   9   1    3.68    1.10
   2   9   1    3.72    1.04
  -3  -9  -1   23.44    2.04
  -3  -9  -1   22.75    2.16
  -3  -9  -1   22.57    1.89
   3   9   1   27.45    2.25
   3   9   1   25.30    2.33
  -4  -9  -1    2.73    0.94
  -4  -9  -1    2.13    0.83
  -4  -9  -1    3.19    1.05
   4   9   1    2.62    1.01
   4   9   1    2.47    1.03
  -5  -9  -1    1.20    0.71
  -5  -9  -1    2.43    0.95
  -5  -9  -1    1.30    0.79
   5   9   1    1.42    0.87
   5   9   1    1.52    0.92
  -6  -9  -1    0.37    0.72
  -6  -9  -1    0.88    0.84
   6   9   1    0.19    0.73
   6   9   1    0.54    0.86
  -7  -9  -1   12.05    1.74
  -7  -9  -1    9.55    1.63
   7   9   1   12.72    1.84
   7   9   1    9.10    1.47
  -8  -9  -1   -0.24    0.83
  -8  -9  -1    1.04    1.10
   8   9   1    0.30    0.92
   8   9   1    0.39    0.94
  -9  -9  -1    8.72    1.66
  -9  -9  -1    6.75    1.55
   9   9   1    1.95    1.22
   9   9   1    5.70    1.50
   1 -10  -1    2.43    1.06
  -1  10   1    3.99    1.55
  -1  10   1    5.31    1.73
   0  10   1    7.04    1.55
   0  10   1   10.29    2.00
  -1 -10  -1    1.70    0.75
   1  10   1    2.08    0.81
   1  10   1    5.64    1.44
  -2 -10  -1    0.65    0.81
   2  10   1   -0.14    0.60
  -3 -10  -1    9.03    1.40
   3  10   1   17.10    2.03
  -4 -10  -1    1.66    0.96
  -4 -10  -1    0.69    0.79
   4  10   1    2.11    1.10
   4  10   1    2.09    1.03
  -5 -10  -1    3.64    1.19
  -5 -10  -1    3.46    1.07
   5  10   1    2.81    1.18
   5  10   1    2.50    1.14
  -6 -10  -1    0.24    0.80
  -6 -10  -1    0.92    1.00
   6  10   1    0.59    0.99
   6  10   1    0.36    0.94
  -7 -10  -1    1.43    1.00
  -7 -10  -1    1.27    0.98
   7  10   1    0.43    1.04
   7  10   1    1.10    1.04
  -8 -10  -1    0.05    1.07
  -8 -10  -1   -0.07    1.12
   8  10   1   -0.27    1.06
   8  10   1   -0.18    1.00
  -1 -11  -1    1.27    0.81
   1  11   1    1.14    1.19
  -2 -11  -1    0.24    0.64
   2  11   1    0.21    1.05
   3  11   1   16.65    2.23
   3  11   1    8.33    1.84
  -4 -11  -1    1.60    0.87
   4  11   1    4.05    1.48
   4  11   1    3.19    1.25
  -5 -11  -1    0.62    0.84
   5  11   1    0.09    1.12
   5  11   1    1.78    1.18
  -6 -11  -1    0.29    1.08
  -6 -11  -1    0.15    0.83
   6  11   1    0.39    1.23
   6  11   1    0.97    1.11
  -7 -11  -1    5.24    1.40
  -7 -11  -1    4.14    1.43
   7  11   1    1.89    1.27
   4  12   1    1.56    1.35
   4  12   1    0.78    1.08
   5  12   1    0.16    1.26
   5  12   1    1.12    1.45
  -6 -11   2    0.93    1.30
   5  11  -2   -0.11    1.08
   5  11  -2    0.54    1.25
  -5 -11   2   -0.27    1.04
  -5 -11   2    0.33    0.94
   4  11  -2    3.27    1.34
   4  11  -2    1.64    1.37
  -4 -11   2    2.13    1.18
  -4 -11   2    1.97    1.06
   3  11  -2    0.17    0.91
   3  11  -2    0.94    1.20
  -3 -11   2    0.04    0.95
  -3 -11   2   -0.06    1.20
   2  11  -2   16.67    2.29
  -2 -11   2   11.32    1.82
  -2 -11   2    8.44    1.75
   1  11  -2    1.44    1.23
  -1 -11   2    0.82    1.32
  -1 -11   2    0.73    1.23
   7  10  -2    1.05    1.32
   7  10  -2    1.43    1.23
  -7 -10   2    1.41    1.23
  -7 -10   2    0.63    0.73
   6  10  -2    0.70    1.16
   6  10  -2    0.46    1.01
  -6 -10   2    0.01    0.91
  -6 -10   2   -0.10    0.75
   5  10  -2    1.43    0.99
   5  10  -2    1.44    1.05
   5  10  -2    2.59    1.13
  -5 -10   2    0.71    0.92
  -5 -10   2    1.14    0.92
   4  10  -2    1.29    1.07
   4  10  -2    1.99    1.02
  -4 -10   2    0.72    0.81
  -4 -10   2    2.87    1.13
   3  10  -2    3.68    1.22
   3  10  -2    4.90    1.25
  -3 -10   2    3.24    1.16
  -3 -10   2    3.28    1.12
   2  10  -2    3.45    1.20
   2  10  -2    1.78    0.81
  -2 -10   2    4.01    1.00
  -2 -10   2    1.90    1.11
   1  10  -2    1.35    1.06
  -1 -10   2    3.00    1.21
  -1 -10   2    1.74    1.12
   0 -10   2   11.90    1.82
   0 -10   2   10.33    1.91
  -1  10  -2    0.32    1.17
  -1  10  -2    0.59    1.16
   1 -10   2    0.39    1.32
   1 -10   2   -0.26    0.95
   8   9  -2    1.00    1.34
   8   9  -2   -0.26    1.07
   8   9  -2    1.40    1.01
  -8  -9   2   -0.11    0.65
  -8  -9   2    1.57    1.15
  -8  -9   2   -1.05    0.91
   7   9  -2    2.91    1.37
   7   9  -2    2.60    1.14
  -7  -9   2    2.02    1.10
  -7  -9   2    1.63    1.04
  -7  -9   2    0.99    0.74
   6   9  -2    0.02    0.92
   6   9  -2   -0.20    0.89
  -6  -9   2    0.70    0.88
  -6  -9   2    0.30    0.65
   5   9  -2    2.06    0.91
   5   9  -2    2.87    1.10
   5   9  -2    3.58    1.21
  -5  -9   2    2.60    1.05
  -5  -9   2    1.12    0.82
   4   9  -2   24.06    2.16
   4   9  -2   23.31    1.88
   4   9  -2   23.42    2.54
  -4  -9   2   22.95    2.10
  -4  -9   2   16.91    1.92
  -4  -9   2   18.55    2.07
   3   9  -2    8.62    1.23
   3   9  -2    8.23    1.38
   3   9  -2    8.26    1.50
  -3  -9   2    7.02    1.17
  -3  -9   2    7.49    1.34
  -3  -9   2    7.75    1.49
   2   9  -2   -0.45    0.71
   2   9  -2   -0.06    0.82
  -2  -9   2    0.43    0.80
  -2  -9   2    1.51    0.42
   1   9  -2    1.32    0.78
   1   9  -2    2.26    1.00
  -1  -9   2    2.38    0.90
  -1  -9   2    3.21    1.18
   0   9  -2   22.74    2.56
   0  -9   2   22.43    2.28
   0  -9   2   20.21    2.44
  -1   9  -2    1.05    1.21
  -1   9  -2    1.40    1.11
   1  -9   2    0.59    1.07
   1  -9   2    2.11    0.98
  -2   9  -2    2.04    1.25
  -2   9  -2    0.93    1.17
   2  -9   2    0.42    1.16
   2  -9   2   -0.14    0.87
  -3   9  -2    0.38    1.08
   3  -9   2   -0.28    1.42
   3  -9   2   -0.41    1.05
   8   8  -2   -0.09    1.17
   8   8  -2   -0.50    0.88
   8   8  -2   -0.29    0.77
  -8  -8   2    0.70    0.89
  -8  -8   2    0.21    0.75
  -8  -8   2   -0.28    1.00
   7   8  -2    0.31    0.62
   7   8  -2    1.22    1.04
  -7  -8   2    0.78    0.69
  -7  -8   2    0.19    0.77
  -7  -8   2    1.10    0.81
   6   8  -2    1.91    0.95
   6   8  -2    3.17    0.95
  -6  -8   2    2.25    0.94
  -6  -8   2    2.06    0.86
  -6  -8   2    1.57    0.75
   5   8  -2   19.83    2.09
   5   8  -2   16.49    1.97
   5   8  -2   13.00    1.61
  -5  -8   2   17.89    1.84
  -5  -8   2   16.96    1.80
  -5  -8   2   15.99    1.83
   4   8  -2    1.94    0.84
   4   8  -2    3.34    0.88
   4   8  -2    1.42    0.86
  -4  -8   2    1.71    0.80
  -4  -8   2    1.73    0.76
  -4  -8   2    1.79    0.84
   3   8  -2    9.54    1.22
   3   8  -2   10.15    1.40
   3   8  -2    8.76    1.47
  -3  -8   2    6.93    1.12
  -3  -8   2    7.45    1.37
  -3  -8   2    6.89    1.17
   2   8  -2   16.18    1.79
   2   8  -2   14.78    1.51
   2   8  -2   17.66    2.05
  -2  -8   2   17.91    2.01
  -2  -8   2   11.03    1.37
   1   8  -2   14.58    1.79
   1   8  -2   15.46    1.67
   1   8  -2   12.00    1.71
  -1  -8   2   14.98    1.70
  -1  -8   2   10.93    1.68
   0   8  -2    7.83    1.45
   0   8  -2    8.94    1.53
   0  -8   2    8.29    1.34
   0  -8   2   10.15    1.56
  -1   8  -2    3.18    1.12
  -1   8  -2    2.37    1.09
   1  -8   2    3.40    0.99
   1  -8   2    1.23    0.91
  -2   8  -2    4.05    1.39
  -2   8  -2    2.96    1.25
   2  -8   2    5.51    1.40
   2  -8   2    3.65    1.09
  -3   8  -2    0.37    1.07
  -3   8  -2    0.45    0.83
   3  -8   2   -0.65    0.74
   3  -8   2    0.16    1.12
  -4   8  -2    3.77    1.48
   4  -8   2    5.69    1.47
   4  -8   2    2.47    1.44
   9   7  -2    0.59    0.99
   9   7  -2   -0.89    0.91
  -9  -7   2    0.26    0.92
  -9  -7   2   -0.83    0.90
  -9  -7   2   -0.30    0.99
   8   7  -2    0.64    0.99
   8   7  -2   -0.23    0.68
   8   7  -2    0.63    0.79
  -8  -7   2    0.45    0.89
  -8  -7   2   -0.30    0.79
  -8  -7   2    0.30    0.63
   7   7  -2    0.35    0.75
   7   7  -2    1.09    0.68
   7   7  -2    0.47    0.87
  -7  -7   2    1.37    0.85
  -7  -7   2    0.19    0.62
  -7  -7   2    0.43    0.76
   6   7  -2    0.09    0.60
   6   7  -2   -0.17    0.70
  -6  -7   2    0.81    0.67
  -6  -7   2    0.45    0.63
  -6  -7   2    0.40    0.58
   5   7  -2   30.48    2.43
   5   7  -2   29.23    2.13
   5   7  -2   29.68    2.35
  -5  -7   2   32.17    2.19
  -5  -7   2   28.86    2.25
  -5  -7   2   29.99    2.22
   4   7  -2    7.64    1.11
   4   7  -2   10.23    1.43
   4   7  -2    9.16    1.37
  -4  -7   2   12.24    1.34
  -4  -7   2   10.09    1.27
  -4  -7   2    8.04    1.20
  -4  -7   2    9.35    1.32
   3   7  -2    7.37    1.06
   3   7  -2    9.68    1.43
   3   7  -2   10.19    1.36
  -3  -7   2    9.84    1.35
  -3  -7   2   11.66    1.35
  -3  -7   2   11.61    1.32
  -3  -7   2    9.80    1.14
   2   7  -2   14.99    1.44
   2   7  -2   15.18    1.68
   2   7  -2   16.75    1.90
  -2  -7   2   16.85    1.43
  -2  -7   2   20.76    2.01
   1   7  -2   37.16    2.67
   1   7  -2   35.28    2.70
   1   7  -2   37.32    2.49
  -1  -7   2   34.93    2.20
  -1  -7   2   36.23    2.44
  -1  -7   2   34.88    2.56
   0   7  -2    9.73    1.27
   0   7  -2   11.37    1.60
   0   7  -2   13.04    1.73
   0  -7   2   15.53    1.79
   0  -7   2   10.99    1.21
   0  -7   2   15.32    1.63
  -1   7  -2    0.22    0.76
  -1   7  -2    0.23    0.78
   1  -7   2    2.02    0.86
   1  -7   2    0.73    0.64
  -2   7  -2    6.96    1.42
  -2   7  -2    4.21    1.25
   2  -7   2    6.68    1.21
   2  -7   2    4.56    1.17
  -3   7  -2    2.91    1.01
  -3   7  -2    5.65    1.42
   3  -7   2    4.32    1.28
   3  -7   2    4.44    1.12
  -4   7  -2    0.85    1.00
   4  -7   2    0.98    1.18
   4  -7   2    2.15    1.03
  -5   7  -2    0.19    1.17
   5  -7   2   -0.63    1.38
   5  -7   2    1.31    1.13
   9   6  -2    0.23    0.97
   9   6  -2    0.88    0.92
  -9  -6   2    0.72    0.91
  -9  -6   2   -0.28    0.90
   8   6  -2   -0.12    0.72
   8   6  -2    0.89    0.79
  -8  -6   2    2.35    0.95
  -8  -6   2    2.04    0.93
  -8  -6   2    1.29    0.89
   7   6  -2   -0.60    0.75
   7   6  -2   -0.18    0.57
   7   6  -2    0.15    0.63
  -7  -6   2   -0.08    0.66
  -7  -6   2   -0.31    0.65
  -7  -6   2    0.31    0.63
   6   6  -2    0.51    0.71
   6   6  -2    0.69    0.51
  -6  -6   2    0.91    0.60
  -6  -6   2    0.83    0.65
  -6  -6   2    0.14    0.60
   5   6  -2   19.78    1.60
   5   6  -2   22.32    1.87
  -5  -6   2   20.58    1.63
  -5  -6   2   16.82    1.51
  -5  -6   2   18.78    1.68
   4   6  -2    3.40    0.84
   4   6  -2    4.42    0.79
   4   6  -2    6.70    1.08
  -4  -6   2    4.16    0.75
  -4  -6   2    4.50    0.87
  -4  -6   2    5.35    0.86
  -4  -6   2    5.14    0.93
   3   6  -2   11.81    1.44
   3   6  -2   12.23    1.26
   3   6  -2   11.91    1.44
  -3  -6   2   13.60    1.36
  -3  -6   2   16.38    1.21
  -3  -6   2   13.60    1.25
  -3  -6   2   13.87    1.13
   2   6  -2   31.90    2.38
   2   6  -2   33.66    2.30
   2   6  -2   33.36    2.28
   2   6  -2   31.65    2.01
  -2  -6   2   34.47    2.08
  -2  -6   2   32.81    2.16
  -2  -6   2   35.15    2.11
  -2  -6   2   31.06    2.25
   1   6  -2   31.48    2.42
   1   6  -2   34.46    2.46
   1   6  -2   39.13    2.36
  -1  -6   2   38.85    2.31
  -1  -6   2   33.80    2.12
  -1  -6   2   31.73    2.05
  -1  -6   2   31.42    2.31
   0   6  -2    1.22    0.64
   0   6  -2    1.12    0.58
   0   6  -2    1.14    0.51
   0  -6   2    1.01    0.57
   0  -6   2    0.22    0.38
   0  -6   2    0.67    0.55
  -1   6  -2    2.29    0.69
  -1   6  -2    2.68    0.89
  -1   6  -2    3.09    0.90
   1  -6   2    3.79    0.93
   1  -6   2    3.29    0.79
   1  -6   2    3.36    0.69
  -2   6  -2   59.08    4.28
  -2   6  -2   60.96    4.04
   2  -6   2   63.53    3.96
   2  -6   2   60.31    3.72
  -3   6  -2   23.48    2.11
  -3   6  -2   15.93    2.12
   3  -6   2   18.91    2.02
   3  -6   2   18.41    2.11
  -4   6  -2    3.48    1.10
  -4   6  -2    1.86    0.82
   4  -6   2    3.82    1.23
   4  -6   2    3.66    1.06
  -5   6  -2    0.52    1.03
  -5   6  -2   -0.67    0.88
   5  -6   2    1.07    1.23
   5  -6   2   -1.39    0.70
  -6   6  -2    0.99    1.16
  -6   6  -2    1.92    1.44
   6  -6   2    1.14    1.17
   9   5  -2    1.18    0.98
   9   5  -2   -0.41    0.82
  -9  -5   2    0.43    0.90
  -9  -5   2    0.71    1.06
   8   5  -2    1.71    0.79
   8   5  -2    1.63    0.85
   8   5  -2    0.98    0.82
  -8  -5   2    0.70    0.77
  -8  -5   2    1.61    0.86
  -8  -5   2   -0.16    0.70
   7   5  -2    7.04    1.23
   7   5  -2    7.48    1.14
   7   5  -2    7.85    1.08
   7   5  -2    6.41    1.09
  -7  -5   2    7.44    1.20
  -7  -5   2    8.05    1.26
  -7  -5   2    6.20    1.18
   6   5  -2    6.69    0.93
   6   5  -2    7.90    1.07
   6   5  -2    7.11    1.19
   6   5  -2    7.85    1.11
  -6  -5   2    8.16    1.16
  -6  -5   2    9.50    1.29
  -6  -5   2    7.51    1.09
   5   5  -2   24.14    1.59
   5   5  -2   23.08    1.67
   5   5  -2   23.44    1.89
  -5  -5   2   23.15    1.74
  -5  -5   2   24.60    1.85
  -5  -5   2   20.25    1.63
   4   5  -2   -0.50    0.32
   4   5  -2    0.75    0.52
   4   5  -2    0.33    0.41
   4   5  -2    0.18    0.30
  -4  -5   2    0.50    0.40
  -4  -5   2    0.94    0.43
  -4  -5   2    0.67    0.38
  -4  -5   2    0.25    0.42
   3   5  -2   55.77    3.10
   3   5  -2   58.95    3.02
   3   5  -2   60.12    3.51
   3   5  -2   56.73    3.49
  -3  -5   2   55.33    3.10
  -3  -5   2   55.70    3.39
  -3  -5   2   58.34    3.22
   2   5  -2    6.81    0.93
   2   5  -2    6.55    0.78
   2   5  -2    6.12    0.91
   2   5  -2    5.17    0.61
  -2  -5   2    6.16    0.81
  -2  -5   2    6.06    0.84
  -2  -5   2    5.12    0.76
  -2  -5   2    4.92    0.67
   1   5  -2    6.00    0.83
   1   5  -2    4.84    0.47
   1   5  -2    5.08    1.71
   1   5  -2    6.88    0.96
  -1  -5   2    7.96    0.78
  -1  -5   2    8.60    1.02
  -1  -5   2    6.56    0.85
  -1  -5   2    6.36    0.81
   0   5  -2   23.98    1.77
   0   5  -2   26.97    5.08
   0   5  -2   21.38    1.58
   0  -5   2   22.20    1.63
   0  -5   2   21.81    1.70
   0  -5   2   22.46    1.47
   0  -5   2   24.01    1.48
  -1   5  -2   84.70    5.30
  -1   5  -2   82.29    4.58
  -1   5  -2   82.14    4.85
  -1   5  -2   81.93    4.96
   1  -5   2   83.44    4.65
   1  -5   2   91.50    4.30
   1  -5   2   85.37    4.91
   1  -5   2   82.37    4.62
  -2   5  -2   14.88    1.47
  -2   5  -2   13.88    1.32
  -2   5  -2   16.27    1.89
   2  -5   2   16.56    1.48
   2  -5   2   16.68    1.20
   2  -5   2   15.76    1.62
  -3   5  -2    3.71    1.12
  -3   5  -2    4.43    0.93
  -3   5  -2    2.85    0.85
   3  -5   2    2.54    0.64
   3  -5   2    2.47    0.80
   3  -5   2    4.14    0.97
  -4   5  -2   20.57    1.95
  -4   5  -2   22.06    2.29
   4  -5   2   22.38    2.04
   4  -5   2   22.48    1.96
  -5   5  -2    5.85    1.32
  -5   5  -2   10.86    1.65
   5  -5   2    9.62    1.47
   5  -5   2    9.60    1.60
  -6   5  -2    7.90    1.72
  -6   5  -2    7.37    1.59
   6  -5   2   12.58    2.00
   6  -5   2   10.64    1.73
   9   4  -2   -0.24    0.83
   9   4  -2   -0.64    0.70
  -9  -4   2    0.75    1.03
  -9  -4   2   -0.41    0.92
   8   4  -2    1.94    0.91
   8   4  -2    1.94    0.80
   8   4  -2    1.67    0.79
  -8  -4   2    2.21    0.91
  -8  -4   2    1.13    0.83
   7   4  -2    7.51    1.11
   7   4  -2    8.12    1.20
   7   4  -2    6.94    1.07
  -7  -4   2    7.88    1.30
  -7  -4   2    9.07    1.42
  -7  -4   2    6.95    1.15
   6   4  -2    0.09    0.43
   6   4  -2    0.69    0.46
   6   4  -2    0.44    0.49
   6   4  -2    0.27    0.58
  -6  -4   2    0.72    0.59
  -6  -4   2    0.89    0.75
  -6  -4   2    0.62    0.59
  -6  -4   2   -0.02    0.48
   5   4  -2   -0.29    0.37
   5   4  -2    0.48    0.35
   5   4  -2    0.09    0.35
   5   4  -2    0.04    0.42
  -5  -4   2    0.42    0.49
  -5  -4   2   -0.21    0.48
  -5  -4   2    0.20    0.41
  -5  -4   2    0.90    0.49
   4   4  -2   -0.07    0.27
   4   4  -2    0.26    0.40
   4   4  -2    0.01    0.31
   4   4  -2   -0.15    0.31
  -4  -4   2    0.16    0.41
  -4  -4   2    0.16    0.36
  -4  -4   2    0.00    0.30
  -4  -4   2   -0.25    0.29
   3   4  -2   72.19    3.79
   3   4  -2   75.56    3.84
   3   4  -2   68.41    4.18
   3   4  -2   73.03    4.22
  -3  -4   2   74.61    4.10
  -3  -4   2   72.94    4.15
  -3  -4   2   79.84    3.84
  -3  -4   2   77.15    3.94
  -3  -4   2   72.95    4.18
   2   4  -2    9.71    0.60
   2   4  -2    8.75    0.91
   2   4  -2    9.05    0.85
   2   4  -2    8.08    0.70
  -2  -4   2    9.71    0.81
  -2  -4   2    9.39    0.73
  -2  -4   2    8.44    0.80
  -2  -4   2    9.59    0.95
   1   4  -2   40.88    2.57
   1   4  -2   45.93    2.55
   1   4  -2   40.77    2.60
   1   4  -2   38.52    2.11
  -1  -4   2   45.28    2.51
  -1  -4   2   42.99    2.34
  -1  -4   2   40.98    2.28
  -1  -4   2   41.22    2.39
   0   4  -2    0.31    0.33
   0   4  -2    0.60    0.36
   0   4  -2    0.12    0.27
   0   4  -2    0.65    0.25
   0  -4   2    0.20    0.32
   0  -4   2    0.64    0.35
   0  -4   2    0.31    0.15
   0  -4   2    0.28    0.27
   0  -4   2    0.87    0.27
  -1   4  -2   31.29    2.16
  -1   4  -2   33.26    1.98
  -1   4  -2   31.24    2.04
  -1   4  -2   28.02    2.26
   1  -4   2   31.40    1.82
   1  -4   2   34.77    2.19
   1  -4   2   33.30    2.10
   1  -4   2   33.68    2.00
   1  -4   2   35.55    1.97
   1  -4   2   33.93    1.90
  -2   4  -2    8.03    1.07
  -2   4  -2    8.16    1.19
  -2   4  -2    7.18    0.81
  -2   4  -2    7.83    0.97
  -2   4  -2    8.42    0.88
   2  -4   2    7.40    1.04
   2  -4   2    7.35    0.93
   2  -4   2    7.82    0.83
   2  -4   2    8.66    0.91
   2  -4   2    7.43    0.86
   2  -4   2    9.47    1.19
  -3   4  -2    0.30    0.51
  -3   4  -2    0.42    0.44
  -3   4  -2   -0.08    0.36
  -3   4  -2    0.15    0.48
   3  -4   2    0.73    0.46
   3  -4   2    1.21    0.56
   3  -4   2    0.05    0.50
   3  -4   2    0.68    0.44
   3  -4   2    0.26    0.43
  -4   4  -2    8.37    1.27
  -4   4  -2    9.20    1.54
  -4   4  -2    7.07    1.16
   4  -4   2    6.50    0.93
   4  -4   2    7.32    1.15
   4  -4   2    8.53    1.28
   4  -4   2    4.42    0.89
  -5   4  -2    3.43    1.08
  -5   4  -2    2.36    1.12
   5  -4   2    2.07    0.85
   5  -4   2    2.29    0.80
   5  -4   2    4.45    1.13
  -6   4  -2   -0.43    0.96
  -6   4  -2   -0.50    0.83
   6  -4   2   -0.02    1.64
   6  -4   2   -0.03    0.73
   6  -4   2    1.88    1.08
  -7   4  -2   -0.38    0.89
  -7   4  -2   -0.66    1.17
   7  -4   2    0.29    0.99
   9   3  -2   -0.03    0.86
   9   3  -2   -0.23    0.58
   9   3  -2    0.65    0.85
  -9  -3   2    0.37    1.38
  -9  -3   2    1.38    2.46
  -9  -3   2   -0.11    0.98
   8   3  -2    6.18    1.15
   8   3  -2    7.98    1.33
   8   3  -2    5.89    1.15
  -8  -3   2    6.64    1.28
  -8  -3   2    5.39    1.25
  -8  -3   2    7.62    1.79
   7   3  -2    2.31    0.70
   7   3  -2    2.86    0.80
   7   3  -2    4.62    0.97
  -7  -3   2    3.16    1.01
  -7  -3   2    4.95    1.11
  -7  -3   2    2.95    1.21
   6   3  -2   18.63    1.56
   6   3  -2   20.98    1.62
   6   3  -2   18.15    1.50
   6   3  -2   18.41    1.41
  -6  -3   2   19.58    1.87
  -6  -3   2   17.21    1.53
  -6  -3   2   21.05    1.68
  -6  -3   2   18.98    1.64
   5   3  -2   23.70    1.59
   5   3  -2   24.21    1.63
   5   3  -2   24.27    1.57
   5   3  -2   24.38    1.72
  -5  -3   2   18.59    1.55
  -5  -3   2   21.97    1.70
  -5  -3   2   23.89    1.75
   4   3  -2    0.27    0.34
   4   3  -2    0.41    0.28
   4   3  -2    0.11    0.27
   4   3  -2    0.04    0.29
   4   3  -2    0.64    0.35
  -4  -3   2   -0.06    0.30
  -4  -3   2   -0.13    0.25
  -4  -3   2    0.19    0.36
  -4  -3   2    0.48    0.41
   3   3  -2   56.57    3.07
   3   3  -2   60.81    3.17
   3   3  -2   59.39    3.43
   3   3  -2   60.68    3.37
  -3  -3   2   64.41    3.14
  -3  -3   2   56.83    3.46
  -3  -3   2   60.04    3.21
  -3  -3   2   58.99    3.42
  -3  -3   2   61.53    3.37
   2   3  -2   28.01    1.58
   2   3  -2   27.54    1.59
   2   3  -2   26.91    1.45
   2   3  -2   29.18    1.70
   2   3  -2   26.08    1.74
  -2  -3   2   24.92    1.54
  -2  -3   2   26.66    1.59
  -2  -3   2   24.28    1.64
  -2  -3   2   26.66    1.56
   1   3  -2   53.05    3.27
   1   3  -2   53.56    3.11
   1   3  -2   58.08    3.21
   1   3  -2   57.82    2.79
  -1  -3   2   57.45    3.14
  -1  -3   2   47.26    2.82
  -1  -3   2   58.49    2.99
  -1  -3   2   60.16    2.80
  -1  -3   2   56.98    3.01
   0   3  -2    2.87    0.46
   0   3  -2    3.82    0.54
   0   3  -2    2.35    0.44
   0   3  -2    3.21    0.31
   0  -3   2    3.34    0.31
   0  -3   2    3.00    0.48
   0  -3   2    3.92    0.54
   0  -3   2    3.12    0.51
   0  -3   2    2.39    0.22
   0  -3   2    2.90    0.23
   0  -3   2    5.17    0.61
  -1   3  -2  346.27   19.51
  -1   3  -2  374.49   20.32
  -1   3  -2  389.74   19.06
   1  -3   2  366.32   17.86
   1  -3   2  345.61   18.57
   1  -3   2  362.63   16.66
   1  -3   2  365.84   18.06
   1  -3   2  360.25   18.84
   1  -3   2  365.53   17.73
  -2   3  -2    8.35    1.06
  -2   3  -2    6.32    0.58
  -2   3  -2    5.17    0.59
  -2   3  -2    5.39    0.76
  -2   3  -2    6.37    0.79
   2  -3   2    6.31    0.65
   2  -3   2    5.20    0.79
   2  -3   2    6.90    0.70
   2  -3   2    5.88    0.63
   2  -3   2    4.28    0.59
   2  -3   2    5.90    0.84
  -3   3  -2    0.50    0.34
  -3   3  -2    2.24    0.48
  -3   3  -2    1.70    0.37
  -3   3  -2    1.73    0.55
  -3   3  -2    1.57    0.61
   3  -3   2    1.57    0.43
   3  -3   2    2.75    0.42
   3  -3   2    1.82    0.55
   3  -3   2    2.45    0.58
   3  -3   2    1.69    0.47
  -4   3  -2    6.26    0.96
  -4   3  -2    5.72    0.82
  -4   3  -2    6.56    1.09
  -4   3  -2    5.25    1.16
   4  -3   2    7.32    1.04
   4  -3   2    6.72    0.94
   4  -3   2    4.86    0.90
   4  -3   2    5.25    0.76
  -5   3  -2   21.36    1.69
  -5   3  -2   21.31    2.48
  -5   3  -2   20.81    1.88
   5  -3   2   18.15    1.74
   5  -3   2   24.97    1.89
   5  -3   2   22.75    1.82
   5  -3   2   20.20    1.50
  -6   3  -2   -0.46    0.89
  -6   3  -2    1.85    0.89
   6  -3   2    0.53    0.72
   6  -3   2    0.82    1.15
   6  -3   2    0.77    0.72
  -7   3  -2   -0.46    1.01
  -7   3  -2    0.11    0.84
   7  -3   2   -0.34    0.86
   7  -3   2    0.29    1.00
  -8   3  -2    0.30    1.41
  -8   3  -2    0.15    0.91
   8  -3   2    0.17    1.04
   9   2  -2    0.46    0.68
   9   2  -2    1.06    0.96
   9   2  -2   -0.13    0.81
  -9  -2   2   -0.68    0.79
  -9  -2   2   -0.05    1.09
  -9  -2   2    2.20    1.83
   8   2  -2    2.10    0.90
   8   2  -2    1.60    0.77
   8   2  -2    0.82    0.61
  -8  -2   2    0.73    0.85
  -8  -2   2    1.28    0.96
  -8  -2   2    0.81    1.22
   7   2  -2   -0.01    0.57
   7   2  -2   -0.75    0.46
   7   2  -2    0.75    0.56
  -7  -2   2    0.99    0.71
  -7  -2   2   -0.36    0.62
  -7  -2   2   -0.64    0.78
   6   2  -2    0.11    0.41
   6   2  -2   -0.04    0.47
   6   2  -2    0.75    0.55
  -6  -2   2    0.87    0.70
  -6  -2   2    2.48    0.81
  -6  -2   2    1.71    0.67
   5   2  -2   31.48    1.85
   5   2  -2   29.28    1.93
   5   2  -2   28.75    1.90
   5   2  -2   25.74    1.89
  -5  -2   2   29.66    2.05
  -5  -2   2   30.81    2.29
  -5  -2   2   32.32    2.00
  -5  -2   2   28.54    2.05
   4   2  -2   62.75    3.21
   4   2  -2   58.72    3.40
   4   2  -2   59.59    3.46
   4   2  -2   67.00    3.42
  -4  -2   2   67.33    3.63
  -4  -2   2   61.76    3.61
  -4  -2   2   66.52    3.42
  -4  -2   2   56.91    3.59
  -4  -2   2   63.34    3.84
   3   2  -2   -0.17    0.24
   3   2  -2   -0.05    0.22
   3   2  -2    0.30    0.20
   3   2  -2    0.09    0.24
  -3  -2   2   -0.10    0.24
  -3  -2   2    0.06    0.14
  -3  -2   2    0.42    0.31
  -3  -2   2    0.26    0.26
  -3  -2   2    0.27    0.26
   2   2  -2  138.65    8.39
   2   2  -2  144.44    7.76
   2   2  -2  151.38    7.98
   2   2  -2  160.16    7.56
   2   2  -2  148.42    7.10
  -2  -2   2  156.95    7.49
  -2  -2   2  164.27    8.42
  -2  -2   2  152.91    7.89
  -2  -2   2  153.71    7.12
  -2  -2   2  142.69    8.26
  -2  -2   2  154.34    7.97
   1   2  -2   62.14    3.20
   1   2  -2   59.14    3.24
   1   2  -2   57.14    3.36
  -1  -2   2   60.73    3.20
  -1  -2   2   56.80    2.91
  -1  -2   2   58.22    3.12
  -1  -2   2   55.74    3.17
  -1  -2   2   61.80    3.04
   0   2  -2  112.43    6.23
   0   2  -2  116.11    5.96
   0   2  -2  121.06    6.61
   0  -2   2  116.60    5.54
   0  -2   2  116.78    5.97
   0  -2   2  118.54    5.83
  -1   2  -2    0.26    0.20
  -1   2  -2    0.23    0.19
  -1   2  -2    0.02    0.21
  -1   2  -2    0.08    0.13
   1  -2   2    0.21    0.18
   1  -2   2    0.05    0.23
   1  -2   2    0.35    0.32
   1  -2   2   -0.13    0.18
   1  -2   2    0.01    0.12
   1  -2   2    1.18    0.20
  -2   2  -2   78.52    4.50
  -2   2  -2   82.32    4.90
  -2   2  -2   80.88    4.34
  -2   2  -2   82.93    4.66
   2  -2   2   82.27    3.98
   2  -2   2   87.81    4.33
   2  -2   2   81.12    4.23
   2  -2   2   82.52    4.24
  -3   2  -2   42.05    2.47
  -3   2  -2   39.97    2.53
  -3   2  -2   45.60    2.92
  -3   2  -2   42.28    2.70
   3  -2   2   43.50    2.56
   3  -2   2   44.12    2.47
   3  -2   2   41.62    2.27
   3  -2   2   43.71    2.33
   3  -2   2   44.84    2.52
  -4   2  -2    7.82    1.18
  -4   2  -2    8.45    0.93
  -4   2  -2    7.77    0.90
  -4   2  -2    7.02    1.06
   4  -2   2    8.25    0.87
   4  -2   2    5.89    0.86
   4  -2   2    7.43    0.92
   4  -2   2    7.22    0.96
  -5   2  -2   18.62    1.45
  -5   2  -2   15.67    1.55
  -5   2  -2   17.44    1.78
   5  -2   2   17.46    3.99
   5  -2   2   16.45    1.27
   5  -2   2   18.65    1.50
   5  -2   2   12.70    1.45
  -6   2  -2    5.93    1.05
  -6   2  -2    6.13    1.42
  -6   2  -2    7.15    1.27
   6  -2   2    5.55    1.05
   6  -2   2    4.87    0.90
   6  -2   2    6.71    1.19
   6  -2   2    2.85    0.85
  -7   2  -2    2.54    0.92
  -7   2  -2    2.91    0.96
  -7   2  -2    1.92    1.17
   7  -2   2    4.13    1.08
   7  -2   2    3.23    1.09
   7  -2   2    2.62    1.05
   7  -2   2    2.57    0.80
  -8   2  -2    0.26    0.73
  -8   2  -2   -0.12    1.34
   8  -2   2   -0.06    0.87
   9   1  -2    0.39    0.78
  -9  -1   2    1.25    1.23
  -9  -1   2    1.27    1.53
   8   1  -2    3.15    0.89
   8   1  -2    1.95    0.79
   8   1  -2    3.68    1.05
  -8  -1   2    5.60    1.33
  -8  -1   2    2.97    1.12
  -8  -1   2    5.58    1.73
   7   1  -2    1.92    0.74
   7   1  -2    2.58    0.77
   7   1  -2    3.47    0.90
   7   1  -2    1.64    0.77
  -7  -1   2    3.09    1.20
  -7  -1   2    2.68    0.93
  -7  -1   2    2.70    0.93
   6   1  -2    4.38    0.92
   6   1  -2    3.77    0.83
   6   1  -2    3.60    0.86
   6   1  -2    4.34    0.77
  -6  -1   2    4.29    0.94
  -6  -1   2    3.33    1.41
  -6  -1   2    3.21    1.06
   5   1  -2    6.68    0.95
   5   1  -2    7.76    0.89
   5   1  -2    9.04    1.06
  -5  -1   2    7.49    1.27
  -5  -1   2    9.55    1.15
  -5  -1   2    6.72    1.03
   4   1  -2   30.26    1.73
   4   1  -2   29.85    1.67
   4   1  -2   28.64    1.80
   4   1  -2   27.18    2.15
  -4  -1   2   28.69    1.92
  -4  -1   2   27.88    1.81
  -4  -1   2   27.31    2.07
  -4  -1   2   28.74    1.88
  -4  -1   2   26.06    1.87
   3   1  -2   32.83    1.85
   3   1  -2   29.04    1.67
   3   1  -2   29.99    1.70
   3   1  -2   32.12    1.84
   3   1  -2   34.11    1.82
  -3  -1   2   30.59    1.91
  -3  -1   2   29.95    1.90
  -3  -1   2   30.57    2.07
  -3  -1   2   28.94    1.90
  -3  -1   2   30.10    1.80
   2   1  -2   58.20    2.97
   2   1  -2   59.29    2.78
   2   1  -2   60.14    3.03
   2   1  -2   60.06    3.05
  -2  -1   2   54.74    2.77
  -2  -1   2   54.36    3.23
  -2  -1   2   53.81    2.91
  -2  -1   2   57.62    3.09
  -2  -1   2   50.83    3.02
  -2  -1   2   53.98    3.09
   1   1  -2  361.00   18.22
   1   1  -2  324.17   17.25
   1   1  -2  341.14   17.42
   1   1  -2  365.48   19.40
  -1  -1   2  369.05   19.41
  -1  -1   2  355.86   16.02
  -1  -1   2  366.88   17.32
  -1  -1   2  347.66   18.03
  -1  -1   2  343.19   16.90
  -1  -1   2  349.77   18.85
  -1  -1   2  352.80   17.43
   0   1  -2  406.80   20.32
   0   1  -2  392.09   22.50
   0   1  -2  399.86   21.13
   0  -1   2  424.09   21.16
   0  -1   2  459.58   19.96
   0  -1   2  392.66   18.55
   0  -1   2  393.22   20.83
   0  -1   2  404.20   20.14
   0  -1   2  407.10   19.57
  -1   1  -2   13.26    0.93
  -1   1  -2   13.44    0.86
  -1   1  -2   13.05    0.86
   1  -1   2   13.35    0.84
   1  -1   2   13.86    0.81
   1  -1   2   13.49    0.81
   1  -1   2   11.70    0.85
   1  -1   2   13.38    0.75
  -2   1  -2    0.90    0.20
  -2   1  -2    0.44    0.18
  -2   1  -2    1.68    0.37
  -2   1  -2    1.05    0.31
   2  -1   2    1.08    0.24
   2  -1   2    0.94    0.24
   2  -1   2    1.16    0.26
   2  -1   2    1.02    0.29
   2  -1   2    0.71    0.19
  -3   1  -2   39.36    2.52
  -3   1  -2   43.54    2.67
  -3   1  -2   38.91    2.30
  -3   1  -2   42.16    2.33
   3  -1   2   40.14    2.14
   3  -1   2   40.04    2.18
   3  -1   2   41.72    2.31
   3  -1   2   40.51    2.30
  -4   1  -2   51.34    3.31
  -4   1  -2   49.10    3.44
  -4   1  -2   52.41    3.01
  -4   1  -2   57.47    3.08
   4  -1   2   53.25    2.82
   4  -1   2   51.84    2.77
   4  -1   2   54.84    3.01
   4  -1   2   55.51    3.05
  -5   1  -2    2.64    0.78
  -5   1  -2    2.59    0.80
  -5   1  -2    2.59    0.62
   5  -1   2    2.23    0.60
   5  -1   2    2.46    0.63
   5  -1   2    1.27    0.53
   5  -1   2    2.07    0.53
  -6   1  -2   -0.42    0.50
  -6   1  -2    0.42    0.53
  -6   1  -2    0.03    0.70
   6  -1   2    0.16    0.52
   6  -1   2    0.52    0.48
   6  -1   2    1.07    0.61
   6  -1   2    0.58    0.56
  -7   1  -2    6.30    1.16
  -7   1  -2    7.08    1.59
  -7   1  -2    4.94    1.07
   7  -1   2    6.09    1.16
   7  -1   2    7.38    1.35
   7  -1   2    4.30    0.88
   7  -1   2    5.43    1.08
  -8   1  -2    0.46    0.68
  -8   1  -2    0.52    0.94
   8  -1   2    1.27    1.16
   8  -1   2    0.07    0.75
   8  -1   2    1.02    0.79
   9  -1   2    0.27    0.97
   8   0  -2   -0.06    0.54
   8   0  -2    0.22    1.45
  -8   0   2    0.95    0.93
  -8   0   2   -0.30    1.11
  -8   0   2   -0.33    0.86
   7   0  -2    0.23    0.65
   7   0  -2    0.70    0.66
   7   0  -2    0.01    0.71
   7   0  -2    0.36    0.64
  -7   0   2    0.56    0.81
  -7   0   2    1.39    1.11
  -7   0   2    0.85    0.90
   6   0  -2   11.91    1.47
   6   0  -2    9.70    1.14
   6   0  -2   11.45    1.36
   6   0  -2   10.99    1.42
  -6   0   2   11.61    1.54
  -6   0   2    8.93    1.35
  -6   0   2   13.42    1.93
   5   0  -2    1.87    0.68
   5   0  -2    2.29    0.94
   5   0  -2    2.40    0.61
   5   0  -2    2.40    0.56
  -5   0   2    1.99    0.72
  -5   0   2    2.98    0.78
  -5   0   2    3.12    0.79
  -5   0   2    2.74    0.89
   4   0  -2    7.56    0.88
   4   0  -2    7.82    0.77
   4   0  -2    5.70    0.86
   4   0  -2    6.87    0.89
  -4   0   2    7.85    0.96
  -4   0   2    7.29    0.95
  -4   0   2    7.18    1.69
  -4   0   2    6.79    1.09
   3   0  -2   12.51    0.85
   3   0  -2   13.44    0.99
   3   0  -2   14.51    1.05
   3   0  -2   14.34    0.88
  -3   0   2   13.47    1.04
  -3   0   2   13.10    1.19
  -3   0   2   11.96    1.03
  -3   0   2   13.40    1.06
  -3   0   2   12.70    0.81
   2   0  -2   47.38    2.69
   2   0  -2   55.21    2.70
   2   0  -2   51.63    2.51
   2   0  -2   54.04    2.80
  -2   0   2   52.10    2.75
  -2   0   2   51.77    2.86
  -2   0   2   49.17    2.68
  -2   0   2   52.86    3.12
  -2   0   2   47.29    2.85
   1   0  -2   30.62    1.66
   1   0  -2   30.42    1.49
   1   0  -2   27.59    1.56
  -1   0   2   29.85    1.65
  -1   0   2   29.11    1.82
  -1   0   2   29.80    1.57
  -1   0   2   28.17    1.70
  -1   0   2   31.50    1.70
  -1   0   2   29.99    1.69
  -1   0   2   29.86    1.60
   0   0  -2   12.73    0.79
   0   0  -2   11.57    0.82
   0   0   2   13.58    0.77
   0   0   2   15.47    0.88
   0   0   2   13.27    0.78
   0   0   2   13.11    0.80
   0   0   2   12.26    0.80
  -1   0  -2  136.02    7.66
  -1   0  -2  138.48    7.41
   1   0   2  138.65    7.17
   1   0   2  137.37    6.30
   1   0   2  134.83    6.83
   1   0   2  137.29    6.78
  -2   0  -2    6.87    0.62
  -2   0  -2    7.74    0.63
  -2   0  -2    7.11    0.55
  -2   0  -2    8.75    0.54
  -2   0  -2    7.66    0.54
   2   0   2    8.64    0.58
   2   0   2    7.99    0.57
   2   0   2    9.73    0.60
   2   0   2    8.11    0.55
   2   0   2    8.75    0.56
   2   0   2    7.48    0.53
  -3   0  -2    0.44    0.26
  -3   0  -2   -0.02    0.22
  -3   0  -2   -0.03    0.17
  -3   0  -2    0.25    0.16
  -3   0  -2    0.31    0.22
   3   0   2    0.33    0.21
   3   0   2    0.28    0.17
   3   0   2    0.43    0.20
   3   0   2    0.38    0.22
   3   0   2    0.57    0.24
  -4   0  -2  110.39    5.71
  -4   0  -2  104.54    6.23
  -4   0  -2  105.45    6.06
  -4   0  -2  102.27    5.60
  -4   0  -2  107.18    5.70
   4   0   2  105.29    5.54
   4   0   2  103.68    5.11
   4   0   2  105.33    5.43
   4   0   2  108.79    5.41
  -5   0  -2    5.18    0.76
  -5   0  -2    4.69    0.74
  -5   0  -2    3.61    0.78
  -5   0  -2    2.89    0.73
   5   0   2    5.47    0.71
   5   0   2    4.40    0.70
   5   0   2    3.75    0.65
   5   0   2    2.93    0.48
   5   0   2    3.92    0.67
  -6   0  -2    2.16    0.66
  -6   0  -2    0.57    0.63
  -6   0  -2    1.98    0.62
  -6   0  -2    2.15    0.75
   6   0   2    1.86    0.57
   6   0   2    2.46    0.68
   6   0   2    3.25    0.77
   6   0   2    1.79    0.61
  -7   0  -2    5.33    1.09
  -7   0  -2    6.52    1.15
  -7   0  -2    5.15    1.13
  -7   0  -2    3.96    1.17
   7   0   2    5.01    0.88
   7   0   2    5.21    1.01
   7   0   2    7.89    1.23
   7   0   2    5.68    1.05
  -8   0  -2    0.65    0.57
  -8   0  -2    3.68    1.08
   8   0   2    2.05    0.87
   8   0   2    1.19    0.77
   8   0   2    2.75    1.05
  -9   0  -2    0.38    0.66
  -9   0  -2    0.10    1.00
   9   0   2   -0.15    0.82
   9   0   2    1.15    0.89
   8  -1  -2   -0.24    0.68
   8  -1  -2    0.59    0.86
  -8   1   2    0.74    0.99
  -8   1   2   -0.34    0.72
   7  -1  -2    0.12    0.71
   7  -1  -2    0.28    0.62
  -7   1   2    0.21    0.76
  -7   1   2    1.09    0.87
   6  -1  -2    3.76    0.90
   6  -1  -2    5.92    2.70
   6  -1  -2    5.59    1.06
  -6   1   2    4.16    1.02
  -6   1   2    4.44    1.04
  -6   1   2    4.06    1.17
  -6   1   2    4.57    1.15
   5  -1  -2    0.18    0.42
   5  -1  -2    0.65    0.44
   5  -1  -2    0.04    0.55
   5  -1  -2   -0.47    0.29
  -5   1   2    0.86    0.64
  -5   1   2    0.72    0.71
  -5   1   2    0.48    0.56
  -5   1   2    0.05    0.58
   4  -1  -2    0.22    0.36
   4  -1  -2    0.50    0.33
   4  -1  -2    0.61    0.46
   4  -1  -2    0.69    0.50
  -4   1   2    1.00    0.51
  -4   1   2    0.59    0.49
  -4   1   2    1.55    0.55
  -4   1   2    1.27    0.67
   3  -1  -2   22.35    1.25
   3  -1  -2   25.38    1.57
   3  -1  -2   19.42    1.38
   3  -1  -2   22.78    1.53
  -3   1   2   20.52    1.62
  -3   1   2   20.74    1.29
  -3   1   2   21.95    1.52
  -3   1   2   21.34    1.72
  -3   1   2   21.55    1.53
   2  -1  -2  109.00    5.77
   2  -1  -2  122.35    5.39
   2  -1  -2  115.74    6.01
   2  -1  -2  113.41    6.19
  -2   1   2  113.29    6.12
  -2   1   2  116.39    6.20
  -2   1   2  117.67    6.11
  -2   1   2  120.50    6.70
  -2   1   2  113.51    6.60
  -2   1   2  114.28    6.17
   1  -1  -2   49.73    2.74
   1  -1  -2   50.67    2.33
   1  -1  -2   48.25    2.52
   1  -1  -2   49.92    2.68
  -1   1   2   48.26    2.69
  -1   1   2   49.40    2.96
  -1   1   2   45.77    2.72
  -1   1   2   52.27    2.54
  -1   1   2   48.09    2.94
  -1   1   2   51.44    2.76
  -1   1   2   48.65    2.73
   0  -1  -2    4.00    0.39
   0  -1  -2    5.44    0.48
   0   1   2    5.23    0.48
   0   1   2    4.29    0.50
   0   1   2    4.82    0.53
   0   1   2    4.88    0.36
   0   1   2    5.44    0.46
   0   1   2    5.18    0.42
  -1  -1  -2    5.96    0.46
  -1  -1  -2    6.99    0.50
   1   1   2    5.45    0.49
   1   1   2    6.35    0.47
   1   1   2    6.72    0.50
   1   1   2    6.45    0.46
  -2  -1  -2   89.45    4.98
  -2  -1  -2   90.96    5.31
   2   1   2   98.62    4.89
   2   1   2  100.60    4.72
   2   1   2  101.20    5.09
   2   1   2  101.00    4.88
   2   1   2   93.97    4.51
  -3  -1  -2   48.95    2.67
  -3  -1  -2   47.55    2.63
  -3  -1  -2   48.86    2.85
   3   1   2   51.08    2.44
   3   1   2   50.79    2.62
   3   1   2   45.51    2.51
   3   1   2   44.52    2.56
   3   1   2   48.38    2.61
  -4  -1  -2   22.50    1.50
  -4  -1  -2   24.64    1.64
  -4  -1  -2   23.78    1.34
  -4  -1  -2   23.51    1.61
  -4  -1  -2   24.97    1.49
   4   1   2   23.14    1.45
   4   1   2   22.73    1.41
   4   1   2   24.88    1.51
   4   1   2   25.49    1.42
   4   1   2   20.43    1.34
  -5  -1  -2    2.34    0.59
  -5  -1  -2    2.11    0.62
  -5  -1  -2    2.51    0.56
  -5  -1  -2    3.03    0.57
   5   1   2    2.69    0.55
   5   1   2    3.30    0.50
   5   1   2    2.30    0.50
   5   1   2    4.28    0.65
  -6  -1  -2   12.88    1.34
  -6  -1  -2   12.00    1.50
  -6  -1  -2   14.65    1.62
  -6  -1  -2   13.79    1.25
   6   1   2    9.94    2.09
   6   1   2   11.67    3.15
   6   1   2   10.31    1.23
   6   1   2   12.39    1.18
  -7  -1  -2    2.47    0.88
  -7  -1  -2    2.21    0.79
  -7  -1  -2    1.92    0.75
   7   1   2    1.63    0.68
   7   1   2    1.55    0.61
   7   1   2    1.98    0.69
   7   1   2    0.80    0.62
  -8  -1  -2    3.78    1.05
  -8  -1  -2    3.89    1.08
  -8  -1  -2    3.29    0.95
   8   1   2    4.10    1.07
   8   1   2    3.51    0.84
   8   1   2    4.27    1.12
   8   1   2    4.84    1.05
  -9  -1  -2   -0.81    0.67
  -9  -1  -2    0.31    0.79
   9   1   2    0.53    0.84
   9   1   2   -0.02    0.71
   8  -2  -2    1.09    0.83
  -8   2   2    0.66    1.31
   7  -2  -2   -0.19    0.49
   7  -2  -2    1.47    0.87
  -7   2   2    1.07    0.80
  -7   2   2    2.48    1.11
   6  -2  -2    8.25    1.41
   6  -2  -2    9.40    1.36
   6  -2  -2    9.53    1.33
  -6   2   2   10.47    1.76
  -6   2   2    6.59    1.36
  -6   2   2   10.75    1.52
   5  -2  -2   10.47    1.39
   5  -2  -2   10.28    1.38
   5  -2  -2   10.30    1.30
  -5   2   2    9.60    1.51
  -5   2   2   13.70    1.59
  -5   2   2   12.42    1.74
   4  -2  -2    1.78    0.67
   4  -2  -2    2.32    0.60
   4  -2  -2    3.78    0.81
   4  -2  -2    2.99    0.72
  -4   2   2    3.61    0.90
  -4   2   2    4.60    1.05
  -4   2   2    4.12    0.83
   3  -2  -2    2.49    0.51
   3  -2  -2    2.80    0.64
   3  -2  -2    2.67    0.41
   3  -2  -2    2.16    0.56
  -3   2   2    2.68    0.44
  -3   2   2    1.94    0.70
  -3   2   2    2.61    0.69
  -3   2   2    2.31    0.56
   2  -2  -2   68.58    3.85
   2  -2  -2   70.01    3.23
   2  -2  -2   70.41    3.56
   2  -2  -2   64.24    3.73
  -2   2   2   69.53    4.22
  -2   2   2   63.65    3.81
  -2   2   2   68.47    3.90
  -2   2   2   66.40    4.14
  -2   2   2   69.37    3.75
   1  -2  -2  200.31    8.70
   1  -2  -2  204.70   10.05
   1  -2  -2  196.53    9.70
   1  -2  -2  187.24    9.33
   1  -2  -2  174.40   10.02
  -1   2   2  182.22   10.02
  -1   2   2  192.39   10.60
  -1   2   2  197.94    9.80
  -1   2   2  191.98   10.87
   0  -2  -2    5.53    0.51
   0  -2  -2    6.98    0.59
   0  -2  -2    4.62    0.38
   0   2   2    4.97    0.62
   0   2   2    5.13    0.64
   0   2   2    5.77    0.41
   0   2   2    4.71    0.61
   0   2   2    4.98    0.53
   0   2   2    4.41    0.46
  -1  -2  -2  157.24    9.11
  -1  -2  -2  165.21    8.73
  -1  -2  -2  166.95    8.73
   1   2   2  176.88    8.82
   1   2   2  182.74    9.14
   1   2   2  168.26    9.38
   1   2   2  153.84    8.37
   1   2   2  163.15    8.38
   1   2   2  177.26    7.64
  -2  -2  -2  205.84   11.72
  -2  -2  -2  225.49   12.32
  -2  -2  -2  259.32   10.97
  -2  -2  -2  219.20   12.66
  -2  -2  -2  225.97   11.75
   2   2   2  249.03   10.96
   2   2   2  222.91   10.43
   2   2   2  222.28   12.66
   2   2   2  233.76   11.32
   2   2   2  237.19   11.91
   2   2   2  210.74   11.36
  -3  -2  -2   26.99    1.64
  -3  -2  -2   23.83    1.65
  -3  -2  -2   27.12    1.58
  -3  -2  -2   27.47    1.72
   3   2   2   26.26    1.58
   3   2   2   26.09    1.47
   3   2   2   29.88    1.58
   3   2   2   31.13    1.63
  -4  -2  -2   13.10    1.04
  -4  -2  -2   13.30    0.93
  -4  -2  -2   12.53    0.89
  -4  -2  -2   12.86    0.97
   4   2   2   11.16    0.78
   4   2   2   10.91    0.91
   4   2   2   12.02    0.91
   4   2   2   11.88    0.90
   4   2   2   12.68    0.88
  -5  -2  -2   53.48    3.24
  -5  -2  -2   54.70    3.46
  -5  -2  -2   59.10    3.33
  -5  -2  -2   58.83    3.51
   5   2   2   59.73    3.15
   5   2   2   55.07    3.11
   5   2   2   57.42    3.01
   5   2   2   57.04    3.21
  -6  -2  -2   60.27    3.55
  -6  -2  -2   57.83    3.92
  -6  -2  -2   58.32    3.49
  -6  -2  -2   65.26    3.83
   6   2   2   57.13    3.31
   6   2   2   57.94    3.20
   6   2   2   61.88    3.47
   6   2   2   56.77    3.34
  -7  -2  -2    2.13    0.76
  -7  -2  -2    2.00    0.81
  -7  -2  -2    1.08    0.65
   7   2   2    1.86    0.66
   7   2   2    2.38    0.72
   7   2   2    1.65    0.57
  -8  -2  -2    2.22    1.01
  -8  -2  -2    1.12    0.85
  -8  -2  -2    0.50    0.68
   8   2   2    2.35    2.00
   8   2   2    1.42    0.74
   8   2   2    0.81    1.58
   8   2   2    1.92    0.80
  -9  -2  -2    0.32    0.94
  -9  -2  -2    1.01    0.88
  -9  -2  -2    2.13    1.11
   9   2   2   -0.06    0.68
   9   2   2    0.48    0.77
   9   2   2   -0.52    0.89
 -10  -2  -2    3.80    1.31
 -10  -2  -2    3.08    1.33
  10   2   2    2.25    1.02
  10   2   2    3.89    1.25
   7  -3  -2    0.30    0.85
   7  -3  -2    0.25    0.70
  -7   3   2    0.98    0.77
  -7   3   2    0.26    1.11
   6  -3  -2    0.99    0.67
   6  -3  -2    1.91    1.44
   6  -3  -2    1.83    0.81
  -6   3   2    2.10    1.08
  -6   3   2    1.49    0.80
  -6   3   2    2.81    1.27
   5  -3  -2    0.06    0.58
   5  -3  -2    0.04    0.65
   5  -3  -2   -0.31    0.48
  -5   3   2    1.31    0.85
  -5   3   2   -0.12    0.65
  -5   3   2    0.32    0.91
   4  -3  -2   31.50    2.39
   4  -3  -2   35.60    2.28
   4  -3  -2   34.04    2.43
  -4   3   2   35.64    2.76
  -4   3   2   35.35    2.79
  -4   3   2   33.14    2.41
   3  -3  -2   18.99    1.49
   3  -3  -2   17.79    1.48
   3  -3  -2   19.16    1.36
  -3   3   2   18.51    1.67
  -3   3   2   17.53    1.70
  -3   3   2   17.54    1.33
  -3   3   2   15.50    1.41
   2  -3  -2   30.63    1.54
   2  -3  -2   30.56    1.83
   2  -3  -2   31.48    2.03
   2  -3  -2   31.62    2.02
   2  -3  -2   28.59    2.03
  -2   3   2   33.33    2.07
  -2   3   2   30.71    1.94
  -2   3   2   29.36    2.20
  -2   3   2   28.68    2.08
  -2   3   2   28.81    2.26
   1  -3  -2    6.49    0.64
   1  -3  -2    5.11    0.76
   1  -3  -2    5.69    0.75
   1  -3  -2    7.34    0.83
  -1   3   2    6.10    0.89
  -1   3   2    4.79    0.70
  -1   3   2    5.09    0.78
  -1   3   2    7.80    0.96
  -1   3   2    4.95    0.43
  -1   3   2    7.80    0.90
   0  -3  -2   46.43    2.44
   0  -3  -2   49.05    2.75
   0  -3  -2   48.95    2.78
   0   3   2   44.32    2.84
   0   3   2   45.48    2.67
   0   3   2   46.77    2.47
   0   3   2   47.33    2.72
   0   3   2   45.68    2.92
  -1  -3  -2   18.29    1.26
  -1  -3  -2   17.60    1.04
  -1  -3  -2   20.63    1.30
  -1  -3  -2   17.80    1.26
   1   3   2   18.52    1.27
   1   3   2   17.15    1.27
   1   3   2   17.63    1.14
   1   3   2   21.03    1.22
   1   3   2   18.66    1.24
   1   3   2   19.12    0.94
  -2  -3  -2   90.01    4.75
  -2  -3  -2   72.21    4.86
  -2  -3  -2   87.36    4.30
  -2  -3  -2   85.14    4.69
   2   3   2   91.19    4.60
   2   3   2   93.54    4.53
   2   3   2   97.36    5.03
   2   3   2   88.85    4.13
   2   3   2   87.48    4.77
  -3  -3  -2   21.84    1.33
  -3  -3  -2   23.22    1.21
  -3  -3  -2   20.52    1.32
  -3  -3  -2   21.01    1.36
  -3  -3  -2   19.48    1.38
   3   3   2   21.12    1.22
   3   3   2   22.51    1.32
   3   3   2   19.84    1.33
   3   3   2   19.92    1.29
   3   3   2   21.24    1.20
   3   3   2   20.98    1.36
  -4  -3  -2  107.57    5.79
  -4  -3  -2  109.82    6.09
  -4  -3  -2  107.08    5.83
  -4  -3  -2  117.35    5.45
  -4  -3  -2  101.20    6.09
   4   3   2  103.79    5.59
   4   3   2  120.67    5.70
   4   3   2  102.60    5.75
   4   3   2  105.37    5.21
  -5  -3  -2    5.93    0.64
  -5  -3  -2    3.15    0.61
  -5  -3  -2    4.92    0.76
  -5  -3  -2    4.62    0.68
   5   3   2    4.27    0.52
   5   3   2    3.44    0.56
   5   3   2    4.25    0.65
   5   3   2    4.49    0.66
   5   3   2    3.37    0.58
  -6  -3  -2    1.37    0.53
  -6  -3  -2    0.98    0.52
  -6  -3  -2    0.42    0.51
   6   3   2    1.73    0.54
   6   3   2    1.47    0.49
   6   3   2    0.61    0.44
   6   3   2    0.44    0.37
  -7  -3  -2   10.88    1.51
  -7  -3  -2    9.34    1.25
  -7  -3  -2   10.03    1.29
   7   3   2   10.22    1.15
   7   3   2   10.08    1.23
   7   3   2    7.53    0.95
   7   3   2    8.78    1.14
  -8  -3  -2   21.65    2.06
  -8  -3  -2   15.64    1.79
  -8  -3  -2   19.10    2.21
   8   3   2   15.28    1.72
   8   3   2   14.28    1.53
   8   3   2   15.44    1.69
  -9  -3  -2    3.99    2.95
  -9  -3  -2    4.44    1.42
  -9  -3  -2    4.89    1.30
   9   3   2    4.26    1.12
   9   3   2    4.46    1.85
   9   3   2    5.61    1.30
 -10  -3  -2    2.78    1.56
 -10  -3  -2    0.10    1.05
  10   3   2    0.90    1.10
  10   3   2    0.92    0.93
   7  -4  -2    1.83    1.10
   7  -4  -2    1.94    1.50
   7  -4  -2   -0.06    0.72
  -7   4   2    3.70    1.50
   6  -4  -2    1.20    0.76
   6  -4  -2    0.53    0.77
   6  -4  -2    0.48    1.01
  -6   4   2    0.51    1.09
  -6   4   2    0.39    1.12
  -6   4   2    0.70    0.91
   5  -4  -2   -0.24    0.74
   5  -4  -2    0.69    0.69
   5  -4  -2    0.25    0.58
   5  -4  -2    0.24    0.72
  -5   4   2   -0.01    0.80
  -5   4   2   -0.08    0.71
  -5   4   2    0.05    0.95
   4  -4  -2   32.48    2.27
   4  -4  -2   27.85    2.42
   4  -4  -2   38.12    2.59
  -4   4   2   32.01    2.81
  -4   4   2   35.63    2.56
  -4   4   2   30.69    2.66
   3  -4  -2   19.39    1.63
   3  -4  -2   15.95    1.46
   3  -4  -2   21.17    1.72
   3  -4  -2   18.07    1.61
  -3   4   2   18.10    1.60
  -3   4   2   22.31    1.92
  -3   4   2   19.17    1.91
  -3   4   2   18.24    1.52
   2  -4  -2    0.26    0.32
   2  -4  -2    0.56    0.44
   2  -4  -2    0.37    0.45
   2  -4  -2    0.52    0.41
  -2   4   2    0.80    0.62
  -2   4   2   -0.17    0.50
  -2   4   2    0.10    0.40
  -2   4   2    0.19    0.24
  -2   4   2   -0.12    0.48
   1  -4  -2    4.15    0.76
   1  -4  -2    5.30    0.74
   1  -4  -2    3.01    0.67
   1  -4  -2    4.31    0.63
  -1   4   2    3.63    0.42
  -1   4   2    3.83    0.70
  -1   4   2    4.27    0.77
  -1   4   2    3.76    0.78
  -1   4   2    4.74    0.86
  -1   4   2    3.80    0.69
   0  -4  -2  111.72    6.39
   0  -4  -2  110.70    6.37
   0  -4  -2  119.48    5.88
   0   4   2  119.83    6.64
   0   4   2  110.07    6.41
   0   4   2  135.11    6.24
   0   4   2  115.14    6.87
   0   4   2  112.35    5.95
  -1  -4  -2   75.81    4.23
  -1  -4  -2   70.47    3.78
  -1  -4  -2   72.70    4.18
   1   4   2   75.55    4.31
   1   4   2   78.19    4.28
   1   4   2   77.64    3.47
   1   4   2   72.38    4.44
   1   4   2   72.93    3.99
  -2  -4  -2   74.34    3.99
  -2  -4  -2   79.46    4.42
  -2  -4  -2   82.51    4.42
  -2  -4  -2   67.29    4.49
   2   4   2   83.46    4.29
   2   4   2   82.98    4.51
   2   4   2   85.67    4.21
   2   4   2   87.82    4.67
   2   4   2   78.78    3.79
  -3  -4  -2   12.93    0.97
  -3  -4  -2   12.15    0.93
  -3  -4  -2    9.93    0.75
   3   4   2   10.58    0.92
   3   4   2   13.45    0.86
   3   4   2   11.98    0.86
   3   4   2   12.45    0.90
   3   4   2   12.77    1.05
  -4  -4  -2   50.20    2.93
  -4  -4  -2   46.27    2.89
  -4  -4  -2   49.91    2.65
  -4  -4  -2   56.55    2.92
   4   4   2   45.13    2.83
   4   4   2   50.96    2.62
   4   4   2   51.56    2.91
   4   4   2   46.69    2.64
   4   4   2   54.65    2.82
  -5  -4  -2    1.04    0.36
  -5  -4  -2    0.67    0.42
  -5  -4  -2    0.34    0.38
  -5  -4  -2    0.55    0.38
   5   4   2    0.63    0.39
   5   4   2    0.41    0.35
   5   4   2    0.95    0.44
   5   4   2    0.97    0.30
   5   4   2    0.62    0.34
  -6  -4  -2    6.46    0.98
  -6  -4  -2   10.35    1.28
  -6  -4  -2    7.63    1.01
   6   4   2    8.52    0.98
   6   4   2    7.65    0.97
   6   4   2    7.99    0.93
   6   4   2    6.67    0.92
  -7  -4  -2    1.60    0.72
  -7  -4  -2    1.88    0.76
  -7  -4  -2    2.22    0.75
   7   4   2    0.92    0.52
   7   4   2    2.32    0.66
   7   4   2    0.93    0.54
   7   4   2    1.63    0.62
  -8  -4  -2    1.98    0.79
  -8  -4  -2    1.69    0.83
  -8  -4  -2    1.81    0.98
   8   4   2    0.70    0.66
   8   4   2    1.48    0.72
   8   4   2    1.36    0.66
  -9  -4  -2    0.83    0.98
  -9  -4  -2    0.18    0.77
  -9  -4  -2   -0.24    0.80
   9   4   2    0.55    0.69
   9   4   2    0.47    0.70
 -10  -4  -2    0.35    0.93
 -10  -4  -2   -0.26    1.21
  10   4   2   -0.66    1.53
  10   4   2    0.52    1.00
   6  -5  -2    0.15    1.12
   6  -5  -2    0.54    0.79
   6  -5  -2    1.51    1.05
  -6   5   2    2.45    1.52
  -6   5   2    0.36    0.91
  -6   5   2    0.93    1.26
   5  -5  -2    9.17    1.46
   5  -5  -2    9.31    1.61
   5  -5  -2    4.71    1.07
  -5   5   2    5.29    1.32
  -5   5   2    8.53    1.66
  -5   5   2    7.96    1.75
   4  -5  -2    0.05    0.58
   4  -5  -2    0.01    0.67
   4  -5  -2    0.08    0.68
   4  -5  -2    0.65    0.81
  -4   5   2    0.66    0.82
  -4   5   2    1.39    0.93
  -4   5   2   -0.14    0.87
   3  -5  -2   20.36    1.85
   3  -5  -2   24.26    2.00
   3  -5  -2   24.86    1.84
   3  -5  -2   22.29    1.93
  -3   5   2   21.70    1.95
  -3   5   2   22.11    2.26
  -3   5   2   23.74    2.12
  -3   5   2   25.45    2.00
   2  -5  -2   20.88    1.77
   2  -5  -2   20.39    1.68
   2  -5  -2   21.45    1.76
   2  -5  -2   21.11    1.58
  -2   5   2   20.36    1.84
  -2   5   2   21.39    1.78
  -2   5   2   19.15    1.97
  -2   5   2   23.05    1.82
  -2   5   2   20.68    1.84
   1  -5  -2   18.76    1.33
   1  -5  -2   17.68    1.41
   1  -5  -2   19.11    1.51
   1  -5  -2   14.80    1.45
  -1   5   2   17.93    1.64
  -1   5   2   20.74    1.64
  -1   5   2   16.32    1.52
  -1   5   2   14.14    1.56
   0  -5  -2  101.22    5.68
   0  -5  -2  105.02    5.19
   0  -5  -2   91.32    5.56
   0   5   2  100.40    5.80
   0   5   2  107.70    5.46
   0   5   2   94.01    5.18
   0   5   2  106.05    5.73
   0   5   2   91.65    6.03
  -1  -5  -2   61.62    3.66
  -1  -5  -2   62.19    3.33
  -1  -5  -2   64.45    3.74
   1   5   2   66.95    3.53
   1   5   2   61.05    3.90
   1   5   2   62.87    3.75
   1   5   2   63.30    2.97
   1   5   2   56.39    3.71
  -2  -5  -2   47.08    2.90
  -2  -5  -2   48.02    2.57
  -2  -5  -2   47.88    2.90
  -2  -5  -2   46.02    2.89
   2   5   2   45.09    2.39
   2   5   2   50.37    3.03
   2   5   2   47.07    2.96
   2   5   2   48.00    2.82
   2   5   2   52.23    2.74
  -3  -5  -2   25.95    1.80
  -3  -5  -2   28.03    1.77
  -3  -5  -2   24.09    1.75
  -3  -5  -2   28.01    1.57
   3   5   2   28.16    1.86
   3   5   2   29.02    1.55
   3   5   2   28.18    1.86
   3   5   2   27.52    1.69
   3   5   2   25.75    1.76
  -4  -5  -2  167.14    9.95
  -4  -5  -2  187.18    9.83
  -4  -5  -2  195.24    8.81
  -4  -5  -2  182.71    9.50
  -4  -5  -2  176.91    9.47
   4   5   2  169.89    8.40
   4   5   2  154.77    9.93
   4   5   2  184.14    9.08
   4   5   2  187.03    9.29
   4   5   2  183.69    9.57
  -5  -5  -2   13.60    1.03
  -5  -5  -2    8.81    1.15
  -5  -5  -2   13.60    1.16
  -5  -5  -2   13.49    1.17
   5   5   2   13.44    1.10
   5   5   2   13.53    1.23
   5   5   2   14.22    1.07
   5   5   2   16.16    1.14
  -6  -5  -2    2.84    0.60
  -6  -5  -2    2.08    0.63
  -6  -5  -2    3.76    0.76
  -6  -5  -2    2.99    0.76
   6   5   2    3.81    0.70
   6   5   2    2.92    0.63
   6   5   2    2.64    0.73
   6   5   2    1.86    0.58
  -7  -5  -2    1.69    0.68
  -7  -5  -2    2.17    0.72
  -7  -5  -2    1.15    0.70
   7   5   2    1.84    0.66
   7   5   2    1.83    0.59
   7   5   2    2.18    0.70
   7   5   2    2.67    0.73
  -8  -5  -2   21.39    1.91
  -8  -5  -2   23.26    2.12
  -8  -5  -2   21.04    1.91
   8   5   2   22.39    1.81
   8   5   2   19.77    1.81
   8   5   2   19.50    1.76
   8   5   2   22.05    1.78
  -9  -5  -2    0.28    0.83
  -9  -5  -2   -0.47    0.98
  -9  -5  -2    0.06    0.81
   9   5   2   -0.05    0.72
   9   5   2    0.12    0.71
 -10  -5  -2   -1.09    0.91
 -10  -5  -2   -1.49    1.27
  10   5   2    1.41    1.04
  10   5   2    0.04    0.91
   5  -6  -2    3.27    1.45
   5  -6  -2    2.82    1.03
   5  -6  -2    0.83    0.71
  -5   6   2    2.21    1.25
  -5   6   2    3.02    1.39
  -5   6   2    2.40    1.22
   4  -6  -2    1.31    0.84
   4  -6  -2    0.92    0.96
   4  -6  -2    1.08    0.66
   4  -6  -2    0.31    0.84
  -4   6   2    0.91    1.00
  -4   6   2    3.48    1.29
  -4   6   2    0.63    0.88
   3  -6  -2    1.24    0.84
   3  -6  -2    1.09    0.79
   3  -6  -2    1.18    0.70
   3  -6  -2    1.38    0.71
  -3   6   2    1.03    0.93
  -3   6   2    0.14    0.72
  -3   6   2    1.20    0.91
   2  -6  -2    1.81    0.78
   2  -6  -2    2.34    0.70
   2  -6  -2    3.76    0.95
   2  -6  -2    1.19    0.73
  -2   6   2    3.12    1.09
  -2   6   2    2.67    0.93
  -2   6   2    1.73    0.85
  -2   6   2    3.25    1.00
   1  -6  -2   72.27    4.21
   1  -6  -2   68.86    4.49
   1  -6  -2   78.34    4.14
   1  -6  -2   76.43    4.48
  -1   6   2   77.40    4.94
  -1   6   2   83.08    4.68
  -1   6   2   61.63    4.26
  -1   6   2   68.15    4.49
   0  -6  -2   -0.24    0.37
   0  -6  -2   -0.05    0.38
   0  -6  -2   -0.16    0.43
   0   6   2    0.65    0.49
   0   6   2    0.04    0.41
   0   6   2   -0.21    0.49
   0   6   2    0.58    0.56
   0   6   2   -0.34    0.49
  -1  -6  -2   35.10    2.09
  -1  -6  -2   31.00    2.27
  -1  -6  -2   34.28    2.35
  -1  -6  -2   36.46    2.42
   1   6   2   33.53    2.33
   1   6   2   33.94    2.49
   1   6   2   32.92    2.41
   1   6   2   36.43    2.27
  -2  -6  -2   30.77    2.27
  -2  -6  -2   33.17    2.00
  -2  -6  -2   32.55    2.25
  -2  -6  -2   37.41    2.27
   2   6   2   36.28    2.42
   2   6   2   34.58    2.37
   2   6   2   34.73    1.83
   2   6   2   34.13    2.12
   2   6   2   33.74    2.24
   2   6   2   32.26    2.21
  -3  -6  -2   38.15    2.38
  -3  -6  -2   37.18    2.29
  -3  -6  -2   35.97    2.34
  -3  -6  -2   34.20    2.05
   3   6   2   36.18    2.16
   3   6   2   35.94    2.34
   3   6   2   35.05    1.97
   3   6   2   35.61    2.43
   3   6   2   31.71    2.31
  -4  -6  -2    2.68    0.65
  -4  -6  -2    2.96    0.53
  -4  -6  -2    4.13    0.67
  -4  -6  -2    3.78    0.73
   4   6   2    2.21    0.53
   4   6   2    5.06    0.87
   4   6   2    3.97    0.76
   4   6   2    2.94    0.58
  -5  -6  -2   14.00    1.40
  -5  -6  -2   10.58    1.28
  -5  -6  -2   10.50    1.04
  -5  -6  -2    9.78    1.00
   5   6   2   11.22    1.15
   5   6   2   11.40    1.20
   5   6   2    9.75    1.06
   5   6   2   11.25    1.31
  -6  -6  -2   19.40    1.59
  -6  -6  -2   20.76    1.60
  -6  -6  -2   23.39    1.50
  -6  -6  -2   19.54    1.62
   6   6   2   13.56    1.30
   6   6   2   17.20    1.51
   6   6   2   20.81    1.52
   6   6   2   20.49    1.70
  -7  -6  -2    4.23    0.92
  -7  -6  -2    5.84    0.93
  -7  -6  -2    5.90    1.02
   7   6   2    6.48    0.95
   7   6   2    5.31    1.04
   7   6   2    4.80    0.93
   7   6   2    5.32    0.97
  -8  -6  -2    7.81    1.25
  -8  -6  -2    8.19    1.35
   8   6   2    7.15    1.18
   8   6   2    6.02    1.12
   8   6   2    6.58    1.14
   8   6   2    7.09    1.14
  -9  -6  -2    0.07    0.81
  -9  -6  -2    0.54    0.96
   9   6   2    0.77    0.80
   9   6   2    0.38    0.82
   9   6   2    0.70    0.77
 -10  -6  -2    0.80    1.00
 -10  -6  -2    0.55    1.13
  10   6   2    2.47    1.10
  10   6   2    0.33    0.92
   4  -7  -2    6.43    1.40
  -4   7   2    6.85    1.76
   3  -7  -2    0.30    0.69
   3  -7  -2   -0.04    0.58
   3  -7  -2   -0.03    0.81
  -3   7   2    0.32    0.90
  -3   7   2   -0.22    0.72
   2  -7  -2    0.78    0.73
   2  -7  -2    0.50    0.71
   2  -7  -2   -0.10    0.56
   2  -7  -2   -0.08    0.67
  -2   7   2    0.05    0.81
  -2   7   2    0.03    0.73
  -2   7   2   -0.14    0.82
  -2   7   2   -0.08    0.75
   1  -7  -2   39.14    2.62
   1  -7  -2   39.91    2.70
   1  -7  -2   38.64    2.90
   1  -7  -2   44.31    2.91
  -1   7   2   37.44    2.87
  -1   7   2   36.61    2.80
  -1   7   2   44.22    3.26
  -1   7   2   36.35    2.93
   0  -7  -2    0.35    0.50
   0  -7  -2    0.45    0.54
   0  -7  -2    1.11    0.59
   0  -7  -2    0.01    0.62
   0   7   2   -0.05    0.66
   0   7   2    0.54    0.67
   0   7   2   -0.27    0.71
   0   7   2    0.61    0.55
  -1  -7  -2   23.38    1.67
  -1  -7  -2   25.30    1.91
  -1  -7  -2   25.54    1.92
  -1  -7  -2   23.78    1.96
   1   7   2   26.57    2.10
   1   7   2   19.20    1.96
   1   7   2   22.08    1.83
   1   7   2   24.11    1.82
   1   7   2   22.54    1.80
  -2  -7  -2   12.50    1.46
  -2  -7  -2   11.77    1.19
  -2  -7  -2    9.86    1.26
  -2  -7  -2   18.21    1.85
   2   7   2   10.80    1.31
   2   7   2   11.79    1.45
   2   7   2   11.32    1.22
   2   7   2   12.87    1.58
   2   7   2   11.66    1.36
  -3  -7  -2   77.09    4.72
  -3  -7  -2   78.71    4.26
  -3  -7  -2   77.66    4.68
   3   7   2   85.98    4.44
   3   7   2   82.42    4.67
   3   7   2   78.23    4.89
   3   7   2   78.95    4.02
   3   7   2   82.72    4.89
  -4  -7  -2   -0.02    0.52
  -4  -7  -2    0.79    0.44
  -4  -7  -2    0.27    0.50
   4   7   2   -0.29    0.48
   4   7   2   -0.07    0.42
   4   7   2    0.88    0.69
   4   7   2    0.03    0.71
  -5  -7  -2    0.05    0.45
  -5  -7  -2   -0.41    0.49
  -5  -7  -2   -0.33    0.37
   5   7   2   -0.17    0.38
   5   7   2   -0.04    0.39
   5   7   2   -0.12    0.50
   5   7   2   -0.27    0.43
  -6  -7  -2   14.88    1.43
  -6  -7  -2   14.57    1.66
  -6  -7  -2   14.56    1.28
   6   7   2   15.36    1.52
   6   7   2   14.24    1.32
   6   7   2   16.47    1.79
  -7  -7  -2    6.06    1.12
  -7  -7  -2    5.22    0.95
  -7  -7  -2    5.21    1.06
   7   7   2    7.17    1.08
   7   7   2    4.61    1.01
   7   7   2    6.99    0.97
   7   7   2    5.09    1.14
  -8  -7  -2   -0.03    0.60
  -8  -7  -2   -0.90    0.74
  -8  -7  -2   -0.50    0.56
   8   7   2   -0.13    0.72
   8   7   2    0.20    0.65
   8   7   2   -0.14    0.73
   8   7   2   -0.14    0.67
  -9  -7  -2    0.43    0.91
  -9  -7  -2    0.64    0.80
   9   7   2    0.09    0.78
   9   7   2    0.05    0.81
   9   7   2   -0.88    0.73
 -10  -7  -2    1.82    1.26
 -10  -7  -2    0.80    0.97
  10   7   2    2.52    1.21
   3  -8  -2   -0.07    0.82
   3  -8  -2    0.02    0.94
  -3   8   2    0.75    1.14
   2  -8  -2    2.84    1.14
   2  -8  -2    1.32    0.91
   2  -8  -2    0.38    0.83
  -2   8   2    1.20    1.07
  -2   8   2    0.30    0.86
   1  -8  -2   21.91    2.26
   1  -8  -2   16.88    1.85
  -1   8   2   19.85    2.35
  -1   8   2   22.58    2.57
   0  -8  -2    1.86    0.78
   0  -8  -2    1.18    0.72
   0  -8  -2    1.57    0.80
   0   8   2    2.74    1.04
   0   8   2    0.68    0.91
  -1  -8  -2    6.09    0.99
  -1  -8  -2    5.23    1.04
  -1  -8  -2    4.42    1.07
   1   8   2    7.05    1.32
   1   8   2    8.36    1.48
  -2  -8  -2   -0.18    0.64
  -2  -8  -2    0.18    0.55
  -2  -8  -2    0.67    0.51
   2   8   2    0.43    0.67
   2   8   2    0.56    0.68
   2   8   2    0.51    0.74
  -3  -8  -2   14.31    1.48
  -3  -8  -2   15.68    1.50
  -3  -8  -2   16.93    1.60
   3   8   2   15.34    1.87
   3   8   2   15.53    1.70
  -4  -8  -2    0.34    0.67
  -4  -8  -2    0.53    0.53
   4   8   2    0.22    0.66
   4   8   2    0.09    0.60
  -5  -8  -2    8.98    1.31
  -5  -8  -2   10.72    1.44
   5   8   2    9.12    1.43
   5   8   2    9.60    1.44
   5   8   2    7.52    1.11
   5   8   2    9.43    1.39
  -6  -8  -2    0.95    0.70
  -6  -8  -2    1.45    0.81
   6   8   2    1.84    0.82
   6   8   2    1.68    0.89
   6   8   2    0.70    0.69
   6   8   2    0.47    0.59
  -7  -8  -2    9.08    1.40
  -7  -8  -2   10.99    1.52
   7   8   2    5.88    1.26
   7   8   2    9.69    1.37
   7   8   2    8.14    1.24
  -8  -8  -2    0.37    0.90
  -8  -8  -2   -0.50    0.73
   8   8   2    0.19    0.82
   8   8   2    0.51    0.85
  -9  -8  -2   -0.69    0.90
  -9  -8  -2   -0.29    0.74
   9   8   2   -0.40    0.88
   9   8   2   -0.36    0.91
   2  -9  -2    1.57    0.92
  -2   9   2    4.33    1.76
  -2   9   2    1.79    1.06
   1  -9  -2    0.62    0.73
  -1   9   2    4.28    1.37
  -1   9   2    3.94    1.45
   0  -9  -2    6.22    1.25
   0  -9  -2    2.46    0.86
   0   9   2    5.37    1.45
   0   9   2    4.55    1.51
  -1  -9  -2   29.39    2.43
   1   9   2   35.44    2.90
  -2  -9  -2    0.70    0.74
  -2  -9  -2    0.82    0.78
   2   9   2    0.38    0.78
   2   9   2    0.31    0.75
   2   9   2   -0.02    0.78
  -3  -9  -2   18.01    1.95
  -3  -9  -2   16.64    1.95
   3   9   2   15.61    1.98
   3   9   2   16.94    1.90
  -4  -9  -2    1.86    0.79
  -4  -9  -2    0.72    0.88
   4   9   2    1.65    0.93
   4   9   2    3.53    1.07
  -5  -9  -2   25.89    2.24
  -5  -9  -2   25.44    2.17
   5   9   2   24.98    2.30
   5   9   2   27.46    2.33
  -6  -9  -2    7.77    1.34
  -6  -9  -2    9.45    1.48
   6   9   2    7.98    1.27
   6   9   2    6.36    1.36
   6   9   2    9.11    1.45
  -7  -9  -2    3.27    1.00
  -7  -9  -2    3.26    1.13
   7   9   2    3.52    1.05
   7   9   2    1.96    1.14
  -8  -9  -2    0.06    0.81
  -8  -9  -2    0.23    0.98
   8   9   2    0.09    0.94
   8   9   2    0.19    0.95
  -9  -9  -2    0.38    1.10
  -9  -9  -2    0.53    1.05
   9   9   2    0.70    1.06
   9   9   2    0.23    1.13
   1 -10  -2   -0.13    0.70
  -1  10   2    1.69    1.38
  -1  10   2    1.93    1.68
   0 -10  -2   -0.47    0.71
   0  10   2   -0.14    1.17
   0  10   2    1.05    1.20
   1  10   2   14.19    2.09
  -2 -10  -2   18.95    2.12
  -3 -10  -2    0.24    0.79
  -3 -10  -2    0.88    0.83
   3  10   2    1.20    0.86
   3  10   2    1.23    0.96
  -4 -10  -2    2.18    0.94
  -4 -10  -2    1.63    0.97
   4  10   2    2.01    1.08
   4  10   2    0.94    0.90
  -5 -10  -2   26.15    2.33
  -5 -10  -2   20.98    2.36
   5  10   2   23.27    2.55
   5  10   2   20.27    2.39
  -6 -10  -2    0.81    0.87
  -6 -10  -2    0.28    0.96
   6  10   2    1.28    1.02
   6  10   2    1.84    1.03
  -7 -10  -2    0.17    1.04
  -7 -10  -2    1.87    1.02
   7  10   2    1.14    1.06
  -8 -10  -2    2.04    1.30
  -8 -10  -2    3.10    1.28
   8  10   2    2.09    1.35
   8  10   2    1.92    1.27
   1  11   2    7.78    1.82
  -2 -11  -2   -0.53    0.74
   2  11   2    2.07    1.26
  -3 -11  -2    2.54    0.98
   3  11   2    3.67    1.36
  -4 -11  -2    1.84    1.06
  -4 -11  -2    2.20    1.12
   4  11   2    1.52    1.15
   4  11   2    0.42    0.93
  -5 -11  -2    2.55    1.17
  -5 -11  -2    3.55    1.29
   5  11   2    3.05    1.33
   5  11   2    3.10    1.34
  -6 -11  -2   -0.04    1.06
  -6 -11  -2    0.88    1.15
   6  11   2    0.56    1.14
   6  11   2    1.36    1.20
  -7 -11  -2    0.94    1.09
  -7 -11  -2    2.73    1.31
   7  11   2    2.11    1.31
   4  12   2    1.63    1.05
   5  12   2    2.36    1.43
   5  12   2   -0.22    1.24
   5  11  -3   -0.11    1.25
  -5 -11   3    1.61    1.23
   4  11  -3   -0.62    1.23
   4  11  -3    1.56    1.19
  -4 -11   3   -0.38    1.12
  -4 -11   3   -1.13    0.95
   3  11  -3    0.50    1.06
   3  11  -3   -0.52    1.04
  -3 -11   3    0.20    1.05
  -3 -11   3    0.35    1.26
   2  11  -3    8.00    1.85
  -2 -11   3    6.65    1.61
  -2 -11   3    6.37    1.86
  -1 -11   3    0.38    1.10
   7  10  -3    0.71    1.20
  -7 -10   3    0.20    1.11
   6  10  -3    3.77    1.39
   6  10  -3    6.00    1.39
  -6 -10   3    6.71    1.52
  -6 -10   3    2.69    1.10
   5  10  -3    1.33    1.12
   5  10  -3   -0.35    1.05
   5  10  -3   -0.49    0.90
  -5 -10   3    0.87    0.96
  -5 -10   3   -0.26    0.78
   4  10  -3    0.47    0.97
   4  10  -3    1.32    0.96
   4  10  -3    0.98    1.02
  -4 -10   3    0.76    0.91
  -4 -10   3   -0.23    0.93
  -4 -10   3    1.43    1.03
   3  10  -3    1.69    1.03
   3  10  -3    1.01    0.96
  -3 -10   3    0.06    0.96
  -3 -10   3   -0.27    0.99
   2  10  -3    8.89    1.63
   2  10  -3    2.83    0.99
  -2 -10   3    9.50    1.81
  -2 -10   3    6.77    1.43
   1  10  -3   -0.96    0.82
  -1 -10   3   -0.11    1.03
  -1 -10   3   -0.69    0.98
   0  10  -3    0.19    1.06
   0 -10   3    0.23    0.93
   0 -10   3   -0.27    1.24
  -1  10  -3    0.43    1.35
  -1  10  -3   -1.11    1.00
   1 -10   3   -0.15    1.21
   1 -10   3   -0.45    0.92
   7   9  -3    1.15    1.13
   7   9  -3    2.82    1.21
  -7  -9   3    1.42    1.07
  -7  -9   3    1.36    0.88
   6   9  -3    0.32    0.93
   6   9  -3    1.61    0.95
  -6  -9   3    1.58    0.81
  -6  -9   3    3.65    1.13
   5   9  -3    0.67    0.86
   5   9  -3   -0.53    0.77
   5   9  -3    1.19    1.02
  -5  -9   3    0.28    0.87
  -5  -9   3    1.73    0.93
  -5  -9   3    0.74    0.77
   4   9  -3    2.11    1.08
   4   9  -3    1.21    0.80
   4   9  -3    0.91    0.89
  -4  -9   3    2.13    0.96
  -4  -9   3    1.90    1.00
  -4  -9   3    1.12    0.81
   3   9  -3    5.07    1.32
   3   9  -3    4.15    1.02
   3   9  -3    3.31    1.10
  -3  -9   3    5.97    1.42
  -3  -9   3    4.33    1.01
  -3  -9   3    3.04    1.02
   2   9  -3    8.95    1.48
   2   9  -3    6.57    1.30
  -2  -9   3    8.12    1.24
  -2  -9   3   10.05    1.59
  -2  -9   3    6.80    1.53
   1   9  -3   -0.01    0.61
   1   9  -3    0.85    0.83
  -1  -9   3    0.21    0.87
  -1  -9   3    0.16    0.82
   0   9  -3    0.58    0.75
   0   9  -3    1.74    1.04
   0  -9   3    2.88    1.02
   0  -9   3    1.47    1.08
  -1   9  -3   -0.33    1.07
  -1   9  -3    0.00    0.95
   1  -9   3    0.71    1.10
   1  -9   3    0.24    0.84
  -2   9  -3   10.21    1.98
  -2   9  -3    7.18    1.78
   2  -9   3   14.04    2.21
   2  -9   3    8.11    1.60
   8   8  -3    0.47    1.01
   8   8  -3    0.02    1.03
   8   8  -3   -0.04    0.82
  -8  -8   3   -0.63    1.00
  -8  -8   3    0.60    0.93
  -8  -8   3    0.26    0.61
   7   8  -3    3.29    1.13
   7   8  -3    1.81    1.12
  -7  -8   3    1.21    0.71
  -7  -8   3    3.90    1.24
  -7  -8   3    2.74    1.04
   6   8  -3    0.07    0.78
   6   8  -3    0.62    0.59
  -6  -8   3    0.18    0.60
  -6  -8   3   -0.20    0.69
   5   8  -3    2.80    0.96
   5   8  -3    3.42    0.94
  -5  -8   3    2.43    0.94
  -5  -8   3    1.15    0.85
  -5  -8   3    4.10    1.01
   4   8  -3    7.53    1.38
   4   8  -3    9.36    1.28
   4   8  -3    6.90    1.31
  -4  -8   3    5.26    1.14
  -4  -8   3    7.53    1.32
  -4  -8   3    4.62    1.11
   3   8  -3    2.27    0.93
   3   8  -3    3.91    0.97
   3   8  -3    2.36    0.79
  -3  -8   3    4.74    1.06
  -3  -8   3    3.15    1.02
  -3  -8   3    3.46    0.90
   2   8  -3   13.56    1.81
   2   8  -3   13.48    1.66
   2   8  -3   15.36    1.56
  -2  -8   3   13.94    1.80
  -2  -8   3   11.64    1.61
  -2  -8   3   11.70    1.44
   1   8  -3   -0.35    0.68
   1   8  -3    0.30    0.63
  -1  -8   3   -0.25    0.80
  -1  -8   3    0.72    0.59
  -1  -8   3   -0.03    0.73
   0   8  -3   12.12    1.76
   0   8  -3   11.05    1.60
   0   8  -3   10.16    1.42
   0  -8   3   13.34    1.88
   0  -8   3   14.75    1.77
  -1   8  -3    0.83    0.88
  -1   8  -3   -0.06    0.84
   1  -8   3   -1.16    0.62
   1  -8   3    0.67    0.96
  -2   8  -3    3.58    1.31
  -2   8  -3    4.01    1.33
   2  -8   3    3.02    1.06
   2  -8   3    5.80    1.48
  -3   8  -3    0.37    0.89
  -3   8  -3    0.10    1.34
   3  -8   3    0.91    1.25
   3  -8   3    0.28    0.93
  -4   8  -3    1.11    1.24
   4  -8   3    0.39    1.06
   8   7  -3    0.46    0.93
   8   7  -3   -0.33    0.67
   8   7  -3   -0.62    0.89
  -8  -7   3   -0.55    0.95
  -8  -7   3    0.35    0.64
  -8  -7   3    0.62    0.91
   7   7  -3    5.44    1.11
   7   7  -3    4.03    0.98
   7   7  -3    5.48    1.30
  -7  -7   3    4.47    1.15
  -7  -7   3    2.70    0.88
  -7  -7   3    5.25    1.18
   6   7  -3    0.48    0.76
   6   7  -3    0.61    0.71
  -6  -7   3    0.38    0.73
  -6  -7   3    0.54    0.72
  -6  -7   3    0.48    0.67
   5   7  -3    4.02    1.00
   5   7  -3    2.41    0.81
  -5  -7   3    2.50    0.80
  -5  -7   3    3.97    0.97
  -5  -7   3    4.28    1.04
  -5  -7   3    3.31    0.91
   4   7  -3    0.86    0.71
   4   7  -3   -0.48    0.45
   4   7  -3    0.27    0.59
  -4  -7   3    0.80    0.62
  -4  -7   3   -0.43    0.54
  -4  -7   3   -0.34    0.52
  -4  -7   3    0.19    0.53
   3   7  -3   68.99    4.23
   3   7  -3   65.50    4.30
   3   7  -3   75.86    3.88
  -3  -7   3   63.59    3.97
  -3  -7   3   68.90    4.20
  -3  -7   3   66.86    3.85
   2   7  -3   -0.19    0.59
   2   7  -3    0.69    0.57
  -2  -7   3    1.05    0.62
  -2  -7   3    1.57    0.77
  -2  -7   3    0.13    0.55
   1   7  -3    0.44    0.55
   1   7  -3    2.00    0.83
   1   7  -3    1.03    0.68
  -1  -7   3    1.61    0.75
  -1  -7   3    3.20    0.74
  -1  -7   3    2.10    0.75
   0   7  -3   55.59    3.71
   0   7  -3   52.14    3.78
   0   7  -3   58.56    3.46
   0  -7   3   48.97    3.54
   0  -7   3   56.68    3.46
   0  -7   3   54.48    3.09
  -1   7  -3   16.39    2.14
  -1   7  -3   17.35    2.07
   1  -7   3   24.36    2.37
   1  -7   3   17.13    1.90
  -2   7  -3    4.01    1.27
  -2   7  -3    2.84    1.09
   2  -7   3    4.02    1.07
   2  -7   3    4.79    1.25
  -3   7  -3    0.23    0.91
  -3   7  -3   -0.65    0.78
   3  -7   3   -0.67    0.88
   3  -7   3    0.38    0.80
  -4   7  -3   10.07    1.91
   4  -7   3   12.31    2.02
   4  -7   3   12.76    1.88
  -5   7  -3    1.47    1.28
   5  -7   3    2.13    1.17
   9   6  -3   -1.12    0.88
  -9  -6   3   -0.26    1.00
   8   6  -3   -0.10    0.72
   8   6  -3   -0.03    0.71
  -8  -6   3    0.30    0.93
  -8  -6   3    0.56    0.89
  -8  -6   3   -0.28    0.70
   7   6  -3    0.69    0.70
   7   6  -3    0.23    0.61
   7   6  -3    0.60    0.82
  -7  -6   3    0.80    0.75
  -7  -6   3    0.56    0.66
  -7  -6   3    0.22    0.69
   6   6  -3    1.61    0.79
   6   6  -3    0.89    0.68
  -6  -6   3    1.39    0.72
  -6  -6   3    0.89    0.65
  -6  -6   3    0.89    0.66
   5   6  -3    0.71    0.68
   5   6  -3    0.97    0.64
  -5  -6   3    1.25    0.59
  -5  -6   3    2.20    0.68
  -5  -6   3    1.23    0.68
   4   6  -3   -0.26    0.42
   4   6  -3    0.32    0.54
   4   6  -3   -0.34    0.51
  -4  -6   3   -0.17    0.48
  -4  -6   3   -0.11    0.30
  -4  -6   3   -0.56    0.36
  -4  -6   3   -0.13    0.44
   3   6  -3    4.53    0.84
   3   6  -3    3.68    0.83
   3   6  -3    3.18    0.81
  -3  -6   3    3.10    0.74
  -3  -6   3    3.35    0.65
  -3  -6   3    3.10    0.76
  -3  -6   3    2.80    0.73
   2   6  -3    1.25    0.56
   2   6  -3    0.90    0.57
  -2  -6   3    0.88    0.52
  -2  -6   3    0.60    0.50
  -2  -6   3    1.16    0.53
   1   6  -3   37.46    2.75
   1   6  -3   44.57    3.00
   1   6  -3   38.53    2.63
  -1  -6   3   44.05    2.48
  -1  -6   3   37.54    2.57
  -1  -6   3   41.78    2.69
   0   6  -3   11.34    1.43
   0   6  -3    9.86    1.21
   0   6  -3   10.42    2.17
   0  -6   3    9.39    1.10
   0  -6   3   11.47    1.42
   0  -6   3   11.47    1.34
  -1   6  -3    8.06    1.25
  -1   6  -3    5.13    0.88
  -1   6  -3    7.25    1.27
   1  -6   3    9.61    1.37
   1  -6   3    6.40    1.11
   1  -6   3    7.98    1.01
  -2   6  -3    5.08    1.11
  -2   6  -3    4.20    1.17
   2  -6   3    4.68    1.00
   2  -6   3    3.44    0.75
   2  -6   3    7.11    1.28
  -3   6  -3    5.42    1.18
  -3   6  -3    3.68    1.19
   3  -6   3    3.68    1.01
   3  -6   3    4.14    1.10
   4  -6   3   17.19    2.07
   4  -6   3   17.42    2.13
  -5   6  -3    1.50    1.15
   5  -6   3    1.52    1.02
   9   5  -3    0.45    0.95
   9   5  -3    2.48    1.06
  -9  -5   3    2.12    1.17
  -9  -5   3    0.54    0.88
   8   5  -3    0.39    0.73
   8   5  -3    0.31    0.76
  -8  -5   3   -0.37    0.76
  -8  -5   3    0.14    0.79
  -8  -5   3    0.12    0.73
   7   5  -3    2.82    0.99
   7   5  -3    3.23    0.86
   7   5  -3    1.61    0.73
  -7  -5   3    1.35    0.80
  -7  -5   3    1.80    0.90
  -7  -5   3    1.63    0.76
   6   5  -3   -0.10    0.53
   6   5  -3    0.19    0.69
   6   5  -3    1.11    0.50
  -6  -5   3    0.59    0.58
  -6  -5   3    0.12    0.56
  -6  -5   3    0.81    0.70
   5   5  -3   27.07    2.20
   5   5  -3   29.01    2.00
  -5  -5   3   27.50    2.07
  -5  -5   3   31.08    2.19
  -5  -5   3   30.26    2.03
   4   5  -3    0.43    0.45
   4   5  -3    1.88    0.69
   4   5  -3    1.66    0.55
  -4  -5   3    1.63    0.59
  -4  -5   3    1.10    0.46
  -4  -5   3    1.55    0.51
  -4  -5   3    0.84    0.46
   3   5  -3   59.92    3.32
   3   5  -3   59.77    3.64
   3   5  -3   63.72    3.71
  -3  -5   3   62.50    3.61
  -3  -5   3   59.12    3.32
  -3  -5   3   60.68    3.47
  -3  -5   3   57.92    3.39
   2   5  -3    5.87    0.87
   2   5  -3    4.25    0.82
   2   5  -3    5.42    0.70
  -2  -5   3    4.34    0.75
  -2  -5   3    5.66    0.84
  -2  -5   3    6.16    0.87
  -2  -5   3    6.39    0.73
   1   5  -3   40.36    2.71
   1   5  -3   43.98    2.76
   1   5  -3   42.66    2.66
  -1  -5   3   40.47    2.42
  -1  -5   3   40.66    2.39
  -1  -5   3   44.34    2.66
  -1  -5   3   42.75    2.57
   0   5  -3    7.34    1.01
   0   5  -3    5.41    0.90
   0   5  -3    6.93    0.93
   0  -5   3    7.29    0.99
   0  -5   3    8.12    1.07
   0  -5   3    6.44    0.87
  -1   5  -3    7.45    1.10
  -1   5  -3    4.41    0.87
   1  -5   3    4.27    0.75
   1  -5   3    4.74    0.79
   1  -5   3    5.46    0.92
   1  -5   3    4.14    0.84
  -2   5  -3    9.66    1.17
  -2   5  -3   12.40    1.43
  -2   5  -3   10.51    1.47
  -2   5  -3   10.15    1.12
   2  -5   3   11.06    1.37
   2  -5   3   11.36    1.20
   2  -5   3   14.29    1.57
   2  -5   3   10.53    1.15
  -3   5  -3   21.37    2.10
  -3   5  -3   20.54    1.76
  -3   5  -3   22.72    1.92
   3  -5   3   22.04    1.84
   3  -5   3   19.69    1.53
   3  -5   3   19.97    1.85
  -4   5  -3   11.58    1.65
  -4   5  -3   14.56    1.71
  -4   5  -3    8.44    1.52
   4  -5   3   13.69    1.73
   4  -5   3   13.36    1.71
  -5   5  -3    0.14    0.67
  -5   5  -3   -0.29    0.87
   5  -5   3    0.25    0.60
   5  -5   3    0.70    0.93
  -6   5  -3    3.61    1.38
  -6   5  -3    0.67    0.87
   6  -5   3    4.44    1.25
   9   4  -3   -0.19    0.87
   9   4  -3    0.51    0.87
  -9  -4   3    0.72    0.88
  -9  -4   3    1.02    1.03
   8   4  -3    3.37    0.97
   8   4  -3    4.66    1.16
  -8  -4   3    1.91    0.87
  -8  -4   3    2.14    0.99
   7   4  -3    5.32    1.08
   7   4  -3    5.15    0.97
   7   4  -3    4.85    0.98
  -7  -4   3    4.11    1.00
  -7  -4   3    5.54    1.11
  -7  -4   3    5.65    1.13
   6   4  -3    2.66    0.72
   6   4  -3    2.93    0.72
   6   4  -3    1.98    0.71
   6   4  -3    2.27    0.63
  -6  -4   3    2.42    0.76
  -6  -4   3    1.44    0.74
  -6  -4   3    2.05    0.74
   5   4  -3   24.77    2.00
   5   4  -3   26.26    1.75
   5   4  -3   27.76    1.86
   5   4  -3   24.97    1.78
  -5  -4   3   25.62    1.83
  -5  -4   3   28.53    1.99
  -5  -4   3   24.96    1.94
   4   4  -3    1.48    0.50
   4   4  -3    1.99    0.43
   4   4  -3    1.92    0.49
   4   4  -3    2.54    0.69
  -4  -4   3    1.18    0.48
  -4  -4   3    2.86    0.67
  -4  -4   3    1.14    0.46
  -4  -4   3    1.45    0.52
   3   4  -3   44.15    2.34
   3   4  -3   38.80    2.16
   3   4  -3   40.84    2.46
  -3  -4   3   38.16    2.32
  -3  -4   3   41.32    2.34
  -3  -4   3   35.97    2.43
   2   4  -3    5.16    0.71
   2   4  -3    4.61    0.75
   2   4  -3    4.21    0.37
   2   4  -3    4.07    0.52
  -2  -4   3    4.60    0.72
  -2  -4   3    5.19    0.71
  -2  -4   3    4.43    0.67
  -2  -4   3    5.14    0.61
   1   4  -3  209.13   10.50
   1   4  -3  202.15   11.48
   1   4  -3  197.05   10.91
  -1  -4   3  200.65   10.50
  -1  -4   3  205.99   10.17
  -1  -4   3  204.59   10.51
  -1  -4   3  202.19    9.65
  -1  -4   3  211.77   10.76
   0   4  -3   30.38    2.01
   0   4  -3   27.35    2.03
   0   4  -3   29.85    1.75
   0   4  -3   27.88    1.89
   0  -4   3   32.02    1.96
   0  -4   3   31.01    1.69
   0  -4   3   30.82    1.82
   0  -4   3   28.87    1.91
   0  -4   3   32.07    1.96
  -1   4  -3    0.41    0.37
  -1   4  -3    0.16    0.31
  -1   4  -3    0.46    0.34
  -1   4  -3    0.20    0.27
   1  -4   3   -0.04    0.27
   1  -4   3   -0.20    0.35
   1  -4   3    0.23    0.33
   1  -4   3    0.01    0.17
   1  -4   3   -0.05    0.33
   1  -4   3    0.14    0.21
  -2   4  -3   16.59    1.19
  -2   4  -3   16.34    1.24
  -2   4  -3   15.10    1.32
  -2   4  -3   13.95    1.38
   2  -4   3   15.32    1.20
   2  -4   3   16.14    1.35
   2  -4   3   15.05    1.18
   2  -4   3   17.65    2.65
   2  -4   3   15.80    1.36
  -3   4  -3   45.83    3.17
  -3   4  -3   42.73    2.81
  -3   4  -3   40.48    2.79
   3  -4   3   39.34    2.73
   3  -4   3   45.93    2.50
   3  -4   3   48.47    5.62
   3  -4   3   42.20    2.83
  -4   4  -3    6.23    1.12
  -4   4  -3    7.55    3.55
  -4   4  -3    3.27    0.87
   4  -4   3    5.55    1.09
   4  -4   3    5.28    1.11
   4  -4   3    6.10    0.89
   4  -4   3    4.72    0.99
  -5   4  -3    2.44    0.95
  -5   4  -3    0.61    0.94
   5  -4   3    2.48    0.93
   5  -4   3    2.96    0.88
   5  -4   3    2.03    0.68
  -6   4  -3    8.43    1.53
  -6   4  -3    7.62    1.63
   6  -4   3    8.07    1.44
  -7   4  -3    0.92    1.30
  -7   4  -3    1.63    1.14
   7  -4   3    2.34    1.19
   9   3  -3   -0.69    0.76
   9   3  -3    0.01    0.89
   9   3  -3   -0.25    0.64
  -9  -3   3   -0.04    1.73
   8   3  -3    0.77    0.78
   8   3  -3   -0.53    0.57
  -8  -3   3   -0.07    0.66
  -8  -3   3   -0.36    0.72
   7   3  -3    3.50    0.96
   7   3  -3    5.66    1.02
   7   3  -3    4.98    0.96
  -7  -3   3    4.83    1.51
  -7  -3   3    2.78    0.89
  -7  -3   3    4.24    1.13
   6   3  -3   19.22    2.90
   6   3  -3   18.54    1.59
   6   3  -3   17.63    1.46
  -6  -3   3   21.48    1.73
  -6  -3   3   18.44    1.61
  -6  -3   3   19.55    1.93
  -6  -3   3   17.92    1.67
   5   3  -3   11.17    1.19
   5   3  -3   13.49    1.19
   5   3  -3   12.22    1.37
   5   3  -3   13.77    1.32
  -5  -3   3   14.68    1.24
  -5  -3   3   14.65    1.51
  -5  -3   3   15.05    1.75
  -5  -3   3   15.34    1.59
   4   3  -3   16.60    1.26
   4   3  -3   15.43    1.21
   4   3  -3   17.08    1.42
   4   3  -3   18.25    1.23
  -4  -3   3   18.60    1.37
  -4  -3   3   19.86    1.36
  -4  -3   3   17.74    1.39
  -4  -3   3   16.76    1.45
   3   3  -3   74.53    4.20
   3   3  -3   78.04    3.81
   3   3  -3   69.16    4.20
   3   3  -3   74.10    4.12
   3   3  -3   75.43    3.89
  -3  -3   3   69.80    3.92
  -3  -3   3   75.86    4.13
  -3  -3   3   76.88    3.82
  -3  -3   3   72.92    4.27
  -3  -3   3   78.46    4.22
   2   3  -3    3.83    0.66
   2   3  -3    3.39    0.52
   2   3  -3    4.68    0.48
   2   3  -3    2.87    0.41
  -2  -3   3    3.96    0.43
  -2  -3   3    4.28    0.60
  -2  -3   3    3.60    0.59
  -2  -3   3    3.36    0.48
  -2  -3   3    4.48    0.60
   1   3  -3   20.57    1.50
   1   3  -3   23.37    1.23
   1   3  -3   24.43    1.19
   1   3  -3   23.19    1.51
   1   3  -3   23.99    1.55
  -1  -3   3   22.33    1.46
  -1  -3   3   24.06    1.46
  -1  -3   3   24.40    1.47
  -1  -3   3   22.83    1.35
  -1  -3   3   21.95    1.54
   0   3  -3    0.47    0.29
   0   3  -3    0.83    0.31
   0   3  -3    0.77    0.20
   0   3  -3    0.87    0.32
   0  -3   3    0.82    0.31
   0  -3   3    0.90    0.34
   0  -3   3    1.07    0.18
   0  -3   3    0.82    0.34
   0  -3   3    1.19    0.35
  -1   3  -3   87.08    5.01
  -1   3  -3   88.22    5.34
  -1   3  -3   91.90    4.76
  -1   3  -3   84.01    5.00
   1  -3   3   90.68    4.68
   1  -3   3   95.09    4.81
   1  -3   3   97.55    4.79
   1  -3   3   89.82    4.51
   1  -3   3   89.99    4.48
  -2   3  -3   -0.36    0.30
  -2   3  -3    0.31    0.30
  -2   3  -3    0.09    0.30
  -2   3  -3   -0.19    0.18
   2  -3   3   -0.11    0.32
   2  -3   3    0.10    0.22
   2  -3   3    0.26    0.28
   2  -3   3    0.31    0.29
   2  -3   3    0.12    0.21
   2  -3   3    0.00    0.19
  -3   3  -3   57.63    3.55
  -3   3  -3   63.15    3.49
  -3   3  -3   58.07    3.24
  -3   3  -3   56.45    3.81
   3  -3   3   59.01    3.09
   3  -3   3   57.16    3.22
   3  -3   3   58.84    3.39
   3  -3   3   54.60    3.16
  -4   3  -3    1.60    0.78
  -4   3  -3    1.03    0.57
  -4   3  -3    1.34    0.59
   4  -3   3    0.51    0.47
   4  -3   3    0.92    0.47
   4  -3   3    1.83    0.54
   4  -3   3    1.11    0.55
  -5   3  -3    8.47    3.79
  -5   3  -3    7.41    1.29
   5  -3   3   10.91    1.42
   5  -3   3    6.72    1.13
   5  -3   3    7.07    1.00
   5  -3   3    8.42    1.18
  -6   3  -3   -0.01    0.71
  -6   3  -3   -0.52    0.83
   6  -3   3    0.19    0.56
   6  -3   3   -0.03    0.74
   6  -3   3    0.18    0.76
   6  -3   3   -0.03    0.66
  -7   3  -3    1.77    0.98
  -7   3  -3   -0.05    1.04
   7  -3   3    1.54    0.99
   7  -3   3    0.37    0.88
  -8   3  -3    0.34    1.04
  -8   3  -3   -1.08    1.30
   8  -3   3    0.92    1.07
   8   2  -3    0.03    0.56
   8   2  -3    0.92    0.81
   8   2  -3    0.35    0.69
  -8  -2   3    0.10    0.75
  -8  -2   3    0.36    0.82
  -8  -2   3   -0.39    1.18
   7   2  -3    0.85    0.67
   7   2  -3    1.22    0.77
   7   2  -3    0.97    0.60
   7   2  -3    2.62    0.75
  -7  -2   3    3.02    1.01
  -7  -2   3    1.58    0.85
  -7  -2   3    1.70    1.22
   6   2  -3    1.16    0.64
   6   2  -3    1.07    0.52
   6   2  -3    1.21    0.62
  -6  -2   3    1.32    0.77
  -6  -2   3    1.85    0.83
  -6  -2   3    2.26    0.96
   5   2  -3    7.92    0.94
   5   2  -3    9.69    1.09
   5   2  -3    9.31    1.08
   5   2  -3    7.11    0.93
  -5  -2   3    6.33    0.97
  -5  -2   3   11.34    1.54
  -5  -2   3    8.03    1.11
  -5  -2   3    8.97    1.18
   4   2  -3   16.96    1.17
   4   2  -3   16.20    1.18
   4   2  -3   16.82    1.22
   4   2  -3   15.17    1.27
  -4  -2   3   14.69    1.24
  -4  -2   3   15.81    1.29
  -4  -2   3   13.99    1.17
   3   2  -3  127.77    7.37
   3   2  -3  142.26    7.11
   3   2  -3  132.91    7.28
   3   2  -3  136.93    6.65
  -3  -2   3  128.11    7.81
  -3  -2   3  143.23    6.70
  -3  -2   3  141.70    7.48
  -3  -2   3  142.06    7.83
  -3  -2   3  149.11    7.45
  -3  -2   3  152.49    7.05
   2   2  -3   34.38    1.82
   2   2  -3   31.06    1.91
   2   2  -3   31.42    1.81
   2   2  -3   31.68    1.98
   2   2  -3   32.89    1.96
  -2  -2   3   32.37    2.01
  -2  -2   3   32.64    1.97
  -2  -2   3   32.78    1.99
  -2  -2   3   28.54    1.88
  -2  -2   3   33.71    1.98
  -2  -2   3   35.73    1.89
  -2  -2   3   33.68    1.85
   1   2  -3   13.13    0.84
   1   2  -3   12.44    0.96
   1   2  -3   13.94    0.77
   1   2  -3   15.47    0.95
   1   2  -3   13.43    0.95
  -1  -2   3   14.10    0.93
  -1  -2   3   13.21    0.84
  -1  -2   3   13.09    0.98
  -1  -2   3   12.81    0.91
  -1  -2   3   12.36    0.88
  -1  -2   3   11.62    0.83
   0   2  -3   25.12    1.61
   0   2  -3   25.29    1.30
   0   2  -3   28.97    1.70
   0   2  -3   26.57    1.49
   0  -2   3   26.26    1.52
   0  -2   3   22.93    1.54
   0  -2   3   25.75    1.33
   0  -2   3   28.06    1.55
  -1   2  -3  140.89    7.78
  -1   2  -3  139.13    8.14
  -1   2  -3  146.74    7.66
   1  -2   3  148.12    6.80
   1  -2   3  145.97    7.51
   1  -2   3  140.62    7.29
   1  -2   3  148.94    7.08
   1  -2   3  134.85    7.18
  -2   2  -3    1.95    0.43
  -2   2  -3    2.94    0.48
  -2   2  -3    2.81    0.56
  -2   2  -3    3.17    0.34
   2  -2   3    2.33    0.45
   2  -2   3    3.51    0.42
   2  -2   3    3.72    0.61
   2  -2   3    2.61    0.41
   2  -2   3    2.66    0.50
  -3   2  -3    0.24    0.24
  -3   2  -3    0.03    0.14
  -3   2  -3    0.04    0.36
  -3   2  -3    0.56    0.41
   3  -2   3    0.54    0.35
   3  -2   3    0.58    0.34
   3  -2   3    0.70    0.41
   3  -2   3    0.40    0.27
   3  -2   3    0.65    0.27
  -4   2  -3   22.86    1.74
  -4   2  -3   23.29    1.89
  -4   2  -3   22.43    1.52
  -4   2  -3   22.75    1.58
   4  -2   3   21.97    1.41
   4  -2   3   21.43    1.59
   4  -2   3   24.58    1.50
   4  -2   3   22.71    1.57
   4  -2   3   21.54    1.63
  -5   2  -3   16.85    1.80
  -5   2  -3   17.97    1.97
  -5   2  -3   14.67    1.27
   5  -2   3   12.76    1.44
   5  -2   3   16.16    1.36
   5  -2   3   14.26    1.21
  -6   2  -3   -0.61    0.74
  -6   2  -3    0.04    0.71
   6  -2   3   -0.27    0.53
   6  -2   3   -0.10    0.63
   6  -2   3   -0.18    0.57
   6  -2   3   -0.52    0.53
  -7   2  -3    2.27    0.90
  -7   2  -3    4.13    1.38
   7  -2   3    1.68    0.89
   7  -2   3    2.38    0.94
   7  -2   3    1.36    0.73
  -8   2  -3    0.87    1.44
  -8   2  -3    0.39    0.69
   8  -2   3    0.91    1.01
   8   1  -3   -0.17    0.49
   8   1  -3    0.24    0.81
  -8  -1   3   -0.44    0.76
  -8  -1   3   -0.45    0.90
  -8  -1   3    0.86    1.39
   7   1  -3    0.03    0.58
   7   1  -3   -0.43    0.49
   7   1  -3   -0.06    0.69
   7   1  -3   -0.03    0.52
  -7  -1   3    0.75    1.15
  -7  -1   3    0.25    0.71
  -7  -1   3   -0.21    0.76
   6   1  -3    5.01    1.01
   6   1  -3    6.82    1.07
   6   1  -3    4.95    0.84
   6   1  -3    5.73    1.00
  -6  -1   3    5.68    1.09
  -6  -1   3    6.80    3.03
  -6  -1   3    9.49    1.70
   5   1  -3    2.18    0.64
   5   1  -3    1.54    0.55
   5   1  -3    2.03    0.52
  -5  -1   3    1.53    0.78
  -5  -1   3    0.65    0.58
  -5  -1   3    1.71    0.69
   4   1  -3    3.91    0.67
   4   1  -3    4.78    0.66
   4   1  -3    5.20    0.66
   4   1  -3    5.03    0.74
  -4  -1   3    3.68    0.67
  -4  -1   3    4.18    0.94
  -4  -1   3    3.28    0.57
  -4  -1   3    3.87    0.74
  -4  -1   3    3.70    0.70
   3   1  -3    8.88    0.74
   3   1  -3    8.40    0.80
   3   1  -3    9.05    0.67
   3   1  -3    8.48    0.91
   3   1  -3    8.54    0.77
  -3  -1   3    9.63    1.13
  -3  -1   3   10.35    0.71
  -3  -1   3    9.72    0.85
  -3  -1   3    8.90    0.78
  -3  -1   3   10.74    0.82
  -3  -1   3    9.34    0.85
   2   1  -3    0.82    0.27
   2   1  -3    1.18    0.32
   2   1  -3    0.59    0.21
   2   1  -3    1.27    0.30
  -2  -1   3    0.57    0.24
  -2  -1   3    0.34    0.23
  -2  -1   3    0.99    0.31
  -2  -1   3    1.15    0.32
  -2  -1   3    0.84    0.25
  -2  -1   3    0.83    0.25
  -2  -1   3    0.04    0.14
   1   1  -3   24.62    1.35
   1   1  -3   20.99    1.32
   1   1  -3   21.56    1.39
   1   1  -3   22.18    1.25
  -1  -1   3   22.73    1.26
  -1  -1   3   22.07    1.34
  -1  -1   3   17.71    1.31
  -1  -1   3   22.13    1.26
  -1  -1   3   22.84    1.40
  -1  -1   3   17.05    1.25
  -1  -1   3   23.24    1.38
  -1  -1   3   26.29    1.35
  -1  -1   3   22.25    1.32
   0   1  -3   12.02    0.84
   0   1  -3   11.10    0.79
   0   1  -3   11.12    0.85
   0  -1   3   11.16    0.76
   0  -1   3   12.52    0.87
   0  -1   3   13.24    0.77
   0  -1   3   12.60    0.84
   0  -1   3   12.79    0.79
   0  -1   3   13.33    0.73
   0  -1   3   12.63    0.84
  -1   1  -3  263.26   14.55
  -1   1  -3  266.68   14.03
  -1   1  -3  258.29   13.64
   1  -1   3  267.48   13.68
   1  -1   3  266.60   12.83
   1  -1   3  252.37   12.98
   1  -1   3  263.22   12.02
   1  -1   3  251.54   12.68
   1  -1   3  262.14   13.36
  -2   1  -3   12.42    1.01
  -2   1  -3   14.01    0.93
  -2   1  -3   13.28    0.78
  -2   1  -3   13.47    0.94
   2  -1   3   11.53    0.85
   2  -1   3   13.69    0.96
   2  -1   3   12.64    0.85
   2  -1   3   12.70    0.82
   2  -1   3   12.62    0.87
  -3   1  -3   35.34    2.34
  -3   1  -3   36.78    2.10
  -3   1  -3   32.92    2.21
  -3   1  -3   35.14    2.00
   3  -1   3   32.62    2.04
   3  -1   3   35.49    2.08
   3  -1   3   37.42    2.03
   3  -1   3   35.10    1.98
   3  -1   3   37.11    1.95
  -4   1  -3    1.43    0.38
  -4   1  -3    1.52    0.39
  -4   1  -3    1.87    0.57
  -4   1  -3    0.81    0.44
   4  -1   3    1.51    0.42
   4  -1   3    1.17    0.32
   4  -1   3    1.40    0.41
   4  -1   3    1.34    0.44
   4  -1   3    1.63    0.44
  -5   1  -3   21.98    1.82
  -5   1  -3   22.72    1.62
  -5   1  -3   23.46    1.93
   5  -1   3   20.76    1.51
   5  -1   3   24.76    1.70
   5  -1   3   25.31    1.69
   5  -1   3   23.50    1.70
  -6   1  -3    4.74    0.83
  -6   1  -3    3.31    0.92
  -6   1  -3    3.31    0.99
   6  -1   3    3.36    0.79
   6  -1   3    3.56    0.80
   6  -1   3    4.66    0.80
  -7   1  -3    0.07    0.64
  -7   1  -3   -0.51    0.77
  -7   1  -3    0.26    0.69
   7  -1   3    0.49    0.62
   7  -1   3    0.50    0.58
   7  -1   3   -0.41    0.52
  -8   1  -3   -0.05    0.54
   8  -1   3    0.41    0.82
   8  -1   3    0.00    0.74
  -9   1  -3    0.80    0.81
   9  -1   3    1.94    1.27
   9  -1   3    1.50    1.13
   8   0  -3    2.40    0.81
   8   0  -3    4.65    2.69
  -8   0   3    5.45    1.67
  -8   0   3    2.45    1.00
  -8   0   3    3.66    1.29
   7   0  -3    0.53    0.65
   7   0  -3    1.03    0.75
  -7   0   3    1.31    1.27
  -7   0   3    0.14    0.79
  -7   0   3   -0.21    0.74
   6   0  -3    1.11    0.59
   6   0  -3    0.44    0.65
   6   0  -3    0.52    0.61
   6   0  -3    1.42    0.67
  -6   0   3    0.40    0.68
  -6   0   3    0.57    0.68
  -6   0   3    1.64    0.99
   5   0  -3   13.46    1.45
   5   0  -3   13.39    1.35
   5   0  -3   10.33    1.08
   5   0  -3   14.23    1.57
  -5   0   3   10.98    1.39
  -5   0   3   11.49    1.75
  -5   0   3   10.22    1.34
  -5   0   3   10.22    1.27
   4   0  -3   32.37    2.19
   4   0  -3   35.73    2.14
   4   0  -3   33.15    2.25
   4   0  -3   36.42    1.94
  -4   0   3   30.44    2.48
  -4   0   3   33.84    2.30
  -4   0   3   32.25    2.23
  -4   0   3   34.62    2.55
   3   0  -3    1.04    0.40
   3   0  -3    1.80    0.44
   3   0  -3    1.15    0.41
   3   0  -3    1.76    0.38
   3   0  -3    0.89    0.30
  -3   0   3    1.85    0.32
  -3   0   3    1.60    0.57
  -3   0   3    1.71    0.47
  -3   0   3    1.84    0.47
  -3   0   3    1.39    0.42
  -3   0   3    1.93    0.44
   2   0  -3   35.98    2.06
   2   0  -3   39.84    2.17
   2   0  -3   35.36    1.89
   2   0  -3   33.01    2.00
  -2   0   3   39.33    2.09
  -2   0   3   35.66    2.18
  -2   0   3   39.00    2.10
  -2   0   3   35.43    2.18
  -2   0   3   35.01    2.39
  -2   0   3   39.27    2.06
  -2   0   3   38.64    2.26
   1   0  -3  128.98    6.63
  -1   0   3  135.81    6.72
  -1   0   3  123.21    7.38
  -1   0   3  138.38    6.87
  -1   0   3  118.34    6.59
  -1   0   3  131.76    6.42
  -1   0   3  142.47    6.87
  -1   0   3  129.42    7.25
   0   0  -3   20.13    1.14
   0   0  -3   19.27    1.19
   0   0   3   18.12    1.14
   0   0   3   18.61    1.23
   0   0   3   18.16    1.06
   0   0   3   16.97    1.17
   0   0   3   18.86    1.06
   0   0   3   18.00    1.09
   0   0   3   18.96    1.15
   0   0   3   18.03    1.02
   0   0   3   19.16    1.12
  -1   0  -3   65.09    3.38
  -1   0  -3   65.32    3.77
  -1   0  -3   65.37    3.62
   1   0   3   65.59    3.32
   1   0   3   67.52    3.15
   1   0   3   68.31    3.26
   1   0   3   62.56    3.36
   1   0   3   59.04    3.52
  -2   0  -3   36.65    2.19
  -2   0  -3   38.42    2.29
  -2   0  -3   37.30    2.11
  -2   0  -3   34.36    1.99
   2   0   3   38.24    1.92
   2   0   3   35.73    1.99
   2   0   3   35.68    2.11
   2   0   3   39.72    2.04
  -3   0  -3  140.54    7.86
  -3   0  -3  135.45    7.49
  -3   0  -3  148.91    7.39
  -3   0  -3  143.32    7.39
  -3   0  -3  131.26    8.08
   3   0   3  138.30    7.18
   3   0   3  139.72    7.38
   3   0   3  144.37    7.19
   3   0   3  154.88    7.56
   3   0   3  140.74    7.05
   3   0   3  144.68    6.70
  -4   0  -3    8.27    0.95
  -4   0  -3    6.62    0.66
  -4   0  -3    7.64    0.63
  -4   0  -3   10.10    1.06
  -4   0  -3    7.40    0.69
   4   0   3    8.08    0.67
   4   0   3    6.78    0.77
   4   0   3    7.15    0.75
   4   0   3    6.93    0.67
   4   0   3    8.03    0.83
  -5   0  -3    6.02    0.81
  -5   0  -3    8.66    0.95
  -5   0  -3    8.02    1.12
  -5   0  -3    7.61    1.05
   5   0   3    7.22    0.75
   5   0   3    6.37    0.80
   5   0   3    6.37    0.86
   5   0   3    7.55    0.89
   5   0   3    7.56    0.92
  -6   0  -3   17.73    1.65
  -6   0  -3   17.32    1.43
  -6   0  -3   16.78    1.62
  -6   0  -3   18.29    1.45
   6   0   3   18.74    1.36
   6   0   3   13.09    1.34
   6   0   3   18.16    1.46
   6   0   3   18.31    1.49
  -7   0  -3    2.54    0.87
  -7   0  -3    3.02    1.90
  -7   0  -3    3.17    0.78
   7   0   3    3.34    0.87
   7   0   3    3.72    0.82
   7   0   3    2.64    0.76
  -8   0  -3    0.53    0.66
  -8   0  -3    3.01    1.03
   8   0   3    0.34    0.66
   8   0   3    0.20    0.77
   8   0   3    1.70    0.74
  -9   0  -3   -0.06    0.59
  -9   0  -3    1.58    1.05
   9   0   3    0.76    0.91
   9   0   3    1.61    0.95
   8  -1  -3    0.63    0.71
   8  -1  -3    1.85    1.03
  -8   1   3    2.18    1.29
  -8   1   3    1.92    1.33
   7  -1  -3    1.42    0.84
   7  -1  -3    0.55    0.54
  -7   1   3    0.58    0.86
  -7   1   3    0.17    0.74
  -7   1   3    1.68    1.15
   6  -1  -3    1.83    0.79
   6  -1  -3    0.63    1.58
   6  -1  -3    2.80    0.80
  -6   1   3    0.85    0.81
  -6   1   3    1.80    0.90
  -6   1   3    1.63    1.01
   5  -1  -3   -0.14    0.43
   5  -1  -3   -0.29    0.47
   5  -1  -3    0.96    0.61
   5  -1  -3    0.61    0.43
  -5   1   3    0.50    0.77
  -5   1   3    0.54    0.61
  -5   1   3    0.11    0.54
  -5   1   3    1.48    0.75
   4  -1  -3   36.56    2.00
   4  -1  -3   30.58    2.32
   4  -1  -3   35.60    2.22
   4  -1  -3   35.78    2.37
  -4   1   3   36.48    2.41
  -4   1   3   34.60    2.38
  -4   1   3   36.15    2.54
  -4   1   3   38.83    2.76
   3  -1  -3    1.79    0.44
   3  -1  -3    1.82    0.48
   3  -1  -3    3.50    0.67
   3  -1  -3    2.26    0.38
  -3   1   3    2.36    0.56
  -3   1   3    2.77    0.60
  -3   1   3    2.46    0.39
  -3   1   3    2.71    0.60
  -3   1   3    3.69    0.89
   2  -1  -3   14.55    0.87
   2  -1  -3   14.93    1.10
   2  -1  -3   14.97    0.83
   2  -1  -3   14.19    1.06
   2  -1  -3   14.30    0.95
  -2   1   3   16.22    1.28
  -2   1   3   13.33    1.04
  -2   1   3   11.72    1.00
  -2   1   3   12.93    1.08
  -2   1   3   12.84    1.16
  -2   1   3   10.89    0.89
  -2   1   3   12.91    0.86
   1  -1  -3   24.33    1.63
   1  -1  -3   28.44    1.50
   1  -1  -3   25.68    1.62
   1  -1  -3   23.10    1.34
  -1   1   3   30.81    1.51
  -1   1   3   29.72    1.38
  -1   1   3   25.35    1.80
  -1   1   3   28.68    1.65
  -1   1   3   25.48    1.74
  -1   1   3   27.42    1.67
  -1   1   3   27.03    1.74
   0  -1  -3  357.65   19.03
   0  -1  -3  386.14   17.74
   0  -1  -3  368.80   18.99
   0   1   3  357.36   19.02
   0   1   3  405.32   17.75
   0   1   3  387.18   16.82
   0   1   3  388.49   19.27
   0   1   3  364.18   19.97
   0   1   3  340.40   18.37
   0   1   3  354.83   20.55
  -1  -1  -3   19.25    1.21
  -1  -1  -3   19.45    1.16
   1   1   3   15.23    1.22
   1   1   3   18.55    1.10
   1   1   3   21.23    1.18
   1   1   3   19.00    1.13
  -2  -1  -3   46.62    2.42
  -2  -1  -3   39.60    2.57
  -2  -1  -3   46.97    2.67
   2   1   3   40.43    2.37
   2   1   3   47.47    2.22
   2   1   3   43.55    2.37
   2   1   3   43.30    2.25
   2   1   3   46.47    2.48
  -3  -1  -3  120.92    6.73
  -3  -1  -3  125.48    7.33
  -3  -1  -3  143.55    6.70
  -3  -1  -3  125.57    7.15
   3   1   3  127.68    6.07
   3   1   3  125.45    6.55
   3   1   3  129.78    6.56
   3   1   3  132.50    6.83
  -4  -1  -3  101.05    5.76
  -4  -1  -3   99.61    5.36
  -4  -1  -3   96.31    5.37
  -4  -1  -3  107.30    5.88
  -4  -1  -3   97.22    5.40
   4   1   3   98.04    5.22
   4   1   3   94.18    5.11
   4   1   3  106.17    4.92
   4   1   3  102.14    5.28
   4   1   3  108.25    5.42
  -5  -1  -3    0.08    0.17
  -5  -1  -3    0.17    0.77
  -5  -1  -3    1.15    0.48
  -5  -1  -3    1.40    0.44
   5   1   3    0.47    0.36
   5   1   3    0.75    0.32
   5   1   3    0.31    0.34
   5   1   3    0.68    0.40
   5   1   3    1.21    0.40
  -6  -1  -3    4.85    0.94
  -6  -1  -3    5.11    0.80
  -6  -1  -3    3.94    0.75
   6   1   3    3.95    0.63
   6   1   3    2.84    0.59
   6   1   3    4.32    0.74
   6   1   3    5.00    0.81
   6   1   3    4.14    0.77
  -7  -1  -3   14.25    1.76
  -7  -1  -3   13.30    1.49
  -7  -1  -3   14.71    1.75
  -7  -1  -3   13.64    1.51
   7   1   3   13.34    1.37
   7   1   3   13.46    1.50
   7   1   3   16.76    1.67
  -8  -1  -3    3.09    0.99
  -8  -1  -3    4.87    1.01
   8   1   3    4.79    1.09
   8   1   3    5.58    1.10
   8   1   3    6.69    1.06
  -9  -1  -3    0.17    0.70
  -9  -1  -3    0.73    0.83
   9   1   3   -0.60    0.76
   9   1   3    0.72    0.77
   7  -2  -3    0.27    0.55
   7  -2  -3   -0.37    0.71
  -7   2   3    0.91    1.10
  -7   2   3    0.14    0.75
   6  -2  -3    3.64    2.68
   6  -2  -3    2.40    0.83
   6  -2  -3    3.46    0.91
  -6   2   3    3.11    1.05
  -6   2   3    4.28    1.35
  -6   2   3    3.35    1.15
   5  -2  -3    1.46    0.68
   5  -2  -3    0.84    0.70
   5  -2  -3    1.40    0.62
  -5   2   3    1.59    0.87
  -5   2   3    1.40    0.84
  -5   2   3    2.37    0.99
   4  -2  -3   20.57    1.69
   4  -2  -3   23.02    4.19
   4  -2  -3   21.06    1.73
  -4   2   3   20.73    1.71
  -4   2   3   19.26    1.84
  -4   2   3   21.61    1.98
   3  -2  -3    9.73    0.72
   3  -2  -3    9.40    0.98
   3  -2  -3    8.28    1.10
   3  -2  -3   13.69    1.37
  -3   2   3   11.23    1.50
  -3   2   3   10.72    1.23
  -3   2   3    9.45    0.82
  -3   2   3   10.01    1.30
   2  -2  -3    8.57    0.75
   2  -2  -3    9.06    0.61
   2  -2  -3   10.21    0.91
   2  -2  -3    7.53    0.97
  -2   2   3    9.76    0.78
  -2   2   3   10.08    0.92
  -2   2   3   12.13    1.37
  -2   2   3    8.10    1.10
  -2   2   3   10.85    1.01
   1  -2  -3   69.97    3.16
   1  -2  -3   66.22    3.46
   1  -2  -3   69.74    3.79
   1  -2  -3   69.33    3.87
  -1   2   3   62.81    3.80
  -1   2   3   68.34    4.11
  -1   2   3   69.96    3.47
  -1   2   3   70.67    3.85
  -1   2   3   61.69    4.04
   0  -2  -3   25.51    1.51
   0  -2  -3   25.23    1.61
   0  -2  -3   23.76    1.31
   0   2   3   25.69    1.62
   0   2   3   23.07    1.58
   0   2   3   24.03    1.51
   0   2   3   25.49    1.65
   0   2   3   25.18    1.38
   0   2   3   24.62    1.66
  -1  -2  -3   32.30    1.91
  -1  -2  -3   33.57    2.06
  -1  -2  -3   29.76    1.97
   1   2   3   35.51    2.10
   1   2   3   32.64    1.95
   1   2   3   34.50    1.92
   1   2   3   32.98    1.84
   1   2   3   34.15    1.63
   1   2   3   33.97    2.05
  -2  -2  -3   21.52    1.19
  -2  -2  -3   19.80    1.37
  -2  -2  -3   19.08    1.28
  -2  -2  -3   19.18    1.34
   2   2   3   20.77    1.38
   2   2   3   24.22    1.29
   2   2   3   20.95    1.26
   2   2   3   20.87    1.29
  -3  -2  -3   28.16    1.68
  -3  -2  -3   30.15    1.78
  -3  -2  -3   30.56    1.89
   3   2   3   28.62    3.12
   3   2   3   30.91    1.76
   3   2   3   29.49    1.74
   3   2   3   28.20    1.75
   3   2   3   32.38    1.61
  -4  -2  -3   18.91    1.29
  -4  -2  -3   14.74    1.14
  -4  -2  -3   17.62    1.10
  -4  -2  -3   17.06    1.21
   4   2   3   16.35    1.08
   4   2   3   16.18    1.15
   4   2   3   15.99    1.13
   4   2   3   17.46    1.11
  -5  -2  -3   11.43    1.03
  -5  -2  -3   13.50    1.01
  -5  -2  -3   13.63    1.09
  -5  -2  -3   12.96    1.15
   5   2   3   15.36    1.06
   5   2   3   13.34    1.01
   5   2   3   11.55    0.97
   5   2   3   11.62    1.04
   5   2   3   13.05    0.89
  -6  -2  -3    9.13    1.13
  -6  -2  -3   11.29    1.16
  -6  -2  -3   10.69    1.34
  -6  -2  -3    9.61    1.11
   6   2   3    8.84    2.56
   6   2   3    9.43    1.11
   6   2   3    9.85    1.07
   6   2   3   11.55    0.98
  -7  -2  -3   11.55    1.50
  -7  -2  -3   10.86    1.30
  -7  -2  -3    8.20    1.16
   7   2   3   12.16    1.35
   7   2   3    8.83    1.08
   7   2   3   10.31    2.32
  -8  -2  -3    3.85    0.96
  -8  -2  -3    3.71    1.01
   8   2   3    3.68    0.91
   8   2   3    6.17    1.13
   8   2   3    2.18    0.78
  -9  -2  -3    0.64    0.89
  -9  -2  -3   -0.05    0.74
   9   2   3    0.69    0.77
   9   2   3    0.23    0.70
 -10  -2  -3   -0.79    0.75
 -10  -2  -3    0.34    1.03
  10   2   3    0.03    0.83
  10   2   3    1.21    1.06
   7  -3  -3    0.79    1.05
   7  -3  -3   -0.16    0.60
  -7   3   3    1.24    0.90
  -7   3   3   -0.16    1.00
   6  -3  -3   15.25    1.76
  -6   3   3   13.69    1.93
  -6   3   3   14.69    2.27
   5  -3  -3    3.61    0.88
   5  -3  -3    2.97    0.82
   5  -3  -3    2.38    0.90
  -5   3   3    2.81    1.03
  -5   3   3    5.17    1.12
  -5   3   3    3.41    1.21
   4  -3  -3    8.95    1.30
   4  -3  -3   13.27    1.58
   4  -3  -3   10.19    1.26
  -4   3   3   14.60    1.65
  -4   3   3   11.49    1.72
  -4   3   3   14.10    1.91
   3  -3  -3    0.20    0.49
   3  -3  -3    0.47    0.50
   3  -3  -3    0.46    0.49
   3  -3  -3    0.73    0.40
  -3   3   3    0.33    0.52
  -3   3   3    0.71    0.57
  -3   3   3    0.18    0.36
  -3   3   3    0.31    0.61
   2  -3  -3  172.57    9.48
   2  -3  -3  180.66    8.78
   2  -3  -3  179.69    9.47
   2  -3  -3  164.77    9.14
  -2   3   3  179.06   10.29
  -2   3   3  174.71    9.46
  -2   3   3  182.03   10.06
  -2   3   3  165.74    9.30
  -2   3   3  184.38    9.43
   1  -3  -3   41.26    2.26
   1  -3  -3   40.98    2.52
   1  -3  -3   39.95    2.49
   1  -3  -3   38.41    2.57
  -1   3   3   41.32    2.63
  -1   3   3   43.42    2.79
  -1   3   3   43.19    2.79
  -1   3   3   42.38    2.19
  -1   3   3   41.05    2.59
  -1   3   3   43.03    2.50
   0  -3  -3  126.11    7.31
   0  -3  -3  139.63    6.66
   0  -3  -3  130.77    7.25
   0   3   3  140.66    7.14
   0   3   3  146.78    7.88
   0   3   3  133.56    7.66
   0   3   3  134.58    7.30
  -1  -3  -3   82.77    4.90
  -1  -3  -3   83.76    5.08
  -1  -3  -3   84.20    4.87
   1   3   3   93.21    4.74
   1   3   3   93.34    5.22
   1   3   3   95.10    5.12
   1   3   3   89.92    4.89
   1   3   3   91.99    4.63
  -2  -3  -3   98.28    5.29
  -2  -3  -3   95.36    5.01
  -2  -3  -3   98.89    5.10
   2   3   3   88.09    5.08
   2   3   3   88.16    4.85
   2   3   3   99.86    4.90
   2   3   3   90.42    4.39
   2   3   3   92.35    5.40
  -3  -3  -3    1.60    0.37
  -3  -3  -3    1.03    0.21
  -3  -3  -3    1.42    0.38
  -3  -3  -3    1.80    0.34
  -3  -3  -3    2.22    0.35
   3   3   3    1.27    0.30
   3   3   3    1.32    0.35
   3   3   3    1.90    0.38
   3   3   3    1.02    0.30
   3   3   3    1.34    0.35
   3   3   3    1.36    0.23
  -4  -3  -3   67.41    3.83
  -4  -3  -3   65.37    3.55
  -4  -3  -3   64.83    3.64
  -4  -3  -3   57.84    3.77
   4   3   3   63.70    3.58
   4   3   3   68.94    3.56
   4   3   3   64.97    3.33
   4   3   3   64.44    3.52
   4   3   3   66.40    3.28
  -5  -3  -3   15.43    1.12
  -5  -3  -3   15.04    1.27
  -5  -3  -3   14.88    1.20
  -5  -3  -3   14.43    1.13
   5   3   3   14.81    1.03
   5   3   3   14.10    1.15
   5   3   3   15.58    1.16
   5   3   3   16.68    1.14
  -6  -3  -3   32.17    2.15
  -6  -3  -3   33.27    2.23
  -6  -3  -3   32.97    2.34
   6   3   3   36.09    2.22
   6   3   3   35.58    2.15
   6   3   3   34.59    2.07
   6   3   3   31.99    2.06
  -7  -3  -3    8.69    1.33
  -7  -3  -3    7.98    1.14
  -7  -3  -3    8.34    1.13
   7   3   3    7.02    1.00
   7   3   3    8.73    1.15
   7   3   3    9.94    1.12
   7   3   3    9.08    1.13
  -8  -3  -3    1.18    0.76
  -8  -3  -3    0.83    0.79
  -8  -3  -3    0.77    0.73
   8   3   3    1.02    0.61
   8   3   3    1.14    0.70
   8   3   3    2.39    1.61
  -9  -3  -3    1.35    1.02
  -9  -3  -3    1.10    0.92
   9   3   3    1.56    0.82
   9   3   3    1.76    0.80
 -10  -3  -3    1.21    1.12
 -10  -3  -3    0.74    1.13
  10   3   3    0.58    0.98
  10   3   3    0.77    0.92
   6  -4  -3    0.92    0.87
   6  -4  -3    1.82    1.17
   6  -4  -3    0.04    0.64
  -6   4   3    0.52    1.01
  -6   4   3    1.37    0.89
  -6   4   3    0.56    1.28
   5  -4  -3    6.43    1.13
   5  -4  -3    3.45    0.89
   5  -4  -3    5.49    1.26
   5  -4  -3    7.26    1.44
  -5   4   3    7.36    1.39
  -5   4   3    7.25    1.67
  -5   4   3    2.97    1.03
   4  -4  -3   17.90    1.94
   4  -4  -3   12.48    1.44
   4  -4  -3   13.04    1.64
  -4   4   3   18.71    2.20
  -4   4   3   17.46    2.21
  -4   4   3    9.31    1.50
   3  -4  -3   -0.32    0.44
   3  -4  -3   -0.04    0.40
   3  -4  -3    0.35    0.56
   3  -4  -3   -0.14    0.53
  -3   4   3   -0.47    0.62
  -3   4   3   -0.49    0.50
  -3   4   3   -0.34    0.64
   2  -4  -3   92.59    5.49
   2  -4  -3   95.55    5.49
   2  -4  -3  102.13    5.05
  -2   4   3   96.43    5.85
  -2   4   3   98.64    5.52
  -2   4   3   90.48    5.98
  -2   4   3   92.74    5.50
   1  -4  -3   10.43    0.93
   1  -4  -3   12.64    1.19
   1  -4  -3   11.22    1.11
   1  -4  -3   12.88    1.14
  -1   4   3   13.73    1.32
  -1   4   3   12.84    1.26
  -1   4   3   14.92    1.14
  -1   4   3   12.71    1.21
  -1   4   3   12.18    1.39
   0  -4  -3   63.14    3.72
   0  -4  -3   62.44    3.76
   0  -4  -3   62.12    3.31
   0   4   3   66.93    3.72
   0   4   3   61.27    3.36
   0   4   3   62.16    3.89
   0   4   3   67.03    3.69
   0   4   3   64.97    4.01
  -1  -4  -3   10.04    1.11
  -1  -4  -3   10.38    0.94
  -1  -4  -3   10.08    0.93
  -1  -4  -3    8.11    0.66
   1   4   3    8.66    0.86
   1   4   3   10.31    0.90
   1   4   3   10.25    1.12
   1   4   3    8.78    0.88
  -2  -4  -3  255.29   12.53
  -2  -4  -3  261.69   13.61
  -2  -4  -3  250.26   14.20
  -2  -4  -3  257.06   13.62
   2   4   3  285.98   14.64
   2   4   3  267.68   11.91
   2   4   3  246.37   13.05
   2   4   3  268.92   13.78
   2   4   3  256.24   13.11
  -3  -4  -3   98.90    4.84
  -3  -4  -3   84.88    4.28
  -3  -4  -3   83.66    4.93
  -3  -4  -3   83.66    4.69
   3   4   3   79.59    4.77
   3   4   3   89.00    4.66
   3   4   3   77.16    4.15
   3   4   3   94.87    5.05
   3   4   3   92.00    4.59
  -4  -4  -3    1.96    0.44
  -4  -4  -3    1.27    0.30
  -4  -4  -3    1.20    0.32
  -4  -4  -3    1.82    0.46
  -4  -4  -3    2.13    0.51
   4   4   3    1.28    0.45
   4   4   3    1.53    0.40
   4   4   3    2.44    0.48
   4   4   3    2.03    0.41
   4   4   3    1.42    0.30
   4   4   3    2.30    0.42
  -5  -4  -3    4.54    0.59
  -5  -4  -3    4.80    0.61
  -5  -4  -3    5.41    0.78
  -5  -4  -3    4.83    0.76
  -5  -4  -3    5.37    0.70
   5   4   3    5.13    0.72
   5   4   3    3.42    0.53
   5   4   3    3.39    0.63
   5   4   3    6.05    0.80
   5   4   3    4.86    0.63
  -6  -4  -3   28.89    1.93
  -6  -4  -3   26.70    1.96
  -6  -4  -3   31.26    2.13
   6   4   3   29.06    1.82
   6   4   3   27.03    1.92
   6   4   3   27.06    1.91
   6   4   3   28.30    1.82
  -7  -4  -3    3.05    0.77
  -7  -4  -3    2.74    0.80
  -7  -4  -3    3.41    0.82
   7   4   3    2.77    0.66
   7   4   3    2.32    0.68
   7   4   3    3.15    0.72
   7   4   3    2.88    0.71
  -8  -4  -3    0.18    0.59
  -8  -4  -3    0.19    0.75
  -8  -4  -3   -0.52    0.66
   8   4   3    0.48    0.56
   8   4   3   -0.37    0.50
   8   4   3   -0.78    0.54
   8   4   3    0.33    0.63
  -9  -4  -3    2.27    0.99
  -9  -4  -3    1.26    1.02
   9   4   3    1.94    0.84
   9   4   3    1.75    0.81
 -10  -4  -3    0.75    1.35
 -10  -4  -3    0.50    0.97
  10   4   3    2.56    2.72
  10   4   3    1.41    0.96
   6  -5  -3    0.52    1.31
   6  -5  -3   -0.90    0.84
   6  -5  -3   -0.11    0.77
  -6   5   3   -0.32    0.86
  -6   5   3   -1.58    1.37
  -6   5   3    0.48    1.22
   5  -5  -3   -0.52    0.82
   5  -5  -3    0.02    0.74
   5  -5  -3    0.02    0.52
  -5   5   3   -1.04    1.06
  -5   5   3   -0.47    1.00
  -5   5   3    0.11    0.82
   4  -5  -3    5.63    1.09
   4  -5  -3    2.80    0.86
   4  -5  -3    2.79    1.00
   4  -5  -3    5.53    1.25
  -4   5   3    4.03    1.19
  -4   5   3    4.29    1.37
  -4   5   3    3.98    1.27
   3  -5  -3   32.31    2.51
   3  -5  -3   34.66    2.30
   3  -5  -3   30.31    2.49
  -3   5   3   33.69    2.91
  -3   5   3   32.28    2.52
  -3   5   3   35.21    2.75
   2  -5  -3    2.16    0.71
   2  -5  -3    2.76    0.80
   2  -5  -3    1.99    0.71
   2  -5  -3    2.54    0.69
  -2   5   3    2.93    0.76
  -2   5   3    2.62    0.80
  -2   5   3    3.05    1.04
  -2   5   3    2.25    0.84
  -2   5   3    1.07    0.75
   1  -5  -3   33.12    2.22
   1  -5  -3   27.75    2.13
   1  -5  -3   29.69    2.07
   1  -5  -3   27.64    1.85
  -1   5   3   31.60    2.23
  -1   5   3   27.63    2.35
  -1   5   3   32.48    2.33
  -1   5   3   28.87    2.11
   0  -5  -3   47.50    3.04
   0  -5  -3   46.35    2.66
   0  -5  -3   50.54    3.08
   0   5   3   46.49    3.12
   0   5   3   46.17    3.23
   0   5   3   47.25    2.96
   0   5   3   46.95    2.65
   0   5   3   48.74    3.02
  -1  -5  -3   15.21    1.26
  -1  -5  -3   16.19    1.33
  -1  -5  -3   17.21    1.33
  -1  -5  -3   13.05    0.99
   1   5   3   13.46    1.05
   1   5   3   11.34    1.17
   1   5   3   13.68    1.27
   1   5   3   16.65    1.25
   1   5   3   13.23    1.21
  -2  -5  -3   63.79    3.77
  -2  -5  -3   59.65    3.81
  -2  -5  -3   63.32    3.29
  -2  -5  -3   61.57    3.74
   2   5   3   66.22    3.60
   2   5   3   67.75    3.87
   2   5   3   58.86    3.53
   2   5   3   66.82    3.94
   2   5   3   69.87    3.83
   2   5   3   64.49    3.09
  -3  -5  -3    8.64    1.01
  -3  -5  -3    6.69    0.57
  -3  -5  -3    8.50    0.94
   3   5   3    7.03    0.74
   3   5   3    9.00    0.98
   3   5   3    8.07    2.18
   3   5   3    8.61    0.76
   3   5   3    7.95    0.93
  -4  -5  -3   44.52    3.24
  -4  -5  -3   51.70    2.84
  -4  -5  -3   54.97    3.26
  -4  -5  -3   56.53    3.19
   4   5   3   57.02    2.87
   4   5   3   63.14    3.27
   4   5   3   57.61    3.11
   4   5   3   53.28    3.28
   4   5   3   56.33    3.23
  -5  -5  -3    6.93    0.88
  -5  -5  -3    7.39    0.77
  -5  -5  -3    7.26    0.99
  -5  -5  -3    9.34    1.10
   5   5   3    8.05    0.94
   5   5   3    8.24    0.91
   5   5   3    8.65    0.94
   5   5   3    8.02    1.04
   5   5   3    6.05    0.71
  -6  -5  -3   62.94    3.58
  -6  -5  -3   62.02    3.75
  -6  -5  -3   60.56    3.31
  -6  -5  -3   57.81    3.60
   6   5   3   51.50    3.24
   6   5   3   66.09    3.32
   6   5   3   56.78    3.46
   6   5   3   61.36    3.58
  -7  -5  -3    0.61    0.59
  -7  -5  -3   -0.04    0.47
  -7  -5  -3    1.14    0.69
   7   5   3    0.06    0.48
   7   5   3    0.23    0.52
   7   5   3    0.50    0.47
   7   5   3    0.04    0.38
  -8  -5  -3   -0.61    0.62
  -8  -5  -3    0.61    0.67
  -8  -5  -3    0.42    0.70
   8   5   3   -0.39    0.53
   8   5   3    0.84    0.67
   8   5   3    0.27    0.60
   8   5   3   -0.16    0.60
  -9  -5  -3    0.10    0.81
  -9  -5  -3    0.05    0.97
   9   5   3   -0.46    0.66
   9   5   3   -0.10    0.62
 -10  -5  -3    1.34    1.15
 -10  -5  -3    2.27    1.51
  10   5   3    2.57    1.07
  10   5   3    1.80    1.14
   5  -6  -3   -0.69    0.94
   5  -6  -3    0.01    0.62
   5  -6  -3    0.25    1.18
  -5   6   3    0.22    1.18
  -5   6   3   -0.43    1.09
  -5   6   3   -0.70    1.25
   4  -6  -3    2.69    0.87
   4  -6  -3    6.14    1.47
   4  -6  -3    4.05    1.29
   4  -6  -3   10.81    1.53
  -4   6   3    9.12    1.75
  -4   6   3    6.30    1.50
  -4   6   3    4.00    1.30
   3  -6  -3    0.22    0.65
   3  -6  -3    0.50    0.61
   3  -6  -3    0.45    0.76
   3  -6  -3   -0.32    0.68
  -3   6   3   -1.39    0.69
  -3   6   3    0.96    0.86
  -3   6   3    0.06    0.94
   2  -6  -3    1.91    0.81
   2  -6  -3    1.53    0.75
   2  -6  -3    3.13    0.77
   2  -6  -3    3.74    1.01
  -2   6   3    3.38    1.05
  -2   6   3    2.68    0.97
  -2   6   3    3.49    1.05
  -2   6   3    3.03    0.94
   1  -6  -3    6.99    1.24
   1  -6  -3    6.06    0.99
   1  -6  -3    5.35    0.90
   1  -6  -3    5.61    1.07
  -1   6   3    7.04    1.15
  -1   6   3    6.14    1.17
  -1   6   3    5.04    1.07
  -1   6   3    6.41    1.35
   0  -6  -3   23.46    1.85
   0  -6  -3   21.44    1.80
   0  -6  -3   22.73    1.54
   0   6   3   23.66    1.81
   0   6   3   22.12    1.86
   0   6   3   19.16    1.89
   0   6   3   20.45    1.80
  -1  -6  -3   56.19    3.68
  -1  -6  -3   64.38    3.86
  -1  -6  -3   62.03    3.79
  -1  -6  -3   63.31    3.32
   1   6   3   60.94    3.59
   1   6   3   60.90    3.98
   1   6   3   57.51    3.42
   1   6   3   59.14    3.78
   1   6   3   59.32    3.77
  -2  -6  -3    0.47    0.32
  -2  -6  -3    0.26    0.43
  -2  -6  -3   -0.23    0.39
  -2  -6  -3    0.00    0.27
   2   6   3    0.30    0.39
   2   6   3    0.20    0.46
   2   6   3    0.36    0.43
   2   6   3   -0.45    0.34
   2   6   3   -0.04    0.36
  -3  -6  -3    8.04    0.77
  -3  -6  -3    7.99    1.05
  -3  -6  -3    9.48    1.06
  -3  -6  -3    7.45    1.05
   3   6   3    7.93    0.78
   3   6   3    6.82    0.87
   3   6   3    8.77    1.11
   3   6   3    5.97    0.93
   3   6   3    7.94    0.97
  -4  -6  -3   47.51    2.75
  -4  -6  -3   44.77    2.79
  -4  -6  -3   46.89    2.39
  -4  -6  -3   43.77    2.74
   4   6   3   42.19    2.36
   4   6   3   40.35    2.72
   4   6   3   45.04    2.77
   4   6   3   41.24    2.56
   4   6   3   38.58    2.68
  -5  -6  -3   11.52    1.32
  -5  -6  -3    8.93    0.91
  -5  -6  -3   10.65    1.21
  -5  -6  -3   12.00    1.10
   5   6   3   10.67    1.14
   5   6   3    9.71    1.06
   5   6   3    8.24    1.16
   5   6   3    8.47    0.89
   5   6   3   10.56    1.12
  -6  -6  -3   -0.16    0.31
  -6  -6  -3    0.71    0.54
  -6  -6  -3    1.03    0.43
  -6  -6  -3    0.46    0.50
   6   6   3   -0.01    0.33
   6   6   3    0.09    0.42
   6   6   3    0.60    0.52
   6   6   3   -0.09    0.53
  -7  -6  -3    4.60    0.98
  -7  -6  -3    4.16    0.78
  -7  -6  -3    6.26    1.09
  -7  -6  -3    5.81    1.13
   7   6   3    8.51    1.16
   7   6   3    6.20    1.04
   7   6   3    4.50    0.99
  -8  -6  -3   12.75    1.72
  -8  -6  -3   12.37    1.51
  -8  -6  -3    9.67    1.40
   8   6   3    8.00    1.20
   8   6   3    8.70    1.33
   8   6   3    9.55    1.35
   8   6   3   10.06    1.37
  -9  -6  -3    0.35    0.69
  -9  -6  -3    0.38    0.82
  -9  -6  -3    0.04    1.04
   9   6   3    0.56    0.72
   9   6   3    0.11    0.74
 -10  -6  -3    3.18    1.24
  10   6   3    2.85    1.07
   4  -7  -3    0.07    1.16
   4  -7  -3    0.52    0.70
   4  -7  -3    2.43    0.98
  -4   7   3    0.46    1.30
  -4   7   3    0.00    0.87
   3  -7  -3    3.52    1.13
   3  -7  -3    2.89    0.95
   3  -7  -3    7.30    1.35
   3  -7  -3   12.32    1.88
  -3   7   3    6.99    1.50
   2  -7  -3    6.12    1.25
   2  -7  -3    9.15    1.37
   2  -7  -3    8.73    1.47
  -2   7   3   12.15    1.77
  -2   7   3    6.07    1.37
  -2   7   3    9.78    1.67
  -2   7   3   14.04    1.93
   1  -7  -3    1.96    0.84
   1  -7  -3    3.22    0.89
   1  -7  -3    2.46    0.77
   1  -7  -3    1.98    0.89
  -1   7   3    3.24    1.02
  -1   7   3    2.79    1.05
  -1   7   3    2.80    1.11
  -1   7   3    2.82    0.94
   0  -7  -3   11.45    1.24
   0  -7  -3   10.87    1.53
   0  -7  -3   10.34    1.42
   0   7   3   12.39    1.49
   0   7   3    8.81    1.48
   0   7   3   13.94    1.67
   0   7   3    8.93    1.57
  -1  -7  -3   16.06    1.52
  -1  -7  -3   18.89    1.67
  -1  -7  -3   14.49    1.48
   1   7   3   18.87    1.62
   1   7   3   15.89    1.43
   1   7   3   16.26    1.56
   1   7   3   17.70    1.94
   1   7   3   16.98    1.71
  -2  -7  -3    1.78    0.67
  -2  -7  -3    1.62    0.68
  -2  -7  -3    1.44    0.69
   2   7   3    0.31    0.53
   2   7   3    2.93    0.82
   2   7   3    2.04    0.67
   2   7   3    2.40    0.78
   2   7   3    0.78    0.67
  -3  -7  -3   14.35    1.57
  -3  -7  -3   11.92    1.19
  -3  -7  -3   12.19    1.49
   3   7   3   13.20    1.19
   3   7   3   11.48    1.35
   3   7   3   15.15    1.64
   3   7   3   10.60    1.38
  -4  -7  -3   39.47    2.63
  -4  -7  -3   35.17    2.50
  -4  -7  -3   35.95    2.54
   4   7   3   38.82    2.44
   4   7   3   43.50    2.73
   4   7   3   38.34    2.65
   4   7   3   38.88    2.23
  -5  -7  -3   15.81    1.69
  -5  -7  -3   15.94    1.38
  -5  -7  -3   15.96    1.43
   5   7   3   15.40    1.66
   5   7   3   11.46    1.27
   5   7   3   13.56    1.25
   5   7   3   15.13    1.38
  -6  -7  -3    0.38    0.58
  -6  -7  -3    0.28    0.55
   6   7   3   -0.70    0.53
   6   7   3    0.75    0.56
   6   7   3    0.48    0.54
   6   7   3    0.78    0.59
  -7  -7  -3    1.33    0.72
  -7  -7  -3    0.65    0.65
   7   7   3    0.31    0.56
   7   7   3   -0.27    0.67
   7   7   3    1.65    0.76
  -8  -7  -3    7.93    1.36
  -8  -7  -3    9.30    1.45
   8   7   3    9.35    1.34
   8   7   3    8.59    1.37
   8   7   3    8.51    1.35
  -9  -7  -3    1.26    0.91
   9   7   3    0.69    0.67
   9   7   3    0.68    0.84
 -10  -7  -3    0.30    0.86
  10   7   3    0.03    1.04
   3  -8  -3   -0.10    0.75
   3  -8  -3    1.17    1.11
  -3   8   3   -0.13    1.20
  -3   8   3    0.69    1.28
   2  -8  -3    8.41    1.57
   2  -8  -3    2.20    0.93
  -2   8   3    7.02    1.54
  -2   8   3    3.29    1.05
  -2   8   3    6.27    1.47
   1  -8  -3   23.49    2.45
  -1   8   3   17.66    2.28
  -1   8   3   17.73    2.32
  -1   8   3   18.44    2.25
   0  -8  -3    0.17    0.62
   0  -8  -3    0.09    0.60
   0   8   3   -0.33    0.83
   0   8   3   -0.63    0.74
   0   8   3    0.33    0.68
   0   8   3   -0.34    0.80
  -1  -8  -3   35.94    2.61
  -1  -8  -3   36.62    2.53
   1   8   3   30.26    2.62
   1   8   3   27.96    2.64
   1   8   3   33.33    2.46
  -2  -8  -3   27.74    2.12
  -2  -8  -3   24.99    2.12
   2   8   3   24.69    1.98
   2   8   3   25.29    2.23
   2   8   3   25.22    2.19
  -3  -8  -3    9.84    1.39
  -3  -8  -3    7.43    1.32
   3   8   3   12.80    1.52
   3   8   3   10.41    1.27
   3   8   3   10.64    1.42
   3   8   3   10.90    1.58
  -4  -8  -3    3.22    0.87
  -4  -8  -3    4.52    1.07
   4   8   3    3.46    0.93
   4   8   3    3.03    0.92
   4   8   3    3.25    0.74
  -5  -8  -3   14.74    1.71
  -5  -8  -3   18.40    1.90
   5   8   3   13.30    1.44
   5   8   3   14.84    1.71
   5   8   3   12.71    1.40
   5   8   3   15.94    1.81
  -6  -8  -3   13.12    1.64
  -6  -8  -3   12.13    1.57
   6   8   3   12.08    1.40
   6   8   3   12.26    1.41
   6   8   3   14.31    1.58
   6   8   3   10.38    1.57
  -7  -8  -3    2.60    0.89
  -7  -8  -3    1.43    0.84
   7   8   3    0.76    0.75
   7   8   3    0.09    0.71
   7   8   3    0.78    0.84
  -8  -8  -3    5.44    1.26
  -8  -8  -3    3.24    1.01
   8   8   3    4.19    1.13
   8   8   3    2.83    1.01
   8   8   3    3.50    1.07
  -9  -8  -3    2.02    1.00
  -9  -8  -3    1.74    1.09
   9   8   3    5.06    1.24
   9   8   3    0.87    0.94
  10   8   3    0.51    1.17
  10   8   3    1.65    1.23
   2  -9  -3    0.61    0.76
  -2   9   3    0.86    0.94
   1  -9  -3    8.53    1.54
  -1   9   3    8.21    1.71
  -1   9   3   11.73    2.02
   0  -9  -3    0.85    0.74
   0  -9  -3    1.85    0.87
   0   9   3    4.85    1.46
   0   9   3    4.83    1.42
  -1  -9  -3    0.99    0.76
  -1  -9  -3    0.41    0.72
   1   9   3    0.21    0.84
   1   9   3    3.10    1.03
  -2  -9  -3    3.20    1.02
  -2  -9  -3    6.75    1.20
   2   9   3    3.05    1.00
   2   9   3    4.09    1.13
  -3  -9  -3   41.52    3.02
  -3  -9  -3   36.47    2.84
   3   9   3   39.18    3.07
  -4  -9  -3    0.41    0.84
  -4  -9  -3    0.93    0.76
   4   9   3   -0.47    0.64
   4   9   3   -0.27    0.76
  -5  -9  -3    0.15    0.81
  -5  -9  -3    0.52    0.70
   5   9   3    1.92    0.91
   5   9   3    0.27    0.78
  -6  -9  -3    1.93    0.89
  -6  -9  -3    2.54    1.06
   6   9   3    2.39    1.05
   6   9   3    2.34    0.98
  -7  -9  -3   18.84    2.16
  -7  -9  -3   18.61    2.14
   7   9   3   13.54    1.90
   7   9   3   17.04    1.87
  -8  -9  -3    1.60    0.95
  -8  -9  -3    0.87    0.97
   8   9   3    1.51    1.01
   8   9   3   -0.14    0.86
  -9  -9  -3   -0.33    0.78
  -9  -9  -3    0.21    1.13
   9   9   3    0.16    0.99
   9   9   3    0.02    1.08
  -1  10   3   11.97    2.37
  -1  10   3   10.86    2.17
   0  10   3   10.99    2.10
   0  10   3    6.83    1.74
  -1 -10  -3    0.78    0.80
  -1 -10  -3    4.37    1.20
   1  10   3    5.47    1.50
   1  10   3    4.01    1.24
  -2 -10  -3    0.20    0.73
  -2 -10  -3    0.09    0.86
   2  10   3    0.47    0.66
  -3 -10  -3   10.25    1.57
  -3 -10  -3   10.27    1.61
   3  10   3    8.32    1.56
  -4 -10  -3    8.37    1.52
  -4 -10  -3    8.93    1.64
   4  10   3    5.59    1.43
   4  10   3    7.97    1.51
  -5 -10  -3    2.39    1.19
  -5 -10  -3    3.20    1.11
   5  10   3    2.40    1.16
   5  10   3    1.51    1.14
  -6 -10  -3    4.08    1.16
  -6 -10  -3    5.59    1.44
   6  10   3    4.12    1.29
   6  10   3    3.91    1.27
  -7 -10  -3    4.41    1.35
   7  10   3    2.22    1.18
  -8 -10  -3   -0.31    1.03
  -8 -10  -3   -0.70    0.81
   8  10   3    0.62    1.06
  -9 -10  -3   -0.31    1.15
   9  10   3    0.02    1.37
   1  11   3   16.33    2.50
   2  11   3   11.64    2.07
  -3 -11  -3    2.74    1.00
  -3 -11  -3    6.72    1.40
   3  11   3   12.24    2.01
  -4 -11  -3    1.16    0.98
  -4 -11  -3    2.16    1.17
   4  11   3    1.42    1.04
   4  11   3    0.56    1.10
  -5 -11  -3   10.13    1.71
  -5 -11  -3   12.23    1.93
   5  11   3   11.25    1.92
   5  11   3    8.69    1.75
  -6 -11  -3    0.40    1.06
  -6 -11  -3    0.06    1.01
   6  11   3   -0.16    1.08
   6  11   3    0.15    1.05
  -7 -11  -3    2.02    1.33
  -7 -11  -3    3.05    1.38
   7  11   3    1.70    1.28
  -8 -11  -3    2.33    1.29
  -8 -11  -3    0.86    1.35
  -4 -12  -3    2.93    1.21
  -5 -12  -3   10.37    1.77
  -5 -12  -3   10.53    1.82
   5  12   3   10.68    1.97
   3  11  -4    0.79    1.22
  -3 -11   4   -0.07    1.15
  -3 -11   4    0.65    1.63
   6  10  -4   -0.02    1.13
  -6 -10   4   -0.69    1.04
   5  10  -4   -0.35    0.94
   5  10  -4   -0.73    1.01
  -5 -10   4    0.67    1.03
  -5 -10   4    0.67    0.97
  -5 -10   4    0.14    1.10
   4  10  -4    2.04    1.19
   4  10  -4    1.34    1.04
   4  10  -4    2.63    1.09
  -4 -10   4    2.57    1.05
  -4 -10   4    1.86    1.23
  -4 -10   4    3.52    1.29
   3  10  -4    1.44    1.00
   3  10  -4    1.14    1.10
  -3 -10   4    1.55    1.34
  -3 -10   4    1.36    1.04
  -3 -10   4   -0.41    0.95
   2  10  -4   13.22    1.86
  -2 -10   4    9.18    1.74
  -2 -10   4   10.20    2.02
   1  10  -4    2.83    1.33
  -1 -10   4    3.21    1.28
  -1 -10   4    2.31    1.30
   0  10  -4    7.43    1.77
   0 -10   4    4.20    1.37
   0 -10   4    3.74    1.52
   1 -10   4    3.19    1.51
   1 -10   4    2.43    1.25
   7   9  -4    1.38    1.19
   7   9  -4    0.19    1.30
  -7  -9   4    1.23    1.14
  -7  -9   4    0.92    0.93
   6   9  -4    0.26    0.96
   6   9  -4    2.26    1.14
  -6  -9   4    0.28    0.78
  -6  -9   4    2.10    1.11
   5   9  -4   -0.08    0.88
  -5  -9   4    0.74    0.93
  -5  -9   4   -0.09    0.87
  -5  -9   4    0.38    0.90
   4   9  -4    3.77    1.12
   4   9  -4    5.35    1.20
   4   9  -4    5.14    1.32
  -4  -9   4    2.67    1.06
  -4  -9   4    2.08    1.01
  -4  -9   4    4.93    1.34
   3   9  -4    2.30    0.91
   3   9  -4    1.93    1.03
   3   9  -4    2.16    0.99
  -3  -9   4    3.81    1.28
  -3  -9   4    1.95    0.99
  -3  -9   4    0.93    0.92
   2   9  -4    2.71    0.95
   2   9  -4    1.85    0.97
   2   9  -4    1.49    0.90
  -2  -9   4    1.72    1.08
  -2  -9   4    2.78    0.93
  -2  -9   4    2.00    0.96
   1   9  -4   -0.28    0.78
   1   9  -4   -0.02    0.68
  -1  -9   4   -0.31    0.79
  -1  -9   4   -0.69    0.97
   0   9  -4    0.73    0.78
   0  -9   4    3.64    1.35
   0  -9   4    2.00    1.03
  -1   9  -4    0.88    1.11
  -1   9  -4   -0.14    0.93
   1  -9   4   -0.57    0.88
   1  -9   4   -0.71    0.97
  -2   9  -4    0.73    1.37
  -2   9  -4    1.00    1.45
   2  -9   4    1.76    1.41
   2  -9   4    0.96    1.09
   7   8  -4    0.14    0.93
   7   8  -4    0.12    1.15
  -7  -8   4   -0.08    0.91
  -7  -8   4    0.66    0.70
   6   8  -4    1.65    0.90
   6   8  -4    0.84    0.97
  -6  -8   4    0.34    0.72
  -6  -8   4    0.41    0.79
   5   8  -4    2.30    1.02
   5   8  -4    2.91    0.85
  -5  -8   4    2.50    1.02
  -5  -8   4    2.68    1.00
  -5  -8   4    2.77    0.96
   4   8  -4    0.35    0.80
   4   8  -4    2.36    0.93
   4   8  -4    2.02    0.86
  -4  -8   4    1.71    0.80
  -4  -8   4    1.48    0.87
  -4  -8   4    2.47    0.92
   3   8  -4    0.91    0.79
   3   8  -4    0.17    0.79
   3   8  -4    0.69    0.80
  -3  -8   4   -0.06    0.64
  -3  -8   4   -0.05    0.64
  -3  -8   4    0.66    0.79
   2   8  -4   22.78    2.05
   2   8  -4   22.76    2.14
  -2  -8   4   20.45    2.01
  -2  -8   4   21.65    2.32
  -2  -8   4   20.51    2.18
   1   8  -4    1.64    0.83
   1   8  -4    3.12    0.99
  -1  -8   4    2.67    1.13
  -1  -8   4    2.58    0.81
  -1  -8   4    1.87    0.87
   0   8  -4    4.50    1.20
   0   8  -4    5.05    1.12
   0   8  -4    3.01    0.95
   0  -8   4    5.04    1.26
   0  -8   4    3.04    1.02
   0  -8   4    2.79    0.84
  -1   8  -4    1.32    1.00
  -1   8  -4    0.44    0.86
   1  -8   4    0.73    0.91
   1  -8   4    0.80    0.84
  -2   8  -4   10.85    1.89
  -2   8  -4   14.44    2.24
   2  -8   4   16.07    2.11
   2  -8   4   11.66    1.79
  -3   8  -4    1.90    1.25
  -3   8  -4   -0.50    0.98
   3  -8   4   -0.18    0.93
   8   7  -4    0.49    0.92
   8   7  -4    0.33    0.93
  -8  -7   4   -0.20    0.99
  -8  -7   4   -0.35    0.59
  -8  -7   4   -0.82    0.88
   7   7  -4    0.42    0.91
   7   7  -4    0.05    0.65
   7   7  -4   -0.35    0.81
  -7  -7   4   -0.13    0.80
  -7  -7   4    0.37    0.65
  -7  -7   4   -1.00    0.76
   6   7  -4    1.60    0.88
   6   7  -4    0.01    0.76
  -6  -7   4    0.85    0.75
  -6  -7   4    0.97    0.86
  -6  -7   4    0.75    0.74
   5   7  -4    6.22    1.23
   5   7  -4    6.21    1.11
  -5  -7   4    3.81    1.00
  -5  -7   4    3.48    1.06
  -5  -7   4    5.75    1.13
   4   7  -4   -0.21    0.66
   4   7  -4   -0.31    0.57
   4   7  -4    0.56    0.65
  -4  -7   4    0.06    0.61
  -4  -7   4   -0.09    0.60
  -4  -7   4    0.95    0.71
   3   7  -4    0.10    0.57
   3   7  -4    0.24    0.61
   3   7  -4   -0.74    0.48
  -3  -7   4   -0.06    0.59
  -3  -7   4   -0.04    0.60
  -3  -7   4    0.62    0.64
   2   7  -4    0.44    0.64
   2   7  -4   -0.50    0.53
  -2  -7   4   -0.17    0.51
  -2  -7   4   -0.30    0.61
  -2  -7   4   -0.28    0.40
   1   7  -4   28.09    5.81
   1   7  -4   17.85    1.71
   1   7  -4   21.06    1.94
  -1  -7   4   23.93    1.76
  -1  -7   4   22.18    1.87
  -1  -7   4   20.92    1.84
   0   7  -4    0.13    1.48
   0   7  -4    1.05    0.75
   0   7  -4    0.51    0.61
   0  -7   4    0.20    0.65
   0  -7   4    0.07    0.61
   0  -7   4    0.96    0.65
  -1   7  -4   -0.54    0.67
  -1   7  -4    0.61    0.68
  -1   7  -4   -0.33    0.78
   1  -7   4   -0.28    0.72
   1  -7   4   -0.07    0.65
   1  -7   4    0.83    0.57
  -2   7  -4   25.69    2.60
  -2   7  -4   29.29    2.52
   2  -7   4   29.11    2.50
   2  -7   4   27.90    2.32
  -3   7  -4    1.15    1.03
  -3   7  -4    0.40    0.97
   3  -7   4    1.66    1.12
   3  -7   4    1.56    0.97
  -4   7  -4    1.16    1.18
   4  -7   4    0.59    0.89
   8   6  -4   -0.10    0.86
   8   6  -4    0.50    0.82
  -8  -6   4    0.18    0.96
  -8  -6   4   -0.07    0.74
  -8  -6   4    0.70    1.01
   7   6  -4    3.94    1.16
   7   6  -4    4.26    1.03
   7   6  -4    7.32    1.29
  -7  -6   4    3.98    1.08
  -7  -6   4    3.15    0.94
  -7  -6   4    6.12    1.27
   6   6  -4    0.03    0.72
   6   6  -4    0.37    0.68
  -6  -6   4    1.16    0.69
  -6  -6   4    0.82    0.69
  -6  -6   4    0.44    0.69
   5   6  -4    0.99    0.70
   5   6  -4    0.78    0.64
  -5  -6   4    0.81    0.68
  -5  -6   4    0.43    0.67
  -5  -6   4    2.56    0.82
  -5  -6   4    2.31    0.75
   4   6  -4   14.54    1.53
   4   6  -4   13.32    1.53
   4   6  -4   12.11    1.61
  -4  -6   4   14.33    1.56
  -4  -6   4   13.75    1.60
  -4  -6   4   14.35    1.54
  -4  -6   4   12.29    1.37
   3   6  -4   16.14    1.51
   3   6  -4   19.43    1.52
   3   6  -4   16.75    1.78
  -3  -6   4   15.58    1.46
  -3  -6   4   18.21    1.50
  -3  -6   4   15.20    1.61
   2   6  -4    2.07    0.72
   2   6  -4    3.02    0.78
  -2  -6   4    1.65    0.68
  -2  -6   4    2.95    0.75
  -2  -6   4    1.89    0.66
   1   6  -4   14.00    1.56
   1   6  -4   13.49    1.47
   1   6  -4   10.61    1.16
  -1  -6   4   12.89    1.47
  -1  -6   4   12.71    1.44
  -1  -6   4   13.77    1.43
   0   6  -4   15.18    1.65
   0   6  -4    9.66    1.41
   0   6  -4   13.00    1.46
   0  -6   4   14.55    1.58
   0  -6   4   11.05    1.28
   0  -6   4   14.22    1.59
  -1   6  -4   18.79    1.59
  -1   6  -4   20.10    1.91
  -1   6  -4   18.30    1.75
   1  -6   4   19.45    1.73
   1  -6   4   20.02    1.73
   1  -6   4   16.29    1.45
  -2   6  -4    6.45    1.30
  -2   6  -4    4.60    1.10
   2  -6   4    6.38    1.04
   2  -6   4    7.24    1.31
   2  -6   4    5.27    1.12
  -3   6  -4    6.60    1.35
  -3   6  -4    4.53    1.24
   3  -6   4   10.54    1.61
   3  -6   4    6.23    1.25
   3  -6   4    6.38    1.14
  -4   6  -4    9.66    1.58
  -4   6  -4    3.26    1.01
   4  -6   4    6.57    1.37
  -5   6  -4   -0.14    1.01
   5  -6   4    0.78    0.93
   8   5  -4   -0.28    0.73
   8   5  -4    0.37    0.93
  -8  -5   4    0.68    0.95
  -8  -5   4    0.41    0.95
  -8  -5   4    0.34    0.75
   7   5  -4    1.52    0.82
   7   5  -4    2.44    0.84
  -7  -5   4    2.17    0.86
  -7  -5   4    4.42    1.16
  -7  -5   4   -0.01    0.73
   6   5  -4    1.04    0.64
   6   5  -4    0.95    0.65
   6   5  -4    0.58    0.71
  -6  -5   4    1.51    0.74
  -6  -5   4    1.32    0.77
  -6  -5   4    0.72    0.64
   5   5  -4    1.82    0.61
   5   5  -4    1.37    0.72
  -5  -5   4    2.19    0.66
  -5  -5   4    0.88    0.61
  -5  -5   4    1.32    0.69
   4   5  -4    1.65    0.62
   4   5  -4    2.16    0.58
   4   5  -4    1.90    0.70
  -4  -5   4    1.55    0.63
  -4  -5   4    1.04    0.56
  -4  -5   4    1.94    0.70
  -4  -5   4    2.02    0.63
   3   5  -4   30.12    2.09
   3   5  -4   33.95    2.25
   3   5  -4   31.41    2.33
  -3  -5   4   34.87    2.25
  -3  -5   4   31.65    2.16
  -3  -5   4   34.43    2.16
  -3  -5   4   32.33    2.09
   2   5  -4    0.52    0.48
   2   5  -4    0.37    0.42
  -2  -5   4    0.40    0.42
  -2  -5   4    0.71    0.45
  -2  -5   4    0.60    0.38
  -2  -5   4    0.99    0.46
   1   5  -4    0.39    0.35
   1   5  -4    0.91    0.48
   1   5  -4    0.89    0.51
  -1  -5   4    0.72    0.42
  -1  -5   4    0.53    0.45
  -1  -5   4    0.45    0.42
   0   5  -4    5.08    0.85
   0   5  -4    5.15    0.88
   0   5  -4    4.26    0.84
   0  -5   4    5.17    0.89
   0  -5   4    5.58    0.93
   0  -5   4    5.56    0.85
   0  -5   4    5.45    0.85
  -1   5  -4   44.61    3.08
  -1   5  -4   43.07    2.72
  -1   5  -4   45.84    2.95
   1  -5   4   42.17    2.84
   1  -5   4   43.07    2.76
   1  -5   4   45.96    2.85
   1  -5   4   46.76    2.65
  -2   5  -4   -0.30    0.44
  -2   5  -4   -0.38    0.54
  -2   5  -4    0.09    0.51
   2  -5   4    0.04    0.51
   2  -5   4   -0.02    0.41
   2  -5   4    0.29    0.56
   2  -5   4    0.07    0.46
  -3   5  -4    1.09    0.81
  -3   5  -4    0.29    0.63
   3  -5   4    1.37    0.82
   3  -5   4    1.90    0.71
   3  -5   4    0.51    0.61
  -4   5  -4    1.81    0.89
  -4   5  -4    2.08    0.88
  -4   5  -4    1.91    2.04
   4  -5   4    1.62    0.95
   4  -5   4    1.80    0.74
   4  -5   4    2.01    0.88
  -5   5  -4    3.43    1.01
  -5   5  -4    7.18    1.42
   5  -5   4    8.69    1.46
  -6   5  -4   -0.10    0.72
  -6   5  -4   -0.99    0.94
   6  -5   4    0.44    0.90
   8   4  -4    0.37    0.84
   8   4  -4   -0.53    0.80
  -8  -4   4    0.67    0.93
  -8  -4   4    0.18    0.65
   7   4  -4    1.99    0.79
   7   4  -4    2.02    0.82
   7   4  -4    1.09    0.72
  -7  -4   4    3.16    0.94
  -7  -4   4    2.61    1.03
  -7  -4   4    1.60    0.74
   6   4  -4    2.47    0.81
   6   4  -4    3.39    0.75
   6   4  -4    4.43    0.86
   6   4  -4    3.02    0.77
  -6  -4   4    2.39    0.77
  -6  -4   4    3.57    0.91
  -6  -4   4    3.79    0.97
   5   4  -4   17.63    1.49
   5   4  -4   18.81    1.42
   5   4  -4   16.89    1.84
   5   4  -4   21.28    1.58
  -5  -4   4   18.71    1.62
  -5  -4   4   17.72    1.65
  -5  -4   4   18.39    1.54
   4   4  -4    0.64    0.55
   4   4  -4    1.79    0.53
   4   4  -4    1.98    0.58
   4   4  -4    2.53    0.47
  -4  -4   4    2.89    0.66
  -4  -4   4    1.24    0.60
  -4  -4   4    3.01    0.73
  -4  -4   4    1.68    0.57
   3   4  -4   38.51    2.51
   3   4  -4   35.55    2.03
   3   4  -4   36.43    2.31
   3   4  -4   38.70    2.26
  -3  -4   4   36.86    2.27
  -3  -4   4   35.64    2.23
  -3  -4   4   36.06    2.35
  -3  -4   4   35.42    2.25
   2   4  -4    2.41    0.60
   2   4  -4    1.03    0.42
   2   4  -4    2.04    0.43
  -2  -4   4    1.78    0.55
  -2  -4   4    2.35    0.44
  -2  -4   4    1.59    0.47
  -2  -4   4    0.49    0.40
   1   4  -4   34.08    2.28
   1   4  -4   38.78    2.35
   1   4  -4   38.48    2.37
  -1  -4   4   35.51    2.24
  -1  -4   4   34.62    2.16
  -1  -4   4   37.74    2.36
  -1  -4   4   38.32    2.06
  -1  -4   4   30.90    2.14
   0   4  -4   51.24    3.19
   0   4  -4   51.49    3.30
   0   4  -4   55.92    3.10
   0  -4   4   52.08    3.07
   0  -4   4   56.00    3.07
   0  -4   4   51.93    2.91
   0  -4   4   50.45    3.08
  -1   4  -4   42.01    2.57
  -1   4  -4   47.29    2.80
  -1   4  -4   45.69    2.93
  -1   4  -4   45.14    2.62
   1  -4   4   44.09    2.69
   1  -4   4   41.65    2.61
   1  -4   4   39.33    2.48
  -2   4  -4    4.22    0.77
  -2   4  -4    2.49    0.72
  -2   4  -4    3.52    0.65
   2  -4   4    3.79    0.68
   2  -4   4    4.81    0.88
   2  -4   4    2.78    0.67
   2  -4   4    2.43    0.62
  -3   4  -4    1.45    0.54
  -3   4  -4    2.09    0.80
  -3   4  -4    2.16    0.69
  -3   4  -4    1.75    0.61
   3  -4   4    3.39    0.66
   3  -4   4    2.35    0.72
   3  -4   4    1.70    0.58
   3  -4   4    2.14    0.70
  -4   4  -4   20.31    1.71
  -4   4  -4   21.44    1.76
  -4   4  -4   19.05    1.95
   4  -4   4   12.84    1.70
   4  -4   4   19.17    1.96
   4  -4   4   21.32    1.56
  -5   4  -4    3.52    1.01
  -5   4  -4    1.34    2.02
   5  -4   4    2.57    0.92
   5  -4   4    3.10    0.79
  -6   4  -4   -0.30    0.83
  -6   4  -4    0.71    0.95
   6  -4   4   -0.05    0.82
  -7   4  -4    1.39    1.34
  -7   4  -4   -0.48    0.85
   7  -4   4    1.34    1.03
   8   3  -4    1.46    0.93
   8   3  -4    0.12    0.66
  -8  -3   4    0.03    0.71
  -8  -3   4    0.12    0.87
   7   3  -4    1.30    0.79
   7   3  -4    2.71    1.28
   7   3  -4    2.10    0.78
  -7  -3   4    2.17    0.86
  -7  -3   4    3.31    1.09
   6   3  -4   -0.35    0.50
   6   3  -4    0.06    0.58
   6   3  -4    0.15    0.49
  -6  -3   4    0.28    0.67
  -6  -3   4    0.21    0.61
   5   3  -4   18.56    1.61
   5   3  -4   19.23    1.48
   5   3  -4   18.78    1.50
   5   3  -4   18.75    1.45
  -5  -3   4   17.84    1.50
  -5  -3   4   20.79    1.67
  -5  -3   4   17.61    1.78
  -5  -3   4   18.05    1.61
   4   3  -4   11.78    1.34
   4   3  -4   10.46    1.13
   4   3  -4    9.64    0.92
  -4  -3   4   11.46    1.23
  -4  -3   4   12.22    1.14
  -4  -3   4   10.30    1.26
  -4  -3   4   13.42    1.30
  -4  -3   4   12.53    1.28
   3   3  -4    2.87    0.67
   3   3  -4    2.72    0.57
   3   3  -4    2.99    0.54
   3   3  -4    2.58    0.46
  -3  -3   4    4.42    0.70
  -3  -3   4    3.36    0.61
  -3  -3   4    2.53    0.57
  -3  -3   4    3.73    0.62
  -3  -3   4    3.44    0.65
   2   3  -4    1.19    0.33
   2   3  -4    1.78    0.30
   2   3  -4    1.17    0.44
   2   3  -4    1.71    0.42
  -2  -3   4    1.98    0.40
  -2  -3   4    0.89    0.44
  -2  -3   4    1.19    0.40
  -2  -3   4    1.19    0.38
  -2  -3   4    2.10    0.37
  -2  -3   4    2.08    0.46
   1   3  -4  224.26   11.17
   1   3  -4  221.31   11.71
   1   3  -4  209.18   12.25
   1   3  -4  230.74   10.73
   1   3  -4  216.06   11.61
  -1  -3   4  226.81   11.23
  -1  -3   4  213.87   11.41
  -1  -3   4  213.30   11.24
  -1  -3   4  207.91   10.30
  -1  -3   4  223.88   10.82
   0   3  -4    4.23    0.62
   0   3  -4    4.68    0.63
   0   3  -4    3.85    0.60
   0   3  -4    3.57    0.35
   0  -3   4    3.17    0.57
   0  -3   4    2.86    0.57
   0  -3   4    2.69    0.54
  -1   3  -4   14.47    1.19
  -1   3  -4   15.26    1.16
  -1   3  -4   13.69    0.98
   1  -3   4   13.14    1.12
   1  -3   4   13.27    1.04
   1  -3   4   14.57    1.10
   1  -3   4   15.37    1.13
   1  -3   4   14.20    0.82
  -2   3  -4   10.43    0.98
  -2   3  -4   10.65    0.92
  -2   3  -4   11.16    1.10
   2  -3   4   12.14    1.28
   2  -3   4    9.63    0.95
   2  -3   4   11.82    0.98
   2  -3   4   10.82    0.78
   2  -3   4   10.54    0.93
  -3   3  -4   50.01    3.40
  -3   3  -4   49.60    3.11
  -3   3  -4   49.90    3.16
   3  -3   4   51.81    3.11
   3  -3   4   51.78    2.92
   3  -3   4   51.92    2.82
   3  -3   4   51.26    3.10
   3  -3   4   49.97    2.84
  -4   3  -4    0.75    0.55
  -4   3  -4    0.09    0.30
  -4   3  -4    0.24    0.61
   4  -3   4    0.76    0.56
   4  -3   4    0.73    0.48
   4  -3   4    0.82    0.54
   4  -3   4    0.60    0.45
  -5   3  -4    7.92    1.28
  -5   3  -4    9.61    1.58
   5  -3   4    9.95    1.26
   5  -3   4    9.07    1.14
   5  -3   4    9.13    1.32
  -6   3  -4    9.59    4.26
  -6   3  -4    7.71    1.36
   6  -3   4   11.38    1.37
   6  -3   4    7.22    1.21
   6  -3   4    5.73    1.19
  -7   3  -4    2.75    1.16
  -7   3  -4    4.94    1.45
   7  -3   4    0.89    0.82
   7  -3   4    0.93    0.88
  -8   3  -4   -0.31    1.45
  -8   3  -4    0.38    1.15
   8  -3   4    1.28    1.11
   8   2  -4    0.82    0.86
   8   2  -4   -0.25    0.57
   8   2  -4   -0.15    0.72
  -8  -2   4    0.02    0.88
  -8  -2   4   -0.69    1.55
  -8  -2   4   -0.13    0.62
   7   2  -4    1.23    0.76
   7   2  -4    2.08    0.90
   7   2  -4    2.14    0.76
   7   2  -4    1.18    0.61
  -7  -2   4    0.89    0.79
  -7  -2   4    1.99    1.39
  -7  -2   4    1.27    0.74
   6   2  -4   -0.07    0.56
   6   2  -4    0.52    0.58
   6   2  -4   -0.95    0.48
  -6  -2   4    0.02    0.85
  -6  -2   4   -0.01    0.65
  -6  -2   4    0.63    0.65
   5   2  -4    9.93    1.20
   5   2  -4   11.40    1.20
   5   2  -4    9.96    1.17
  -5  -2   4    9.04    1.31
  -5  -2   4   10.66    1.24
  -5  -2   4   10.58    1.62
  -5  -2   4   11.19    1.35
   4   2  -4    0.63    0.45
   4   2  -4    1.15    0.44
   4   2  -4    1.47    0.48
   4   2  -4    0.92    0.44
  -4  -2   4    0.07    0.28
  -4  -2   4    1.30    0.53
  -4  -2   4    1.17    0.48
  -4  -2   4    1.77    0.54
   3   2  -4   10.10    0.86
   3   2  -4   10.77    0.88
   3   2  -4    9.85    0.81
   3   2  -4    9.64    1.08
  -3  -2   4    9.83    0.88
  -3  -2   4    7.99    0.81
  -3  -2   4   10.16    0.92
  -3  -2   4   10.93    1.03
  -3  -2   4   10.26    1.08
  -3  -2   4   10.28    1.01
   2   2  -4    0.24    0.22
   2   2  -4    0.56    0.32
   2   2  -4    0.39    0.24
   2   2  -4    0.89    0.27
   2   2  -4    0.53    0.34
  -2  -2   4    0.67    0.40
  -2  -2   4    0.77    0.29
  -2  -2   4    0.02    0.14
  -2  -2   4    1.12    0.36
  -2  -2   4    0.60    0.30
  -2  -2   4    1.06    0.36
  -2  -2   4    0.96    0.35
   1   2  -4  153.79    8.08
   1   2  -4  179.65    8.89
   1   2  -4  144.05    8.52
   1   2  -4  152.40    8.38
   1   2  -4  156.55    7.82
  -1  -2   4  158.78    7.82
  -1  -2   4  157.40    8.10
  -1  -2   4  158.04    8.43
  -1  -2   4  157.40    7.49
  -1  -2   4  158.84    8.26
  -1  -2   4  160.71    8.54
  -1  -2   4  156.49    7.88
  -1  -2   4  152.34    8.15
   0   2  -4   14.75    1.06
   0   2  -4   13.49    1.06
   0   2  -4   14.79    0.92
   0  -2   4   13.07    1.03
   0  -2   4   13.48    0.85
   0  -2   4   12.93    1.03
   0  -2   4   13.38    0.93
   0  -2   4   14.97    1.01
   0  -2   4   16.29    0.87
  -1   2  -4   78.96    4.90
  -1   2  -4   83.78    4.64
  -1   2  -4   86.52    4.66
   1  -2   4   82.00    4.20
   1  -2   4   85.95    4.45
   1  -2   4   82.58    4.37
   1  -2   4   86.42    4.21
   1  -2   4   82.42    4.44
  -2   2  -4    8.85    0.79
  -2   2  -4    8.92    0.90
  -2   2  -4    9.49    0.84
   2  -2   4   10.00    0.69
   2  -2   4    9.59    0.79
   2  -2   4    8.10    0.77
   2  -2   4    9.01    0.92
   2  -2   4   12.16    1.15
  -3   2  -4  100.49    5.75
  -3   2  -4   95.86    5.28
  -3   2  -4   98.78    5.46
  -3   2  -4   93.83    5.00
   3  -2   4   94.24    4.94
   3  -2   4   89.12    5.06
   3  -2   4   94.23    5.22
   3  -2   4   92.09    5.00
   3  -2   4   96.51    4.74
  -4   2  -4   11.22    1.05
  -4   2  -4   14.22    1.55
  -4   2  -4   11.89    1.14
   4  -2   4   10.36    1.24
   4  -2   4   10.64    1.04
   4  -2   4   12.46    1.05
   4  -2   4   11.04    0.95
   4  -2   4   12.23    1.05
  -5   2  -4    4.02    1.00
  -5   2  -4    4.44    1.06
   5  -2   4    5.49    0.93
   5  -2   4    2.95    0.79
   5  -2   4    5.44    0.90
   5  -2   4    4.28    0.77
  -6   2  -4    2.66    1.02
  -6   2  -4    1.22    0.75
   6  -2   4    0.66    0.71
   6  -2   4    2.63    0.85
   6  -2   4    1.64    0.65
  -7   2  -4    0.51    0.87
  -7   2  -4    1.29    1.08
   7  -2   4    0.72    0.73
   7  -2   4    0.72    0.93
   7  -2   4    1.15    0.85
  -8   2  -4   -0.09    1.20
  -8   2  -4    0.31    0.86
   8  -2   4    0.05    0.96
   8  -2   4   -0.43    0.74
   8   1  -4   -0.06    0.64
   8   1  -4    0.95    0.92
  -8  -1   4    0.44    0.72
  -8  -1   4    0.38    1.06
  -8  -1   4    2.25    1.81
   7   1  -4   -0.19    0.58
   7   1  -4    0.68    0.56
   7   1  -4    0.76    0.74
  -7  -1   4    0.95    0.71
  -7  -1   4    0.72    0.87
  -7  -1   4    1.33    1.27
   6   1  -4    3.93    0.89
   6   1  -4    3.25    0.86
   6   1  -4    3.04    0.87
   6   1  -4    3.50    0.76
  -6  -1   4    3.33    1.04
  -6  -1   4    2.40    1.36
  -6  -1   4    6.82    1.63
   5   1  -4   -0.10    0.45
   5   1  -4   -0.01    0.42
   5   1  -4    0.16    0.49
  -5  -1   4    0.11    0.69
  -5  -1   4   -0.19    0.52
  -5  -1   4   -0.45    0.47
   4   1  -4   13.55    1.08
   4   1  -4   12.97    1.19
   4   1  -4   13.63    1.17
   4   1  -4   12.23    1.12
  -4  -1   4   14.74    1.31
  -4  -1   4   15.28    1.19
  -4  -1   4   15.43    1.20
  -4  -1   4   12.17    1.64
  -4  -1   4   13.36    1.27
   3   1  -4   36.28    2.05
   3   1  -4   38.38    2.29
   3   1  -4   41.98    2.26
   3   1  -4   34.78    2.15
   3   1  -4   39.51    2.18
  -3  -1   4   35.15    2.30
  -3  -1   4   35.10    2.50
  -3  -1   4   37.47    2.20
  -3  -1   4   34.90    2.07
  -3  -1   4   34.72    2.16
  -3  -1   4   36.93    2.31
  -3  -1   4   38.00    2.37
   2   1  -4   21.61    1.31
   2   1  -4   20.28    1.30
   2   1  -4   22.79    1.40
   2   1  -4   20.91    1.25
  -2  -1   4   18.88    1.24
  -2  -1   4   20.72    1.37
  -2  -1   4   17.40    1.28
  -2  -1   4   19.06    1.33
  -2  -1   4   17.12    1.35
  -2  -1   4   19.57    1.27
  -2  -1   4   20.14    1.38
   1   1  -4   67.89    3.58
   1   1  -4   59.08    3.99
   1   1  -4   63.36    3.78
  -1  -1   4   74.31    3.85
  -1  -1   4   73.35    3.72
  -1  -1   4   69.82    3.92
  -1  -1   4   68.43    3.73
  -1  -1   4   68.93    3.53
  -1  -1   4   66.60    3.71
  -1  -1   4   71.22    3.45
  -1  -1   4   75.30    3.69
   0   1  -4   47.21    2.78
   0   1  -4   46.83    2.92
   0   1  -4   49.46    2.79
   0  -1   4   50.75    2.65
   0  -1   4   46.64    2.56
   0  -1   4   51.47    2.64
   0  -1   4   50.19    2.82
   0  -1   4   46.85    2.62
   0  -1   4   47.15    2.55
   0  -1   4   47.32    2.68
   0  -1   4   50.60    2.98
  -1   1  -4   41.91    2.53
  -1   1  -4   39.61    2.51
  -1   1  -4   45.14    2.71
   1  -1   4   46.66    2.59
   1  -1   4   45.79    2.34
   1  -1   4   41.35    2.33
   1  -1   4   46.28    2.46
   1  -1   4   43.74    2.34
   1  -1   4   45.30    2.38
  -2   1  -4    6.45    0.76
  -2   1  -4    4.88    0.37
  -2   1  -4    6.13    0.66
  -2   1  -4    6.62    0.71
   2  -1   4    4.98    0.47
   2  -1   4    5.52    0.71
   2  -1   4    4.75    0.46
   2  -1   4    6.18    0.72
   2  -1   4    6.13    0.65
   2  -1   4    5.43    0.64
  -3   1  -4   92.67    5.74
  -3   1  -4   96.76    5.32
  -3   1  -4   98.98    5.10
  -3   1  -4   95.38    5.52
   3  -1   4   96.60    4.77
   3  -1   4   99.61    5.04
   3  -1   4  100.03    5.10
   3  -1   4  100.08    5.20
   3  -1   4   94.67    5.07
  -4   1  -4   11.24    0.91
  -4   1  -4    9.74    0.81
  -4   1  -4   10.94    1.08
  -4   1  -4    9.49    1.12
   4  -1   4   11.48    1.16
   4  -1   4    8.98    0.84
   4  -1   4    9.62    0.84
   4  -1   4    9.76    0.89
   4  -1   4   10.51    1.04
  -5   1  -4   31.15    2.22
  -5   1  -4   30.99    2.31
  -5   1  -4   30.36    1.94
   5  -1   4   29.21    1.86
   5  -1   4   30.74    1.92
   5  -1   4   27.79    2.02
   5  -1   4   31.31    2.03
   5  -1   4   29.51    1.97
  -6   1  -4   25.24    1.86
  -6   1  -4   28.40    2.22
  -6   1  -4   28.78    2.32
   6  -1   4   25.86    1.83
   6  -1   4   23.56    1.93
   6  -1   4   26.94    2.00
  -7   1  -4   10.25    1.74
  -7   1  -4    9.27    1.45
   7  -1   4    8.39    1.30
   7  -1   4    8.95    1.21
   7  -1   4    6.67    1.17
  -8   1  -4   -0.15    1.16
  -8   1  -4    0.62    0.68
   8  -1   4   -0.08    0.68
   8  -1   4    0.76    0.83
  -9   1  -4   -0.09    0.71
   9  -1   4   -0.32    1.00
   9  -1   4   -0.24    1.00
   8   0  -4    0.03    0.68
   8   0  -4   -0.61    0.78
  -8   0   4   -0.54    0.84
  -8   0   4    0.05    0.68
  -8   0   4   -0.04    1.48
   7   0  -4    0.45    0.58
   7   0  -4    0.04    0.66
  -7   0   4    0.97    1.36
  -7   0   4   -0.05    0.73
  -7   0   4   -0.46    0.54
   6   0  -4    7.88    1.25
   6   0  -4    8.79    1.25
   6   0  -4   10.77    1.90
  -6   0   4    8.29    1.34
  -6   0   4   10.82    1.95
  -6   0   4    7.86    1.35
   5   0  -4    2.26    0.58
   5   0  -4    1.25    0.65
   5   0  -4    1.76    0.61
   5   0  -4    0.88    0.67
  -5   0   4    1.97    0.76
  -5   0   4    2.72    0.89
  -5   0   4    1.24    0.89
   4   0  -4   -0.45    0.35
   4   0  -4    0.38    0.46
   4   0  -4    0.70    0.36
   4   0  -4    0.31    0.41
  -4   0   4   -0.11    0.57
  -4   0   4    0.99    0.53
  -4   0   4    0.25    0.40
  -4   0   4   -0.50    0.40
   3   0  -4   19.55    1.48
   3   0  -4   19.46    1.38
   3   0  -4   20.65    1.54
   3   0  -4   22.77    1.30
   3   0  -4   21.52    1.40
  -3   0   4   18.80    1.72
  -3   0   4   18.99    1.49
  -3   0   4   19.33    1.52
  -3   0   4   24.31    1.59
  -3   0   4   20.43    1.41
  -3   0   4   20.42    1.33
   2   0  -4   27.37    1.75
   2   0  -4   27.08    1.53
   2   0  -4   25.60    1.65
   2   0  -4   30.09    1.65
  -2   0   4   27.48    1.95
  -2   0   4   26.25    1.62
  -2   0   4   28.14    1.78
  -2   0   4   25.33    1.67
  -2   0   4   27.61    1.76
  -2   0   4   30.27    1.71
  -2   0   4   30.24    1.91
   1   0  -4    8.21    0.69
  -1   0   4    5.27    0.57
  -1   0   4    7.25    0.64
  -1   0   4    5.37    0.55
  -1   0   4    8.38    0.85
  -1   0   4    6.58    0.77
  -1   0   4    6.27    0.57
  -1   0   4    6.65    0.64
   0   0  -4    3.55    0.46
   0   0  -4    2.58    0.44
   0   0  -4    3.05    0.47
   0   0   4    2.16    0.32
   0   0   4    2.65    0.35
   0   0   4    2.87    0.42
   0   0   4    2.48    0.45
   0   0   4    1.86    0.34
   0   0   4    2.83    0.49
   0   0   4    2.52    0.39
   0   0   4    2.26    0.42
   0   0   4    1.98    0.37
  -1   0  -4  338.76   16.33
  -1   0  -4  319.85   17.78
  -1   0  -4  322.92   17.20
   1   0   4  327.92   17.82
   1   0   4  328.15   15.79
   1   0   4  313.54   14.66
   1   0   4  312.88   16.67
   1   0   4  325.43   15.89
   1   0   4  289.71   15.35
  -2   0  -4   20.50    1.44
  -2   0  -4   20.60    1.37
  -2   0  -4   22.14    1.19
   2   0   4   18.89    1.25
   2   0   4   20.25    1.24
   2   0   4   19.96    1.28
   2   0   4   20.00    1.22
   2   0   4   21.95    1.36
  -3   0  -4   15.30    1.08
  -3   0  -4   12.14    1.06
  -3   0  -4   13.96    0.88
   3   0   4   13.21    0.98
   3   0   4   12.46    0.93
   3   0   4   13.05    0.94
   3   0   4   13.20    0.94
   3   0   4   12.61    0.96
   3   0   4   12.61    0.82
  -4   0  -4    1.38    0.50
  -4   0  -4    1.13    0.36
  -4   0  -4    1.05    0.32
  -4   0  -4    1.53    0.47
   4   0   4    1.44    0.37
   4   0   4    0.79    0.39
   4   0   4    1.66    0.35
   4   0   4    1.23    0.38
   4   0   4    1.21    0.38
   4   0   4    1.86    0.46
  -5   0  -4   81.04    4.84
  -5   0  -4   86.09    4.86
  -5   0  -4   91.59    5.42
   5   0   4   84.88    4.48
   5   0   4   91.18    4.84
   5   0   4   94.92    4.89
   5   0   4   91.18    4.73
  -6   0  -4    0.43    0.44
  -6   0  -4    0.60    0.61
  -6   0  -4    0.15    0.52
   6   0   4    0.20    0.46
   6   0   4   -0.69    0.37
   6   0   4    0.30    0.49
  -7   0  -4   -0.50    0.62
  -7   0  -4    0.21    0.64
  -7   0  -4    0.57    0.60
   7   0   4    0.20    0.55
   7   0   4   -0.37    0.50
   7   0   4   -0.80    0.47
   8   0   4   10.48    1.46
   8   0   4   11.81    1.60
   8   0   4    8.71    1.29
  -9   0  -4    1.31    0.80
   9   0   4    3.29    1.09
   9   0   4    4.65    1.29
   7  -1  -4    0.20    0.57
   7  -1  -4   -0.26    1.75
  -7   1   4    0.17    1.03
  -7   1   4    0.25    0.79
  -7   1   4    0.17    0.66
   6  -1  -4    7.90    1.31
   6  -1  -4   12.06    1.51
   6  -1  -4   10.82    1.58
  -6   1   4   11.32    1.55
  -6   1   4   15.89    2.25
  -6   1   4   17.23    1.87
   5  -1  -4    1.20    0.59
   5  -1  -4    1.62    0.77
   5  -1  -4    3.15    0.85
  -5   1   4    1.88    0.76
  -5   1   4    2.24    0.82
  -5   1   4    1.41    0.85
  -5   1   4    2.06    1.06
   4  -1  -4    3.83    0.76
   4  -1  -4    4.97    0.92
   4  -1  -4    5.62    0.84
   4  -1  -4    5.24    0.67
  -4   1   4    5.01    0.92
  -4   1   4    3.01    0.81
  -4   1   4    6.27    1.35
  -4   1   4    4.47    0.89
   3  -1  -4   14.21    1.02
   3  -1  -4   14.83    1.29
   3  -1  -4   16.82    1.20
   3  -1  -4   15.02    1.33
  -3   1   4   16.57    1.34
  -3   1   4   17.26    1.14
  -3   1   4   16.78    1.37
  -3   1   4   16.05    1.37
  -3   1   4   16.82    1.58
   2  -1  -4  137.49    7.16
   2  -1  -4  126.29    6.64
   2  -1  -4  138.40    6.22
   2  -1  -4  122.09    6.92
  -2   1   4  140.03    7.15
  -2   1   4  134.91    7.15
  -2   1   4  131.95    7.67
  -2   1   4  138.52    6.76
  -2   1   4  132.27    7.15
  -2   1   4  129.45    7.64
  -2   1   4  129.01    7.08
   1  -1  -4    1.16    0.25
   1  -1  -4    0.87    0.22
   1  -1  -4    1.09    0.33
  -1   1   4    0.65    0.25
  -1   1   4    0.30    0.19
  -1   1   4    0.34    0.27
  -1   1   4    0.61    0.32
  -1   1   4    0.54    0.38
  -1   1   4    0.75    0.31
  -1   1   4    0.35    0.20
  -1   1   4    1.02    0.44
  -1   1   4    0.31    0.18
   0  -1  -4    0.11    0.25
   0  -1  -4    0.45    0.29
   0  -1  -4    0.54    0.21
   0   1   4    0.50    0.29
   0   1   4    0.11    0.24
   0   1   4    0.48    0.23
   0   1   4    0.60    0.22
   0   1   4    0.73    0.29
   0   1   4    0.88    0.23
   0   1   4    0.47    0.16
   0   1   4    0.57    0.23
   0   1   4    0.23    0.27
  -1  -1  -4   47.77    2.99
  -1  -1  -4   48.82    2.71
  -1  -1  -4   46.80    2.85
  -1  -1  -4   54.12    3.12
   1   1   4   57.79    2.55
   1   1   4   52.25    2.80
   1   1   4   49.05    2.75
   1   1   4   50.78    2.89
   1   1   4   54.14    3.13
  -2  -1  -4  148.33    7.48
  -2  -1  -4  146.43    7.92
  -2  -1  -4  143.02    8.17
   2   1   4  145.41    6.73
   2   1   4  149.61    7.66
   2   1   4  147.76    7.31
   2   1   4  143.41    7.26
   2   1   4  132.60    8.19
   2   1   4  139.12    7.02
  -3  -1  -4   46.03    2.45
  -3  -1  -4   47.82    2.58
  -3  -1  -4   47.07    2.80
  -3  -1  -4   45.86    2.86
   3   1   4   46.04    2.65
   3   1   4   45.12    2.55
   3   1   4   47.05    2.47
   3   1   4   45.42    2.40
   3   1   4   45.64    2.56
  -4  -1  -4    0.12    0.28
  -4  -1  -4    0.20    0.33
  -4  -1  -4    0.18    0.34
  -4  -1  -4    0.31    0.26
   4   1   4   -0.13    0.15
   4   1   4    0.32    0.29
   4   1   4   -0.11    0.26
   4   1   4    0.21    0.22
   4   1   4    0.25    0.24
   4   1   4    0.30    0.27
  -5  -1  -4   62.44    3.95
  -5  -1  -4   62.01    3.55
  -5  -1  -4   65.49    3.64
  -5  -1  -4   64.14    3.57
  -5  -1  -4   63.01    3.91
   5   1   4   61.95    3.49
   5   1   4   68.06    3.58
   5   1   4   67.01    3.62
   5   1   4   62.67    3.34
   5   1   4   65.80    3.62
   5   1   4   60.72    3.51
  -6  -1  -4    4.64    0.91
  -6  -1  -4    5.09    0.91
  -6  -1  -4    4.38    0.75
  -6  -1  -4    5.87    0.86
   6   1   4    5.83    0.89
   6   1   4    4.42    0.79
   6   1   4    5.03    0.80
   6   1   4    4.49    0.71
   6   1   4    4.17    0.75
  -7  -1  -4    0.74    0.73
  -7  -1  -4    0.99    0.68
  -7  -1  -4    0.81    0.57
   7   1   4    0.88    0.56
   7   1   4    0.43    0.55
   7   1   4    0.81    0.59
  -8  -1  -4   -0.23    0.65
  -8  -1  -4   -0.39    0.55
   8   1   4    0.49    0.74
   8   1   4   -0.05    0.62
   8   1   4    0.27    0.65
  -9  -1  -4    1.94    0.92
  -9  -1  -4    1.28    0.72
   9   1   4    3.09    1.02
   9   1   4    2.24    0.95
   7  -2  -4    0.11    0.67
   7  -2  -4    2.79    1.10
  -7   2   4    0.84    0.94
  -7   2   4    0.62    1.03
   6  -2  -4    1.24    0.65
   6  -2  -4    2.82    0.88
  -6   2   4    2.40    1.10
  -6   2   4    3.14    1.13
   5  -2  -4    2.38    1.89
   5  -2  -4    1.06    0.75
   5  -2  -4    0.80    0.77
  -5   2   4    1.29    0.92
  -5   2   4    2.04    0.97
  -5   2   4    0.57    0.76
   4  -2  -4   42.79    2.69
   4  -2  -4   45.97    2.97
  -4   2   4   42.61    3.19
  -4   2   4   44.34    3.01
  -4   2   4   43.92    3.31
   3  -2  -4    3.44    0.78
   3  -2  -4    4.79    0.88
   3  -2  -4    3.24    0.63
  -3   2   4    2.40    0.57
  -3   2   4    4.19    0.84
  -3   2   4    2.58    0.92
  -3   2   4    3.99    0.93
  -3   2   4    1.59    0.59
   2  -2  -4   27.97    1.61
   2  -2  -4   24.94    1.76
   2  -2  -4   21.17    1.74
   2  -2  -4   26.32    1.38
  -2   2   4   25.02    1.66
  -2   2   4   28.78    1.87
  -2   2   4   25.05    1.91
  -2   2   4   27.88    2.00
  -2   2   4   25.71    2.04
   1  -2  -4   27.03    1.76
   1  -2  -4   28.29    1.57
   1  -2  -4   27.42    1.86
   1  -2  -4   28.60    1.40
  -1   2   4   28.92    1.86
  -1   2   4   25.33    1.96
  -1   2   4   26.88    1.56
  -1   2   4   28.07    1.73
  -1   2   4   25.84    1.91
  -1   2   4   28.34    1.92
   0  -2  -4  171.52    9.19
   0  -2  -4  178.94    8.51
   0  -2  -4  167.75    9.31
   0   2   4  177.64    9.33
   0   2   4  184.10    8.04
   0   2   4  173.56    9.77
   0   2   4  174.01    9.99
   0   2   4  171.27    8.82
   0   2   4  176.30    9.08
   0   2   4  184.13    9.35
  -1  -2  -4   61.62    3.22
  -1  -2  -4   52.79    3.32
  -1  -2  -4   62.75    3.50
   1   2   4   59.02    3.54
   1   2   4   57.16    3.12
   1   2   4   60.43    2.84
   1   2   4   63.11    3.49
   1   2   4   57.14    3.23
   1   2   4   55.51    3.32
  -2  -2  -4   32.90    1.76
  -2  -2  -4   31.22    1.99
  -2  -2  -4   30.74    1.89
  -2  -2  -4   28.51    2.02
   2   2   4   33.69    1.93
   2   2   4   31.60    1.85
   2   2   4   35.55    2.09
   2   2   4   29.90    1.82
  -3  -2  -4   58.06    3.60
  -3  -2  -4   55.37    3.38
  -3  -2  -4   65.26    3.70
  -3  -2  -4   63.44    3.26
   3   2   4   65.92    5.12
   3   2   4   67.21    3.75
   3   2   4   63.01    3.12
   3   2   4   61.17    3.07
   3   2   4   64.19    3.34
   3   2   4   56.85    3.43
  -4  -2  -4   33.39    2.28
  -4  -2  -4   34.74    2.13
  -4  -2  -4   34.52    2.00
   4   2   4   37.57    1.99
   4   2   4   38.39    2.13
   4   2   4   35.27    2.11
   4   2   4   34.39    2.09
   4   2   4   36.59    1.97
  -5  -2  -4    0.42    0.30
  -5  -2  -4    1.81    0.59
  -5  -2  -4    1.29    0.37
  -5  -2  -4    1.81    0.44
   5   2   4    1.58    0.44
   5   2   4    2.41    0.52
   5   2   4    1.02    0.79
   5   2   4    1.48    0.37
  -6  -2  -4    9.42    1.13
  -6  -2  -4   10.01    0.97
  -6  -2  -4   14.82    1.54
  -6  -2  -4   11.38    1.18
   6   2   4    9.74    1.05
   6   2   4    9.90    1.05
   6   2   4   11.30    1.12
   6   2   4    7.73    1.05
  -7  -2  -4   17.07    1.56
  -7  -2  -4   15.39    1.40
   7   2   4   14.74    1.28
   7   2   4   12.22    1.28
   7   2   4   13.80    1.53
   7   2   4   13.22    1.42
  -8  -2  -4    0.02    0.69
  -8  -2  -4    0.39    0.65
   8   2   4    0.74    0.62
   8   2   4   -0.59    0.51
   8   2   4   -0.44    0.60
  -9  -2  -4    1.25    0.74
  -9  -2  -4    1.02    0.91
   9   2   4    1.10    0.77
   9   2   4    1.24    0.92
 -10  -2  -4    0.02    0.77
 -10  -2  -4   -0.56    0.92
  10   2   4   -0.37    0.95
  10   2   4   -0.27    0.84
   7  -3  -4   -0.01    1.01
   6  -3  -4    0.92    0.87
   6  -3  -4    0.81    0.60
   6  -3  -4    0.30    0.86
  -6   3   4    2.62    1.47
  -6   3   4    0.83    1.03
  -6   3   4    1.07    0.87
   5  -3  -4    0.10    0.57
   5  -3  -4    0.35    0.86
   5  -3  -4   -0.17    0.56
   5  -3  -4    0.17    0.71
  -5   3   4    1.80    1.04
  -5   3   4    0.99    0.86
  -5   3   4   -0.40    0.82
   4  -3  -4   33.27    2.60
   4  -3  -4   30.49    2.42
   4  -3  -4   34.52    2.25
  -4   3   4   32.38    2.75
  -4   3   4   35.86    2.84
  -4   3   4   32.69    2.51
   3  -3  -4    8.18    1.01
   3  -3  -4   11.63    1.38
   3  -3  -4    5.52    1.06
   3  -3  -4   10.14    1.39
  -3   3   4    9.17    1.48
  -3   3   4   13.53    1.74
  -3   3   4    9.08    1.29
  -3   3   4   10.31    1.46
   2  -3  -4    1.80    0.59
   2  -3  -4    0.99    0.37
   2  -3  -4    1.47    0.59
   2  -3  -4    1.15    0.53
  -2   3   4    0.86    0.59
  -2   3   4    1.51    0.45
  -2   3   4    2.27    0.63
  -2   3   4    0.43    0.52
  -2   3   4    1.63    0.71
   1  -3  -4    0.46    0.26
   1  -3  -4    0.33    0.36
   1  -3  -4    0.93    0.40
  -1   3   4    0.47    0.43
  -1   3   4    0.49    0.24
  -1   3   4    1.36    0.56
  -1   3   4    0.31    0.45
  -1   3   4    0.54    0.40
  -1   3   4    1.16    0.36
   0  -3  -4  234.54   12.82
   0  -3  -4  255.02   11.76
   0  -3  -4  236.51   12.71
   0   3   4  248.18   12.86
   0   3   4  253.66   12.14
   0   3   4  238.83   13.43
   0   3   4  237.64   13.75
   0   3   4  241.02   12.43
  -1  -3  -4   11.16    0.99
  -1  -3  -4   13.26    1.04
  -1  -3  -4   11.34    0.91
   1   3   4   10.84    0.99
   1   3   4   10.38    0.93
   1   3   4   11.17    0.90
   1   3   4   11.84    0.98
   1   3   4   10.35    0.65
   1   3   4   11.18    1.92
  -2  -3  -4   14.18    0.97
  -2  -3  -4   12.07    1.06
  -2  -3  -4   14.77    1.10
   2   3   4   13.09    0.97
   2   3   4   16.02    1.12
   2   3   4   13.11    1.02
   2   3   4   14.30    0.84
   2   3   4   13.04    1.01
  -3  -3  -4   22.36    1.44
  -3  -3  -4   17.80    1.44
  -3  -3  -4   21.53    1.30
  -3  -3  -4   21.03    1.49
   3   3   4   22.69    1.44
   3   3   4   21.12    1.15
   3   3   4   20.43    1.40
   3   3   4   21.06    1.39
   3   3   4   26.43    1.57
  -4  -3  -4   33.48    2.01
  -4  -3  -4   34.81    2.27
  -4  -3  -4   33.79    2.22
  -4  -3  -4   33.82    2.13
   4   3   4   38.22    2.14
   4   3   4   33.51    1.89
   4   3   4   37.67    1.96
   4   3   4   34.72    2.08
   4   3   4   36.03    2.13
  -5  -3  -4    1.86    0.55
  -5  -3  -4    2.58    0.54
  -5  -3  -4    2.18    0.51
  -5  -3  -4    2.10    0.45
   5   3   4    2.36    0.43
   5   3   4    2.33    0.54
   5   3   4    1.68    1.15
   5   3   4    1.74    0.48
   5   3   4    1.26    0.39
  -6  -3  -4    2.72    0.60
  -6  -3  -4    5.49    0.93
  -6  -3  -4    4.73    0.70
  -6  -3  -4    4.52    0.75
   6   3   4    4.58    0.77
   6   3   4    1.48    0.46
   6   3   4    3.01    0.63
   6   3   4    3.36    0.62
  -7  -3  -4    0.08    0.58
  -7  -3  -4    0.01    0.48
   7   3   4   -0.61    0.40
   7   3   4    0.14    0.44
   7   3   4    0.42    0.49
   7   3   4   -0.16    0.89
  -8  -3  -4    5.48    1.22
  -8  -3  -4    5.70    1.11
   8   3   4    5.85    1.02
   8   3   4    5.88    1.10
   8   3   4    3.76    0.87
  -9  -3  -4    0.07    0.82
  -9  -3  -4    0.51    0.76
   9   3   4    1.04    0.75
   9   3   4   -0.32    0.67
 -10  -3  -4    0.20    0.85
 -10  -3  -4    0.00    0.97
  10   3   4    0.46    0.94
  10   3   4   -0.20    0.83
   6  -4  -4    2.35    1.03
   6  -4  -4    1.04    0.69
   6  -4  -4    7.74    1.75
  -6   4   4    4.24    1.50
  -6   4   4    0.42    0.72
  -6   4   4    1.14    1.48
   5  -4  -4    6.61    1.47
   5  -4  -4    2.02    0.74
   5  -4  -4    4.38    1.07
  -5   4   4    1.95    0.85
  -5   4   4    4.37    1.47
  -5   4   4    5.03    1.31
   4  -4  -4    3.46    0.90
   4  -4  -4    3.83    1.06
   4  -4  -4    1.64    0.68
   4  -4  -4    2.15    0.89
  -4   4   4    4.99    1.18
  -4   4   4    4.15    1.28
  -4   4   4    2.40    0.99
   3  -4  -4    5.61    1.12
   3  -4  -4    5.90    1.16
   3  -4  -4    9.51    1.09
   3  -4  -4    7.20    1.25
  -3   4   4    8.03    1.52
  -3   4   4    9.58    1.40
  -3   4   4    7.83    1.46
  -3   4   4    9.19    1.55
   2  -4  -4   48.70    2.74
   2  -4  -4   46.05    3.00
   2  -4  -4   46.69    3.12
   2  -4  -4   48.45    3.10
  -2   4   4   46.41    3.22
  -2   4   4   44.58    3.09
  -2   4   4   50.31    3.45
  -2   4   4   47.43    3.34
   1  -4  -4   -0.30    0.26
   1  -4  -4    0.05    0.42
   1  -4  -4    0.09    0.42
   1  -4  -4   -0.25    0.37
  -1   4   4    0.25    0.56
  -1   4   4   -0.17    0.44
  -1   4   4    0.22    0.39
  -1   4   4    0.60    0.54
  -1   4   4   -0.06    0.34
   0  -4  -4  133.38    6.68
   0  -4  -4  134.67    7.36
   0  -4  -4  138.73    7.47
   0   4   4  132.68    7.94
   0   4   4  135.76    7.23
   0   4   4  139.84    6.92
   0   4   4  131.91    7.76
   0   4   4  133.52    7.38
  -1  -4  -4   17.56    1.33
  -1  -4  -4   16.28    1.37
  -1  -4  -4   18.08    1.00
  -1  -4  -4   15.10    1.33
   1   4   4   15.34    1.29
   1   4   4   15.56    1.24
   1   4   4   16.27    1.34
   1   4   4   16.32    1.36
  -2  -4  -4  114.57    6.21
  -2  -4  -4  109.59    6.27
  -2  -4  -4  129.29    6.57
   2   4   4  115.57    5.33
   2   4   4  117.14    6.28
   2   4   4  101.93    6.61
   2   4   4  121.41    6.03
   2   4   4  108.05    5.96
  -3  -4  -4   13.35    1.08
  -3  -4  -4   14.01    0.97
  -3  -4  -4   12.88    1.07
  -3  -4  -4   11.84    0.72
   3   4   4   11.27    0.99
   3   4   4   14.02    1.05
   3   4   4   13.93    1.05
   3   4   4   11.71    0.97
   3   4   4   11.87    0.72
   3   4   4   15.97    1.11
  -4  -4  -4  111.10    5.79
  -4  -4  -4  112.45    6.19
  -4  -4  -4  100.78    6.22
  -4  -4  -4  112.60    5.94
   4   4   4  111.67    5.25
   4   4   4  112.27    5.79
   4   4   4  103.40    6.26
   4   4   4  103.12    5.91
   4   4   4  109.13    5.35
   4   4   4  106.46    5.69
  -5  -4  -4   19.51    1.35
  -5  -4  -4   21.19    1.57
  -5  -4  -4   19.48    1.46
  -5  -4  -4   16.89    1.38
   5   4   4   20.27    1.47
   5   4   4   19.21    1.33
   5   4   4   19.19    1.43
   5   4   4   21.14    1.40
   5   4   4   19.81    1.25
  -6  -4  -4    0.33    0.42
  -6  -4  -4    0.34    0.46
  -6  -4  -4    0.27    0.42
   6   4   4   -0.11    0.38
   6   4   4   -0.17    0.40
   6   4   4    0.59    0.46
   6   4   4    0.38    0.39
  -7  -4  -4   19.05    1.46
  -7  -4  -4   16.37    1.49
  -7  -4  -4   16.11    1.55
   7   4   4   15.12    1.40
   7   4   4   14.87    1.32
   7   4   4   20.44    1.46
   7   4   4   17.59    1.53
  -8  -4  -4    6.54    1.27
  -8  -4  -4    5.87    1.16
   8   4   4    4.57    2.35
   8   4   4    5.91    0.99
   8   4   4    5.33    0.94
   8   4   4    6.67    1.14
  -9  -4  -4   -0.68    0.70
  -9  -4  -4    0.00    0.93
   9   4   4    0.89    1.66
   9   4   4   -0.21    0.69
 -10  -4  -4   -0.65    0.94
 -10  -4  -4    0.03    1.18
  10   4   4   -0.65    0.81
  10   4   4    0.37    0.88
   5  -5  -4    0.38    0.64
   5  -5  -4    0.24    0.73
   5  -5  -4    0.18    0.97
  -5   5   4    0.11    0.75
  -5   5   4   -0.39    1.24
  -5   5   4   -0.95    1.08
   4  -5  -4    0.94    0.69
   4  -5  -4    0.44    0.83
   4  -5  -4   -0.30    0.82
   4  -5  -4   -0.19    0.51
  -4   5   4   -0.74    0.74
  -4   5   4   -0.50    0.87
  -4   5   4   -0.47    1.00
   3  -5  -4    0.63    0.76
   3  -5  -4    1.90    0.81
   3  -5  -4    1.56    0.82
   3  -5  -4    1.81    0.74
  -3   5   4    1.87    1.02
  -3   5   4    3.03    1.02
  -3   5   4    1.95    0.97
  -3   5   4    2.00    1.05
   2  -5  -4   22.14    1.94
   2  -5  -4   25.22    1.75
   2  -5  -4   21.81    1.94
   2  -5  -4   23.72    1.96
  -2   5   4   24.46    2.16
  -2   5   4   24.90    2.27
  -2   5   4   22.60    2.10
  -2   5   4   22.89    1.99
  -2   5   4   22.87    1.85
   1  -5  -4   15.87    1.49
   1  -5  -4   18.56    1.63
   1  -5  -4   16.61    1.26
   1  -5  -4   14.58    1.60
  -1   5   4   17.78    2.00
  -1   5   4   18.27    1.68
  -1   5   4   16.11    1.79
  -1   5   4   15.77    1.46
   0  -5  -4    0.69    0.51
   0  -5  -4    1.31    0.57
   0  -5  -4    1.37    0.39
   0   5   4    1.29    0.50
   0   5   4    1.47    0.41
   0   5   4    1.98    0.70
   0   5   4    1.10    0.63
   0   5   4    1.21    0.58
  -1  -5  -4    6.99    1.05
  -1  -5  -4    7.80    1.12
  -1  -5  -4    6.69    0.70
  -1  -5  -4    7.05    1.11
   1   5   4    5.91    0.88
   1   5   4    8.42    1.12
   1   5   4    9.46    1.12
   1   5   4    9.70    1.25
   1   5   4    9.02    0.90
  -2  -5  -4   77.56    4.55
  -2  -5  -4   81.90    4.76
  -2  -5  -4   81.21    3.96
  -2  -5  -4   81.03    4.63
   2   5   4   76.68    3.75
   2   5   4   79.36    4.75
   2   5   4   78.07    4.40
   2   5   4   80.19    4.59
   2   5   4   74.24    4.80
   2   5   4   86.43    4.38
  -3  -5  -4   12.58    1.03
  -3  -5  -4   12.78    1.07
  -3  -5  -4   14.50    1.14
  -3  -5  -4    8.52    0.68
   3   5   4   10.04    1.00
   3   5   4   13.31    1.07
   3   5   4   11.03    1.01
   3   5   4   11.43    0.81
   3   5   4   13.25    1.04
  -4  -5  -4   14.26    1.28
  -4  -5  -4   15.94    1.22
  -4  -5  -4   18.47    1.01
  -4  -5  -4   17.18    1.33
   4   5   4   16.55    1.34
   4   5   4   16.01    1.27
   4   5   4   16.64    1.25
   4   5   4   14.18    0.99
   4   5   4   16.94    1.30
  -5  -5  -4    5.22    0.64
  -5  -5  -4    6.68    0.93
  -5  -5  -4    6.72    0.80
  -5  -5  -4    7.70    0.90
  -5  -5  -4    7.53    1.03
   5   5   4    5.34    0.77
   5   5   4    5.49    0.79
   5   5   4    7.38    0.98
   5   5   4    7.06    0.70
   5   5   4    6.18    0.87
   5   5   4    7.25    0.89
  -6  -5  -4   35.17    2.30
  -6  -5  -4   32.06    2.33
  -6  -5  -4   34.87    2.19
   6   5   4   33.67    2.21
   6   5   4   30.92    1.98
   6   5   4   33.44    2.24
   6   5   4   30.37    2.05
  -7  -5  -4    3.04    0.76
  -7  -5  -4    3.12    0.83
  -7  -5  -4    2.65    0.85
   7   5   4    1.25    0.54
   7   5   4    1.60    0.69
   7   5   4    2.56    0.73
   7   5   4    1.45    0.65
  -8  -5  -4   11.52    1.63
  -8  -5  -4    9.76    1.42
   8   5   4    8.64    1.31
   8   5   4    9.81    1.26
   8   5   4    7.10    1.17
   8   5   4   12.78    1.47
  -9  -5  -4    1.99    0.94
  -9  -5  -4    3.55    1.27
   9   5   4    0.14    1.33
 -10  -5  -4   -0.13    0.89
 -10  -5  -4    0.07    1.11
  10   5   4   -0.10    0.83
   5  -6  -4    1.06    1.27
  -5   6   4   -0.07    1.14
  -5   6   4    0.84    1.15
  -5   6   4    0.15    1.41
   4  -6  -4    2.86    1.02
   4  -6  -4    0.15    0.61
   4  -6  -4    1.85    1.10
  -4   6   4    1.53    1.24
  -4   6   4    0.76    1.10
  -4   6   4    1.75    1.13
   3  -6  -4    0.01    0.72
   3  -6  -4    0.56    0.67
   3  -6  -4   -0.24    0.69
   3  -6  -4    0.36    0.64
  -3   6   4   -0.31    0.80
  -3   6   4    0.23    0.91
  -3   6   4    0.04    0.82
   2  -6  -4   38.67    2.65
   2  -6  -4   52.32    3.24
   2  -6  -4   40.68    2.99
  -2   6   4   39.59    3.36
  -2   6   4   38.56    2.91
  -2   6   4   36.91    3.05
  -2   6   4   42.55    3.22
   1  -6  -4    0.69    0.53
   1  -6  -4    0.50    0.61
   1  -6  -4    0.66    0.64
   1  -6  -4   -0.04    0.56
  -1   6   4    1.41    0.79
  -1   6   4    0.46    0.61
  -1   6   4    0.26    0.79
  -1   6   4    0.31    0.75
   0  -6  -4   14.28    1.69
   0  -6  -4   13.62    1.64
   0   6   4   12.60    1.60
   0   6   4   11.32    1.63
   0   6   4   13.57    1.53
   0   6   4   10.61    1.43
  -1  -6  -4    1.05    0.63
  -1  -6  -4    0.66    0.52
  -1  -6  -4   -0.24    0.47
   1   6   4    1.22    0.60
   1   6   4    0.74    0.63
   1   6   4    1.22    0.56
   1   6   4    1.88    0.53
   1   6   4    0.73    0.56
  -2  -6  -4   78.14    4.79
  -2  -6  -4   77.19    4.66
  -2  -6  -4   83.09    4.66
   2   6   4   74.52    4.76
   2   6   4   82.61    4.48
   2   6   4   71.26    4.62
   2   6   4   78.11    4.89
   2   6   4   85.11    4.43
  -3  -6  -4    3.50    0.76
  -3  -6  -4    2.84    0.73
  -3  -6  -4    2.33    0.66
   3   6   4    1.63    0.58
   3   6   4    2.53    0.64
   3   6   4    2.36    0.59
   3   6   4    2.89    0.66
  -4  -6  -4    0.80    0.48
  -4  -6  -4    0.89    0.45
  -4  -6  -4    1.23    0.55
   4   6   4    0.85    0.40
   4   6   4    0.71    1.04
   4   6   4    1.07    0.45
   4   6   4    0.84    0.46
   4   6   4    0.60    0.53
  -5  -6  -4    4.47    0.77
  -5  -6  -4    3.96    0.81
  -5  -6  -4    3.87    0.79
   5   6   4    4.37    0.76
   5   6   4    5.60    0.94
   5   6   4    6.42    0.87
   5   6   4    5.33    0.83
  -6  -6  -4   39.81    2.65
  -6  -6  -4   35.25    2.55
  -6  -6  -4   42.34    2.50
   6   6   4   34.22    2.43
   6   6   4   36.84    2.34
   6   6   4   38.74    2.61
   6   6   4   37.96    2.48
  -7  -6  -4    0.06    0.60
  -7  -6  -4    0.69    0.59
  -7  -6  -4    0.28    0.61
   7   6   4    0.05    0.69
   7   6   4   -0.12    0.50
   7   6   4    0.26    0.58
  -8  -6  -4    0.07    0.73
  -8  -6  -4    0.73    0.68
  -8  -6  -4   -1.08    0.67
   8   6   4    1.20    0.77
   8   6   4    1.01    0.70
   8   6   4    0.34    0.65
  -9  -6  -4   -0.29    0.83
  -9  -6  -4    0.92    0.80
   9   6   4    0.30    0.72
   9   6   4    0.87    0.79
 -10  -6  -4    1.25    0.96
 -10  -6  -4    0.58    1.27
  10   6   4    1.68    2.30
   4  -7  -4    0.79    0.86
   4  -7  -4    3.40    1.53
  -4   7   4    2.93    1.58
  -4   7   4    1.17    1.03
   3  -7  -4    6.03    1.54
  -3   7   4    1.50    0.83
  -3   7   4    6.00    1.51
   2  -7  -4    2.12    0.84
   2  -7  -4    2.76    1.00
   2  -7  -4    5.51    1.36
  -2   7   4    3.39    1.25
  -2   7   4    2.89    1.06
  -2   7   4    4.27    1.30
  -2   7   4    1.88    1.03
   1  -7  -4    8.91    1.47
   1  -7  -4    7.50    1.29
   1  -7  -4    5.27    1.18
  -1   7   4    9.92    1.51
  -1   7   4    8.83    1.46
  -1   7   4    7.08    1.49
  -1   7   4    8.43    1.56
   0  -7  -4   44.93    3.17
   0  -7  -4   53.36    3.27
   0   7   4   41.76    3.41
   0   7   4   42.87    3.08
   0   7   4   42.05    3.22
   0   7   4   46.46    3.23
  -1  -7  -4    1.25    0.69
  -1  -7  -4    1.76    0.70
  -1  -7  -4    1.21    0.72
   1   7   4    1.17    0.72
   1   7   4    0.80    0.71
   1   7   4    0.18    0.68
   1   7   4    0.81    0.63
  -2  -7  -4   17.89    1.63
  -2  -7  -4   15.43    1.56
  -2  -7  -4   22.82    1.78
   2   7   4   21.54    1.72
   2   7   4   18.15    1.67
   2   7   4   17.10    1.54
   2   7   4   16.59    1.63
   2   7   4   15.95    1.52
  -3  -7  -4   24.40    1.98
  -3  -7  -4   24.42    1.98
   3   7   4   24.09    1.93
   3   7   4   25.54    1.99
   3   7   4   25.88    1.89
   3   7   4   28.35    2.08
  -4  -7  -4   22.38    1.79
  -4  -7  -4   22.04    1.85
   4   7   4   26.21    1.95
   4   7   4   21.02    1.77
   4   7   4   27.48    1.85
   4   7   4   22.88    1.89
  -5  -7  -4   -0.17    0.29
  -5  -7  -4    0.53    0.56
  -5  -7  -4    2.74    0.72
   5   7   4    0.41    0.45
   5   7   4    0.14    0.47
   5   7   4    0.84    0.63
   5   7   4    0.76    0.53
  -6  -7  -4   24.71    1.91
  -6  -7  -4   25.41    2.00
   6   7   4   24.48    1.87
   6   7   4   24.67    1.80
   6   7   4   22.88    1.88
   6   7   4   27.07    2.11
  -7  -7  -4    9.09    1.40
  -7  -7  -4    9.58    1.44
  -7  -7  -4    7.38    1.23
   7   7   4    8.88    1.36
   7   7   4    8.37    1.22
   7   7   4    9.14    1.28
  -8  -7  -4    3.24    1.02
  -8  -7  -4    4.02    1.00
   8   7   4    3.20    1.03
   8   7   4    2.95    0.90
   8   7   4    4.84    1.04
  -9  -7  -4   -0.24    0.73
   9   7   4    1.75    0.91
   9   7   4    0.11    0.64
 -10  -7  -4    4.41    1.23
  10   7   4    4.39    1.23
  10   7   4    3.69    1.28
   3  -8  -4   17.81    2.58
  -3   8   4    9.41    2.12
  -3   8   4   13.18    2.38
   2  -8  -4    0.09    0.93
   2  -8  -4   -0.61    0.98
   2  -8  -4    0.44    0.82
  -2   8   4    1.10    1.17
  -2   8   4   -0.25    0.76
  -2   8   4    0.41    1.10
   1  -8  -4    0.34    0.74
   1  -8  -4   -0.48    0.88
   1  -8  -4    0.56    0.78
  -1   8   4   -0.57    0.91
  -1   8   4    0.18    0.88
  -1   8   4   -0.22    0.92
  -1   8   4    0.13    0.94
   0  -8  -4   24.06    2.14
   0  -8  -4   23.83    2.19
   0  -8  -4   24.42    2.13
   0   8   4   24.24    2.46
   0   8   4   25.95    2.29
   0   8   4   23.94    2.20
   0   8   4   23.04    2.58
  -1  -8  -4   13.81    1.93
  -1  -8  -4   15.00    1.87
  -1  -8  -4   18.31    2.04
   1   8   4   17.46    1.88
   1   8   4   14.99    2.05
   1   8   4   19.63    2.14
   1   8   4   15.90    2.02
  -2  -8  -4    0.10    0.57
  -2  -8  -4    0.49    0.76
  -2  -8  -4    0.11    0.48
   2   8   4   -0.44    0.61
   2   8   4   -0.68    0.66
   2   8   4   -0.32    0.51
   2   8   4    0.19    0.62
   2   8   4   -0.24    0.68
  -3  -8  -4    2.02    0.85
  -3  -8  -4    3.15    0.95
  -3  -8  -4    2.95    0.90
   3   8   4    2.50    0.80
   3   8   4    3.07    0.80
   3   8   4    1.36    0.74
   3   8   4    4.58    1.08
  -4  -8  -4   58.31    3.54
  -4  -8  -4   48.24    3.43
   4   8   4   55.71    3.51
   4   8   4   46.44    3.20
   4   8   4   56.34    3.62
  -5  -8  -4    5.47    1.04
  -5  -8  -4    5.30    1.10
   5   8   4    4.81    1.01
   5   8   4    3.67    1.04
   5   8   4    4.21    0.86
  -6  -8  -4    0.57    0.71
  -6  -8  -4    1.22    0.79
   6   8   4   -0.26    0.62
   6   8   4    1.37    0.70
   6   8   4   -0.16    0.64
  -7  -8  -4    2.09    0.87
  -7  -8  -4    1.43    0.83
   7   8   4    1.38    0.84
   7   8   4    1.89    0.87
   7   8   4    0.92    0.68
  -8  -8  -4    9.18    1.41
  -8  -8  -4    5.70    1.20
   8   8   4    5.47    1.19
   8   8   4    6.39    1.31
   8   8   4    6.70    1.28
  -9  -8  -4   -0.01    0.80
   9   8   4    0.72    0.94
   9   8   4    0.12    0.95
  10   8   4    0.27    1.02
  10   8   4    1.05    1.17
   2  -9  -4    1.04    0.82
   2  -9  -4    4.36    1.44
  -2   9   4    5.81    1.64
   1  -9  -4    0.82    0.74
   1  -9  -4    7.80    1.60
  -1   9   4    5.03    1.57
  -1   9   4    4.52    1.36
   0  -9  -4    1.55    0.92
   0  -9  -4    1.43    0.88
   0   9   4    2.47    1.28
   0   9   4    4.34    1.39
  -1  -9  -4   36.80    2.81
   1   9   4   35.88    3.08
   1   9   4   32.41    2.90
  -2  -9  -4    6.86    1.29
  -2  -9  -4    8.27    1.48
   2   9   4    6.14    1.41
   2   9   4    4.65    1.10
  -3  -9  -4    1.85    0.90
  -3  -9  -4    0.46    0.76
   3   9   4    1.52    0.83
   3   9   4    0.18    0.73
  -4  -9  -4   10.47    1.55
  -4  -9  -4   11.04    1.64
   4   9   4   14.14    1.82
   4   9   4   12.31    1.48
   4   9   4    9.42    1.55
  -5  -9  -4   19.40    2.08
  -5  -9  -4   15.48    1.89
   5   9   4   13.67    1.61
   5   9   4   14.25    1.91
  -6  -9  -4    5.67    1.29
  -6  -9  -4    4.11    1.08
   6   9   4    6.30    1.14
   6   9   4    5.04    1.13
   6   9   4    2.87    1.08
  -7  -9  -4   -0.55    0.63
  -7  -9  -4    0.53    0.90
   7   9   4   -0.37    0.82
   7   9   4    0.42    0.80
  -8  -9  -4    4.45    1.17
  -8  -9  -4    1.66    1.09
   8   9   4    3.18    1.17
   8   9   4    4.63    1.25
   8   9   4    4.65    1.13
  -9  -9  -4    0.92    0.89
   9   9   4    1.11    1.05
   9   9   4    1.28    1.16
   1 -10  -4    3.60    1.53
  -1  10   4    3.67    1.42
  -1  10   4    5.05    1.88
   0 -10  -4    4.09    1.24
   0 -10  -4    0.52    0.77
   0  10   4    5.03    1.68
   0  10   4    2.44    1.48
  -1 -10  -4    6.87    1.38
  -1 -10  -4    4.47    1.17
   1  10   4    6.32    1.69
   1  10   4    3.34    1.19
  -2 -10  -4    3.68    1.08
  -2 -10  -4    5.03    1.32
   2  10   4    1.55    0.75
   2  10   4    4.21    1.43
  -3 -10  -4   17.96    2.12
  -3 -10  -4   23.19    2.12
  -4 -10  -4    1.21    0.87
  -4 -10  -4    3.18    1.22
   4  10   4    1.77    1.07
   4  10   4    0.86    0.89
  -5 -10  -4    3.95    1.14
  -5 -10  -4    4.39    1.27
   5  10   4    2.72    1.22
   5  10   4    3.65    1.20
  -6 -10  -4    4.39    1.38
  -6 -10  -4    2.12    1.11
   6  10   4    3.80    1.23
   6  10   4    2.12    1.11
  -7 -10  -4    1.10    1.05
  -7 -10  -4    1.27    1.03
   7  10   4    0.51    1.04
  -8 -10  -4    1.59    1.11
  -8 -10  -4    0.78    1.11
   8  10   4   -1.19    0.92
  -1 -11  -4    0.95    0.97
  -1 -11  -4    0.95    1.22
   1  11   4    0.52    1.15
   1  11   4    1.12    1.45
  -2 -11  -4    0.03    0.86
  -2 -11  -4    1.36    1.15
   2  11   4   -0.24    1.21
  -3 -11  -4   11.73    1.85
  -3 -11  -4   17.51    2.18
   3  11   4   24.10    2.70
  -4 -11  -4    3.65    1.33
  -4 -11  -4    2.66    1.17
   4  11   4    2.35    0.99
   4  11   4    2.63    1.47
  -5 -11  -4    4.68    1.36
  -5 -11  -4   -0.02    1.06
   5  11   4    4.53    1.63
   5  11   4    2.33    1.26
  -6 -11  -4    2.69    1.46
  -6 -11  -4    1.03    1.19
   6  11   4    0.87    1.39
   6  11   4    0.82    1.23
  -7 -11  -4    7.28    1.60
  -7 -11  -4    6.48    1.49
   7  11   4    3.04    1.43
  -8 -11  -4    3.58    1.64
  -8 -11  -4    0.65    1.21
  -4 -12  -4   -0.62    1.02
  -4 -12  -4   -0.09    1.17
  -5 -12  -4    3.03    1.57
  -5 -12  -4    0.12    1.17
   5  12   4    2.07    1.32
   5  12   4   -0.34    1.36
   5  10  -5   -0.60    0.99
  -5 -10   5   -0.37    1.09
  -5 -10   5    0.17    1.09
  -5 -10   5    1.84    1.22
   4  10  -5    2.73    1.28
   4  10  -5    0.70    1.13
   4  10  -5    3.19    1.18
  -4 -10   5    0.04    1.23
  -4 -10   5    2.91    1.25
  -4 -10   5    1.28    1.11
   3  10  -5    0.41    0.99
   3  10  -5    3.23    1.46
   3  10  -5    3.60    1.32
  -3 -10   5    1.82    1.27
  -3 -10   5    2.26    1.39
  -3 -10   5    1.80    1.04
   2  10  -5    1.32    0.97
   2  10  -5    3.20    1.41
  -2 -10   5    4.17    1.41
  -2 -10   5    2.76    1.43
   1  10  -5    1.53    1.15
   1  10  -5   -0.04    1.06
  -1 -10   5   -1.02    0.75
  -1 -10   5    0.47    1.50
   0  10  -5    6.08    1.96
   0 -10   5    1.11    1.54
   0 -10   5    4.56    1.46
   6   9  -5    0.12    1.03
   6   9  -5   -0.15    1.10
  -6  -9   5    2.76    1.37
  -6  -9   5    1.03    1.15
   5   9  -5    3.44    1.19
   5   9  -5    2.65    1.16
  -5  -9   5    1.53    1.12
  -5  -9   5    1.43    1.07
  -5  -9   5    2.89    1.19
   4   9  -5    3.65    1.22
   4   9  -5    4.12    1.17
   4   9  -5    3.24    1.19
  -4  -9   5    4.34    1.39
  -4  -9   5    1.08    0.96
  -4  -9   5    4.07    1.20
   3   9  -5    0.03    0.81
   3   9  -5    0.28    0.89
   3   9  -5   -0.33    0.77
  -3  -9   5    0.59    0.96
  -3  -9   5   -0.28    0.73
  -3  -9   5   -0.67    0.87
   2   9  -5    0.39    0.82
   2   9  -5    0.32    0.78
   2   9  -5    0.67    0.84
  -2  -9   5    0.82    0.97
  -2  -9   5    0.77    1.13
  -2  -9   5   -0.11    0.72
   1   9  -5    4.30    1.20
   1   9  -5    3.30    1.26
  -1  -9   5    2.59    0.89
  -1  -9   5    3.62    1.05
  -1  -9   5    3.32    1.24
   0   9  -5    7.76    1.67
   0  -9   5    9.18    1.64
   0  -9   5    7.28    1.72
  -1   9  -5   -0.14    1.22
  -1   9  -5   -0.64    0.78
   1  -9   5   -0.84    0.87
  -2   9  -5    0.23    1.26
  -2   9  -5    0.59    1.35
   2  -9   5    1.34    1.26
   7   8  -5    0.00    1.15
   7   8  -5    0.37    1.06
  -7  -8   5   -0.60    0.91
  -7  -8   5   -0.25    0.69
   6   8  -5   -0.87    0.89
   6   8  -5    2.43    1.11
  -6  -8   5   -0.12    0.88
  -6  -8   5    1.71    1.03
   5   8  -5    0.17    0.80
   5   8  -5    0.76    0.82
  -5  -8   5    0.30    0.87
  -5  -8   5   -0.13    0.75
  -5  -8   5    0.55    0.88
   4   8  -5    4.17    1.16
   4   8  -5    6.27    1.23
   4   8  -5    3.24    1.05
  -4  -8   5    5.40    1.19
  -4  -8   5    3.13    1.02
  -4  -8   5    4.02    1.12
   3   8  -5    1.26    0.75
   3   8  -5    0.47    0.82
   3   8  -5    1.45    0.88
  -3  -8   5    1.22    0.87
  -3  -8   5    1.66    0.90
  -3  -8   5    1.49    0.82
   2   8  -5    3.88    1.11
   2   8  -5    4.05    1.11
  -2  -8   5    5.35    1.11
  -2  -8   5    2.97    1.14
  -2  -8   5    4.85    1.21
   1   8  -5    2.19    0.89
   1   8  -5    3.40    1.05
  -1  -8   5    4.52    0.99
  -1  -8   5    3.57    1.11
  -1  -8   5    5.18    1.32
   0   8  -5   11.18    1.84
   0  -8   5   17.51    2.10
   0  -8   5   12.79    1.74
   0  -8   5   13.85    1.60
  -1   8  -5   -0.02    0.77
  -1   8  -5   -0.41    0.87
   1  -8   5   -0.31    0.99
   1  -8   5    0.93    0.93
  -2   8  -5   -0.67    1.01
  -2   8  -5   -0.51    0.86
   2  -8   5    0.39    0.91
  -3   8  -5    3.07    1.60
  -3   8  -5    1.52    1.28
   3  -8   5    0.39    0.97
   7   7  -5   -0.50    0.71
   7   7  -5    0.99    0.97
   7   7  -5   -0.23    0.94
  -7  -7   5   -0.46    0.76
  -7  -7   5    0.32    0.89
   6   7  -5   -0.03    0.77
   6   7  -5   -0.39    0.78
  -6  -7   5    0.25    0.76
  -6  -7   5    0.35    0.80
   5   7  -5    0.27    0.70
   5   7  -5    1.08    0.90
  -5  -7   5    0.32    0.72
  -5  -7   5    0.12    0.83
  -5  -7   5   -0.29    0.67
   4   7  -5   -0.72    0.41
   4   7  -5    0.23    0.68
   4   7  -5   -0.18    0.61
  -4  -7   5   -0.14    0.62
  -4  -7   5    0.03    0.66
  -4  -7   5    0.09    0.61
   3   7  -5    2.43    0.85
   3   7  -5    1.88    0.79
   3   7  -5    1.69    0.75
  -3  -7   5    1.17    0.74
  -3  -7   5    2.84    0.90
  -3  -7   5    1.39    0.82
   2   7  -5   12.95    1.69
   2   7  -5   11.48    1.58
  -2  -7   5   15.35    1.73
  -2  -7   5   14.08    1.67
  -2  -7   5   13.64    1.59
   1   7  -5   -0.44    0.55
   1   7  -5    0.48    0.68
  -1  -7   5    0.00    0.61
  -1  -7   5   -0.14    0.61
  -1  -7   5    0.04    0.64
   0   7  -5    0.34    0.75
   0   7  -5    0.67    0.72
   0   7  -5    0.35    0.70
   0  -7   5    0.30    0.68
   0  -7   5   -0.33    0.49
   0  -7   5   -0.01    0.67
  -1   7  -5   11.82    1.51
  -1   7  -5    9.74    1.60
  -1   7  -5    8.38    1.41
   1  -7   5    5.94    1.08
   1  -7   5   11.48    1.59
   1  -7   5    9.70    1.57
  -2   7  -5    7.30    1.43
  -2   7  -5    6.70    4.02
   2  -7   5    4.03    1.05
   2  -7   5    8.25    1.41
  -3   7  -5    1.03    1.07
  -3   7  -5    2.96    1.25
   3  -7   5    0.47    0.88
  -4   7  -5    1.89    1.41
  -4   7  -5    0.86    0.92
   4  -7   5    6.24    1.48
   8   6  -5    1.97    1.03
   8   6  -5   -0.64    0.84
  -8  -6   5    0.56    1.28
   7   6  -5    1.86    0.83
   7   6  -5    0.62    0.95
   7   6  -5    1.38    0.88
  -7  -6   5    0.33    0.69
  -7  -6   5    1.08    0.87
  -7  -6   5    0.80    0.95
   6   6  -5    4.86    1.08
   6   6  -5    6.66    1.31
  -6  -6   5    4.65    1.08
  -6  -6   5    4.76    1.12
  -6  -6   5    6.26    1.30
   5   6  -5   12.84    1.55
   5   6  -5   10.23    1.59
  -5  -6   5    9.91    1.50
  -5  -6   5   10.50    1.50
  -5  -6   5   13.72    1.55
   4   6  -5   11.14    1.43
   4   6  -5   11.77    1.61
   4   6  -5   11.82    1.49
  -4  -6   5   10.09    1.40
  -4  -6   5   13.92    1.63
  -4  -6   5   14.13    1.56
   3   6  -5    0.18    0.53
   3   6  -5    0.09    0.56
   3   6  -5    0.29    0.58
  -3  -6   5    0.58    0.63
  -3  -6   5    0.06    0.54
  -3  -6   5    0.12    0.52
   2   6  -5   12.79    1.59
   2   6  -5   16.60    1.50
  -2  -6   5   13.43    1.52
  -2  -6   5   13.38    1.51
  -2  -6   5   14.43    1.56
   1   6  -5    9.80    1.23
   1   6  -5    8.68    1.24
   1   6  -5    9.78    1.33
  -1  -6   5    5.57    1.00
  -1  -6   5    8.73    1.20
  -1  -6   5    9.99    1.26
   0   6  -5    2.37    0.82
   0   6  -5    1.16    0.67
   0   6  -5    1.50    0.64
   0  -6   5    0.92    0.66
   0  -6   5    0.89    0.61
   0  -6   5    2.21    0.72
  -1   6  -5    5.89    1.18
  -1   6  -5    4.99    1.07
  -1   6  -5    5.21    1.01
   1  -6   5    3.08    0.93
   1  -6   5    2.98    0.84
   1  -6   5    2.93    0.80
   1  -6   5    4.76    1.04
  -2   6  -5    6.54    1.36
  -2   6  -5    5.78    1.21
   2  -6   5    4.61    1.12
   2  -6   5    5.74    1.11
   2  -6   5    7.54    1.20
   2  -6   5    6.18    1.18
  -3   6  -5    1.44    0.87
  -3   6  -5    1.01    0.86
   3  -6   5    0.97    0.70
   3  -6   5    0.83    0.75
  -4   6  -5    0.16    0.71
  -4   6  -5    2.06    1.13
   4  -6   5    0.02    0.76
  -5   6  -5   -0.14    1.03
   5  -6   5    0.59    0.96
   8   5  -5    0.67    0.92
   8   5  -5    2.13    1.04
  -8  -5   5    3.54    1.42
  -8  -5   5    1.01    1.07
  -8  -5   5    0.91    0.87
   7   5  -5    2.02    0.88
   7   5  -5    1.81    0.89
  -7  -5   5    1.22    0.88
  -7  -5   5    2.60    1.13
  -7  -5   5    1.06    0.75
   6   5  -5    1.47    0.70
   6   5  -5    3.17    0.91
   6   5  -5    1.78    0.90
  -6  -5   5    0.83    0.72
  -6  -5   5    1.75    0.81
  -6  -5   5    1.46    0.82
   5   5  -5    2.59    0.80
   5   5  -5    2.00    0.85
  -5  -5   5    2.72    0.83
  -5  -5   5    2.70    0.81
  -5  -5   5    3.74    0.86
  -5  -5   5    3.67    0.96
   4   5  -5   14.52    1.53
   4   5  -5   15.43    1.75
   4   5  -5   13.54    1.32
  -4  -5   5   14.75    1.58
  -4  -5   5   15.03    1.54
  -4  -5   5   15.56    1.68
   3   5  -5   14.68    1.31
   3   5  -5   11.63    1.38
   3   5  -5   16.32    1.70
  -3  -5   5   14.94    1.30
  -3  -5   5   10.85    1.39
  -3  -5   5   14.38    1.32
   2   5  -5   36.76    2.54
   2   5  -5   38.18    2.51
  -2  -5   5   36.60    2.42
  -2  -5   5   36.67    2.38
  -2  -5   5   36.11    2.39
   1   5  -5   25.30    1.99
   1   5  -5   27.12    2.00
   1   5  -5   29.77    2.08
  -1  -5   5   28.22    1.97
  -1  -5   5   29.39    1.96
  -1  -5   5   29.50    1.97
  -1  -5   5   26.32    2.06
   0   5  -5    2.70    0.77
   0   5  -5    4.61    0.82
   0   5  -5    3.31    0.75
   0  -5   5    3.64    0.76
   0  -5   5    3.10    0.79
   0  -5   5    2.25    0.72
   0  -5   5    4.00    0.79
  -1   5  -5    1.31    0.56
  -1   5  -5    1.91    0.69
  -1   5  -5    2.07    0.71
   1  -5   5    2.35    0.75
   1  -5   5    1.95    0.63
   1  -5   5    1.62    0.69
  -2   5  -5   27.48    2.11
  -2   5  -5   28.48    1.94
  -2   5  -5   26.98    2.24
   2  -5   5   24.49    2.00
   2  -5   5   27.44    1.92
   2  -5   5   25.38    1.94
   2  -5   5   25.05    2.06
  -3   5  -5   21.03    2.12
  -3   5  -5   23.81    1.97
   3  -5   5   23.12    1.96
   3  -5   5   19.49    1.68
  -4   5  -5   -0.36    0.69
  -4   5  -5   -0.08    0.61
   4  -5   5    0.01    0.70
   4  -5   5    0.86    0.70
  -5   5  -5    0.11    1.50
   5  -5   5    0.07    0.74
   5  -5   5    0.41    0.75
  -6   5  -5   -0.45    1.09
   6  -5   5    0.72    1.07
   8   4  -5    1.26    1.02
   8   4  -5    0.40    0.86
  -8  -4   5    0.59    0.84
  -8  -4   5    0.83    1.08
   7   4  -5    8.86    1.30
   7   4  -5    8.36    1.37
  -7  -4   5    4.08    1.04
  -7  -4   5    6.45    1.29
  -7  -4   5    8.27    1.49
   6   4  -5    0.19    0.56
   6   4  -5    0.09    0.58
  -6  -4   5   -0.21    0.61
  -6  -4   5    0.56    0.65
  -6  -4   5   -0.62    0.66
   5   4  -5    0.86    0.70
   5   4  -5    0.67    0.53
   5   4  -5    0.69    0.55
  -5  -4   5    0.56    0.55
  -5  -4   5    1.05    0.64
  -5  -4   5    2.63    0.87
   4   4  -5    0.49    0.32
   4   4  -5   -0.23    0.42
  -4  -4   5    0.38    0.47
  -4  -4   5    0.53    0.46
  -4  -4   5    0.30    0.56
  -4  -4   5    0.40    0.48
   3   4  -5   35.23    2.41
   3   4  -5   35.78    2.24
   3   4  -5   29.87    2.08
  -3  -4   5   34.21    2.18
  -3  -4   5   34.95    2.24
  -3  -4   5   33.85    2.28
  -3  -4   5   31.92    2.15
   2   4  -5    0.27    0.43
   2   4  -5   -0.05    0.33
   2   4  -5   -0.12    0.27
  -2  -4   5   -0.39    0.32
  -2  -4   5    0.30    0.43
  -2  -4   5    0.11    0.42
  -2  -4   5    0.53    0.42
  -2  -4   5   -0.10    0.25
   1   4  -5    1.35    0.47
   1   4  -5    0.88    0.38
   1   4  -5    0.60    0.42
  -1  -4   5    1.01    0.53
  -1  -4   5    0.61    0.36
  -1  -4   5    0.87    0.39
  -1  -4   5    0.54    0.44
   0   4  -5    1.92    0.54
   0   4  -5    1.30    0.51
   0   4  -5    1.12    0.50
   0  -4   5    0.14    0.22
   0  -4   5    1.32    0.52
   0  -4   5    0.85    0.47
   0  -4   5    2.76    0.61
  -1   4  -5   37.37    2.72
  -1   4  -5   37.96    2.49
  -1   4  -5   39.94    2.63
   1  -4   5   42.99    2.48
   1  -4   5   40.44    2.57
   1  -4   5   43.61    2.57
   1  -4   5   39.89    2.48
  -2   4  -5   16.37    1.31
  -2   4  -5   18.58    1.47
  -2   4  -5   15.25    1.52
   2  -4   5   16.05    1.38
   2  -4   5   13.80    1.32
   2  -4   5   16.33    1.36
   2  -4   5   16.32    1.66
  -3   4  -5    0.10    0.59
  -3   4  -5    0.32    0.50
  -3   4  -5   -0.16    0.48
  -3   4  -5    0.25    0.51
   3  -4   5   -0.22    0.43
   3  -4   5    0.02    0.67
   3  -4   5    0.15    0.47
   3  -4   5    0.46    0.56
  -4   4  -5    8.17    1.28
  -4   4  -5    5.76    1.23
  -4   4  -5    6.39    1.15
   4  -4   5    7.73    1.26
   4  -4   5    8.43    1.21
  -5   4  -5    7.21    1.26
  -5   4  -5    5.09    1.15
   5  -4   5    8.22    1.23
   5  -4   5    6.86    1.32
  -6   4  -5    2.66    2.60
  -6   4  -5    4.33    1.25
   6  -4   5    3.34    1.01
   6  -4   5    2.53    1.05
  -7   4  -5    1.20    1.10
  -7   4  -5   -0.51    1.08
   7  -4   5   -0.56    1.07
   8   3  -5    0.00    0.79
   8   3  -5    1.10    0.92
   8   3  -5   -0.05    0.60
  -8  -3   5    0.14    0.67
  -8  -3   5    0.59    1.19
   7   3  -5    3.54    0.98
   7   3  -5    1.33    0.76
   7   3  -5    1.30    1.82
  -7  -3   5    2.40    1.03
  -7  -3   5    1.27    0.73
  -7  -3   5    2.45    0.97
   6   3  -5    0.06    0.52
   6   3  -5    0.49    0.61
   6   3  -5    0.20    0.64
  -6  -3   5   -0.25    0.60
  -6  -3   5   -1.01    0.54
  -6  -3   5    0.07    0.66
   5   3  -5    4.46    0.82
   5   3  -5    4.52    0.83
   5   3  -5    1.77    0.76
   5   3  -5    2.12    0.63
  -5  -3   5    4.06    0.83
  -5  -3   5    3.35    0.91
  -5  -3   5    2.93    0.84
   4   3  -5    6.37    1.09
   4   3  -5    9.79    1.13
   4   3  -5    7.81    0.95
  -4  -3   5   10.21    1.23
  -4  -3   5   11.39    1.21
  -4  -3   5   10.63    1.24
  -4  -3   5   11.76    1.34
   3   3  -5   30.92    2.50
   3   3  -5   29.15    1.87
   3   3  -5   28.25    1.89
   3   3  -5   26.25    2.01
  -3  -3   5   29.69    1.98
  -3  -3   5   29.83    1.92
  -3  -3   5   27.80    1.87
   2   3  -5    0.96    0.46
   2   3  -5    0.59    0.27
   2   3  -5    1.23    0.41
   2   3  -5    0.68    0.32
  -2  -3   5    1.42    0.46
  -2  -3   5    1.75    0.52
  -2  -3   5    1.05    0.46
  -2  -3   5    0.69    0.46
  -2  -3   5    1.02    0.37
   1   3  -5    3.68    0.46
   1   3  -5    3.38    0.61
   1   3  -5    3.94    0.69
   1   3  -5    3.35    0.58
   1   3  -5    3.77    0.37
  -1  -3   5    3.03    0.64
  -1  -3   5    3.52    0.68
  -1  -3   5    4.03    0.63
  -1  -3   5    4.00    0.50
  -1  -3   5    3.31    0.57
   0   3  -5   18.54    1.37
   0   3  -5   19.92    1.38
   0   3  -5   19.35    1.39
   0   3  -5   18.06    1.14
   0  -3   5   17.45    1.33
   0  -3   5   15.21    1.31
   0  -3   5   15.86    1.27
   0  -3   5   17.97    1.22
  -1   3  -5   65.88    4.36
  -1   3  -5   72.00    4.05
  -1   3  -5   76.66    4.19
   1  -3   5   66.99    3.96
   1  -3   5   72.32    3.97
   1  -3   5   73.65    3.96
   1  -3   5   74.60    3.83
  -2   3  -5   17.71    1.36
  -2   3  -5   19.57    1.50
  -2   3  -5   19.88    1.60
   2  -3   5   20.04    1.39
   2  -3   5   20.30    1.47
   2  -3   5   18.43    1.52
   2  -3   5   20.27    1.45
  -3   3  -5    6.27    1.07
  -3   3  -5    5.92    0.88
  -3   3  -5    6.51    0.94
   3  -3   5    5.13    0.82
   3  -3   5    5.39    0.88
   3  -3   5    5.44    0.99
   3  -3   5    6.77    0.95
  -4   3  -5    4.76    0.98
  -4   3  -5    4.77    0.94
  -4   3  -5    5.53    0.93
   4  -3   5    5.04    0.83
   4  -3   5    5.64    1.04
   4  -3   5    3.93    0.78
  -5   3  -5    0.58    0.67
  -5   3  -5    0.60    0.81
   5  -3   5    1.16    0.64
   5  -3   5    1.48    0.76
  -6   3  -5    3.79    1.16
  -6   3  -5    3.92    1.15
   6  -3   5    2.63    0.98
   6  -3   5    2.82    0.90
  -7   3  -5    0.62    0.99
  -7   3  -5    0.10    1.06
   7  -3   5    0.80    0.78
   7  -3   5   -0.75    0.75
  -8   3  -5    1.99    1.61
  -8   3  -5    1.15    1.24
   8  -3   5    1.14    1.17
   8   2  -5    0.26    0.66
   8   2  -5   -1.04    0.78
  -8  -2   5    0.68    0.81
  -8  -2   5   -0.44    1.15
   7   2  -5    1.06    0.65
   7   2  -5    1.01    0.79
   7   2  -5    1.04    0.79
  -7  -2   5    0.34    1.54
  -7  -2   5    0.46    0.98
   6   2  -5    1.65    0.78
   6   2  -5    1.54    0.74
   6   2  -5    0.93    0.61
  -6  -2   5    0.64    1.15
  -6  -2   5    1.34    0.93
  -6  -2   5    0.64    0.72
  -6  -2   5    1.18    0.85
   5   2  -5   10.52    1.48
   5   2  -5    8.93    1.09
   5   2  -5    9.36    1.19
  -5  -2   5   13.65    1.76
  -5  -2   5    6.50    1.06
  -5  -2   5    6.87    1.19
  -5  -2   5    8.92    1.26
   4   2  -5    0.88    0.47
   4   2  -5    0.60    0.49
   4   2  -5    0.62    0.45
   4   2  -5    0.51    0.41
  -4  -2   5    0.36    0.57
  -4  -2   5    0.50    0.50
  -4  -2   5    0.17    0.42
  -4  -2   5    0.25    0.64
   3   2  -5   29.11    1.82
   3   2  -5   28.37    1.80
   3   2  -5   30.40    1.87
   3   2  -5   28.37    1.94
   3   2  -5   25.30    1.94
  -3  -2   5   29.43    1.87
  -3  -2   5   29.04    1.94
  -3  -2   5   29.90    1.99
  -3  -2   5   26.40    1.87
  -3  -2   5   30.40    2.07
  -3  -2   5   30.63    1.97
  -3  -2   5   30.27    2.08
  -3  -2   5   28.60    1.82
   2   2  -5   16.41    1.09
   2   2  -5   15.61    1.24
   2   2  -5   16.33    1.17
   2   2  -5   17.28    1.19
  -2  -2   5   13.37    1.15
  -2  -2   5   15.05    1.19
  -2  -2   5   16.03    1.20
  -2  -2   5   15.27    1.27
  -2  -2   5   15.55    1.21
  -2  -2   5   15.24    1.14
  -2  -2   5   14.77    1.13
   1   2  -5   45.59    2.63
   1   2  -5   49.08    2.71
   1   2  -5   45.15    2.64
   1   2  -5   45.76    2.77
   1   2  -5   46.47    2.41
  -1  -2   5   39.22    2.60
  -1  -2   5   44.55    2.50
  -1  -2   5   41.89    2.69
  -1  -2   5   44.50    2.48
  -1  -2   5   40.25    2.61
  -1  -2   5   47.12    2.54
  -1  -2   5   46.51    2.52
   0   2  -5   19.34    1.47
   0   2  -5   20.55    1.36
   0   2  -5   19.54    1.51
   0  -2   5   25.01    1.54
   0  -2   5   22.03    1.47
   0  -2   5   21.65    1.27
   0  -2   5   23.59    1.57
   0  -2   5   21.59    1.35
   0  -2   5   23.06    1.30
  -1   2  -5  178.73    9.57
  -1   2  -5  170.33    9.70
  -1   2  -5  182.56   10.19
   1  -2   5  176.66    8.54
   1  -2   5  176.32    8.91
   1  -2   5  177.17    8.88
   1  -2   5  184.14    9.16
   1  -2   5  188.20    9.65
   1  -2   5  174.49    9.26
  -2   2  -5    6.08    0.78
  -2   2  -5    6.05    0.87
  -2   2  -5    5.40    0.70
   2  -2   5    6.80    0.85
   2  -2   5    4.94    0.70
   2  -2   5    6.03    0.83
   2  -2   5    5.76    0.58
   2  -2   5    5.32    0.61
  -3   2  -5   57.46    3.95
  -3   2  -5   68.23    3.72
  -3   2  -5   62.67    3.75
   3  -2   5   63.76    3.37
   3  -2   5   65.67    3.53
   3  -2   5   62.33    3.56
   3  -2   5   63.32    3.63
   3  -2   5   59.86    3.38
  -4   2  -5   46.15    3.04
  -4   2  -5   48.32    3.28
  -4   2  -5   47.84    2.95
   4  -2   5   45.24    2.95
   4  -2   5   46.11    2.69
   4  -2   5   48.60    2.81
   4  -2   5   50.23    2.80
  -5   2  -5   65.12    3.83
  -5   2  -5   64.20    4.06
  -5   2  -5   65.39    4.30
   5  -2   5   60.95    3.68
   5  -2   5   63.17    3.81
   5  -2   5   61.69    3.51
  -6   2  -5    4.96    1.12
  -6   2  -5    4.40    1.20
   6  -2   5    3.32    0.83
   6  -2   5    2.67    0.85
   6  -2   5    3.55    0.89
  -7   2  -5    0.56    0.96
  -7   2  -5   -0.31    0.72
   7  -2   5    1.18    0.73
   7  -2   5    1.30    0.85
   7  -2   5    0.41    0.78
  -8   2  -5    3.91    1.59
  -8   2  -5    4.22    1.26
   8  -2   5    3.14    1.16
   8  -2   5    4.71    1.18
   8   1  -5    0.96    0.90
  -8  -1   5    0.42    1.96
  -7  -1   5    1.04    1.51
   6   1  -5    1.22    0.66
   6   1  -5    3.23    0.91
   6   1  -5    2.45    0.71
   6   1  -5    2.63    0.84
  -6  -1   5    3.95    1.49
  -6  -1   5    2.71    1.08
  -6  -1   5    2.10    0.81
   5   1  -5    5.93    0.87
   5   1  -5    5.98    0.99
   5   1  -5    6.70    1.15
   5   1  -5    5.50    0.99
  -5  -1   5    7.56    1.23
  -5  -1   5    6.65    1.18
  -5  -1   5    7.33    1.51
   4   1  -5    3.32    0.69
   4   1  -5    3.69    0.66
   4   1  -5    3.25    0.72
  -4  -1   5    4.68    0.89
  -4  -1   5    4.32    0.88
  -4  -1   5    4.07    0.99
  -4  -1   5    2.17    0.62
   3   1  -5    0.09    0.30
   3   1  -5    0.20    0.28
   3   1  -5    0.24    0.35
   3   1  -5    0.15    0.31
   3   1  -5    0.09    0.36
  -3  -1   5    0.00    0.32
  -3  -1   5    0.14    0.43
  -3  -1   5    0.07    0.33
  -3  -1   5    0.07    0.32
  -3  -1   5    0.03    0.42
  -3  -1   5    0.12    0.43
  -3  -1   5   -0.24    0.34
  -3  -1   5    0.14    0.33
   2   1  -5   14.55    1.07
   2   1  -5   12.86    1.00
   2   1  -5   15.25    1.15
   2   1  -5   13.62    1.04
  -2  -1   5   15.03    1.06
  -2  -1   5   14.44    1.12
  -2  -1   5   13.32    1.08
  -2  -1   5   14.08    1.14
  -2  -1   5   14.68    1.14
  -2  -1   5   12.53    1.01
  -2  -1   5   14.61    1.18
  -2  -1   5   12.90    1.06
   1   1  -5   92.10    5.65
   1   1  -5   97.10    5.05
   1   1  -5   98.37    5.36
   1   1  -5   88.28    5.48
  -1  -1   5   99.63    4.96
  -1  -1   5  102.08    5.25
  -1  -1   5   96.66    5.38
  -1  -1   5  102.55    5.17
  -1  -1   5   97.68    5.18
  -1  -1   5  102.78    4.83
   0   1  -5   13.03    0.99
   0   1  -5   12.09    0.95
   0   1  -5   11.44    0.89
   0   1  -5   12.07    0.86
   0  -1   5   11.45    0.81
   0  -1   5   11.74    0.95
   0  -1   5   14.60    1.06
   0  -1   5    9.11    0.89
   0  -1   5   11.59    0.84
   0  -1   5   11.39    0.84
   0  -1   5   11.79    0.91
   0  -1   5   12.16    0.98
  -1   1  -5   10.33    0.89
  -1   1  -5    9.02    0.82
  -1   1  -5    9.65    0.60
  -1   1  -5    9.48    0.77
   1  -1   5   10.11    0.78
   1  -1   5    9.05    0.80
   1  -1   5    9.26    0.86
   1  -1   5   10.70    0.66
   1  -1   5    8.39    0.71
   1  -1   5    9.23    0.96
  -2   1  -5   29.66    1.78
  -2   1  -5   25.55    1.88
  -2   1  -5   24.85    1.73
   2  -1   5   28.26    1.51
   2  -1   5   24.60    1.68
   2  -1   5   26.26    1.58
   2  -1   5   27.43    1.67
   2  -1   5   27.49    1.70
   2  -1   5   28.78    1.82
  -3   1  -5   56.35    3.31
  -3   1  -5   54.05    3.47
  -3   1  -5   52.19    3.18
  -3   1  -5   52.53    2.92
   3  -1   5   61.28    3.11
   3  -1   5   52.79    3.11
   3  -1   5   54.49    2.93
   3  -1   5   53.90    3.02
   3  -1   5   54.32    3.25
   3  -1   5   56.33    3.01
  -4   1  -5    0.55    0.46
  -4   1  -5   -0.21    0.35
  -4   1  -5    0.19    0.26
  -4   1  -5    0.02    0.20
   4  -1   5   -0.48    0.31
   4  -1   5    0.17    0.29
   4  -1   5   -0.17    0.37
   4  -1   5    0.02    0.30
  -5   1  -5    6.52    1.01
  -5   1  -5    4.64    0.76
  -5   1  -5    5.95    1.06
   5  -1   5    6.05    0.88
   5  -1   5    4.98    0.90
   5  -1   5    4.93    0.85
   5  -1   5    5.74    0.78
  -6   1  -5   10.59    1.49
  -6   1  -5    7.31    1.27
   6  -1   5   10.37    1.27
   6  -1   5    7.58    1.17
   6  -1   5    9.20    1.19
  -7   1  -5   24.02    2.38
  -7   1  -5   22.36    2.15
   7  -1   5   21.23    1.98
   7  -1   5   23.41    1.85
  -8   1  -5    6.61    2.83
  -8   1  -5    3.60    1.11
   8  -1   5    6.39    1.26
   8  -1   5    2.69    1.06
  -9   1  -5   -0.14    0.78
   9  -1   5    0.55    1.05
   9  -1   5    2.69    1.28
   7   0  -5    0.98    0.82
   7   0  -5    1.24    0.76
  -7   0   5    2.60    1.02
  -7   0   5    0.88    0.79
  -7   0   5    2.14    1.67
   6   0  -5    0.29    1.55
   6   0  -5    0.64    0.62
   6   0  -5    0.11    0.52
  -6   0   5    0.11    0.70
  -6   0   5   -0.07    0.63
  -6   0   5    0.52    1.00
   5   0  -5    0.16    0.48
   5   0  -5    1.35    0.72
   5   0  -5    1.10    0.59
   5   0  -5    1.66    0.69
  -5   0   5    2.16    1.12
  -5   0   5    1.36    0.76
  -5   0   5    0.51    0.67
   4   0  -5   25.35    1.91
   4   0  -5   27.12    1.66
   4   0  -5   28.09    1.99
   4   0  -5   23.48    1.77
  -4   0   5   24.44    2.25
  -4   0   5   23.93    1.91
  -4   0   5   25.28    1.94
  -4   0   5   26.62    1.98
   3   0  -5    0.87    0.48
   3   0  -5    1.31    0.54
   3   0  -5    0.58    0.39
   3   0  -5    1.17    0.42
   3   0  -5    0.26    0.33
  -3   0   5    0.55    0.42
  -3   0   5    0.69    0.36
  -3   0   5    0.31    0.39
  -3   0   5    0.80    0.65
  -3   0   5    0.94    1.06
  -3   0   5    0.13    0.25
  -3   0   5    0.61    0.38
   2   0  -5    0.01    0.21
   2   0  -5   -0.33    0.33
   2   0  -5    0.05    0.20
   2   0  -5   -0.25    0.25
  -2   0   5    0.17    0.31
  -2   0   5    0.17    0.26
  -2   0   5    0.18    0.31
  -2   0   5    0.49    0.35
  -2   0   5   -0.03    0.12
  -2   0   5   -0.27    0.31
  -2   0   5    0.42    0.47
  -2   0   5   -0.15    0.24
  -2   0   5    0.00    0.24
   1   0  -5   77.79    4.64
  -1   0   5   88.75    4.78
  -1   0   5   89.03    5.20
  -1   0   5   89.68    4.83
  -1   0   5   85.01    4.85
  -1   0   5   88.44    4.81
  -1   0   5   97.97    4.71
   0   0  -5   36.74    2.29
   0   0  -5   34.63    2.19
   0   0  -5   37.53    2.12
   0   0   5   34.74    2.13
   0   0   5   36.20    2.06
   0   0   5   32.53    2.08
   0   0   5   32.68    2.18
   0   0   5   36.82    1.96
   0   0   5   37.69    1.91
   0   0   5   32.27    2.26
   0   0   5   35.47    2.00
   0   0   5   34.91    2.14
  -1   0  -5   44.34    2.64
  -1   0  -5   45.72    2.49
  -1   0  -5   46.49    2.79
   1   0   5   43.75    2.50
   1   0   5   43.82    2.36
   1   0   5   46.44    2.63
   1   0   5   40.76    2.31
   1   0   5   44.16    2.38
   1   0   5   43.65    2.47
  -2   0  -5    0.54    0.30
  -2   0  -5    0.27    0.17
  -2   0  -5    0.40    0.31
   2   0   5    0.19    0.25
   2   0   5    0.39    0.25
   2   0   5    0.69    0.29
   2   0   5    0.29    0.26
   2   0   5    0.57    0.31
  -3   0  -5  216.50    9.85
  -3   0  -5  181.69   10.49
  -3   0  -5  198.27   10.89
  -3   0  -5  173.64   10.11
   3   0   5  182.38   10.16
   3   0   5  182.24    8.98
   3   0   5  200.79    9.71
   3   0   5  188.90    9.61
  -4   0  -5    3.16    0.65
  -4   0  -5    1.53    0.53
  -4   0  -5    2.09    0.41
   4   0   5    3.33    0.57
   4   0   5    2.52    0.52
   4   0   5    2.65    0.52
   4   0   5    1.86    0.49
   4   0   5    1.88    0.53
  -5   0  -5    0.73    0.51
  -5   0  -5    0.46    0.50
  -5   0  -5    0.14    0.31
  -5   0  -5    0.61    0.39
   5   0   5    0.94    0.41
   5   0   5    0.02    0.38
   5   0   5    0.04    0.42
   5   0   5    0.59    0.43
  -6   0  -5    0.45    0.45
  -6   0  -5    0.61    0.59
  -6   0  -5    0.93    0.61
   6   0   5    0.21    0.42
   6   0   5    0.61    0.54
   6   0   5    0.66    0.53
   6   0   5    1.11    0.56
  -7   0  -5   25.02    2.12
  -7   0  -5   21.47    2.06
   7   0   5   19.72    1.71
   7   0   5   22.77    1.96
   7   0   5   22.40    1.91
  -8   0  -5   -0.09    0.87
  -8   0  -5    0.30    0.62
   8   0   5   -0.29    0.74
   8   0   5    0.43    0.75
   8   0   5    0.34    0.71
  -9   0  -5    0.24    0.60
   9   0   5    0.47    0.90
   9   0   5    0.47    0.93
   7  -1  -5    0.56    0.72
   7  -1  -5    1.59    1.69
  -7   1   5    1.31    1.17
  -7   1   5   -0.41    1.17
   6  -1  -5    1.87    0.73
   6  -1  -5    3.06    0.98
  -6   1   5    3.14    1.05
  -6   1   5    0.04    0.60
  -6   1   5    2.00    1.21
   5  -1  -5    0.42    0.71
   5  -1  -5   -0.16    0.54
   5  -1  -5   -0.06    0.50
  -5   1   5    0.40    0.66
  -5   1   5   -0.54    0.57
  -5   1   5    0.01    0.91
   4  -1  -5   23.76    1.87
   4  -1  -5   21.24    1.65
   4  -1  -5   20.35    1.84
  -4   1   5   22.63    1.86
  -4   1   5   25.04    2.21
  -4   1   5   24.45    1.96
  -4   1   5   22.95    1.94
   3  -1  -5    6.34    0.82
   3  -1  -5    5.52    0.92
   3  -1  -5    5.23    0.63
   3  -1  -5    5.87    0.96
  -3   1   5    5.40    1.13
  -3   1   5    6.56    1.00
  -3   1   5    5.62    0.94
  -3   1   5    4.38    0.82
  -3   1   5    5.23    1.06
   2  -1  -5    8.95    0.85
   2  -1  -5    7.90    0.95
   2  -1  -5    7.08    0.69
   2  -1  -5    8.18    1.00
  -2   1   5    7.38    0.80
  -2   1   5    6.65    0.93
  -2   1   5    8.80    1.04
  -2   1   5    7.57    1.14
  -2   1   5    9.59    1.04
  -2   1   5    5.89    0.66
  -2   1   5    6.52    0.79
  -2   1   5    6.89    1.07
  -2   1   5    7.05    0.78
   1  -1  -5    6.05    0.62
   1  -1  -5    7.75    0.83
   1  -1  -5    7.09    0.91
  -1   1   5    5.41    0.87
  -1   1   5    7.14    0.88
  -1   1   5    5.43    0.88
  -1   1   5    7.23    0.66
  -1   1   5    6.34    0.75
  -1   1   5    7.53    0.91
  -1   1   5    7.66    0.70
  -1   1   5    7.00    0.64
  -1   1   5    6.30    0.64
   0  -1  -5   90.64    5.12
   0  -1  -5   99.04    5.53
   0  -1  -5   96.01    5.28
   0   1   5   94.75    5.01
   0   1   5   90.04    5.17
   0   1   5  101.20    5.29
   0   1   5   95.30    5.13
   0   1   5   89.48    5.62
   0   1   5   95.91    5.27
   0   1   5   99.89    4.77
   0   1   5   99.24    5.54
   0   1   5  103.65    4.63
  -1  -1  -5   12.49    1.06
  -1  -1  -5   12.34    1.01
  -1  -1  -5   13.25    0.86
  -1  -1  -5   14.61    1.13
   1   1   5   14.64    1.07
   1   1   5   14.72    1.00
   1   1   5   12.48    1.11
   1   1   5   15.91    1.09
   1   1   5   15.68    0.83
  -2  -1  -5   -0.05    0.16
  -2  -1  -5    0.20    0.25
  -2  -1  -5   -0.20    0.16
   2   1   5    0.05    0.15
   2   1   5    0.01    0.22
   2   1   5   -0.10    0.20
   2   1   5   -0.04    0.20
   2   1   5    0.06    0.27
   2   1   5   -0.20    0.19
  -3  -1  -5    1.84    0.47
  -3  -1  -5    1.97    0.46
  -3  -1  -5    1.43    0.32
   3   1   5    1.21    0.35
   3   1   5    1.71    0.40
   3   1   5    1.59    0.39
   3   1   5    1.11    0.36
   3   1   5    1.40    0.38
  -4  -1  -5   21.74    1.53
  -4  -1  -5   19.81    1.17
  -4  -1  -5   20.60    1.32
  -4  -1  -5   19.74    1.52
   4   1   5   19.81    1.38
   4   1   5   20.20    1.34
   4   1   5   20.50    1.34
   4   1   5   20.48    1.39
   4   1   5   18.14    1.18
   4   1   5   20.57    1.39
  -5  -1  -5   47.18    2.59
  -5  -1  -5   42.76    2.82
  -5  -1  -5   41.87    2.56
  -5  -1  -5   44.52    2.89
   5   1   5   42.86    2.53
   5   1   5   43.87    2.61
   5   1   5   37.31    2.49
   5   1   5   46.31    2.63
   5   1   5   40.32    2.43
  -6  -1  -5    0.82    0.57
  -6  -1  -5    0.63    0.43
  -6  -1  -5    0.01    0.49
   6   1   5    0.18    0.37
   6   1   5    0.51    0.45
   6   1   5    1.11    0.50
   6   1   5    0.99    0.51
  -7  -1  -5    9.69    1.38
  -7  -1  -5   10.91    1.49
  -7  -1  -5   11.68    1.31
   7   1   5    8.98    1.20
   7   1   5    9.31    1.27
   7   1   5    8.14    1.09
  -8  -1  -5    0.72    0.67
  -8  -1  -5    0.21    0.64
   8   1   5   -0.24    0.62
   8   1   5    0.61    0.76
   8   1   5    0.67    0.68
  -9  -1  -5    0.33    0.55
   9   1   5    0.19    0.86
   9   1   5    1.89    0.77
   7  -2  -5    2.53    1.08
   6  -2  -5    3.87    1.04
  -6   2   5    3.02    1.10
   5  -2  -5    1.23    0.74
   5  -2  -5    0.92    0.65
   5  -2  -5    0.86    0.83
  -5   2   5    1.52    1.01
  -5   2   5    0.92    0.89
  -5   2   5    0.25    0.83
   4  -2  -5   -0.20    0.56
   4  -2  -5    0.31    0.52
   4  -2  -5    0.15    0.53
  -4   2   5   -0.49    0.70
  -4   2   5    0.54    0.65
  -4   2   5    0.84    0.68
   3  -2  -5   20.59    1.45
   3  -2  -5   20.63    1.66
   3  -2  -5   19.84    1.73
  -3   2   5   17.19    1.67
  -3   2   5   21.13    1.77
  -3   2   5   20.77    2.19
  -3   2   5   19.85    1.64
  -3   2   5   20.73    1.95
   2  -2  -5  148.53    7.19
   2  -2  -5  146.25    7.80
   2  -2  -5  142.89    7.87
  -2   2   5  135.09    7.70
  -2   2   5  141.54    8.38
  -2   2   5  152.49    7.87
  -2   2   5  142.80    7.83
  -2   2   5  136.09    8.32
   1  -2  -5    2.97    0.44
   1  -2  -5    2.64    0.35
   1  -2  -5    2.55    0.55
   1  -2  -5    1.54    0.52
  -1   2   5    4.20    0.52
  -1   2   5    3.14    0.53
  -1   2   5    3.47    0.40
  -1   2   5    3.18    0.70
  -1   2   5    3.29    0.65
  -1   2   5    3.23    0.66
  -1   2   5    3.30    0.75
   0  -2  -5   40.94    2.45
   0  -2  -5   35.43    1.99
   0  -2  -5   41.29    2.28
   0   2   5   39.30    2.54
   0   2   5   36.41    2.50
   0   2   5   37.04    2.32
   0   2   5   40.99    1.94
   0   2   5   41.89    2.47
   0   2   5   34.45    2.14
   0   2   5   39.00    2.43
  -1  -2  -5   23.44    1.23
  -1  -2  -5   23.23    1.67
  -1  -2  -5   23.08    1.64
  -1  -2  -5   25.78    1.47
   1   2   5   21.40    1.65
   1   2   5   26.39    1.72
   1   2   5   24.49    1.49
   1   2   5   25.11    1.60
   1   2   5   22.76    1.23
   1   2   5   24.13    1.36
   1   2   5   27.38    1.67
  -2  -2  -5  132.22    7.14
  -2  -2  -5  131.47    7.90
  -2  -2  -5  136.66    7.68
  -2  -2  -5  138.34    7.31
   2   2   5  123.48    7.38
   2   2   5  163.59    8.00
   2   2   5  139.62    7.07
   2   2   5  139.19    7.09
  -3  -2  -5   68.03    4.02
  -3  -2  -5   71.55    3.69
  -3  -2  -5   66.54    3.91
   3   2   5   64.34    3.61
   3   2   5   69.67    3.35
   3   2   5   69.26    3.77
   3   2   5   64.68    4.05
   3   2   5   61.23    3.35
   3   2   5   63.59    3.59
  -4  -2  -5   23.17    1.63
  -4  -2  -5   23.54    1.64
  -4  -2  -5   22.91    1.47
  -4  -2  -5   21.32    1.27
   4   2   5   20.23    1.47
   4   2   5   25.58    1.39
   4   2   5   20.50    1.46
   4   2   5   22.63    1.49
   4   2   5   19.43    1.37
  -5  -2  -5   19.71    1.35
  -5  -2  -5   18.52    1.44
  -5  -2  -5   19.81    1.52
   5   2   5   17.90    1.30
   5   2   5   17.80    1.29
   5   2   5   16.79    1.35
   5   2   5   18.00    1.33
   5   2   5   16.76    1.23
  -6  -2  -5    0.18    0.52
  -6  -2  -5    0.34    0.37
  -6  -2  -5    0.23    0.40
   6   2   5    0.04    0.29
   6   2   5    0.35    0.45
   6   2   5    0.42    0.43
   6   2   5    0.39    0.42
  -7  -2  -5    0.20    0.57
  -7  -2  -5    0.83    0.57
  -7  -2  -5    0.05    0.42
   7   2   5    0.33    0.48
   7   2   5    0.45    0.58
   7   2   5    0.40    0.48
   7   2   5    0.97    0.56
  -8  -2  -5    1.68    0.74
  -8  -2  -5    1.03    0.66
   8   2   5    2.54    0.90
   8   2   5    1.83    0.65
   8   2   5    1.18    0.70
  -9  -2  -5    0.59    0.62
  -9  -2  -5    1.26    0.90
   9   2   5    2.98    0.97
   9   2   5    1.67    0.88
 -10  -2  -5   -0.20    0.59
  10   2   5    0.43    0.96
  10   2   5   -0.30    0.89
   6  -3  -5    0.16    0.69
   6  -3  -5    1.22    0.87
   6  -3  -5    0.08    0.67
  -6   3   5   -0.25    0.95
  -6   3   5    0.75    0.78
   5  -3  -5    5.06    1.14
   5  -3  -5    3.49    0.95
   5  -3  -5    7.97    1.26
  -5   3   5    8.08    1.61
  -5   3   5    4.83    1.26
  -5   3   5    6.14    1.38
   4  -3  -5    5.14    1.14
   4  -3  -5    6.64    1.00
   4  -3  -5    3.66    0.98
   4  -3  -5    5.85    1.12
  -4   3   5    6.29    1.23
  -4   3   5    5.87    1.29
  -4   3   5    4.32    1.24
   3  -3  -5    1.74    0.71
   3  -3  -5    1.33    0.51
   3  -3  -5    1.58    0.65
   3  -3  -5    1.73    0.72
  -3   3   5    0.89    0.81
  -3   3   5    2.62    0.94
  -3   3   5    1.88    0.81
  -3   3   5    1.57    0.75
   2  -3  -5   17.26    1.55
   2  -3  -5   20.45    1.65
   2  -3  -5   16.87    1.47
   2  -3  -5   19.33    3.43
  -2   3   5   17.62    1.83
  -2   3   5   15.92    1.87
  -2   3   5   16.93    1.60
  -2   3   5   16.54    1.35
  -2   3   5   16.55    1.68
   1  -3  -5   51.11    4.11
   1  -3  -5   43.57    2.83
   1  -3  -5   46.46    2.97
  -1   3   5   48.06    2.56
  -1   3   5   46.10    2.97
  -1   3   5   46.24    2.82
  -1   3   5   44.49    3.13
  -1   3   5   46.94    3.12
  -1   3   5   47.71    3.07
   0  -3  -5   48.82    2.86
   0  -3  -5   50.72    2.50
   0  -3  -5   46.63    3.00
   0   3   5   48.79    3.15
   0   3   5   47.65    2.28
   0   3   5   47.14    2.98
   0   3   5   52.74    2.92
   0   3   5   47.60    2.65
   0   3   5   42.68    3.09
  -1  -3  -5   18.10    1.51
  -1  -3  -5   20.64    1.40
  -1  -3  -5   21.41    1.60
   1   3   5   20.76    1.14
   1   3   5   20.45    1.55
   1   3   5   22.10    1.53
   1   3   5   19.34    1.32
   1   3   5   22.32    1.61
   1   3   5   21.47    1.46
  -2  -3  -5  209.14   10.45
  -2  -3  -5  179.13    9.93
  -2  -3  -5  172.65    9.80
   2   3   5  180.55   10.01
   2   3   5  188.83   10.69
   2   3   5  194.92    9.55
   2   3   5  191.58    9.59
  -3  -3  -5   15.09    1.15
  -3  -3  -5   13.28    1.07
  -3  -3  -5   12.56    0.87
  -3  -3  -5   13.59    1.12
   3   3   5   15.37    1.17
   3   3   5   13.26    1.06
   3   3   5   15.26    2.94
   3   3   5   12.08    1.00
  -4  -3  -5    4.03    0.65
  -4  -3  -5    4.52    0.65
  -4  -3  -5    4.50    0.77
  -4  -3  -5    4.79    0.51
   4   3   5    4.58    0.65
   4   3   5    4.08    0.57
   4   3   5    3.45    0.57
   4   3   5    3.02    0.43
   4   3   5    4.84    0.69
  -5  -3  -5   40.93    2.73
  -5  -3  -5   42.41    2.38
  -5  -3  -5   43.69    2.58
   5   3   5   39.89    2.33
   5   3   5   40.28    2.50
   5   3   5   39.69    2.49
   5   3   5   39.98    2.51
   5   3   5   44.88    2.34
  -6  -3  -5   26.07    1.91
  -6  -3  -5   32.23    2.06
  -6  -3  -5   26.41    2.06
   6   3   5   26.02    1.92
   6   3   5   28.59    1.83
   6   3   5   28.52    2.24
   6   3   5   25.79    1.77
  -7  -3  -5    0.01    0.54
  -7  -3  -5    0.31    0.48
   7   3   5    0.33    0.50
   7   3   5    0.80    0.53
   7   3   5    0.62    0.60
   7   3   5    0.84    0.55
  -8  -3  -5    3.54    0.89
  -8  -3  -5    2.84    0.91
   8   3   5    3.09    0.80
   8   3   5    3.08    0.90
   8   3   5    2.69    0.77
  -9  -3  -5    1.10    0.88
  -9  -3  -5    0.92    0.83
   9   3   5    2.04    0.90
   9   3   5    0.85    0.75
 -10  -3  -5    0.88    0.93
 -10  -3  -5    0.45    0.96
  10   3   5    1.55    1.01
  10   3   5    0.21    1.05
   6  -4  -5    1.03    0.95
   6  -4  -5    0.09    0.86
  -6   4   5    0.83    1.47
  -6   4   5    1.61    1.27
   5  -4  -5    0.88    0.75
   5  -4  -5    1.35    0.91
   5  -4  -5    2.31    0.87
  -5   4   5    2.05    1.33
  -5   4   5    1.32    1.05
   4  -4  -5    9.75    1.53
   4  -4  -5   13.98    1.81
   4  -4  -5    7.53    1.32
   4  -4  -5   11.57    1.43
  -4   4   5   13.84    1.85
  -4   4   5   10.16    1.74
  -4   4   5   11.83    1.99
   3  -4  -5    1.59    0.63
   3  -4  -5    1.91    0.87
   3  -4  -5    2.34    0.91
   3  -4  -5    1.51    0.78
  -3   4   5    2.16    0.98
  -3   4   5    1.89    1.00
  -3   4   5    2.28    0.99
  -3   4   5    2.10    1.00
   2  -4  -5   13.99    1.15
   2  -4  -5   13.20    1.65
   2  -4  -5   15.35    1.64
   2  -4  -5   10.03    1.39
  -2   4   5   11.24    1.70
  -2   4   5   15.03    1.79
  -2   4   5   11.31    1.52
  -2   4   5   15.99    1.88
   1  -4  -5    1.60    0.62
   1  -4  -5    0.70    0.35
   1  -4  -5    1.57    0.64
   1  -4  -5    1.96    0.58
  -1   4   5    1.50    0.64
  -1   4   5    1.52    0.74
  -1   4   5    0.21    0.48
  -1   4   5    1.08    0.47
  -1   4   5    1.66    0.71
   0  -4  -5   36.98    2.36
   0  -4  -5   35.96    1.97
   0  -4  -5   35.56    2.49
   0   4   5   34.12    2.07
   0   4   5   34.68    2.46
   0   4   5   36.92    2.61
   0   4   5   36.24    2.56
   0   4   5   37.78    2.37
  -1  -4  -5    2.51    0.68
  -1  -4  -5    3.06    0.73
  -1  -4  -5    2.99    0.64
   1   4   5    3.36    0.69
   1   4   5    3.47    0.65
   1   4   5    3.55    0.82
   1   4   5    3.24    0.61
  -2  -4  -5   26.72    1.87
  -2  -4  -5   27.85    1.79
  -2  -4  -5   23.20    1.84
   2   4   5   28.27    1.93
   2   4   5   27.18    1.90
   2   4   5   25.54    1.77
   2   4   5   23.81    1.40
   2   4   5   26.06    1.67
   2   4   5   29.74    1.84
  -3  -4  -5    8.15    0.72
  -3  -4  -5    6.85    0.97
  -3  -4  -5   10.17    1.09
   3   4   5    7.72    0.94
   3   4   5    8.72    0.79
   3   4   5    9.27    0.98
   3   4   5    8.28    0.93
   3   4   5    7.56    0.89
  -4  -4  -5   57.70    3.38
  -4  -4  -5   54.71    3.03
  -4  -4  -5   52.14    3.19
   4   4   5   54.76    3.21
   4   4   5   54.06    3.39
   4   4   5   56.59    2.84
   4   4   5   49.74    3.10
   4   4   5   52.89    3.10
  -5  -4  -5   18.20    1.51
  -5  -4  -5   19.67    1.46
  -5  -4  -5   19.45    1.45
  -5  -4  -5   18.74    1.29
   5   4   5   19.61    1.43
   5   4   5   19.22    1.34
   5   4   5   19.70    1.46
   5   4   5   17.58    1.42
  -6  -4  -5    3.02    0.66
  -6  -4  -5    5.63    0.97
  -6  -4  -5    4.26    0.79
   6   4   5    3.94    0.70
   6   4   5    3.12    0.71
   6   4   5    3.70    0.61
   6   4   5    3.11    0.72
  -7  -4  -5    3.85    0.99
  -7  -4  -5    4.94    0.95
   7   4   5    2.57    0.72
   7   4   5    3.73    0.88
   7   4   5    4.30    1.87
   7   4   5    5.25    0.92
  -8  -4  -5    2.01    0.83
  -8  -4  -5    0.44    0.69
   8   4   5    1.61    0.74
   8   4   5    1.47    0.76
   8   4   5    0.73    0.63
  -9  -4  -5    2.95    0.95
  -9  -4  -5    3.85    1.11
   9   4   5    1.99    0.83
 -10  -4  -5    1.25    1.18
 -10  -4  -5    0.43    1.01
  10   4   5    0.29    0.86
   5  -5  -5    0.61    0.80
   5  -5  -5    0.28    0.92
  -5   5   5    1.06    1.10
  -5   5   5   -0.98    1.30
  -5   5   5    0.55    1.17
   4  -5  -5   10.32    1.63
   4  -5  -5    8.59    1.36
  -4   5   5   11.97    2.07
  -4   5   5   11.12    1.80
  -4   5   5   11.02    1.78
   3  -5  -5   -0.14    0.76
   3  -5  -5    0.81    0.69
   3  -5  -5    0.97    0.84
   3  -5  -5    0.42    0.58
  -3   5   5    1.02    0.99
  -3   5   5    1.47    1.08
  -3   5   5    0.03    0.79
  -3   5   5   -0.36    0.81
   2  -5  -5    1.42    0.76
   2  -5  -5    2.08    0.79
   2  -5  -5    1.25    0.78
  -2   5   5    0.81    0.82
  -2   5   5    0.44    0.72
  -2   5   5    1.27    0.93
  -2   5   5    0.56    0.60
  -2   5   5    0.55    0.79
   1  -5  -5    5.53    1.03
   1  -5  -5    4.61    1.08
   1  -5  -5    4.60    0.94
  -1   5   5    4.28    0.88
  -1   5   5    4.02    1.04
  -1   5   5    4.88    1.15
  -1   5   5    4.47    1.05
   0  -5  -5  123.29    6.71
   0  -5  -5  111.87    6.53
   0   5   5  117.64    6.96
   0   5   5  110.50    6.46
   0   5   5  120.28    7.11
   0   5   5  113.79    6.56
  -1  -5  -5    0.53    0.44
  -1  -5  -5    0.51    0.48
  -1  -5  -5    0.25    0.44
   1   5   5    0.00    0.40
   1   5   5    0.97    0.56
   1   5   5    0.25    0.50
   1   5   5    0.69    0.43
   1   5   5    0.62    0.35
  -2  -5  -5    1.68    0.61
  -2  -5  -5    2.87    0.68
  -2  -5  -5    2.06    0.59
   2   5   5    1.57    0.52
   2   5   5    2.21    0.67
   2   5   5    1.60    0.56
   2   5   5    2.42    0.61
   2   5   5    1.97    0.48
  -3  -5  -5   35.57    2.35
  -3  -5  -5   31.92    2.32
  -3  -5  -5   35.87    2.20
   3   5   5   35.95    2.36
   3   5   5   30.62    2.16
   3   5   5   34.00    2.27
   3   5   5   35.52    1.85
   3   5   5   34.86    2.20
  -4  -5  -5   91.12    5.22
  -4  -5  -5   82.86    4.99
  -4  -5  -5   84.84    4.84
   4   5   5   89.77    4.83
   4   5   5   87.80    4.37
   4   5   5   87.75    4.88
   4   5   5   91.02    5.03
   4   5   5   90.30    5.29
  -5  -5  -5   -0.03    0.36
  -5  -5  -5   -0.10    0.35
  -5  -5  -5    0.51    0.42
  -5  -5  -5    0.44    0.46
   5   5   5    0.04    0.85
   5   5   5   -0.02    0.40
   5   5   5    0.54    0.39
   5   5   5   -0.33    0.32
   5   5   5    0.06    0.31
  -6  -5  -5   13.55    1.27
  -6  -5  -5   18.99    1.53
  -6  -5  -5   16.94    1.51
   6   5   5   19.28    1.52
   6   5   5   16.75    1.37
   6   5   5   17.56    1.45
   6   5   5   15.23    1.77
  -7  -5  -5   15.45    1.47
  -7  -5  -5   16.75    1.63
   7   5   5   17.36    1.71
   7   5   5   13.84    1.56
   7   5   5   13.31    3.56
  -8  -5  -5    1.85    0.79
  -8  -5  -5    2.17    0.92
   8   5   5    1.87    0.77
   8   5   5    1.72    0.80
   8   5   5    4.93    1.03
  -9  -5  -5    0.82    0.92
  -9  -5  -5    0.99    0.83
   9   5   5   -0.12    0.74
   9   5   5    0.12    0.67
 -10  -5  -5    1.28    1.20
 -10  -5  -5    0.94    1.07
  10   5   5    0.46    0.89
   4  -6  -5    1.72    0.84
   4  -6  -5    3.66    1.30
  -4   6   5    5.62    1.61
  -4   6   5    6.58    1.67
  -4   6   5    6.53    1.68
   3  -6  -5    5.45    1.38
   3  -6  -5    3.56    1.01
  -3   6   5    2.20    1.10
  -3   6   5    4.79    1.51
  -3   6   5    4.94    1.48
  -3   6   5    5.01    1.35
   2  -6  -5    7.03    1.30
   2  -6  -5   11.42    1.70
  -2   6   5    6.98    1.26
  -2   6   5    8.20    1.56
  -2   6   5    8.82    1.57
  -2   6   5    5.56    1.31
   1  -6  -5    2.03    0.82
   1  -6  -5    2.24    0.86
   1  -6  -5    2.25    0.83
  -1   6   5    1.40    0.77
  -1   6   5    2.39    0.96
  -1   6   5    1.26    0.74
  -1   6   5    2.45    0.96
   0  -6  -5   58.89    4.04
   0  -6  -5   59.20    4.10
   0   6   5   68.86    4.49
   0   6   5   71.84    4.41
   0   6   5   63.60    4.08
   0   6   5   68.72    4.12
  -1  -6  -5    5.21    0.98
  -1  -6  -5    5.08    0.99
  -1  -6  -5    4.19    0.98
   1   6   5    3.95    0.90
   1   6   5    4.77    1.03
   1   6   5    5.11    0.77
   1   6   5    5.65    1.02
   1   6   5    6.73    1.05
  -2  -6  -5   86.31    4.92
  -2  -6  -5   84.14    4.76
  -2  -6  -5   79.03    4.66
   2   6   5   80.19    4.54
   2   6   5   75.75    4.65
   2   6   5   76.03    4.91
   2   6   5   70.72    4.80
   2   6   5   75.53    4.36
  -3  -6  -5    8.38    1.11
  -3  -6  -5    6.34    1.03
  -3  -6  -5    8.08    1.18
   3   6   5    7.36    1.02
   3   6   5    7.75    1.07
   3   6   5    6.90    1.01
   3   6   5    8.63    1.06
  -4  -6  -5   66.66    3.94
  -4  -6  -5   71.34    4.14
  -4  -6  -5   67.97    4.19
   4   6   5   67.74    3.90
   4   6   5   68.14    4.21
   4   6   5   72.39    4.11
   4   6   5   60.79    3.91
   4   6   5   68.77    3.58
  -5  -6  -5    1.89    0.70
  -5  -6  -5    2.04    0.68
  -5  -6  -5    2.51    0.67
  -5  -6  -5    2.21    0.63
   5   6   5    1.68    0.59
   5   6   5    3.44    0.72
   5   6   5    2.45    0.73
  -6  -6  -5   27.56    2.15
  -6  -6  -5   29.26    2.00
  -6  -6  -5   26.56    2.10
   6   6   5   31.16    2.10
   6   6   5   28.82    1.93
   6   6   5   30.69    2.18
   6   6   5   27.77    2.01
  -7  -6  -5    6.55    1.18
  -7  -6  -5    7.18    1.21
   7   6   5    6.20    1.07
   7   6   5    6.11    1.01
   7   6   5    6.50    1.08
  -8  -6  -5   27.90    2.31
  -8  -6  -5   32.56    2.49
   8   6   5   30.10    2.33
   8   6   5   28.12    2.29
  -9  -6  -5    0.42    0.98
  -9  -6  -5    0.64    0.73
   9   6   5    0.53    0.86
   9   6   5    0.63    1.69
 -10  -6  -5    0.80    1.38
 -10  -6  -5   -0.02    0.91
  10   6   5    0.59    0.79
   4  -7  -5   -0.80    1.08
   3  -7  -5    1.28    1.18
   3  -7  -5    0.60    0.84
  -3   7   5   -0.14    0.87
  -3   7   5    1.42    1.19
   2  -7  -5   14.94    2.09
  -2   7   5   20.75    2.56
  -2   7   5   16.10    2.26
   1  -7  -5    9.11    1.51
   1  -7  -5    9.36    1.45
   1  -7  -5   10.73    1.61
  -1   7   5   11.41    1.74
  -1   7   5   14.06    1.97
  -1   7   5    5.44    1.33
  -1   7   5   11.28    1.70
   0  -7  -5    8.32    1.46
   0  -7  -5    9.74    1.50
   0   7   5   10.68    1.62
   0   7   5    8.83    1.44
   0   7   5    6.95    1.50
   0   7   5   11.16    1.65
  -1  -7  -5    1.71    0.75
  -1  -7  -5    1.74    0.85
  -1  -7  -5    2.46    0.83
   1   7   5    1.60    0.79
   1   7   5    1.82    0.78
   1   7   5    1.31    0.80
   1   7   5    2.20    0.93
  -2  -7  -5   78.39    5.23
  -2  -7  -5   86.04    5.10
  -2  -7  -5   83.07    5.12
   2   7   5   91.49    5.47
   2   7   5   92.04    5.00
   2   7   5   87.72    5.18
   2   7   5   76.28    5.22
  -3  -7  -5    1.54    0.68
  -3  -7  -5    1.67    0.68
  -3  -7  -5    0.94    0.68
   3   7   5    0.11    0.55
   3   7   5    1.42    0.63
   3   7   5    0.97    0.65
   3   7   5    1.85    0.67
  -4  -7  -5    6.22    1.06
  -4  -7  -5    6.82    1.15
  -4  -7  -5    7.23    1.17
   4   7   5    5.97    0.98
   4   7   5    8.65    1.14
   4   7   5    5.33    1.02
   4   7   5    4.98    0.97
  -5  -7  -5   17.41    1.67
  -5  -7  -5   15.11    1.65
  -5  -7  -5   12.57    1.54
   5   7   5   14.68    2.96
   5   7   5    8.65    1.38
   5   7   5   12.64    1.47
  -6  -7  -5   16.86    1.61
  -6  -7  -5   19.23    1.65
  -6  -7  -5   17.56    1.53
   6   7   5   16.04    1.78
   6   7   5   18.77    1.58
   6   7   5   16.40    1.59
   6   7   5   16.00    1.67
  -7  -7  -5    0.50    0.75
  -7  -7  -5    0.26    0.70
  -7  -7  -5    0.66    0.63
   7   7   5    0.40    0.72
   7   7   5    0.17    0.62
   7   7   5   -0.02    0.58
  -8  -7  -5    0.25    0.63
  -8  -7  -5    0.66    0.90
   8   7   5   -0.50    0.67
   8   7   5   -0.63    0.68
   8   7   5    0.00    0.70
  -9  -7  -5    1.57    0.96
  -9  -7  -5    1.74    1.23
   9   7   5    0.80    0.85
   9   7   5    1.48    0.92
 -10  -7  -5    3.62    1.29
  10   7   5    2.78    2.22
  10   7   5    2.29    1.20
   3  -8  -5    0.84    1.43
  -3   8   5    1.80    1.40
   2  -8  -5    1.11    1.09
   2  -8  -5    1.84    0.92
  -2   8   5    3.39    1.49
  -2   8   5    4.57    1.57
   1  -8  -5   28.25    2.82
  -1   8   5   17.70    2.35
  -1   8   5   19.43    2.38
  -1   8   5   17.20    2.28
   0  -8  -5    3.04    1.04
   0  -8  -5    2.53    1.06
   0  -8  -5    2.37    0.95
   0  -8  -5    2.47    0.92
   0   8   5    1.54    1.13
   0   8   5    1.94    1.05
   0   8   5    0.92    0.87
   0   8   5    2.22    1.18
  -1  -8  -5    1.35    0.94
  -1  -8  -5    1.71    0.85
  -1  -8  -5    1.28    0.82
   1   8   5    0.14    0.89
   1   8   5    0.66    0.88
   1   8   5    0.93    0.88
   1   8   5    1.13    0.97
  -2  -8  -5   45.54    3.38
  -2  -8  -5   51.75    3.37
  -2  -8  -5   49.43    3.31
   2   8   5   49.17    3.30
   2   8   5   43.08    3.32
   2   8   5   46.70    3.50
   2   8   5   44.90    3.33
  -3  -8  -5    5.50    1.15
  -3  -8  -5    4.69    1.14
  -3  -8  -5    5.98    1.20
   3   8   5    3.67    1.05
   3   8   5    5.16    1.05
   3   8   5    3.14    0.92
   3   8   5    5.78    1.17
  -4  -8  -5    2.99    0.91
  -4  -8  -5    1.99    0.78
  -4  -8  -5    2.28    0.82
   4   8   5    3.08    0.83
   4   8   5    3.80    1.02
   4   8   5    1.41    0.87
  -5  -8  -5    0.05    0.42
  -5  -8  -5    0.78    0.74
  -5  -8  -5    0.10    0.67
   5   8   5    0.43    0.65
   5   8   5    1.11    0.74
   5   8   5    0.32    0.74
  -6  -8  -5   48.92    3.33
  -6  -8  -5   47.11    3.18
   6   8   5   48.00    3.12
   6   8   5   47.25    3.22
  -7  -8  -5    0.98    0.71
  -7  -8  -5   -0.13    0.59
   7   8   5   -0.20    0.78
   7   8   5    0.07    0.74
   7   8   5    0.33    0.66
  -8  -8  -5    0.09    0.65
   8   8   5   -0.12    0.77
   8   8   5   -0.99    0.68
   8   8   5   -0.36    0.78
  -9  -8  -5    0.47    0.83
   9   8   5    0.17    0.97
   9   8   5    0.31    0.98
 -10  -8  -5    1.34    0.95
  10   8   5    1.98    1.20
  10   8   5    0.95    1.18
   1  -9  -5   10.40    1.91
   1  -9  -5    2.94    1.11
  -1   9   5    2.66    1.21
  -1   9   5   10.02    1.93
  -1   9   5    7.40    1.94
   0  -9  -5    2.20    0.92
   0  -9  -5    6.18    1.41
   0  -9  -5    9.48    1.83
   0   9   5    4.22    1.41
   0   9   5    6.54    1.62
   0   9   5    6.21    1.68
  -1  -9  -5    8.80    1.54
  -1  -9  -5    6.81    1.41
   1   9   5    7.98    1.54
   1   9   5    9.87    1.61
   1   9   5    9.82    1.83
  -2  -9  -5    6.79    1.31
  -2  -9  -5    7.75    1.50
   2   9   5    3.10    0.97
   2   9   5    5.26    1.26
   2   9   5    5.24    1.47
  -3  -9  -5   26.11    2.57
  -3  -9  -5   21.60    2.04
   3   9   5   18.91    2.11
   3   9   5   19.74    2.11
   3   9   5   21.54    2.12
  -4  -9  -5    7.58    1.36
  -4  -9  -5   10.12    1.58
   4   9   5    5.07    1.12
   4   9   5    5.90    1.29
   4   9   5    5.84    1.25
  -5  -9  -5    0.97    0.81
  -5  -9  -5   -0.09    0.65
   5   9   5    0.37    0.67
   5   9   5    0.65    0.83
   5   9   5    0.51    0.82
  -6  -9  -5    9.55    1.52
  -6  -9  -5    7.38    1.34
   6   9   5    4.96    1.09
   6   9   5    3.96    1.23
   6   9   5    6.13    1.29
  -7  -9  -5    0.53    0.78
  -7  -9  -5    0.20    0.83
   7   9   5    0.56    0.87
   7   9   5    0.03    0.75
  -8  -9  -5    3.63    1.13
   8   9   5    2.98    1.19
  -9  -9  -5    0.67    0.89
   9   9   5    2.58    1.19
   9   9   5    0.57    1.00
   0 -10  -5   -0.22    0.86
   0 -10  -5    4.74    1.52
   0  10   5    0.04    1.29
   0  10   5    3.25    1.64
  -1 -10  -5   27.39    2.52
   1  10   5   26.43    3.17
  -2 -10  -5    1.65    1.08
  -2 -10  -5    0.84    0.98
   2  10   5    0.31    0.76
   2  10   5    0.18    1.17
  -3 -10  -5    3.08    1.17
  -3 -10  -5    5.84    1.37
   3  10   5    2.20    1.13
  -4 -10  -5    8.66    1.54
  -4 -10  -5   10.92    1.75
   4  10   5    7.92    1.51
   4  10   5    6.71    1.31
  -5 -10  -5   24.19    2.31
  -5 -10  -5   24.94    2.64
   5  10   5   23.44    2.63
  -6 -10  -5    4.45    1.37
  -6 -10  -5    3.36    1.23
   6  10   5    3.87    1.29
   6  10   5    4.66    1.31
  -7 -10  -5    4.77    1.38
  -7 -10  -5    4.43    1.35
   7  10   5    1.61    1.15
  -8 -10  -5    0.92    1.05
   8  10   5    0.55    1.05
  -1 -11  -5    2.82    1.49
  -2 -11  -5    2.72    1.22
  -2 -11  -5    0.50    1.16
   2  11   5    1.09    1.29
  -3 -11  -5    1.57    1.20
  -3 -11  -5    1.98    1.19
   3  11   5    1.39    1.17
  -4 -11  -5    0.89    1.09
  -4 -11  -5   -0.70    1.00
   4  11   5   -0.27    0.78
  -5 -11  -5   12.72    2.03
  -5 -11  -5   12.25    1.88
   5  11   5    8.08    1.71
   5  11   5   10.69    1.98
  -6 -11  -5    1.50    1.29
  -6 -11  -5    2.51    1.30
   6  11   5    0.63    1.29
   6  11   5   -0.26    1.15
  -7 -11  -5   -0.82    1.17
  -7 -11  -5   -0.20    0.98
   7  11   5    0.13    1.20
   4  10  -6    0.78    1.16
  -4 -10   6    0.58    1.05
   3  10  -6   -0.26    1.11
   3  10  -6    0.41    1.21
   3  10  -6    0.32    1.10
  -3 -10   6    0.56    1.36
  -3 -10   6   -0.77    1.15
  -3 -10   6    1.65    1.17
   2  10  -6    1.88    1.25
   2  10  -6    0.92    1.13
   2  10  -6    0.94    0.99
  -2 -10   6    1.17    1.13
  -2 -10   6    0.48    1.50
  -2 -10   6    0.78    1.23
   1  10  -6    0.29    1.22
   5   9  -6   -0.36    0.93
   5   9  -6    0.04    1.00
  -5  -9   6    0.78    1.15
  -5  -9   6   -0.83    1.15
  -5  -9   6    0.99    1.32
   4   9  -6    4.93    1.50
   4   9  -6    3.19    1.21
   4   9  -6    4.53    1.32
  -4  -9   6    3.08    1.23
  -4  -9   6    3.35    1.39
  -4  -9   6    3.36    1.23
   3   9  -6    9.26    1.51
   3   9  -6    5.53    1.45
   3   9  -6    7.09    1.50
  -3  -9   6    7.27    1.44
  -3  -9   6    8.71    1.64
  -3  -9   6    5.60    1.59
   2   9  -6    5.35    1.29
   2   9  -6    7.62    1.53
  -2  -9   6    5.88    1.48
  -2  -9   6    4.59    1.16
  -2  -9   6    5.03    1.40
   1   9  -6    1.49    1.05
   1   9  -6    2.81    1.15
  -1  -9   6    1.64    1.24
  -1  -9   6    3.89    1.31
  -1  -9   6    1.42    0.87
   0   9  -6    1.09    1.04
   0   9  -6    1.92    1.19
   0  -9   6    0.12    0.92
   0  -9   6    0.41    1.05
  -1   9  -6    6.27    1.73
   1  -9   6    6.63    1.61
   6   8  -6    0.45    1.04
   6   8  -6    1.61    1.07
  -6  -8   6    0.30    1.00
  -6  -8   6    1.90    1.13
   5   8  -6    0.05    0.90
   5   8  -6   -0.22    0.80
  -5  -8   6    0.91    1.02
  -5  -8   6   -0.55    1.04
  -5  -8   6   -0.02    0.86
   4   8  -6    1.84    0.98
   4   8  -6    3.92    1.15
   4   8  -6    3.72    1.17
  -4  -8   6    2.00    1.01
  -4  -8   6    0.76    0.87
  -4  -8   6    0.56    0.85
   3   8  -6    0.06    0.73
   3   8  -6   -0.88    0.62
   3   8  -6   -0.75    0.69
  -3  -8   6   -0.37    0.81
  -3  -8   6   -0.15    0.95
  -3  -8   6    1.24    0.88
   2   8  -6    1.45    0.72
   2   8  -6    2.83    1.15
  -2  -8   6    1.30    1.03
  -2  -8   6    1.04    0.86
  -2  -8   6    2.42    1.03
   1   8  -6    0.78    0.82
   1   8  -6    0.38    0.80
  -1  -8   6    0.05    0.94
  -1  -8   6    1.87    0.87
  -1  -8   6    2.53    1.14
   0   8  -6   12.27    1.71
   0  -8   6    6.94    1.44
   0  -8   6   10.93    1.45
  -1   8  -6    8.35    4.00
   1  -8   6    5.52    1.18
   1  -8   6    9.37    1.62
  -2   8  -6    0.71    1.28
  -2   8  -6    2.26    1.20
   2  -8   6    1.24    1.12
  -3   8  -6    4.83    1.61
  -3   8  -6   -0.66    1.19
   3  -8   6    1.68    1.16
   7   7  -6    0.92    1.05
   7   7  -6    1.68    1.21
   7   7  -6    0.84    0.90
  -7  -7   6    1.87    1.19
  -7  -7   6    0.47    1.00
   6   7  -6    0.26    0.87
   6   7  -6    0.58    0.92
  -6  -7   6    0.19    0.87
  -6  -7   6    0.65    1.02
   5   7  -6    0.06    0.79
   5   7  -6    0.31    0.74
  -5  -7   6    0.76    0.99
  -5  -7   6    0.61    0.90
  -5  -7   6   -0.57    0.72
   4   7  -6    9.25    1.48
   4   7  -6    7.82    1.37
   4   7  -6    8.55    1.51
  -4  -7   6    6.72    1.34
  -4  -7   6    8.88    1.44
  -4  -7   6   11.33    1.55
   3   7  -6    0.97    0.72
   3   7  -6    0.58    0.44
   3   7  -6    0.95    0.71
  -3  -7   6    0.05    0.82
  -3  -7   6    0.98    0.79
  -3  -7   6   -0.29    0.68
   2   7  -6    0.62    0.73
   2   7  -6    1.79    0.84
  -2  -7   6    0.27    0.67
  -2  -7   6    1.23    0.77
  -2  -7   6    1.51    0.80
   1   7  -6    1.19    0.78
   1   7  -6    0.79    0.74
  -1  -7   6    1.21    0.91
  -1  -7   6    1.19    0.62
  -1  -7   6    0.92    0.81
   0   7  -6   18.53    1.96
   0   7  -6   12.85    1.63
   0   7  -6   18.08    1.81
   0  -7   6   15.16    1.70
   0  -7   6   16.58    1.90
   0  -7   6   16.90    1.94
  -1   7  -6    1.28    0.77
  -1   7  -6    3.85    1.06
  -1   7  -6    3.12    1.14
   1  -7   6    2.68    1.01
   1  -7   6    2.36    0.83
  -2   7  -6    2.17    1.09
  -2   7  -6    1.28    0.98
   2  -7   6    2.10    0.86
   2  -7   6    1.76    0.99
  -3   7  -6    1.78    1.17
  -3   7  -6    4.63    3.27
   3  -7   6    4.89    1.31
   3  -7   6    2.22    0.95
  -4   7  -6    1.66    1.30
  -4   7  -6    0.14    0.89
   4  -7   6    1.79    1.11
   7   6  -6   -0.65    0.83
   7   6  -6    0.00    0.78
  -7  -6   6   -0.09    0.89
  -7  -6   6    0.35    0.86
   6   6  -6    0.41    0.83
   6   6  -6    0.04    0.77
  -6  -6   6   -0.25    0.78
  -6  -6   6    0.25    0.77
   5   6  -6    6.87    1.38
   5   6  -6    5.83    1.16
  -5  -6   6    4.74    1.20
  -5  -6   6    4.28    1.23
  -5  -6   6    8.20    1.27
   4   6  -6    4.07    0.99
   4   6  -6    5.20    1.18
  -4  -6   6    4.50    1.12
  -4  -6   6    3.44    0.92
  -4  -6   6    5.02    1.04
   3   6  -6    7.02    1.16
   3   6  -6    9.55    1.32
   3   6  -6    7.59    1.31
  -3  -6   6    8.07    1.31
  -3  -6   6    8.91    1.34
  -3  -6   6    7.43    1.20
   2   6  -6   -0.21    0.56
   2   6  -6   -0.13    0.55
  -2  -6   6   -0.59    0.48
  -2  -6   6   -0.12    0.57
  -2  -6   6    0.27    0.62
   1   6  -6    3.16    0.84
   1   6  -6    3.00    0.89
  -1  -6   6    2.73    0.86
  -1  -6   6    2.12    0.81
  -1  -6   6    2.96    0.80
   0   6  -6   19.94    1.95
   0   6  -6   24.65    2.08
   0   6  -6   25.56    2.02
   0  -6   6   26.40    1.99
   0  -6   6   23.95    1.99
   0  -6   6   23.19    1.87
   0  -6   6   21.53    2.25
  -1   6  -6    4.14    1.05
  -1   6  -6    3.09    0.88
  -1   6  -6    4.31    1.01
   1  -6   6    3.64    0.90
   1  -6   6    4.48    1.04
   1  -6   6    3.07    0.96
  -2   6  -6    0.87    0.86
  -2   6  -6    0.95    0.83
  -2   6  -6    0.70    0.77
   2  -6   6    2.36    0.95
   2  -6   6    1.36    0.83
   2  -6   6    1.43    0.75
  -3   6  -6    0.62    0.91
  -3   6  -6    1.02    0.97
   3  -6   6    1.94    0.83
   3  -6   6    1.85    0.85
  -4   6  -6    2.32    1.22
  -4   6  -6    2.56    0.98
   4  -6   6    3.20    1.14
   4  -6   6    1.71    0.88
  -5   6  -6    0.08    1.13
   5  -6   6   -0.69    0.93
   7   5  -6    0.58    0.76
   7   5  -6   -0.01    0.75
  -7  -5   6    0.29    0.95
  -7  -5   6   -0.03    0.85
  -7  -5   6    0.06    0.73
   6   5  -6    3.03    1.04
   6   5  -6    1.93    0.84
   6   5  -6    1.37    0.72
  -6  -5   6    1.22    0.95
  -6  -5   6    0.79    0.74
  -6  -5   6    2.14    0.91
   5   5  -6    0.83    0.73
   5   5  -6    1.57    0.76
  -5  -5   6    0.49    0.84
  -5  -5   6    2.15    0.98
  -5  -5   6    2.89    0.89
   4   5  -6   10.11    1.39
   4   5  -6   13.50    1.70
  -4  -5   6   11.59    1.41
  -4  -5   6   13.34    1.60
  -4  -5   6   11.65    1.50
   3   5  -6   -0.07    0.39
   3   5  -6    0.73    0.55
   3   5  -6   -0.20    0.55
  -3  -5   6    0.69    0.57
  -3  -5   6    0.27    0.63
  -3  -5   6    0.10    0.57
   2   5  -6    3.24    0.78
   2   5  -6    3.56    0.86
  -2  -5   6    3.18    0.82
  -2  -5   6    4.60    0.95
  -2  -5   6    2.80    0.83
  -2  -5   6    4.00    0.86
   1   5  -6    1.67    0.67
   1   5  -6    2.24    0.72
   1   5  -6    2.61    0.67
  -1  -5   6    2.31    0.65
  -1  -5   6    1.48    0.66
  -1  -5   6    1.92    0.76
  -1  -5   6    1.36    0.70
   0   5  -6   22.69    1.81
   0   5  -6   23.81    1.88
   0   5  -6   22.16    1.79
   0  -5   6   21.72    1.72
   0  -5   6   19.34    1.79
   0  -5   6   22.53    1.81
  -1   5  -6   -0.38    0.49
  -1   5  -6    1.07    0.63
  -1   5  -6    0.03    0.55
   1  -5   6   -0.09    0.55
   1  -5   6   -0.07    0.49
   1  -5   6    0.18    0.50
   1  -5   6   -0.08    0.56
  -2   5  -6    4.31    1.06
  -2   5  -6    2.57    0.74
  -2   5  -6    3.34    0.93
   2  -5   6    4.06    0.95
   2  -5   6    3.20    0.89
   2  -5   6    2.95    0.82
  -3   5  -6    0.12    0.69
  -3   5  -6   -0.03    0.77
   3  -5   6   -0.20    0.55
   3  -5   6   -0.11    0.53
   3  -5   6   -0.27    0.59
  -4   5  -6    2.39    0.93
  -4   5  -6    6.13    1.34
   4  -5   6    7.91    1.26
   4  -5   6    5.41    1.22
  -5   5  -6    1.74    1.09
   5  -5   6    0.01    0.82
   5  -5   6    0.61    0.78
  -6   5  -6    0.50    1.21
   6  -5   6    0.21    1.02
   7   4  -6   -0.44    0.72
   7   4  -6    0.16    0.73
  -7  -4   6   -0.03    1.01
  -7  -4   6    0.68    0.92
  -7  -4   6   -0.05    0.83
   6   4  -6    1.11    0.71
   6   4  -6    0.29    0.60
  -6  -4   6   -0.27    0.62
  -6  -4   6   -0.15    0.67
  -6  -4   6    0.12    0.72
   5   4  -6   10.79    1.52
   5   4  -6   12.06    1.45
   5   4  -6   10.92    1.40
  -5  -4   6   11.70    1.45
  -5  -4   6    9.98    1.43
  -5  -4   6   13.52    1.73
   4   4  -6   -0.23    0.58
   4   4  -6   -0.06    0.38
  -4  -4   6    0.29    0.49
  -4  -4   6    0.23    0.70
  -4  -4   6    0.35    0.62
  -4  -4   6   -0.27    0.47
   3   4  -6    1.29    0.61
   3   4  -6    1.95    0.74
   3   4  -6    1.88    0.62
  -3  -4   6    2.14    0.75
  -3  -4   6    2.40    0.66
  -3  -4   6    2.24    0.74
   2   4  -6   43.20    2.75
   2   4  -6   43.88    2.70
  -2  -4   6   39.65    2.54
  -2  -4   6   36.08    2.71
  -2  -4   6   39.53    2.60
  -2  -4   6   44.05    2.63
   1   4  -6   36.76    2.37
   1   4  -6   32.44    2.31
   1   4  -6   36.67    2.35
  -1  -4   6   30.25    2.15
  -1  -4   6   34.78    2.24
  -1  -4   6   38.94    2.32
  -1  -4   6   32.58    2.35
   0   4  -6   15.53    1.39
   0   4  -6   15.50    1.37
   0   4  -6   14.35    1.35
   0  -4   6   17.95    1.46
   0  -4   6   15.98    1.37
   0  -4   6   16.77    1.27
   0  -4   6   16.13    1.34
  -1   4  -6    4.60    0.81
  -1   4  -6    6.01    0.95
  -1   4  -6    3.89    0.81
   1  -4   6    3.14    0.70
   1  -4   6    4.03    0.69
   1  -4   6    2.98    0.76
   1  -4   6    3.36    0.79
  -2   4  -6   15.23    1.71
  -2   4  -6   16.48    1.44
  -2   4  -6   12.08    1.33
   2  -4   6   12.68    1.43
   2  -4   6   14.70    1.61
   2  -4   6   11.39    1.40
  -3   4  -6    7.47    1.33
  -3   4  -6   10.46    1.32
   3  -4   6    7.48    1.25
   3  -4   6    7.68    1.15
   3  -4   6    8.68    1.20
  -4   4  -6   19.98    1.74
  -4   4  -6   15.12    1.86
   4  -4   6   19.72    1.92
   4  -4   6   15.85    1.86
  -5   4  -6    1.15    0.89
  -5   4  -6    1.19    0.73
   5  -4   6    1.87    0.84
   5  -4   6    1.92    0.97
  -6   4  -6    2.59    1.15
  -6   4  -6    1.20    0.84
   6  -4   6    2.36    0.99
   6  -4   6    1.86    1.04
  -7   4  -6    0.09    1.01
  -7   4  -6   -0.99    1.00
   7  -4   6    0.67    1.15
   7  -4   6   -0.50    0.83
   7   3  -6    1.88    0.91
   7   3  -6    0.97    0.88
  -7  -3   6    2.39    1.07
  -7  -3   6    1.95    1.10
  -7  -3   6    1.37    0.87
   6   3  -6    0.56    0.60
   6   3  -6   -0.28    0.61
  -6  -3   6   -0.15    0.65
  -6  -3   6   -0.71    0.72
  -6  -3   6    0.77    0.78
   5   3  -6   10.19    1.29
   5   3  -6   10.85    1.31
  -5  -3   6   11.16    1.39
  -5  -3   6   11.00    1.51
  -5  -3   6   12.12    1.53
   4   3  -6    0.50    0.58
   4   3  -6    0.71    0.53
  -4  -3   6    0.09    0.65
  -4  -3   6    0.17    0.50
  -4  -3   6    0.23    0.60
  -4  -3   6    0.95    0.57
   3   3  -6    7.15    1.13
   3   3  -6    8.98    1.09
   3   3  -6   11.28    1.15
  -3  -3   6    9.41    1.21
  -3  -3   6    7.76    1.05
  -3  -3   6   10.22    1.38
  -3  -3   6    8.81    1.16
   2   3  -6   13.76    1.42
   2   3  -6   12.54    1.10
   2   3  -6   12.69    1.14
  -2  -3   6   13.04    1.14
  -2  -3   6   12.67    1.07
  -2  -3   6   15.37    1.55
  -2  -3   6   12.10    1.10
  -2  -3   6   14.05    1.40
   1   3  -6   13.82    1.16
   1   3  -6   12.29    1.15
   1   3  -6   14.29    1.23
  -1  -3   6   13.22    1.36
  -1  -3   6   13.36    1.24
  -1  -3   6   13.95    1.14
   0   3  -6   26.90    1.96
   0   3  -6   28.10    1.91
   0   3  -6   27.57    1.94
   0  -3   6   28.52    1.93
   0  -3   6   25.65    1.84
   0  -3   6   28.52    1.82
   0  -3   6   27.62    1.75
  -1   3  -6    8.08    0.80
  -1   3  -6   10.90    1.17
  -1   3  -6    9.60    1.16
   1  -3   6   11.52    1.20
   1  -3   6   13.31    1.10
   1  -3   6    8.93    0.82
   1  -3   6    9.57    1.13
  -2   3  -6   61.74    3.71
  -2   3  -6   56.31    3.35
  -2   3  -6   56.97    3.46
   2  -3   6   56.61    3.20
   2  -3   6   52.74    3.29
   2  -3   6   52.00    3.30
  -3   3  -6   21.75    1.72
  -3   3  -6   24.25    1.87
  -3   3  -6   21.04    1.63
   3  -3   6   21.41    1.78
   3  -3   6   21.64    1.68
   3  -3   6   20.25    1.62
  -4   3  -6    0.20    0.64
  -4   3  -6    0.92    0.59
  -4   3  -6    0.27    0.52
   4  -3   6   -0.13    0.50
   4  -3   6    0.01    0.50
   4  -3   6   -0.03    0.64
  -5   3  -6    1.45    0.80
  -5   3  -6    0.45    0.76
  -5   3  -6    1.02    0.56
   5  -3   6    1.92    0.83
   5  -3   6    1.89    0.74
  -6   3  -6    7.54    1.36
  -6   3  -6    4.82    1.21
   6  -3   6    7.27    1.23
   6  -3   6    6.32    1.30
  -7   3  -6    1.18    1.09
  -7   3  -6    1.99    1.15
   7  -3   6    0.08    0.98
   7  -3   6    1.60    0.96
   8  -3   6    0.39    0.98
   7   2  -6    0.22    0.71
   7   2  -6    1.60    0.93
  -7  -2   6    0.51    1.47
  -7  -2   6    0.14    1.08
   6   2  -6    0.71    0.70
   6   2  -6    0.17    0.78
   6   2  -6   -1.01    0.56
  -6  -2   6   -0.04    0.73
  -6  -2   6   -0.01    0.70
  -6  -2   6    0.65    0.80
   5   2  -6    1.03    0.64
   5   2  -6    0.82    0.53
   5   2  -6    0.62    1.34
  -5  -2   6   -0.11    0.74
  -5  -2   6    0.31    0.61
  -5  -2   6    0.69    0.71
  -5  -2   6   -0.42    0.68
   4   2  -6    3.13    0.72
   4   2  -6    3.59    0.73
   4   2  -6    2.89    0.78
   4   2  -6    3.72    0.76
  -4  -2   6    3.08    0.76
  -4  -2   6    5.33    1.10
  -4  -2   6    3.95    0.89
  -4  -2   6    3.87    0.84
  -4  -2   6    2.07    0.73
   3   2  -6   39.08    2.47
   3   2  -6   39.26    2.38
   3   2  -6   41.69    2.39
   3   2  -6   47.79    2.70
  -3  -2   6   33.51    2.47
  -3  -2   6   41.22    2.41
  -3  -2   6   42.76    2.70
  -3  -2   6   39.83    2.58
  -3  -2   6   38.85    2.66
  -3  -2   6   38.23    2.57
  -3  -2   6   39.12    2.44
   2   2  -6    0.14    0.34
   2   2  -6    0.16    0.37
   2   2  -6    0.87    0.34
   2   2  -6    0.08    0.36
  -2  -2   6    0.71    0.42
  -2  -2   6    0.32    0.41
  -2  -2   6    0.49    0.39
  -2  -2   6    0.84    0.47
  -2  -2   6    0.58    0.41
  -2  -2   6    0.64    0.40
  -2  -2   6    0.22    0.37
  -2  -2   6    0.58    0.51
   1   2  -6   36.39    2.14
   1   2  -6   40.24    2.43
   1   2  -6   35.81    2.46
   1   2  -6   37.44    2.34
   1   2  -6   36.60    2.37
  -1  -2   6   40.23    2.26
  -1  -2   6   40.67    2.30
  -1  -2   6   40.50    2.27
  -1  -2   6   38.05    2.41
  -1  -2   6   37.58    2.37
  -1  -2   6   38.63    2.47
  -1  -2   6   38.33    2.26
   0   2  -6    8.08    0.71
   0   2  -6    8.34    0.83
   0   2  -6    7.99    0.95
   0   2  -6    7.04    0.65
   0  -2   6    5.66    0.85
   0  -2   6    6.29    0.92
   0  -2   6    8.33    0.80
   0  -2   6    7.86    0.79
   0  -2   6    7.89    0.99
   0  -2   6    9.67    0.95
   0  -2   6    7.31    0.77
  -1   2  -6   18.75    1.39
  -1   2  -6   16.86    1.41
  -1   2  -6   16.37    1.23
   1  -2   6   18.30    1.37
   1  -2   6   18.06    1.38
   1  -2   6   17.56    1.14
   1  -2   6   16.91    1.16
   1  -2   6   18.40    1.29
   1  -2   6   19.66    1.46
  -2   2  -6    7.60    0.95
  -2   2  -6    7.43    0.86
  -2   2  -6    8.21    1.03
   2  -2   6    7.95    0.97
   2  -2   6    9.26    1.07
   2  -2   6    6.76    0.92
   2  -2   6    7.27    0.75
  -3   2  -6   35.09    2.26
  -3   2  -6   33.19    2.44
  -3   2  -6   35.38    2.24
   3  -2   6   30.74    2.21
   3  -2   6   33.39    2.01
   3  -2   6   34.24    2.16
   3  -2   6   31.43    2.10
  -4   2  -6   15.81    1.32
  -4   2  -6   15.26    1.72
  -4   2  -6   14.17    1.32
   4  -2   6   12.84    1.52
   4  -2   6   12.49    1.18
   4  -2   6   14.18    1.43
   4  -2   6   14.62    1.27
  -5   2  -6    7.46    1.29
  -5   2  -6    6.89    1.13
   5  -2   6    9.11    1.19
   5  -2   6    3.77    1.00
   5  -2   6    7.09    1.08
   5  -2   6    7.06    1.05
  -6   2  -6   16.00    1.92
  -6   2  -6   14.98    1.92
   6  -2   6   17.33    1.72
   6  -2   6   12.71    1.69
  -7   2  -6    3.25    1.39
  -7   2  -6    3.35    1.11
   7  -2   6    2.10    0.94
   7  -2   6    1.94    1.00
  -8   2  -6    0.94    1.11
  -8   2  -6   -0.59    1.09
   8  -2   6    0.62    0.89
   8  -2   6    1.47    1.20
   7   1  -6    1.03    0.80
   7   1  -6    2.20    0.99
  -7  -1   6    0.84    0.88
  -7  -1   6    1.29    1.51
  -7  -1   6    2.65    1.21
   6   1  -6   -0.70    0.55
   6   1  -6    0.54    0.69
   6   1  -6    0.37    1.68
  -6  -1   6   -0.38    0.66
  -6  -1   6    0.52    1.12
  -6  -1   6   -0.82    0.66
   5   1  -6    0.03    0.60
   5   1  -6    1.03    0.67
   5   1  -6    0.32    0.63
   5   1  -6    0.68    0.59
  -5  -1   6    0.75    1.02
  -5  -1   6   -0.25    0.58
  -5  -1   6    0.98    0.72
  -5  -1   6    0.97    1.86
   4   1  -6    2.90    0.66
   4   1  -6    4.33    0.79
   4   1  -6    3.18    0.74
  -4  -1   6    4.19    1.11
  -4  -1   6    3.92    0.89
  -4  -1   6    4.08    0.83
  -4  -1   6    4.44    0.96
   3   1  -6   19.70    1.37
   3   1  -6   16.94    1.33
   3   1  -6   19.93    1.52
   3   1  -6   19.75    1.44
   3   1  -6   15.72    1.25
  -3  -1   6   18.00    1.48
  -3  -1   6   18.89    1.53
  -3  -1   6   17.03    1.47
  -3  -1   6   19.36    1.50
  -3  -1   6   16.45    1.31
  -3  -1   6   16.82    1.37
  -3  -1   6   16.69    1.35
  -3  -1   6   18.06    1.63
   2   1  -6    8.41    0.89
   2   1  -6    4.96    0.79
   2   1  -6    7.97    0.95
   2   1  -6    7.49    0.89
   2   1  -6    7.34    0.87
  -2  -1   6    8.21    0.91
  -2  -1   6    5.62    0.86
  -2  -1   6    6.98    0.96
  -2  -1   6    6.61    0.87
  -2  -1   6    6.38    0.82
  -2  -1   6    6.99    0.90
  -2  -1   6    6.71    0.99
   1   1  -6   31.52    1.99
   1   1  -6   30.88    1.90
   1   1  -6   29.00    1.91
   1   1  -6   29.05    1.78
  -1  -1   6   30.59    1.91
  -1  -1   6   26.23    1.80
  -1  -1   6   27.19    1.86
  -1  -1   6   24.22    1.85
  -1  -1   6   27.29    1.75
  -1  -1   6   29.23    2.02
  -1  -1   6   27.12    1.71
  -1  -1   6   29.26    1.93
   0   1  -6   31.62    2.13
   0   1  -6   32.71    2.11
   0   1  -6   33.18    2.24
   0   1  -6   34.09    2.03
   0  -1   6   35.18    2.20
   0  -1   6   35.36    2.12
   0  -1   6   33.75    1.95
   0  -1   6   32.75    2.05
   0  -1   6   33.73    2.02
   0  -1   6   36.64    1.98
   0  -1   6   32.71    2.02
   0  -1   6   32.00    2.28
  -1   1  -6  150.04    7.82
  -1   1  -6  145.92    7.31
  -1   1  -6  136.54    8.15
  -1   1  -6  140.69    7.68
   1  -1   6  139.26    7.34
   1  -1   6  142.22    6.91
   1  -1   6  135.31    7.21
   1  -1   6  137.37    7.33
   1  -1   6  143.24    7.73
  -2   1  -6    0.29    0.36
  -2   1  -6    0.33    0.34
  -2   1  -6    0.58    0.32
   2  -1   6    0.06    0.33
   2  -1   6    0.36    0.28
   2  -1   6    0.23    0.34
   2  -1   6    0.16    0.31
   2  -1   6    0.38    0.31
  -3   1  -6    0.48    0.36
  -3   1  -6    0.92    0.43
  -3   1  -6    0.42    0.42
   3  -1   6    0.54    0.41
   3  -1   6    0.31    0.41
   3  -1   6    0.68    0.31
   3  -1   6    0.52    0.37
   3  -1   6    0.52    0.38
  -4   1  -6   24.58    1.94
  -4   1  -6   26.02    1.75
  -4   1  -6   23.55    1.81
   4  -1   6   23.54    1.69
   4  -1   6   25.25    1.82
   4  -1   6   23.61    1.63
   4  -1   6   23.88    1.67
  -5   1  -6   34.30    2.56
  -5   1  -6   33.03    2.23
  -5   1  -6   35.09    2.45
   5  -1   6   33.25    2.17
   5  -1   6   33.72    2.23
   5  -1   6   33.27    2.17
   5  -1   6   33.14    2.34
  -6   1  -6    0.42    0.68
  -6   1  -6    1.23    0.74
   6  -1   6    1.84    0.68
   6  -1   6    1.06    0.70
   6  -1   6    0.35    0.62
  -7   1  -6    1.19    0.83
  -7   1  -6    1.22    0.94
   7  -1   6    2.11    0.87
   7  -1   6    2.59    0.93
   7  -1   6    2.45    0.84
  -8   1  -6    6.15    1.66
  -8   1  -6    4.22    1.20
   8  -1   6    6.13    1.23
   8  -1   6    5.22    1.32
   9  -1   6    2.33    1.12
   9  -1   6    2.97    1.27
   7   0  -6    2.63    1.01
   7   0  -6    0.63    0.77
  -7   0   6    0.05    0.92
  -7   0   6    0.71    0.85
  -7   0   6    0.72    1.71
   6   0  -6    2.68    0.88
   6   0  -6    1.34    0.73
  -6   0   6    0.79    0.77
  -6   0   6    3.80    1.18
  -6   0   6    2.06    1.49
   5   0  -6   10.96    1.35
   5   0  -6    6.03    1.20
   5   0  -6   11.20    1.50
  -5   0   6    6.69    1.27
  -5   0   6    8.79    1.75
  -5   0   6    9.68    1.53
   4   0  -6    1.69    0.63
   4   0  -6    1.06    0.64
   4   0  -6    1.18    0.51
   4   0  -6    1.15    0.60
  -4   0   6    3.18    0.82
  -4   0   6    1.94    0.71
  -4   0   6    1.74    0.78
  -4   0   6    2.77    1.05
   3   0  -6   12.42    1.10
   3   0  -6    9.29    1.18
   3   0  -6   10.19    1.26
   3   0  -6   10.26    1.10
  -3   0   6    7.70    0.94
  -3   0   6   11.76    1.33
  -3   0   6    9.71    1.09
  -3   0   6   12.11    1.53
  -3   0   6   16.86    1.68
  -3   0   6    9.86    1.49
   2   0  -6   22.55    1.38
   2   0  -6   20.31    1.56
   2   0  -6   22.91    1.53
   2   0  -6   23.65    1.46
   2   0  -6   21.07    1.60
  -2   0   6   21.61    1.76
  -2   0   6   22.69    1.62
  -2   0   6   21.33    1.44
  -2   0   6   20.45    1.75
  -2   0   6   22.46    1.66
  -2   0   6   22.30    1.54
  -2   0   6   20.18    1.53
  -2   0   6   17.82    1.51
   1   0  -6    0.85    0.44
   1   0  -6    1.30    0.44
  -1   0   6    1.31    0.42
  -1   0   6    1.30    0.49
  -1   0   6    1.04    0.50
  -1   0   6    0.07    0.19
  -1   0   6    1.62    0.48
  -1   0   6    1.37    0.46
  -1   0   6    0.71    0.31
  -1   0   6    2.06    0.47
   0   0  -6    0.15    0.31
   0   0  -6   -0.13    0.25
   0   0  -6   -0.09    0.27
   0   0   6   -0.03    0.25
   0   0   6    0.23    0.33
   0   0   6    0.11    0.28
   0   0   6    0.25    0.30
   0   0   6    0.09    0.27
   0   0   6   -0.05    0.36
   0   0   6    0.13    0.21
   0   0   6    0.40    0.36
   0   0   6    0.05    0.23
  -1   0  -6   29.38    1.94
  -1   0  -6   25.70    1.79
  -1   0  -6   27.96    1.70
   1   0   6   29.41    2.00
   1   0   6   26.42    1.73
   1   0   6   29.52    1.84
   1   0   6   27.19    1.57
   1   0   6   26.41    1.76
   1   0   6   27.13    1.70
   1   0   6   26.59    1.55
  -2   0  -6   15.49    1.04
  -2   0  -6   16.13    1.26
  -2   0  -6   17.86    1.35
   2   0   6   18.63    1.16
   2   0   6   18.05    1.35
   2   0   6   17.75    1.25
   2   0   6   16.24    1.30
   2   0   6   18.10    1.26
  -3   0  -6   35.99    2.33
  -3   0  -6   36.85    2.28
  -3   0  -6   33.10    2.02
  -3   0  -6   36.67    2.48
   3   0   6   37.54    2.33
   3   0   6   35.25    2.15
   3   0   6   37.44    2.15
   3   0   6   36.50    2.21
   3   0   6   37.97    2.14
  -4   0  -6    3.64    0.60
  -4   0  -6    2.65    0.67
  -4   0  -6    2.30    0.62
  -4   0  -6    2.59    0.43
   4   0   6    2.68    0.56
   4   0   6    2.90    0.63
   4   0   6    2.65    0.56
   4   0   6    2.58    0.59
  -5   0  -6   15.62    1.35
  -5   0  -6   16.77    1.49
  -5   0  -6   18.32    1.60
   5   0   6   20.13    1.49
   5   0   6   17.47    1.38
   5   0   6   16.53    1.38
   5   0   6   16.97    1.43
   5   0   6   20.09    1.56
  -6   0  -6   -0.22    0.59
  -6   0  -6   -0.65    0.48
   6   0   6   -0.41    0.44
   6   0   6    0.06    0.46
   6   0   6   -0.20    0.47
   6   0   6    0.14    0.51
  -7   0  -6    5.40    1.16
  -7   0  -6    4.43    1.06
   7   0   6    3.38    0.92
   7   0   6    3.66    0.91
   7   0   6    3.50    0.96
  -8   0  -6    0.45    0.70
  -8   0  -6   -0.20    0.97
   8   0   6    0.50    0.81
   8   0   6   -0.54    0.64
   8   0   6    0.50    0.86
  -9   0  -6    1.02    0.71
   9   0   6    3.35    1.13
   9   0   6    0.71    1.20
   7  -1  -6    1.00    0.97
  -7   1   6    0.95    1.78
   6  -1  -6    1.66    0.87
   6  -1  -6    1.13    0.80
  -6   1   6    0.67    0.85
  -6   1   6    0.03    0.85
  -6   1   6    1.82    1.40
   5  -1  -6   12.90    1.48
   5  -1  -6    9.50    1.49
   5  -1  -6   10.24    1.52
  -5   1   6   14.22    1.86
  -5   1   6   15.38    2.34
  -5   1   6   13.45    1.69
   4  -1  -6   16.23    1.80
   4  -1  -6   16.96    1.45
   4  -1  -6   18.08    1.64
  -4   1   6   14.38    1.75
  -4   1   6   25.34    2.69
  -4   1   6   19.71    2.03
  -4   1   6   16.04    1.64
   3  -1  -6    0.01    0.53
   3  -1  -6    0.84    0.54
   3  -1  -6    0.62    0.48
  -3   1   6    0.09    0.47
  -3   1   6    1.12    0.55
  -3   1   6    0.30    0.55
  -3   1   6    0.74    0.71
  -3   1   6   -0.27    0.58
   2  -1  -6   26.01    1.91
   2  -1  -6   25.60    1.54
   2  -1  -6   24.06    1.82
   2  -1  -6   27.31    1.69
  -2   1   6   27.23    1.87
  -2   1   6   26.15    1.96
  -2   1   6   26.06    1.99
  -2   1   6   29.70    2.21
  -2   1   6   26.58    1.80
  -2   1   6   24.50    2.05
  -2   1   6   29.95    1.80
  -2   1   6   29.03    1.61
   1  -1  -6   55.81    3.23
   1  -1  -6   60.91    3.41
   1  -1  -6   55.96    2.95
  -1   1   6   56.90    3.13
  -1   1   6   50.31    3.20
  -1   1   6   58.04    3.45
  -1   1   6   61.34    3.59
  -1   1   6   53.09    2.95
  -1   1   6   56.46    3.55
  -1   1   6   55.48    3.36
  -1   1   6   57.65    2.85
  -1   1   6   50.79    3.25
   0  -1  -6    5.50    0.82
   0  -1  -6    5.02    0.62
   0  -1  -6    6.13    0.84
   0   1   6    4.20    0.55
   0   1   6    3.64    0.61
   0   1   6    5.47    0.82
   0   1   6    3.14    0.54
   0   1   6    4.16    0.72
   0   1   6    4.41    0.73
   0   1   6    4.27    0.77
   0   1   6    4.71    0.60
   0   1   6    3.83    0.48
  -1  -1  -6    9.13    0.90
  -1  -1  -6   10.41    0.90
  -1  -1  -6    8.52    0.66
  -1  -1  -6    8.93    0.91
   1   1   6   11.02    0.99
   1   1   6    9.40    0.86
   1   1   6   10.08    0.84
   1   1   6    8.33    0.63
   1   1   6   11.36    1.12
  -2  -1  -6   52.33    3.33
  -2  -1  -6   56.77    3.11
  -2  -1  -6   55.64    3.48
   2   1   6   54.47    3.11
   2   1   6   47.57    3.46
   2   1   6   55.28    2.93
   2   1   6   59.54    3.29
   2   1   6   58.48    3.14
   2   1   6   59.31    2.85
  -3  -1  -6   36.17    2.29
  -3  -1  -6   34.92    2.03
  -3  -1  -6   34.42    2.36
   3   1   6   34.40    2.21
   3   1   6   35.76    2.03
   3   1   6   38.73    2.13
   3   1   6   32.04    1.97
   3   1   6   33.36    2.12
  -4  -1  -6    4.04    0.75
  -4  -1  -6    3.48    0.70
  -4  -1  -6    3.05    0.51
   4   1   6    2.98    0.59
   4   1   6    5.11    0.72
   4   1   6    3.29    0.62
   4   1   6    3.11    0.59
   4   1   6    3.92    0.67
  -5  -1  -6    4.69    0.70
  -5  -1  -6    5.12    0.91
  -5  -1  -6    5.81    0.73
  -5  -1  -6    4.41    0.84
   5   1   6    6.31    0.86
   5   1   6    5.59    0.83
   5   1   6    3.09    0.64
   5   1   6    4.78    0.78
   5   1   6    4.05    0.72
  -6  -1  -6    8.49    1.22
  -6  -1  -6    8.09    1.22
  -6  -1  -6    9.71    1.06
   6   1   6    7.67    1.05
   6   1   6   10.02    1.16
   6   1   6    9.21    1.16
   6   1   6    7.87    1.06
  -7  -1  -6    6.82    1.18
  -7  -1  -6    5.76    1.11
   7   1   6    4.76    1.00
   7   1   6    4.32    0.92
   7   1   6    5.81    0.99
  -8  -1  -6    4.36    1.12
  -8  -1  -6    1.94    0.76
   8   1   6    4.82    1.02
   8   1   6    2.54    0.93
   8   1   6    5.47    1.20
  -9  -1  -6   -0.29    0.47
   9   1   6    0.04    0.80
   9   1   6   -0.40    0.98
   6  -2  -6    1.89    1.52
   6  -2  -6    0.48    0.72
  -6   2   6    1.71    1.37
  -6   2   6    2.01    1.22
   5  -2  -6    4.74    0.98
   5  -2  -6    3.91    1.02
  -5   2   6    2.71    1.03
  -5   2   6    8.16    1.83
  -5   2   6    4.53    1.32
   4  -2  -6    2.89    0.83
   4  -2  -6    0.91    0.56
   4  -2  -6    1.53    0.75
  -4   2   6    0.59    0.72
  -4   2   6    2.01    0.90
  -4   2   6    1.61    1.04
   3  -2  -6    0.26    0.54
   3  -2  -6    0.86    0.48
   3  -2  -6    1.51    0.71
   3  -2  -6    0.38    0.64
  -3   2   6    0.68    0.60
  -3   2   6    0.86    0.79
  -3   2   6    0.71    0.84
  -3   2   6    1.33    0.69
   2  -2  -6   15.07    1.54
   2  -2  -6   12.82    1.26
   2  -2  -6   14.87    1.12
   2  -2  -6   16.07    1.68
  -2   2   6   14.34    1.21
  -2   2   6   13.58    1.57
  -2   2   6   17.23    1.96
  -2   2   6   13.19    1.70
  -2   2   6   11.73    1.47
   1  -2  -6   31.12    2.12
   1  -2  -6   28.70    1.72
   1  -2  -6   27.04    1.92
   1  -2  -6   27.61    1.58
  -1   2   6   31.66    2.13
  -1   2   6   31.63    1.61
  -1   2   6   32.35    2.00
  -1   2   6   24.95    2.14
  -1   2   6   29.89    1.83
  -1   2   6   29.76    2.16
  -1   2   6   31.18    2.29
   0  -2  -6   93.11    5.50
   0  -2  -6  101.25    5.79
   0  -2  -6   99.83    5.33
   0  -2  -6  101.13    4.87
   0   2   6  101.55    5.54
   0   2   6   93.26    5.84
   0   2   6   90.55    4.86
   0   2   6   95.11    4.65
   0   2   6   93.82    5.44
   0   2   6  112.06    5.86
   0   2   6   99.55    5.47
  -1  -2  -6    0.42    0.36
  -1  -2  -6    0.15    0.23
  -1  -2  -6    0.35    0.36
  -1  -2  -6    0.19    0.13
   1   2   6    0.18    0.34
   1   2   6   -0.43    0.31
   1   2   6   -0.08    0.22
   1   2   6   -0.27    0.31
   1   2   6    0.12    0.14
   1   2   6   -0.07    0.22
   1   2   6    0.25    0.27
  -2  -2  -6    2.89    0.53
  -2  -2  -6    3.78    0.45
  -2  -2  -6    3.12    0.63
  -2  -2  -6    3.17    0.61
   2   2   6    3.63    0.62
   2   2   6    3.33    0.59
   2   2   6    3.06    0.29
   2   2   6    2.32    0.45
   2   2   6    3.18    0.56
   2   2   6    4.20    0.73
  -3  -2  -6   18.64    1.54
  -3  -2  -6   20.69    1.61
  -3  -2  -6   21.26    1.44
   3   2   6   21.60    1.49
   3   2   6   22.61    1.49
   3   2   6   23.04    1.27
   3   2   6   24.07    1.41
   3   2   6   23.27    1.55
   3   2   6   21.15    1.68
  -4  -2  -6   39.63    2.59
  -4  -2  -6   39.48    2.30
  -4  -2  -6   35.50    2.50
   4   2   6   37.19    2.33
   4   2   6   35.80    2.15
   4   2   6   37.52    2.32
   4   2   6   41.76    2.42
   4   2   6   40.02    2.21
  -5  -2  -6    3.50    0.79
  -5  -2  -6    2.51    0.55
  -5  -2  -6    3.58    0.72
   5   2   6    3.27    0.65
   5   2   6    2.15    0.58
   5   2   6    3.69    0.67
   5   2   6    2.16    0.56
   5   2   6    2.99    0.60
  -6  -2  -6    6.63    1.01
  -6  -2  -6    5.11    0.82
  -6  -2  -6    5.22    0.99
   6   2   6    5.88    0.84
   6   2   6    6.71    0.94
   6   2   6    4.86    0.89
   6   2   6    3.70    0.73
  -7  -2  -6   13.99    1.68
  -7  -2  -6   14.03    1.38
  -7  -2  -6   18.45    1.63
   7   2   6   13.15    1.44
   7   2   6   17.62    1.56
   7   2   6   14.24    1.51
  -8  -2  -6    0.22    0.58
  -8  -2  -6   -0.23    0.59
   8   2   6    0.02    0.66
   8   2   6    0.12    0.71
   8   2   6   -0.09    0.64
  -9  -2  -6   -0.18    0.47
   9   2   6    0.32    0.79
   9   2   6   -0.20    0.83
  10   2   6   -0.35    1.04
  10   2   6    1.07    1.04
   6  -3  -6    0.50    0.81
   6  -3  -6   -0.05    0.78
   6  -3  -6    0.34    0.70
  -6   3   6    0.17    1.00
  -6   3   6   -0.57    0.97
   5  -3  -6    0.32    0.64
   5  -3  -6    0.23    0.65
   5  -3  -6   -0.06    0.52
  -5   3   6    0.58    0.93
  -5   3   6   -0.29    1.01
  -5   3   6    0.32    0.86
   4  -3  -6    1.61    0.79
   4  -3  -6    1.30    0.79
   4  -3  -6    2.70    0.81
   4  -3  -6    1.39    0.91
  -4   3   6    2.15    1.07
  -4   3   6    3.12    1.14
  -4   3   6    2.15    1.05
   3  -3  -6   17.67    1.83
   3  -3  -6   14.78    3.04
   3  -3  -6   10.22    1.50
   3  -3  -6   11.34    1.56
  -3   3   6   13.30    1.71
  -3   3   6   17.03    1.95
  -3   3   6   17.60    2.22
  -3   3   6   10.96    1.78
   2  -3  -6    5.83    0.77
   2  -3  -6    7.05    1.07
   2  -3  -6    6.74    1.13
   2  -3  -6    5.28    0.97
  -2   3   6    4.02    1.15
  -2   3   6    6.28    1.12
  -2   3   6    6.15    1.10
  -2   3   6    5.86    1.22
   1  -3  -6   36.56    2.75
   1  -3  -6   42.70    2.66
   1  -3  -6   42.34    2.32
  -1   3   6   48.44    2.91
  -1   3   6   35.75    2.82
  -1   3   6   41.65    2.63
  -1   3   6   43.13    2.94
  -1   3   6   42.39    3.02
   0  -3  -6    7.37    1.14
   0  -3  -6    6.92    1.06
   0  -3  -6    6.97    0.59
   0  -3  -6    9.64    1.02
   0   3   6    9.41    0.90
   0   3   6    8.60    1.11
   0   3   6    7.18    1.13
   0   3   6    9.50    1.25
   0   3   6    6.53    0.91
  -1  -3  -6   52.94    3.14
  -1  -3  -6   46.68    2.86
  -1  -3  -6   46.78    3.16
   1   3   6   48.61    2.79
   1   3   6   55.91    3.25
   1   3   6   49.40    3.19
   1   3   6   47.06    2.99
   1   3   6   45.02    2.96
   1   3   6   51.87    2.50
  -2  -3  -6   10.39    1.04
  -2  -3  -6   11.13    1.03
  -2  -3  -6   11.54    0.91
   2   3   6    9.99    1.05
   2   3   6   13.12    1.09
   2   3   6    9.61    0.97
   2   3   6   11.76    0.84
   2   3   6   11.89    0.96
  -3  -3  -6   82.02    5.01
  -3  -3  -6   80.24    4.63
  -3  -3  -6   76.78    4.87
  -3  -3  -6   83.65    4.40
   3   3   6   81.81    4.52
   3   3   6   92.54    4.56
   3   3   6   89.33    4.75
   3   3   6   79.25    5.02
  -4  -3  -6   36.50    2.42
  -4  -3  -6   38.69    2.47
  -4  -3  -6   35.78    2.26
   4   3   6   38.08    2.09
   4   3   6   36.68    2.25
   4   3   6   30.51    2.43
   4   3   6   36.84    2.25
   4   3   6   36.03    2.29
  -5  -3  -6    2.90    0.67
  -5  -3  -6    1.93    0.67
  -5  -3  -6    2.36    0.57
   5   3   6    2.31    0.57
   5   3   6    3.04    0.65
   5   3   6    2.61    0.62
   5   3   6    3.63    0.66
  -6  -3  -6    0.15    0.49
  -6  -3  -6   -0.22    0.34
  -6  -3  -6    0.37    0.38
   6   3   6   -0.55    0.38
   6   3   6   -0.10    0.38
   6   3   6   -0.13    0.33
   6   3   6   -0.10    0.40
  -7  -3  -6   15.95    1.81
  -7  -3  -6   15.56    1.38
  -7  -3  -6   13.07    1.42
   7   3   6   18.45    1.39
   7   3   6   15.57    1.40
   7   3   6   12.75    1.55
  -8  -3  -6    2.76    0.84
  -8  -3  -6    1.36    0.72
   8   3   6    1.47    0.78
   8   3   6    1.48    0.82
   8   3   6    2.18    0.77
  -9  -3  -6    0.44    0.67
  -9  -3  -6    0.68    0.85
   9   3   6    1.00    0.84
 -10  -3  -6    0.29    0.73
  10   3   6    0.87    0.98
   5  -4  -6   -0.25    0.73
   5  -4  -6   -0.16    0.63
  -5   4   6    0.78    1.35
  -5   4   6   -0.23    1.05
  -5   4   6   -0.09    0.81
   4  -4  -6    0.99    0.69
   4  -4  -6    2.32    0.89
  -4   4   6    1.40    1.19
  -4   4   6    2.84    1.07
  -4   4   6    1.02    0.91
   3  -4  -6    0.06    0.55
   3  -4  -6   -0.47    0.75
   3  -4  -6   -0.72    0.49
  -3   4   6    0.15    0.93
  -3   4   6    0.00    0.70
  -3   4   6    0.68    0.89
  -3   4   6    0.03    0.74
   2  -4  -6   40.52    2.87
   2  -4  -6   42.63    2.96
   2  -4  -6   42.32    2.82
  -2   4   6   35.13    3.03
  -2   4   6   39.60    2.91
  -2   4   6   40.71    3.09
  -2   4   6   42.12    3.11
   1  -4  -6    3.20    0.75
   1  -4  -6    3.23    0.84
  -1   4   6    3.12    0.88
  -1   4   6    3.15    0.71
  -1   4   6    1.90    0.74
  -1   4   6    2.13    0.79
  -1   4   6    1.90    0.90
   0  -4  -6    7.21    1.18
   0  -4  -6    9.23    1.14
   0   4   6    7.14    0.98
   0   4   6    7.92    0.87
   0   4   6    6.26    1.12
   0   4   6    7.40    1.24
   0   4   6    9.03    1.19
  -1  -4  -6   46.34    3.07
  -1  -4  -6   45.21    2.96
  -1  -4  -6   43.67    2.77
   1   4   6   43.51    3.03
   1   4   6   41.38    2.78
   1   4   6   45.56    2.91
   1   4   6   49.10    3.08
  -2  -4  -6   99.05    5.24
  -2  -4  -6   95.96    5.37
  -2  -4  -6   88.37    5.53
   2   4   6   90.61    5.30
   2   4   6   90.39    5.56
   2   4   6  101.30    5.23
   2   4   6   94.28    5.66
   2   4   6   95.92    5.04
   2   4   6   89.53    4.47
  -3  -4  -6    8.29    1.11
  -3  -4  -6   11.64    1.23
  -3  -4  -6    9.79    0.80
   3   4   6    8.94    1.10
   3   4   6    7.74    0.94
   3   4   6    8.08    0.82
   3   4   6    9.90    1.08
   3   4   6    7.49    0.99
  -4  -4  -6   14.29    1.25
  -4  -4  -6   15.29    1.34
  -4  -4  -6   15.61    1.32
  -4  -4  -6   15.47    1.08
   4   4   6   17.77    1.41
   4   4   6   14.85    1.27
   4   4   6   16.93    1.52
   4   4   6   18.56    1.37
  -5  -4  -6   38.70    2.66
  -5  -4  -6   43.68    2.90
   5   4   6   42.31    2.67
   5   4   6   45.85    2.75
   5   4   6   46.31    2.49
   5   4   6   44.02    2.69
  -6  -4  -6   31.26    2.24
  -6  -4  -6   27.47    2.02
  -6  -4  -6   28.31    2.12
   6   4   6   27.34    1.97
   6   4   6   30.04    2.07
   6   4   6   29.97    1.93
   6   4   6   30.61    2.06
  -7  -4  -6   16.01    1.83
  -7  -4  -6   15.24    1.40
   7   4   6   11.55    1.34
   7   4   6   16.97    1.51
   7   4   6   12.26    3.50
  -8  -4  -6    3.23    0.85
  -8  -4  -6    1.85    0.88
   8   4   6    1.27    0.72
   8   4   6    2.02    0.78
   8   4   6    3.92    0.88
  -9  -4  -6    2.49    1.02
  -9  -4  -6    2.71    1.05
   9   4   6    3.01    0.92
 -10  -4  -6    0.24    0.86
 -10  -4  -6   -0.57    0.90
  10   4   6    0.38    0.98
   5  -5  -6    0.29    0.92
  -5   5   6    1.23    1.65
  -5   5   6    2.37    1.38
   4  -5  -6    0.27    0.73
   4  -5  -6    0.44    0.70
  -4   5   6    1.60    1.52
  -4   5   6    0.78    0.90
  -4   5   6    0.47    0.96
   3  -5  -6    0.88    0.76
   3  -5  -6    0.49    0.65
   3  -5  -6    1.05    1.02
  -3   5   6    0.49    0.92
  -3   5   6    0.60    0.97
  -3   5   6    1.20    1.09
  -3   5   6   -0.20    0.86
   2  -5  -6   33.67    2.71
   2  -5  -6   30.45    2.52
  -2   5   6   33.54    2.91
  -2   5   6   36.18    2.92
  -2   5   6   35.24    2.93
  -2   5   6   35.48    2.51
  -2   5   6   35.16    2.78
   1  -5  -6    4.26    0.97
   1  -5  -6    3.29    0.90
   1  -5  -6    2.99    0.87
  -1   5   6    3.46    1.04
  -1   5   6    2.38    0.95
  -1   5   6    3.90    1.04
  -1   5   6    3.21    0.80
   0  -5  -6   11.58    1.41
   0  -5  -6   11.95    1.57
   0   5   6   11.42    1.55
   0   5   6    8.09    1.35
   0   5   6   10.83    1.63
   0   5   6   11.36    1.36
  -1  -5  -6   12.04    1.40
  -1  -5  -6   11.02    1.49
  -1  -5  -6   12.34    1.51
   1   5   6   10.10    1.24
   1   5   6   10.00    1.05
   1   5   6    9.13    1.40
   1   5   6   10.96    1.41
   1   5   6    8.11    1.25
  -2  -5  -6   71.85    4.25
  -2  -5  -6   65.82    4.33
  -2  -5  -6   66.72    4.08
   2   5   6   66.48    4.12
   2   5   6   68.46    4.06
   2   5   6   71.83    4.41
   2   5   6   73.01    6.21
   2   5   6   73.25    4.43
  -3  -5  -6    2.41    0.59
  -3  -5  -6    0.65    0.47
  -3  -5  -6    1.43    0.61
   3   5   6    1.15    0.47
   3   5   6    1.27    0.51
   3   5   6    1.31    0.53
   3   5   6    0.43    0.48
  -4  -5  -6   18.66    1.50
  -4  -5  -6   16.67    1.25
  -4  -5  -6   15.90    1.44
  -4  -5  -6   17.05    1.47
   4   5   6   15.82    1.37
   4   5   6   18.46    1.23
   4   5   6   15.92    1.43
   4   5   6   18.00    1.42
   4   5   6   17.60    1.44
  -5  -5  -6   35.35    2.62
  -5  -5  -6   29.40    2.49
  -5  -5  -6   39.75    2.56
   5   5   6   42.18    2.70
   5   5   6   43.03    2.58
   5   5   6   39.50    2.49
   5   5   6   44.50    2.58
  -6  -5  -6   24.86    1.88
  -6  -5  -6   21.35    1.94
   6   5   6   24.62    1.87
   6   5   6   27.44    1.93
   6   5   6   26.08    1.83
  -7  -5  -6   -0.08    0.55
  -7  -5  -6    0.04    0.57
   7   5   6    0.14    0.59
   7   5   6   -0.60    0.49
   7   5   6    1.12    0.65
  -8  -5  -6    0.04    0.65
  -8  -5  -6   -0.30    0.62
   8   5   6   -0.09    0.64
   8   5   6   -0.49    0.61
   8   5   6    0.67    0.69
  -9  -5  -6    5.89    1.21
  -9  -5  -6    6.41    1.46
   9   5   6    5.02    2.63
 -10  -5  -6   -0.19    0.92
 -10  -5  -6   -0.30    1.04
  10   5   6   -1.21    0.82
   4  -6  -6    1.93    1.05
   4  -6  -6    2.80    1.06
  -4   6   6    2.58    1.19
  -4   6   6    2.71    1.51
  -4   6   6    2.61    1.57
   3  -6  -6    0.98    0.91
   3  -6  -6    2.42    0.95
  -3   6   6    1.64    1.14
  -3   6   6    2.24    1.27
  -3   6   6    3.98    1.31
   2  -6  -6    7.37    1.35
   2  -6  -6    7.82    1.43
  -2   6   6    9.08    1.66
  -2   6   6    8.66    1.71
  -2   6   6    6.71    1.40
   1  -6  -6    7.71    1.34
   1  -6  -6    7.67    1.34
   1  -6  -6    5.92    1.12
  -1   6   6    5.60    1.26
  -1   6   6    8.09    1.55
  -1   6   6    5.02    1.25
  -1   6   6    8.67    1.36
   0  -6  -6   36.30    2.55
   0  -6  -6   34.02    2.61
   0   6   6   32.01    2.60
   0   6   6   33.08    2.68
   0   6   6   30.29    2.66
   0   6   6   34.03    2.50
  -1  -6  -6    5.27    1.15
  -1  -6  -6    3.13    0.88
  -1  -6  -6    4.29    0.97
   1   6   6    1.87    0.80
   1   6   6    4.36    0.82
   1   6   6    4.21    0.92
   1   6   6    3.30    1.02
   1   6   6    2.36    0.85
  -2  -6  -6   78.66    4.77
  -2  -6  -6   82.41    5.06
  -2  -6  -6   83.33    4.90
   2   6   6   79.97    4.84
   2   6   6   82.64    4.73
   2   6   6   68.82    4.96
   2   6   6   87.81    5.16
  -3  -6  -6    6.57    1.01
  -3  -6  -6    5.62    1.07
  -3  -6  -6    7.52    1.15
   3   6   6    5.30    0.94
   3   6   6    4.99    0.90
   3   6   6    5.52    0.97
   3   6   6    5.89    0.98
  -4  -6  -6   61.65    3.83
  -4  -6  -6   59.85    3.50
  -4  -6  -6   56.21    3.69
   4   6   6   57.19    3.63
   4   6   6   57.88    3.54
   4   6   6   63.16    3.59
   4   6   6   56.28    3.77
  -5  -6  -6    6.94    1.00
  -5  -6  -6    8.50    1.17
  -5  -6  -6    8.78    1.21
  -5  -6  -6    9.36    1.06
   5   6   6    9.10    1.14
   5   6   6    6.01    0.99
   5   6   6    6.56    1.07
   5   6   6    9.19    1.16
   5   6   6    5.21    0.81
  -6  -6  -6   16.91    1.59
  -6  -6  -6   17.25    1.56
   6   6   6   15.82    1.45
   6   6   6   16.19    1.50
   6   6   6   17.52    1.43
   6   6   6   18.45    1.62
  -7  -6  -6    4.28    0.95
  -7  -6  -6    3.79    1.02
   7   6   6    3.37    0.85
   7   6   6    4.14    0.98
   7   6   6    4.58    0.95
  -8  -6  -6   10.69    1.68
  -8  -6  -6    9.48    1.42
   8   6   6   13.03    1.61
   8   6   6    7.94    1.25
   8   6   6   11.56    1.52
  -9  -6  -6    5.67    1.45
  -9  -6  -6    4.37    1.23
   9   6   6    5.46    1.25
   9   6   6    2.95    1.00
 -10  -6  -6    1.62    1.05
 -10  -6  -6    3.80    1.52
  10   6   6    1.63    1.06
  10   6   6    3.94    2.10
   3  -7  -6    3.60    1.30
   3  -7  -6    3.04    1.17
  -3   7   6    0.66    0.94
  -3   7   6    2.39    1.30
   2  -7  -6    1.02    0.96
   2  -7  -6    0.87    0.85
  -2   7   6    0.23    0.80
  -2   7   6    0.71    1.14
   1  -7  -6    1.40    0.89
   1  -7  -6    0.70    0.82
   1  -7  -6    0.17    0.73
  -1   7   6    1.30    1.01
  -1   7   6    0.19    0.90
  -1   7   6    1.47    1.03
  -1   7   6   -0.18    0.75
   0  -7  -6   29.09    2.43
   0  -7  -6   23.88    2.27
   0  -7  -6   30.56    2.55
   0   7   6   29.06    2.40
   0   7   6   30.03    2.56
   0   7   6   25.84    2.41
   0   7   6   29.20    2.67
  -1  -7  -6    8.88    1.41
  -1  -7  -6    6.25    1.22
  -1  -7  -6    8.93    1.53
   1   7   6    9.07    1.43
   1   7   6    9.76    1.47
   1   7   6    7.98    1.47
   1   7   6    9.02    1.47
  -2  -7  -6    0.35    0.72
  -2  -7  -6   -0.70    0.61
  -2  -7  -6   -0.15    0.55
   2   7   6    0.36    0.65
   2   7   6    1.48    0.76
   2   7   6    0.17    0.75
   2   7   6   -0.32    0.30
   2   7   6    0.27    0.62
  -3  -7  -6    0.17    0.54
  -3  -7  -6    0.11    0.63
  -3  -7  -6    0.53    0.64
   3   7   6    1.54    0.68
   3   7   6    1.34    0.68
   3   7   6    1.10    0.68
   3   7   6    1.23    0.66
  -4  -7  -6   86.90    5.57
  -4  -7  -6   92.08    5.44
  -4  -7  -6   99.12    5.81
   4   7   6  100.25    5.86
   4   7   6   98.65    5.42
   4   7   6   96.18    5.36
   4   7   6   86.75    5.53
  -5  -7  -6    0.32    0.60
  -5  -7  -6   -0.05    0.51
  -5  -7  -6   -0.58    0.46
   5   7   6    0.13    0.60
   5   7   6    0.45    0.53
   5   7   6    0.05    0.61
  -6  -7  -6    0.11    0.59
  -6  -7  -6    0.47    0.57
   6   7   6    0.66    0.43
   6   7   6    0.44    0.56
   6   7   6   -0.29    0.50
   6   7   6    0.49    0.72
  -7  -7  -6    3.48    1.01
  -7  -7  -6    2.63    0.90
   7   7   6    4.42    1.53
   7   7   6    3.74    0.95
   7   7   6    2.25    0.84
  -8  -7  -6   11.24    1.69
  -8  -7  -6   11.40    1.58
   8   7   6   11.78    1.68
   8   7   6    8.91    1.40
  -9  -7  -6   -0.24    0.90
  -9  -7  -6   -0.24    0.72
   9   7   6   -0.23    0.80
   9   7   6   -0.11    0.85
 -10  -7  -6    0.36    0.89
 -10  -7  -6    0.90    1.42
  10   7   6   -0.54    0.96
  10   7   6   -0.20    0.95
   2  -8  -6    5.23    1.46
   2  -8  -6    2.41    1.13
  -2   8   6    2.55    1.43
  -2   8   6    3.64    1.56
   1  -8  -6    2.44    1.08
   1  -8  -6    2.31    1.05
  -1   8   6    1.89    1.32
  -1   8   6    0.55    0.83
  -1   8   6    3.01    1.32
   0  -8  -6   11.46    1.80
   0  -8  -6   14.94    1.85
   0  -8  -6   14.33    1.88
   0  -8  -6   16.61    2.21
   0   8   6   17.92    2.23
   0   8   6   17.13    2.22
   0   8   6   10.70    1.77
   0   8   6   13.82    2.00
  -1  -8  -6   23.63    2.49
  -1  -8  -6   25.76    2.27
  -1  -8  -6   18.40    2.22
   1   8   6   24.85    2.25
   1   8   6   25.24    2.75
   1   8   6   20.91    2.37
   1   8   6   20.12    2.43
  -2  -8  -6    3.59    1.01
  -2  -8  -6    3.51    1.15
  -2  -8  -6    3.54    1.02
   2   8   6    2.20    0.89
   2   8   6    3.86    1.21
   2   8   6    2.70    0.98
   2   8   6    1.91    1.05
  -3  -8  -6    0.47    0.71
  -3  -8  -6    0.20    0.73
  -3  -8  -6   -0.60    0.63
   3   8   6    0.05    0.71
   3   8   6    0.13    0.74
   3   8   6   -0.15    0.65
   3   8   6    0.07    0.73
  -4  -8  -6   35.26    2.80
  -4  -8  -6   35.34    2.69
  -4  -8  -6   38.92    2.82
   4   8   6   38.75    2.84
   4   8   6   41.58    2.89
   4   8   6   34.51    2.63
   4   8   6   33.24    2.70
  -5  -8  -6    1.87    0.92
  -5  -8  -6    0.46    0.66
  -5  -8  -6    0.99    0.76
   5   8   6    1.73    0.85
   5   8   6    0.81    0.66
   5   8   6    1.76    0.77
  -6  -8  -6    3.29    0.98
  -6  -8  -6    2.51    0.92
   6   8   6    3.30    0.89
   6   8   6    1.88    0.87
   6   8   6    4.33    1.00
  -7  -8  -6   -0.60    0.70
  -7  -8  -6    1.09    0.78
   7   8   6    0.09    0.73
   7   8   6    0.26    0.72
  -8  -8  -6   11.40    1.76
  -8  -8  -6   13.72    1.85
   8   8   6   10.66    3.92
  -9  -8  -6    2.45    1.01
   9   8   6    1.89    1.05
   9   8   6    1.20    1.29
  10   8   6   -0.13    1.11
  10   8   6    0.66    1.19
   1  -9  -6   11.46    1.87
   1  -9  -6    5.48    1.35
  -1   9   6   13.96    2.27
  -1   9   6   12.72    2.18
   0  -9  -6    0.24    1.06
   0  -9  -6    0.30    0.87
   0  -9  -6   -0.20    0.98
   0   9   6   -0.75    0.90
   0   9   6    1.07    1.20
   0   9   6    1.23    1.20
  -1  -9  -6    5.08    1.53
  -1  -9  -6    2.24    0.99
  -1  -9  -6    5.22    1.33
   1   9   6    5.11    1.36
   1   9   6    5.89    1.41
   1   9   6    2.99    1.37
   1   9   6    4.87    1.52
  -2  -9  -6   28.30    2.80
  -2  -9  -6   25.67    2.49
  -2  -9  -6   26.90    2.37
   2   9   6   22.42    2.47
   2   9   6   26.71    2.88
   2   9   6   25.00    2.90
  -3  -9  -6   10.14    1.60
  -3  -9  -6   10.99    1.72
  -3  -9  -6   11.48    1.70
   3   9   6    7.83    1.40
   3   9   6    3.54    1.08
   3   9   6    4.15    1.00
   3   9   6    8.99    1.62
  -4  -9  -6    6.10    1.37
  -4  -9  -6    5.65    1.28
   4   9   6    4.51    1.10
   4   9   6    4.63    1.15
   4   9   6    2.40    0.99
  -5  -9  -6   11.43    1.59
  -5  -9  -6   12.14    1.80
   5   9   6    7.90    1.48
   5   9   6   11.05    1.64
   5   9   6    9.54    1.50
  -6  -9  -6   14.45    1.81
  -6  -9  -6   10.24    1.65
   6   9   6   12.58    1.64
   6   9   6    7.75    1.48
   6   9   6   17.50    1.96
  -7  -9  -6    1.08    0.82
   7   9   6    2.47    0.91
   7   9   6    0.64    0.88
   7   9   6    0.90    0.88
   8   9   6    3.38    1.21
  -9  -9  -6    0.81    0.97
   9   9   6    2.59    1.21
   0 -10  -6    1.69    1.36
   0 -10  -6    0.07    1.00
   0  10   6    3.81    1.75
   0  10   6    0.25    1.29
  -1 -10  -6    5.51    1.54
  -1 -10  -6    2.91    1.13
   1  10   6    3.21    1.35
   1  10   6    2.72    1.52
  -2 -10  -6    7.09    1.50
  -2 -10  -6    7.23    1.54
   2  10   6    6.55    1.67
   2  10   6    2.33    0.96
  -3 -10  -6   26.80    2.76
  -3 -10  -6   22.83    2.49
   3  10   6   17.82    2.46
   3  10   6   18.76    2.57
  -4 -10  -6   -0.66    0.79
  -4 -10  -6   -0.91    0.98
   4  10   6   -0.34    0.73
   4  10   6    0.41    0.89
   4  10   6   -1.58    0.81
  -5 -10  -6    1.72    1.06
  -5 -10  -6    1.70    1.13
   5  10   6    0.54    1.05
   5  10   6    0.18    0.95
   5  10   6    2.01    1.11
  -6 -10  -6    8.53    1.52
  -6 -10  -6    6.60    1.48
   6  10   6    5.91    1.40
   6  10   6    4.28    1.30
   6  10   6    6.96    1.34
  -7 -10  -6    4.37    1.28
   7  10   6    6.19    1.40
   7  10   6    3.67    1.32
  -8 -10  -6    1.24    0.91
   8  10   6    0.00    1.00
  -2 -11  -6    8.17    1.70
  -2 -11  -6    8.82    1.88
   2  11   6    8.33    2.13
   2  11   6    7.68    2.00
  -3 -11  -6    0.16    1.15
  -3 -11  -6    1.08    1.17
   3  11   6    1.21    1.26
  -4 -11  -6    5.48    1.51
  -4 -11  -6    3.40    1.45
   4  11   6    1.77    1.42
  -5 -11  -6    4.67    1.52
  -5 -11  -6    6.96    1.78
   5  11   6    2.67    1.19
   5  11   6    2.28    1.55
  -6 -11  -6    5.90    1.64
  -6 -11  -6    5.27    1.53
   6  11   6    8.49    1.82
   6  11   6    5.05    1.56
  -7 -11  -6    5.57    1.58
   7  11   6    7.46    1.73
   7  11   6    1.60    1.32
   4   9  -7    1.86    1.19
   4   9  -7    1.67    1.30
   4   9  -7    0.39    1.03
  -4  -9   7    0.71    1.07
  -4  -9   7    0.33    1.12
  -4  -9   7    0.68    1.40
   3   9  -7    2.07    1.19
   3   9  -7    1.53    1.26
   3   9  -7    2.46    1.17
  -3  -9   7    2.29    1.29
  -3  -9   7    1.12    1.06
  -3  -9   7   -0.21    1.23
   2   9  -7    5.79    1.51
   2   9  -7    6.51    1.47
  -2  -9   7    7.79    1.48
  -2  -9   7    8.92    1.78
   1   9  -7    2.11    1.27
   1   9  -7    3.63    1.37
  -1  -9   7    2.54    1.07
  -1  -9   7    3.79    1.46
   0   9  -7    0.32    1.04
   0  -9   7    0.29    0.86
   0  -9   7   -0.43    1.09
   5   8  -7    0.59    0.95
   5   8  -7   -0.74    0.92
  -5  -8   7    0.96    1.21
  -5  -8   7   -0.36    0.94
  -5  -8   7    0.00    1.06
   4   8  -7    0.18    0.93
   4   8  -7    1.51    1.15
  -4  -8   7    0.75    1.02
  -4  -8   7    0.14    0.92
  -4  -8   7    1.31    1.00
   3   8  -7    0.43    0.80
   3   8  -7    0.73    0.90
   3   8  -7    0.59    0.91
  -3  -8   7   -0.13    0.86
  -3  -8   7    0.78    0.94
  -3  -8   7    0.80    1.07
   2   8  -7    1.81    0.98
   2   8  -7    3.08    1.12
  -2  -8   7    2.10    1.01
  -2  -8   7    3.42    1.19
  -2  -8   7    3.96    1.33
   1   8  -7    1.16    0.75
   1   8  -7    2.60    1.05
  -1  -8   7    0.68    0.83
  -1  -8   7    2.49    1.12
   0   8  -7    0.22    0.90
   0  -8   7    0.14    0.72
   0  -8   7   -0.15    0.88
  -1   8  -7    0.37    0.94
  -1   8  -7   -0.17    0.96
  -1   8  -7    0.19    0.95
   1  -8   7    0.24    0.95
   1  -8   7    0.71    0.93
  -2   8  -7    1.85    1.15
  -2   8  -7    3.55    3.57
   2  -8   7    5.46    1.44
   2  -8   7    3.34    1.06
   6   7  -7    3.46    1.25
   6   7  -7    1.45    1.14
  -6  -7   7    1.07    1.07
  -6  -7   7    2.09    1.22
   5   7  -7    0.63    0.86
   5   7  -7    0.81    1.00
  -5  -7   7   -0.02    0.75
  -5  -7   7    0.66    0.87
  -5  -7   7    0.74    0.98
   4   7  -7    0.72    0.89
   4   7  -7   -0.21    0.76
  -4  -7   7   -0.06    0.78
  -4  -7   7   -0.35    0.83
  -4  -7   7   -0.20    0.92
   3   7  -7    0.21    0.75
   3   7  -7    1.17    0.66
   3   7  -7    0.69    0.82
  -3  -7   7    0.49    0.82
  -3  -7   7    0.66    0.80
  -3  -7   7    0.90    0.87
   2   7  -7   13.44    1.81
   2   7  -7   12.67    1.73
  -2  -7   7   14.10    1.78
  -2  -7   7   13.76    1.77
  -2  -7   7   12.91    1.72
   1   7  -7    0.25    0.67
   1   7  -7    0.79    0.76
  -1  -7   7   -0.42    0.74
  -1  -7   7    0.11    0.67
   0   7  -7   -0.38    0.66
   0   7  -7    0.49    0.86
   0  -7   7    0.62    0.79
   0  -7   7    0.22    0.66
  -1   7  -7    1.24    0.88
  -1   7  -7    0.41    0.68
  -1   7  -7    0.70    0.89
   1  -7   7    0.03    0.66
   1  -7   7    0.10    0.84
  -2   7  -7   13.47    2.15
  -2   7  -7    7.35    1.44
   2  -7   7    8.07    1.38
   2  -7   7   12.70    1.83
  -3   7  -7    1.23    1.11
  -3   7  -7    3.11    1.34
   3  -7   7    0.49    1.00
   3  -7   7    0.09    0.95
  -4   7  -7    1.19    2.53
  -4   7  -7    1.71    1.40
   4  -7   7    2.59    1.27
   6   6  -7    0.54    0.97
   6   6  -7    0.66    0.78
   6   6  -7    2.73    0.96
  -6  -6   7    0.70    1.03
  -6  -6   7    1.70    1.03
   5   6  -7    3.19    0.94
   5   6  -7    1.38    1.06
  -5  -6   7    1.70    1.08
  -5  -6   7    1.43    0.90
  -5  -6   7    0.92    0.85
   4   6  -7   -0.15    0.65
   4   6  -7    0.86    0.50
  -4  -6   7    0.65    0.75
  -4  -6   7    1.90    0.97
  -4  -6   7    0.28    0.80
   3   6  -7    0.12    0.68
   3   6  -7   -0.15    0.67
   3   6  -7   -0.76    0.57
  -3  -6   7    0.39    0.70
  -3  -6   7    0.07    0.60
  -3  -6   7    0.81    0.80
   2   6  -7    6.89    1.22
   2   6  -7    6.09    1.21
  -2  -6   7    7.20    1.18
  -2  -6   7    4.97    1.15
  -2  -6   7    5.36    1.11
   1   6  -7    1.37    0.79
   1   6  -7   -0.33    0.66
  -1  -6   7    0.25    0.70
  -1  -6   7    0.14    0.67
  -1  -6   7   -0.11    0.68
  -1  -6   7    0.74    0.74
   0   6  -7    1.29    0.75
   0   6  -7    1.23    0.74
   0   6  -7    1.59    0.78
   0  -6   7    0.99    0.71
   0  -6   7    1.64    0.82
   0  -6   7    0.26    0.75
  -1   6  -7   -0.36    0.67
  -1   6  -7   -0.21    0.58
  -1   6  -7    0.50    0.72
   1  -6   7    1.06    0.84
   1  -6   7    0.05    0.64
   1  -6   7   -0.29    0.64
  -2   6  -7   13.61    1.67
  -2   6  -7   11.28    1.78
  -2   6  -7   15.86    1.85
   2  -6   7   12.28    1.73
   2  -6   7   13.44    1.81
   2  -6   7   12.65    1.62
  -3   6  -7    0.21    0.92
  -3   6  -7   -0.05    0.81
   3  -6   7   -0.74    0.64
   3  -6   7    0.67    0.88
  -4   6  -7    1.55    1.10
  -4   6  -7    0.89    0.86
   4  -6   7    1.39    1.05
   4  -6   7    2.48    1.03
  -5   6  -7    0.32    1.12
   5  -6   7    1.56    1.14
   7   5  -7    0.89    0.89
   7   5  -7   -0.51    0.82
  -7  -5   7   -0.60    0.93
  -7  -5   7   -0.34    0.93
   6   5  -7    0.32    0.68
   6   5  -7    0.28    0.78
  -6  -5   7   -0.50    0.74
  -6  -5   7   -0.11    1.01
   5   5  -7    1.30    0.79
   5   5  -7   -0.50    0.74
  -5  -5   7    0.16    0.72
  -5  -5   7    1.52    1.00
  -5  -5   7    0.05    0.77
   4   5  -7   11.35    1.63
   4   5  -7   12.27    1.54
  -4  -5   7   10.57    1.48
  -4  -5   7   11.99    1.63
  -4  -5   7    9.49    1.37
   3   5  -7    8.63    1.29
   3   5  -7    8.90    1.40
   3   5  -7   10.27    1.36
  -3  -5   7    6.28    1.21
  -3  -5   7    8.22    1.33
  -3  -5   7    7.19    1.16
   2   5  -7   15.89    1.57
   2   5  -7   18.36    1.92
  -2  -5   7   14.92    1.47
  -2  -5   7   19.18    2.06
  -2  -5   7   15.69    1.76
  -2  -5   7   17.11    1.75
   1   5  -7   -0.49    0.48
   1   5  -7   -0.45    0.47
  -1  -5   7   -0.08    0.54
  -1  -5   7    0.81    0.69
  -1  -5   7   -0.26    0.53
  -1  -5   7   -0.02    0.40
   0   5  -7   11.73    1.48
   0   5  -7   11.75    1.46
   0   5  -7   12.78    1.54
   0  -5   7   11.93    1.48
   0  -5   7   13.22    1.64
   0  -5   7    9.65    1.33
  -1   5  -7   -0.02    0.58
  -1   5  -7   -0.17    0.53
  -1   5  -7   -0.04    0.66
   1  -5   7   -0.01    0.56
   1  -5   7   -0.66    0.34
   1  -5   7   -0.39    0.52
  -2   5  -7    5.37    1.20
  -2   5  -7    4.59    1.07
  -2   5  -7    6.28    1.06
   2  -5   7    6.31    1.20
   2  -5   7    3.90    0.95
   2  -5   7    5.97    1.14
  -3   5  -7    0.91    0.80
  -3   5  -7    0.30    0.78
  -3   5  -7    1.40    0.86
   3  -5   7    0.90    0.82
   3  -5   7    0.71    0.72
   3  -5   7    0.74    0.67
  -4   5  -7    6.98    1.37
  -4   5  -7    3.90    1.00
   4  -5   7    8.39    1.36
   4  -5   7    5.30    1.23
  -5   5  -7    2.01    1.17
   5  -5   7    1.60    1.02
   5  -5   7    2.97    1.07
  -6   5  -7    1.75    1.33
   6  -5   7    1.49    1.04
   6  -5   7    1.03    1.20
   7   4  -7    1.15    0.93
   7   4  -7    1.23    0.89
  -7  -4   7    0.45    1.16
  -7  -4   7    1.71    1.05
  -7  -4   7    1.79    1.34
   6   4  -7    1.94    0.85
   6   4  -7    0.68    0.73
  -6  -4   7    1.19    0.92
  -6  -4   7    0.78    0.92
  -6  -4   7    1.63    1.00
   5   4  -7    1.40    0.91
   5   4  -7    4.32    0.96
   5   4  -7    3.25    0.91
  -5  -4   7    3.52    1.13
  -5  -4   7    6.07    1.22
  -5  -4   7    5.88    1.26
  -5  -4   7    2.91    0.90
   4   4  -7    1.49    0.69
   4   4  -7    2.55    0.87
  -4  -4   7    2.38    0.85
  -4  -4   7    1.58    0.86
  -4  -4   7    2.17    0.79
   3   4  -7    1.99    0.71
   3   4  -7    0.90    0.58
   3   4  -7    0.89    0.71
  -3  -4   7    0.81    0.69
  -3  -4   7    0.98    0.62
  -3  -4   7    0.56    0.61
   2   4  -7    2.99    0.81
   2   4  -7    2.54    0.72
  -2  -4   7    3.12    0.75
  -2  -4   7    1.79    0.75
  -2  -4   7    2.27    0.87
  -2  -4   7    2.39    0.75
   1   4  -7   -0.01    0.44
   1   4  -7    0.17    0.39
   1   4  -7    0.20    0.48
  -1  -4   7   -0.62    0.46
  -1  -4   7    0.26    0.57
  -1  -4   7   -0.36    0.43
  -1  -4   7    0.03    0.34
   0   4  -7   83.36    4.56
   0   4  -7   81.79    4.69
   0   4  -7   84.06    4.86
   0  -4   7   68.04    4.47
   0  -4   7   75.28    4.39
   0  -4   7   71.82    4.25
  -1   4  -7    3.65    0.83
  -1   4  -7    4.48    0.89
  -1   4  -7    3.56    0.85
   1  -4   7    4.45    0.90
   1  -4   7    2.28    0.74
   1  -4   7    3.91    0.85
  -2   4  -7    9.84    1.38
  -2   4  -7    9.18    1.30
  -2   4  -7    8.61    1.19
   2  -4   7   11.39    1.40
   2  -4   7    7.00    1.21
   2  -4   7    6.58    1.13
  -3   4  -7    0.96    0.69
  -3   4  -7    0.74    0.77
   3  -4   7   -0.48    0.55
   3  -4   7   -0.24    0.65
   3  -4   7    1.01    0.69
  -4   4  -7    5.81    1.14
  -4   4  -7    2.54    0.90
   4  -4   7    5.27    1.07
   4  -4   7    4.53    1.14
  -5   4  -7    0.65    0.66
  -5   4  -7    2.56    1.01
   5  -4   7    2.34    1.00
   5  -4   7    1.47    0.86
  -6   4  -7    1.84    1.16
   6  -4   7    1.23    0.91
   6  -4   7    2.57    1.16
  -7   4  -7    0.71    0.87
   7  -4   7    0.79    1.15
   7  -4   7    0.68    1.11
   7   3  -7    0.27    0.85
   7   3  -7    1.21    0.94
   7   3  -7   -0.22    0.70
  -7  -3   7   -0.17    0.90
  -7  -3   7    1.06    1.17
   6   3  -7   -0.14    0.65
   6   3  -7   -0.55    0.64
  -6  -3   7    0.38    0.94
  -6  -3   7   -0.62    0.90
  -6  -3   7   -0.52    0.78
   5   3  -7   13.67    1.47
   5   3  -7   11.79    1.48
  -5  -3   7   10.21    1.41
  -5  -3   7   10.99    1.60
  -5  -3   7    9.88    1.53
   4   3  -7   -0.91    0.49
   4   3  -7    0.15    0.49
  -4  -3   7    0.79    0.71
  -4  -3   7   -0.29    0.58
  -4  -3   7   -0.35    0.54
  -4  -3   7   -0.81    0.62
   3   3  -7   28.09    2.04
   3   3  -7   33.57    2.33
   3   3  -7   30.48    2.11
  -3  -3   7   32.97    2.20
  -3  -3   7   29.26    2.07
  -3  -3   7   27.60    2.11
  -3  -3   7   30.12    2.38
  -3  -3   7   30.98    2.18
   2   3  -7   11.81    1.41
   2   3  -7   12.03    1.33
  -2  -3   7   11.75    1.40
  -2  -3   7   14.22    1.21
  -2  -3   7    9.74    1.23
  -2  -3   7   12.93    1.54
   1   3  -7    4.93    0.86
   1   3  -7    5.29    0.83
   1   3  -7    5.94    0.92
  -1  -3   7    4.12    0.79
  -1  -3   7    4.71    0.91
  -1  -3   7    5.88    0.98
  -1  -3   7    6.73    0.93
   0   3  -7   26.56    1.88
   0   3  -7   26.80    1.91
   0   3  -7   24.80    1.86
   0  -3   7   27.13    1.79
   0  -3   7   22.89    1.65
   0  -3   7   21.22    1.79
   0  -3   7   26.12    1.85
  -1   3  -7    9.58    1.20
  -1   3  -7    8.63    1.14
   1  -3   7    7.68    1.11
   1  -3   7    9.78    1.22
   1  -3   7    8.71    1.11
  -2   3  -7   85.33    4.94
  -2   3  -7   84.46    5.25
   2  -3   7   84.05    4.54
   2  -3   7   89.12    4.81
   2  -3   7   75.06    4.63
  -3   3  -7    0.26    0.53
  -3   3  -7    1.06    0.66
  -3   3  -7    0.16    0.44
   3  -3   7    0.87    0.62
   3  -3   7   -0.13    0.53
   3  -3   7    0.43    0.61
  -4   3  -7   68.75    4.09
  -4   3  -7   64.85    4.43
  -4   3  -7   60.41    4.04
   4  -3   7   69.44    3.95
   4  -3   7   68.99    4.07
   4  -3   7   59.58    3.72
  -5   3  -7    2.14    0.84
  -5   3  -7    1.65    0.67
  -5   3  -7    2.94    0.93
   5  -3   7    0.93    0.73
   5  -3   7    2.32    0.92
  -6   3  -7    0.32    0.78
  -6   3  -7    0.62    0.83
   6  -3   7    0.46    0.84
   6  -3   7    0.83    0.75
  -7   3  -7    0.29    0.98
  -7   3  -7   -0.91    0.91
   7  -3   7    0.88    0.93
   7  -3   7    0.70    1.02
   7   2  -7    0.60    0.92
   7   2  -7   -0.31    0.65
  -7  -2   7   -0.26    0.90
  -7  -2   7    0.65    1.20
   6   2  -7   -0.04    0.70
   6   2  -7   -0.22    0.62
   6   2  -7    0.47    0.71
   6   2  -7    1.29    0.86
  -6  -2   7    0.73    1.67
  -6  -2   7    0.93    0.86
  -6  -2   7    0.08    0.82
   5   2  -7    3.45    0.89
   5   2  -7    2.29    0.81
   5   2  -7    5.01    0.90
  -5  -2   7    5.04    1.02
  -5  -2   7    3.00    0.95
  -5  -2   7    2.57    0.98
   4   2  -7   -0.62    0.50
   4   2  -7    0.16    0.53
   4   2  -7   -0.05    0.46
   4   2  -7   -0.24    0.52
  -4  -2   7    0.28    0.59
  -4  -2   7    0.12    0.55
  -4  -2   7    0.27    0.53
  -4  -2   7   -0.37    0.59
   3   2  -7    3.42    0.70
   3   2  -7    3.96    0.75
   3   2  -7    2.75    0.78
   3   2  -7    3.16    0.73
  -3  -2   7    2.66    0.74
  -3  -2   7    2.28    0.72
  -3  -2   7    3.91    0.85
  -3  -2   7    2.82    0.76
  -3  -2   7    2.90    0.73
   2   2  -7    3.02    0.63
   2   2  -7    3.54    0.68
   2   2  -7    3.10    0.68
   2   2  -7    2.51    0.56
   2   2  -7    4.92    0.84
  -2  -2   7    2.39    0.62
  -2  -2   7    2.53    0.67
  -2  -2   7    2.54    0.71
  -2  -2   7    3.04    0.67
  -2  -2   7    3.19    0.73
  -2  -2   7    3.54    0.83
  -2  -2   7    3.64    0.76
  -2  -2   7    4.04    0.74
   1   2  -7   64.32    3.82
   1   2  -7   65.42    3.79
   1   2  -7   63.33    3.85
   1   2  -7   61.91    4.00
  -1  -2   7   69.12    3.62
  -1  -2   7   62.25    3.61
  -1  -2   7   66.30    3.82
  -1  -2   7   63.28    3.91
  -1  -2   7   67.74    3.73
  -1  -2   7   67.09    3.58
   0   2  -7    2.17    0.59
   0   2  -7    2.69    0.53
   0   2  -7    2.17    0.58
   0  -2   7    2.60    0.65
   0  -2   7    2.93    0.54
   0  -2   7    1.69    0.58
   0  -2   7    1.92    0.60
   0  -2   7    2.34    0.54
  -1   2  -7    1.85    0.58
  -1   2  -7    2.73    0.54
  -1   2  -7    1.54    0.53
   1  -2   7    2.68    0.59
   1  -2   7    2.47    0.68
   1  -2   7    3.39    0.75
   1  -2   7    2.23    0.60
  -2   2  -7    8.09    1.16
  -2   2  -7   10.66    1.20
  -2   2  -7    9.42    0.92
   2  -2   7   11.39    1.27
   2  -2   7    9.17    1.11
   2  -2   7    8.98    1.13
   2  -2   7   11.65    1.33
  -3   2  -7   14.25    1.43
  -3   2  -7   14.53    1.31
  -3   2  -7   13.20    1.23
   3  -2   7   15.17    1.54
   3  -2   7   13.62    1.26
   3  -2   7   15.90    1.59
  -4   2  -7    9.78    1.38
  -4   2  -7   10.27    1.24
  -4   2  -7    7.32    1.09
   4  -2   7    9.31    1.25
   4  -2   7   10.06    1.39
   4  -2   7   11.20    1.31
  -5   2  -7    2.85    0.86
  -5   2  -7    3.57    0.98
  -5   2  -7    3.74    0.86
   5  -2   7    2.93    0.91
   5  -2   7    1.99    0.75
   5  -2   7    2.22    0.75
  -6   2  -7   23.85    2.25
  -6   2  -7   23.44    2.11
   6  -2   7   22.21    1.87
   6  -2   7   19.00    2.14
  -7   2  -7    1.57    0.97
  -7   2  -7    0.00    0.89
   7  -2   7    0.81    0.79
   7  -2   7    0.40    0.88
  -8   2  -7   -0.69    0.91
  -8   2  -7   -0.47    1.22
   8  -2   7   -0.02    1.21
   8  -2   7    0.68    0.93
   7   1  -7    1.16    0.81
   7   1  -7    0.49    1.00
  -7  -1   7    1.00    0.97
  -7  -1   7    0.44    1.11
   6   1  -7    0.28    0.73
   6   1  -7   -0.25    0.64
  -6  -1   7   -0.08    0.91
  -6  -1   7    0.01    0.94
  -6  -1   7   -0.84    1.29
   5   1  -7   10.00    1.24
   5   1  -7    9.63    1.36
   5   1  -7   11.88    1.69
   5   1  -7   10.38    1.38
  -5  -1   7   10.56    1.88
  -5  -1   7   11.50    1.60
  -5  -1   7    9.63    1.40
  -5  -1   7    7.44    1.37
   4   1  -7    0.23    0.53
   4   1  -7   -0.37    0.41
   4   1  -7    0.47    0.63
   4   1  -7    0.67    0.55
  -4  -1   7   -0.27    0.74
  -4  -1   7    0.28    0.58
  -4  -1   7    0.47    0.62
  -4  -1   7    0.29    0.64
   3   1  -7    5.90    0.89
   3   1  -7    5.27    0.83
   3   1  -7    6.97    0.90
   3   1  -7    5.35    0.96
  -3  -1   7    5.36    1.07
  -3  -1   7    7.59    1.10
  -3  -1   7    5.22    0.99
  -3  -1   7    5.63    1.00
  -3  -1   7    6.11    1.07
  -3  -1   7    5.14    0.85
  -3  -1   7    4.49    0.80
   2   1  -7   19.86    1.42
   2   1  -7   20.14    1.52
   2   1  -7   21.97    1.62
   2   1  -7   18.16    1.46
   2   1  -7   23.32    1.69
  -2  -1   7   19.08    1.47
  -2  -1   7   20.70    1.67
  -2  -1   7   19.04    1.58
  -2  -1   7   18.84    1.56
  -2  -1   7   19.15    1.55
  -2  -1   7   20.27    1.53
  -2  -1   7   18.85    1.45
   1   1  -7   18.04    1.42
   1   1  -7   18.86    1.30
   1   1  -7   18.70    1.38
   1   1  -7   16.54    1.35
   1   1  -7   19.77    1.42
  -1  -1   7   17.69    1.41
  -1  -1   7   15.83    1.43
  -1  -1   7   14.81    1.30
  -1  -1   7   18.83    1.43
  -1  -1   7   16.95    1.30
  -1  -1   7   15.10    1.39
  -1  -1   7   18.90    1.36
  -1  -1   7   14.85    1.20
  -1  -1   7   17.01    1.41
   0   1  -7    1.09    0.45
   0   1  -7    1.32    0.45
   0   1  -7    1.03    0.39
   0   1  -7    0.30    0.37
   0  -1   7    1.08    0.48
   0  -1   7    0.80    0.40
   0  -1   7    1.26    0.51
   0  -1   7    1.26    0.53
   0  -1   7    0.88    0.37
   0  -1   7    0.80    0.43
   0  -1   7    0.74    0.31
   0  -1   7    1.03    0.47
  -1   1  -7   25.26    1.97
  -1   1  -7   26.44    1.89
  -1   1  -7   27.47    1.84
   1  -1   7   30.94    2.00
   1  -1   7   25.46    1.78
   1  -1   7   28.71    1.88
   1  -1   7   29.71    1.86
  -2   1  -7   29.08    2.22
  -2   1  -7   37.32    2.15
  -2   1  -7   31.29    2.12
   2  -1   7   31.67    1.95
   2  -1   7   26.73    2.00
   2  -1   7   33.58    2.21
   2  -1   7   31.94    2.05
  -3   1  -7   24.11    1.63
  -3   1  -7   21.59    1.71
  -3   1  -7   20.63    1.54
   3  -1   7   19.16    1.51
   3  -1   7   20.35    1.55
   3  -1   7   19.43    1.50
   3  -1   7   18.81    1.39
   3  -1   7   16.75    1.55
  -4   1  -7    8.34    1.20
  -4   1  -7    9.23    1.16
  -4   1  -7    8.54    1.07
   4  -1   7    6.31    1.02
   4  -1   7    5.65    0.95
   4  -1   7    5.98    0.93
   4  -1   7    5.30    0.95
   4  -1   7    6.84    0.88
  -5   1  -7    1.25    0.71
  -5   1  -7    1.40    0.63
  -5   1  -7    1.51    0.70
   5  -1   7    2.28    0.66
   5  -1   7    2.13    0.77
   5  -1   7    2.14    0.66
   5  -1   7    1.43    0.60
  -6   1  -7    3.07    0.98
  -6   1  -7    3.31    0.92
   6  -1   7    1.11    0.66
   6  -1   7    1.43    0.80
   6  -1   7    1.73    0.81
  -7   1  -7    1.44    0.98
  -7   1  -7    1.16    0.85
   7  -1   7    0.71    0.85
   7  -1   7   -0.08    0.66
  -8   1  -7    0.60    1.14
  -8   1  -7   -0.02    0.92
   8  -1   7    0.49    0.83
   8  -1   7    0.44    0.93
   6   0  -7    2.04    0.98
   6   0  -7    2.82    1.04
  -6   0   7    2.50    1.06
  -6   0   7    0.83    1.51
  -6   0   7    1.99    1.26
   5   0  -7    1.27    0.73
   5   0  -7    0.77    0.81
   5   0  -7    1.23    0.83
  -5   0   7    1.89    1.02
  -5   0   7    2.29    1.32
  -5   0   7    0.27    0.80
   4   0  -7    1.22    0.76
   4   0  -7    0.83    0.70
   4   0  -7    1.28    0.64
  -4   0   7    1.62    0.85
  -4   0   7    0.09    0.69
  -4   0   7    0.89    0.89
   3   0  -7   33.33    2.11
   3   0  -7   33.37    2.32
   3   0  -7   33.40    2.33
   3   0  -7   35.14    2.01
  -3   0   7   35.30    2.35
  -3   0   7   30.21    2.01
  -3   0   7   31.27    2.51
  -3   0   7   31.14    2.12
  -3   0   7   28.99    2.31
  -3   0   7   32.86    2.60
   2   0  -7    0.90    0.51
   2   0  -7    0.23    0.46
   2   0  -7    0.33    0.36
   2   0  -7   -0.18    0.38
   2   0  -7    0.05    0.32
  -2   0   7   -0.08    0.22
  -2   0   7    0.38    0.41
  -2   0   7    0.57    0.49
  -2   0   7    0.94    0.56
  -2   0   7   -0.06    0.54
  -2   0   7    0.23    0.45
  -2   0   7    1.02    0.62
  -2   0   7    0.01    0.23
  -2   0   7    0.53    0.77
   1   0  -7   10.13    1.27
   1   0  -7    9.97    0.95
   1   0  -7   11.15    1.10
   1   0  -7   10.07    1.22
   1   0  -7   11.62    1.19
  -1   0   7   12.84    1.40
  -1   0   7    8.99    1.11
  -1   0   7   12.36    1.07
  -1   0   7    6.16    1.06
  -1   0   7   12.93    1.02
  -1   0   7    9.36    0.96
  -1   0   7   15.02    1.55
  -1   0   7   11.93    1.36
  -1   0   7   12.35    1.07
   0   0  -7   36.96    2.38
   0   0  -7   39.08    2.58
   0   0  -7   37.74    2.47
   0   0   7   38.69    2.61
   0   0   7   38.40    2.51
   0   0   7   36.80    2.19
   0   0   7   36.36    2.38
   0   0   7   37.99    2.22
   0   0   7   35.80    2.11
   0   0   7   35.49    2.41
   0   0   7   38.39    2.36
   0   0   7   41.60    2.47
  -1   0  -7   16.47    1.24
  -1   0  -7   13.72    0.96
  -1   0  -7   15.59    1.31
  -1   0  -7   16.12    1.15
   1   0   7   13.33    1.20
   1   0   7   15.97    1.10
   1   0   7   15.46    1.26
   1   0   7   10.52    1.39
   1   0   7   16.90    1.05
   1   0   7   14.30    1.19
   1   0   7   16.97    1.25
  -2   0  -7    9.32    1.14
  -2   0  -7   10.16    0.92
  -2   0  -7    8.56    0.71
   2   0   7   10.91    0.97
   2   0   7   10.14    1.13
   2   0   7    9.70    0.80
   2   0   7   10.33    1.12
   2   0   7    9.07    0.99
  -3   0  -7   20.29    1.51
  -3   0  -7   18.35    1.45
  -3   0  -7   18.25    1.58
   3   0   7   20.47    1.40
   3   0   7   18.78    1.43
   3   0   7   17.53    1.47
   3   0   7   19.84    1.37
   3   0   7   18.69    1.41
  -4   0  -7   26.72    1.89
  -4   0  -7   25.18    1.95
  -4   0  -7   30.34    2.15
   4   0   7   29.33    1.90
   4   0   7   26.29    1.97
   4   0   7   25.66    1.83
   4   0   7   28.09    1.86
   4   0   7   27.23    1.90
  -5   0  -7    9.91    1.16
  -5   0  -7   10.77    1.38
  -5   0  -7    9.18    1.30
   5   0   7   10.11    1.22
   5   0   7    8.57    1.15
   5   0   7   10.46    1.29
   5   0   7    9.78    1.16
   5   0   7   10.84    1.20
  -6   0  -7   18.78    1.76
  -6   0  -7   15.78    1.83
   6   0   7   15.43    1.63
   6   0   7   14.50    1.57
   6   0   7   14.24    1.62
   6   0   7   15.34    1.40
  -7   0  -7    5.31    1.23
  -7   0  -7    5.72    1.16
   7   0   7    4.74    1.10
   7   0   7    3.96    0.96
   7   0   7    4.45    1.13
  -8   0  -7   -1.07    0.76
  -8   0  -7    0.21    0.79
   8   0   7    1.25    1.11
   8   0   7    0.75    0.79
   8   0   7    0.53    0.89
  -9   0  -7    0.10    0.66
   9   0   7    0.92    1.16
   6  -1  -7    0.69    0.83
   6  -1  -7    0.81    0.84
  -6   1   7    1.29    1.64
  -6   1   7   -0.28    0.88
  -6   1   7   -0.13    0.87
   5  -1  -7   -0.13    0.66
   5  -1  -7    0.34    0.69
  -5   1   7   -0.47    1.11
  -5   1   7    0.75    0.86
  -5   1   7    0.26    0.90
   4  -1  -7    2.81    0.74
   4  -1  -7    3.80    0.99
   4  -1  -7    2.94    0.94
  -4   1   7    2.83    0.96
  -4   1   7    1.24    0.81
  -4   1   7    1.82    0.82
  -4   1   7    2.03    1.20
   3  -1  -7   41.06    2.61
   3  -1  -7   42.97    2.87
   3  -1  -7   41.96    2.91
  -3   1   7   42.76    2.98
  -3   1   7   44.40    3.24
  -3   1   7   42.17    3.16
  -3   1   7   45.20    2.95
  -3   1   7   41.33    3.01
   2  -1  -7    3.74    0.57
   2  -1  -7    1.52    0.57
   2  -1  -7    2.61    0.57
   2  -1  -7    4.55    0.94
   2  -1  -7    3.35    0.78
  -2   1   7    2.41    0.53
  -2   1   7    2.93    0.79
  -2   1   7    3.30    0.78
  -2   1   7    2.84    0.77
  -2   1   7    2.75    0.75
  -2   1   7    3.98    1.05
  -2   1   7    2.24    0.86
   1  -1  -7    0.52    0.48
   1  -1  -7    0.29    0.25
   1  -1  -7    0.60    0.42
  -1   1   7    0.25    0.53
  -1   1   7    0.61    0.51
  -1   1   7    0.18    0.34
  -1   1   7    0.34    0.33
  -1   1   7    0.40    0.43
  -1   1   7    0.73    0.60
  -1   1   7    0.00    0.21
  -1   1   7    0.07    0.44
  -1   1   7    0.09    0.29
   0  -1  -7    4.13    0.77
   0  -1  -7    3.72    0.57
   0  -1  -7    2.76    0.71
   0   1   7    3.78    0.59
   0   1   7    3.12    0.75
   0   1   7    3.49    0.60
   0   1   7    2.86    0.46
   0   1   7    3.40    0.73
   0   1   7    2.86    0.59
   0   1   7    3.14    0.70
   0   1   7    2.19    0.70
   0   1   7    4.53    0.72
  -1  -1  -7   99.24    5.40
  -1  -1  -7  100.39    5.83
  -1  -1  -7   97.29    5.62
  -1  -1  -7   95.87    5.12
   1   1   7   91.04    5.27
   1   1   7   94.55    5.44
   1   1   7  100.48    4.82
   1   1   7   96.65    5.84
   1   1   7   91.99    5.16
  -2  -1  -7    1.00    0.47
  -2  -1  -7    0.74    0.42
  -2  -1  -7    1.30    0.38
   2   1   7    0.85    0.41
   2   1   7    1.53    0.55
   2   1   7    0.69    0.29
   2   1   7    0.39    0.36
   2   1   7    0.83    0.42
   2   1   7    0.93    0.41
  -3  -1  -7    0.25    0.39
  -3  -1  -7    0.40    0.26
  -3  -1  -7    0.43    0.38
   3   1   7    0.03    0.36
   3   1   7    0.53    0.41
   3   1   7    0.40    0.31
   3   1   7   -0.05    0.31
   3   1   7    0.07    0.34
  -4  -1  -7   19.56    1.57
  -4  -1  -7   19.56    1.33
  -4  -1  -7   23.04    1.72
   4   1   7   18.71    1.47
   4   1   7   18.79    1.43
   4   1   7   19.98    1.47
   4   1   7   21.44    1.56
   4   1   7   19.02    1.41
  -5  -1  -7   28.01    1.85
  -5  -1  -7   23.74    2.00
  -5  -1  -7   25.58    2.00
   5   1   7   27.01    1.88
   5   1   7   26.88    1.76
   5   1   7   24.79    1.82
   5   1   7   24.95    1.85
   5   1   7   23.88    1.80
  -6  -1  -7    0.74    0.61
  -6  -1  -7    0.73    0.62
   6   1   7    0.83    0.62
   6   1   7    1.00    0.51
   6   1   7    0.53    0.57
   6   1   7    0.32    0.40
  -7  -1  -7    0.16    0.65
  -7  -1  -7    0.10    0.64
   7   1   7   -0.10    0.62
   7   1   7   -0.46    0.57
   7   1   7    0.25    0.74
   7   1   7   -0.47    0.59
  -8  -1  -7    2.40    0.90
  -8  -1  -7    4.95    1.21
   8   1   7    4.22    1.16
   8   1   7    2.67    0.80
   8   1   7    2.70    1.02
  -9  -1  -7    0.65    0.64
   9   1   7    3.08    1.10
   9   1   7    0.89    1.06
   6  -2  -7   -0.26    0.79
   6  -2  -7    0.24    1.02
   6  -2  -7   -0.03    1.75
  -6   2   7   -0.62    1.48
  -6   2   7   -0.41    0.97
   5  -2  -7    3.49    1.10
   5  -2  -7    0.11    0.54
   5  -2  -7    1.88    0.80
  -5   2   7    1.91    1.05
  -5   2   7    4.04    1.46
   4  -2  -7    2.23    0.85
   4  -2  -7    1.38    0.66
   4  -2  -7    3.08    1.03
   4  -2  -7    2.46    0.73
  -4   2   7    2.64    0.99
  -4   2   7    2.71    1.28
  -4   2   7    1.51    0.99
   3  -2  -7   15.19    1.35
   3  -2  -7   16.78    1.58
   3  -2  -7   13.64    1.73
   3  -2  -7   17.23    1.91
  -3   2   7   19.48    2.29
  -3   2   7   16.13    1.66
  -3   2   7   17.31    1.96
  -3   2   7   17.89    2.26
   2  -2  -7    6.06    1.08
   2  -2  -7    9.38    1.20
   2  -2  -7    7.91    1.25
   2  -2  -7    9.01    0.96
  -2   2   7    9.67    1.33
  -2   2   7   11.15    1.62
  -2   2   7    7.43    1.35
  -2   2   7    8.52    1.30
   1  -2  -7   17.07    1.45
   1  -2  -7   15.49    1.09
   1  -2  -7   16.96    1.30
  -1   2   7   15.11    1.67
  -1   2   7   11.30    1.14
  -1   2   7   15.06    1.77
  -1   2   7   14.66    1.36
  -1   2   7   14.80    1.77
  -1   2   7   13.42    1.23
   0  -2  -7   -0.12    0.28
   0  -2  -7    0.10    0.21
   0  -2  -7    0.31    0.41
   0  -2  -7    0.31    0.45
   0   2   7    0.19    0.24
   0   2   7    0.30    0.32
   0   2   7    0.39    0.34
   0   2   7   -0.56    0.42
   0   2   7    0.08    0.51
   0   2   7    0.15    0.27
   0   2   7    0.25    0.41
  -1  -2  -7   67.10    4.33
  -1  -2  -7   73.33    4.08
  -1  -2  -7   78.56    4.54
   1   2   7   73.58    3.78
   1   2   7   76.24    4.11
   1   2   7   75.30    4.33
   1   2   7   76.85    4.33
   1   2   7   76.10    4.56
   1   2   7   75.65    4.66
  -2  -2  -7   34.28    2.06
  -2  -2  -7   31.09    2.21
  -2  -2  -7   32.58    2.15
   2   2   7   31.26    2.06
   2   2   7   32.84    1.99
   2   2   7   25.38    1.78
   2   2   7   28.92    2.04
   2   2   7   30.91    2.25
  -3  -2  -7   15.96    1.31
  -3  -2  -7   17.39    1.39
  -3  -2  -7   15.32    1.16
   3   2   7   15.36    1.28
   3   2   7   14.58    1.15
   3   2   7   15.22    1.22
   3   2   7   16.48    1.26
   3   2   7   13.91    1.38
  -4  -2  -7   14.08    1.30
  -4  -2  -7   15.03    1.31
  -4  -2  -7   13.71    1.12
   4   2   7   15.80    1.28
   4   2   7   14.68    1.24
   4   2   7   17.77    1.24
   4   2   7   14.60    1.23
  -5  -2  -7   28.70    1.82
  -5  -2  -7   27.03    2.03
  -5  -2  -7   28.25    2.08
   5   2   7   25.20    1.79
   5   2   7   24.71    1.85
   5   2   7   27.24    1.90
   5   2   7   26.78    1.92
  -6  -2  -7    5.66    0.85
  -6  -2  -7    6.45    1.18
  -6  -2  -7    4.18    0.94
   6   2   7    5.82    0.95
   6   2   7    5.62    0.97
   6   2   7    7.01    1.01
   6   2   7    4.18    0.82
  -7  -2  -7    0.15    0.53
  -7  -2  -7    0.14    0.58
  -7  -2  -7    0.10    0.57
   7   2   7   -0.38    0.54
   7   2   7   -0.63    0.51
   7   2   7    0.34    0.66
  -8  -2  -7    1.92    0.72
   8   2   7    2.83    0.90
   8   2   7    3.70    1.09
  -9  -2  -7    0.70    0.64
   9   2   7    2.55    0.97
   5  -3  -7    0.84    0.67
   5  -3  -7    2.59    1.04
  -5   3   7    1.58    1.24
  -5   3   7    2.93    1.15
  -5   3   7    3.54    1.42
   4  -3  -7    1.84    0.96
   4  -3  -7    0.77    0.71
  -4   3   7    1.35    1.01
  -4   3   7    1.16    1.17
  -4   3   7    1.82    0.96
   3  -3  -7    1.22    0.73
   3  -3  -7    0.47    0.61
   3  -3  -7   -0.27    0.72
  -3   3   7    0.30    0.86
  -3   3   7    0.05    0.89
  -3   3   7    0.25    0.75
  -3   3   7   -0.11    0.78
   2  -3  -7    0.44    0.60
   2  -3  -7    0.42    0.56
   2  -3  -7   -0.16    0.58
  -2   3   7   -0.24    0.70
  -2   3   7   -0.07    0.33
  -2   3   7    0.37    0.70
  -2   3   7   -0.34    0.71
  -2   3   7   -0.08    0.57
   1  -3  -7   37.05    2.37
   1  -3  -7   40.48    2.62
  -1   3   7   31.57    2.65
  -1   3   7   34.78    2.60
  -1   3   7   34.95    2.35
  -1   3   7   32.31    2.50
  -1   3   7   32.54    2.64
   0  -3  -7   26.91    2.24
   0  -3  -7   37.78    2.36
   0  -3  -7   28.69    1.98
   0   3   7   28.73    2.27
   0   3   7   29.44    2.31
   0   3   7   28.50    1.88
   0   3   7   30.01    2.26
   0   3   7   30.54    2.08
  -1  -3  -7   57.61    3.27
  -1  -3  -7   55.82    3.63
  -1  -3  -7   50.61    3.48
   1   3   7   55.16    3.47
   1   3   7   55.11    3.66
   1   3   7   57.28    3.21
   1   3   7   58.96    3.44
   1   3   7   58.71    3.66
  -2  -3  -7    5.91    0.90
  -2  -3  -7    7.13    1.06
  -2  -3  -7    5.03    0.71
   2   3   7    6.60    0.83
   2   3   7    6.06    0.75
   2   3   7    5.64    0.88
   2   3   7    5.46    0.84
   2   3   7    6.20    0.97
  -3  -3  -7   64.87    3.87
  -3  -3  -7   69.94    4.23
  -3  -3  -7   66.87    4.12
   3   3   7   69.76    4.28
   3   3   7   62.59    3.81
   3   3   7   64.80    3.77
   3   3   7   66.66    3.96
   3   3   7   71.11    3.50
  -4  -3  -7    5.97    0.94
  -4  -3  -7    4.92    0.85
  -4  -3  -7    5.03    0.77
   4   3   7    4.47    0.88
   4   3   7    6.99    0.91
   4   3   7    5.55    0.85
   4   3   7    6.41    0.82
   4   3   7    4.65    0.78
  -5  -3  -7   15.29    1.44
  -5  -3  -7   15.89    1.47
  -5  -3  -7   19.26    1.38
   5   3   7   17.86    1.44
   5   3   7   15.49    1.30
   5   3   7   16.62    1.40
   5   3   7   17.21    1.42
  -6  -3  -7   10.14    1.21
  -6  -3  -7   12.82    1.54
  -6  -3  -7   11.48    1.39
   6   3   7    9.70    1.25
   6   3   7   11.30    1.30
   6   3   7   11.17    1.25
   6   3   7   10.95    1.26
  -7  -3  -7   11.48    1.38
  -7  -3  -7    9.10    1.33
  -7  -3  -7    9.14    1.17
   7   3   7   10.13    1.30
   7   3   7   10.86    1.38
   7   3   7    8.88    1.20
  -8  -3  -7   -0.44    0.48
  -8  -3  -7    1.28    0.74
   8   3   7    0.93    0.73
   8   3   7    0.01    0.64
   8   3   7   -0.27    0.61
  -9  -3  -7    2.16    0.77
   9   3   7    3.42    1.03
 -10  -3  -7    0.15    0.61
  10   3   7    1.06    1.06
   5  -4  -7    0.28    0.73
   5  -4  -7    0.77    0.95
  -5   4   7    0.42    1.12
  -5   4   7    0.52    1.21
  -5   4   7   -0.56    1.28
   4  -4  -7    7.34    1.40
  -4   4   7    5.96    1.49
  -4   4   7    7.29    1.76
   3  -4  -7    9.45    1.51
   3  -4  -7    4.88    1.02
  -3   4   7    6.63    1.48
  -3   4   7    8.29    1.61
  -3   4   7    6.42    1.32
  -3   4   7   12.19    1.83
   2  -4  -7    3.97    1.05
   2  -4  -7    2.62    0.89
   2  -4  -7    4.34    1.00
  -2   4   7    4.94    1.24
  -2   4   7    4.93    1.19
  -2   4   7    4.14    1.25
  -2   4   7    2.38    0.70
  -2   4   7    3.79    1.17
   1  -4  -7   22.03    1.98
   1  -4  -7   21.14    1.81
   1  -4  -7   24.89    2.02
  -1   4   7   23.69    2.01
  -1   4   7   22.47    2.13
  -1   4   7   24.06    2.47
  -1   4   7   23.40    1.85
  -1   4   7   20.73    1.97
   0  -4  -7   25.13    1.98
   0  -4  -7   24.51    2.04
   0  -4  -7   22.43    1.74
   0   4   7   22.31    1.59
   0   4   7   22.83    2.01
   0   4   7   22.14    1.93
   0   4   7   21.90    1.75
   0   4   7   20.17    1.96
  -1  -4  -7    9.33    1.36
  -1  -4  -7    7.80    1.22
  -1  -4  -7    8.39    1.05
   1   4   7    8.32    1.26
   1   4   7    7.88    1.06
   1   4   7    7.40    1.15
   1   4   7    5.75    1.12
  -2  -4  -7    0.89    0.52
  -2  -4  -7    0.13    0.47
  -2  -4  -7   -0.06    0.38
   2   4   7   -0.07    0.39
   2   4   7    0.40    0.42
   2   4   7   -0.06    0.42
   2   4   7    0.19    0.42
  -3  -4  -7  106.94    6.50
  -3  -4  -7  104.69    6.33
  -3  -4  -7  108.75    6.08
   3   4   7  112.74    5.92
   3   4   7  116.91    6.15
   3   4   7  111.59    6.54
   3   4   7  100.92    5.79
   3   4   7  103.33    5.26
  -4  -4  -7   48.25    3.09
  -4  -4  -7   46.85    2.89
  -4  -4  -7   44.22    3.02
   4   4   7   47.99    4.14
   4   4   7   43.64    2.80
   4   4   7   49.30    2.97
   4   4   7   43.77    3.11
  -5  -4  -7   12.16    1.30
  -5  -4  -7    9.55    1.33
  -5  -4  -7    8.88    1.20
   5   4   7   11.80    1.26
   5   4   7   10.66    1.24
   5   4   7    9.56    1.19
   5   4   7   11.69    1.20
  -6  -4  -7    4.62    0.84
  -6  -4  -7    5.58    0.95
  -6  -4  -7    7.43    1.20
   6   4   7    3.24    0.80
   6   4   7    3.82    0.82
   6   4   7    4.12    0.87
   6   4   7    3.33    0.74
  -7  -4  -7   15.85    1.50
  -7  -4  -7   17.15    1.91
   7   4   7   15.63    1.61
   7   4   7   18.24    1.58
   7   4   7   13.88    1.62
  -8  -4  -7    4.68    1.04
  -8  -4  -7    4.32    1.01
   8   4   7    6.71    1.22
   8   4   7    4.21    1.02
   8   4   7    5.46    1.06
  -9  -4  -7    2.50    0.99
  -9  -4  -7    0.78    0.68
   9   4   7    2.73    1.04
   9   4   7    0.04    0.80
 -10  -4  -7    1.82    1.10
 -10  -4  -7    0.14    0.73
  10   4   7    2.09    1.16
   4  -5  -7    1.11    0.79
   4  -5  -7    3.20    1.19
  -4   5   7    1.73    1.16
  -4   5   7    2.51    1.29
  -4   5   7    2.05    1.70
   3  -5  -7    1.09    0.89
   3  -5  -7    0.20    0.58
  -3   5   7    3.94    1.30
  -3   5   7    1.88    1.04
  -3   5   7    0.43    0.84
   2  -5  -7    8.89    1.39
   2  -5  -7   12.96    1.68
   2  -5  -7   15.61    1.90
  -2   5   7    9.67    1.71
  -2   5   7   12.50    1.95
  -2   5   7   11.42    1.76
  -2   5   7   11.56    1.74
   1  -5  -7    0.79    0.67
   1  -5  -7    0.59    0.63
   1  -5  -7    1.72    0.81
  -1   5   7    0.85    0.60
  -1   5   7    1.63    0.88
  -1   5   7    0.18    0.74
  -1   5   7    0.88    0.86
   0  -5  -7   46.84    3.52
   0  -5  -7   48.62    3.23
   0  -5  -7   49.66    3.42
   0   5   7   52.18    3.27
   0   5   7   49.89    3.44
   0   5   7   48.36    3.56
   0   5   7   49.66    3.55
  -1  -5  -7   31.63    2.41
  -1  -5  -7   29.44    2.23
  -1  -5  -7   32.53    2.51
   1   5   7   29.35    2.39
   1   5   7   31.29    2.50
   1   5   7   32.31    2.08
   1   5   7   32.58    2.47
   1   5   7   30.37    2.24
  -2  -5  -7   16.12    1.71
  -2  -5  -7   13.80    1.45
  -2  -5  -7   15.51    1.47
   2   5   7   11.21    1.37
   2   5   7   14.38    1.76
   2   5   7   12.70    1.18
   2   5   7   11.10    1.49
   2   5   7   15.86    1.63
  -3  -5  -7    6.23    1.10
  -3  -5  -7    6.80    0.94
  -3  -5  -7    6.90    1.12
   3   5   7    8.09    1.09
   3   5   7    5.44    0.88
   3   5   7    7.51    1.14
   3   5   7    4.12    0.88
  -4  -5  -7   15.95    1.46
  -4  -5  -7   14.50    1.47
  -4  -5  -7   18.12    1.53
   4   5   7   17.08    1.44
   4   5   7   20.03    1.54
   4   5   7   16.77    1.50
   4   5   7   16.08    1.44
   4   5   7   15.79    1.23
  -5  -5  -7   35.64    2.51
  -5  -5  -7   39.68    2.69
  -5  -5  -7   38.70    2.66
   5   5   7   37.19    2.52
   5   5   7   35.56    5.68
   5   5   7   36.60    2.68
   5   5   7   37.56    2.51
  -6  -5  -7   21.19    1.72
  -6  -5  -7   25.62    1.94
   6   5   7   20.55    1.60
   6   5   7   20.80    1.74
   6   5   7   19.25    1.66
   6   5   7   21.89    3.60
  -7  -5  -7   42.81    2.77
  -7  -5  -7   37.45    2.90
   7   5   7   45.34    6.97
   7   5   7   38.69    2.73
  -8  -5  -7    5.71    1.21
  -8  -5  -7    5.12    1.05
   8   5   7    5.80    1.14
   8   5   7    4.49    1.05
   8   5   7    5.41    1.06
  -9  -5  -7    1.88    0.87
  -9  -5  -7    0.05    0.75
   9   5   7    0.65    0.81
   9   5   7    0.74    0.86
 -10  -5  -7    0.58    0.96
 -10  -5  -7    0.24    0.94
  10   5   7    1.00    1.10
   3  -6  -7    2.97    1.11
   3  -6  -7    0.22    0.77
  -3   6   7    0.97    1.09
  -3   6   7    2.05    1.10
   2  -6  -7    9.39    1.60
   2  -6  -7    4.95    1.08
  -2   6   7    8.65    1.69
  -2   6   7    4.01    1.18
   1  -6  -7    0.35    0.69
   1  -6  -7    0.09    0.68
   1  -6  -7    1.35    0.92
  -1   6   7    0.95    0.93
  -1   6   7    0.23    0.76
  -1   6   7   -1.31    0.71
  -1   6   7   -0.38    0.58
   0  -6  -7    1.29    0.73
   0  -6  -7    0.80    0.68
   0  -6  -7    0.54    0.82
   0   6   7    1.74    1.04
   0   6   7    0.87    0.84
   0   6   7    2.13    0.94
   0   6   7    1.89    0.80
  -1  -6  -7    3.87    0.91
  -1  -6  -7    4.35    1.09
  -1  -6  -7    4.13    1.15
   1   6   7    4.11    1.17
   1   6   7    5.69    1.20
   1   6   7    4.67    1.09
   1   6   7    5.28    1.06
  -2  -6  -7   41.54    2.79
  -2  -6  -7   38.47    2.79
  -2  -6  -7   38.74    2.61
   2   6   7   33.89    2.55
   2   6   7   32.84    2.59
   2   6   7   35.18    2.39
   2   6   7   37.21    2.76
   2   6   7   32.64    2.72
  -3  -6  -7    2.65    0.76
  -3  -6  -7    6.15    1.18
  -3  -6  -7    3.13    0.89
   3   6   7    2.72    0.83
   3   6   7    3.51    0.85
   3   6   7    2.63    0.75
   3   6   7    3.83    2.13
  -4  -6  -7   29.31    2.17
  -4  -6  -7   28.05    2.19
   4   6   7   26.65    2.06
   4   6   7   27.43    2.08
   4   6   7   26.53    2.02
   4   6   7   26.11    2.14
  -5  -6  -7    0.81    0.65
  -5  -6  -7    0.54    0.54
  -5  -6  -7    0.61    0.53
   5   6   7   -0.09    0.50
   5   6   7    0.30    0.49
   5   6   7   -0.14    0.49
   5   6   7    0.90    0.57
  -6  -6  -7    9.94    1.44
  -6  -6  -7    8.20    1.22
   6   6   7    6.91    1.18
   6   6   7    6.16    1.10
   6   6   7    6.76    1.06
   6   6   7   11.56    1.36
  -7  -6  -7    0.27    0.66
  -7  -6  -7    0.95    0.82
   7   6   7    0.99    0.72
   7   6   7    0.01    0.60
   7   6   7    0.96    0.70
  -8  -6  -7   -0.27    0.70
  -8  -6  -7    0.72    0.69
   8   6   7   -0.74    0.75
   8   6   7    0.55    0.75
   8   6   7    0.21    0.68
  -9  -6  -7    2.54    1.14
  -9  -6  -7    5.90    1.26
   9   6   7    3.41    2.76
   9   6   7    3.04    1.00
 -10  -6  -7    1.91    1.25
 -10  -6  -7    0.24    1.02
  10   6   7    0.53    1.09
  10   6   7   -0.15    0.97
   3  -7  -7    0.58    0.95
   3  -7  -7   -0.35    0.88
  -3   7   7   -0.68    1.03
  -3   7   7   -0.34    0.97
   2  -7  -7   12.60    1.96
   2  -7  -7    7.21    1.41
  -2   7   7   15.19    2.18
   1  -7  -7    3.28    0.96
   1  -7  -7    7.17    1.40
  -1   7   7    3.85    1.04
  -1   7   7    8.27    1.75
  -1   7   7    7.59    1.57
   0  -7  -7    1.92    0.93
   0  -7  -7    1.86    1.09
   0  -7  -7    2.10    0.88
   0   7   7    3.05    1.12
   0   7   7    0.86    1.08
   0   7   7    1.98    1.06
   0   7   7    0.77    0.87
  -1  -7  -7    6.86    1.26
  -1  -7  -7   10.15    1.73
  -1  -7  -7    7.83    1.29
   1   7   7   10.21    1.57
   1   7   7    5.60    1.26
   1   7   7   11.87    1.85
   1   7   7   10.71    1.71
  -2  -7  -7   32.98    2.67
  -2  -7  -7   31.42    2.71
  -2  -7  -7   38.50    2.72
   2   7   7   37.50    2.77
   2   7   7   34.43    2.82
   2   7   7   33.68    2.66
   2   7   7   37.83    2.87
  -3  -7  -7    1.70    0.74
  -3  -7  -7    3.21    0.95
  -3  -7  -7    1.23    0.77
   3   7   7    2.85    0.90
   3   7   7    2.58    0.77
   3   7   7    1.04    0.74
   3   7   7    1.39    0.77
  -4  -7  -7   -0.54    0.54
  -4  -7  -7   -0.16    0.54
  -4  -7  -7    0.05    0.58
   4   7   7    0.45    0.57
   4   7   7   -0.66    0.49
   4   7   7   -0.65    0.50
   4   7   7    0.93    0.67
  -5  -7  -7   12.63    1.66
  -5  -7  -7    8.45    1.43
   5   7   7   11.80    1.45
   5   7   7   11.71    1.47
   5   7   7    9.92    1.44
   5   7   7   12.10    1.49
  -6  -7  -7   48.02    3.32
  -6  -7  -7   45.78    3.23
   6   7   7   44.36    3.10
   6   7   7   51.77    7.90
   6   7   7   46.68    3.17
  -7  -7  -7    5.44    1.13
  -7  -7  -7    7.74    1.43
   7   7   7    9.77    1.45
   7   7   7    4.55    0.99
   7   7   7    7.07    1.25
  -8  -7  -7    1.04    1.02
  -8  -7  -7    0.38    0.80
   8   7   7    1.36    0.99
   8   7   7    0.93    0.84
  -9  -7  -7   -0.18    1.07
  -9  -7  -7    0.39    0.94
   9   7   7    1.48    1.01
   9   7   7   -0.44    0.82
 -10  -7  -7   -0.46    1.02
 -10  -7  -7    0.67    1.29
  10   7   7    0.82    1.06
  10   7   7    1.40    2.04
   2  -8  -7   -0.01    0.90
   2  -8  -7    0.31    1.12
  -2   8   7    0.05    1.39
   1  -8  -7    2.80    0.99
   1  -8  -7    4.22    1.31
  -1   8   7    6.90    1.65
  -1   8   7    5.73    1.71
  -1   8   7    5.36    1.73
   0  -8  -7   21.86    2.53
   0  -8  -7   13.10    1.73
   0  -8  -7   12.26    1.80
   0   8   7    8.83    1.61
   0   8   7   12.43    2.00
   0   8   7   19.70    2.38
  -1  -8  -7    1.94    0.84
  -1  -8  -7    7.79    1.64
  -1  -8  -7    2.60    1.01
   1   8   7    3.88    1.21
   1   8   7    2.05    1.22
   1   8   7    3.99    1.27
   1   8   7    2.83    1.25
  -2  -8  -7   20.81    2.25
  -2  -8  -7   24.81    2.75
  -2  -8  -7   16.24    2.02
   2   8   7   21.86    2.37
   2   8   7   22.26    2.57
   2   8   7   21.59    2.37
   2   8   7   21.50    2.49
  -3  -8  -7   21.41    2.31
  -3  -8  -7   20.01    1.96
  -3  -8  -7   26.61    2.76
   3   8   7   20.89    2.12
   3   8   7   17.85    2.08
   3   8   7   20.38    2.35
   3   8   7   22.69    2.08
  -4  -8  -7   10.18    1.62
  -4  -8  -7   14.58    1.91
  -4  -8  -7    9.82    1.48
   4   8   7   11.06    1.57
   4   8   7   10.59    1.57
   4   8   7    9.47    1.53
   4   8   7    9.22    1.47
  -5  -8  -7    1.66    0.90
  -5  -8  -7    0.78    0.84
   5   8   7    0.28    0.71
   5   8   7    0.79    0.77
   5   8   7    0.27    0.65
  -6  -8  -7   18.11    2.06
  -6  -8  -7   14.02    1.84
   6   8   7   15.10    1.83
   6   8   7   15.14    1.91
   6   8   7   15.48    1.81
  -7  -8  -7    5.36    1.22
  -7  -8  -7    5.41    1.37
   7   8   7    5.17    1.13
   7   8   7    5.68    1.30
   7   8   7    6.73    1.26
  -8  -8  -7    4.83    1.16
  -8  -8  -7    4.91    1.42
   8   8   7    3.78    1.19
  -9  -8  -7    2.81    1.20
  -9  -8  -7    2.55    1.42
   9   8   7    0.66    1.19
   9   8   7    2.72    1.26
   1  -9  -7    0.53    1.17
   1  -9  -7    0.10    0.96
   1  -9  -7    0.68    1.29
  -1   9   7    0.65    1.46
  -1   9   7    0.99    1.67
   0  -9  -7    6.32    1.54
   0  -9  -7    6.85    1.72
   0  -9  -7    5.17    1.36
   0   9   7    2.39    1.15
   0   9   7    9.19    1.99
   0   9   7    7.23    1.82
  -1  -9  -7    9.23    1.67
  -1  -9  -7    6.74    1.37
  -1  -9  -7   13.84    2.10
   1   9   7   10.00    1.93
   1   9   7   13.45    1.98
   1   9   7    8.97    1.84
  -2  -9  -7    0.38    1.02
  -2  -9  -7    0.85    1.02
  -2  -9  -7    0.71    0.78
   2   9   7   -0.40    0.70
   2   9   7    0.55    1.04
   2   9   7    0.39    0.95
   2   9   7    0.47    1.03
  -3  -9  -7    1.82    0.89
  -3  -9  -7    1.33    0.94
  -3  -9  -7    1.68    1.11
   3   9   7    1.34    0.95
   3   9   7    1.06    0.97
   3   9   7    1.17    0.73
  -4  -9  -7   39.35    3.12
  -4  -9  -7   43.51    3.41
  -4  -9  -7   50.81    3.44
   4   9   7   43.42    3.25
   4   9   7   44.43    3.44
   4   9   7   42.94    3.23
  -5  -9  -7    2.08    0.94
  -5  -9  -7    0.47    0.95
   5   9   7    2.28    1.09
   5   9   7    0.57    0.90
   5   9   7    0.71    0.86
  -6  -9  -7    2.45    1.14
  -6  -9  -7    0.60    0.79
   6   9   7    1.86    0.97
   6   9   7    2.30    1.01
   6   9   7    2.20    1.15
  -7  -9  -7    3.08    1.11
   7   9   7    4.73    1.32
   7   9   7    4.48    1.15
  -8  -9  -7    4.88    1.25
   8   9   7    7.22    1.58
  -9  -9  -7    0.73    0.89
   9   9   7    1.42    1.09
  -1 -10  -7    3.90    1.25
  -1 -10  -7    2.27    1.19
   1  10   7    3.55    1.65
   1  10   7    2.79    1.45
  -2 -10  -7    0.45    1.05
  -2 -10  -7    0.74    1.06
   2  10   7    0.16    1.22
   2  10   7    0.40    0.88
  -3 -10  -7    6.54    1.61
  -3 -10  -7    5.67    1.34
   3  10   7    4.21    1.45
   3  10   7    5.29    1.55
  -4 -10  -7   21.32    2.48
  -4 -10  -7   19.07    2.39
   4  10   7   18.68    2.59
  -5 -10  -7    7.25    1.61
   5  10   7    6.21    1.39
   5  10   7    7.84    1.70
  -6 -10  -7    1.56    1.08
   6  10   7    3.12    1.26
   6  10   7    1.35    1.09
  -7 -10  -7    0.80    1.04
   7  10   7    1.18    1.10
   7  10   7    2.21    1.38
  -8 -10  -7    3.40    1.22
   8  10   7    6.61    1.68
  -3 -11  -7    5.80    1.53
  -3 -11  -7    6.42    1.71
   3  11   7    8.38    2.19
  -4 -11  -7   14.47    2.18
  -4 -11  -7   14.67    2.30
   4  11   7   13.28    2.28
  -5 -11  -7   -0.52    1.05
  -5 -11  -7    0.15    1.04
   5  11   7   -0.44    0.90
   5  11   7    0.06    1.45
  -6 -11  -7    5.78    1.55
   6  11   7    7.82    1.82
   6  11   7    4.38    1.69
  -7 -11  -7    1.02    1.06
   7  11   7    2.01    1.44
   7  11   7    0.12    1.30
   2   9  -8    2.97    1.28
   2   9  -8    1.88    1.29
   2   9  -8    1.53    1.22
  -2  -9   8    1.01    1.18
  -1  -9   8    0.18    0.94
   4   8  -8    0.22    0.84
   4   8  -8    0.41    1.05
  -4  -8   8   -0.17    1.31
  -4  -8   8   -0.15    1.09
  -4  -8   8    0.70    1.01
   3   8  -8   -0.31    1.09
   3   8  -8   -0.80    0.63
   3   8  -8    0.64    0.93
  -3  -8   8    0.46    1.00
  -3  -8   8   -0.34    0.90
   2   8  -8    2.02    1.25
   2   8  -8    0.42    0.97
  -2  -8   8    0.90    1.02
  -2  -8   8    1.73    1.09
   1   8  -8    0.28    0.77
   1   8  -8    0.54    0.96
  -1  -8   8    0.05    0.97
  -1  -8   8    0.73    0.90
   0   8  -8    2.92    1.25
   0   8  -8    1.31    1.12
   0  -8   8    1.85    1.11
   0  -8   8    1.62    0.93
  -1   8  -8    0.72    1.07
  -1   8  -8   -0.41    1.05
   1  -8   8    0.67    0.97
   1  -8   8    0.73    1.13
  -2   8  -8    0.79    0.93
  -2   8  -8    2.45    1.45
   2  -8   8   -0.05    0.87
   5   7  -8   -0.43    0.97
   5   7  -8    0.39    0.95
  -5  -7   8    0.68    1.14
  -5  -7   8    0.58    0.99
  -5  -7   8    0.21    1.28
   4   7  -8    0.88    0.96
   4   7  -8    1.17    0.97
  -4  -7   8    1.55    1.10
  -4  -7   8    2.16    1.05
  -4  -7   8    1.29    1.10
   3   7  -8    0.75    0.88
   3   7  -8    0.98    0.99
   3   7  -8    0.44    0.82
  -3  -7   8   -0.61    0.82
  -3  -7   8    0.47    0.82
  -3  -7   8    0.39    1.04
   2   7  -8    1.67    0.99
   2   7  -8    0.03    0.78
  -2  -7   8    1.40    0.92
  -2  -7   8   -0.12    0.78
   1   7  -8    2.20    0.97
   1   7  -8    1.19    0.94
  -1  -7   8    3.49    1.10
  -1  -7   8    3.27    1.16
   0   7  -8    4.94    1.23
   0   7  -8    2.09    0.86
   0  -7   8    4.80    1.13
   0  -7   8    3.64    1.09
  -1   7  -8   -0.69    0.75
  -1   7  -8    1.69    1.00
  -1   7  -8    1.25    1.01
   1  -7   8    0.97    0.99
   1  -7   8    1.86    0.89
   1  -7   8    1.22    1.05
  -2   7  -8   -0.20    0.77
  -2   7  -8   -1.36    0.91
  -2   7  -8   -0.21    1.03
   2  -7   8    0.23    0.79
   2  -7   8   -0.81    0.86
   2  -7   8    0.93    1.18
  -3   7  -8    1.78    1.32
  -3   7  -8    0.61    1.19
   3  -7   8    1.15    1.11
   3  -7   8    2.32    1.09
   6   6  -8    1.49    1.19
   6   6  -8    1.45    0.91
   6   6  -8    0.20    0.97
  -6  -6   8    1.10    1.06
  -6  -6   8    0.62    1.12
   5   6  -8    0.92    1.00
   5   6  -8    0.31    0.88
  -5  -6   8   -0.62    1.19
  -5  -6   8   -0.04    0.87
  -5  -6   8    0.29    0.98
   4   6  -8    2.31    0.96
   4   6  -8    1.50    0.95
  -4  -6   8    1.34    1.14
  -4  -6   8    2.15    0.95
  -4  -6   8    0.92    0.91
   3   6  -8    1.84    0.95
   3   6  -8    0.69    0.80
   3   6  -8    1.64    0.84
  -3  -6   8    1.81    0.99
  -3  -6   8    2.25    0.92
  -3  -6   8    0.86    0.91
   2   6  -8    2.68    0.98
   2   6  -8    2.83    1.07
  -2  -6   8    3.50    0.97
  -2  -6   8    2.65    0.98
   1   6  -8    4.26    1.13
   1   6  -8    2.99    0.99
  -1  -6   8    4.58    1.08
  -1  -6   8    0.62    0.80
  -1  -6   8    2.63    1.04
   0   6  -8    1.17    0.73
   0   6  -8    0.11    0.75
   0  -6   8    0.90    0.88
   0  -6   8    0.29    0.75
   0  -6   8    0.66    0.65
  -1   6  -8    1.22    0.70
  -1   6  -8    1.74    0.88
  -1   6  -8    1.43    0.93
   1  -6   8    2.22    0.98
   1  -6   8    3.10    1.09
   1  -6   8    0.94    0.74
  -2   6  -8    3.66    1.03
  -2   6  -8    5.39    1.31
  -2   6  -8    4.45    1.14
   2  -6   8    3.07    1.15
   2  -6   8    2.42    0.97
   2  -6   8    2.28    1.15
  -3   6  -8    4.48    1.35
  -3   6  -8    2.91    1.18
   3  -6   8    5.47    1.23
   3  -6   8    6.45    1.47
  -4   6  -8    3.06    1.43
  -4   6  -8    1.56    1.04
   4  -6   8    1.27    1.12
   4  -6   8    2.42    1.10
   5  -6   8    1.17    1.20
   5  -6   8    0.98    1.17
   6   5  -8    2.05    1.02
   6   5  -8    2.59    0.99
  -6  -5   8    0.08    1.15
  -6  -5   8    2.07    1.10
   5   5  -8    0.22    0.89
   5   5  -8    1.01    0.80
  -5  -5   8    0.98    1.12
  -5  -5   8    0.39    0.85
  -5  -5   8   -0.28    0.95
   4   5  -8   -0.26    0.66
   4   5  -8   -0.16    0.73
  -4  -5   8    0.09    0.70
  -4  -5   8   -0.84    0.82
  -4  -5   8    0.10    0.78
   3   5  -8   -0.36    0.62
   3   5  -8    1.19    0.71
   3   5  -8   -0.14    0.54
  -3  -5   8    2.61    1.04
  -3  -5   8    0.66    0.87
  -3  -5   8    0.56    0.71
   2   5  -8   36.38    2.70
   2   5  -8   36.11    2.64
  -2  -5   8   33.15    2.56
  -2  -5   8   33.87    2.77
  -2  -5   8   34.99    2.50
  -2  -5   8   35.38    2.57
   1   5  -8    2.58    0.87
   1   5  -8    2.45    0.86
  -1  -5   8    1.34    0.85
  -1  -5   8    2.08    0.86
  -1  -5   8    1.11    0.71
   0   5  -8    8.00    1.29
   0   5  -8    8.43    1.28
   0   5  -8    8.00    1.29
   0  -5   8   10.01    1.41
   0  -5   8    8.82    1.44
   0  -5   8   10.22    1.44
  -1   5  -8    1.78    0.77
  -1   5  -8    1.29    0.75
  -1   5  -8    2.13    0.82
   1  -5   8    0.90    0.76
   1  -5   8    1.24    0.70
   1  -5   8    2.49    0.91
  -2   5  -8   12.32    1.60
  -2   5  -8   14.37    1.89
  -2   5  -8   13.79    1.71
   2  -5   8   11.63    1.67
   2  -5   8   10.75    1.55
   2  -5   8   10.81    1.64
  -3   5  -8    0.80    0.91
  -3   5  -8    1.14    0.94
  -3   5  -8    0.74    0.89
   3  -5   8    0.77    0.76
   3  -5   8    1.03    0.92
   3  -5   8   -0.54    0.60
  -4   5  -8   -0.29    0.70
  -4   5  -8    0.27    0.83
   4  -5   8    1.44    0.99
   4  -5   8    0.68    0.78
  -5   5  -8    1.82    1.37
  -5   5  -8    1.79    1.16
   5  -5   8    2.10    1.05
   5  -5   8    2.11    1.12
   6  -5   8    1.33    1.23
   6  -5   8    1.66    1.18
   6   4  -8    0.52    0.78
   6   4  -8    0.74    0.76
  -6  -4   8    0.58    1.17
  -6  -4   8   -0.55    0.86
   5   4  -8    4.57    1.23
   5   4  -8    1.92    0.84
   5   4  -8    0.62    0.75
  -5  -4   8    0.43    0.93
  -5  -4   8    1.77    1.01
  -5  -4   8    1.06    0.96
   4   4  -8   10.31    1.64
   4   4  -8   13.19    1.55
  -4  -4   8   11.17    1.49
  -4  -4   8   12.06    1.65
  -4  -4   8   12.09    1.64
   3   4  -8    0.15    0.66
   3   4  -8    0.43    0.59
   3   4  -8   -0.82    0.61
  -3  -4   8    0.85    0.82
  -3  -4   8   -0.49    0.70
  -3  -4   8    0.70    0.89
  -3  -4   8    0.42    0.62
   2   4  -8    2.15    0.80
   2   4  -8    2.14    0.82
  -2  -4   8    2.98    0.87
  -2  -4   8    1.51    0.69
  -2  -4   8    2.01    0.79
  -2  -4   8    1.52    0.92
   1   4  -8    2.95    0.74
   1   4  -8    2.53    0.78
   1   4  -8    2.67    0.78
  -1  -4   8    2.14    0.84
  -1  -4   8    4.00    0.98
  -1  -4   8    3.12    0.80
   0   4  -8   36.01    2.63
   0   4  -8   36.50    2.66
   0   4  -8   37.64    2.62
   0  -4   8   35.56    2.64
   0  -4   8   39.73    2.59
   0  -4   8   37.47    2.52
  -1   4  -8    0.17    0.58
  -1   4  -8   -0.42    0.57
  -1   4  -8   -0.34    0.47
   1  -4   8    0.24    0.59
   1  -4   8   -0.03    0.56
   1  -4   8   -1.05    0.48
  -2   4  -8   51.41    3.63
  -2   4  -8   58.97    3.44
  -2   4  -8   51.90    3.47
   2  -4   8   57.18    3.49
   2  -4   8   48.97    3.32
   2  -4   8   44.05    3.16
  -3   4  -8    1.65    0.83
  -3   4  -8    0.82    0.79
   3  -4   8    0.37    0.69
   3  -4   8    0.48    0.74
   3  -4   8    1.24    0.84
  -4   4  -8    2.68    0.97
  -4   4  -8    5.09    1.25
   4  -4   8    2.93    1.06
   4  -4   8    2.81    1.06
   4  -4   8    3.60    1.04
  -5   4  -8    0.24    0.84
  -5   4  -8    1.26    0.94
   5  -4   8    0.95    0.88
   5  -4   8    0.86    0.81
  -6   4  -8    1.65    1.22
   6  -4   8    4.24    1.33
   6  -4   8    2.60    1.28
   6   3  -8   -0.10    0.71
   6   3  -8   -0.99    0.66
  -6  -3   8    1.24    0.98
  -6  -3   8    0.18    1.08
  -6  -3   8    1.62    1.12
   5   3  -8   -0.12    0.58
   5   3  -8    0.69    0.68
  -5  -3   8    0.34    0.93
  -5  -3   8    0.17    0.74
  -5  -3   8    0.22    0.86
   4   3  -8   -0.26    0.65
   4   3  -8   -0.24    0.51
   4   3  -8    0.46    0.55
  -4  -3   8    0.13    0.76
  -4  -3   8    0.66    0.84
  -4  -3   8   -0.15    0.62
   3   3  -8    5.77    1.15
   3   3  -8    6.91    1.11
   3   3  -8    5.57    1.00
  -3  -3   8    4.72    1.22
  -3  -3   8    8.28    1.24
  -3  -3   8    7.46    1.12
  -3  -3   8    7.83    1.28
   2   3  -8    0.17    0.53
   2   3  -8    0.39    0.49
  -2  -3   8   -0.74    0.55
  -2  -3   8    0.73    0.67
  -2  -3   8    0.08    0.49
  -2  -3   8    0.62    0.57
   1   3  -8    3.78    0.83
   1   3  -8    3.73    0.77
   1   3  -8    3.29    0.82
  -1  -3   8    2.84    0.82
  -1  -3   8    2.48    0.81
  -1  -3   8    2.30    0.68
  -1  -3   8    3.76    0.78
   0   3  -8    6.31    1.01
   0   3  -8    5.50    0.95
   0   3  -8    6.06    0.99
   0  -3   8    4.09    0.91
   0  -3   8    5.59    0.98
   0  -3   8    4.40    0.84
  -1   3  -8    0.92    0.56
  -1   3  -8    0.96    0.54
   1  -3   8    0.82    0.60
   1  -3   8    0.93    0.55
   1  -3   8   -0.01    0.51
  -2   3  -8    3.22    0.86
  -2   3  -8    1.81    0.75
   2  -3   8    3.28    0.81
   2  -3   8    1.07    0.67
   2  -3   8    2.59    0.83
  -3   3  -8    0.61    0.69
  -3   3  -8    0.64    0.63
   3  -3   8    1.80    0.79
   3  -3   8   -0.21    0.60
   3  -3   8    0.34    0.50
  -4   3  -8   33.98    2.79
  -4   3  -8   35.20    2.60
   4  -3   8   33.95    2.61
   4  -3   8   34.12    2.48
   4  -3   8   38.46    2.64
  -5   3  -8    0.31    0.60
  -5   3  -8    0.36    0.75
   5  -3   8    0.38    0.69
   5  -3   8   -0.16    0.72
  -6   3  -8    1.45    0.82
  -6   3  -8    5.13    1.27
   6  -3   8    4.60    1.25
   6  -3   8    4.98    1.20
  -7   3  -8   -0.29    0.99
  -7   3  -8    0.44    0.90
   7  -3   8    0.65    1.23
   7  -3   8   -0.30    0.90
   6   2  -8   -0.14    0.80
   6   2  -8   -0.13    0.78
  -6  -2   8   -0.06    1.74
  -6  -2   8   -0.15    0.86
  -6  -2   8    0.82    1.00
   5   2  -8    2.01    0.76
   5   2  -8    0.53    0.67
  -5  -2   8    2.00    1.05
  -5  -2   8    0.20    0.75
  -5  -2   8    1.04    1.02
   4   2  -8    4.80    0.90
   4   2  -8    5.48    0.99
  -4  -2   8    5.00    1.17
  -4  -2   8    5.08    1.12
  -4  -2   8    5.04    1.08
  -4  -2   8    5.95    1.04
   3   2  -8   14.17    1.69
   3   2  -8   14.01    1.48
  -3  -2   8   15.47    1.71
  -3  -2   8   15.24    1.58
  -3  -2   8   13.70    1.79
  -3  -2   8   15.11    1.53
   2   2  -8    0.10    0.49
   2   2  -8    0.38    0.46
   2   2  -8   -0.25    0.42
  -2  -2   8    0.51    0.59
  -2  -2   8    0.41    0.49
  -2  -2   8    0.51    0.63
  -2  -2   8    0.24    0.58
  -2  -2   8    0.43    0.64
  -2  -2   8    0.73    0.62
   1   2  -8   -0.01    0.40
   1   2  -8   -0.07    0.39
   1   2  -8    0.47    0.51
  -1  -2   8    0.03    0.48
  -1  -2   8   -0.29    0.36
  -1  -2   8    0.24    0.46
  -1  -2   8    0.29    0.56
  -1  -2   8   -0.07    0.47
   0   2  -8   24.03    1.81
   0   2  -8   19.77    1.67
   0  -2   8   20.32    1.76
   0  -2   8   22.93    1.57
   0  -2   8   19.53    1.88
   0  -2   8   20.16    1.69
  -1   2  -8   20.43    1.61
  -1   2  -8   16.93    1.49
  -1   2  -8   18.79    1.36
   1  -2   8   12.52    1.36
   1  -2   8   17.47    1.56
   1  -2   8   16.56    1.48
   1  -2   8   17.65    1.73
  -2   2  -8    0.09    0.39
  -2   2  -8    0.28    0.47
  -2   2  -8   -0.39    0.44
   2  -2   8   -0.94    0.38
   2  -2   8    0.21    0.45
   2  -2   8    0.11    0.47
   2  -2   8   -0.75    0.42
  -3   2  -8    6.51    1.01
  -3   2  -8    6.13    0.97
  -3   2  -8    4.81    1.01
   3  -2   8    4.36    0.90
   3  -2   8    5.95    1.03
   3  -2   8    6.55    1.10
  -4   2  -8   20.63    1.70
  -4   2  -8   18.97    1.65
  -4   2  -8   18.42    1.83
   4  -2   8   19.87    2.01
   4  -2   8   17.11    1.60
   4  -2   8   17.80    1.84
  -5   2  -8   -0.19    0.57
  -5   2  -8   -0.10    0.60
  -5   2  -8    0.43    0.63
   5  -2   8    0.41    0.66
   5  -2   8    0.63    0.87
   5  -2   8    1.10    0.74
  -6   2  -8    0.39    0.76
  -6   2  -8    0.15    0.83
   6  -2   8    0.45    0.70
   6  -2   8   -0.04    0.81
  -7   2  -8    0.52    0.90
  -7   2  -8    0.75    0.91
   7  -2   8   -1.00    0.97
   7  -2   8    1.47    0.79
  -8   2  -8    2.37    1.43
  -8   2  -8    5.00    1.56
   8  -2   8    3.79    1.45
   8  -2   8    3.97    1.27
   6   1  -8    0.53    0.84
   6   1  -8    0.52    0.81
  -6  -1   8   -0.82    1.06
  -6  -1   8    0.78    1.02
   5   1  -8    3.23    1.01
   5   1  -8    2.89    1.07
   5   1  -8    3.22    0.95
  -5  -1   8    2.06    1.02
  -5  -1   8    4.51    1.09
  -5  -1   8    3.22    1.10
   4   1  -8    0.18    0.60
   4   1  -8   -0.53    0.56
   4   1  -8    0.32    0.53
   4   1  -8   -0.33    0.66
  -4  -1   8    0.12    1.87
  -4  -1   8   -0.29    0.72
  -4  -1   8    1.11    0.98
  -4  -1   8    0.21    0.58
   3   1  -8    9.33    1.21
   3   1  -8   10.37    1.25
   3   1  -8   10.51    1.19
   3   1  -8    8.74    1.31
  -3  -1   8   10.27    1.52
  -3  -1   8   14.81    1.68
  -3  -1   8   10.88    1.48
  -3  -1   8    9.29    1.18
  -3  -1   8   10.13    1.23
   2   1  -8   -0.17    0.41
   2   1  -8    0.59    0.51
   2   1  -8   -0.11    0.50
   2   1  -8    0.03    0.44
   2   1  -8   -0.17    0.41
   2   1  -8    0.75    0.57
  -2  -1   8   -0.04    0.43
  -2  -1   8    0.16    0.52
  -2  -1   8    0.21    0.54
  -2  -1   8   -0.13    0.35
  -2  -1   8   -0.07    0.44
  -2  -1   8    0.35    0.49
  -2  -1   8    0.01    0.29
  -2  -1   8    0.68    0.63
  -2  -1   8    0.87    0.63
   1   1  -8   32.74    2.24
   1   1  -8   35.31    2.28
   1   1  -8   34.65    2.36
   1   1  -8   33.88    2.23
   1   1  -8   30.06    2.04
  -1  -1   8   28.93    2.33
  -1  -1   8   32.69    2.24
  -1  -1   8   30.85    2.26
  -1  -1   8   33.09    2.03
  -1  -1   8   32.16    2.30
  -1  -1   8   30.42    2.19
  -1  -1   8   30.88    2.22
  -1  -1   8   31.16    2.08
  -1  -1   8   33.29    2.12
   0   1  -8   18.88    1.50
   0   1  -8   19.12    1.57
   0   1  -8   19.38    1.62
   0  -1   8   20.48    1.54
   0  -1   8   20.62    1.65
   0  -1   8   21.11    1.72
   0  -1   8   18.24    1.56
   0  -1   8   20.40    1.61
  -1   1  -8   20.38    1.62
  -1   1  -8   20.23    1.67
  -1   1  -8   21.02    1.55
   1  -1   8   21.06    1.59
   1  -1   8   19.03    1.60
   1  -1   8   22.54    1.71
   1  -1   8   19.63    1.60
  -2   1  -8    2.75    0.65
  -2   1  -8    2.84    0.68
  -2   1  -8    2.23    0.70
   2  -1   8    1.65    0.67
   2  -1   8    1.80    0.56
   2  -1   8    2.09    0.66
   2  -1   8    1.32    0.55
   2  -1   8    0.12    0.32
  -3   1  -8   22.47    1.89
  -3   1  -8   23.03    1.71
  -3   1  -8   21.71    1.73
   3  -1   8   23.66    1.75
   3  -1   8   23.54    1.77
   3  -1   8   18.81    3.52
   3  -1   8   20.58    1.78
  -4   1  -8   14.30    1.65
  -4   1  -8   12.69    1.28
   4  -1   8   12.78    1.52
   4  -1   8   16.19    1.60
   4  -1   8   12.75    1.48
   4  -1   8   13.50    1.53
  -5   1  -8   10.17    1.42
  -5   1  -8    7.75    1.19
  -5   1  -8    9.31    1.39
   5  -1   8   10.54    1.35
   5  -1   8    8.68    1.36
   5  -1   8    8.18    1.17
  -6   1  -8    2.14    0.94
  -6   1  -8    1.19    0.80
   6  -1   8    1.71    1.00
   6  -1   8    3.48    0.94
   6  -1   8    0.79    0.71
  -7   1  -8   -0.98    0.80
  -7   1  -8   -0.26    0.73
   7  -1   8    0.22    0.73
   7  -1   8   -0.22    0.94
  -8   1  -8    2.70    1.15
  -8   1  -8    3.24    1.33
   8  -1   8    3.62    1.18
   8  -1   8    1.96    1.31
   6   0  -8    0.67    0.93
   6   0  -8   -0.22    0.81
  -6   0   8   -0.82    1.61
  -6   0   8   -0.30    1.09
  -6   0   8   -0.43    0.98
   5   0  -8    5.93    1.32
   5   0  -8    6.16    1.15
  -5   0   8    3.26    1.15
  -5   0   8    7.01    1.83
  -5   0   8    7.32    1.55
   4   0  -8    1.06    0.69
   4   0  -8    1.11    0.82
   4   0  -8    1.57    0.84
  -4   0   8    1.12    1.11
  -4   0   8    1.87    0.98
  -4   0   8    1.48    0.83
   3   0  -8    2.14    0.82
   3   0  -8    2.63    0.79
   3   0  -8    2.88    0.70
  -3   0   8    5.19    1.02
  -3   0   8    4.06    0.96
  -3   0   8    3.98    1.16
  -3   0   8    3.56    0.93
  -3   0   8    3.08    0.76
  -3   0   8    3.40    1.04
   2   0  -8    1.33    0.47
   2   0  -8    1.13    0.59
   2   0  -8    1.99    0.74
   2   0  -8    2.84    0.70
   2   0  -8    1.88    0.61
   2   0  -8    1.89    0.59
  -2   0   8    2.40    0.75
  -2   0   8    1.41    0.77
  -2   0   8    1.62    0.68
  -2   0   8    1.39    0.64
  -2   0   8    2.27    0.59
  -2   0   8    0.05    0.33
  -2   0   8    2.50    0.95
  -2   0   8   -0.01    0.36
  -2   0   8    3.32    0.88
   1   0  -8   43.19    2.72
   1   0  -8   43.06    2.66
   1   0  -8   43.09    2.89
   1   0  -8   45.13    2.99
   1   0  -8   43.57    2.82
  -1   0   8   43.07    2.49
  -1   0   8   43.42    2.88
  -1   0   8   39.93    2.76
  -1   0   8   43.12    2.99
  -1   0   8   41.89    2.75
  -1   0   8   39.90    2.91
  -1   0   8   41.19    2.71
  -1   0   8   46.32    2.53
   0   0  -8   12.19    1.02
   0   0  -8   11.48    1.39
   0   0  -8   12.86    1.18
   0   0  -8   12.50    1.18
   0   0   8   11.90    1.14
   0   0   8   16.06    1.22
   0   0   8   13.50    1.21
   0   0   8   10.80    1.33
   0   0   8   13.69    1.47
   0   0   8   10.82    1.32
   0   0   8   14.58    1.05
   0   0   8   12.94    1.23
   0   0   8   14.94    1.36
  -1   0  -8    1.28    0.47
  -1   0  -8    0.55    0.45
  -1   0  -8    0.89    0.47
   1   0   8    1.74    0.45
   1   0   8    0.45    0.45
   1   0   8    1.25    0.58
   1   0   8    0.74    0.46
   1   0   8    1.11    0.54
   1   0   8    0.93    0.51
  -2   0  -8   25.77    1.86
  -2   0  -8   25.13    1.82
  -2   0  -8   25.17    1.95
   2   0   8   21.57    1.82
   2   0   8   25.65    1.80
   2   0   8   27.93    1.61
   2   0   8   25.11    1.79
   2   0   8   24.10    1.77
  -3   0  -8   13.42    1.37
  -3   0  -8   13.43    1.43
  -3   0  -8   14.69    1.26
   3   0   8   17.87    1.62
   3   0   8   12.72    1.45
   3   0   8   14.44    1.28
   3   0   8   13.69    1.22
   3   0   8   12.75    1.13
  -4   0  -8   15.29    1.49
  -4   0  -8   17.96    1.48
  -4   0  -8   16.87    1.46
   4   0   8   16.19    1.41
   4   0   8   17.04    1.44
   4   0   8   16.70    1.39
   4   0   8   14.37    1.43
   4   0   8   17.02    1.66
  -5   0  -8    1.07    0.63
  -5   0  -8    1.26    0.57
  -5   0  -8    1.15    0.65
   5   0   8    0.00    0.36
   5   0   8    0.04    0.50
   5   0   8    0.40    0.56
   5   0   8    0.52    0.61
   5   0   8    0.88    0.56
  -6   0  -8    2.35    0.92
  -6   0  -8    4.96    1.07
   6   0   8    3.93    0.92
   6   0   8    3.43    0.85
   6   0   8    2.42    0.82
   6   0   8    4.58    0.96
   6   0   8    3.77    1.00
  -7   0  -8    1.19    0.88
  -7   0  -8    2.30    1.00
   7   0   8    3.34    1.04
   7   0   8    1.95    1.04
   7   0   8    2.57    0.91
  -8   0  -8    1.12    0.86
  -8   0  -8    1.40    1.05
   8   0   8    0.92    1.13
   8   0   8    1.56    1.05
   8   0   8    2.21    0.98
  -9   0  -8    0.68    0.91
  -9   0  -8    0.98    1.45
   9   0   8   -0.13    0.97
   6  -1  -8    0.24    0.83
   6  -1  -8    0.49    1.00
   6  -1  -8   -0.04    1.12
  -6   1   8   -0.83    1.77
   5  -1  -8    3.26    1.11
   5  -1  -8    3.80    0.99
   5  -1  -8    1.25    0.74
  -5   1   8    3.40    1.30
  -5   1   8    4.12    1.68
  -5   1   8    1.28    1.24
   4  -1  -8    0.94    0.87
   4  -1  -8    1.64    0.86
   4  -1  -8    3.08    0.81
   4  -1  -8    0.53    0.66
  -4   1   8    2.10    1.06
  -4   1   8    0.24    1.07
  -4   1   8    1.31    0.87
   3  -1  -8    0.32    0.74
   3  -1  -8    0.61    0.50
   3  -1  -8    2.05    0.90
   3  -1  -8    1.50    0.78
  -3   1   8    1.17    0.78
  -3   1   8    0.66    0.71
  -3   1   8    0.27    0.67
  -3   1   8   -0.62    0.71
  -3   1   8    0.80    0.90
   2  -1  -8    0.50    0.63
   2  -1  -8    0.23    0.52
   2  -1  -8    0.12    0.41
   2  -1  -8    0.10    0.52
  -2   1   8    0.21    0.51
  -2   1   8    0.48    0.60
  -2   1   8    0.26    0.46
  -2   1   8    0.09    0.33
  -2   1   8   -0.04    0.60
  -2   1   8    0.25    0.69
  -2   1   8   -0.26    0.66
   1  -1  -8   73.99    4.19
   1  -1  -8   80.94    4.62
   1  -1  -8   79.77    4.79
   1  -1  -8   83.68    4.61
   1  -1  -8   80.27    4.98
  -1   1   8   85.98    5.11
  -1   1   8   69.97    4.74
  -1   1   8   80.63    4.82
  -1   1   8   86.22    5.06
  -1   1   8   77.66    4.22
  -1   1   8   80.95    4.72
  -1   1   8   85.41    4.12
   0  -1  -8    0.26    0.36
   0  -1  -8    0.91    0.57
   0  -1  -8   -0.04    0.45
   0  -1  -8    0.32    0.50
   0   1   8    0.16    0.35
   0   1   8    1.17    0.43
   0   1   8   -0.17    0.42
   0   1   8    0.88    0.49
   0   1   8   -0.16    0.49
   0   1   8    0.37    0.41
   0   1   8    0.91    0.45
   0   1   8    1.51    0.68
  -1  -1  -8    7.55    1.07
  -1  -1  -8    8.35    1.07
  -1  -1  -8    7.35    1.00
   1   1   8    4.51    0.93
   1   1   8    6.10    0.88
   1   1   8    4.63    0.89
   1   1   8    3.29    0.66
   1   1   8    6.79    0.96
  -2  -1  -8   12.12    1.39
  -2  -1  -8   11.94    1.13
  -2  -1  -8   12.16    1.01
   2   1   8   13.76    1.40
   2   1   8   10.51    1.20
   2   1   8   10.03    1.37
   2   1   8   12.36    1.33
   2   1   8   12.02    1.09
  -3  -1  -8   89.20    5.19
  -3  -1  -8   91.38    5.42
  -3  -1  -8   85.52    4.76
   3   1   8   86.50    4.58
   3   1   8   88.73    4.84
   3   1   8   90.05    5.10
   3   1   8   82.79    4.84
  -4  -1  -8    1.67    0.59
  -4  -1  -8    1.25    0.63
   4   1   8    1.35    0.56
   4   1   8    1.23    0.56
   4   1   8    0.56    0.52
   4   1   8    0.64    0.47
  -5  -1  -8    0.12    0.59
  -5  -1  -8    0.38    0.48
  -5  -1  -8    0.14    0.50
   5   1   8    0.30    0.53
   5   1   8    0.62    0.52
   5   1   8    0.95    0.55
   5   1   8    0.29    0.52
  -6  -1  -8   23.09    1.98
  -6  -1  -8   26.28    2.09
   6   1   8   25.96    1.88
   6   1   8   21.47    1.83
   6   1   8   21.57    1.88
   6   1   8   22.97    1.89
  -7  -1  -8    8.41    1.43
  -7  -1  -8    6.27    1.22
   7   1   8    6.93    1.18
   7   1   8   11.97    1.61
   7   1   8    7.67    1.21
  -8  -1  -8    2.16    1.08
  -8  -1  -8    0.54    0.67
   8   1   8    0.75    0.82
   8   1   8    1.46    0.99
  -9  -1  -8    0.36    0.66
   9   1   8   -0.34    0.86
   5  -2  -8    1.25    1.09
   5  -2  -8    1.77    1.10
  -5   2   8   -0.26    1.42
  -5   2   8    0.26    1.18
   4  -2  -8    1.38    0.88
   4  -2  -8    0.32    0.51
  -4   2   8    1.36    0.96
  -4   2   8    0.14    1.03
  -4   2   8   -0.61    0.78
   3  -2  -8   13.30    1.67
   3  -2  -8   11.64    1.62
   3  -2  -8   10.66    1.60
  -3   2   8    8.83    1.78
  -3   2   8   11.71    1.91
  -3   2   8   10.30    1.60
  -3   2   8   12.79    1.75
   2  -2  -8    1.00    0.73
   2  -2  -8    0.61    0.73
   2  -2  -8    0.72    0.58
  -2   2   8    0.85    0.74
  -2   2   8    1.46    0.76
  -2   2   8    0.09    0.31
  -2   2   8    1.08    0.94
  -2   2   8    1.39    0.91
   1  -2  -8   22.36    1.71
   1  -2  -8   24.14    1.98
   1  -2  -8   23.15    2.06
  -1   2   8   25.17    2.14
  -1   2   8   25.39    1.76
  -1   2   8   22.47    1.77
  -1   2   8   24.05    1.99
  -1   2   8   22.16    2.34
  -1   2   8   20.85    1.92
   0  -2  -8   19.47    1.40
   0  -2  -8   15.76    1.59
   0  -2  -8   19.66    1.65
   0   2   8   17.32    1.40
   0   2   8   18.97    1.75
   0   2   8   16.65    1.90
   0   2   8   17.97    1.51
   0   2   8   20.78    1.71
  -1  -2  -8   43.36    2.91
  -1  -2  -8   48.12    3.05
  -1  -2  -8   41.66    2.83
   1   2   8   41.86    2.62
   1   2   8   40.31    2.75
   1   2   8   35.87    2.92
   1   2   8   49.56    2.97
   1   2   8   45.69    2.99
   1   2   8   43.37    2.44
  -2  -2  -8    7.76    1.08
  -2  -2  -8    4.99    0.83
  -2  -2  -8    7.02    1.03
   2   2   8    7.05    0.99
   2   2   8    7.23    0.93
   2   2   8    6.28    0.88
   2   2   8    6.41    1.04
   2   2   8    6.42    0.99
  -3  -2  -8   35.35    2.08
  -3  -2  -8   34.73    2.31
  -3  -2  -8   31.04    2.33
   3   2   8   31.24    2.01
   3   2   8   31.69    2.16
   3   2   8   31.10    2.41
   3   2   8   29.25    2.08
   3   2   8   30.45    2.20
  -4  -2  -8    6.82    1.05
  -4  -2  -8    9.95    1.23
  -4  -2  -8    6.40    0.85
   4   2   8   10.74    1.20
   4   2   8    9.31    1.16
   4   2   8    8.16    1.06
   4   2   8    7.69    1.03
  -5  -2  -8   28.84    1.90
  -5  -2  -8   26.54    2.12
  -5  -2  -8   27.77    2.21
   5   2   8   29.05    2.03
   5   2   8   27.68    2.04
   5   2   8   28.66    1.95
   5   2   8   29.23    2.05
  -6  -2  -8   12.04    1.53
  -6  -2  -8   11.14    1.51
   6   2   8   11.49    1.38
   6   2   8   12.28    1.41
   6   2   8    7.90    1.19
   6   2   8   11.60    1.38
  -7  -2  -8    4.97    1.16
  -7  -2  -8    4.58    1.02
   7   2   8    5.11    1.09
   7   2   8    4.38    1.03
   7   2   8    4.41    0.99
  -8  -2  -8    1.22    0.65
  -8  -2  -8    2.35    1.00
   8   2   8    1.10    0.83
   8   2   8    1.91    0.99
   8   2   8    3.29    1.05
  -9  -2  -8    0.26    0.54
   9   2   8    0.59    0.92
   5  -3  -8    0.41    0.88
   5  -3  -8    1.39    1.22
  -5   3   8    1.71    1.38
  -5   3   8    0.40    1.42
   4  -3  -8    0.02    0.48
   4  -3  -8    0.04    0.76
  -4   3   8    0.45    0.94
  -4   3   8    1.16    1.31
  -4   3   8    0.36    1.10
   3  -3  -8   17.05    2.02
  -3   3   8   22.02    2.20
  -3   3   8   19.18    2.54
  -3   3   8   18.74    2.25
  -3   3   8   16.69    2.42
   2  -3  -8    7.96    1.34
   2  -3  -8    6.32    1.16
   2  -3  -8    5.25    1.17
  -2   3   8    5.06    1.26
  -2   3   8    4.87    1.23
  -2   3   8    6.21    1.32
  -2   3   8    5.66    1.37
   1  -3  -8    1.39    0.67
   1  -3  -8   -0.34    0.59
   1  -3  -8    0.48    0.53
  -1   3   8   -0.02    0.70
  -1   3   8    1.51    0.72
  -1   3   8    0.85    0.84
  -1   3   8    0.46    0.59
  -1   3   8    1.22    0.73
   0  -3  -8    0.28    0.46
   0  -3  -8   -0.10    0.51
   0  -3  -8    0.74    0.65
   0   3   8    0.54    0.60
   0   3   8    0.01    0.61
   0   3   8   -0.03    0.39
   0   3   8    1.37    0.62
   0   3   8    1.45    0.77
  -1  -3  -8   98.77    5.58
  -1  -3  -8  107.20    5.95
  -1  -3  -8   97.11    6.09
   1   3   8  118.02    5.90
   1   3   8  110.23    5.55
   1   3   8  104.33    6.16
   1   3   8   87.87    6.14
   1   3   8   89.64    5.75
  -2  -3  -8   42.20    2.74
  -2  -3  -8   37.99    2.79
  -2  -3  -8   42.19    2.91
   2   3   8   42.69    2.36
   2   3   8   35.21    2.67
   2   3   8   41.83    2.57
   2   3   8   45.46    2.99
   2   3   8   41.44    2.70
  -3  -3  -8   17.25    1.66
  -3  -3  -8   19.90    1.68
  -3  -3  -8   20.73    1.58
   3   3   8   20.94    1.79
   3   3   8   22.02    1.67
   3   3   8   19.62    1.62
   3   3   8   22.08    1.59
   3   3   8   22.55    1.49
  -4  -3  -8   12.67    1.11
  -4  -3  -8   12.65    1.29
  -4  -3  -8   12.14    1.23
   4   3   8   12.32    1.35
   4   3   8   12.45    1.55
   4   3   8   14.59    1.35
   4   3   8   11.80    1.30
   4   3   8   12.61    1.36
  -5  -3  -8   55.52    3.18
  -5  -3  -8   50.15    3.43
  -5  -3  -8   54.41    3.54
   5   3   8   53.14    3.22
   5   3   8   49.08    3.27
   5   3   8   51.13    3.20
   5   3   8   52.48    3.01
  -6  -3  -8    0.45    0.47
  -6  -3  -8    0.43    0.61
  -6  -3  -8    0.38    0.59
   6   3   8    0.28    0.54
   6   3   8    0.33    0.53
   6   3   8   -0.50    0.47
   6   3   8    0.06    0.49
  -7  -3  -8    1.90    0.81
  -7  -3  -8    2.55    0.77
  -7  -3  -8    1.15    0.66
   7   3   8    2.39    0.84
   7   3   8    0.85    0.72
   7   3   8    3.34    0.87
  -8  -3  -8    2.22    0.78
   8   3   8    4.23    1.02
   8   3   8    4.64    1.07
   8   3   8    4.95    1.15
  -9  -3  -8    1.31    0.68
   9   3   8    1.30    0.96
   4  -4  -8    1.09    0.98
   4  -4  -8    0.13    0.85
  -4   4   8    1.88    1.35
  -4   4   8    1.68    1.30
  -4   4   8    0.70    1.02
   3  -4  -8    0.16    0.58
   3  -4  -8   -0.34    0.68
  -3   4   8    0.34    0.99
  -3   4   8    0.03    0.94
  -3   4   8    0.36    1.09
   2  -4  -8    3.32    1.08
   2  -4  -8    3.79    0.93
   2  -4  -8    3.93    1.03
  -2   4   8    4.79    1.21
  -2   4   8    3.35    1.16
  -2   4   8    3.14    1.27
  -2   4   8    3.72    1.23
   1  -4  -8   30.16    2.47
   1  -4  -8   36.07    2.39
   1  -4  -8   28.14    2.34
  -1   4   8   29.14    2.52
  -1   4   8   32.33    2.33
  -1   4   8   24.69    2.57
  -1   4   8   31.04    2.67
   0  -4  -8    1.30    0.77
   0  -4  -8    0.72    0.68
   0  -4  -8    0.49    0.54
   0   4   8    0.89    0.60
   0   4   8    0.27    0.65
   0   4   8    0.53    0.78
   0   4   8    0.79    0.68
  -1  -4  -8   16.47    1.41
  -1  -4  -8   19.43    2.14
  -1  -4  -8   22.52    2.19
   1   4   8   13.46    1.29
   1   4   8   17.03    1.63
   1   4   8   16.26    1.49
   1   4   8   18.28    2.00
   1   4   8   19.56    2.10
  -2  -4  -8    0.74    0.54
  -2  -4  -8    1.25    0.63
   2   4   8    0.17    0.53
   2   4   8    1.25    0.53
   2   4   8    1.03    0.52
   2   4   8    1.30    0.65
  -3  -4  -8   55.51    3.61
  -3  -4  -8   58.22    3.73
  -3  -4  -8   53.40    3.45
   3   4   8   56.41    3.47
   3   4   8   51.42    3.27
   3   4   8   55.70    3.69
   3   4   8   55.73    3.43
  -4  -4  -8   10.49    1.38
  -4  -4  -8    8.59    1.13
  -4  -4  -8    7.19    1.11
   4   4   8    4.69    0.94
   4   4   8    8.13    1.21
   4   4   8    8.26    0.98
   4   4   8    6.30    0.99
   4   4   8    7.75    1.11
  -5  -4  -8   53.82    3.49
  -5  -4  -8   49.04    3.19
  -5  -4  -8   52.85    3.50
   5   4   8   49.68    3.19
   5   4   8   55.74    3.28
   5   4   8   53.49    3.31
   5   4   8   49.45    2.95
  -6  -4  -8   14.80    1.52
  -6  -4  -8   14.10    1.61
  -6  -4  -8   11.81    1.58
   6   4   8    9.82    1.36
   6   4   8   13.12    1.44
   6   4   8   15.51    1.62
   6   4   8   12.16    1.43
  -7  -4  -8    1.21    0.69
  -7  -4  -8    0.31    0.58
  -7  -4  -8    0.50    0.74
   7   4   8    0.58    0.68
   7   4   8   -0.03    0.47
   7   4   8    0.79    0.68
  -8  -4  -8    0.59    0.61
  -8  -4  -8    0.30    0.63
   8   4   8    0.79    0.80
   8   4   8    1.79    0.91
   8   4   8    0.64    0.80
  -9  -4  -8    0.72    0.69
   9   4   8    1.56    0.98
   9   4   8    3.51    1.07
 -10  -4  -8    1.01    0.75
  10   4   8    2.93    1.26
   4  -5  -8    3.77    1.27
   4  -5  -8    5.15    1.67
  -4   5   8    2.07    1.67
   3  -5  -8    1.32    0.94
   3  -5  -8    0.09    0.57
  -3   5   8    0.63    0.98
  -3   5   8    2.27    1.42
  -3   5   8    0.70    1.07
   2  -5  -8    2.23    0.78
   2  -5  -8    5.68    1.31
  -2   5   8    5.68    1.35
  -2   5   8    3.71    1.27
   1  -5  -8    2.01    0.77
   1  -5  -8    3.02    1.01
   1  -5  -8    4.41    1.10
  -1   5   8    3.72    1.25
  -1   5   8    2.95    0.91
  -1   5   8    4.88    1.40
  -1   5   8    3.54    1.03
   0  -5  -8   10.09    1.54
   0  -5  -8   10.92    1.66
   0  -5  -8    9.76    1.39
   0   5   8    7.89    1.47
   0   5   8   10.53    1.44
   0   5   8    8.78    1.58
   0   5   8   10.00    1.51
  -1  -5  -8    0.54    0.70
  -1  -5  -8    1.12    0.76
  -1  -5  -8    0.80    0.60
   1   5   8    0.69    0.76
   1   5   8    0.84    0.57
   1   5   8    1.73    0.82
   1   5   8    0.22    0.55
   1   5   8    0.90    0.80
  -2  -5  -8   33.01    2.44
  -2  -5  -8   31.40    2.47
  -2  -5  -8   29.20    2.45
   2   5   8   34.98    2.22
   2   5   8   33.82    2.53
   2   5   8   29.70    2.31
   2   5   8   30.47    2.52
   2   5   8   34.09    2.48
  -3  -5  -8   25.92    2.08
  -3  -5  -8   26.87    2.15
   3   5   8   28.13    1.96
   3   5   8   30.24    2.23
   3   5   8   22.30    1.96
   3   5   8   25.01    2.06
  -4  -5  -8    1.55    0.73
  -4  -5  -8    1.69    0.69
  -4  -5  -8    2.25    0.69
   4   5   8    0.70    0.58
   4   5   8    2.64    0.74
   4   5   8    0.94    0.64
   4   5   8    0.88    0.57
  -5  -5  -8    2.20    0.74
  -5  -5  -8    0.63    0.52
  -5  -5  -8    1.66    0.72
   5   5   8    0.97    0.58
   5   5   8    0.45    0.37
   5   5   8    1.22    0.61
   5   5   8    1.58    0.72
   5   5   8    0.70    0.60
  -6  -5  -8    0.02    0.48
  -6  -5  -8    0.65    0.65
  -6  -5  -8    0.13    0.58
   6   5   8    0.15    0.56
   6   5   8    0.47    0.57
   6   5   8    0.68    0.61
   6   5   8    0.52    0.58
  -7  -5  -8   12.36    1.69
  -7  -5  -8   16.02    1.74
   7   5   8   13.49    1.60
   7   5   8   12.54    1.57
   7   5   8   14.82    1.72
  -8  -5  -8    1.41    0.77
  -8  -5  -8   -0.11    0.64
   8   5   8    1.24    0.81
   8   5   8    1.46    0.90
   8   5   8    1.19    0.82
  -9  -5  -8    5.98    1.30
  -9  -5  -8    6.41    1.27
   9   5   8    7.88    1.43
   9   5   8    8.34    1.41
 -10  -5  -8   -0.04    0.83
 -10  -5  -8    0.45    1.02
  10   5   8   -0.52    1.08
   3  -6  -8    0.76    0.76
   3  -6  -8    2.05    1.24
  -3   6   8    0.79    1.36
  -3   6   8    0.62    1.01
   2  -6  -8    0.86    0.66
   2  -6  -8    0.84    0.93
  -2   6   8   -0.19    0.87
  -2   6   8    0.60    1.00
   1  -6  -8    3.96    0.95
   1  -6  -8   14.67    1.87
   1  -6  -8    7.35    1.39
  -1   6   8    5.72    1.45
  -1   6   8   11.84    1.67
  -1   6   8    5.78    1.22
  -1   6   8   12.68    2.00
   0  -6  -8   23.92    2.12
   0  -6  -8   23.66    2.32
   0   6   8   26.36    2.34
   0   6   8   25.45    2.17
   0   6   8   24.44    2.40
  -1  -6  -8    0.94    0.69
  -1  -6  -8    0.99    0.92
  -1  -6  -8    0.87    0.75
   1   6   8    0.44    0.72
   1   6   8   -0.39    0.67
   1   6   8    0.98    0.80
   1   6   8   -0.03    0.67
  -2  -6  -8   -0.37    0.52
  -2  -6  -8    0.77    0.66
  -2  -6  -8    0.98    0.73
   2   6   8   -0.32    0.57
   2   6   8    0.02    0.59
   2   6   8   -0.27    0.60
   2   6   8    0.15    0.63
   2   6   8    0.61    0.71
  -3  -6  -8   27.60    2.30
  -3  -6  -8   29.51    2.43
   3   6   8   28.21    2.22
   3   6   8   26.86    2.11
   3   6   8   30.52    2.33
   3   6   8   29.61    2.36
  -4  -6  -8   23.23    1.96
  -4  -6  -8   24.01    2.02
   4   6   8   22.05    1.88
   4   6   8   18.77    1.94
   4   6   8   21.91    1.83
   4   6   8   22.32    1.88
  -5  -6  -8    3.19    0.91
  -5  -6  -8    2.62    0.82
  -5  -6  -8    4.56    0.97
   5   6   8    2.71    0.85
   5   6   8    3.29    0.96
   5   6   8    2.20    0.80
   5   6   8    2.33    0.77
  -6  -6  -8   23.07    1.92
  -6  -6  -8   19.00    1.84
  -6  -6  -8   23.44    2.07
   6   6   8   22.73    1.88
   6   6   8   22.30    1.93
   6   6   8   24.89    2.09
   6   6   8   22.32    1.94
  -7  -6  -8    3.22    0.90
  -7  -6  -8    3.42    1.13
   7   6   8    4.58    1.11
   7   6   8    4.62    1.04
   7   6   8    4.97    1.11
  -8  -6  -8    0.06    0.65
  -8  -6  -8   -0.47    0.76
   8   6   8   -0.62    0.77
   8   6   8   -0.15    0.78
  -9  -6  -8    2.42    1.11
  -9  -6  -8   -0.21    0.73
   9   6   8    1.01    0.97
   9   6   8    0.17    0.95
 -10  -6  -8    1.41    1.06
 -10  -6  -8   -0.36    1.01
  10   6   8    1.24    1.20
  10   6   8    0.17    1.10
   2  -7  -8    2.75    0.93
   2  -7  -8    5.72    1.49
  -2   7   8    1.03    0.93
  -2   7   8    2.72    1.29
   1  -7  -8    0.79    1.03
   1  -7  -8    0.89    1.04
   1  -7  -8   -0.22    0.49
  -1   7   8   -0.68    0.94
  -1   7   8    1.41    1.15
  -1   7   8    0.32    0.84
   0  -7  -8   17.02    2.23
   0  -7  -8   15.14    1.93
   0  -7  -8    8.94    1.46
   0   7   8   17.38    2.30
   0   7   8   16.82    2.05
   0   7   8   13.35    2.07
  -1  -7  -8    6.13    1.22
  -1  -7  -8    5.44    1.09
  -1  -7  -8    4.73    1.48
   1   7   8    6.73    1.35
   1   7   8    5.67    1.43
   1   7   8    7.52    1.42
   1   7   8    9.19    1.61
  -2  -7  -8   12.86    1.63
  -2  -7  -8   15.47    2.07
  -2  -7  -8   12.70    1.62
   2   7   8   12.56    1.96
   2   7   8   12.68    1.81
   2   7   8   12.96    1.72
   2   7   8   10.56    1.73
  -3  -7  -8   16.79    2.14
  -3  -7  -8   13.22    1.85
   3   7   8   16.85    2.00
   3   7   8   14.50    1.75
   3   7   8    8.70    1.50
   3   7   8   13.68    1.62
  -4  -7  -8   20.28    1.96
  -4  -7  -8   15.97    2.00
   4   7   8   22.77    1.97
   4   7   8   22.75    1.87
   4   7   8   18.39    1.82
   4   7   8   19.01    2.07
  -5  -7  -8    2.26    0.92
  -5  -7  -8    3.40    1.08
  -5  -7  -8    3.10    0.92
   5   7   8    3.40    1.40
   5   7   8    3.84    1.03
   5   7   8    3.01    0.99
   5   7   8    2.98    0.91
  -6  -7  -8    1.48    0.79
  -6  -7  -8    1.86    0.90
   6   7   8    0.70    0.73
   6   7   8    0.90    0.69
   6   7   8    1.90    0.84
  -7  -7  -8    3.59    1.02
  -7  -7  -8    4.81    1.21
   7   7   8    4.25    1.00
   7   7   8    4.83    1.15
   7   7   8    2.81    0.99
  -8  -7  -8   13.40    1.78
  -8  -7  -8   12.19    1.92
   8   7   8   12.35    1.74
   8   7   8    8.28    2.11
  -9  -7  -8   -0.76    1.02
  -9  -7  -8   -0.04    0.90
   9   7   8    0.13    1.00
   9   7   8    0.11    2.17
 -10  -7  -8   -1.46    1.33
 -10  -7  -8    0.56    1.06
  10   7   8    1.92    1.34
  10   7   8   -0.27    0.98
   1  -8  -8    0.78    0.89
   1  -8  -8    0.66    1.08
   1  -8  -8    1.29    1.17
  -1   8   8    0.69    1.34
  -1   8   8    0.42    1.23
  -1   8   8    1.16    1.56
   0  -8  -8    0.37    0.63
   0  -8  -8    0.18    0.97
   0  -8  -8    0.58    1.05
   0   8   8    1.52    1.17
   0   8   8    0.79    1.13
   0   8   8   -0.02    0.82
  -1  -8  -8    9.35    1.82
  -1  -8  -8    5.05    1.08
  -1  -8  -8    5.97    1.30
   1   8   8    5.19    1.34
   1   8   8    6.86    1.65
   1   8   8    9.54    1.71
  -2  -8  -8   37.42    2.96
   2   8   8   29.49    2.68
   2   8   8   30.24    2.72
   2   8   8   28.90    2.80
   2   8   8   31.38    2.85
  -3  -8  -8    0.72    0.83
  -3  -8  -8    0.32    0.80
  -3  -8  -8    0.12    0.76
   3   8   8    1.01    0.86
   3   8   8    0.28    0.86
   3   8   8   -0.99    0.63
   3   8   8   -0.62    0.67
  -4  -8  -8    7.24    1.47
  -4  -8  -8    6.02    1.27
   4   8   8    7.22    1.42
   4   8   8    8.41    1.82
   4   8   8    7.25    1.36
   4   8   8    9.41    1.51
  -5  -8  -8   19.65    2.26
  -5  -8  -8   18.25    2.25
   5   8   8   19.86    1.94
   5   8   8   18.61    2.20
   5   8   8   20.85    2.20
   5   8   8   20.95    2.18
  -6  -8  -8   11.47    1.74
  -6  -8  -8    9.66    1.61
   6   8   8   10.02    1.54
   6   8   8    9.58    1.54
   6   8   8    9.82    1.54
  -7  -8  -8    4.28    1.12
  -7  -8  -8    2.87    1.10
   7   8   8    3.66    1.03
   7   8   8    3.30    1.06
  -8  -8  -8    4.41    1.25
  -8  -8  -8    3.98    1.40
   8   8   8    4.91    1.32
  -9  -8  -8    2.64    1.46
  -9  -8  -8    0.99    1.07
   9   8   8    2.74    1.24
   0  -9  -8    0.84    1.39
   0  -9  -8    0.68    0.80
   0  -9  -8   -0.55    1.10
   0   9   8    1.26    1.58
   0   9   8   -0.32    0.89
   0   9   8    0.82    1.49
  -1  -9  -8    0.57    1.05
  -1  -9  -8    0.67    1.28
  -1  -9  -8   -0.39    0.70
   1   9   8   -0.82    1.05
   1   9   8   -0.30    1.22
   1   9   8    0.20    1.12
  -2  -9  -8   19.54    2.32
  -2  -9  -8   18.88    2.23
  -2  -9  -8   27.56    2.53
   2   9   8   23.04    2.83
   2   9   8   25.98    2.73
   2   9   8   20.40    2.64
  -3  -9  -8    7.37    1.60
  -3  -9  -8    5.31    1.20
  -3  -9  -8    6.22    1.48
   3   9   8    3.19    1.16
   3   9   8    6.39    1.53
  -4  -9  -8    0.41    0.77
  -4  -9  -8    0.97    1.10
   4   9   8   -1.10    0.78
   4   9   8    1.53    1.03
   4   9   8    0.96    1.01
   4   9   8    0.96    1.00
  -5  -9  -8    0.55    0.93
  -5  -9  -8    1.30    0.98
   5   9   8    0.01    0.88
   5   9   8    1.41    1.12
  -6  -9  -8   33.59    2.84
  -6  -9  -8   35.54    2.95
   6   9   8   31.25    2.81
   6   9   8   33.35    2.76
  -7  -9  -8    0.18    0.79
  -7  -9  -8    0.76    1.14
   7   9   8    0.79    0.89
   7   9   8   -0.19    0.95
  -8  -9  -8    0.24    0.96
  -8  -9  -8   -0.15    1.19
   8   9   8   -0.18    1.13
  -9  -9  -8    2.18    1.15
  -2 -10  -8   13.81    2.36
  -2 -10  -8    6.66    1.53
  -2 -10  -8    5.95    1.61
   2  10   8    8.35    1.97
   2  10   8   11.53    2.36
   2  10   8    5.75    1.71
  -3 -10  -8    4.33    1.23
  -3 -10  -8    4.31    1.57
  -3 -10  -8    6.22    1.76
   3  10   8    3.43    1.31
   3  10   8    4.22    1.71
  -4 -10  -8    6.38    1.45
   4  10   8    5.80    1.45
  -5 -10  -8   -0.31    0.77
   5  10   8    0.40    1.13
   5  10   8    1.00    1.16
  -6 -10  -8   12.25    1.98
   6  10   8   11.69    2.10
   6  10   8   12.76    1.99
  -7 -10  -8    0.06    1.02
   7  10   8    0.63    1.11
   7  10   8    1.58    1.31
  -8 -10  -8    0.61    1.05
  -5 -11  -8   10.09    1.94
   5  11   8    8.08    1.90
   6  11   8    1.74    1.52
   6  11   8    3.90    1.57
   3   8  -9    7.04    1.70
   2   8  -9    0.82    1.12
   2   8  -9    0.50    1.07
  -2  -8   9   -0.53    0.99
  -2  -8   9    0.16    1.09
   1   8  -9    0.11    0.78
   1   8  -9    2.51    1.30
  -1  -8   9    1.28    1.06
  -1  -8   9    0.25    1.09
   0   8  -9    0.94    1.20
   0   8  -9    3.75    1.50
   0  -8   9    1.05    1.06
   0  -8   9    1.66    1.24
  -1   8  -9    3.27    1.51
   1  -8   9    1.72    1.09
   4   7  -9   -1.58    0.68
   4   7  -9   -0.03    1.00
  -4  -7   9   -0.36    0.95
  -4  -7   9   -1.37    1.17
   3   7  -9    1.63    1.02
   3   7  -9    0.64    0.99
   3   7  -9    0.27    0.96
  -3  -7   9   -0.20    0.85
  -3  -7   9    0.13    1.03
   2   7  -9    0.39    0.96
   2   7  -9   -0.43    0.84
  -2  -7   9    1.24    0.84
  -2  -7   9    0.10    0.88
   1   7  -9    0.45    0.84
   1   7  -9    0.79    0.92
  -1  -7   9    0.16    0.89
  -1  -7   9    1.35    1.05
   0   7  -9    1.67    1.02
   0   7  -9    0.72    1.03
   0  -7   9    1.69    1.01
   0  -7   9   -0.23    0.94
   0  -7   9    1.17    1.18
  -1   7  -9    8.17    1.63
  -1   7  -9    9.88    1.70
   1  -7   9    7.83    1.79
   1  -7   9    7.55    1.62
   1  -7   9    4.91    1.36
  -2   7  -9   -0.03    0.68
  -2   7  -9   -0.56    1.03
  -2   7  -9   -1.10    1.03
   2  -7   9    0.83    1.11
   2  -7   9    0.01    1.20
   2  -7   9    0.75    0.97
  -3   7  -9   -0.30    1.09
  -3   7  -9   -0.23    1.20
   3  -7   9    0.23    1.13
   3  -7   9    0.13    0.99
   5   6  -9    0.70    1.24
   5   6  -9    1.02    1.01
  -5  -6   9    1.47    1.17
  -5  -6   9    1.21    1.44
  -5  -6   9    0.69    1.30
   4   6  -9   11.50    1.74
   4   6  -9   10.76    1.87
  -4  -6   9    9.27    1.70
  -4  -6   9   11.48    1.77
  -4  -6   9    9.89    1.89
   3   6  -9    0.86    0.98
   3   6  -9    0.61    0.86
   3   6  -9    0.17    0.80
  -3  -6   9    1.06    0.91
  -3  -6   9   -0.59    0.96
   2   6  -9    0.76    0.83
   2   6  -9    1.62    0.93
  -2  -6   9    1.86    1.01
  -2  -6   9    0.74    0.82
   1   6  -9    4.03    1.15
   1   6  -9    3.16    1.08
  -1  -6   9    4.89    1.31
  -1  -6   9    3.20    1.13
  -1  -6   9    4.67    1.25
   0   6  -9    2.26    1.11
   0   6  -9    2.97    0.85
   0  -6   9    3.51    1.23
   0  -6   9    2.80    1.09
  -1   6  -9    3.88    1.14
  -1   6  -9    6.69    1.37
  -1   6  -9    2.65    1.02
   1  -6   9    2.31    1.02
   1  -6   9    2.87    1.12
   1  -6   9    3.02    1.25
  -2   6  -9   -0.32    0.97
  -2   6  -9   -0.45    0.81
  -2   6  -9    0.02    0.60
   2  -6   9    1.05    0.82
   2  -6   9   -0.41    0.81
   2  -6   9    0.20    0.94
  -3   6  -9    8.41    1.73
  -3   6  -9    5.34    1.43
   3  -6   9    5.67    1.46
   3  -6   9    5.65    1.36
   3  -6   9    7.13    1.60
  -4   6  -9    0.23    1.16
  -4   6  -9   -0.29    0.86
   4  -6   9   -0.90    0.83
   4  -6   9   -0.51    1.07
   5   5  -9    1.06    0.92
   5   5  -9    1.16    1.08
  -5  -5   9    0.18    1.13
  -5  -5   9   -0.06    0.88
  -5  -5   9    0.41    1.07
   4   5  -9   -0.04    0.81
   4   5  -9    0.43    0.89
  -4  -5   9   -0.19    0.90
  -4  -5   9    1.21    0.93
  -4  -5   9    0.83    1.07
   3   5  -9    0.51    0.85
   3   5  -9    0.33    0.76
   3   5  -9   -0.19    0.67
  -3  -5   9    0.43    0.72
  -3  -5   9   -0.50    0.85
   2   5  -9    9.82    1.53
   2   5  -9   14.38    1.77
  -2  -5   9   10.39    1.75
  -2  -5   9   11.23    1.51
  -2  -5   9   10.08    1.64
   1   5  -9    3.06    1.01
   1   5  -9    3.31    0.99
  -1  -5   9    3.44    1.11
  -1  -5   9    2.06    0.95
  -1  -5   9    2.94    0.91
   0   5  -9   21.78    1.99
   0   5  -9   23.68    2.13
   0   5  -9   23.09    2.08
   0  -5   9   21.21    2.25
   0  -5   9   22.76    2.02
   0  -5   9   19.54    2.29
  -1   5  -9    0.68    0.80
  -1   5  -9    0.53    0.69
  -1   5  -9    0.75    0.65
   1  -5   9    0.27    0.70
   1  -5   9    0.37    0.85
   1  -5   9    0.78    0.80
  -2   5  -9   -0.16    0.78
  -2   5  -9    0.69    0.71
  -2   5  -9    1.49    0.84
   2  -5   9    0.50    0.82
   2  -5   9    1.06    0.82
   2  -5   9    0.48    0.80
  -3   5  -9    1.26    0.94
  -3   5  -9    0.70    0.87
  -3   5  -9    0.60    0.98
   3  -5   9    0.22    0.96
   3  -5   9    2.08    0.93
   3  -5   9    0.53    0.90
  -4   5  -9    7.72    1.51
  -4   5  -9    2.85    1.01
   4  -5   9    8.04    1.49
   4  -5   9    7.41    1.56
  -5   5  -9    0.15    1.09
  -5   5  -9   -1.36    0.83
   5  -5   9    0.07    1.08
   5  -5   9   -0.46    0.85
   5   4  -9    0.46    0.87
   5   4  -9    0.29    0.70
  -5  -4   9    0.04    0.84
  -5  -4   9    0.15    1.00
   4   4  -9    1.40    0.82
   4   4  -9    1.56    0.97
  -4  -4   9    1.80    0.85
  -4  -4   9    1.80    1.15
  -4  -4   9    1.11    0.98
   3   4  -9    0.19    0.66
   3   4  -9   -0.75    0.63
  -3  -4   9    0.85    0.71
  -3  -4   9   -0.15    0.84
  -3  -4   9   -0.09    0.84
  -3  -4   9    1.09    1.13
   2   4  -9   10.76    1.52
   2   4  -9    9.26    1.37
  -2  -4   9    8.33    1.55
  -2  -4   9    9.94    1.55
  -2  -4   9    8.69    1.28
   1   4  -9    1.71    0.76
   1   4  -9    1.59    0.82
  -1  -4   9    2.49    0.84
  -1  -4   9    3.09    0.99
  -1  -4   9    2.32    0.97
   0   4  -9    0.41    0.59
   0   4  -9    0.53    0.67
   0   4  -9   -0.20    0.58
   0  -4   9   -0.78    0.57
   0  -4   9   -0.25    0.58
   0  -4   9   -0.63    0.59
  -1   4  -9    1.57    0.80
  -1   4  -9    2.63    0.96
  -1   4  -9    1.39    0.74
   1  -4   9    2.79    0.93
   1  -4   9    0.42    0.64
   1  -4   9    1.39    0.80
  -2   4  -9   20.79    1.97
  -2   4  -9   24.50    2.15
  -2   4  -9   22.63    2.03
   2  -4   9   24.08    2.11
   2  -4   9   23.52    2.35
   2  -4   9   21.61    1.97
  -3   4  -9    6.38    1.24
  -3   4  -9    4.66    1.17
   3  -4   9    6.59    1.32
   3  -4   9    4.89    1.15
   3  -4   9    4.96    1.20
  -4   4  -9    5.67    1.35
  -4   4  -9    1.54    0.83
   4  -4   9    3.10    0.93
   4  -4   9    1.91    1.10
   4  -4   9    6.09    1.40
  -5   4  -9    0.24    0.91
  -5   4  -9    0.49    0.96
   5  -4   9   -1.15    0.83
   5  -4   9   -0.40    0.72
  -6   4  -9    6.20    1.58
   6  -4   9    1.91    1.20
   6  -4   9    7.10    1.52
   6   3  -9   -0.52    0.78
   6   3  -9   -0.46    0.97
   6   3  -9   -0.11    0.93
  -6  -3   9   -0.51    1.16
  -6  -3   9   -0.59    1.27
   5   3  -9    3.02    0.95
   5   3  -9    2.02    0.87
  -5  -3   9    1.12    0.92
  -5  -3   9   -0.04    1.10
   4   3  -9    0.83    0.71
   4   3  -9    0.62    0.62
   4   3  -9    0.47    0.91
  -4  -3   9   -0.37    0.79
  -4  -3   9    1.22    0.99
  -4  -3   9    0.95    1.03
   3   3  -9   -0.53    0.51
   3   3  -9    0.10    0.72
  -3  -3   9    1.35    1.02
  -3  -3   9    0.93    0.89
  -3  -3   9   -0.44    0.67
  -3  -3   9    0.56    0.78
   2   3  -9    7.55    1.18
   2   3  -9    7.21    1.24
  -2  -3   9    5.68    1.26
  -2  -3   9    6.17    1.07
  -2  -3   9    8.23    1.33
   1   3  -9    4.16    0.90
   1   3  -9    3.88    0.91
   1   3  -9    4.19    0.95
  -1  -3   9    4.19    1.09
  -1  -3   9    4.93    0.91
  -1  -3   9    3.52    0.98
   0   3  -9    0.78    0.61
   0   3  -9    0.68    0.60
   0   3  -9    1.52    0.68
   0  -3   9    0.30    0.54
   0  -3   9    0.91    0.61
   0  -3   9   -0.13    0.58
  -1   3  -9    1.05    0.66
  -1   3  -9    1.24    0.67
   1  -3   9    1.36    0.75
   1  -3   9    1.57    0.74
   1  -3   9    0.78    0.64
  -2   3  -9    9.60    1.41
  -2   3  -9    9.34    1.34
   2  -3   9    9.94    1.34
   2  -3   9   10.25    1.47
   2  -3   9   10.30    1.48
  -3   3  -9   -0.38    0.67
  -3   3  -9   -0.31    0.62
   3  -3   9   -0.99    0.53
   3  -3   9   -0.20    0.61
   3  -3   9   -0.28    0.81
  -4   3  -9    0.44    0.65
  -4   3  -9    0.99    0.76
   4  -3   9    0.75    0.72
   4  -3   9    1.23    0.91
   4  -3   9    1.06    0.84
  -5   3  -9    1.29    0.94
  -5   3  -9    0.58    0.65
   5  -3   9    0.59    0.79
   5  -3   9    0.65    0.87
   5  -3   9    1.88    1.01
  -6   3  -9    5.23    1.40
   6  -3   9    7.01    1.48
   6  -3   9    3.77    1.31
  -7   3  -9    1.28    1.20
   7  -3   9    0.26    1.25
   7  -3   9    2.25    1.21
   6   2  -9   -0.56    0.87
   6   2  -9   -0.47    1.03
  -6  -2   9    0.81    1.27
  -6  -2   9   -0.90    1.10
   5   2  -9    1.48    0.83
   5   2  -9    3.35    1.19
  -5  -2   9    4.15    1.24
  -5  -2   9    2.29    1.26
  -5  -2   9    0.53    2.60
   4   2  -9    0.81    0.66
   4   2  -9    0.68    0.67
  -4  -2   9    2.61    1.10
  -4  -2   9    1.77    0.96
  -4  -2   9    1.32    0.92
   3   2  -9    1.61    0.80
   3   2  -9    1.67    0.69
  -3  -2   9    2.34    0.94
  -3  -2   9    1.60    0.76
  -3  -2   9    1.89    0.88
  -3  -2   9    0.61    1.08
   2   2  -9    4.70    1.03
   2   2  -9    5.04    1.02
  -2  -2   9    3.31    0.92
  -2  -2   9    4.46    1.13
  -2  -2   9    3.09    0.80
  -2  -2   9    5.17    1.03
   1   2  -9    6.68    1.13
   1   2  -9    7.48    1.13
   1   2  -9    7.14    1.12
  -1  -2   9    4.69    1.00
  -1  -2   9    7.27    1.21
  -1  -2   9    6.08    0.95
  -1  -2   9    6.76    1.19
   0   2  -9    1.48    0.70
   0   2  -9    0.28    0.50
   0  -2   9    0.61    0.58
   0  -2   9   -0.21    0.53
   0  -2   9    0.91    0.68
   0  -2   9    0.59    0.49
  -1   2  -9   -0.03    0.51
  -1   2  -9   -0.33    0.46
   1  -2   9   -0.79    0.51
   1  -2   9    0.18    0.58
   1  -2   9    0.03    0.49
   1  -2   9    0.50    0.62
  -2   2  -9   14.49    1.58
  -2   2  -9   16.56    1.79
   2  -2   9   10.07    1.49
   2  -2   9   12.08    1.33
   2  -2   9   11.99    1.54
   2  -2   9   14.70    1.69
  -3   2  -9   -0.06    0.54
  -3   2  -9    0.24    0.61
  -3   2  -9   -0.25    0.60
   3  -2   9   -0.28    0.56
   3  -2   9    0.34    0.66
   3  -2   9   -0.17    0.60
   3  -2   9    0.46    0.65
  -4   2  -9    3.63    0.85
  -4   2  -9    1.76    0.82
  -4   2  -9    4.06    0.93
   4  -2   9    3.70    0.96
   4  -2   9    4.39    1.01
   4  -2   9    1.84    0.82
  -5   2  -9    1.23    0.70
  -5   2  -9    1.60    0.83
  -5   2  -9    1.86    0.82
   5  -2   9    0.65    0.77
   5  -2   9    1.09    0.97
   5  -2   9    0.61    0.90
  -6   2  -9    8.24    1.41
   6  -2   9    8.79    1.54
   6  -2   9    7.66    1.45
  -7   2  -9    0.53    0.88
  -7   2  -9    2.63    1.18
   7  -2   9    0.86    1.26
   7  -2   9    0.96    0.98
   5   1  -9    0.21    0.90
   5   1  -9   -0.05    0.80
  -5  -1   9    0.44    0.95
  -5  -1   9    0.08    0.95
   4   1  -9    3.43    0.90
   4   1  -9    2.29    0.94
  -4  -1   9    3.48    1.21
  -4  -1   9    3.26    0.96
  -4  -1   9    1.65    0.96
   3   1  -9    9.46    1.18
   3   1  -9    8.33    1.16
   3   1  -9    6.30    1.20
  -3  -1   9    8.96    3.74
  -3  -1   9   10.21    1.53
  -3  -1   9    7.56    1.17
  -3  -1   9    6.68    1.09
   2   1  -9    4.12    0.92
   2   1  -9    2.70    0.82
   2   1  -9    3.66    0.78
   2   1  -9    4.29    0.93
  -2  -1   9    3.69    0.90
  -2  -1   9    3.36    0.83
  -2  -1   9    3.40    0.93
  -2  -1   9    3.59    0.91
  -2  -1   9    4.17    0.92
  -2  -1   9    2.45    0.93
   1   1  -9   18.48    1.60
   1   1  -9   19.84    1.68
   1   1  -9   19.80    1.60
  -1  -1   9   17.81    1.67
  -1  -1   9   19.02    1.57
  -1  -1   9   16.06    1.61
  -1  -1   9   16.57    1.42
  -1  -1   9   19.50    1.70
  -1  -1   9   16.57    1.68
   0   1  -9    1.25    0.57
   0   1  -9    0.56    0.58
   0   1  -9    0.45    0.54
   0  -1   9    1.23    0.70
   0  -1   9    1.35    0.46
   0  -1   9    0.12    0.53
   0  -1   9    0.56    0.59
  -1   1  -9   24.26    1.88
  -1   1  -9   24.31    1.95
  -1   1  -9   22.66    1.76
   1  -1   9   22.41    2.08
   1  -1   9   23.67    1.93
   1  -1   9   23.83    1.64
   1  -1   9   21.24    1.81
  -2   1  -9   29.38    2.22
  -2   1  -9   27.82    1.99
  -2   1  -9   28.86    2.08
   2  -1   9   22.42    2.04
   2  -1   9   27.47    1.84
   2  -1   9   24.77    2.01
   2  -1   9   28.87    2.06
  -3   1  -9   27.66    1.96
  -3   1  -9   26.00    2.15
  -3   1  -9   27.73    2.02
   3  -1   9   21.19    1.89
   3  -1   9   21.65    1.99
   3  -1   9   26.49    1.84
   3  -1   9   26.26    2.00
  -4   1  -9    6.49    1.07
  -4   1  -9    5.51    1.04
  -4   1  -9    4.60    1.02
   4  -1   9    2.95    0.86
   4  -1   9    3.29    0.98
   4  -1   9    3.17    0.90
  -5   1  -9    0.18    0.70
  -5   1  -9    0.01    0.59
  -5   1  -9   -0.24    0.55
   5  -1   9    3.89    1.01
   5  -1   9   -0.47    0.57
   5  -1   9    0.15    0.71
  -6   1  -9    4.38    1.07
  -6   1  -9    3.30    0.94
   6  -1   9    3.60    0.98
   6  -1   9    2.48    0.92
   6  -1   9    2.96    1.13
  -7   1  -9    3.62    1.17
  -7   1  -9    3.62    1.19
   7  -1   9    3.42    1.12
   7  -1   9    4.47    1.31
  -8   1  -9    2.22    1.30
  -8   1  -9    3.00    1.33
   8  -1   9    1.32    1.10
   5   0  -9    0.21    0.70
   5   0  -9   -0.60    0.88
   5   0  -9   -0.28    0.60
  -5   0   9    0.36    1.06
  -5   0   9    0.14    1.03
  -5   0   9    0.66    1.44
   4   0  -9    1.24    0.91
   4   0  -9    2.50    0.88
   4   0  -9    0.97    0.96
   4   0  -9    1.64    0.92
  -4   0   9    2.15    1.00
  -4   0   9    2.86    1.16
  -4   0   9    3.01    1.42
   3   0  -9    7.14    1.24
   3   0  -9    9.44    1.54
   3   0  -9    5.81    1.13
   3   0  -9    6.40    1.05
  -3   0   9    7.19    1.11
  -3   0   9   10.61    1.79
  -3   0   9    6.58    1.31
  -3   0   9    6.99    1.35
  -3   0   9    7.01    1.49
   2   0  -9    0.68    0.70
   2   0  -9    1.42    0.68
   2   0  -9    1.53    0.58
   2   0  -9    1.69    0.66
   2   0  -9    0.39    0.61
   2   0  -9   -0.01    0.55
   2   0  -9    0.48    0.68
   2   0  -9    1.33    0.75
   2   0  -9    1.36    0.52
  -2   0   9   -0.10    0.49
  -2   0   9    1.83    0.93
  -2   0   9   -0.04    0.41
  -2   0   9    0.09    0.32
  -2   0   9    1.35    0.73
  -2   0   9    1.45    0.85
  -2   0   9    0.94    0.82
  -2   0   9    0.16    0.67
  -2   0   9    1.29    0.69
   1   0  -9    0.76    0.58
   1   0  -9    1.10    0.61
   1   0  -9    0.86    0.59
   1   0  -9    1.47    0.68
  -1   0   9    0.49    0.45
  -1   0   9    1.02    0.65
  -1   0   9    1.37    0.71
  -1   0   9    0.88    0.67
  -1   0   9    0.86    0.61
  -1   0   9    0.04    0.59
  -1   0   9    0.61    0.61
  -1   0   9    0.66    0.70
   0   0  -9   13.15    1.29
   0   0  -9   12.44    1.51
   0   0   9   15.69    1.74
   0   0   9   10.94    1.51
   0   0   9   13.07    1.50
   0   0   9   12.46    1.44
   0   0   9   11.99    1.33
  -1   0  -9   50.15    3.46
  -1   0  -9   51.42    3.29
   1   0   9   50.30    3.55
   1   0   9   51.72    3.18
   1   0   9   53.50    3.35
   1   0   9   47.24    3.22
   1   0   9   55.13    3.08
  -2   0  -9    6.48    1.09
  -2   0  -9    6.46    1.07
  -2   0  -9    9.03    1.14
   2   0   9    8.04    1.09
   2   0   9    6.34    1.07
   2   0   9    7.06    1.10
   2   0   9    8.69    1.22
  -3   0  -9    4.45    0.87
  -3   0  -9    5.67    0.97
  -3   0  -9    5.90    1.06
   3   0   9    3.06    0.85
   3   0   9    2.39    0.73
   3   0   9    4.65    0.87
   3   0   9    5.03    1.00
  -4   0  -9   24.79    1.93
  -4   0  -9   24.51    2.11
  -4   0  -9   23.26    1.94
   4   0   9   27.95    2.01
   4   0   9   23.50    1.90
   4   0   9   24.41    1.88
   4   0   9   24.47    1.99
  -5   0  -9   15.89    1.93
  -5   0  -9   17.93    1.67
  -5   0  -9   18.14    1.71
   5   0   9   18.70    1.68
   5   0   9   17.88    1.85
   5   0   9   19.23    1.88
   5   0   9   17.65    1.92
  -6   0  -9    2.17    0.84
  -6   0  -9    2.35    0.94
  -6   0  -9    2.31    0.88
   6   0   9    0.86    0.76
   6   0   9    1.44    0.77
   6   0   9    2.47    0.92
  -7   0  -9    0.93    0.94
  -7   0  -9    0.03    0.74
   7   0   9    0.02    0.72
   7   0   9    1.05    0.90
  -8   0  -9    1.43    1.19
  -8   0  -9    2.38    1.10
   8   0   9    3.51    1.14
   5  -1  -9    8.05    1.73
   5  -1  -9    1.41    1.13
  -5   1   9    1.55    1.20
  -5   1   9    1.83    1.55
  -5   1   9    1.33    1.38
   4  -1  -9    0.42    0.71
   4  -1  -9   -0.24    0.82
  -4   1   9   -0.75    1.02
  -4   1   9    1.20    0.98
  -4   1   9   -0.16    0.96
   3  -1  -9    7.82    1.37
   3  -1  -9   11.65    1.59
   3  -1  -9    8.39    1.44
  -3   1   9    9.13    1.53
  -3   1   9    9.24    1.47
  -3   1   9   11.87    1.91
  -3   1   9    5.65    1.56
  -3   1   9    8.81    1.49
   2  -1  -9    9.40    1.43
   2  -1  -9   13.41    1.83
   2  -1  -9   14.74    1.63
   2  -1  -9    9.66    1.53
  -2   1   9   11.11    1.40
  -2   1   9    8.82    1.57
  -2   1   9   10.91    1.43
  -2   1   9    9.01    1.54
  -2   1   9   10.60    1.52
  -2   1   9   10.92    1.71
   1  -1  -9    1.30    0.73
   1  -1  -9    2.04    0.64
   1  -1  -9    0.96    0.67
   1  -1  -9    2.06    0.82
  -1   1   9    1.96    1.00
  -1   1   9    1.85    0.80
  -1   1   9    1.01    0.78
  -1   1   9    1.06    0.68
  -1   1   9    1.00    0.65
  -1   1   9    3.05    0.93
  -1   1   9    1.46    0.71
   0  -1  -9    4.93    0.99
   0  -1  -9    5.52    1.07
   0  -1  -9    5.62    1.07
   0   1   9    7.28    1.24
   0   1   9    5.38    0.84
   0   1   9    5.45    0.98
   0   1   9    5.76    0.93
   0   1   9    5.50    1.12
   0   1   9    3.34    0.92
  -1  -1  -9   38.48    2.67
  -1  -1  -9   42.81    2.93
  -1  -1  -9   42.65    2.82
   1   1   9   37.96    2.79
   1   1   9   42.58    2.78
   1   1   9   43.87    2.66
   1   1   9   40.68    2.98
   1   1   9   36.12    2.41
  -2  -1  -9    3.10    0.80
  -2  -1  -9    3.02    0.75
   2   1   9    3.19    0.80
   2   1   9    1.39    0.75
   2   1   9    1.91    0.70
   2   1   9    3.01    0.77
   2   1   9    1.96    0.65
  -3  -1  -9    9.19    1.21
  -3  -1  -9   10.97    1.39
   3   1   9    9.60    1.24
   3   1   9    9.26    1.26
   3   1   9    9.08    1.25
   3   1   9   13.28    1.38
  -4  -1  -9   18.59    1.67
  -4  -1  -9   20.17    1.74
   4   1   9   19.59    4.14
   4   1   9   19.58    1.68
   4   1   9   18.41    1.59
   4   1   9   19.04    1.63
  -5  -1  -9   14.79    1.71
  -5  -1  -9   17.33    1.56
  -5  -1  -9   15.64    1.82
   5   1   9   16.47    1.71
   5   1   9   13.18    1.56
   5   1   9   15.83    1.69
   5   1   9   12.40    1.45
  -6  -1  -9    1.43    0.82
  -6  -1  -9    3.27    0.96
  -6  -1  -9    2.26    0.84
   6   1   9    1.68    0.75
   6   1   9    2.38    0.78
   6   1   9    1.44    0.75
   6   1   9    2.44    0.82
  -7  -1  -9    0.07    0.74
  -7  -1  -9   -0.16    0.69
   7   1   9    2.50    0.90
   7   1   9    1.30    1.00
   7   1   9    0.36    0.76
  -8  -1  -9    6.54    1.47
  -8  -1  -9    3.24    0.96
   8   1   9    3.73    1.34
   8   1   9    3.93    1.17
  -9  -1  -9    0.02    1.33
  -9  -1  -9   -0.17    0.75
   9   1   9    0.61    1.05
   5  -2  -9    2.25    1.21
   5  -2  -9    5.01    1.54
  -5   2   9    3.20    1.81
  -5   2   9    1.98    1.34
   4  -2  -9    0.22    0.53
   4  -2  -9    0.83    0.89
  -4   2   9    0.48    1.04
  -4   2   9    0.48    1.34
   3  -2  -9   -0.73    0.58
   3  -2  -9    0.63    0.75
   3  -2  -9    0.52    0.91
  -3   2   9    0.17    1.08
  -3   2   9   -0.75    0.98
  -3   2   9    0.48    0.95
  -3   2   9    0.61    0.96
   2  -2  -9   -0.01    0.52
   2  -2  -9    0.69    0.79
   2  -2  -9   -0.35    0.64
  -2   2   9    0.74    0.91
  -2   2   9    0.99    0.99
  -2   2   9    0.55    0.71
  -2   2   9    0.17    0.60
  -2   2   9    0.13    0.77
   1  -2  -9   49.24    3.44
   1  -2  -9   56.18    3.62
   1  -2  -9   52.00    3.71
   1  -2  -9   55.80    3.38
  -1   2   9   52.62    3.77
  -1   2   9   57.64    3.71
  -1   2   9   49.97    3.41
  -1   2   9   53.45    3.75
  -1   2   9   56.45    3.78
   0  -2  -9    1.90    0.69
   0  -2  -9    3.23    0.99
   0   2   9    1.93    0.70
   0   2   9    2.67    0.97
   0   2   9    1.82    0.68
   0   2   9    2.49    0.74
   0   2   9    1.62    0.83
  -1  -2  -9    8.83    1.40
  -1  -2  -9   14.48    1.66
  -1  -2  -9   13.96    1.68
   1   2   9   10.97    1.28
   1   2   9   13.40    1.61
   1   2   9   12.93    1.65
   1   2   9   13.22    1.27
   1   2   9   13.59    1.51
  -2  -2  -9   27.28    2.02
  -2  -2  -9   26.30    1.87
  -2  -2  -9   21.74    1.97
   2   2   9   24.71    1.93
   2   2   9   27.23    2.06
   2   2   9   28.65    2.14
   2   2   9   25.21    1.84
   2   2   9   20.25    1.65
  -3  -2  -9   55.82    3.20
  -3  -2  -9   51.44    3.59
  -3  -2  -9   51.76    3.45
   3   2   9   56.66    3.75
   3   2   9   53.58    3.26
   3   2   9   53.56    3.32
   3   2   9   51.54    3.40
   3   2   9   52.16    3.11
  -4  -2  -9    5.64    1.06
  -4  -2  -9    3.44    0.89
   4   2   9    4.38    0.89
   4   2   9    4.71    0.93
   4   2   9    5.13    0.94
   4   2   9    4.82    0.90
  -5  -2  -9    7.97    1.24
  -5  -2  -9    8.08    1.30
   5   2   9    8.88    1.21
   5   2   9    7.86    1.21
   5   2   9    9.44    1.25
   5   2   9    6.62    1.08
  -6  -2  -9   15.36    1.86
  -6  -2  -9   15.55    1.53
  -6  -2  -9   15.03    1.79
   6   2   9   18.42    1.65
   6   2   9   14.64    1.71
   6   2   9   19.42    1.86
   6   2   9   15.88    1.72
  -7  -2  -9    9.89    1.54
  -7  -2  -9    7.91    1.32
   7   2   9   10.65    1.46
   7   2   9    7.38    1.31
   7   2   9   10.01    1.46
  -8  -2  -9   10.08    1.61
  -8  -2  -9    4.57    1.10
   8   2   9    6.59    1.39
   8   2   9    8.21    1.37
   8   2   9    7.91    1.41
  -9  -2  -9    0.29    0.58
   9   2   9    1.52    1.09
   4  -3  -9    2.93    1.31
   4  -3  -9    1.42    1.08
  -4   3   9    0.14    1.28
  -4   3   9    0.81    1.36
  -4   3   9    2.93    1.62
   3  -3  -9    0.16    0.50
   3  -3  -9    1.07    0.95
  -3   3   9    3.23    1.30
  -3   3   9    1.52    1.26
  -3   3   9    1.38    1.06
   2  -3  -9    0.21    0.61
   2  -3  -9   -0.07    0.78
   2  -3  -9   -0.79    0.54
  -2   3   9    1.02    1.11
  -2   3   9    0.91    0.88
  -2   3   9    0.27    0.78
  -2   3   9    0.62    1.01
   1  -3  -9   13.64    1.77
   1  -3  -9   15.28    1.90
   1  -3  -9   18.48    2.24
   1  -3  -9   15.20    1.66
  -1   3   9   14.91    1.93
  -1   3   9   12.74    1.95
  -1   3   9   13.87    1.86
  -1   3   9   18.41    2.28
  -1   3   9   15.18    1.69
   0  -3  -9    1.21    0.72
   0  -3  -9    0.22    0.56
   0  -3  -9    0.84    0.76
   0   3   9    1.04    0.82
   0   3   9    1.88    0.89
   0   3   9    1.44    0.77
   0   3   9    0.64    0.60
   0   3   9    0.62    0.55
  -1  -3  -9   25.16    1.95
  -1  -3  -9   22.51    1.89
   1   3   9   19.41    1.64
   1   3   9   19.64    1.71
   1   3   9   21.54    1.93
   1   3   9   14.84    1.96
   1   3   9   21.06    1.92
  -2  -3  -9    0.29    0.54
  -2  -3  -9    0.04    0.52
  -2  -3  -9    0.18    0.50
   2   3   9   -0.16    0.43
   2   3   9    0.58    0.52
   2   3   9    0.21    0.61
   2   3   9    0.23    0.51
  -3  -3  -9   62.85    3.83
  -3  -3  -9   67.29    4.20
  -3  -3  -9   65.05    4.10
   3   3   9   66.36    3.79
   3   3   9   57.75    3.46
   3   3   9   58.88    3.91
   3   3   9   64.49    3.90
   3   3   9   67.04    4.30
  -4  -3  -9    5.35    0.86
  -4  -3  -9    5.39    1.03
  -4  -3  -9    4.81    0.99
   4   3   9    6.27    1.15
   4   3   9    7.76    1.13
   4   3   9    7.13    1.05
   4   3   9    5.38    0.99
   4   3   9    6.60    0.99
  -5  -3  -9   -0.36    0.46
  -5  -3  -9   -0.28    0.47
  -5  -3  -9   -0.08    0.42
   5   3   9   -0.16    0.53
   5   3   9    0.08    0.54
   5   3   9    0.13    0.56
   5   3   9   -0.26    0.54
  -6  -3  -9    2.89    0.90
  -6  -3  -9    1.72    0.73
   6   3   9    3.25    0.91
   6   3   9    2.21    0.79
   6   3   9    2.67    0.82
   6   3   9    2.29    0.77
  -7  -3  -9   12.33    1.70
  -7  -3  -9    8.98    1.42
   7   3   9   15.93    1.78
   7   3   9   16.83    1.83
   7   3   9   16.90    1.83
  -8  -3  -9    0.10    0.52
  -8  -3  -9    1.41    0.94
   8   3   9    0.81    0.93
   8   3   9    0.44    0.85
   8   3   9    0.06    0.85
  -9  -3  -9    0.12    0.54
   9   3   9   -0.03    0.93
   4  -4  -9    0.61    1.02
   4  -4  -9    0.02    0.96
  -4   4   9    0.31    1.14
  -4   4   9    1.42    1.51
   3  -4  -9    1.99    1.07
   3  -4  -9    4.10    1.33
  -3   4   9    1.82    1.27
  -3   4   9    1.63    1.21
  -3   4   9    3.46    1.39
   2  -4  -9    1.10    0.67
   2  -4  -9    2.73    1.04
  -2   4   9    2.28    1.22
  -2   4   9    1.52    1.02
  -2   4   9    1.08    1.00
   1  -4  -9    5.34    1.14
   1  -4  -9    8.28    1.36
   1  -4  -9    7.76    1.48
   1  -4  -9    9.27    1.50
  -1   4   9    8.77    1.51
  -1   4   9    8.80    1.37
  -1   4   9    7.14    1.57
  -1   4   9    4.54    1.34
   0  -4  -9    6.34    1.08
   0  -4  -9    4.56    1.16
   0  -4  -9    5.62    1.31
   0   4   9    5.68    1.09
   0   4   9    3.63    1.23
   0   4   9    5.38    1.19
   0   4   9    5.54    1.28
  -1  -4  -9   33.34    2.63
  -1  -4  -9   34.28    2.55
   1   4   9   30.78    2.34
   1   4   9   36.38    2.68
   1   4   9   29.63    2.19
   1   4   9   28.97    2.45
   1   4   9   30.79    2.61
  -2  -4  -9    3.83    0.92
  -2  -4  -9    3.18    0.93
   2   4   9    4.45    0.86
   2   4   9    3.84    0.90
   2   4   9    5.45    1.06
   2   4   9    3.00    0.94
  -3  -4  -9   10.15    1.39
  -3  -4  -9    8.67    1.31
   3   4   9    7.23    1.08
   3   4   9    6.15    1.19
   3   4   9    6.18    1.15
   3   4   9    7.88    1.19
  -4  -4  -9    0.50    0.48
  -4  -4  -9    0.95    0.62
  -4  -4  -9    0.36    0.53
   4   4   9    0.18    0.59
   4   4   9    0.33    0.52
   4   4   9    0.73    0.63
   4   4   9    1.18    0.58
   4   4   9   -0.08    0.47
  -5  -4  -9   44.12    2.84
  -5  -4  -9   42.16    3.09
  -5  -4  -9   45.04    3.10
   5   4   9   41.79    2.65
   5   4   9   45.10    2.89
   5   4   9   39.00    2.83
   5   4   9   45.16    2.95
  -6  -4  -9    3.49    0.91
  -6  -4  -9    3.66    0.83
  -6  -4  -9    2.56    0.87
   6   4   9    5.19    1.07
   6   4   9    4.20    0.96
   6   4   9    5.35    1.04
   6   4   9    4.54    0.98
  -7  -4  -9    6.30    1.11
  -7  -4  -9   13.42    1.63
  -7  -4  -9    7.82    1.25
   7   4   9    9.20    1.41
   7   4   9    9.55    1.44
   7   4   9   11.63    1.53
  -8  -4  -9   -0.37    0.43
   8   4   9   -0.56    0.73
   8   4   9    1.00    0.85
  -9  -4  -9    0.54    0.67
   9   4   9    0.84    1.03
   9   4   9    2.23    1.02
   3  -5  -9    0.97    1.17
   3  -5  -9    1.16    1.10
  -3   5   9    0.26    0.99
  -3   5   9    0.22    1.27
   2  -5  -9    9.14    1.63
   2  -5  -9    1.93    0.78
  -2   5   9    4.20    1.30
  -2   5   9    4.14    1.32
   1  -5  -9    0.32    0.58
   1  -5  -9   -0.17    0.69
   1  -5  -9    0.41    0.71
   1  -5  -9    0.35    0.89
  -1   5   9    0.10    0.91
  -1   5   9   -0.01    0.75
  -1   5   9    0.38    0.81
  -1   5   9    0.25    1.00
   0  -5  -9    2.09    0.86
   0  -5  -9    0.15    0.68
   0  -5  -9    3.08    0.95
   0   5   9    3.43    1.12
   0   5   9    2.51    0.91
   0   5   9    1.37    0.83
   0   5   9    4.84    1.31
  -1  -5  -9   21.01    2.26
  -1  -5  -9   22.98    2.10
   1   5   9   20.17    2.01
   1   5   9   16.93    2.18
   1   5   9   21.60    2.34
   1   5   9   20.21    1.84
  -2  -5  -9    4.90    1.15
  -2  -5  -9    4.92    1.18
   2   5   9    4.42    1.02
   2   5   9    5.27    0.98
   2   5   9    4.95    1.06
   2   5   9    6.46    1.24
  -3  -5  -9    1.87    0.83
  -3  -5  -9    1.89    0.80
   3   5   9    3.59    0.95
   3   5   9    1.26    0.71
   3   5   9    2.11    0.72
   3   5   9    2.73    0.92
  -4  -5  -9    8.56    1.33
  -4  -5  -9   10.30    1.39
  -4  -5  -9    6.32    1.21
   4   5   9    7.24    1.21
   4   5   9    9.25    1.43
   4   5   9    6.41    1.15
   4   5   9    9.48    1.28
  -5  -5  -9   21.51    1.90
  -5  -5  -9   21.17    1.77
  -5  -5  -9   21.66    1.91
   5   5   9   21.81    1.83
   5   5   9   21.88    1.83
   5   5   9   18.53    1.98
   5   5   9   20.74    1.96
  -6  -5  -9    1.66    0.83
  -6  -5  -9    1.25    0.73
  -6  -5  -9    2.55    0.82
   6   5   9    0.00    0.67
   6   5   9    2.11    0.85
   6   5   9    0.99    0.67
   6   5   9    1.11    0.72
  -7  -5  -9    0.29    0.67
  -7  -5  -9    0.40    0.77
  -7  -5  -9   -0.35    0.60
   7   5   9    0.23    0.70
   7   5   9    0.78    0.77
   7   5   9    0.12    0.70
   7   5   9    0.52    0.74
  -8  -5  -9    1.05    0.72
  -8  -5  -9    2.44    0.95
   8   5   9    1.96    0.98
   8   5   9    3.31    1.11
  -9  -5  -9    1.36    0.78
  -9  -5  -9    4.49    1.17
   9   5   9   -0.18    0.92
   9   5   9    2.86    1.18
  10   5   9   -0.30    1.13
  10   5   9   -0.13    1.16
   2  -6  -9   10.48    1.74
   2  -6  -9    9.38    1.76
  -2   6   9    5.08    1.50
  -2   6   9    5.03    1.36
   1  -6  -9    0.22    0.50
   1  -6  -9    0.51    0.74
   1  -6  -9    0.56    0.94
  -1   6   9   -0.36    0.76
  -1   6   9    0.10    1.01
  -1   6   9    0.81    0.81
   0  -6  -9    1.30    0.75
   0  -6  -9    2.70    1.01
   0  -6  -9    1.80    0.94
   0   6   9    0.78    0.91
   0   6   9   -0.54    0.64
   0   6   9    3.72    1.26
   0   6   9    1.28    1.04
  -1  -6  -9   14.75    1.85
  -1  -6  -9   15.66    2.12
   1   6   9   21.51    2.41
   1   6   9   12.91    2.01
   1   6   9   22.94    2.29
  -2  -6  -9   23.87    2.21
  -2  -6  -9   24.73    2.22
   2   6   9   21.89    2.44
   2   6   9   27.92    2.17
   2   6   9   22.58    1.88
   2   6   9   21.16    2.52
   2   6   9   20.46    2.06
  -3  -6  -9    1.07    0.76
  -3  -6  -9    1.64    0.89
   3   6   9    2.35    0.91
   3   6   9    1.85    0.83
   3   6   9    1.82    0.75
   3   6   9    2.10    0.90
  -4  -6  -9    2.87    0.94
  -4  -6  -9    2.14    0.86
  -4  -6  -9    3.43    1.01
   4   6   9    2.02    0.86
   4   6   9    3.17    0.92
   4   6   9    3.93    1.01
   4   6   9    2.29    0.83
  -5  -6  -9   40.53    3.00
  -5  -6  -9   42.82    3.15
  -5  -6  -9   44.69    3.15
   5   6   9   39.04    3.15
   5   6   9   41.28    2.99
   5   6   9   49.71    3.05
   5   6   9   42.21    2.99
  -6  -6  -9    1.21    0.75
  -6  -6  -9    0.51    0.74
  -6  -6  -9    2.27    0.81
   6   6   9    0.62    0.69
   6   6   9    0.96    0.70
   6   6   9    1.39    0.86
   6   6   9    0.37    0.71
  -7  -6  -9    3.73    0.98
  -7  -6  -9    3.16    1.05
   7   6   9    3.45    1.02
   7   6   9    4.75    1.12
   7   6   9    2.66    0.92
   7   6   9    5.71    1.21
  -8  -6  -9    7.80    1.34
  -8  -6  -9    5.90    1.35
   8   6   9    6.62    1.35
   8   6   9    7.22    1.49
  -9  -6  -9    5.62    1.33
  -9  -6  -9    2.68    1.12
   9   6   9    3.09    1.17
   9   6   9    3.45    1.30
   1  -7  -9    7.65    1.67
   1  -7  -9    1.08    0.79
   1  -7  -9    2.56    1.06
  -1   7   9    7.50    1.78
  -1   7   9    3.47    1.34
  -1   7   9    5.45    1.79
   0  -7  -9   26.90    2.76
   0  -7  -9   17.64    2.28
   0   7   9   23.34    2.61
   0   7   9   16.60    2.42
  -1  -7  -9    1.08    0.61
  -1  -7  -9    1.99    1.07
  -1  -7  -9    3.10    1.09
   1   7   9    3.06    1.23
   1   7   9    2.00    0.92
   1   7   9    2.42    1.03
  -2  -7  -9   15.52    2.14
  -2  -7  -9    8.96    1.42
   2   7   9   20.56    2.47
   2   7   9   16.93    2.06
   2   7   9   15.57    1.95
   2   7   9   11.79    1.87
  -3  -7  -9   10.32    1.63
  -3  -7  -9   15.25    2.07
   3   7   9   12.49    1.60
   3   7   9   12.24    1.76
   3   7   9   16.23    2.04
   3   7   9   13.09    1.73
  -4  -7  -9   25.30    2.24
  -4  -7  -9   25.80    2.27
   4   7   9   21.00    2.18
   4   7   9   19.35    2.32
   4   7   9   23.61    2.09
   4   7   9   21.32    2.32
  -5  -7  -9    7.51    1.47
  -5  -7  -9    9.44    1.48
  -5  -7  -9    9.93    1.69
   5   7   9    9.67    1.48
   5   7   9    6.51    1.30
   5   7   9   10.93    1.53
   5   7   9    9.61    1.52
  -6  -7  -9   23.16    2.40
  -6  -7  -9   20.52    2.34
  -6  -7  -9   19.76    2.00
   6   7   9   18.51    2.12
   6   7   9   20.63    2.21
   6   7   9   19.43    1.88
  -7  -7  -9    9.56    1.64
  -7  -7  -9    8.88    1.45
   7   7   9    8.88    1.54
   7   7   9   12.21    1.61
  -8  -7  -9    1.07    0.91
  -8  -7  -9   -0.34    0.86
   8   7   9    1.35    1.05
  -9  -7  -9    3.29    1.15
  -9  -7  -9    0.67    1.07
   9   7   9    0.07    1.20
   9   7   9    0.56    1.15
   0  -8  -9   15.31    2.22
   0  -8  -9   11.00    1.82
   0   8   9    9.11    1.98
   0   8   9   11.85    2.15
   0   8   9   13.26    2.22
  -2  -8  -9    2.01    1.21
  -2  -8  -9    0.36    0.52
   2   8   9    0.53    1.03
   2   8   9    0.35    1.17
   2   8   9   -0.05    0.92
  -3  -8  -9   10.12    1.65
  -3  -8  -9   15.33    2.26
   3   8   9   15.36    2.10
   3   8   9   11.39    1.69
  -4  -8  -9   29.00    2.56
  -4  -8  -9   26.97    2.45
   4   8   9   25.89    2.49
   4   8   9   22.79    2.33
   4   8   9   32.67    2.47
   4   8   9   26.02    2.75
  -5  -8  -9    0.96    0.99
  -5  -8  -9    0.32    0.84
  -5  -8  -9    0.32    0.78
   5   8   9    1.70    1.00
   5   8   9    0.87    0.89
   5   8   9    0.71    0.91
   5   8   9    0.06    0.85
  -6  -8  -9   -0.16    0.73
  -6  -8  -9    0.03    0.88
   6   8   9    0.49    0.86
   6   8   9   -0.43    0.74
  -7  -8  -9    9.51    1.61
  -7  -8  -9   10.74    1.81
   7   8   9    7.64    2.28
   7   8   9    7.73    1.47
  -8  -8  -9    6.49    1.38
  -8  -8  -9    7.11    1.63
   8   8   9    6.89    1.53
  -9  -8  -9    0.44    1.12
  -9  -8  -9   -0.32    1.39
   9   8   9   -1.28    0.98
  -1  -9  -9    0.34    0.62
  -1  -9  -9    1.68    1.39
  -1  -9  -9    2.12    1.17
   1   9   9    4.02    1.69
   1   9   9    1.12    1.09
   1   9   9    1.06    1.33
  -2  -9  -9   12.13    2.10
  -2  -9  -9    3.70    1.09
   2   9   9    8.93    1.86
   2   9   9    6.42    1.59
   2   9   9    5.17    1.65
  -3  -9  -9    1.40    1.26
   3   9   9    1.14    1.01
   3   9   9    1.37    1.23
  -4  -9  -9   24.17    2.95
  -4  -9  -9   17.53    2.31
   4   9   9   23.32    2.76
   4   9   9   22.19    2.54
  -5  -9  -9    4.67    1.39
  -5  -9  -9    4.53    1.28
   5   9   9    5.89    1.47
   5   9   9    2.86    1.27
  -6  -9  -9    0.44    1.06
  -6  -9  -9    1.03    1.02
   6   9   9    1.94    1.06
   6   9   9    2.15    2.83
  -7  -9  -9    7.43    1.76
  -7  -9  -9    4.68    1.39
   7   9   9    4.64    2.42
   7   9   9    3.64    1.24
  -8  -9  -9   12.57    2.25
  -8  -9  -9    9.80    1.73
   8   9   9    6.82    2.65
  -2 -10  -9   27.50    3.52
  -3 -10  -9    1.42    1.39
  -3 -10  -9    1.86    1.01
   3  10   9    0.44    1.30
   3  10   9    1.25    1.16
  -4 -10  -9    0.42    0.89
  -4 -10  -9   -0.41    1.22
   4  10   9    1.11    1.34
   4  10   9    2.07    1.12
  -5 -10  -9    2.18    1.30
  -5 -10  -9    2.92    1.27
   5  10   9    2.72    1.42
   5  10   9    4.00    3.08
  -6 -10  -9    8.64    1.75
   6  10   9   10.76    2.56
   6  10   9   11.87    2.09
  -7 -10  -9   -0.94    0.78
   7  10   9    0.06    1.20
   7  10   9   -0.46    0.96
   3   7 -10    7.29    1.73
  -3  -7  10    3.46    1.48
   2   7 -10    1.28    1.19
   2   7 -10   -0.46    0.98
  -2  -7  10    0.83    1.22
  -2  -7  10    0.36    1.12
   1   7 -10    0.85    1.07
   1   7 -10    1.82    1.14
  -1  -7  10    1.76    1.21
  -1  -7  10    1.90    1.18
   0   7 -10    0.27    1.09
   0   7 -10   -0.29    0.98
   0  -7  10   -0.55    1.07
   0  -7  10   -0.71    0.89
   0  -7  10    0.71    1.11
  -1   7 -10    7.82    1.66
  -1   7 -10    9.38    1.85
   1  -7  10    8.78    1.68
   1  -7  10    7.80    1.80
   1  -7  10    7.50    1.79
  -2   7 -10   -0.18    1.40
   2  -7  10   -0.24    0.96
   2  -7  10   -0.93    1.21
   4   6 -10    5.27    1.49
   4   6 -10    5.28    1.54
  -4  -6  10    2.17    1.62
  -4  -6  10    3.33    1.24
   3   6 -10    0.25    1.13
   3   6 -10    1.16    1.00
  -3  -6  10    1.09    1.12
  -3  -6  10   -0.10    1.20
   2   6 -10    9.23    1.79
   2   6 -10    9.07    1.68
  -2  -6  10    8.18    1.66
  -2  -6  10   11.83    1.71
   1   6 -10    0.80    0.97
   1   6 -10    0.00    0.84
  -1  -6  10   -0.77    0.82
  -1  -6  10    2.50    0.94
  -1  -6  10    1.66    1.06
   0   6 -10    0.67    0.97
   0   6 -10    1.31    0.78
   0  -6  10    1.15    1.09
   0  -6  10    1.22    1.13
   0  -6  10    0.94    0.98
  -1   6 -10    3.58    1.26
  -1   6 -10    4.37    1.28
   1  -6  10    4.67    1.34
   1  -6  10    2.90    1.39
   1  -6  10    3.24    1.21
  -2   6 -10   -0.72    1.01
  -2   6 -10    0.49    0.98
  -2   6 -10    0.91    1.05
   2  -6  10    0.92    1.10
   2  -6  10    1.08    0.97
   2  -6  10   -0.22    1.20
  -3   6 -10    1.38    1.21
  -3   6 -10    1.52    1.25
  -3   6 -10   -0.40    0.92
   3  -6  10    0.61    0.98
   3  -6  10    0.73    1.15
   3  -6  10    0.91    1.17
   4   5 -10    2.41    1.09
   4   5 -10   -0.06    0.93
  -4  -5  10    2.37    1.43
  -4  -5  10    1.83    1.10
   3   5 -10    0.01    0.82
   3   5 -10    1.86    1.02
  -3  -5  10    1.21    0.89
  -3  -5  10    1.32    1.18
   2   5 -10   -0.52    0.76
   2   5 -10    0.82    0.85
  -2  -5  10    0.89    0.84
  -2  -5  10   -0.22    1.00
  -2  -5  10    0.16    0.95
   1   5 -10    0.87    0.84
   1   5 -10    0.12    0.75
  -1  -5  10   -0.65    0.82
  -1  -5  10   -0.15    0.92
  -1  -5  10   -0.30    0.76
   0   5 -10    7.50    1.27
   0   5 -10    9.80    1.57
   0  -5  10   10.12    1.66
   0  -5  10    7.34    1.36
   0  -5  10    8.25    1.50
  -1   5 -10   10.63    1.64
  -1   5 -10    7.50    1.50
   1  -5  10   10.37    1.60
   1  -5  10    8.54    1.60
   1  -5  10    9.39    1.67
  -2   5 -10    0.95    0.67
  -2   5 -10    0.80    0.95
  -2   5 -10    1.23    0.92
   2  -5  10    1.05    0.96
   2  -5  10    0.52    0.83
   2  -5  10    1.62    1.02
  -3   5 -10    0.17    0.83
  -3   5 -10    0.01    0.99
  -3   5 -10    0.18    0.94
   3  -5  10   -1.27    0.97
   3  -5  10   -0.56    0.83
   3  -5  10   -1.27    0.90
  -4   5 -10    0.36    0.96
  -4   5 -10    2.36    1.17
   4  -5  10    0.51    1.07
   4  -5  10    1.30    1.01
   5  -5  10    0.38    1.09
   5   4 -10    0.45    0.87
   5   4 -10   -0.20    0.77
  -5  -4  10    0.88    1.33
  -5  -4  10   -0.13    0.97
  -5  -4  10    1.02    1.45
   4   4 -10    1.13    1.02
   4   4 -10    1.57    0.89
  -4  -4  10    1.30    1.23
  -4  -4  10    1.22    0.96
   3   4 -10   -0.27    0.66
   3   4 -10    0.67    0.85
  -3  -4  10    0.38    0.75
  -3  -4  10    1.27    1.28
  -3  -4  10   -0.68    0.89
   2   4 -10   -0.42    0.69
   2   4 -10    0.47    0.77
  -2  -4  10   -0.53    0.88
  -2  -4  10    0.34    0.79
  -2  -4  10    1.01    1.05
   1   4 -10   -0.24    0.70
   1   4 -10   -0.10    0.62
  -1  -4  10   -0.12    0.69
  -1  -4  10   -0.70    0.79
  -1  -4  10   -0.03    0.75
   0   4 -10    5.85    1.19
   0   4 -10    6.11    1.22
   0   4 -10   10.50    1.47
   0  -4  10    8.08    1.45
   0  -4  10    7.50    1.31
   0  -4  10    6.91    1.38
  -1   4 -10    5.32    1.15
  -1   4 -10    4.21    1.09
  -1   4 -10    2.11    0.72
   1  -4  10    4.44    1.07
   1  -4  10    4.03    1.02
   1  -4  10    5.57    1.26
  -2   4 -10   -0.06    0.76
  -2   4 -10   -0.05    0.56
  -2   4 -10   -0.12    0.74
   2  -4  10    0.73    0.81
   2  -4  10   -0.21    0.75
   2  -4  10    0.45    0.81
  -3   4 -10    3.67    1.12
  -3   4 -10    2.63    0.94
   3  -4  10    0.17    1.03
   3  -4  10    2.57    1.08
   3  -4  10    2.53    1.03
  -4   4 -10    4.31    1.25
  -4   4 -10    1.52    0.78
   4  -4  10    4.42    1.31
   4  -4  10    1.50    1.02
   4  -4  10    2.29    1.10
  -5   4 -10    1.84    1.20
  -5   4 -10    4.00    1.36
   5  -4  10    4.79    1.35
   5  -4  10    4.18    1.47
   6  -4  10    1.24    1.16
   5   3 -10   -0.10    0.77
   5   3 -10    0.38    0.78
  -5  -3  10    1.53    1.38
  -5  -3  10    0.84    1.08
   4   3 -10    1.87    0.85
   4   3 -10    2.29    0.84
  -4  -3  10   -0.11    1.10
  -4  -3  10    0.32    0.84
   3   3 -10    0.30    0.85
   3   3 -10    1.20    0.76
  -3  -3  10   -0.08    0.78
  -3  -3  10    1.35    1.01
  -3  -3  10    0.43    1.14
   2   3 -10    0.74    0.68
   2   3 -10    0.10    0.73
  -2  -3  10    0.21    0.87
  -2  -3  10    0.44    0.68
  -2  -3  10    1.28    0.93
   1   3 -10    2.48    0.85
   1   3 -10    3.02    0.91
  -1  -3  10    2.41    0.98
  -1  -3  10    2.23    0.97
  -1  -3  10    3.02    0.90
   0   3 -10   11.64    1.51
   0   3 -10    9.75    1.44
   0   3 -10   11.99    1.58
   0  -3  10   10.54    1.35
   0  -3  10    9.20    1.49
   0  -3  10    8.49    1.47
  -1   3 -10    0.53    0.65
  -1   3 -10    0.10    0.59
   1  -3  10    0.69    0.84
   1  -3  10   -0.80    0.63
   1  -3  10    0.80    0.74
  -2   3 -10    0.69    0.75
  -2   3 -10    0.76    0.69
   2  -3  10    1.16    0.74
   2  -3  10    1.62    0.90
   2  -3  10   -0.39    0.85
  -3   3 -10    8.17    1.29
  -3   3 -10    7.85    1.38
   3  -3  10    7.77    1.43
   3  -3  10    7.23    1.42
   3  -3  10   10.15    1.57
  -4   3 -10    2.54    0.83
  -4   3 -10    3.89    1.13
   4  -3  10    4.18    1.17
   4  -3  10    3.15    1.09
   4  -3  10    2.48    1.03
  -5   3 -10    1.12    0.92
  -5   3 -10   -0.10    0.82
   5  -3  10    0.15    0.99
   5  -3  10    0.79    0.89
   5  -3  10    0.31    0.94
  -6   3 -10   -0.50    0.91
   6  -3  10   -0.49    0.99
   6  -3  10    1.25    1.20
   5   2 -10    1.51    1.03
   5   2 -10    2.66    1.29
  -5  -2  10    1.05    1.21
  -5  -2  10    1.52    1.21
   4   2 -10    0.89    0.71
   4   2 -10    0.18    0.67
   4   2 -10    0.52    0.94
  -4  -2  10    0.15    0.85
  -4  -2  10    0.44    2.38
   3   2 -10    2.86    1.08
   3   2 -10    2.30    0.78
   3   2 -10    4.39    0.95
  -3  -2  10    4.33    1.16
  -3  -2  10    3.08    1.28
  -3  -2  10    3.10    1.02
   2   2 -10    1.81    0.85
   2   2 -10    3.25    0.99
  -2  -2  10    1.26    0.75
  -2  -2  10    1.36    0.93
  -2  -2  10    0.94    0.89
  -2  -2  10    1.82    0.90
   1   2 -10    1.47    0.71
   1   2 -10    1.02    0.70
   1   2 -10    0.29    0.61
  -1  -2  10   -0.34    0.70
  -1  -2  10    0.16    0.76
  -1  -2  10    1.91    0.86
  -1  -2  10    0.23    0.60
   0   2 -10    4.55    1.02
   0   2 -10    5.99    1.13
   0  -2  10    6.54    1.00
   0  -2  10    5.08    1.21
   0  -2  10    5.90    1.19
   0  -2  10    7.16    1.26
  -1   2 -10    9.27    1.36
  -1   2 -10    7.50    1.28
   1  -2  10    8.21    1.41
   1  -2  10    8.71    1.38
   1  -2  10    6.89    1.29
   1  -2  10    8.45    1.17
  -2   2 -10   11.44    1.57
  -2   2 -10   11.25    1.50
   2  -2  10   11.76    1.59
   2  -2  10   10.79    1.59
   2  -2  10   10.75    1.57
  -3   2 -10   -0.01    0.60
  -3   2 -10   -0.21    0.66
   3  -2  10   -0.41    0.69
   3  -2  10    0.37    0.60
   3  -2  10   -0.21    0.60
   3  -2  10   -0.58    0.69
  -4   2 -10    5.50    1.10
  -4   2 -10    3.71    0.90
   4  -2  10    6.23    1.20
   4  -2  10    9.37    1.47
   4  -2  10    7.34    1.29
  -5   2 -10    1.07    0.67
  -5   2 -10    3.07    1.01
   5  -2  10    1.79    0.99
   5  -2  10    1.01    0.86
   5  -2  10    0.81    0.89
  -6   2 -10    5.84    1.40
   6  -2  10    8.62    1.51
   6  -2  10    5.38    1.29
  -7   2 -10    0.62    0.83
   7  -2  10    2.59    1.26
   5   1 -10   -0.72    0.87
   5   1 -10    0.14    1.12
  -5  -1  10    0.63    1.36
  -5  -1  10   -1.05    1.25
   4   1 -10    0.60    0.91
   4   1 -10    0.68    0.70
  -4  -1  10    0.35    1.07
   3   1 -10   -0.25    0.68
   3   1 -10    0.07    0.57
   2   1 -10    7.83    1.17
   2   1 -10    6.47    1.25
   2   1 -10    5.53    1.13
   2   1 -10    6.70    1.02
  -2  -1  10    5.78    1.27
  -2  -1  10    7.19    1.36
  -2  -1  10    7.39    1.29
   1   1 -10    6.82    1.22
   1   1 -10    5.36    1.05
  -1  -1  10    4.89    1.15
  -1  -1  10    7.19    1.25
  -1  -1  10    4.34    1.12
  -1  -1  10    5.79    1.12
   0   1 -10    0.47    0.70
   0   1 -10    0.94    0.63
   0  -1  10    1.07    0.72
   0  -1  10    2.81    0.90
   0  -1  10    1.01    0.71
  -1   1 -10    8.41    1.32
  -1   1 -10   10.96    1.34
  -1   1 -10    7.57    1.23
   1  -1  10    7.15    1.24
   1  -1  10    7.82    1.32
   1  -1  10    8.66    1.35
  -2   1 -10    0.88    0.68
  -2   1 -10    0.60    0.59
  -2   1 -10    0.04    0.53
   2  -1  10    0.55    0.69
   2  -1  10    0.56    0.71
   2  -1  10    0.04    0.60
  -3   1 -10    2.94    0.84
  -3   1 -10    3.22    0.87
  -3   1 -10    3.20    0.85
   3  -1  10    3.00    0.97
   3  -1  10    3.08    0.95
   3  -1  10    3.99    1.01
  -4   1 -10    1.07    0.71
  -4   1 -10    1.22    0.75
  -4   1 -10    2.31    0.93
   4  -1  10    0.33    0.75
   4  -1  10    0.72    0.78
   4  -1  10    0.71    0.74
  -5   1 -10    3.45    0.95
  -5   1 -10    1.62    0.71
  -5   1 -10    1.91    0.85
   5  -1  10    1.99    0.90
   5  -1  10    1.08    0.76
   5  -1  10    2.65    0.92
  -6   1 -10    2.36    1.07
  -6   1 -10    2.82    1.01
  -6   1 -10    0.67    0.69
   6  -1  10    0.79    0.92
   6  -1  10    0.54    0.83
  -7   1 -10    0.01    0.91
  -7   1 -10    0.21    0.86
   7  -1  10   -0.12    0.90
  -8   1 -10   -0.89    1.11
  -8   1 -10    2.27    1.35
   5   0 -10    2.85    1.37
   5   0 -10    0.89    0.94
  -5   0  10    2.77    1.59
  -5   0  10    0.65    1.23
   4   0 -10    3.73    1.23
   4   0 -10    3.29    1.30
  -4   0  10    4.93    1.53
  -4   0  10    2.21    1.19
   3   0 -10    0.63    0.87
   3   0 -10   -0.51    0.75
   3   0 -10    2.28    1.10
   3   0 -10    0.98    0.87
  -3   0  10   -0.27    0.93
  -3   0  10   -0.81    0.81
  -3   0  10    0.57    0.99
   2   0 -10   23.80    2.07
   2   0 -10   22.80    2.05
   2   0 -10   17.08    2.07
   2   0 -10   23.43    2.02
   2   0 -10   20.63    1.86
  -2   0  10   20.69    2.20
  -2   0  10   19.52    2.36
  -2   0  10   23.71    2.50
  -2   0  10   19.30    2.40
  -2   0  10   18.42    2.20
   1   0 -10    7.43    1.26
   1   0 -10    5.76    1.05
   1   0 -10    8.56    1.35
   1   0 -10    7.78    1.25
  -1   0  10    5.31    1.11
  -1   0  10    4.27    1.04
  -1   0  10    6.44    1.33
  -1   0  10    4.51    1.13
  -1   0  10    5.91    1.28
  -1   0  10    4.26    0.94
   0   0 -10    4.00    0.89
   0   0 -10    3.77    0.92
   0   0 -10    5.50    1.10
   0   0  10    2.67    0.86
   0   0  10    1.75    0.80
   0   0  10    2.29    0.93
   0   0  10    3.07    0.91
   0   0  10    2.29    0.90
  -1   0 -10    2.53    0.80
  -1   0 -10    2.41    0.73
  -1   0 -10    3.33    0.90
   1   0  10    2.61    0.85
   1   0  10    2.06    0.88
   1   0  10    2.13    0.77
   1   0  10    3.28    0.86
  -2   0 -10   38.97    2.76
  -2   0 -10   35.49    2.52
  -2   0 -10   37.86    2.62
   2   0  10   34.65    2.48
   2   0  10   32.66    2.59
   2   0  10   33.85    2.46
  -3   0 -10   29.44    2.20
  -3   0 -10   32.93    2.44
  -3   0 -10   33.12    2.29
   3   0  10   22.86    2.06
   3   0  10   24.91    2.20
   3   0  10   27.25    2.17
  -4   0 -10    7.36    1.18
  -4   0 -10    5.99    1.22
  -4   0 -10    6.90    1.16
   4   0  10    9.58    1.42
   4   0  10    7.17    1.22
   4   0  10    6.06    1.18
  -5   0 -10   -0.17    0.58
  -5   0 -10    1.36    0.85
  -5   0 -10   -0.18    0.65
   5   0  10    1.11    0.74
   5   0  10    0.66    0.74
   5   0  10   -0.01    0.72
  -6   0 -10   10.81    1.53
  -6   0 -10    5.35    1.22
  -6   0 -10    9.29    1.54
   6   0  10   10.33    1.57
   6   0  10    7.58    1.37
   6   0  10    8.18    1.35
  -7   0 -10    0.87    0.87
  -7   0 -10    2.14    1.01
   7   0  10    0.46    0.85
   7   0  10    1.23    0.98
  -8   0 -10   -0.14    1.12
  -8   0 -10    0.59    1.03
   8   0  10    1.16    1.12
   4  -1 -10   -0.02    0.95
   4  -1 -10    0.32    0.85
  -4   1  10   -0.13    1.18
  -4   1  10    1.50    1.58
  -4   1  10   -0.16    1.04
   3  -1 -10   12.35    1.73
   3  -1 -10   12.56    1.89
  -3   1  10    8.05    1.80
  -3   1  10    7.70    1.51
  -3   1  10    8.24    1.69
  -3   1  10    7.62    1.90
   2  -1 -10    0.99    0.92
   2  -1 -10    0.44    0.87
   2  -1 -10    2.39    1.00
  -2   1  10    1.28    1.07
  -2   1  10    2.45    1.35
  -2   1  10    1.16    0.90
  -2   1  10    0.61    0.95
   1  -1 -10    5.56    1.22
   1  -1 -10    5.74    1.22
   1  -1 -10    4.64    1.18
   1  -1 -10    4.45    1.03
  -1   1  10    5.83    1.19
  -1   1  10    8.16    1.25
  -1   1  10    7.16    1.49
  -1   1  10    5.90    1.36
  -1   1  10    6.97    1.30
  -1   1  10    5.33    1.24
   0  -1 -10   38.21    2.52
   0  -1 -10   32.83    2.55
   0  -1 -10   30.02    2.41
   0   1  10   31.75    2.32
   0   1  10   28.44    2.54
   0   1  10   33.49    2.43
   0   1  10   25.77    2.48
   0   1  10   32.32    2.50
  -1  -1 -10    7.12    1.14
  -1  -1 -10    5.76    1.05
   1   1  10    4.03    0.90
   1   1  10    6.79    1.30
   1   1  10    4.95    0.96
   1   1  10    4.88    1.03
   1   1  10    6.08    1.29
  -2  -1 -10    2.03    0.79
  -2  -1 -10    3.19    0.83
   2   1  10    0.74    0.78
   2   1  10    2.04    0.79
   2   1  10    1.87    0.77
   2   1  10    0.97    0.76
   2   1  10    3.11    0.82
  -3  -1 -10    4.53    0.96
  -3  -1 -10    3.79    0.95
   3   1  10    4.05    0.96
   3   1  10    4.45    1.00
   3   1  10    4.69    1.01
   3   1  10    4.76    0.96
  -4  -1 -10   27.54    2.27
  -4  -1 -10   26.89    2.11
  -4  -1 -10   28.83    2.16
   4   1  10   27.52    2.11
   4   1  10   22.68    1.99
   4   1  10   24.89    2.03
   4   1  10   22.93    2.06
  -5  -1 -10   15.05    1.88
  -5  -1 -10   16.02    1.83
  -5  -1 -10   17.33    1.79
   5   1  10   13.59    1.69
   5   1  10   11.64    1.59
   5   1  10   14.80    1.71
   5   1  10   11.07    1.59
  -6  -1 -10   14.66    1.82
  -6  -1 -10   13.73    1.86
  -6  -1 -10   13.18    1.67
   6   1  10   14.55    1.77
   6   1  10   16.39    1.81
   6   1  10   12.51    1.64
   6   1  10   14.55    1.76
  -7  -1 -10    6.44    1.29
  -7  -1 -10    7.31    1.49
   7   1  10    4.39    1.09
   7   1  10    2.78    1.11
  -8  -1 -10    0.62    1.17
  -8  -1 -10    0.47    0.82
   8   1  10    0.18    0.97
   4  -2 -10   -0.26    0.98
   4  -2 -10    1.69    1.19
  -4   2  10    1.23    1.70
  -4   2  10    0.16    1.30
   3  -2 -10    2.77    0.99
   3  -2 -10    3.51    1.18
  -3   2  10    4.11    1.34
  -3   2  10    4.42    1.46
  -3   2  10    4.08    1.66
   2  -2 -10    1.24    0.85
   2  -2 -10   -0.09    0.84
   2  -2 -10   -0.18    0.73
   2  -2 -10    0.28    0.93
  -2   2  10    0.78    0.97
  -2   2  10    0.64    1.07
  -2   2  10    0.36    1.23
  -2   2  10    0.17    0.90
   1  -2 -10    7.81    1.41
   1  -2 -10    5.82    1.31
   1  -2 -10    6.01    1.28
  -1   2  10    4.92    1.33
  -1   2  10    6.93    1.40
  -1   2  10    8.79    1.55
  -1   2  10    5.63    1.27
  -1   2  10    6.76    1.21
   0  -2 -10   -0.49    0.59
   0  -2 -10   -0.37    0.61
   0  -2 -10    0.54    0.66
   0   2  10    0.11    0.59
   0   2  10    0.07    0.72
   0   2  10   -0.19    0.56
   0   2  10    0.52    0.95
   0   2  10    0.05    0.75
  -1  -2 -10   48.95    3.44
  -1  -2 -10   51.45    3.57
  -1  -2 -10   50.25    3.36
   1   2  10   51.62    3.37
   1   2  10   48.30    3.46
   1   2  10   47.58    3.57
   1   2  10   51.35    3.19
  -2  -2 -10    0.16    0.52
  -2  -2 -10   -0.25    0.50
  -2  -2 -10    0.37    0.63
   2   2  10    0.41    0.51
   2   2  10    0.52    0.68
   2   2  10    0.10    0.53
   2   2  10    0.15    0.55
   2   2  10    0.21    0.60
  -3  -2 -10   -0.26    0.50
  -3  -2 -10   -0.21    0.47
   3   2  10    0.51    0.57
   3   2  10    0.28    0.70
   3   2  10    0.36    0.64
   3   2  10    0.02    0.61
   3   2  10    0.11    0.48
  -4  -2 -10   13.29    1.62
  -4  -2 -10   11.63    1.57
   4   2  10   11.77    1.46
   4   2  10    9.18    1.36
   4   2  10    9.06    1.39
   4   2  10   10.82    1.41
  -5  -2 -10    8.62    1.35
  -5  -2 -10    9.92    1.50
   5   2  10    7.52    1.27
   5   2  10    7.60    2.92
   5   2  10   10.78    1.42
   5   2  10    8.91    1.35
  -6  -2 -10   -0.76    0.58
  -6  -2 -10   -0.21    0.65
  -6  -2 -10    0.81    0.73
   6   2  10   -0.40    0.67
   6   2  10    0.64    0.82
   6   2  10    0.50    0.75
   6   2  10    0.35    0.76
  -7  -2 -10    1.17    0.86
  -7  -2 -10    0.00    0.59
   7   2  10   -0.35    0.94
   7   2  10    0.86    0.83
   7   2  10   -0.21    0.77
  -8  -2 -10    4.71    1.30
  -8  -2 -10    1.74    0.82
   8   2  10    4.78    1.17
   8   2  10    3.72    1.17
  -9  -2 -10   -0.26    0.58
   9   2  10    1.50    1.26
   4  -3 -10   -0.54    1.16
   3  -3 -10    0.39    0.82
   3  -3 -10    0.12    0.62
  -3   3  10    0.56    1.21
  -3   3  10    0.31    1.09
  -3   3  10    0.34    1.24
   2  -3 -10    3.02    1.03
   2  -3 -10    4.14    1.41
   2  -3 -10    4.61    1.18
  -2   3  10    4.92    1.36
  -2   3  10    4.13    1.54
  -2   3  10    9.82    1.82
   1  -3 -10    3.55    1.08
   1  -3 -10    2.05    0.97
   1  -3 -10    3.21    1.11
  -1   3  10    0.28    1.02
  -1   3  10    1.73    0.97
  -1   3  10    2.21    0.89
  -1   3  10    1.90    1.08
   0  -3 -10    4.15    1.17
   0  -3 -10    3.69    1.10
   0   3  10    3.44    1.12
   0   3  10    4.13    1.26
   0   3  10    4.86    1.11
   0   3  10    6.87    1.33
  -1  -3 -10    4.98    1.06
  -1  -3 -10    5.41    1.17
  -1  -3 -10    4.66    1.08
   1   3  10    4.33    0.91
   1   3  10    4.50    1.16
   1   3  10    3.73    1.10
   1   3  10    5.11    1.27
   1   3  10    4.30    1.02
  -2  -3 -10    0.29    0.62
  -2  -3 -10    0.59    0.66
  -2  -3 -10    1.14    0.67
   2   3  10    0.02    0.59
   2   3  10    0.14    0.67
   2   3  10    1.35    0.66
   2   3  10    0.24    0.69
  -3  -3 -10   30.18    2.18
  -3  -3 -10   30.26    2.33
  -3  -3 -10   30.53    2.40
   3   3  10   29.83    2.50
   3   3  10   28.57    2.33
   3   3  10   26.03    2.11
   3   3  10   29.63    2.28
  -4  -3 -10   12.04    1.63
  -4  -3 -10   14.89    1.77
   4   3  10   12.65    1.52
   4   3  10   14.02    1.63
   4   3  10   11.71    1.49
   4   3  10   11.76    1.70
   4   3  10   12.10    1.57
  -5  -3 -10   20.89    1.88
  -5  -3 -10   17.42    1.75
   5   3  10   15.87    1.87
   5   3  10   19.78    1.99
   5   3  10   18.99    1.93
   5   3  10   19.64    1.91
  -6  -3 -10   -0.49    0.60
  -6  -3 -10    1.03    0.80
   6   3  10   -0.10    0.67
   6   3  10   -0.06    0.73
   6   3  10    0.19    0.70
   6   3  10   -0.36    0.67
  -7  -3 -10   -0.50    0.55
  -7  -3 -10   -1.03    0.63
   7   3  10    0.19    0.75
   7   3  10   -1.08    0.70
   7   3  10    0.10    0.78
  -8  -3 -10    3.05    1.17
  -8  -3 -10    2.31    0.79
   8   3  10    2.41    1.03
   8   3  10    5.11    1.29
  -9  -3 -10    0.11    0.55
   9   3  10    0.45    0.98
   9   3  10    1.12    1.15
   3  -4 -10    0.91    1.06
   3  -4 -10    1.42    1.15
  -3   4  10   -0.84    1.06
  -3   4  10    0.55    1.36
  -3   4  10   -0.20    1.17
   2  -4 -10    0.27    0.52
   2  -4 -10   -0.35    0.73
   2  -4 -10    0.31    0.89
  -2   4  10    2.18    1.25
  -2   4  10    2.55    1.24
   1  -4 -10    7.35    1.30
   1  -4 -10    7.46    1.45
  -1   4  10    8.17    1.80
  -1   4  10    9.12    1.50
  -1   4  10    9.06    1.72
  -1   4  10    8.32    1.55
   0  -4 -10    0.88    0.90
   0  -4 -10    1.25    0.85
   0   4  10    0.26    0.78
   0   4  10    0.17    0.83
   0   4  10    0.44    0.94
   0   4  10    0.78    0.76
  -1  -4 -10   18.89    2.24
  -1  -4 -10   21.34    1.99
   1   4  10   22.73    2.44
   1   4  10   18.72    2.29
   1   4  10   19.30    1.99
   1   4  10   18.97    2.05
   1   4  10   19.82    1.77
  -2  -4 -10    8.79    1.40
  -2  -4 -10    6.35    1.26
  -2  -4 -10    6.74    1.27
   2   4  10    5.53    1.05
   2   4  10    4.92    1.10
   2   4  10    8.37    1.27
   2   4  10    6.76    1.35
  -3  -4 -10   24.71    2.02
  -3  -4 -10   21.23    1.97
  -3  -4 -10   21.93    1.86
   3   4  10   21.03    2.21
   3   4  10   18.49    1.80
   3   4  10   21.85    1.82
   3   4  10   19.09    1.99
  -4  -4 -10    8.69    1.36
  -4  -4 -10    8.08    1.19
  -4  -4 -10    6.62    1.25
   4   4  10    8.76    1.46
   4   4  10    6.57    1.16
   4   4  10   10.85    1.46
   4   4  10    8.47    1.32
  -5  -4 -10    1.46    0.79
  -5  -4 -10    2.26    0.72
  -5  -4 -10    2.17    0.85
   5   4  10    1.58    0.76
   5   4  10    1.15    0.71
   5   4  10    0.51    0.64
   5   4  10    0.62    0.70
  -6  -4 -10    2.57    0.84
  -6  -4 -10    3.06    1.01
   6   4  10    1.83    0.80
   6   4  10    3.57    0.98
   6   4  10    2.29    0.86
   6   4  10    1.51    1.80
  -7  -4 -10   18.49    2.14
   7   4  10   15.41    1.91
   7   4  10   16.92    1.98
   7   4  10   19.08    2.10
   7   4  10   14.42    1.87
   8   4  10    7.48    1.45
  -9  -4 -10   -0.10    0.55
   9   4  10    1.64    1.18
   9   4  10    0.38    1.06
   2  -5 -10   -0.41    0.62
   2  -5 -10    1.14    0.98
   2  -5 -10   -0.40    0.88
  -2   5  10   -0.21    1.06
  -2   5  10   -0.46    0.92
   1  -5 -10    5.50    1.35
  -1   5  10   14.85    1.85
  -1   5  10    6.67    1.36
  -1   5  10    6.31    1.53
   0  -5 -10    6.70    1.34
   0  -5 -10    4.38    1.05
   0   5  10    8.21    1.69
   0   5  10    8.38    1.40
   0   5  10    5.12    1.16
   0   5  10    8.33    1.65
  -1  -5 -10    1.43    0.94
  -1  -5 -10    1.09    0.78
   1   5  10    3.00    1.18
   1   5  10    1.20    0.79
   1   5  10    2.43    0.96
   1   5  10    1.83    0.97
  -2  -5 -10    4.18    1.06
  -2  -5 -10    3.92    1.12
   2   5  10    6.00    1.16
   2   5  10    3.50    1.01
   2   5  10    2.52    0.92
   2   5  10    4.15    1.22
  -3  -5 -10   53.35    3.77
  -3  -5 -10   52.02    3.56
  -3  -5 -10   63.41    3.85
   3   5  10   45.27    3.71
   3   5  10   58.10    3.64
   3   5  10   49.56    3.33
   3   5  10   47.04    3.45
  -4  -5 -10    2.22    0.83
  -4  -5 -10    3.30    0.94
  -4  -5 -10    2.21    0.91
   4   5  10    1.43    0.87
   4   5  10    2.93    0.92
   4   5  10    2.19    0.88
   4   5  10    2.13    0.94
  -5  -5 -10   -0.41    0.49
  -5  -5 -10   -0.09    0.61
  -5  -5 -10   -0.50    0.54
   5   5  10   -0.17    0.64
   5   5  10    0.75    0.86
   5   5  10    0.52    0.68
   5   5  10    0.16    0.59
  -6  -5 -10    8.30    1.27
  -6  -5 -10    9.31    1.44
  -6  -5 -10    6.59    1.19
   6   5  10    7.84    1.34
   6   5  10    5.51    1.19
   6   5  10    6.61    1.28
   6   5  10    7.68    1.31
  -7  -5 -10   15.89    1.86
  -7  -5 -10   19.05    1.93
   7   5  10   17.71    2.07
   7   5  10   16.42    1.96
   7   5  10   19.70    2.12
   7   5  10   23.30    2.28
  -8  -5 -10    0.45    0.63
   8   5  10   -0.67    0.77
   8   5  10    0.88    1.04
  -9  -5 -10   -0.30    0.58
   9   5  10    0.07    0.95
   9   5  10   -0.95    1.01
   2  -6 -10    5.27    1.65
  -2   6  10    2.85    1.29
   1  -6 -10    1.03    0.82
   1  -6 -10    3.78    1.44
   1  -6 -10    4.13    1.33
  -1   6  10    1.85    1.11
  -1   6  10    2.04    1.01
   0  -6 -10    6.60    1.32
   0   6  10   13.92    1.92
   0   6  10    4.41    1.10
   0   6  10    7.74    1.58
  -1  -6 -10    3.69    1.15
  -1  -6 -10    3.74    0.95
   1   6  10    2.21    0.80
   1   6  10    6.85    1.41
   1   6  10    4.20    1.26
  -2  -6 -10    3.01    1.01
  -2  -6 -10    4.04    1.06
   2   6  10    2.40    0.94
   2   6  10    3.49    1.07
   2   6  10    3.30    1.24
  -3  -6 -10   10.30    1.62
  -3  -6 -10   14.04    1.84
   3   6  10   10.29    1.68
   3   6  10   13.18    1.69
   3   6  10   15.16    1.76
   3   6  10   10.83    1.72
  -4  -6 -10   12.82    1.74
  -4  -6 -10   10.63    1.63
  -4  -6 -10    7.48    1.39
   4   6  10   11.75    1.74
   4   6  10   13.23    1.68
   4   6  10    9.39    1.46
   4   6  10   11.96    1.58
  -5  -6 -10   17.87    1.97
  -5  -6 -10   11.04    1.57
  -5  -6 -10   14.64    1.83
   5   6  10   12.34    1.70
   5   6  10    9.28    1.68
   5   6  10   15.21    1.81
   5   6  10   16.07    1.86
  -6  -6 -10    0.15    0.72
  -6  -6 -10    0.35    0.70
  -6  -6 -10   -0.14    0.69
   6   6  10    0.15    0.68
   6   6  10    0.00    0.73
   6   6  10    0.60    0.75
   6   6  10    0.33    0.76
  -7  -6 -10   17.53    1.94
  -7  -6 -10   10.03    1.57
   7   6  10   16.43    1.96
   7   6  10   13.96    1.77
  -8  -6 -10    0.21    0.81
  -8  -6 -10    0.10    0.80
   8   6  10   -0.66    0.83
   8   6  10    0.69    1.23
  -9  -6 -10    6.74    1.40
  -9  -6 -10    3.29    1.09
   9   6  10    3.96    1.44
   9   6  10    9.85    1.75
   1  -7 -10    1.52    1.28
   1  -7 -10    0.35    1.19
   0  -7 -10   -0.18    0.80
   0  -7 -10   -0.46    0.80
   0   7  10   -0.59    0.97
   0   7  10    0.21    1.11
   0   7  10    0.05    1.22
  -1  -7 -10    6.74    1.41
   1   7  10    6.11    1.53
   1   7  10   13.97    1.93
  -2  -7 -10   23.87    2.33
   2   7  10   15.61    2.36
   2   7  10   23.53    2.46
  -3  -7 -10    3.49    1.13
  -3  -7 -10    2.95    1.03
   3   7  10    4.28    1.46
   3   7  10    6.16    1.39
   3   7  10    3.91    1.11
   3   7  10    4.74    1.14
  -4  -7 -10    7.02    1.45
  -4  -7 -10    7.52    1.44
   4   7  10    8.09    1.40
   4   7  10   10.58    1.70
   4   7  10   12.07    1.84
   4   7  10    8.39    1.47
  -5  -7 -10    6.43    1.37
  -5  -7 -10   11.64    1.69
  -5  -7 -10    5.72    1.27
   5   7  10    9.12    1.61
   5   7  10    9.64    1.55
   5   7  10    8.84    1.57
   5   7  10    9.40    1.53
  -6  -7 -10    2.91    1.03
  -6  -7 -10    4.15    1.25
  -6  -7 -10    3.53    1.09
   6   7  10    4.28    1.16
   6   7  10    3.33    1.07
   6   7  10    4.26    1.20
  -7  -7 -10    3.28    1.11
  -7  -7 -10    2.98    1.09
   7   7  10    1.61    0.93
   7   7  10    3.16    1.16
  -8  -7 -10    4.37    1.14
  -8  -7 -10    2.97    1.16
   8   7  10    3.79    1.25
  -9  -7 -10    1.22    0.97
  -9  -7 -10    1.26    1.27
   9   7  10    3.04    1.46
   0   8  10    0.75    1.35
   0   8  10    1.77    1.58
  -1  -8 -10    5.20    1.41
  -1  -8 -10    6.25    1.58
   1   8  10    1.36    0.93
   1   8  10    7.05    1.69
   1   8  10    3.53    1.56
  -2  -8 -10   13.82    2.11
  -2  -8 -10   14.62    2.05
   2   8  10   14.32    2.03
   2   8  10   13.40    2.27
   2   8  10   10.06    1.71
  -3  -8 -10    1.47    1.05
  -3  -8 -10    0.59    0.95
   3   8  10    1.60    1.14
   3   8  10    0.57    0.87
  -4  -8 -10   10.12    1.84
  -4  -8 -10    9.31    1.62
   4   8  10    8.53    1.67
   4   8  10    5.50    1.31
   4   8  10    7.26    1.54
  -5  -8 -10   25.07    2.81
  -5  -8 -10   22.32    2.63
  -5  -8 -10   23.47    2.77
   5   8  10   26.63    2.36
   5   8  10   18.07    2.46
   5   8  10   24.59    2.29
  -6  -8 -10   22.72    2.65
  -6  -8 -10   19.85    2.40
   6   8  10   19.22    2.30
   6   8  10   24.51    2.58
  -7  -8 -10   -0.03    0.92
  -7  -8 -10   -0.20    1.05
   7   8  10    0.39    0.98
   7   8  10   -0.61    0.93
  -8  -8 -10   -0.58    1.04
  -8  -8 -10    0.03    0.96
   8   8  10   -1.01    0.89
  -2  -9 -10    2.80    0.98
  -2  -9 -10    3.92    1.71
   2   9  10    4.84    1.55
   2   9  10    4.83    1.61
  -3  -9 -10    5.09    1.65
  -3  -9 -10    3.57    1.19
   3   9  10    3.79    1.55
   3   9  10    3.94    1.30
  -4  -9 -10    4.62    1.26
  -4  -9 -10    9.43    2.00
   4   9  10    4.83    1.28
   4   9  10    7.39    1.72
  -5  -9 -10    1.39    1.04
  -5  -9 -10    0.01    1.03
   5   9  10    3.28    1.31
   5   9  10    3.23    1.43
   5   9  10    1.49    1.10
  -6  -9 -10    0.85    0.98
  -6  -9 -10   -0.32    1.14
   6   9  10    0.52    1.18
   6   9  10    0.52    1.03
  -7  -9 -10    2.71    1.31
  -7  -9 -10    4.64    1.58
   7   9  10    4.45    1.33
   7   9  10    6.49    1.62
  -8  -9 -10    3.34    1.73
  -8  -9 -10    2.09    1.27
  -4 -10 -10   21.87    2.97
   4  10  10   21.55    3.01
  -5 -10 -10   -0.38    1.43
  -5 -10 -10   -0.03    0.90
   5  10  10   -0.68    1.10
   5  10  10    0.96    1.65
  -6 -10 -10    0.52    1.38
  -6 -10 -10    0.33    1.02
   6  10  10   -0.70    1.48
   6  10  10    1.15    1.38
   2   6 -11    3.08    1.28
   2   6 -11    2.16    1.19
  -2  -6  11    2.32    1.27
  -2  -6  11    1.68    1.47
   1   6 -11    2.82    1.33
   1   6 -11    2.62    1.22
  -1  -6  11    2.69    1.29
  -1  -6  11    0.50    1.23
  -1  -6  11    1.73    1.20
   0   6 -11    0.09    1.00
   0   6 -11   -0.36    0.66
   0  -6  11    1.66    1.28
   0  -6  11    0.63    1.10
   0  -6  11   -0.32    1.09
  -1   6 -11   -0.82    0.99
  -1   6 -11   -0.65    1.04
   1  -6  11   -0.75    1.17
   1  -6  11   -0.47    1.08
   1  -6  11   -0.84    0.85
  -2   6 -11    1.78    1.26
  -2   6 -11    1.61    1.24
  -2   6 -11    1.60    1.16
   2  -6  11    0.82    1.46
   2  -6  11   -5.51    1.18
   2  -6  11    0.90    1.06
   3   5 -11   -0.22    0.88
   3   5 -11    1.00    0.96
  -3  -5  11   -0.82    1.25
  -3  -5  11    0.30    0.99
   2   5 -11    3.32    1.25
   2   5 -11    1.48    1.09
  -2  -5  11    1.47    1.06
  -2  -5  11    0.28    1.18
  -2  -5  11    3.47    1.42
   1   5 -11    1.35    1.00
   1   5 -11    1.78    1.07
  -1  -5  11    1.31    1.14
  -1  -5  11    0.02    1.09
  -1  -5  11    1.28    0.98
   0   5 -11   -0.11    0.74
   0   5 -11    0.54    0.90
   0  -5  11   -0.38    1.02
   0  -5  11   -0.27    0.87
   0  -5  11   -0.03    0.92
  -1   5 -11    0.73    0.93
  -1   5 -11    1.07    1.06
  -1   5 -11    1.09    1.11
   1  -5  11    1.75    1.22
   1  -5  11    0.68    1.01
   1  -5  11    1.12    0.90
  -2   5 -11    1.57    1.15
  -2   5 -11    1.21    1.01
  -2   5 -11    0.68    1.01
   2  -5  11    0.42    1.00
   2  -5  11    1.60    1.20
   2  -5  11   -3.43    0.72
  -3   5 -11    0.50    1.11
  -3   5 -11    2.49    1.24
  -3   5 -11    1.96    0.93
   3  -5  11    2.34    1.21
   3  -5  11    1.06    1.18
   3  -5  11    3.98    1.44
  -4   5 -11   -0.20    1.19
  -4   5 -11    0.10    0.95
  -4   5 -11   -1.39    1.01
   4  -5  11    1.10    1.13
   4  -5  11    0.66    1.23
   4  -5  11    0.89    1.32
   4   4 -11    0.35    0.81
   4   4 -11    1.14    0.95
   4   4 -11    0.44    1.13
  -4  -4  11    0.89    1.51
  -4  -4  11    1.12    1.15
   3   4 -11    1.26    0.90
   3   4 -11    1.01    1.02
  -3  -4  11   -0.77    1.16
  -3  -4  11   -0.27    0.94
  -3  -4  11    0.69    1.35
   2   4 -11    4.04    1.15
   2   4 -11    2.78    1.12
  -2  -4  11    4.06    1.36
  -2  -4  11    2.98    1.35
  -2  -4  11    3.37    1.17
   1   4 -11    0.45    0.86
   1   4 -11   -0.04    0.64
  -1  -4  11    0.03    1.00
  -1  -4  11    0.04    0.87
  -1  -4  11   -1.13    0.91
   0   4 -11    0.08    0.72
   0   4 -11   -0.39    0.68
   0  -4  11    0.04    0.95
   0  -4  11    0.29    0.77
   0  -4  11    0.44    0.87
  -1   4 -11    2.42    1.04
  -1   4 -11    1.28    0.70
  -1   4 -11    3.85    1.12
   1  -4  11    2.18    1.03
   1  -4  11    1.73    1.00
   1  -4  11    1.36    1.06
  -2   4 -11    6.38    1.42
  -2   4 -11    6.85    1.46
  -2   4 -11    6.02    1.35
   2  -4  11    5.34    1.37
   2  -4  11    5.04    1.33
  -3   4 -11    5.60    1.45
  -3   4 -11    5.12    1.11
  -3   4 -11   10.15    1.68
   3  -4  11    3.76    1.32
   3  -4  11    5.59    1.48
   3  -4  11    5.98    1.43
  -4   4 -11   -0.22    0.74
  -4   4 -11    0.26    1.03
   4  -4  11    0.29    1.21
   4  -4  11    0.04    1.06
   4  -4  11    0.44    1.00
  -5   4 -11    1.64    1.18
  -5   4 -11    0.53    1.32
   5  -4  11    0.37    1.13
   5  -4  11    0.98    1.31
   4   3 -11    1.80    0.93
   4   3 -11    2.67    1.09
  -4  -3  11    1.91    1.45
  -4  -3  11    1.37    1.10
   3   3 -11    0.77    0.76
   3   3 -11    1.20    0.98
  -3  -3  11    0.96    0.99
  -3  -3  11    2.06    1.50
  -3  -3  11    2.36    1.31
   2   3 -11    0.93    0.86
   2   3 -11    1.31    0.84
  -2  -3  11    0.76    1.02
  -2  -3  11    1.52    1.09
  -2  -3  11    0.38    0.83
   1   3 -11   -0.54    0.63
   1   3 -11    0.77    0.85
  -1  -3  11   -0.34    0.78
  -1  -3  11   -0.53    0.85
  -1  -3  11   -0.74    0.94
   0   3 -11    2.88    1.00
   0   3 -11    2.37    0.88
   0   3 -11    4.45    1.09
   0  -3  11    4.02    1.22
   0  -3  11    1.34    0.81
   0  -3  11    3.12    1.14
  -1   3 -11    0.86    0.78
  -1   3 -11    2.87    1.05
   1  -3  11    1.11    0.94
   1  -3  11    1.63    0.94
   1  -3  11    2.72    0.91
  -2   3 -11    1.96    0.97
  -2   3 -11    1.71    0.86
   2  -3  11    0.63    0.95
   2  -3  11    1.55    0.95
   2  -3  11    1.79    1.06
  -3   3 -11    1.39    0.94
  -3   3 -11    2.00    0.80
   3  -3  11    1.56    0.96
   3  -3  11    2.68    1.11
   3  -3  11    1.89    1.05
  -4   3 -11    4.13    1.12
  -4   3 -11    1.62    0.79
   4  -3  11    5.20    1.37
   4  -3  11    4.41    1.37
  -5   3 -11   10.00    1.75
  -5   3 -11   10.10    1.78
   5  -3  11   11.98    1.88
  -6   3 -11    1.51    1.35
   6  -3  11   -0.13    0.80
   3   2 -11    1.14    0.80
  -3  -2  11   -0.35    0.98
   2   2 -11    1.00    0.87
   2   2 -11    0.96    0.74
   2   2 -11    0.80    0.80
  -2  -2  11    0.97    0.92
  -2  -2  11    0.69    1.03
  -2  -2  11    0.42    0.97
   1   2 -11    2.74    1.01
   1   2 -11    4.34    1.08
  -1  -2  11    2.83    1.09
  -1  -2  11    4.45    1.28
  -1  -2  11    2.96    1.11
   0   2 -11    8.51    1.41
   0   2 -11    6.11    1.23
   0  -2  11    5.96    1.33
   0  -2  11    6.78    1.40
   0  -2  11    6.98    1.47
  -1   2 -11    1.96    0.91
  -1   2 -11    2.24    0.86
   1  -2  11    2.39    1.00
   1  -2  11    2.90    1.00
   1  -2  11    4.02    1.14
  -2   2 -11    3.46    1.00
  -2   2 -11    4.05    1.08
   2  -2  11    3.08    1.14
   2  -2  11    1.66    0.95
   2  -2  11    1.61    0.94
  -3   2 -11    3.06    0.96
  -3   2 -11    2.05    0.93
   3  -2  11    2.51    1.04
   3  -2  11    1.47    0.91
   3  -2  11    2.30    1.09
  -4   2 -11    1.18    0.68
  -4   2 -11    2.18    0.97
   4  -2  11    3.08    1.15
   4  -2  11    3.92    1.21
  -5   2 -11    0.74    0.90
  -5   2 -11    0.46    0.84
   5  -2  11    0.66    0.88
   5  -2  11    1.06    1.13
  -6   2 -11    0.78    0.99
  -6   2 -11   -0.08    1.04
   6  -2  11   -0.55    1.07
   6  -2  11   -0.40    1.08
   2   1 -11    3.11    0.99
   2   1 -11    2.76    0.93
   2   1 -11    1.45    0.73
  -2  -1  11    0.54    1.01
  -2  -1  11    0.69    1.04
   1   1 -11    0.47    0.78
   1   1 -11   -0.31    0.75
   1   1 -11    0.36    0.70
  -1  -1  11    0.01    0.83
  -1  -1  11    0.45    0.78
  -1  -1  11    0.29    0.76
  -1  -1  11    0.44    0.85
   0   1 -11   25.34    2.23
   0   1 -11   24.17    2.14
   0  -1  11   23.11    2.44
   0  -1  11   29.56    2.51
   0  -1  11   22.92    2.20
  -1   1 -11    4.07    1.02
  -1   1 -11    2.63    0.98
   1  -1  11    0.94    0.83
   1  -1  11    2.22    0.98
   1  -1  11    2.27    1.03
  -2   1 -11    2.41    0.94
  -2   1 -11    4.63    1.04
   2  -1  11    3.26    1.05
   2  -1  11    1.48    0.91
   2  -1  11    3.33    1.00
  -3   1 -11   12.74    1.67
  -3   1 -11   10.69    1.66
   3  -1  11   10.74    1.64
   3  -1  11    9.70    1.61
   3  -1  11   13.56    1.74
  -4   1 -11    9.01    1.35
  -4   1 -11    6.40    1.25
  -4   1 -11    5.55    1.31
   4  -1  11    4.59    1.20
   4  -1  11    7.92    1.46
   4  -1  11    5.82    1.32
  -5   1 -11    0.01    0.52
  -5   1 -11    0.22    0.81
  -5   1 -11    0.53    0.78
   5  -1  11    0.15    0.89
   5  -1  11   -0.61    0.82
   5  -1  11    0.05    0.89
  -6   1 -11   -0.35    0.92
  -6   1 -11   -0.37    0.85
  -6   1 -11   -0.53    0.86
   6  -1  11   -0.40    0.99
   6  -1  11    0.61    0.96
  -7   1 -11    1.01    0.91
  -7   1 -11    0.99    1.00
   7  -1  11    0.54    1.19
  -2   0  11    4.54    1.31
   1   0 -11    2.13    0.84
   1   0 -11    0.89    0.78
  -1   0  11    1.11    0.92
  -1   0  11    1.07    0.86
  -1   0  11    1.53    1.03
  -1   0  11    1.53    1.08
   0   0 -11   15.79    1.92
   0   0 -11   12.46    1.63
   0   0 -11   11.40    1.59
   0   0  11   11.49    1.78
   0   0  11   13.28    1.56
   0   0  11   12.74    1.78
   0   0  11   11.64    1.63
  -1   0 -11    0.15    0.65
  -1   0 -11    0.53    0.64
  -1   0 -11   -0.09    0.63
   1   0  11   -0.19    0.66
   1   0  11    0.75    0.69
   1   0  11    0.41    0.77
  -2   0 -11   12.46    1.56
  -2   0 -11   13.42    1.79
  -2   0 -11   15.42    1.77
   2   0  11   12.79    1.77
   2   0  11   12.11    1.62
   2   0  11   12.83    1.68
  -3   0 -11    1.41    0.72
  -3   0 -11    2.41    0.92
  -3   0 -11    2.52    0.82
   3   0  11    0.85    0.81
   3   0  11   -0.51    0.71
   3   0  11    0.94    0.79
  -4   0 -11    7.63    1.31
  -4   0 -11    7.92    1.29
  -4   0 -11    9.45    1.49
   4   0  11    8.66    1.42
   4   0  11    9.62    1.61
   4   0  11    9.11    1.50
  -5   0 -11    5.62    1.29
  -5   0 -11    3.61    1.13
  -5   0 -11    5.62    1.14
   5   0  11    4.62    1.28
   5   0  11    5.52    1.22
   5   0  11    5.34    1.28
  -6   0 -11   -0.25    0.64
  -6   0 -11    0.62    0.79
  -6   0 -11    0.56    0.76
   6   0  11   -0.70    0.90
   6   0  11   -0.30    0.79
   6   0  11   -0.57    0.72
  -7   0 -11    0.41    0.90
  -7   0 -11    0.39    0.87
   7   0  11    1.72    1.16
   7   0  11    1.02    1.00
  -8   0 -11   -0.06    1.09
  -8   0 -11   -0.15    1.12
   4  -1 -11    0.00    0.87
  -4   1  11    0.48    1.43
   3  -1 -11    3.31    1.23
   3  -1 -11    0.70    1.06
  -3   1  11    1.54    1.36
  -3   1  11    0.93    1.23
   2  -1 -11    1.74    1.03
   2  -1 -11    1.70    0.97
   2  -1 -11    0.78    0.87
   2  -1 -11    3.10    1.19
  -2   1  11    2.00    1.11
  -2   1  11    0.33    1.29
  -2   1  11    1.49    1.05
  -2   1  11    2.54    1.43
   1  -1 -11   10.25    1.60
   1  -1 -11    8.36    1.38
   1  -1 -11   11.05    1.72
  -1   1  11    7.53    1.55
  -1   1  11   10.56    1.86
  -1   1  11   11.50    1.61
  -1   1  11    7.71    1.51
   0  -1 -11   -0.38    0.63
   0  -1 -11    0.39    0.66
   0   1  11   -0.12    0.75
   0   1  11    0.63    0.87
   0   1  11   -0.01    1.07
   0   1  11    0.59    0.66
  -1  -1 -11    0.67    0.70
  -1  -1 -11    0.67    0.66
   1   1  11    1.46    0.95
   1   1  11   -0.35    0.56
   1   1  11    1.03    0.76
   1   1  11    0.41    0.77
   1   1  11    0.95    0.76
  -2  -1 -11   36.31    2.75
  -2  -1 -11   36.07    2.59
   2   1  11   31.32    2.44
   2   1  11   34.66    2.61
   2   1  11   31.22    2.39
   2   1  11   32.79    2.79
   2   1  11   29.70    2.58
  -3  -1 -11    0.02    0.47
  -3  -1 -11    0.65    0.64
   3   1  11    0.72    0.73
   3   1  11    0.94    0.82
   3   1  11   -0.26    0.68
   3   1  11    1.24    0.78
  -4  -1 -11    1.63    0.85
  -4  -1 -11    4.01    1.04
  -4  -1 -11    4.12    1.00
   4   1  11    2.55    0.90
   4   1  11    4.53    1.14
   4   1  11    1.93    0.93
  -5  -1 -11    0.63    0.76
  -5  -1 -11    2.79    0.91
  -5  -1 -11    1.40    0.87
   5   1  11    1.38    0.95
   5   1  11    0.71    0.79
   5   1  11    0.95    0.81
  -6  -1 -11   17.32    2.13
  -6  -1 -11   13.49    1.73
  -6  -1 -11   12.99    1.81
   6   1  11   13.31    1.85
   6   1  11   14.45    1.84
   6   1  11    9.47    1.63
  -7  -1 -11    0.56    0.91
  -7  -1 -11   -0.40    0.85
   7   1  11    0.02    0.87
   7   1  11    1.17    1.04
  -8  -1 -11    3.51    1.50
  -8  -1 -11    2.84    1.18
   8   1  11    1.15    1.09
   8   1  11    2.19    1.28
   3  -2 -11   -0.66    0.76
   3  -2 -11   -0.13    1.23
  -3   2  11    0.10    1.47
  -3   2  11    1.78    1.38
   2  -2 -11    1.71    1.19
   2  -2 -11    1.91    1.06
  -2   2  11    3.67    1.54
  -2   2  11    3.52    1.26
  -2   2  11    3.87    1.44
   1  -2 -11    2.01    1.00
   1  -2 -11    2.80    1.09
   1  -2 -11    4.22    1.27
   1  -2 -11    1.22    0.90
  -1   2  11    1.91    1.02
  -1   2  11    2.76    1.21
  -1   2  11    1.98    1.17
  -1   2  11    0.97    1.18
   0  -2 -11    0.97    0.82
   0  -2 -11    0.11    0.76
   0  -2 -11    0.22    0.79
   0   2  11    0.14    0.82
   0   2  11    0.25    0.78
   0   2  11   -0.42    0.68
   0   2  11    0.08    0.75
   0   2  11    0.56    1.02
  -1  -2 -11    9.91    1.53
  -1  -2 -11    7.95    1.42
   1   2  11    7.59    1.33
   1   2  11    6.26    1.17
   1   2  11    3.94    1.24
   1   2  11    7.20    1.51
  -2  -2 -11    5.66    1.16
  -2  -2 -11    5.54    1.20
   2   2  11    7.55    1.42
   2   2  11    7.33    1.41
   2   2  11    7.65    1.26
   2   2  11    6.69    1.27
  -3  -2 -11   15.63    1.97
  -3  -2 -11   18.82    2.07
   3   2  11   17.01    1.92
   3   2  11   17.62    1.99
   3   2  11   15.20    1.95
   3   2  11   17.52    2.15
   3   2  11   18.87    1.95
  -4  -2 -11    0.50    0.68
  -4  -2 -11    1.12    0.70
   4   2  11    0.58    0.74
   4   2  11   -0.30    0.71
   4   2  11    1.08    0.84
   4   2  11    0.79    0.67
  -5  -2 -11    0.36    0.74
  -5  -2 -11    1.03    0.75
   5   2  11    0.84    0.84
   5   2  11    1.44    0.88
   5   2  11    0.40    0.76
   5   2  11    0.85    0.89
  -6  -2 -11   12.36    1.88
  -6  -2 -11   11.26    1.68
  -6  -2 -11   16.37    1.88
   6   2  11   15.46    1.94
   6   2  11   15.23    1.91
   6   2  11   17.64    2.04
   6   2  11   14.50    2.44
  -7  -2 -11    1.31    0.88
  -7  -2 -11    2.35    1.02
   7   2  11    3.27    1.16
   7   2  11    1.97    1.08
   7   2  11    0.37    1.01
  -8  -2 -11   -0.17    0.99
  -8  -2 -11   -0.04    0.66
   8   2  11   -1.01    1.00
   8   2  11   -0.41    0.92
   3  -3 -11    3.74    1.54
   3  -3 -11    2.29    1.17
  -3   3  11    1.69    1.55
  -3   3  11    4.13    1.56
  -3   3  11    2.66    1.67
   2  -3 -11    1.72    1.12
   2  -3 -11    0.16    0.83
  -2   3  11    0.50    1.10
  -2   3  11    3.24    1.52
   1  -3 -11    8.74    1.75
   1  -3 -11    4.57    1.35
  -1   3  11    3.51    1.27
  -1   3  11    4.42    1.19
  -1   3  11    3.98    1.42
   0  -3 -11    7.87    1.55
   0  -3 -11    6.48    1.41
   0   3  11    4.30    1.49
   0   3  11    4.84    1.33
   0   3  11    7.57    1.43
   0   3  11    6.24    1.38
  -1  -3 -11    4.88    1.19
  -1  -3 -11    6.47    1.34
  -1  -3 -11    5.38    1.23
   1   3  11    2.66    1.19
   1   3  11    2.62    0.91
   1   3  11    2.02    0.99
   1   3  11    3.25    1.00
  -2  -3 -11    7.65    1.36
  -2  -3 -11    8.74    1.46
  -2  -3 -11    9.51    1.51
   2   3  11   10.94    1.69
   2   3  11    7.50    1.30
   2   3  11   13.51    1.61
   2   3  11    9.23    1.43
  -3  -3 -11    4.00    1.05
  -3  -3 -11    4.37    1.11
   3   3  11    3.22    0.99
   3   3  11    4.09    1.14
   3   3  11    3.48    0.93
   3   3  11    3.19    0.99
  -4  -3 -11    2.89    0.98
  -4  -3 -11    3.38    1.01
   4   3  11    3.45    0.95
   4   3  11    3.15    1.04
   4   3  11    2.22    0.94
   4   3  11    2.94    1.11
   4   3  11    4.41    1.11
  -5  -3 -11    7.51    1.37
  -5  -3 -11    3.95    1.06
   5   3  11    6.04    1.15
   5   3  11    6.42    1.28
   5   3  11    3.21    1.08
   5   3  11    5.15    1.19
  -6  -3 -11   10.38    1.66
  -6  -3 -11    9.65    1.41
   6   3  11   10.51    1.66
   6   3  11   13.69    1.72
   6   3  11    7.45    1.39
   6   3  11    8.43    1.47
  -7  -3 -11   -0.20    0.80
  -7  -3 -11    0.25    0.79
  -7  -3 -11    0.56    0.67
   7   3  11   -0.07    0.93
   7   3  11    0.13    0.88
   7   3  11   -0.89    0.82
   7   3  11    0.75    0.95
  -8  -3 -11    0.44    0.95
  -8  -3 -11    0.70    0.74
   8   3  11    0.22    0.95
   8   3  11    0.76    1.06
   9   3  11    0.38    1.08
   9   3  11    0.77    1.20
   2  -4 -11    0.62    1.07
   2  -4 -11    0.21    1.01
  -2   4  11    1.00    1.22
  -2   4  11    0.93    1.38
   1  -4 -11   -0.56    0.78
   1  -4 -11   -0.13    0.75
  -1   4  11    0.04    0.91
  -1   4  11   -0.05    0.95
  -1   4  11   -0.46    0.98
   0  -4 -11    3.78    1.29
   0  -4 -11    2.15    0.97
   0   4  11    2.32    1.00
   0   4  11    3.34    1.15
   0   4  11    2.44    1.14
  -1  -4 -11   21.19    2.16
  -1  -4 -11   26.60    2.35
   1   4  11   27.21    2.90
   1   4  11   18.38    2.44
   1   4  11   22.48    2.09
  -2  -4 -11    1.42    0.86
  -2  -4 -11    1.15    0.79
  -2  -4 -11    1.65    0.85
   2   4  11    0.42    0.75
   2   4  11    1.29    0.72
   2   4  11    1.09    0.85
   2   4  11    3.25    1.20
  -3  -4 -11    4.57    1.08
  -3  -4 -11    4.31    1.08
  -3  -4 -11    4.34    1.12
   3   4  11    5.51    1.18
   3   4  11    5.78    1.16
   3   4  11    4.25    1.12
   3   4  11    4.63    1.21
  -4  -4 -11   11.09    1.65
  -4  -4 -11   11.23    1.48
  -4  -4 -11   10.04    1.52
   4   4  11   10.18    1.61
   4   4  11   11.86    1.79
   4   4  11   11.57    1.51
   4   4  11    7.65    1.42
  -5  -4 -11   22.14    2.19
  -5  -4 -11   22.53    2.07
   5   4  11   23.42    2.07
   5   4  11   22.63    2.10
   5   4  11   26.97    2.24
  -6  -4 -11    4.22    1.13
  -6  -4 -11    1.45    0.72
   6   4  11    3.52    1.12
   6   4  11    2.32    1.00
   6   4  11    3.49    1.13
   6   4  11    2.59    0.99
  -7  -4 -11    1.12    0.93
  -7  -4 -11    0.47    0.60
   7   4  11    1.81    1.03
   7   4  11    1.87    1.07
   7   4  11    0.96    1.07
  -8  -4 -11    4.67    1.36
  -8  -4 -11    0.61    0.70
   8   4  11    2.74    1.27
   8   4  11    2.93    1.23
   9   4  11    4.36    1.53
   9   4  11    4.06    1.38
   2  -5 -11    2.35    1.23
  -2   5  11    2.74    1.53
   1  -5 -11    2.86    1.11
   1  -5 -11    3.87    1.29
  -1   5  11    3.22    1.39
  -1   5  11    3.06    1.18
   0  -5 -11   -0.42    0.61
   0  -5 -11    0.13    0.69
   0   5  11    0.79    0.94
   0   5  11    0.25    0.89
   0   5  11   -0.14    0.69
  -1  -5 -11   16.71    2.10
  -1  -5 -11    9.48    1.66
   1   5  11   17.48    2.32
   1   5  11   18.94    2.09
  -2  -5 -11    5.45    1.31
  -2  -5 -11    2.52    0.90
   2   5  11    4.81    1.10
   2   5  11    5.59    1.50
   2   5  11    1.03    0.75
   2   5  11    3.61    1.04
  -3  -5 -11    5.62    1.18
  -3  -5 -11    6.18    1.31
  -3  -5 -11    5.38    1.24
   3   5  11    4.20    1.05
   3   5  11    6.07    1.35
   3   5  11    2.92    1.03
   3   5  11    8.20    1.33
  -4  -5 -11    3.14    0.97
  -4  -5 -11    4.16    1.10
  -4  -5 -11    2.86    1.03
   4   5  11    4.87    1.15
   4   5  11    5.90    1.21
   4   5  11    3.80    1.17
   4   5  11    5.94    1.24
  -5  -5 -11   14.76    1.71
  -5  -5 -11    9.46    1.51
  -5  -5 -11   16.00    1.98
   5   5  11   17.73    1.91
   5   5  11   12.40    1.76
   5   5  11   15.13    1.88
   5   5  11   15.44    2.11
  -6  -5 -11    0.97    0.71
  -6  -5 -11    1.99    0.96
  -6  -5 -11    3.46    1.11
   6   5  11    2.27    1.03
   6   5  11    1.97    0.98
   6   5  11    2.54    0.99
  -7  -5 -11    3.64    1.17
  -7  -5 -11    1.49    0.76
   7   5  11    0.96    0.91
   7   5  11    2.54    1.27
   7   5  11    3.83    1.15
  -8  -5 -11    1.21    0.68
   8   5  11    3.63    1.32
   8   5  11    4.12    1.30
  -9  -5 -11    1.50    0.84
   9   5  11    3.35    1.48
   9   5  11    5.66    1.66
   1  -6 -11    2.81    1.30
  -1   6  11    1.70    1.07
   0  -6 -11    6.48    1.60
   0  -6 -11    4.12    1.18
   0   6  11    6.45    1.52
   0   6  11    1.84    1.11
  -1  -6 -11    1.10    0.87
  -1  -6 -11    1.34    0.79
   1   6  11    3.05    1.21
   1   6  11    1.30    1.04
   1   6  11    1.03    0.82
  -2  -6 -11    6.99    1.32
  -2  -6 -11    4.19    1.15
   2   6  11   10.68    1.59
   2   6  11    5.39    1.12
  -3  -6 -11   19.56    2.34
  -3  -6 -11   23.21    2.45
   3   6  11   16.25    1.95
   3   6  11   22.25    2.25
   3   6  11   14.81    2.02
  -4  -6 -11    0.22    0.71
  -4  -6 -11    0.85    0.79
  -4  -6 -11    0.32    0.59
   4   6  11    0.08    0.81
   4   6  11    1.46    1.03
   4   6  11    1.37    0.96
   4   6  11    1.14    0.90
  -5  -6 -11   11.43    1.68
  -5  -6 -11    9.62    1.62
  -5  -6 -11    5.92    1.23
   5   6  11   11.47    1.64
   5   6  11   13.50    1.97
   5   6  11   12.11    1.70
  -6  -6 -11    2.11    0.82
  -6  -6 -11    5.76    1.30
  -6  -6 -11    4.14    1.11
   6   6  11    5.49    1.38
   6   6  11    5.09    1.21
   6   6  11    5.16    1.24
  -7  -6 -11    3.76    1.22
  -7  -6 -11    2.01    0.92
  -7  -6 -11    4.86    1.19
   7   6  11    4.44    1.21
  -8  -6 -11   -0.03    0.64
   8   6  11   -0.24    0.95
   9   6  11    3.57    1.33
   9   6  11    2.47    1.47
   0  -7 -11    4.20    1.39
   0   7  11    5.70    1.75
   0   7  11    2.72    1.39
   0   7  11    6.21    1.82
  -1  -7 -11   -0.35    0.73
  -1  -7 -11   -0.13    0.92
   1   7  11   -0.48    1.02
   1   7  11    0.34    1.04
   1   7  11    0.74    0.99
  -2  -7 -11   -0.33    0.52
  -2  -7 -11    0.51    0.71
   2   7  11    0.17    0.78
   2   7  11    1.44    1.09
  -3  -7 -11   10.88    1.71
  -3  -7 -11   10.84    1.69
   3   7  11   10.17    1.70
   3   7  11   14.61    1.84
  -4  -7 -11    8.96    1.69
  -4  -7 -11   10.21    1.76
  -4  -7 -11   17.88    2.29
   4   7  11   11.43    1.92
   4   7  11   15.17    1.93
   4   7  11    9.24    1.57
  -5  -7 -11   -0.18    0.73
  -5  -7 -11   -0.13    0.67
  -5  -7 -11    1.79    1.05
   5   7  11    0.43    0.99
   5   7  11    0.56    0.88
   5   7  11    1.19    0.90
  -6  -7 -11    4.82    1.42
  -6  -7 -11    3.41    1.17
  -6  -7 -11    2.46    1.02
   6   7  11    2.20    1.06
   6   7  11    4.21    1.31
   6   7  11    2.30    1.16
  -7  -7 -11    6.47    1.41
  -7  -7 -11   12.79    1.80
   7   7  11    9.09    1.68
   7   7  11   10.23    1.74
  -8  -7 -11   -0.09    0.85
  -8  -7 -11    0.77    1.00
   8   7  11   -1.34    0.91
   1   8  11   10.17    2.22
  -2  -8 -11    0.69    0.99
  -2  -8 -11    3.07    1.32
   2   8  11    2.42    1.30
   2   8  11    0.52    1.05
  -3  -8 -11    8.41    1.61
  -3  -8 -11   10.12    1.86
   3   8  11    6.20    1.48
   3   8  11    5.31    1.56
  -4  -8 -11    2.54    1.20
  -4  -8 -11    3.43    1.37
   4   8  11    5.36    1.47
   4   8  11    3.65    1.15
   4   8  11    5.32    1.54
  -5  -8 -11    0.48    1.01
  -5  -8 -11    0.71    1.06
  -5  -8 -11    2.25    1.15
   5   8  11    3.18    1.28
   5   8  11   -0.35    1.03
   5   8  11    1.01    1.00
  -6  -8 -11    3.34    1.21
  -6  -8 -11    4.25    1.27
  -6  -8 -11    5.64    1.55
   6   8  11    2.48    1.17
   6   8  11    4.80    1.43
   6   8  11    3.95    1.40
  -7  -8 -11    8.07    1.65
  -7  -8 -11    8.88    1.74
   7   8  11    9.59    1.71
   7   8  11    8.41    1.66
  -8  -8 -11    5.03    1.46
  -8  -8 -11    2.41    1.36
  -3  -9 -11    1.33    1.29
  -3  -9 -11    0.20    0.96
   3   9  11    0.81    1.40
  -4  -9 -11    3.32    1.38
  -4  -9 -11    1.31    1.28
   4   9  11    1.80    1.40
   4   9  11    0.68    0.99
  -5  -9 -11    8.72    1.96
  -5  -9 -11   12.62    2.19
  -5  -9 -11    8.41    1.85
   5   9  11    7.00    1.58
   5   9  11    7.51    1.91
   5   9  11   10.79    2.10
  -6  -9 -11    1.84    1.33
  -6  -9 -11    2.65    1.49
   6   9  11    1.46    1.24
   6   9  11    2.87    1.47
  -7  -9 -11    1.27    1.42
  -7  -9 -11    3.13    1.43
   7   9  11    3.16    1.45
   7   9  11    0.00    1.22
   1   5 -12    3.11    1.30
   1   5 -12    0.91    1.10
  -1  -5  12    1.11    1.41
  -1  -5  12    1.87    1.36
  -1  -5  12    1.03    1.21
   0   5 -12    2.78    1.19
   0   5 -12    0.50    0.85
   0  -5  12    3.49    1.46
   0  -5  12    0.90    1.14
   0  -5  12    4.04    1.58
  -1   5 -12    1.39    1.15
  -1   5 -12    1.96    1.11
   1  -5  12    0.70    1.26
   1  -5  12    0.52    1.09
   1  -5  12   -0.41    1.23
  -2   5 -12    0.85    1.10
  -2   5 -12    0.33    1.00
  -2   5 -12    0.46    1.19
   2  -5  12    1.94    1.39
   2  -5  12    1.08    1.18
   2  -5  12   -0.05    1.20
   2   4 -12    0.88    1.08
   2   4 -12    0.32    1.07
  -2  -4  12    1.01    1.00
  -2  -4  12    1.55    1.53
  -2  -4  12   -0.57    1.26
   1   4 -12    1.29    1.14
   1   4 -12    1.12    1.00
  -1  -4  12    0.98    1.04
  -1  -4  12    0.15    1.22
  -1  -4  12    0.38    1.23
   0   4 -12    0.11    0.90
   0   4 -12    1.78    1.02
   0  -4  12    3.25    1.27
   0  -4  12    2.02    1.07
   0  -4  12    1.97    1.28
  -1   4 -12    0.82    0.93
  -1   4 -12    0.97    0.95
  -1   4 -12    0.75    1.06
   1  -4  12    1.90    1.09
   1  -4  12    2.30    1.25
  -2   4 -12    1.81    1.11
  -2   4 -12    1.82    1.05
  -2   4 -12    2.20    1.19
   2  -4  12    1.37    1.13
   2  -4  12    2.40    1.26
  -3   4 -12    2.76    1.19
  -3   4 -12    2.44    1.22
  -3   4 -12    2.60    1.19
   3  -4  12    2.67    1.26
   3  -4  12    3.83    1.40
  -4   4 -12    0.32    0.86
  -4   4 -12    1.95    1.07
  -4   4 -12    1.33    1.25
   4  -4  12    1.20    1.27
   4  -4  12    0.59    1.25
   3   3 -12   -0.06    1.15
   3   3 -12    0.01    0.84
  -3  -3  12   -0.71    1.36
   2   3 -12    3.77    1.24
   2   3 -12    3.57    1.26
   2   3 -12    4.67    1.20
  -2  -3  12    3.28    1.72
  -2  -3  12    3.68    1.43
   1   3 -12    3.93    1.20
   1   3 -12    3.56    1.15
  -1  -3  12    5.11    1.43
  -1  -3  12    3.83    1.39
   0   3 -12   -0.06    0.74
   0   3 -12    0.49    0.84
   0  -3  12   -0.44    0.96
   0  -3  12    1.22    1.15
  -1   3 -12    0.99    0.82
  -1   3 -12   -0.14    0.78
  -1   3 -12    0.20    0.77
   1  -3  12   -0.58    0.94
   1  -3  12    1.42    0.96
  -2   3 -12    3.49    1.17
   2  -3  12    0.89    1.06
   2  -3  12    3.09    1.33
  -3   3 -12    2.08    1.06
  -3   3 -12    4.12    1.25
   3  -3  12    2.25    1.24
   3  -3  12    3.16    1.36
  -4   3 -12    0.22    0.91
  -4   3 -12   -0.20    0.65
   4  -3  12    1.35    1.17
   4  -3  12   -0.35    0.76
  -5   3 -12    1.54    1.37
  -5   3 -12    0.96    1.08
   5  -3  12    0.64    1.18
   5  -3  12    1.09    1.17
   2   2 -12    6.59    1.29
   2   2 -12   11.92    1.89
  -2  -2  12    7.18    1.60
  -2  -2  12    8.39    1.87
   1   2 -12    0.41    0.77
   1   2 -12    1.74    0.97
  -1  -2  12   -0.11    1.06
  -1  -2  12   -0.89    0.97
  -1  -2  12    0.48    0.99
   0   2 -12   -0.47    0.69
   0   2 -12   -0.56    0.67
   0   2 -12   -0.26    0.71
   0  -2  12    0.81    1.03
   0  -2  12   -0.44    1.03
   0  -2  12    0.10    0.97
  -1   2 -12    2.27    0.94
  -1   2 -12    1.12    0.97
   1  -2  12    0.51    0.98
   1  -2  12    1.29    1.10
   1  -2  12    2.98    1.28
  -2   2 -12    7.94    1.56
  -2   2 -12    7.16    1.40
   2  -2  12    8.36    1.57
   2  -2  12    6.49    1.37
   2  -2  12    5.76    1.38
  -3   2 -12    2.75    1.05
  -3   2 -12    1.42    1.01
   3  -2  12    1.95    1.15
   3  -2  12    0.77    0.95
   3  -2  12    1.88    1.03
  -4   2 -12    0.59    0.92
  -4   2 -12    0.82    0.91
   4  -2  12   -0.43    1.08
   4  -2  12    0.04    1.02
  -5   2 -12    2.91    1.23
  -5   2 -12    2.31    1.15
   5  -2  12    1.24    1.16
   5  -2  12    1.80    1.22
  -6   2 -12    0.56    1.15
   6  -2  12   -0.29    1.11
   6  -2  12    0.10    0.96
   1   1 -12    0.07    0.86
   1   1 -12    0.55    0.78
   1   1 -12    0.07    0.73
  -1  -1  12   -1.07    0.77
  -1  -1  12    0.70    1.06
   0   1 -12    8.59    1.57
   0   1 -12   11.91    1.68
   0  -1  12   11.19    1.78
   0  -1  12    8.12    1.49
   0  -1  12    8.95    1.67
  -1   1 -12    1.26    0.91
  -1   1 -12    2.04    0.89
   1  -1  12    0.98    1.13
   1  -1  12    1.10    1.00
   1  -1  12    2.07    1.06
  -2   1 -12   20.79    2.32
  -2   1 -12   21.96    2.00
   2  -1  12   11.97    1.86
   2  -1  12   15.67    2.11
   2  -1  12   20.83    2.20
  -3   1 -12    0.88    0.89
  -3   1 -12    0.21    0.69
   3  -1  12   -0.23    0.81
   3  -1  12    0.27    0.97
   3  -1  12    0.67    0.89
  -4   1 -12    7.83    1.53
  -4   1 -12    4.94    1.19
   4  -1  12    4.89    1.41
   4  -1  12    4.72    1.31
   4  -1  12    4.72    1.30
  -5   1 -12    6.66    1.42
   5  -1  12    8.01    1.61
   5  -1  12    8.18    1.62
   5  -1  12    5.57    1.54
  -6   1 -12    2.82    1.17
  -6   1 -12    2.67    1.25
   6  -1  12    2.49    1.21
   6  -1  12    2.04    1.28
   7  -1  12    0.79    1.31
   1   0 -12    0.91    0.83
   1   0 -12    1.43    0.96
  -1   0  12    1.15    1.09
  -1   0  12    1.21    1.21
  -1   0  12    0.88    1.10
   0   0 -12    6.43    1.29
   0   0 -12    4.88    1.26
   0   0  12    5.07    1.46
   0   0  12    3.49    1.30
   0   0  12    6.78    1.41
  -1   0 -12    1.25    0.82
  -1   0 -12    1.62    0.95
   1   0  12    0.16    0.80
   1   0  12    1.21    0.95
   1   0  12    0.52    0.90
  -2   0 -12    1.49    0.87
  -2   0 -12    1.27    0.81
  -2   0 -12    1.01    0.83
   2   0  12    1.44    0.89
   2   0  12   -0.07    0.86
   2   0  12    0.63    0.97
  -3   0 -12    2.37    1.00
  -3   0 -12    2.12    0.93
  -3   0 -12    2.69    0.96
   3   0  12    2.00    1.05
   3   0  12    0.55    0.86
   3   0  12    1.58    0.96
  -4   0 -12   19.16    1.93
  -4   0 -12   20.65    2.27
  -4   0 -12   20.68    2.42
   4   0  12   22.40    2.46
   4   0  12   18.04    2.22
   4   0  12   17.98    2.07
  -5   0 -12    1.36    0.95
  -5   0 -12    0.40    0.73
  -5   0 -12    1.83    1.02
   5   0  12    1.82    1.07
   5   0  12    2.06    1.16
   5   0  12    1.77    1.08
  -6   0 -12    0.17    0.89
  -6   0 -12    0.50    0.99
  -6   0 -12    0.44    0.85
   6   0  12    0.57    1.16
   6   0  12    0.07    1.08
   6   0  12    0.56    1.01
  -7   0 -12    0.63    0.82
  -7   0 -12    1.71    1.12
   7   0  12    2.11    1.39
   7   0  12    1.35    1.25
   2  -1 -12    0.03    0.94
  -2   1  12    0.48    1.45
  -2   1  12   -0.47    0.98
   1  -1 -12    2.39    1.13
   1  -1 -12    2.51    1.00
   1  -1 -12    2.29    1.10
  -1   1  12    2.57    1.25
  -1   1  12    1.45    1.28
  -1   1  12    2.18    1.33
   0  -1 -12   11.46    1.75
   0  -1 -12   11.03    1.78
   0   1  12   11.16    1.89
   0   1  12   11.31    1.82
   0   1  12    9.59    1.61
  -1  -1 -12    0.80    0.82
  -1  -1 -12    1.25    0.76
   1   1  12    0.43    0.88
   1   1  12   -0.89    0.80
   1   1  12    0.82    0.91
  -2  -1 -12    1.07    0.93
  -2  -1 -12    1.69    0.81
   2   1  12    1.19    0.95
   2   1  12    0.80    0.84
   2   1  12    0.47    0.88
  -3  -1 -12    0.84    0.72
  -3  -1 -12    0.32    0.75
  -3  -1 -12    0.34    0.73
   3   1  12    2.05    0.93
   3   1  12    0.43    0.93
   3   1  12    0.48    0.81
  -4  -1 -12   16.43    2.00
  -4  -1 -12   12.86    1.80
  -4  -1 -12   18.17    2.21
   4   1  12   16.99    2.08
   4   1  12   11.79    1.85
   4   1  12   15.24    1.82
  -5  -1 -12   -0.43    0.80
  -5  -1 -12    0.27    0.82
  -5  -1 -12    0.25    0.81
   5   1  12    0.11    0.86
   5   1  12   -0.44    0.82
   5   1  12    0.80    1.05
  -6  -1 -12   -0.78    0.91
  -6  -1 -12    1.00    1.00
  -6  -1 -12    0.06    0.76
   6   1  12   -0.37    0.97
   6   1  12   -0.96    0.75
   6   1  12    0.23    1.02
  -7  -1 -12    0.69    1.07
  -7  -1 -12   -0.62    0.93
   7   1  12    0.15    0.98
   7   1  12    0.37    1.11
   2  -2 -12   -0.19    1.00
   2  -2 -12    0.03    0.97
   2  -2 -12    0.11    0.99
  -2   2  12   -0.08    1.21
  -2   2  12    0.62    1.37
   1  -2 -12    0.41    1.04
   1  -2 -12    0.39    0.93
  -1   2  12   -0.21    1.20
  -1   2  12    0.13    1.04
  -1   2  12   -0.57    0.87
   0  -2 -12    2.96    1.16
   0  -2 -12    4.86    1.26
   0   2  12    3.80    1.53
   0   2  12    6.22    1.50
   0   2  12    5.84    1.49
   0   2  12    5.41    1.25
  -1  -2 -12    4.67    1.23
  -1  -2 -12    3.77    1.14
   1   2  12    3.71    1.37
   1   2  12    4.87    1.27
   1   2  12    2.44    1.13
   1   2  12    2.78    1.02
  -2  -2 -12    9.55    1.52
  -2  -2 -12   10.74    1.70
   2   2  12    7.35    1.43
   2   2  12    8.52    1.44
   2   2  12    7.75    1.65
   2   2  12    5.64    1.31
  -3  -2 -12   -0.03    0.72
  -3  -2 -12    0.36    0.68
   3   2  12   -0.50    0.94
   3   2  12    1.87    0.93
   3   2  12   -0.66    0.64
  -4  -2 -12   17.58    2.16
  -4  -2 -12   18.87    2.09
   4   2  12   15.27    2.02
   4   2  12   19.32    2.12
   4   2  12   15.89    1.96
   4   2  12   15.06    2.00
  -5  -2 -12    1.53    0.96
  -5  -2 -12    1.60    0.96
  -5  -2 -12    1.98    0.94
   5   2  12    0.92    1.10
   5   2  12    0.89    0.90
   5   2  12    0.62    0.88
   5   2  12    0.52    1.12
  -6  -2 -12    0.83    0.95
  -6  -2 -12    1.88    1.06
  -6  -2 -12    0.53    0.80
   6   2  12    1.72    1.13
   6   2  12    1.67    1.04
   6   2  12    0.87    0.96
  -7  -2 -12   -0.04    0.90
  -7  -2 -12    0.54    0.94
  -7  -2 -12    0.74    0.93
   7   2  12    0.31    1.11
   7   2  12    0.88    1.08
   7   2  12    0.35    0.98
  -8  -2 -12    5.64    1.39
  -8  -2 -12   10.18    1.93
   8   2  12    6.95    1.54
   8   2  12    9.81    1.92
   2  -3 -12    0.21    1.26
   2  -3 -12    0.16    0.90
  -2   3  12    1.58    1.41
  -2   3  12   -1.46    1.59
   1  -3 -12    9.15    1.79
   1  -3 -12   19.90    2.53
  -1   3  12    9.07    2.00
  -1   3  12   12.30    1.90
  -1   3  12    8.54    2.07
   0  -3 -12    2.96    1.25
   0  -3 -12    2.13    1.09
   0  -3 -12    1.34    1.01
   0   3  12    1.19    1.25
   0   3  12    1.27    1.05
   0   3  12    1.05    0.99
  -1  -3 -12    2.64    1.13
  -1  -3 -12    0.62    0.86
   1   3  12    3.09    1.11
   1   3  12    2.50    1.32
   1   3  12    2.35    1.04
   1   3  12    2.51    1.06
  -2  -3 -12   14.45    1.91
  -2  -3 -12   14.38    1.91
   2   3  12    6.94    1.34
   2   3  12   11.15    1.93
   2   3  12   10.86    1.61
   2   3  12    9.64    1.56
  -3  -3 -12   14.66    1.95
  -3  -3 -12   13.08    1.76
   3   3  12   12.76    2.02
   3   3  12    7.81    1.54
   3   3  12   13.18    1.72
   3   3  12   11.95    1.66
  -4  -3 -12    1.22    0.79
  -4  -3 -12   -0.01    0.70
   4   3  12    0.90    0.95
   4   3  12   -0.51    0.61
   4   3  12    0.04    0.80
  -5  -3 -12    2.38    0.97
  -5  -3 -12    5.62    1.31
   5   3  12    5.87    1.32
   5   3  12    6.54    1.25
   5   3  12    3.87    1.39
   5   3  12    3.99    1.25
  -6  -3 -12    9.44    1.53
  -6  -3 -12   12.17    1.82
   6   3  12   11.18    1.65
   6   3  12   10.22    1.80
   6   3  12   11.29    1.81
   6   3  12    9.22    1.65
  -7  -3 -12    0.87    0.80
  -7  -3 -12    2.56    1.22
  -7  -3 -12    0.95    1.01
   7   3  12    1.41    1.19
   7   3  12    1.95    1.04
   7   3  12    1.54    1.06
  -8  -3 -12    1.60    1.15
  -8  -3 -12    0.14    0.69
   8   3  12    0.23    1.08
   8   3  12    1.36    1.28
   1  -4 -12    2.44    1.00
   1  -4 -12    5.74    1.60
  -1   4  12    7.11    1.72
  -1   4  12    4.87    1.76
   0  -4 -12    1.72    1.07
   0  -4 -12    2.68    1.28
   0   4  12    1.65    1.27
   0   4  12    1.54    1.18
   0   4  12    0.31    0.96
  -1  -4 -12    1.95    1.07
  -1  -4 -12    1.26    0.86
  -1  -4 -12    1.00    0.93
   1   4  12    0.70    0.86
   1   4  12   -0.08    0.75
  -2  -4 -12    5.68    1.37
  -2  -4 -12    6.15    1.34
  -2  -4 -12    9.15    1.58
   2   4  12    6.47    1.67
   2   4  12    7.95    1.44
   2   4  12    3.49    0.97
   2   4  12    6.55    1.31
  -3  -4 -12    7.10    1.37
  -3  -4 -12   10.20    1.63
   3   4  12    8.99    1.41
   3   4  12    5.80    1.25
   3   4  12    9.96    1.75
   3   4  12    3.77    1.05
  -4  -4 -12    1.01    0.73
  -4  -4 -12    0.89    0.74
   4   4  12    1.37    1.01
   4   4  12    1.09    0.84
   4   4  12    0.20    0.81
   4   4  12    1.12    0.97
  -5  -4 -12    1.01    0.95
  -5  -4 -12    0.42    0.64
   5   4  12    0.42    0.92
   5   4  12    0.19    0.73
   5   4  12    0.20    0.82
  -6  -4 -12    3.99    1.24
  -6  -4 -12    1.69    0.82
   6   4  12    2.53    1.06
   6   4  12    3.95    1.16
  -7  -4 -12    5.92    1.44
  -7  -4 -12    2.38    0.85
   7   4  12    6.44    1.45
   7   4  12    5.49    1.38
   7   4  12    7.97    1.66
  -8  -4 -12   -0.17    0.53
  -8  -4 -12   -0.42    0.99
   8   4  12   -2.04    1.11
   8   4  12    0.30    1.21
   1  -5 -12    1.69    1.23
  -1   5  12    1.87    1.21
   0  -5 -12    0.71    0.71
   0  -5 -12    1.73    0.99
   0   5  12   -0.09    1.10
   0   5  12    1.58    1.17
   0   5  12    0.90    0.88
  -1  -5 -12    8.93    1.62
  -1  -5 -12   10.81    1.78
   1   5  12    9.39    1.90
   1   5  12   12.75    1.92
  -2  -5 -12    0.56    0.97
  -2  -5 -12    1.43    0.99
  -2  -5 -12    0.40    0.77
   2   5  12    0.74    0.92
   2   5  12    0.02    0.64
  -3  -5 -12   11.42    1.74
  -3  -5 -12   11.57    1.84
  -3  -5 -12    5.37    1.17
   3   5  12   10.68    1.51
   3   5  12   10.11    1.64
  -4  -5 -12    4.37    1.25
  -4  -5 -12    6.11    1.28
  -4  -5 -12    1.90    0.76
   4   5  12    1.66    1.01
   4   5  12    3.18    1.05
   4   5  12    3.95    1.18
  -5  -5 -12    3.00    1.07
  -5  -5 -12    1.08    0.70
   5   5  12    2.92    1.10
   5   5  12    2.98    1.21
   5   5  12    3.90    1.16
  -6  -5 -12    3.70    1.18
  -6  -5 -12    1.64    0.73
   6   5  12    3.48    1.21
   6   5  12    3.71    1.15
  -7  -5 -12    1.16    1.17
  -7  -5 -12    0.20    0.63
   7   5  12    1.18    0.95
   7   5  12    3.05    1.19
  -8  -5 -12    0.28    0.57
  -8  -5 -12    0.17    1.32
   8   5  12    0.24    1.28
   8   5  12    2.45    1.36
   0  -6 -12    1.09    1.10
   0   6  12    2.70    1.47
   0   6  12    0.82    1.21
  -1  -6 -12    4.62    1.27
   1   6  12    8.39    1.79
   1   6  12   10.18    1.91
   1   6  12   10.51    1.94
  -2  -6 -12    0.58    0.66
  -2  -6 -12    2.45    1.01
   2   6  12    0.90    1.03
   2   6  12    0.06    0.64
  -4  -6 -12    6.79    1.39
  -4  -6 -12    3.45    0.98
  -4  -6 -12    5.18    1.36
   4   6  12    3.05    1.21
   4   6  12    5.79    1.35
   4   6  12    4.18    1.11
  -5  -6 -12   17.72    2.26
  -5  -6 -12   17.49    2.13
   5   6  12   15.14    2.29
   5   6  12   14.28    1.98
   5   6  12   16.02    2.05
  -6  -6 -12   -0.33    0.80
  -6  -6 -12    0.01    0.55
  -6  -6 -12    0.33    0.85
   6   6  12    0.52    1.02
   6   6  12    0.50    0.95
   6   6  12   -0.15    0.93
  -7  -6 -12    0.59    0.61
  -7  -6 -12    3.68    1.30
   7   6  12    2.16    1.11
   7   6  12    2.59    1.19
  -8  -6 -12    0.06    0.59
   8   6  12    2.74    1.29
  -1  -7 -12    2.90    1.36
   1   7  12    6.65    1.75
  -2  -7 -12    1.28    0.98
  -2  -7 -12    0.85    1.05
   2   7  12    2.18    1.32
   2   7  12    2.99    1.29
  -3  -7 -12    2.95    1.01
  -3  -7 -12    4.78    1.21
   3   7  12    5.20    1.26
   3   7  12    3.31    1.17
  -4  -7 -12    0.41    0.98
  -4  -7 -12   -0.39    0.63
  -4  -7 -12   -0.43    0.93
   4   7  12   -0.51    0.99
   4   7  12    0.82    1.00
   4   7  12    0.98    1.09
  -5  -7 -12   18.54    2.35
  -5  -7 -12   16.40    2.19
   5   7  12   12.20    1.86
   5   7  12   12.96    2.20
   5   7  12   23.22    2.47
  -6  -7 -12    3.27    1.17
  -6  -7 -12    0.33    0.71
  -6  -7 -12    2.21    1.20
   6   7  12    3.57    1.36
   6   7  12    0.53    1.14
   6   7  12    1.92    1.12
  -7  -7 -12    0.79    0.89
  -7  -7 -12    2.69    1.13
   7   7  12    0.74    1.16
   7   7  12    1.78    1.15
  -3  -8 -12    3.23    1.27
  -3  -8 -12    7.34    1.66
   3   8  12    4.91    1.44
   3   8  12    5.64    1.42
  -4  -8 -12   -0.45    0.87
  -4  -8 -12    0.74    1.17
  -4  -8 -12    0.69    1.04
   4   8  12    0.61    1.02
   4   8  12   -1.16    1.12
  -5  -8 -12    0.26    1.06
  -5  -8 -12   -0.17    1.14
  -5  -8 -12    0.36    0.86
   5   8  12   -0.27    0.90
   5   8  12    0.55    1.19
   5   8  12    0.45    1.35
  -6  -8 -12    1.78    1.24
  -6  -8 -12    3.01    1.35
  -6  -8 -12    0.36    0.98
   6   8  12    2.88    1.28
   6   8  12    2.05    1.51
   6   8  12    0.39    1.15
  -7  -8 -12    4.97    1.39
   7   8  12    3.60    1.48
   0   4 -13    0.08    1.10
   0  -4  13    1.62    1.47
  -1   4 -13    1.89    1.20
   1  -4  13    1.97    1.46
   1  -4  13    1.80    1.23
  -2   4 -13    0.99    1.31
   1   3 -13    0.65    1.07
   1   3 -13   -0.22    0.97
  -1  -3  13    0.56    1.39
  -1  -3  13   -0.32    1.28
   0   3 -13    3.65    1.24
   0   3 -13    4.29    1.30
   0  -3  13    3.35    1.46
   0  -3  13    2.91    1.39
  -1   3 -13    5.37    1.40
  -1   3 -13    2.26    1.12
  -1   3 -13    4.77    1.34
   1  -3  13    3.98    1.49
   1  -3  13    5.08    1.42
  -2   3 -13   -0.09    0.89
  -2   3 -13   -0.08    0.92
   2  -3  13   -0.33    1.13
   2  -3  13   -1.01    1.14
  -3   3 -13    0.22    1.05
  -3   3 -13    0.33    1.01
   3  -3  13    1.16    1.32
   3  -3  13    1.91    1.39
  -4   3 -13    1.30    1.02
  -4   3 -13    0.30    0.95
   4  -3  13    1.71    1.43
   2   2 -13    2.57    1.25
  -2  -2  13    2.82    1.91
   1   2 -13    0.02    0.95
   1   2 -13    0.74    0.95
  -1  -2  13    0.82    1.27
  -1  -2  13    1.40    1.36
  -1  -2  13    3.00    1.52
   0   2 -13    8.33    1.60
   0   2 -13    7.64    1.53
   0  -2  13    7.88    1.74
   0  -2  13    7.21    1.73
   0  -2  13    9.49    1.85
  -1   2 -13    0.05    0.80
  -1   2 -13    0.51    0.97
   1  -2  13    0.94    1.21
   1  -2  13   -0.25    1.02
   1  -2  13   -1.41    1.00
  -2   2 -13    1.60    1.05
  -2   2 -13    1.52    1.03
   2  -2  13    2.06    1.29
   2  -2  13    0.66    0.93
   2  -2  13    1.26    1.03
  -3   2 -13    5.42    1.35
  -3   2 -13    4.10    1.38
   3  -2  13    3.20    1.28
   3  -2  13    3.27    1.46
  -4   2 -13    2.81    1.27
  -4   2 -13    2.25    1.17
   4  -2  13    1.08    1.30
   4  -2  13    0.67    1.01
  -5   2 -13    1.41    1.20
   5  -2  13    0.35    1.32
   5  -2  13    0.97    1.40
   1   1 -13    0.43    0.91
   1   1 -13   -0.62    0.93
  -1  -1  13    0.47    1.30
  -1  -1  13    1.26    1.42
   0   1 -13   -0.61    0.76
   0   1 -13    0.41    0.93
   0  -1  13   -1.12    1.19
   0  -1  13   -0.60    1.02
   0  -1  13    1.23    1.12
  -1   1 -13   -0.15    0.96
  -1   1 -13    0.48    0.83
   1  -1  13    0.22    1.12
   1  -1  13    0.07    1.20
   1  -1  13    0.53    1.02
  -2   1 -13    8.35    1.58
  -2   1 -13   12.00    1.92
   2  -1  13   10.17    1.77
   2  -1  13    9.89    1.65
   2  -1  13    8.36    1.58
  -3   1 -13    1.60    0.95
  -3   1 -13    0.73    1.00
   3  -1  13    0.71    1.16
   3  -1  13    2.22    1.04
   3  -1  13    1.65    1.04
  -4   1 -13    4.54    1.27
  -4   1 -13    4.22    1.41
   4  -1  13    3.10    1.29
   4  -1  13    4.13    1.34
   4  -1  13    3.23    1.42
  -5   1 -13    0.80    1.11
  -5   1 -13    0.48    1.04
   5  -1  13    1.24    1.20
   5  -1  13   -0.12    1.22
   5  -1  13    1.29    1.20
  -6   1 -13    4.54    1.41
   6  -1  13    2.94    1.44
   1   0 -13    1.01    1.03
   1   0 -13    0.60    1.00
  -1   0  13    0.55    1.15
  -1   0  13    2.02    1.51
   0   0 -13   -0.57    0.83
   0   0 -13    1.37    1.01
   0   0  13    0.39    1.03
   0   0  13   -0.70    0.97
  -1   0 -13    4.36    1.21
  -1   0 -13    3.27    1.19
   1   0  13    1.85    1.17
   1   0  13    3.98    1.36
  -2   0 -13    4.10    1.28
  -2   0 -13    1.97    0.97
   2   0  13    2.96    1.33
   2   0  13    1.96    1.08
   2   0  13    1.01    1.07
  -3   0 -13    0.26    0.75
  -3   0 -13    1.25    1.06
   3   0  13    0.71    0.88
   3   0  13    1.20    0.93
   3   0  13    0.59    1.14
  -4   0 -13   -0.57    0.86
  -4   0 -13   -0.90    0.69
   4   0  13    0.96    0.98
   4   0  13    0.07    0.95
   4   0  13    0.28    1.15
  -5   0 -13    3.30    1.16
  -5   0 -13    2.62    1.25
   5   0  13    3.21    1.26
   5   0  13    0.93    1.10
   5   0  13    1.93    1.33
  -6   0 -13    3.75    1.35
  -6   0 -13    2.27    1.20
  -6   0 -13    4.64    1.47
   6   0  13    4.63    1.44
   6   0  13    4.26    1.48
   6   0  13    4.74    1.65
   1  -1 -13    0.68    0.96
   1  -1 -13    1.64    1.15
  -1   1  13    0.46    1.33
  -1   1  13    0.97    1.26
   0  -1 -13    0.58    0.87
   0  -1 -13    0.56    0.96
   0   1  13    1.68    1.21
   0   1  13    1.24    1.16
   0   1  13    2.08    1.15
  -1  -1 -13    0.43    0.76
  -1  -1 -13    0.64    0.94
  -1  -1 -13    0.66    0.81
   1   1  13    0.60    1.04
   1   1  13    0.52    1.11
   1   1  13   -1.08    0.85
  -2  -1 -13   17.32    2.20
  -2  -1 -13   14.62    1.94
  -2  -1 -13   10.24    1.70
   2   1  13   10.89    1.74
   2   1  13   12.17    1.88
  -3  -1 -13    2.21    1.11
  -3  -1 -13    3.71    1.16
  -3  -1 -13    1.96    0.87
   3   1  13    0.01    0.82
   3   1  13    1.15    1.16
   3   1  13    1.00    0.91
  -4  -1 -13    2.62    1.03
  -4  -1 -13    1.92    1.12
  -4  -1 -13    1.32    0.94
   4   1  13    0.19    0.82
   4   1  13   -0.53    1.06
   4   1  13   -0.63    0.81
  -5  -1 -13    0.91    0.98
  -5  -1 -13    0.93    0.93
  -5  -1 -13    1.13    1.03
   5   1  13    1.71    1.12
   5   1  13    2.24    1.07
   5   1  13    0.09    1.28
  -6  -1 -13    9.72    1.77
  -6  -1 -13   10.72    1.83
  -6  -1 -13    9.31    1.84
   6   1  13    7.72    1.67
   6   1  13   11.46    1.94
   6   1  13   11.42    2.07
  -7  -1 -13    0.24    1.17
  -7  -1 -13    1.24    1.16
   7   1  13    0.39    1.20
   7   1  13    0.72    1.37
   1  -2 -13    2.04    1.22
   1  -2 -13    1.35    1.14
  -1   2  13    0.92    1.50
  -1   2  13    2.27    1.69
   0  -2 -13    5.16    1.40
   0  -2 -13    4.32    1.37
   0   2  13    3.16    1.33
   0   2  13    4.61    1.70
  -1  -2 -13    0.80    1.00
  -1  -2 -13    1.34    0.96
   1   2  13    0.42    1.01
   1   2  13    0.34    1.00
   1   2  13    0.36    1.06
  -2  -2 -13    1.74    1.05
  -2  -2 -13    0.63    0.80
   2   2  13    0.98    1.03
   2   2  13    1.65    1.05
   2   2  13    2.62    1.17
  -3  -2 -13    0.85    0.89
  -3  -2 -13    0.87    0.87
   3   2  13    1.82    0.94
   3   2  13    1.50    1.13
  -4  -2 -13    8.55    1.67
  -4  -2 -13   10.26    1.67
   4   2  13   10.39    1.54
   4   2  13    8.37    1.60
  -5  -2 -13    0.65    0.86
  -5  -2 -13    0.42    0.97
  -5  -2 -13   -0.76    0.84
   5   2  13    1.41    1.25
   5   2  13   -0.91    0.88
  -6  -2 -13    0.79    1.00
  -6  -2 -13   -0.34    0.86
  -6  -2 -13    0.89    1.04
   6   2  13    1.01    1.16
   6   2  13    0.71    1.03
   6   2  13   -0.65    1.15
  -7  -2 -13    0.65    1.06
  -7  -2 -13    0.28    1.10
  -7  -2 -13    1.43    1.19
   7   2  13    1.43    1.27
   7   2  13    0.55    1.60
   7   2  13    0.40    1.18
   1  -3 -13    0.98    1.22
   1  -3 -13    0.04    1.16
  -1   3  13   -0.61    1.30
  -1   3  13   -0.14    1.58
   0  -3 -13    2.87    1.27
   0  -3 -13    1.27    1.30
   0   3  13    1.06    1.16
   0   3  13    0.61    1.22
  -1  -3 -13    9.64    1.77
  -1  -3 -13    9.24    1.71
   1   3  13    2.83    1.18
   1   3  13    6.95    1.59
  -2  -3 -13   -0.25    0.86
  -2  -3 -13    0.82    0.87
   2   3  13    1.05    1.00
   2   3  13    0.12    0.91
   2   3  13    2.19    1.37
   2   3  13    0.30    0.83
  -3  -3 -13    0.12    0.84
  -3  -3 -13   -0.58    0.69
   3   3  13   -0.75    0.76
   3   3  13   -0.01    1.07
   3   3  13   -0.80    0.77
   3   3  13    0.10    0.84
  -4  -3 -13   11.98    1.82
  -4  -3 -13   14.85    2.08
   4   3  13   10.53    1.65
   4   3  13   14.95    2.16
   4   3  13   10.89    1.72
  -5  -3 -13    2.27    1.15
  -5  -3 -13    1.95    1.00
   5   3  13    1.83    1.09
   5   3  13    0.23    1.29
   5   3  13    1.17    0.99
  -6  -3 -13   -0.30    0.73
  -6  -3 -13    0.01    0.92
   6   3  13    0.44    0.96
   6   3  13    0.95    0.97
   6   3  13    0.41    1.33
  -7  -3 -13    0.82    1.14
  -7  -3 -13    1.19    1.01
  -7  -3 -13    0.73    1.16
   7   3  13    0.42    1.40
   7   3  13    0.69    1.15
   7   3  13    0.53    1.19
   0  -4 -13    5.17    1.61
   0  -4 -13    1.62    1.33
   0  -4 -13    1.49    1.28
   0   4  13    3.38    1.76
   0   4  13   -0.33    1.30
   0   4  13    1.83    1.22
  -1  -4 -13    7.85    1.72
  -1  -4 -13    4.45    1.38
   1   4  13    7.25    1.75
  -2  -4 -13    3.52    1.23
  -2  -4 -13    1.48    1.08
   2   4  13    0.50    0.81
   2   4  13    1.09    1.10
   2   4  13    1.70    1.14
  -3  -4 -13    1.18    0.87
  -3  -4 -13    0.95    0.95
   3   4  13    1.10    0.96
   3   4  13    1.23    0.95
  -4  -4 -13    5.03    1.35
  -4  -4 -13    2.54    1.00
   4   4  13    3.29    1.22
   4   4  13    3.61    1.16
   4   4  13    5.05    1.27
  -5  -4 -13    0.92    0.76
  -5  -4 -13    2.91    1.20
   5   4  13    1.88    0.97
   5   4  13    0.99    1.18
  -6  -4 -13    1.85    0.81
  -6  -4 -13    3.63    1.30
   6   4  13    1.61    1.11
   6   4  13    4.19    1.48
  -7  -4 -13   -1.15    0.94
  -7  -4 -13    0.13    0.70
   7   4  13    1.50    1.16
   7   4  13   -0.26    0.99
  -1  -5 -13    1.02    1.20
  -1  -5 -13    1.29    0.95
  -1  -5 -13    0.78    1.13
   1   5  13   -0.26    1.11
   1   5  13    0.67    0.87
  -2  -5 -13    4.80    1.50
  -2  -5 -13    5.55    1.55
  -2  -5 -13    4.28    1.28
   2   5  13    2.21    1.18
   2   5  13    2.98    1.29
  -3  -5 -13    6.23    1.37
  -3  -5 -13   13.76    2.06
   3   5  13   10.26    1.68
   3   5  13    7.60    1.46
  -4  -5 -13    3.52    1.24
  -4  -5 -13    1.08    0.79
   4   5  13    3.64    1.23
   4   5  13    1.75    1.07
   4   5  13    3.33    1.10
  -5  -5 -13    1.13    0.71
  -5  -5 -13    3.58    1.23
   5   5  13    2.53    1.25
   5   5  13    1.25    1.10
   5   5  13    2.85    1.18
  -6  -5 -13    1.85    1.10
  -6  -5 -13   -0.20    0.53
   6   5  13    1.78    1.09
   6   5  13    1.45    1.13
  -7  -5 -13    0.10    1.06
  -7  -5 -13   -0.56    0.50
   7   5  13    0.13    1.19
   7   5  13   -0.83    1.09
  -2  -6 -13    1.50    1.03
  -2  -6 -13    0.63    1.18
  -2  -6 -13    1.54    0.88
   2   6  13   -0.41    1.11
   2   6  13    1.27    1.18
  -3  -6 -13   15.98    2.30
  -3  -6 -13   12.71    2.10
  -3  -6 -13    8.03    1.54
   3   6  13   10.07    1.60
  -4  -6 -13    2.03    1.13
  -4  -6 -13    0.66    1.00
  -4  -6 -13   -0.01    0.58
   4   6  13   -0.25    0.96
   4   6  13   -0.23    0.85
   4   6  13   -0.52    0.81
  -5  -6 -13    0.08    0.68
  -5  -6 -13    1.25    1.19
   5   6  13    0.80    1.08
   5   6  13   -0.10    0.91
   5   6  13    1.31    1.24
  -6  -6 -13    7.38    1.71
  -6  -6 -13    2.27    0.91
   6   6  13    6.24    1.57
   6   6  13    8.21    1.60
  -7  -6 -13    5.02    1.66
   7   6  13    5.40    1.49
   7   6  13    6.64    1.74
  -3  -7 -13    0.59    1.16
  -3  -7 -13    0.83    1.26
   3   7  13    0.52    0.87
  -4  -7 -13   -0.09    0.93
  -4  -7 -13    0.31    0.77
  -4  -7 -13   -0.56    0.96
   4   7  13   -0.92    1.34
   4   7  13    0.47    1.08
   4   7  13    0.81    0.95
  -5  -7 -13    4.31    1.25
  -5  -7 -13   11.12    1.98
  -5  -7 -13    9.71    1.74
   5   7  13    9.18    1.57
   5   7  13   11.00    2.05
   5   7  13   10.97    1.98
  -6  -7 -13    1.29    1.23
   6   7  13    2.09    1.35
   6   7  13    1.81    1.31
   6   7  13    1.56    1.27
  -1   2 -14    0.94    1.15
  -1   2 -14    4.46    1.55
  -1   2 -14    3.32    1.29
   1  -2  14   -0.04    1.24
   1  -2  14    0.81    1.49
   1  -2  14    1.71    1.34
  -2   2 -14    0.27    1.08
  -2   2 -14    0.60    1.04
   2  -2  14   -0.33    1.02
   2  -2  14   -0.74    1.30
  -3   2 -14   -0.11    1.07
   3  -2  14    2.71    1.56
   0   1 -14    1.26    1.08
   0   1 -14    0.88    1.02
   0  -1  14    1.31    1.40
   0  -1  14    0.85    1.51
  -1   1 -14    0.89    0.99
  -1   1 -14    0.01    1.06
   1  -1  14    3.39    1.41
   1  -1  14    1.34    1.34
   1  -1  14    0.02    1.50
  -2   1 -14    1.31    1.13
  -2   1 -14   -0.29    1.02
   2  -1  14    0.20    1.28
   2  -1  14    0.13    1.20
   2  -1  14    0.09    0.99
  -3   1 -14    2.28    1.31
  -3   1 -14    2.62    1.22
   3  -1  14    0.68    0.99
   3  -1  14    2.24    1.57
   3  -1  14    2.24    1.16
  -4   1 -14    0.90    1.25
  -4   1 -14    0.88    1.11
   4  -1  14    0.39    1.11
   4  -1  14    0.43    1.41
   4  -1  14    0.57    1.13
   0   0 -14    0.99    1.27
   0   0 -14    0.91    1.04
   0   0  14    0.49    1.39
   0   0  14    1.40    1.38
  -1   0 -14    1.16    1.13
  -1   0 -14    0.40    0.88
   1   0  14   -0.04    1.19
   1   0  14   -1.11    1.18
  -2   0 -14    3.05    1.26
  -2   0 -14    0.84    1.01
   2   0  14    3.42    1.33
   2   0  14   -0.41    1.01
  -3   0 -14    6.94    1.53
  -3   0 -14    7.73    1.71
   3   0  14    5.16    1.42
   3   0  14    3.19    1.23
   3   0  14    8.94    2.03
  -4   0 -14    3.37    1.27
  -4   0 -14    2.92    1.32
   4   0  14    2.60    1.18
   4   0  14    4.16    1.64
   4   0  14    1.20    1.15
  -5   0 -14   -0.34    0.93
  -5   0 -14    0.22    1.16
   5   0  14    0.50    1.23
   5   0  14    0.56    1.46
   5   0  14    0.91    1.19
   0  -1 -14    2.04    1.28
   0  -1 -14    2.19    1.25
   0   1  14    3.93    1.79
   0   1  14    1.39    1.41
  -1  -1 -14    5.55    1.56
  -1  -1 -14    4.08    1.31
   1   1  14    4.98    1.52
   1   1  14    3.92    1.65
  -2  -1 -14    0.37    0.89
  -2  -1 -14    0.75    1.00
   2   1  14   -0.29    1.08
   2   1  14    0.13    1.07
  -3  -1 -14    0.02    0.88
  -3  -1 -14    0.00    1.09
   3   1  14    1.17    1.12
   3   1  14    0.03    0.85
  -4  -1 -14    1.10    1.07
  -4  -1 -14    0.73    1.00
  -4  -1 -14    1.55    1.17
   4   1  14   -0.13    0.94
   4   1  14   -0.78    0.92
   4   1  14    1.18    1.55
  -5  -1 -14    3.07    1.32
  -5  -1 -14    2.09    1.20
  -5  -1 -14    3.95    1.48
   5   1  14    2.63    1.59
   5   1  14    2.42    1.36
   5   1  14    1.47    1.09
  -6  -1 -14    1.72    1.33
   6   1  14    2.01    1.41
   6   1  14    3.68    1.70
   0  -2 -14   -0.22    1.02
   0  -2 -14   -0.49    0.98
   0   2  14   -0.61    1.55
   0   2  14    0.42    1.28
  -1  -2 -14   -1.22    0.92
  -1  -2 -14   -0.11    0.98
   1   2  14    1.17    1.36
   1   2  14   -0.51    1.14
   1   2  14    0.17    1.31
  -2  -2 -14   17.50    2.17
  -2  -2 -14   11.57    1.99
   2   2  14   10.72    1.98
   2   2  14    6.78    1.61
   2   2  14   10.48    1.89
  -3  -2 -14    2.11    1.21
  -3  -2 -14   -0.07    0.98
  -3  -2 -14    0.66    1.02
   3   2  14    1.80    1.18
   3   2  14    0.13    0.93
  -4  -2 -14    1.91    1.09
  -4  -2 -14    0.34    0.98
  -4  -2 -14    1.55    1.08
   4   2  14    0.08    0.94
   4   2  14    1.05    1.08
  -5  -2 -14    1.36    1.16
  -5  -2 -14    0.53    1.05
  -5  -2 -14   -0.19    1.10
   5   2  14   -0.52    0.88
   5   2  14    0.00    1.15
  -6  -2 -14    2.65    1.33
  -6  -2 -14    1.66    1.28
  -6  -2 -14    2.36    1.37
   6   2  14    1.81    1.36
   6   2  14    1.25    1.26
   6   2  14    5.45    1.90
  -1  -3 -14    0.94    1.24
  -1  -3 -14    0.15    1.15
   1   3  14   -0.29    1.11
   1   3  14    1.12    1.42
  -2  -3 -14    0.67    1.01
  -2  -3 -14    1.15    1.15
   2   3  14    1.48    1.19
   2   3  14    1.42    1.23
   2   3  14    0.55    1.17
  -3  -3 -14    1.36    1.09
   3   3  14   -0.57    1.17
   3   3  14   -0.69    0.80
   3   3  14    1.38    1.05
  -4  -3 -14    2.70    1.18
  -4  -3 -14    0.45    1.00
   4   3  14    1.43    1.14
   4   3  14    1.19    1.02
  -5  -3 -14   -0.14    1.03
  -5  -3 -14    0.30    0.92
   5   3  14    0.73    1.07
   5   3  14    1.96    1.36
  -6  -3 -14    3.09    1.31
  -6  -3 -14    4.62    1.31
  -6  -3 -14    4.68    1.52
   6   3  14    4.14    1.51
   6   3  14    4.54    1.51
  -1  -4 -14    4.21    1.47
   1   4  14    2.46    1.47
  -2  -4 -14    6.27    1.60
  -2  -4 -14    4.38    1.48
   2   4  14    3.71    1.41
   2   4  14    5.85    1.70
  -3  -4 -14    5.34    1.44
  -3  -4 -14    5.80    1.55
   3   4  14    1.50    1.04
   3   4  14    5.50    1.47
   3   4  14    3.67    1.18
  -4  -4 -14    0.58    1.11
  -4  -4 -14    0.79    0.90
   4   4  14    1.48    1.20
   4   4  14    0.77    0.96
   4   4  14    0.83    0.95
  -5  -4 -14    0.62    0.94
  -5  -4 -14    1.31    1.11
   5   4  14    0.54    1.08
   5   4  14    1.29    1.08
  -6  -4 -14    2.23    1.28
  -6  -4 -14    1.30    0.91
   6   4  14    1.50    1.11
   6   4  14    2.62    1.37
  -3  -5 -14    0.08    0.99
  -3  -5 -14   -0.13    0.73
   3   5  14   -0.11    0.97
   3   5  14    3.50    1.47
   3   5  14    0.68    1.30
  -4  -5 -14    7.78    1.71
  -4  -5 -14    2.54    1.04
   4   5  14    9.66    1.93
   4   5  14    5.20    1.39
   4   5  14    4.80    1.24
  -5  -5 -14    3.83    1.14
  -5  -5 -14   10.88    1.97
   5   5  14    9.79    1.89
   5   5  14    6.45    1.61
  -6  -5 -14    0.07    1.11
   6   5  14    3.26    1.40
   4   6  14    5.39    1.71
  -5  -6 -14    2.69    1.35
   5   6  14    4.67    1.59
   3   2  15    0.82    1.38
   0   0   0    0.00    0.00
;
_shelx_hkl_checksum              66218
loop_
_space_group_symop_operation_xyz
'x, y, z'
loop_
_atom_site_label
_atom_site_type_symbol
_atom_site_fract_x
_atom_site_fract_y
_atom_site_fract_z
_atom_site_U_iso_or_equiv
_atom_site_adp_type
_atom_site_occupancy
_atom_site_site_symmetry_order
_atom_site_calc_flag
_atom_site_refinement_flags_posn
_atom_site_refinement_flags_adp
Br1 Br 0.48314(13) -0.66943(11) -0.65899(8) 0.0468(5) Uani 1 1 d . .
Br2 Br -0.23894(13) 1.10114(11) 0.76785(8) 0.0451(5) Uani 1 1 d . .
C1 C 0.438(3) -0.492(2) -0.5613(16) 0.034(4) Uani 1 1 d . .
C2 C 0.501(3) -0.531(2) -0.4524(16) 0.032(4) Uani 1 1 d . .
H2 H 0.5651 -0.6403 -0.4267 0.038 Uiso 1 1 calc R U
C3 C 0.465(2) -0.3998(19) -0.3828(16) 0.029(4) Uani 1 1 d . .
H3 H 0.5113 -0.4212 -0.3103 0.034 Uiso 1 1 calc R U
C4 C 0.365(3) -0.240(2) -0.4172(16) 0.024(4) Uani 1 1 d . U
C5 C 0.302(2) -0.209(2) -0.5258(16) 0.027(4) Uani 1 1 d . U
H5 H 0.2407 -0.0996 -0.5531 0.033 Uiso 1 1 calc R U
C6 C 0.329(2) -0.3384(18) -0.5965(14) 0.031(3) Uani 1 1 d . U
H6 H 0.2731 -0.3190 -0.6643 0.038 Uiso 1 1 calc R U
C7 C 0.315(3) -0.103(2) -0.3440(16) 0.024(4) Uani 1 1 d . .
C8 C 0.299(2) -0.097(2) -0.2115(15) 0.022(4) Uani 1 1 d . U
C9 C 0.252(3) 0.056(2) -0.1821(16) 0.028(4) Uani 1 1 d . .
C10 C 0.318(2) -0.237(2) -0.1247(16) 0.026(4) Uani 1 1 d . U
C11 C 0.503(2) -0.415(2) 0.0115(15) 0.059(5) Uani 1 1 d . .
H11A H 0.5073 -0.3843 0.0911 0.070 Uiso 1 1 calc R U
H11B H 0.3967 -0.4530 0.0315 0.070 Uiso 1 1 calc R U
C12 C 0.675(3) -0.540(3) -0.039(2) 0.096(8) Uani 1 1 d . .
H12A H 0.7832 -0.5119 -0.0424 0.144 Uiso 1 1 calc R U
H12B H 0.6810 -0.5591 -0.1243 0.144 Uiso 1 1 calc R U
H12C H 0.6849 -0.6394 0.0135 0.144 Uiso 1 1 calc R U
C13 C 0.191(3) 0.134(2) -0.0561(17) 0.026(4) Uani 1 1 d . .
C14 C 0.104(2) 0.070(2) 0.0531(16) 0.028(4) Uani 1 1 d . U
H14 H 0.0893 -0.0287 0.0522 0.034 Uiso 1 1 calc R U
C15 C 0.039(2) 0.149(2) 0.1629(17) 0.029(4) Uani 1 1 d . U
H15 H -0.0176 0.1013 0.2377 0.035 Uiso 1 1 calc R U
C16 C 0.052(3) 0.297(2) 0.1712(16) 0.025(4) Uani 1 1 d . U
C17 C 0.142(3) 0.358(2) 0.0572(17) 0.032(4) Uani 1 1 d . .
H17 H 0.1548 0.4573 0.0571 0.038 Uiso 1 1 calc R U
C18 C 0.214(2) 0.278(2) -0.0558(17) 0.031(4) Uani 1 1 d . U
H18 H 0.2774 0.3206 -0.1307 0.037 Uiso 1 1 calc R U
C19 C -0.003(3) 0.370(2) 0.2878(16) 0.026(4) Uani 1 1 d . .
C20 C -0.055(2) 0.529(2) 0.3239(15) 0.024(4) Uani 1 1 d . U
C21 C -0.075(3) 0.535(2) 0.4531(17) 0.031(4) Uani 1 1 d . U
C22 C -0.079(2) 0.673(2) 0.2300(15) 0.027(4) Uani 1 1 d . .
C23 C -0.253(2) 0.8338(17) 0.0827(14) 0.039(4) Uani 1 1 d . .
H23A H -0.3122 0.8160 0.0233 0.047 Uiso 1 1 calc R U
H23B H -0.1297 0.8429 0.0337 0.047 Uiso 1 1 calc R U
C24 C -0.391(3) 0.993(2) 0.154(2) 0.056(4) Uani 1 1 d . .
H24A H -0.3222 1.0221 0.1985 0.085 Uiso 1 1 calc R U
H24B H -0.5019 0.9755 0.2145 0.085 Uiso 1 1 calc R U
H24C H -0.4378 1.0803 0.0936 0.085 Uiso 1 1 calc R U
C25 C -0.116(3) 0.677(2) 0.5269(17) 0.028(4) Uani 1 1 d . .
C26 C -0.061(3) 0.649(2) 0.6369(16) 0.035(4) Uani 1 1 d . .
H26 H 0.0106 0.5408 0.6608 0.042 Uiso 1 1 calc R U
C27 C -0.1049(19) 0.7688(18) 0.7106(14) 0.032(4) Uani 1 1 d . U
H27 H -0.0773 0.7436 0.7900 0.038 Uiso 1 1 calc R U
C28 C -0.191(2) 0.931(2) 0.6724(15) 0.027(4) Uani 1 1 d . U
C29 C -0.254(3) 0.960(2) 0.5662(17) 0.032(4) Uani 1 1 d . U
H29 H -0.3257 1.0694 0.5433 0.038 Uiso 1 1 calc R U
C30 C -0.218(2) 0.839(2) 0.4931(14) 0.032(4) Uani 1 1 d . .
H30 H -0.2613 0.8631 0.4193 0.038 Uiso 1 1 calc R U
N1 N 0.281(2) 0.0401(19) -0.4055(13) 0.033(4) Uani 1 1 d . .
N2 N -0.047(2) 0.392(2) 0.5165(14) 0.036(4) Uani 1 1 d . .
O1 O 0.2194(19) -0.3164(17) -0.0982(12) 0.041(3) Uani 1 1 d . .
O2 O 0.4623(17) -0.2732(15) -0.0727(11) 0.046(3) Uani 1 1 d . .
O3 O 0.0136(18) 0.7525(17) 0.2129(11) 0.036(3) Uani 1 1 d . .
O4 O -0.2152(16) 0.6948(14) 0.1750(10) 0.031(3) Uani 1 1 d . .
S1 S 0.2302(7) 0.1842(6) -0.3111(4) 0.0364(13) Uani 1 1 d . .
S2 S 0.0103(7) 0.2503(6) 0.4223(4) 0.0384(13) Uani 1 1 d . .
loop_
_atom_site_aniso_label
_atom_site_aniso_U_11
_atom_site_aniso_U_22
_atom_site_aniso_U_33
_atom_site_aniso_U_23
_atom_site_aniso_U_13
_atom_site_aniso_U_12
Br1 0.0598(13) 0.0339(12) 0.0495(12) -0.0166(10) -0.0173(10) -0.0142(10)
Br2 0.0583(13) 0.0342(12) 0.0452(12) -0.0137(9) -0.0166(10) -0.0145(10)
C1 0.039(6) 0.029(6) 0.037(6) -0.021(4) -0.002(3) -0.016(4)
C2 0.047(7) 0.012(4) 0.033(5) -0.004(3) -0.017(4) -0.004(3)
C3 0.036(9) 0.017(8) 0.036(8) -0.013(6) -0.013(7) -0.008(7)
C4 0.024(4) 0.024(4) 0.024(4) -0.0004(14) -0.0066(17) -0.009(2)
C5 0.028(4) 0.027(4) 0.027(4) -0.0008(14) -0.0077(17) -0.011(2)
C6 0.034(4) 0.031(4) 0.030(4) -0.0028(13) -0.0093(16) -0.0127(19)
C7 0.037(6) 0.015(4) 0.028(5) -0.001(3) -0.016(3) -0.012(4)
C8 0.023(4) 0.021(4) 0.023(4) -0.0005(13) -0.0072(16) -0.0086(19)
C9 0.028(9) 0.025(10) 0.031(9) -0.008(7) -0.012(7) -0.005(7)
C10 0.026(4) 0.026(4) 0.026(4) -0.0013(14) -0.0070(17) -0.010(2)
C11 0.046(9) 0.074(12) 0.062(9) 0.048(8) -0.030(7) -0.037(9)
C12 0.117(16) 0.042(10) 0.081(11) 0.017(8) -0.040(11) 0.015(10)
C13 0.029(5) 0.016(5) 0.032(6) -0.004(3) -0.012(3) -0.004(3)
C14 0.029(4) 0.028(4) 0.029(4) -0.0010(14) -0.0078(17) -0.012(2)
C15 0.030(4) 0.028(4) 0.029(4) -0.0003(13) -0.0066(16) -0.013(2)
C16 0.025(4) 0.025(4) 0.026(4) -0.0009(14) -0.0069(17) -0.010(2)
C17 0.045(6) 0.014(5) 0.040(6) -0.005(3) -0.009(4) -0.016(4)
C18 0.032(4) 0.030(4) 0.031(4) -0.0009(13) -0.0077(17) -0.013(2)
C19 0.029(9) 0.019(9) 0.034(9) 0.003(7) -0.012(7) -0.014(7)
C20 0.025(4) 0.023(4) 0.025(4) -0.0005(13) -0.0076(16) -0.0091(19)
C21 0.031(5) 0.031(5) 0.031(5) -0.0009(14) -0.0084(18) -0.012(2)
C22 0.035(6) 0.019(5) 0.022(5) -0.010(3) -0.002(3) -0.008(4)
C23 0.072(9) 0.015(6) 0.037(6) 0.001(5) -0.035(6) -0.010(6)
C24 0.065(8) 0.029(7) 0.056(8) 0.004(5) -0.008(6) -0.008(6)
C25 0.037(6) 0.019(5) 0.026(5) -0.006(3) -0.004(3) -0.013(4)
C26 0.057(7) 0.015(5) 0.030(5) 0.002(3) -0.019(4) -0.006(4)
C27 0.034(4) 0.031(4) 0.030(4) -0.0027(13) -0.0092(16) -0.0121(19)
C28 0.027(4) 0.027(4) 0.027(4) -0.0004(14) -0.0071(17) -0.011(2)
C29 0.032(4) 0.031(4) 0.032(4) -0.0009(14) -0.0084(18) -0.012(2)
C30 0.034(9) 0.042(10) 0.017(7) 0.008(6) -0.012(6) -0.011(8)
N1 0.048(9) 0.019(8) 0.035(8) 0.005(6) -0.028(7) -0.007(7)
N2 0.055(9) 0.026(9) 0.031(8) -0.002(7) -0.012(7) -0.018(7)
O1 0.058(7) 0.037(7) 0.039(6) -0.003(5) -0.008(5) -0.032(6)
O2 0.039(6) 0.033(6) 0.060(7) 0.030(5) -0.019(5) -0.017(5)
O3 0.046(7) 0.040(7) 0.034(6) 0.016(5) -0.020(5) -0.028(6)
O4 0.039(6) 0.030(5) 0.036(5) 0.001(4) -0.025(4) -0.015(5)
S1 0.064(4) 0.024(3) 0.026(2) 0.004(2) -0.021(2) -0.018(3)
S2 0.059(3) 0.015(3) 0.046(3) 0.001(2) -0.026(2) -0.010(2)
loop_
_atom_type_symbol
_atom_type_description
_atom_type_scat_dispersion_real
_atom_type_scat_dispersion_imag
_atom_type_scat_source
C C 0.0033 0.0016 'International Tables Vol C Tables 4.2.6.8 and 6.1.1.4'
H H 0.0000 0.0000 'International Tables Vol C Tables 4.2.6.8 and 6.1.1.4'
N N 0.0061 0.0033 'International Tables Vol C Tables 4.2.6.8 and 6.1.1.4'
O O 0.0106 0.0060 'International Tables Vol C Tables 4.2.6.8 and 6.1.1.4'
S S 0.1246 0.1234 'International Tables Vol C Tables 4.2.6.8 and 6.1.1.4'
Br Br -0.2901 2.4595 'International Tables Vol C Tables 4.2.6.8 and 6.1.1.4'
loop_
_geom_angle_atom_site_label_1
_geom_angle_atom_site_label_2
_geom_angle_atom_site_label_3
_geom_angle
C6 C1 C2 124.6(15)
C6 C1 Br1 117.3(12)
C2 C1 Br1 117.8(13)
C1 C2 C3 116.6(16)
C1 C2 H2 121.7
C3 C2 H2 121.7
C4 C3 C2 121.8(16)
C4 C3 H3 119.1
C2 C3 H3 119.1
C3 C4 C5 118.9(16)
C3 C4 C7 123.4(15)
C5 C4 C7 117.7(16)
C4 C5 C6 121.2(17)
C4 C5 H5 119.4
C6 C5 H5 119.4
C1 C6 C5 116.4(15)
C1 C6 H6 121.8
C5 C6 H6 121.8
N1 C7 C4 116.3(15)
N1 C7 C8 114.1(15)
C4 C7 C8 129.6(16)
C9 C8 C10 126.4(16)
C9 C8 C7 110.1(16)
C10 C8 C7 123.3(16)
C8 C9 C13 131.9(18)
C8 C9 S1 110.6(14)
C13 C9 S1 116.9(14)
O1 C10 O2 121.0(17)
O1 C10 C8 127.1(17)
O2 C10 C8 111.9(14)
C12 C11 O2 112.5(15)
C12 C11 H11A 109.1
O2 C11 H11A 109.1
C12 C11 H11B 109.1
O2 C11 H11B 109.1
H11A C11 H11B 107.8
C11 C12 H12A 109.5
C11 C12 H12B 109.5
H12A C12 H12B 109.5
C11 C12 H12C 109.5
H12A C12 H12C 109.5
H12B C12 H12C 109.5
C14 C13 C18 120.8(18)
C14 C13 C9 120.9(17)
C18 C13 C9 118.2(17)
C15 C14 C13 119.4(18)
C15 C14 H14 120.3
C13 C14 H14 120.3
C14 C15 C16 123.6(17)
C14 C15 H15 118.2
C16 C15 H15 118.2
C17 C16 C15 114.8(17)
C17 C16 C19 122.8(17)
C15 C16 C19 122.0(17)
C18 C17 C16 122.9(17)
C18 C17 H17 118.5
C16 C17 H17 118.5
C17 C18 C13 118.5(17)
C17 C18 H18 120.8
C13 C18 H18 120.8
C16 C19 C20 134.2(17)
C16 C19 S2 119.8(14)
C20 C19 S2 105.6(13)
C21 C20 C19 111.9(16)
C21 C20 C22 125.7(17)
C19 C20 C22 122.3(15)
N2 C21 C20 114.7(17)
N2 C21 C25 116.5(16)
C20 C21 C25 128.8(17)
O3 C22 O4 127.1(17)
O3 C22 C20 121.9(16)
O4 C22 C20 110.9(14)
O4 C23 C24 109.2(12)
O4 C23 H23A 109.8
C24 C23 H23A 109.8
O4 C23 H23B 109.8
C24 C23 H23B 109.8
H23A C23 H23B 108.3
C23 C24 H24A 109.5
C23 C24 H24B 109.5
H24A C24 H24B 109.5
C23 C24 H24C 109.5
H24A C24 H24C 109.5
H24B C24 H24C 109.5
C26 C25 C30 117.3(15)
C26 C25 C21 119.6(16)
C30 C25 C21 123.0(16)
C27 C26 C25 122.5(17)
C27 C26 H26 118.8
C25 C26 H26 118.8
C26 C27 C28 120.5(15)
C26 C27 H27 119.7
C28 C27 H27 119.7
C29 C28 C27 117.3(16)
C29 C28 Br2 120.8(13)
C27 C28 Br2 121.7(12)
C30 C29 C28 122.1(18)
C30 C29 H29 118.9
C28 C29 H29 118.9
C29 C30 C25 119.7(15)
C29 C30 H30 120.2
C25 C30 H30 120.2
C7 N1 S1 110.9(12)
C21 N2 S2 110.3(13)
C10 O2 C11 117.8(12)
C22 O4 C23 115.6(12)
N1 S1 C9 94.3(8)
N2 S2 C19 97.4(9)
loop_
_geom_bond_atom_site_label_1
_geom_bond_atom_site_label_2
_geom_bond_distance
Br1 C1 1.941(15)
Br2 C28 1.859(16)
C1 C6 1.36(2)
C1 C2 1.40(3)
C2 C3 1.41(2)
C2 H2 0.9500
C3 C4 1.39(2)
C3 H3 0.9500
C4 C5 1.40(2)
C4 C7 1.45(3)
C5 C6 1.43(2)
C5 H5 0.9500
C6 H6 0.9500
C7 N1 1.33(2)
C7 C8 1.46(2)
C8 C9 1.34(3)
C8 C10 1.45(2)
C9 C13 1.53(3)
C9 S1 1.708(18)
C10 O1 1.22(2)
C10 O2 1.34(2)
C11 C12 1.38(3)
C11 O2 1.450(19)
C11 H11A 0.9900
C11 H11B 0.9900
C12 H12A 0.9800
C12 H12B 0.9800
C12 H12C 0.9800
C13 C14 1.38(2)
C13 C18 1.39(3)
C14 C15 1.37(2)
C14 H14 0.9500
C15 C16 1.41(3)
C15 H15 0.9500
C16 C17 1.41(2)
C16 C19 1.42(3)
C17 C18 1.39(2)
C17 H17 0.9500
C18 H18 0.9500
C19 C20 1.42(3)
C19 S2 1.712(17)
C20 C21 1.41(2)
C20 C22 1.52(3)
C21 N2 1.34(2)
C21 C25 1.51(3)
C22 O3 1.19(2)
C22 O4 1.33(2)
C23 O4 1.485(18)
C23 C24 1.55(2)
C23 H23A 0.9900
C23 H23B 0.9900
C24 H24A 0.9800
C24 H24B 0.9800
C24 H24C 0.9800
C25 C26 1.38(2)
C25 C30 1.40(2)
C26 C27 1.33(2)
C26 H26 0.9500
C27 C28 1.40(2)
C27 H27 0.9500
C28 C29 1.37(2)
C29 C30 1.36(3)
C29 H29 0.9500
C30 H30 0.9500
N1 S1 1.649(16)
N2 S2 1.617(16)
