#------------------------------------------------------------------------------
#$Date: 2019-11-24 17:11:43 +0200 (Sun, 24 Nov 2019) $
#$Revision: 238751 $
#$URL: file:///home/coder/svn-repositories/cod/cif/1/55/54/1555475.cif $
#------------------------------------------------------------------------------
#
# This file is available in the Crystallography Open Database (COD),
# http://www.crystallography.net/
#
# All data on this site have been placed in the public domain by the
# contributors.
#
data_1555475
loop_
_publ_author_name
'Moynihan, Lorna'
'Chadda, Rekha'
'McArdle, Patrick'
'Murphy, Paul V.'
_publ_section_title
;
 Allylic Azide Rearrangement in Tandem with Huisgen Cycloaddition for
 Stereoselective Annulation: Synthesis of C-Glycosyl Iminosugars.
;
_journal_issue                   24
_journal_name_full               'Organic letters'
_journal_page_first              6226
_journal_page_last               6229
_journal_paper_doi               10.1021/acs.orglett.5b03209
_journal_volume                  17
_journal_year                    2015
_chemical_absolute_configuration
;
Absolute configuration has not been established by anomalous-dispersion effects in diffraction measurements on the crystal.
The enantiomer has been assigned by reference to an unchanging chiral centre in the synthetic procedure.
;
_chemical_formula_sum            'C13 H18 N3 O4'
_chemical_formula_weight         280.30
_space_group_crystal_system      monoclinic
_space_group_IT_number           4
_space_group_name_Hall           'P 2yb'
_space_group_name_H-M_alt        'P 1 21 1'
_atom_sites_solution_hydrogens   geom
_audit_creation_method           SHELXL-2014/7
_cell_angle_alpha                90
_cell_angle_beta                 90.617(4)
_cell_angle_gamma                90
_cell_formula_units_Z            2
_cell_length_a                   6.1187(2)
_cell_length_b                   15.5628(7)
_cell_length_c                   7.4298(3)
_cell_measurement_reflns_used    2075
_cell_measurement_temperature    150.0(1)
_cell_measurement_theta_max      29.1607
_cell_measurement_theta_min      3.0322
_cell_volume                     707.46(5)
_computing_cell_refinement
;
'Mon Jul 02 16:09:18 2012'
;
_computing_data_collection
;
'Mon Jul 02 16:09:18 2012'
;
_computing_data_reduction
;
'Mon Jul 02 16:09:18 2012'
;
_computing_structure_refinement  'SHELXL-2014/7 (Sheldrick, 2014)'
_diffrn_ambient_temperature      150.0(1)
_diffrn_detector_area_resol_mean 16.1048
_diffrn_measured_fraction_theta_full 0.998
_diffrn_measured_fraction_theta_max 0.999
_diffrn_measurement_device_type  'Xcalibur, Sapphire3'
_diffrn_measurement_method       '\w scans'
_diffrn_radiation_type           MoK\a
_diffrn_radiation_wavelength     0.71073
_diffrn_reflns_av_R_equivalents  0.0182
_diffrn_reflns_av_unetI/netI     0.0298
_diffrn_reflns_Laue_measured_fraction_full 0.998
_diffrn_reflns_Laue_measured_fraction_max 0.999
_diffrn_reflns_limit_h_max       7
_diffrn_reflns_limit_h_min       -7
_diffrn_reflns_limit_k_max       7
_diffrn_reflns_limit_k_min       -18
_diffrn_reflns_limit_l_max       8
_diffrn_reflns_limit_l_min       -8
_diffrn_reflns_number            2681
_diffrn_reflns_point_group_measured_fraction_full 0.635
_diffrn_reflns_point_group_measured_fraction_max 0.634
_diffrn_reflns_theta_full        25.242
_diffrn_reflns_theta_max         25.346
_diffrn_reflns_theta_min         3.038
_exptl_absorpt_coefficient_mu    0.099
_exptl_absorpt_correction_T_max  1.00000
_exptl_absorpt_correction_T_min  0.98010
_exptl_absorpt_correction_type   multi-scan
_exptl_absorpt_process_details
;
crysalispro, oxford diffraction ltd.,
version 1.171.34.36 (release 02-08-2010 crysalis171 .net)
(compiled aug  2 2010,13:00:58)
empirical absorption correction using spherical harmonics,
 implemented in scale3 abspack scaling algorithm.
;
_exptl_crystal_colour            Colourless
_exptl_crystal_density_diffrn    1.316
_exptl_crystal_description       Parallelepiped
_exptl_crystal_F_000             298
_exptl_crystal_size_max          0.50
_exptl_crystal_size_mid          0.40
_exptl_crystal_size_min          0.20
_refine_diff_density_max         0.458
_refine_diff_density_min         -0.199
_refine_diff_density_rms         0.049
_refine_ls_extinction_method     none
_refine_ls_goodness_of_fit_ref   1.068
_refine_ls_hydrogen_treatment    constr
_refine_ls_matrix_type           full
_refine_ls_number_parameters     184
_refine_ls_number_reflns         1638
_refine_ls_number_restraints     1
_refine_ls_restrained_S_all      1.068
_refine_ls_R_factor_all          0.0365
_refine_ls_R_factor_gt           0.0341
_refine_ls_shift/su_max          0.000
_refine_ls_shift/su_mean         0.000
_refine_ls_structure_factor_coef Fsqd
_refine_ls_weighting_details
'w=1/[\s^2^(Fo^2^)+(0.0583P)^2^+0.0785P] where P=(Fo^2^+2Fc^2^)/3'
_refine_ls_weighting_scheme      calc
_refine_ls_wR_factor_gt          0.0887
_refine_ls_wR_factor_ref         0.0907
_reflns_Friedel_coverage         0.221
_reflns_Friedel_fraction_full    0.241
_reflns_Friedel_fraction_max     0.239
_reflns_number_gt                1547
_reflns_number_total             1638
_reflns_threshold_expression     'I > 2\s(I)'
_cod_data_source_file            ol5b03209_si_001.cif
_cod_data_source_block           lor1
_cod_original_sg_symbol_H-M      'P 21'
_cod_database_code               1555475
_shelx_shelxl_version_number     2014/7
_shelx_space_group_comment
;
The symmetry employed for this shelxl refinement is uniquely defined
by the following loop, which should always be used as a source of
symmetry information in preference to the above space-group names.
They are only intended as comments.
;
_shelx_estimated_absorpt_t_min   0.952
_shelx_estimated_absorpt_t_max   0.981
_shelx_res_file
;
  
    lor1.res created by SHELXL-2014/7
  
TITL lor1 in P2(1)
REM P2(1) (#4 in standard setting)
CELL 0.71073   6.118696  15.562800   7.429847  90.0000  90.6173  90.0000
ZERR    2.00   0.000238   0.000741   0.000281   0.0000   0.0035   0.0000
REM SG 4 2 2 P21 P1211 PG2 Monoclinic
LATT -1
REM SG  ASUN  1  1. 1. .5
REM SG  ORGN  on 2(1)
SYMM -X,0.5+Y,-Z
SFAC C H N O
UNIT 26 36 6 8
FMAP 2
PLAN -32
BOND $H
L.S. 12
SIZE    0.50  0.40  0.20
SHEL 999 0.83
ACTA
LIST 4
WGHT    0.058300    0.078500
FVAR       9.45659
O1    4    0.081245    0.109681    0.436050    11.00000    0.03206    0.01959 =
         0.02105    0.00210    0.00547    0.00636
O2    4   -0.134257    0.225683    0.523017    11.00000    0.02647    0.02170 =
         0.02877    0.00222    0.01127    0.00393
O4    4   -0.464192    0.377740    0.416581    11.00000    0.01978    0.03412 =
         0.02616    0.00176    0.00225   -0.00353
O3    4   -0.093104    0.400783    0.353520    11.00000    0.01860    0.01795 =
         0.03875   -0.00334    0.00198    0.00078
N5    3    0.275737    0.261313    0.105559    11.00000    0.01762    0.02785 =
         0.01873   -0.00100   -0.00067   -0.00001
N6    3    0.456407    0.265219    0.002203    11.00000    0.02039    0.04406 =
         0.02142   -0.00117    0.00387   -0.00297
N7    3    0.549223    0.188980    0.008673    11.00000    0.02395    0.04044 =
         0.02662   -0.00411    0.00277    0.00629
C1    1    0.141344    0.339326    0.132459    11.00000    0.02106    0.02137 =
         0.02443    0.00100    0.00008   -0.00408
AFIX  13
H1    2    0.235730    0.383075    0.187694    11.00000   -1.30000
AFIX   0
C2    1    0.254524    0.182131    0.178431    11.00000    0.02130    0.02611 =
         0.01623   -0.00270   -0.00118    0.00150
C3    1    0.060115    0.170574    0.294794    11.00000    0.02023    0.01977 =
         0.02044   -0.00171   -0.00080    0.00105
AFIX  13
H3    2   -0.068374    0.156920    0.220275    11.00000   -1.30000
AFIX   0
C4    1    0.022372    0.252922    0.395354    11.00000    0.01559    0.02391 =
         0.02118   -0.00157    0.00376   -0.00059
AFIX  13
H4    2    0.157161    0.270763    0.457222    11.00000   -1.30000
AFIX   0
C5    1   -0.050719    0.321787    0.265090    11.00000    0.01710    0.01787 =
         0.02735   -0.00246    0.00098   -0.00210
AFIX  13
H5    2   -0.180884    0.302783    0.198180    11.00000   -1.30000
AFIX   0
C6    1    0.428568    0.135944    0.115580    11.00000    0.02325    0.04132 =
         0.01870   -0.00377    0.00007    0.00622
C7    1   -0.071440    0.139665    0.573871    11.00000    0.02462    0.02012 =
         0.02083   -0.00110    0.00469    0.00334
C8    1   -0.272373    0.084844    0.574139    11.00000    0.02932    0.02532 =
         0.03243    0.00071    0.00026   -0.00325
AFIX 137
H8A   2   -0.340591    0.086431    0.457223    11.00000   -1.30000
H8B   2   -0.372414    0.106208    0.662165    11.00000   -1.30000
H8C   2   -0.233014    0.026725    0.603199    11.00000   -1.30000
AFIX   0
C9    1    0.050046    0.140802    0.751856    11.00000    0.02696    0.03178 =
         0.02454   -0.00403    0.00025    0.00240
AFIX 137
H9A   2   -0.043787    0.162980    0.843578    11.00000   -1.30000
H9B   2    0.176960    0.176717    0.742351    11.00000   -1.30000
H9C   2    0.094197    0.083433    0.782789    11.00000   -1.30000
AFIX   0
C10   1    0.059671    0.374554   -0.043278    11.00000    0.03215    0.03076 =
         0.02825    0.00205    0.00169    0.00347
AFIX  43
H10   2   -0.014959    0.337647   -0.120846    11.00000   -1.30000
AFIX   0
C11   1    0.087198    0.454076   -0.093852    11.00000    0.04350    0.03631 =
         0.03922    0.01213    0.00930    0.00650
AFIX  93
H11A  2    0.161211    0.492422   -0.019022    11.00000   -1.30000
H11B  2    0.032805    0.472409   -0.204728    11.00000   -1.30000
AFIX   0
C12   1   -0.311157    0.430295    0.334118    11.00000    0.02277    0.02353 =
         0.03375    0.00428    0.00537    0.00512
AFIX  23
H12A  2   -0.321337    0.487554    0.384918    11.00000   -1.30000
H12B  2   -0.346869    0.434413    0.206894    11.00000   -1.30000
AFIX   0
C13   1   -0.451638    0.380640    0.609238    11.00000    0.03493    0.03718 =
         0.02759    0.00067    0.00597    0.00523
AFIX 137
H13A  2   -0.465637    0.439050    0.649026    11.00000   -1.30000
H13B  2   -0.313337    0.358047    0.648996    11.00000   -1.30000
H13C  2   -0.567533    0.346764    0.658724    11.00000   -1.30000
AFIX   0
HKLF 4
  
REM  lor1 in P2(1)
REM R1 =  0.0341 for    1547 Fo > 4sig(Fo)  and  0.0365 for all    1638 data
REM    184 parameters refined using      1 restraints
  
END
  
WGHT      0.0603      0.0723
  
REM Highest difference peak  0.458,  deepest hole -0.199,  1-sigma level  0.049
Q1    1   0.4738  0.0776  0.1408  11.00000  0.05    0.46
Q2    1   0.5079  0.1919 -0.1609  11.00000  0.05    0.21
Q3    1  -0.4601  0.3206  0.6488  11.00000  0.05    0.19
Q4    1   0.3244  0.2771 -0.2281  11.00000  0.05    0.17
Q5    1  -0.3443  0.4363  0.6642  11.00000  0.05    0.16
Q6    1  -0.5035  0.2048  0.3878  11.00000  0.05    0.13
Q7    1  -0.2373  0.3072  0.7377  11.00000  0.05    0.13
Q8    1   0.4722  0.2950 -0.1784  11.00000  0.05    0.13
Q9    1   0.3540  0.1772  0.7808  11.00000  0.05    0.13
Q10   1   0.2548  0.2392 -0.1645  11.00000  0.05    0.13
Q11   1  -0.5676  0.3973  0.6504  11.00000  0.05    0.12
Q12   1  -0.0612  0.4391 -0.2542  11.00000  0.05    0.12
Q13   1  -0.2981  0.2844  0.7825  11.00000  0.05    0.12
Q14   1  -0.4943  0.3764  0.8653  11.00000  0.05    0.12
Q15   1   0.6723  0.1726 -0.0004  11.00000  0.05    0.12
Q16   1  -0.4986  0.3815  0.7489  11.00000  0.05    0.12
Q17   1  -0.4181  0.4449  0.8810  11.00000  0.05    0.12
Q18   1   0.6670  0.2941 -0.1361  11.00000  0.05    0.12
Q19   1   0.3392  0.1369  0.1265  11.00000  0.05    0.12
Q20   1  -0.4660  0.2631  0.6337  11.00000  0.05    0.12
Q21   1   0.1192  0.3542 -0.3101  11.00000  0.05    0.11
Q22   1   0.3068  0.2352  0.6334  11.00000  0.05    0.11
Q23   1   0.2407  0.3019  0.6143  11.00000  0.05    0.11
Q24   1   0.2075  0.3360 -0.2269  11.00000  0.05    0.11
Q25   1  -0.3171  0.5644  0.3595  11.00000  0.05    0.11
Q26   1   0.2721  0.0381  0.5347  11.00000  0.05    0.11
Q27   1  -0.2893  0.2042  0.4807  11.00000  0.05    0.11
Q28   1  -0.2663  0.4827  0.3875  11.00000  0.05    0.10
Q29   1   0.2472  0.3752  0.2317  11.00000  0.05    0.10
Q30   1   0.5412  0.3416  0.0759  11.00000  0.05    0.10
Q31   1  -0.7442  0.3410  0.5031  11.00000  0.05    0.10
Q32   1  -0.4984  0.1621  0.6772  11.00000  0.05    0.10
;
_shelx_res_checksum              24766
_shelx_hkl_file
;
   0 -19   0 87.6913 138.435   3
   0 -19   1 2204.21 291.473   3
   0 -19  -1 2119.36 267.199   3
   0 -19   2 2732.15 319.299   3
   0 -18   0 1269.70 222.740   3
   0 -18  -1 952.960 198.043   3
   0 -18   1 903.852 195.291   3
   0 -18   2 159.686 142.399   3
   0 -18   3 2370.18 291.008   3
   0 -17   0 54.7418 133.637   3
   0 -17  -1 607.563 166.342   3
   0 -17   1 865.615 203.572   3
   0 -17   2 2187.82 265.498   3
   0 -17   3 44.7281 132.263   3
   0 -17   4 771.583 196.883   3
   0 -17   5 644.563 193.727   3
   0 -16   0 9921.26 513.737   3
   0 -16  -1 3439.22 301.799   3
   0 -16   1 3624.53 317.739   3
   0 -16  -2 320.506 135.556   3
   0 -16   2 62.0179 143.129   3
   0 -16   3 1386.48 219.594   3
   0 -16   4 1659.52 248.555   3
   0 -16   5 4705.24 384.886   3
   0 -16   6 4563.28 373.582   3
   0 -15   0 387.191 159.687   3
   0 -15   1 5707.53 386.605   3
   0 -15  -1 5695.53 364.905   3
   0 -15  -2 10265.1 485.489   3
   0 -15   2 9447.19 502.914   3
   0 -15   3 3062.17 302.341   3
   0 -15   4 9679.68 523.087   3
   0 -15   5 7536.70 466.960   3
   0 -15   6 545.184 169.944   3
   0 -15   6 314.450 157.116   2
   0 -15   7 403.317 143.177   3
   0 -14   0 8945.17 457.969   3
   0 -14  -1 11452.4 522.803   3
   0 -14   1 11582.6 533.386   3
   0 -14  -2 420.795 131.744   3
   0 -14   2 391.516 152.991   3
   0 -14   3 1311.25 198.504   3
   0 -14   4 1112.44 189.473   3
   0 -14   5 1370.10 210.465   3
   0 -14   6 2091.49 250.722   3
   0 -14   6 2476.79 285.074   2
   0 -14   7 846.833 177.059   3
   0 -14   7 457.157 165.583   2
   0 -13   0 107.254 128.660   3
   0 -13  -1 29096.8 892.149   3
   0 -13   1 28654.1 910.782   3
   0 -13   2 1828.03 216.847   3
   0 -13  -2 1308.16 178.635   3
   0 -13   3 13180.7 571.148   3
   0 -13   4 1158.89 187.725   3
   0 -13   5 2208.63 235.884   3
   0 -13   6 478.997 174.513   2
   0 -13   6 760.348 159.553   3
   0 -13   7 375.043 131.556   3
   0 -13   7 364.641 159.757   2
   0 -12   0 1553.13 187.645   3
   0 -12   1 16980.3 615.101   3
   0 -12  -1 16340.1 596.758   3
   0 -12   2 12534.0 526.729   3
   0 -12  -2 12866.3 508.375   3
   0 -12   3 1504.53 190.350   3
   0 -12   4 522.497 147.156   3
   0 -12   5 1993.15 226.963   3
   0 -12   6 4401.99 326.826   3
   0 -12   6 4345.19 344.426   2
   0 -12   7 2450.66 248.626   3
   0 -12   7 2294.91 279.886   2
   0 -12   8 868.880 179.473   2
   0 -11   0 34.9134 101.570   3
   0 -11  -1 3144.69 242.607   3
   0 -11   1 3611.21 259.981   3
   0 -11  -2 6543.18 322.193   3
   0 -11   2 5812.70 336.345   3
   0 -11   3 143.194 111.734   3
   0 -11   4 20127.7 700.569   3
   0 -11   5 4881.77 319.227   3
   0 -11   6 544.155 156.247   2
   0 -11   6 903.579 156.884   3
   0 -11   7 1700.82 228.743   2
   0 -11   7 1636.47 196.008   3
   0 -11   8 445.706 157.271   2
   0 -10   0 9324.74 391.745   3
   0 -10   1 32288.3 898.252   3
   0 -10  -1 32248.2 885.971   3
   0 -10  -2 4722.47 266.199   3
   0 -10   2 5010.22 291.092   3
   0 -10   3 11643.8 477.114   3
   0 -10   4 1990.50 194.201   3
   0 -10   5 20066.4 688.423   3
   0 -10   6 2648.76 265.973   2
   0 -10   6 2872.39 239.087   3
   0 -10   7 717.269 136.426   3
   0 -10   7 764.454 170.401   2
   0 -10   8 3103.00 305.953   2
   0  -9   0 441.000 120.584   3
   0  -9   1 13176.3 478.180   3
   0  -9  -1 13817.4 470.708   3
   0  -9   2 3499.97 237.011   3
   0  -9  -2 3385.04 206.092   3
   0  -9   3 11968.0 465.089   3
   0  -9   4 2534.90 209.452   3
   0  -9   5 1777.97 188.147   3
   0  -9   5 1635.73 202.374   2
   0  -9   6 2325.02 244.244   2
   0  -9   6 2126.81 198.788   3
   0  -9   7 5064.64 310.481   3
   0  -9  -7 5485.63 399.057   1
   0  -9   7 5176.77 361.855   2
   0  -9   8 850.864 180.488   2
   0  -9  -8 1088.66 225.630   1
   0  -8   0 53875.9 1262.14   3
   0  -8   1 32483.5 870.100   3
   0  -8  -1 33947.3 852.850   3
   0  -8   2 77749.0 1764.32   3
   0  -8  -2 78485.2 1716.49   3
   0  -8   3 29380.4 809.520   3
   0  -8   4 10797.9 427.513   3
   0  -8   5 7373.21 383.146   2
   0  -8   5 7359.60 352.475   3
   0  -8  -5 7444.55 407.309   1
   0  -8  -6 15696.5 653.312   1
   0  -8   6 16239.6 621.416   2
   0  -8   6 14831.4 544.600   3
   0  -8   7 318.498 129.491   2
   0  -8  -7 613.662 191.652   1
   0  -8  -8 504.565 171.356   1
   0  -8   8 811.613 172.106   2
   0  -7   0-59.5053 83.3352   3
   0  -7   1 4813.39 248.936   3
   0  -7  -1 5249.69 234.887   3
   0  -7   2 10170.7 377.824   3
   0  -7  -2 10385.7 349.002   3
   0  -7   3 54838.2 1291.85   3
   0  -7   4 7204.29 318.130   3
   0  -7  -4 7357.76 369.643   1
   0  -7   5 1523.89 180.516   2
   0  -7   5 1250.36 143.011   3
   0  -7  -5 1327.94 195.233   1
   0  -7   6 22.2275 100.091   2
   0  -7   6 56.3806 75.8198   3
   0  -7  -6 99.9186 133.440   1
   0  -7   7 6400.24 381.778   2
   0  -7  -7 6345.65 426.952   1
   0  -7  -8 6733.12 470.278   1
   0  -7   8 6155.12 392.534   2
   0  -6   0 19462.6 534.781   3
   0  -6   1 93763.6 1973.02   3
   0  -6  -1 91801.8 1945.71   3
   0  -6   2 80388.6 1777.85   3
   0  -6  -2 82901.8 1728.80   3
   0  -6   3 8964.79 331.661   3
   0  -6  -3 8316.04 358.699   1
   0  -6   4 12193.6 423.416   3
   0  -6  -4 13249.4 501.860   1
   0  -6   5 8908.14 397.867   2
   0  -6  -5 8148.10 419.215   1
   0  -6   5 8184.60 338.951   3
   0  -6   6 8943.49 363.476   3
   0  -6  -6 9491.47 476.336   1
   0  -6   6 8673.58 410.284   2
   0  -6  -7 3143.09 304.900   1
   0  -6   7 3244.74 269.798   2
   0  -6   8-30.3561 95.9033   2
   0  -6  -8 5.58790 152.013   1
   0  -5   0 147.943 90.8477   3
   0  -5   1 13129.4 398.272   3
   0  -5  -1 13685.3 379.397   3
   0  -5  -2 32071.5 745.185   3
   0  -5   2 33158.3 787.569   3
   0  -5  -3 4829.31 260.265   1
   0  -5  -3 5030.65 218.276   2
   0  -5   3 4914.87 226.069   3
   0  -5  -4 4186.32 262.788   1
   0  -5   4 4150.45 246.388   2
   0  -5   4 4551.23 219.775   3
   0  -5   5 7610.21 306.825   3
   0  -5   5 7787.58 352.141   2
   0  -5  -5 7619.95 389.797   1
   0  -5   6 16811.5 591.639   2
   0  -5  -6 16458.4 652.146   1
   0  -5   6 16150.4 506.479   3
   0  -5   7 2390.13 224.008   2
   0  -5  -7 2047.71 251.123   1
   0  -5   8 54.7918 92.3995   2
   0  -5  -8 156.902 120.485   1
   0  -4   0 367475. 7185.71   3
   0  -4  -1 85087.8 1746.12   3
   0  -4   1 85269.3 1767.84   3
   0  -4   2 19057.4 504.985   3
   0  -4  -2 20096.6 543.433   1
   0  -4  -3 13216.9 387.530   2
   0  -4   3 12909.0 383.419   3
   0  -4  -3 12998.7 438.539   1
   0  -4   4 18326.7 505.329   3
   0  -4   4 17626.3 552.311   2
   0  -4  -4 18810.2 600.177   1
   0  -4   5 7537.06 334.790   2
   0  -4   5 8079.04 296.361   3
   0  -4  -5 7395.66 384.703   1
   0  -4  -6 22129.4 787.081   1
   0  -4   6 23139.4 617.920   3
   0  -4   6 22142.0 711.242   2
   0  -4  -7 7492.63 448.524   1
   0  -4   7 7405.75 384.244   2
   0  -4  -8 3199.58 315.680   1
   0  -4   8 3067.01 254.385   2
   0  -4  -9 45.1428 128.937   1
   0  -3   0 31.1501 42.3944   3
   0  -3  -1 12713.2 316.039   3
   0  -3   1 12583.3 331.838   3
   0  -3  -2 47288.7 1042.64   1
   0  -3   2 45178.1 990.497   3
   0  -3  -3 1214.99 94.6951   2
   0  -3  -3 1242.86 140.865   1
   0  -3   3 1235.11 95.8287   3
   0  -3   3 1258.50 123.071   2
   0  -3  -4 9043.62 316.308   2
   0  -3  -4 9509.78 391.245   1
   0  -3   4 9152.18 346.086   2
   0  -3   4 9436.01 297.310   3
   0  -3   5 6197.59 235.562   3
   0  -3  -5 5533.21 324.654   1
   0  -3   5 6199.89 301.694   2
   0  -3   6 6714.01 249.664   3
   0  -3   6 6370.62 324.313   2
   0  -3  -6 6353.67 376.653   1
   0  -3  -7 16461.3 672.800   1
   0  -3   7 14678.9 561.727   2
   0  -3  -8 4093.35 356.786   1
   0  -3   8 4202.88 286.950   2
   0  -3  -9 1724.67 260.839   1
   0  -2   1 37940.6 810.700   3
   0  -2  -1 39684.4 832.662   1
   0  -2  -1 38398.4 789.111   3
   0  -2  -2 25116.6 629.282   1
   0  -2  -2 25489.2 584.729   2
   0  -2   2 25538.9 602.669   2
   0  -2   2 25828.6 575.587   3
   0  -2   3 66217.8 1369.18   3
   0  -2  -3 64691.6 1469.28   1
   0  -2   3 67470.6 1422.89   2
   0  -2  -3 64686.4 1399.73   2
   0  -2  -4 61604.9 1440.96   1
   0  -2  -4 61950.2 1340.43   2
   0  -2   4 59468.4 1367.77   2
   0  -2   4 60222.6 1282.68   3
   0  -2   5 142.053 76.5681   2
   0  -2   5 143.618 43.1881   3
   0  -2   6 3036.54 143.297   3
   0  -2  -6 2739.60 246.003   1
   0  -2   6 2911.10 211.667   2
   0  -2   7 12626.2 495.143   2
   0  -2  -7 13649.2 602.496   1
   0  -2   8 7318.53 387.448   2
   0  -2  -8 8519.79 499.947   1
   0  -2  -9 1993.62 274.442   1
   0  -1   1 155157. 3027.40   3
   0  -1  -2 111851. 2285.89   2
   0  -1   2 116432. 2296.18   2
   0  -1   2 118685. 2259.14   3
   0  -1   3 14723.4 406.936   2
   0  -1   3 14099.8 347.209   3
   0  -1  -3 14374.2 391.075   2
   0  -1   4 5075.67 169.780   3
   0  -1   4 5185.57 230.831   2
   0  -1  -4 5086.55 214.272   2
   0  -1   5 12382.4 325.529   3
   0  -1   5 12104.9 419.893   2
   0  -1   6 3120.91 128.643   3
   0  -1   6 3197.72 213.545   2
   0  -1   7 2242.25 198.341   2
   0  -1  -7 2131.66 267.009   1
   0  -1  -8 1164.39 213.809   1
   0  -1   8 1207.00 157.591   2
   0  -1  -9 1286.88 230.770   1
   0   0  -2 90592.3 1838.91   2
   0   0  -2 90418.5 1789.75   3
   0   0   2 89126.0 1788.86   3
   0   0   3 9821.55 239.847   3
   0   0  -3 9865.92 298.821   2
   0   0   3 9672.10 301.613   2
   0   0  -4 13912.5 411.924   2
   0   0   4 13782.6 326.427   3
   0   0   4 13201.3 408.930   2
   0   0   5 11514.6 285.160   3
   0   0   5 11538.5 397.469   2
   0   0   6 5449.83 156.613   3
   0   0   6 5843.03 285.082   2
   0   0   7 17180.1 592.663   2
   0   0   8 2222.87 207.247   2
   0   0  -9 1973.48 270.947   1
   0   1  -2 115365. 2301.45   3
   0   1   2 116571. 2328.91   2
   0   1  -3 14027.9 390.509   2
   0   1   3 14359.9 387.510   2
   0   1   3 13672.4 308.836   3
   0   1  -3 13972.9 342.253   3
   0   1  -4 4973.82 168.794   3
   0   1   4 4917.99 141.682   3
   0   1   5 11225.7 260.627   3
   0   1   5 12024.6 399.174   2
   0   1   6 2803.24 195.011   2
   0   1   7 2562.12 214.328   2
   0   1   8 1179.68 156.108   2
   0   1  -9 1715.41 262.231   1
   0   2   1 37677.5 728.319   3
   0   2  -1 37959.6 751.265   3
   0   2  -2 26536.6 587.873   3
   0   2   2 25878.9 547.628   3
   0   2  -3 67748.3 1406.75   3
   0   2   3 67808.5 1441.85   2
   0   2   4 59773.1 1282.34   2
   0   2  -4 59541.0 1222.42   3
   0   2   5 45.7954 67.6412   2
   0   2  -5 126.608 45.8032   3
   0   2   6 3046.17 205.821   2
   0   2   7 13855.9 510.730   2
   0   3   0-14.2358 32.8676   3
   0   3  -1 12668.0 328.838   3
   0   3   1 12302.5 339.088   1
   0   3   1 12292.0 309.564   3
   0   3  -2 46143.3 991.657   3
   0   3   2 45639.5 950.634   3
   0   3   2 45459.0 1035.53   1
   0   3   3 1202.46 64.9186   3
   0   3  -3 1422.02 104.145   3
   0   3  -4 9527.32 298.026   3
   0   3   4 8970.70 228.592   3
   0   3   5 5157.36 133.661   3
   0   3  -5 6049.53 226.520   3
   0   4   0 371209. 7254.82   3
   0   4   1 85170.7 1727.89   3
   0   4  -1 86561.7 1748.51   3
   0   4   1 80766.7 1748.60   1
   0   4   2 20304.9 480.996   3
   0   4   2 20289.9 551.628   1
   0   4  -2 20269.1 518.602   3
   0   4   3 12519.0 323.750   3
   0   4  -3 13017.0 379.971   3
   0   4   4 18325.9 429.563   3
   0   4  -4 18592.1 506.873   3
   0   4   5 7012.32 185.338   3
   0   4   5 6627.95 181.821   3
   0   5   0 51.8527 54.2584   3
   0   5  -1 13692.5 389.259   3
   0   5   1 12884.5 371.866   3
   0   5  -2 33669.9 800.154   3
   0   5   2 33088.0 759.177   3
   0   5   3 5105.61 184.568   3
   0   5   4 4639.77 168.384   3
   0   5   5 7018.01 205.281   3
   0   6   0 20284.4 541.535   3
   0   6   1 88404.9 1864.47   3
   0   6   2 82476.6 1740.12   3
   0   6   3 8558.40 278.912   3
   0   6   4 12336.4 350.489   3
   0   6   5 8632.58 259.755   3
   0   7   4 6580.76 243.683   3
  -1 -20  -2 183.246 117.117   3
  -1 -19   1 2303.76 297.772   3
  -1 -19   0 204.760 144.460   3
  -1 -19  -1 1070.00 207.153   3
  -1 -19  -2 1776.63 258.125   3
  -1 -19  -3 1187.26 202.529   3
  -1 -18   3 1446.21 230.622   3
  -1 -18   2 689.362 187.877   3
  -1 -18   1 730.221 198.099   3
  -1 -18   0 2267.24 284.407   3
  -1 -18  -1 2402.40 272.358   3
   1 -18   2 352.040 174.317   3
  -1 -18  -2 266.008 134.915   3
   1 -18   3 724.170 185.810   3
  -1 -18  -3 1064.62 192.505   3
  -1 -17   4 36.7393 129.563   3
  -1 -17   3 868.629 200.862   3
  -1 -17   2 276.185 166.110   3
  -1 -17   1 8220.07 491.671   3
  -1 -17   0 1116.35 205.242   3
  -1 -17  -1 2850.95 286.694   3
   1 -17   1 2484.15 274.402   3
  -1 -17  -2 673.430 160.788   3
   1 -17   2 856.977 202.341   3
  -1 -17  -3 2114.38 237.806   3
   1 -17   3 1997.68 255.893   3
   1 -17   4 171.518 134.812   3
   1 -17   5 1973.32 266.338   3
  -1 -16   6 1176.70 217.966   3
  -1 -16   5 154.567 128.593   3
  -1 -16   4 606.349 185.821   3
  -1 -16   3 1553.48 227.255   3
  -1 -16   2 2127.42 265.265   3
  -1 -16   1 638.147 182.019   3
  -1 -16   0 4005.96 326.866   3
   1 -16   1 406.849 153.828   3
  -1 -16  -1 397.363 150.771   3
  -1 -16  -2 5106.97 361.409   3
   1 -16   2 5071.00 383.993   3
  -1 -16  -3 895.437 172.777   3
   1 -16   3 1428.79 225.310   3
   1 -16   4 1177.84 214.146   3
   1 -16   5 1180.78 207.172   3
   1 -16   5 1243.34 243.743   2
   1 -16   6 2852.58 301.816   3
  -1 -15   7 1517.29 230.070   3
  -1 -15   6 809.550 188.409   3
  -1 -15   5 810.752 194.258   3
  -1 -15   4 1456.60 226.240   3
  -1 -15   3 1672.14 224.125   3
  -1 -15   2 10219.6 525.928   3
  -1 -15   1 7640.66 446.181   3
  -1 -15   0 7952.47 439.346   3
  -1 -15  -1 873.291 178.528   3
   1 -15   1 684.820 177.870   3
   1 -15   2 1637.23 233.049   3
  -1 -15  -2 1954.02 223.778   3
  -1 -15  -3 2836.21 255.299   3
   1 -15   3 2093.77 248.193   3
   1 -15   4 2031.91 250.604   3
   1 -15   5 5831.52 436.305   2
   1 -15   5 5732.00 405.955   3
   1 -15   6 1256.98 212.755   3
   1 -15   6 1603.85 257.274   2
  -1 -14   7 993.651 199.300   2
  -1 -14   7 974.758 195.687   3
  -1 -14   6 3051.90 297.410   3
  -1 -14   5 3139.15 301.961   3
  -1 -14   4 6311.36 412.004   3
  -1 -14   3 46.2623 133.265   3
  -1 -14   2 2639.88 260.063   3
  -1 -14   1 7616.06 433.399   3
   1 -14   0 3921.50 309.654   3
  -1 -14   0 4222.26 316.045   3
   1 -14   1 17604.2 682.798   3
  -1 -14  -1 18366.8 674.247   3
   1 -14   2 16249.3 662.336   3
  -1 -14  -2 15987.7 621.226   3
   1 -14   3 4130.81 322.495   3
  -1 -14  -3 3454.31 262.912   3
   1 -14   4 10456.1 529.496   3
   1 -14   5 3768.24 315.058   3
   1 -14   5 3864.46 353.531   2
   1 -14   6 1219.89 225.223   2
   1 -14   6 980.415 181.309   3
  -1 -13   7 2698.08 277.303   3
  -1 -13   7 2366.18 277.498   2
  -1 -13   6 2308.00 259.059   3
  -1 -13   5 2949.89 286.955   3
  -1 -13   4 1515.63 213.515   3
  -1 -13   3 34352.5 1057.49   3
  -1 -13   2 8036.56 424.937   3
  -1 -13   1 28279.1 901.808   3
   1 -13   0 12480.7 529.266   3
  -1 -13   0 12445.3 531.760   3
  -1 -13  -1 23067.5 751.174   3
   1 -13   1 21756.9 770.037   3
   1 -13   2 7951.29 430.355   3
  -1 -13  -2 7959.63 399.114   3
   1 -13   3 330.511 134.556   3
  -1 -13  -3 201.279 106.039   3
   1 -13   4 5203.29 355.586   3
  -1 -13  -4 5668.84 313.034   3
   1 -13   5 4689.23 374.269   2
   1 -13   5 5083.78 354.384   3
   1 -13   6 2255.43 276.733   2
   1 -13   6 2453.28 250.566   3
   1 -13   7 1619.08 253.979   2
  -1 -12   7 745.622 175.983   2
  -1 -12   7 572.498 148.238   3
  -1 -12   6 2387.28 252.175   3
  -1 -12   5 1812.83 226.234   3
  -1 -12   4 16049.6 635.432   3
  -1 -12   3 8003.67 425.719   3
  -1 -12   2 550.589 153.150   3
  -1 -12   1 4921.74 309.710   3
  -1 -12   0 15529.0 583.531   3
   1 -12   0 15067.8 582.219   3
   1 -12   1 12989.6 545.581   3
  -1 -12  -1 14052.4 530.457   3
  -1 -12  -2 16070.7 571.177   3
   1 -12   2 15519.6 599.236   3
   1 -12   3 5388.71 343.073   3
  -1 -12  -3 6179.29 319.108   3
   1 -12   4 7892.90 423.366   3
  -1 -12  -4 7893.77 357.989   3
   1 -12   5 284.176 141.197   2
   1 -12   5 81.3659 102.177   3
   1 -12   6 2207.14 265.951   2
   1 -12   6 1690.80 207.328   3
   1 -12   7 3493.19 338.102   2
  -1 -11   7 396.390 128.163   3
  -1 -11   7 403.544 147.720   2
  -1 -11   6 6193.02 378.963   3
  -1 -11   5 3297.33 271.961   3
  -1 -11   4 7563.53 409.301   3
  -1 -11   3 962.158 165.676   3
  -1 -11   2 2230.90 210.341   3
  -1 -11   1 1364.39 179.471   3
  -1 -11   0 18629.0 626.861   3
   1 -11   0 18096.2 622.798   3
   1 -11   1 2850.73 230.554   3
  -1 -11  -1 2699.37 221.009   3
  -1 -11  -2 1677.79 164.943   3
   1 -11   2 1448.43 185.332   3
   1 -11   3 1076.57 170.136   3
  -1 -11  -3 1172.27 139.435   3
  -1 -11  -4 3733.87 226.220   3
   1 -11   4 3611.85 271.850   3
   1 -11   5 69.0347 98.3674   3
   1 -11   5 264.826 132.925   2
   1 -11   6 498.059 155.141   2
   1 -11   6 501.830 131.570   3
   1 -11   7 802.958 192.031   2
   1 -11   8 6793.81 478.138   2
  -1 -10   7 3368.71 274.414   3
  -1 -10   7 3025.54 279.217   2
  -1 -10   6 6539.41 377.873   3
  -1 -10   6 6220.81 383.125   2
  -1 -10   5 14633.8 574.807   3
  -1 -10   4 1679.18 194.309   3
  -1 -10   3 591.036 130.092   3
  -1 -10   2 11213.0 468.405   3
  -1 -10   1 33767.9 952.606   3
  -1 -10   0 34859.1 953.826   3
   1 -10   0 35635.9 956.675   3
   1 -10   1 2272.30 207.658   3
  -1 -10  -1 2406.30 193.889   3
  -1 -10  -2 10157.5 397.890   3
   1 -10   2 10742.0 442.342   3
  -1 -10  -3 9137.28 363.842   3
   1 -10   3 9225.90 412.022   3
   1 -10   4 4289.36 282.846   3
  -1 -10  -4 4404.98 231.462   3
   1 -10   5 5001.00 313.414   3
   1 -10   5 5236.39 353.781   2
   1 -10   6 1405.98 168.829   3
   1 -10   6 1365.18 214.494   2
   1 -10   7 4078.65 341.224   2
  -1 -10  -7 4771.70 377.699   1
   1 -10   8 1590.18 235.316   2
   1  -9  -8 2038.16 273.258   1
  -1  -9   7 889.149 169.172   2
  -1  -9   7 656.897 128.611   3
   1  -9  -7 867.616 193.385   1
  -1  -9   6 3895.31 288.192   2
  -1  -9   6 3350.13 264.212   3
  -1  -9   5 2253.89 215.075   3
  -1  -9   4 272.812 104.157   3
  -1  -9   3 7296.82 356.001   3
  -1  -9   2 1505.22 169.253   3
  -1  -9   1 29059.5 816.228   3
   1  -9   0 27811.2 762.383   3
  -1  -9   0 25278.9 753.866   3
  -1  -9  -1 4461.67 249.732   3
   1  -9   1 4701.72 270.545   3
   1  -9   2 2336.49 197.548   3
  -1  -9  -2 2141.88 164.862   3
  -1  -9  -3 2440.51 168.466   3
   1  -9   3 2652.77 213.846   3
   1  -9   4 19347.1 688.806   2
  -1  -9  -4 19517.7 560.436   3
   1  -9   4 20555.1 653.180   3
   1  -9   5 21324.7 703.362   3
   1  -9   5 22485.8 779.766   2
  -1  -9  -5 22627.6 778.290   1
  -1  -9  -6 2119.22 250.408   1
   1  -9   6 2131.03 197.998   3
   1  -9   6 2164.37 245.867   2
   1  -9   7 983.127 184.606   2
  -1  -9  -7 905.008 194.616   1
   1  -9   8 3790.34 342.217   2
  -1  -9  -8 3782.09 359.922   1
   1  -9   9 1286.11 216.746   2
   1  -8  -8 5524.20 424.376   1
  -1  -8   7 4834.48 325.037   2
   1  -8  -7 5516.51 397.680   1
  -1  -8   7 5629.54 324.345   3
  -1  -8   6 658.246 126.766   3
   1  -8  -6 612.062 168.318   1
  -1  -8   6 651.549 143.606   2
  -1  -8   5 4854.87 283.694   3
  -1  -8   4 7704.28 361.404   3
  -1  -8   3 12789.0 473.915   3
  -1  -8   2 7858.30 348.691   3
  -1  -8   1 13659.5 476.344   3
  -1  -8   0 5934.47 273.642   3
   1  -8   0 5769.07 284.243   3
   1  -8   1 10699.3 406.537   3
  -1  -8  -1 10536.8 379.065   3
   1  -8   2 67965.6 1577.90   3
  -1  -8  -2 68194.7 1515.16   3
  -1  -8  -3 17419.4 505.225   3
   1  -8   3 17456.6 567.743   3
  -1  -8  -4 3279.40 170.991   3
  -1  -8  -4 3108.21 249.718   1
   1  -8   4 3142.32 218.437   3
   1  -8   4 2983.01 248.541   2
   1  -8   5 3272.63 270.283   2
  -1  -8  -5 2894.42 263.164   1
   1  -8   5 3277.69 224.805   3
   1  -8   6 4255.99 256.930   3
  -1  -8  -6 3970.83 323.091   1
   1  -8   6 4335.50 322.643   2
   1  -8   7 54.9792 119.946   2
  -1  -8  -7 243.546 144.644   1
   1  -8   8 782.300 177.020   2
  -1  -8  -8 346.074 166.583   1
   1  -8   9 235.695 135.969   2
   1  -7  -8 2286.03 297.949   1
   1  -7  -7 4144.24 342.386   1
  -1  -7   7 3526.81 245.918   3
  -1  -7   7 3576.72 264.098   2
  -1  -7   6 17180.5 584.007   3
  -1  -7   6 15964.8 593.039   2
   1  -7  -6 17238.5 682.032   1
  -1  -7   5 4083.86 257.676   3
   1  -7  -5 3996.99 295.854   1
  -1  -7   4 7470.82 339.185   3
  -1  -7   3 14471.0 489.501   3
  -1  -7   2 64652.5 1485.22   3
  -1  -7   1 10143.4 375.865   3
  -1  -7   0 9821.03 361.571   3
   1  -7   0 10144.4 367.629   3
   1  -7   1 21590.9 602.346   3
  -1  -7  -1 19644.1 565.455   3
   1  -7   2 4853.78 252.095   3
  -1  -7  -2 4991.45 223.728   3
   1  -7   3 27068.5 754.877   3
  -1  -7  -3 28281.3 692.342   3
  -1  -7  -4 1672.56 192.406   1
   1  -7   4 1604.68 150.617   3
   1  -7   4 1731.64 186.447   2
   1  -7   5 3753.68 281.690   2
   1  -7   5 3731.08 225.301   3
  -1  -7  -5 3922.62 293.667   1
   1  -7   6 899.574 117.710   3
  -1  -7  -6 1115.74 195.856   1
   1  -7   6 599.746 142.857   2
   1  -7   7 5806.88 384.213   2
  -1  -7  -7 5812.84 414.625   1
   1  -7   8 1065.54 187.310   2
  -1  -7  -8 1037.98 219.438   1
   1  -7   9 622.187 164.139   2
   1  -6  -8 243.064 128.497   1
  -1  -6   7 12378.1 506.429   2
  -1  -6   7 12296.5 472.079   3
   1  -6  -7 12062.8 593.799   1
  -1  -6   6 20589.1 661.430   2
  -1  -6   6 19633.9 633.038   3
   1  -6  -6 20092.4 746.846   1
   1  -6  -5 41355.8 1162.93   1
  -1  -6   5 42360.7 1076.87   3
  -1  -6   5 42402.7 1085.45   2
  -1  -6   4 14348.7 487.062   3
   1  -6  -4 15274.2 536.291   1
   1  -6  -4 13801.2 417.459   2
  -1  -6   3 10154.6 377.851   3
  -1  -6   2 19595.4 569.176   3
  -1  -6   1 83208.0 1806.09   3
  -1  -6   0 35838.7 867.327   3
  -1  -6  -1 23727.9 612.714   3
   1  -6   1 23689.8 634.860   3
  -1  -6  -2 31742.8 769.334   3
   1  -6   2 33355.3 819.088   3
   1  -6   3 18976.7 596.282   2
  -1  -6  -3 19450.5 492.030   3
  -1  -6  -3 18672.5 590.101   1
   1  -6   3 18991.3 552.611   3
   1  -6   4 2294.24 167.623   3
  -1  -6  -4 2206.86 204.477   1
   1  -6   4 2291.00 203.535   2
   1  -6   5 12077.0 501.136   2
   1  -6   5 13138.2 435.424   3
  -1  -6  -5 12046.7 519.718   1
   1  -6   6 14782.2 479.544   3
  -1  -6  -6 14858.4 614.072   1
   1  -6   6 14496.6 590.021   2
  -1  -6  -7 6248.84 415.759   1
   1  -6   7 6880.77 408.818   2
  -1  -6  -8 814.793 189.942   1
   1  -6   8 882.380 180.974   2
   1  -6   9 357.621 134.787   2
   1  -5  -8 696.012 177.211   1
   1  -5  -7 5027.94 367.045   1
  -1  -5   7 4668.16 257.363   3
  -1  -5   7 4832.53 289.758   2
   1  -5  -6 18430.5 685.665   1
  -1  -5   6 18270.6 574.776   3
  -1  -5   6 17332.9 590.026   2
  -1  -5   5 28160.9 794.304   2
   1  -5  -5 29696.9 727.417   2
   1  -5  -5 28914.8 887.028   1
  -1  -5   5 29585.8 794.036   3
  -1  -5   4 5232.69 257.475   3
   1  -5  -4 5506.93 213.527   2
   1  -5  -4 5478.31 303.461   1
   1  -5  -3 2712.36 194.991   1
  -1  -5   3 2520.83 170.189   3
  -1  -5   2 33417.4 824.786   3
  -1  -5   1 18420.8 513.377   3
  -1  -5   0 36363.1 849.799   3
  -1  -5  -1 13672.3 386.359   3
   1  -5   1 14081.2 411.063   3
  -1  -5  -2 10761.2 366.892   1
  -1  -5  -2 11382.6 319.982   3
   1  -5   2 10356.9 350.511   3
   1  -5   3 36940.5 933.601   2
   1  -5   3 36230.3 868.932   3
  -1  -5  -3 35908.2 933.258   1
  -1  -5  -3 35849.4 795.175   3
   1  -5   4 22937.1 616.859   3
   1  -5   4 22823.6 692.987   2
  -1  -5  -4 23009.1 704.529   1
  -1  -5  -5 8385.13 411.799   1
   1  -5   5 8727.83 320.147   3
   1  -5   5 8507.87 396.253   2
   1  -5   6 236.821 124.744   2
  -1  -5  -6 3.69816 127.749   1
  -1  -5  -7 1430.63 215.435   1
   1  -5   7 1366.18 188.018   2
  -1  -5  -8 7407.06 480.722   1
   1  -5   8 6744.86 417.522   2
   1  -5   9 1796.14 227.949   2
   1  -4  -9 855.809 209.020   1
   1  -4  -8 142.461 147.611   1
   1  -4  -7 1265.33 200.596   1
  -1  -4   7 1683.27 147.339   3
  -1  -4   7 1778.68 173.857   2
  -1  -4   6 522.900 93.1756   3
   1  -4  -6 212.643 130.566   1
  -1  -4   6 514.180 108.917   2
   1  -4  -5 1062.26 165.540   1
   1  -4  -5 1234.17 98.0571   2
  -1  -4   5 1461.88 139.829   2
  -1  -4   5 1249.74 125.267   3
   1  -4  -4 11512.5 439.599   1
  -1  -4   4 11770.7 393.179   3
   1  -4  -4 11138.3 324.747   2
   1  -4  -3 32824.6 749.492   2
  -1  -4   3 33469.0 829.269   3
  -1  -4   2 6774.25 263.811   3
  -1  -4   1 69200.3 1484.44   3
  -1  -4   0 12283.7 353.499   3
  -1  -4  -1 46061.1 998.765   3
  -1  -4  -2 10997.9 354.394   2
   1  -4   2 10651.5 327.997   3
   1  -4   2 10534.2 360.399   2
  -1  -4  -2 10204.4 284.985   3
  -1  -4  -2 10133.1 346.489   1
   1  -4   3 24767.5 674.421   2
  -1  -4  -3 23402.6 670.657   1
   1  -4   3 23367.8 597.678   3
  -1  -4  -3 23825.6 528.230   3
  -1  -4  -4 55804.7 1328.74   1
   1  -4   4 52681.9 1188.15   3
   1  -4   4 53202.6 1288.03   2
  -1  -4  -5 5966.33 343.346   1
   1  -4   5 6151.56 240.447   3
   1  -4   5 5906.02 323.876   2
  -1  -4  -6 2479.94 251.266   1
   1  -4   6 2970.41 244.208   2
   1  -4   7 5708.79 360.147   2
  -1  -4  -7 5925.18 397.892   1
  -1  -4  -8 5029.79 390.541   1
   1  -4   8 4103.14 314.465   2
  -1  -4  -9 4346.27 388.041   1
   1  -4   9 4301.19 342.382   2
   1  -3  -9 2548.42 301.629   1
   1  -3  -8 4222.79 358.123   1
   1  -3  -7 9695.39 504.378   1
  -1  -3   7 9393.05 395.804   2
   1  -3  -6 1967.64 224.469   1
  -1  -3   6 1930.82 162.807   2
  -1  -3   6 1999.39 148.969   3
  -1  -3   5 135.839 66.2556   3
  -1  -3   5-7.44986 57.8892   2
   1  -3  -5-15.0037 38.2151   2
  -1  -3   4 28177.3 701.452   2
   1  -3  -4 28309.1 783.932   1
  -1  -3   4 28027.3 715.049   3
   1  -3  -4 27133.0 644.341   2
  -1  -3   3 16295.9 453.725   3
   1  -3  -3 15756.6 482.503   1
   1  -3  -3 15226.4 377.312   2
  -1  -3   2 41508.9 939.191   3
   1  -3  -2 39753.7 944.752   1
  -1  -3   1 70976.1 1503.01   3
  -1  -3   0 58844.5 1243.82   3
  -1  -3  -1 54928.6 1139.34   3
  -1  -3  -1 55034.2 1153.73   1
   1  -3   1 52985.5 1178.60   2
   1  -3   2 64861.9 1423.57   2
  -1  -3  -2 65022.3 1407.00   1
  -1  -3  -2 63901.8 1316.53   3
  -1  -3  -2 67117.2 1416.66   2
   1  -3   3 18558.0 467.662   3
  -1  -3  -3 17897.9 391.991   3
  -1  -3  -3 18028.8 541.342   1
   1  -3   4 16794.2 542.905   2
  -1  -3  -4 17005.7 560.890   1
   1  -3   4 16701.4 440.290   3
  -1  -3  -5 5666.23 333.291   1
   1  -3   5 6572.55 328.311   2
   1  -3   6 228.975 115.140   2
  -1  -3  -6-130.186 144.232   1
  -1  -3  -7 6407.16 410.978   1
   1  -3   7 6090.43 361.068   2
  -1  -3  -8 571.630 174.617   1
   1  -3   8 665.931 145.300   2
   1  -3   9 5621.44 391.004   2
  -1  -3  -9 5838.10 451.785   1
   1  -2  -9 5763.39 443.809   1
   1  -2  -8 7531.30 472.569   1
   1  -2  -7 12116.5 562.701   1
  -1  -2   7 10939.8 416.745   2
   1  -2  -6 24593.7 797.504   1
  -1  -2   6 23266.7 632.557   3
  -1  -2   6 23201.1 663.123   2
  -1  -2   5 31163.2 767.838   3
  -1  -2   5 29830.9 766.250   2
   1  -2  -5 31449.8 890.034   1
   1  -2  -5 30403.3 728.059   2
  -1  -2   4 472.345 82.3684   3
  -1  -2   4 544.865 78.7220   2
   1  -2  -4 429.619 54.1399   2
   1  -2  -4 426.437 118.877   1
   1  -2  -3 8000.59 322.721   1
   1  -2  -3 8067.50 218.418   2
  -1  -2   3 8214.68 280.487   3
   1  -2  -2 42222.4 913.732   1
  -1  -2   2 41500.1 899.965   3
  -1  -2   1 147541. 2951.44   3
  -1  -2   0 24073.4 551.795   3
   1  -2   1 989064. 18998.7   2
  -1  -2  -1 972850. 18968.5   1
  -1  -2  -1 999999. 19003.2   2
  -1  -2  -1 973679. 18949.8   3
  -1  -2  -2 116025. 2363.19   2
  -1  -2  -2 113690. 2256.93   3
  -1  -2  -2 114585. 2356.12   1
   1  -2   2 117384. 2367.16   2
   1  -2   3 100882. 2148.84   2
   1  -2   4 9008.16 362.304   2
   1  -2   5 7988.59 363.983   2
   1  -2   6 8361.79 391.699   2
  -1  -2  -6 8754.94 443.417   1
   1  -2   7 524.785 137.013   2
  -1  -2  -7 276.870 135.354   1
  -1  -2  -8 4643.80 369.684   1
   1  -2   8 5046.86 347.059   2
   1  -2   9 4962.86 356.648   2
  -1  -2  -9 4874.28 413.576   1
   1  -1  -9 3500.37 349.492   1
   1  -1  -8 927.738 194.628   1
   1  -1  -7 8932.03 472.380   1
  -1  -1   7 8349.11 348.289   2
   1  -1  -6 3850.44 306.591   1
  -1  -1   6 3687.58 206.328   2
  -1  -1   6 4066.14 201.783   3
   1  -1  -5 9290.48 426.774   1
  -1  -1   5 10037.9 337.518   2
  -1  -1   5 10221.5 335.926   3
  -1  -1   4 13503.8 381.113   2
  -1  -1   4 13934.7 400.826   3
   1  -1  -4 13825.9 478.657   1
   1  -1  -4 13655.9 360.816   2
  -1  -1   3 377.663 75.9742   3
   1  -1  -3 462.740 45.9543   2
  -1  -1   3 489.037 56.8948   2
   1  -1  -3 463.799 96.3424   1
  -1  -1   2 62132.7 1328.58   3
   1  -1  -2 63985.9 1344.39   1
   1  -1  -1 87399.6 1776.58   1
  -1  -1   1 90023.7 1800.46   3
   1  -1   0 16604.7 377.951   2
  -1  -1   0 16668.0 394.282   3
   1  -1   1 292131. 5655.82   2
  -1  -1  -1 292040. 5656.33   2
  -1  -1  -1 284391. 5607.24   3
  -1  -1  -2 144391. 2869.01   2
   1  -1   2 141684. 2878.47   2
   1  -1   3 73497.1 1610.53   2
   1  -1   4 5908.87 285.454   2
   1  -1   5 22416.2 676.693   2
   1  -1   6 536.347 127.134   2
   1  -1   7 561.970 130.288   2
   1  -1   8 1317.72 190.433   2
  -1  -1  -8 1388.45 232.006   1
   1  -1   9 2599.89 262.805   2
  -1  -1  -9 2245.39 287.312   1
   1   0  -9 5399.78 426.496   1
   1   0  -8 1177.76 206.283   1
   1   0  -7 1175.92 209.979   1
  -1   0   7 1072.16 121.121   2
  -1   0   6 44789.7 1015.74   3
  -1   0   6 43498.0 1047.14   2
  -1   0   5 12506.8 380.426   2
  -1   0   5 12738.8 378.637   3
  -1   0   4 21176.1 530.111   2
  -1   0   4 23155.0 565.181   3
  -1   0   3 8774.29 237.339   2
  -1   0   3 8628.19 275.731   3
  -1   0   2 4828.63 134.240   2
  -1   0   2 9197.05 234.587   3
   1   0  -1 24921.4 536.266   1
   1   0   0 185103. 3492.63   2
  -1   0   0 172250. 3487.64   2
   1   0   1 166059. 3240.57   2
  -1   0  -1 160492. 3245.62   2
   1   0   2 109638. 2250.08   2
  -1   0  -2 109547. 2255.68   2
   1   0   3 137019. 2822.96   2
   1   0   4 62847.4 1436.01   2
   1   0   5 20502.5 634.616   2
   1   0   6 341.318 113.714   2
   1   0   7 346.830 119.458   2
   1   0   8 3252.60 274.218   2
   1   0   9 168.327 106.154   2
  -1   0  -9 207.342 148.257   1
   1   1  -9 3096.69 331.392   1
  -1   1   7 8678.94 341.839   2
  -1   1   6 4774.82 229.763   2
  -1   1   6 4918.98 209.637   3
  -1   1   5 9956.14 321.440   3
  -1   1   5 9950.59 319.565   2
  -1   1   4 12896.4 347.714   2
  -1   1   4 12694.6 370.264   3
  -1   1   3 453.821 44.3817   2
  -1   1   3 485.626 71.2632   3
   1   1  -2 65046.2 1371.81   3
   1   1  -1 89179.6 1818.29   3
  -1   1   1 89335.7 1795.28   1
  -1   1   0 16064.0 376.591   2
   1   1   0 17234.1 397.869   3
  -1   1  -1 274986. 5583.90   2
   1   1   1 295684. 5592.22   2
  -1   1  -2 144311. 2919.29   2
   1   1   2 145163. 2920.76   2
  -1   1  -2 143448. 2839.75   3
  -1   1  -3 71484.6 1427.21   3
   1   1   3 68623.6 1548.07   2
  -1   1  -4 5645.11 165.390   3
   1   1   4 5319.45 262.966   2
   1   1   5 22173.7 635.355   2
  -1   1  -5 18357.9 410.672   3
   1   1   6 425.947 118.810   2
   1   1   7 677.379 140.070   2
   1   1   8 1273.07 183.210   2
  -1   2   6 23500.7 586.942   3
  -1   2   5 30266.8 721.777   3
  -1   2   4 478.720 73.5353   3
   1   2  -4 703.970 86.1708   3
   1   2  -3 8439.17 283.308   3
  -1   2   2 41990.6 962.726   1
   1   2  -2 43357.9 951.887   3
   1   2  -1 147795. 2958.20   3
  -1   2   1 148843. 2943.51   1
   1   2   0 23666.1 543.975   3
  -1   2  -1 970430. 18450.6   2
   1   2   1 948784. 18404.7   3
   1   2   1 945288. 18419.3   1
  -1   2  -2 115307. 2350.56   2
   1   2   2 111567. 2352.52   2
   1   2   2 113725. 2240.25   3
  -1   2  -2 114239. 2282.13   3
   1   2   3 94256.2 2031.69   2
  -1   2  -3 95785.5 1926.57   3
   1   2   4 8718.49 354.019   2
  -1   2  -4 9144.79 258.475   3
   1   2   5 7213.91 334.414   2
  -1   2  -5 7077.37 214.897   3
   1   2   6 8566.62 390.932   2
   1   2   7 666.785 143.814   2
   1   2   8 5367.95 346.791   2
  -1   3   6 1841.04 116.167   3
  -1   3   5-27.7466 46.9809   3
   1   3  -3 16470.0 464.856   3
  -1   3   2 44505.4 1000.16   1
   1   3  -2 42591.4 982.257   3
  -1   3   1 68810.0 1443.44   1
   1   3  -1 69327.2 1461.25   3
   1   3   0 55356.1 1175.33   3
   1   3   1 56306.9 1175.09   1
   1   3   1 54541.5 1157.18   3
  -1   3  -1 55842.6 1183.14   3
   1   3   2 63820.2 1312.07   3
  -1   3  -2 65146.3 1355.69   3
   1   3   3 16107.7 363.845   3
  -1   3  -3 18986.5 444.897   3
  -1   3  -4 17250.9 447.657   3
   1   3   4 17422.7 544.257   2
  -1   3  -5 6601.33 228.996   3
   1   3   5 6031.56 306.248   2
  -1   4   6 432.457 64.6460   3
  -1   4   2 6271.13 254.513   1
   1   4  -2 6568.94 248.852   3
   1   4  -1 71745.5 1531.36   3
  -1   4   0 12513.6 361.536   3
   1   4   0 12850.1 363.804   3
  -1   4  -1 46546.6 1029.11   3
   1   4   1 46343.0 1010.96   3
   1   4   1 46080.9 1021.46   1
  -1   4  -2 10549.0 325.553   3
   1   4   2 10310.5 288.231   3
   1   4   2 10813.1 346.661   1
  -1   4  -3 23222.0 576.254   3
   1   4   3 22394.1 507.146   3
  -1   4  -4 53377.6 1182.15   3
  -1   4  -5 6122.51 238.200   3
  -1   5   6 19508.4 524.951   3
  -1   5   5 28071.4 691.333   3
  -1   5   4 5099.63 210.231   3
  -1   5   2 32453.0 775.148   3
   1   5  -1 19587.7 529.556   3
  -1   5   1 18421.9 505.777   3
   1   5   0 38763.3 890.680   3
  -1   5   0 37575.7 887.550   3
   1   5   1 14365.1 406.162   1
  -1   5  -1 14090.9 415.014   3
   1   5   1 14069.8 396.664   3
  -1   5  -2 11304.4 359.014   3
   1   5   2 10835.2 320.455   3
   1   5   3 35780.1 792.978   3
   1   5   4 21125.3 479.217   3
   1   6   1 22938.2 615.997   1
   1   6   1 25150.2 622.810   3
   1   6   2 32837.0 777.301   3
   1   6   3 18886.7 485.773   3
   1   6   4 2280.96 112.051   3
   1   7   3 27479.8 681.391   3
   1   7   4 1439.76 100.781   3
  -2 -19   0 1026.78 204.880   3
  -2 -19  -1 1099.60 217.108   3
  -2 -19  -2-5.53331 114.443   3
  -2 -19  -3-64.4792 97.4849   3
  -2 -18   2 1248.00 228.163   3
  -2 -18   1 52.6552 139.910   3
  -2 -18   0 965.252 191.624   3
  -2 -18  -1 1929.24 251.011   3
  -2 -18  -2 2096.04 255.891   3
  -2 -18  -3 687.747 155.667   3
  -2 -17   4 2359.92 288.983   3
  -2 -17   3 724.227 183.462   3
  -2 -17   2 546.624 181.902   3
  -2 -17   1 683.039 185.778   3
  -2 -17   0 49.6763 130.731   3
  -2 -17  -1 4571.61 361.421   3
  -2 -17  -2 554.795 155.586   3
  -2 -17  -3 3937.35 321.702   3
  -2 -16   5 849.161 207.419   3
  -2 -16   4 474.114 173.071   3
  -2 -16   3 794.009 199.241   3
  -2 -16   2 5.90852 115.010   3
  -2 -16   1 4163.23 344.624   3
  -2 -16   0 5031.12 375.485   3
  -2 -16  -1 6419.16 407.359   3
  -2 -16  -2 13131.9 593.635   3
  -2 -16  -3 913.934 168.485   3
   2 -16   4 1121.86 226.494   2
  -2 -15   6 656.100 185.926   3
  -2 -15   5 921.887 195.599   3
  -2 -15   4-144.562 124.278   3
  -2 -15   3 2796.36 303.414   3
  -2 -15   2 18993.9 764.722   3
  -2 -15   1 4164.22 338.632   3
  -2 -15   0 8912.99 485.771   3
  -2 -15  -1 985.176 181.596   3
  -2 -15  -2 175.484 116.403   3
  -2 -15  -3 6802.97 391.917   3
   2 -15   4 3521.40 337.525   2
   2 -15   5 4710.65 403.861   2
  -2 -14   7 161.982 139.180   3
  -2 -14   7 110.760 114.046   2
  -2 -14   6 1953.13 252.823   3
  -2 -14   5 2567.26 278.813   3
  -2 -14   4 670.582 188.969   3
  -2 -14   3 5650.13 384.859   3
  -2 -14   2 5863.57 387.971   3
  -2 -14   1 8682.96 462.177   3
  -2 -14   0 4203.77 314.530   3
  -2 -14  -1 2363.90 236.737   3
  -2 -14  -2 499.964 130.209   3
  -2 -14  -3 6514.93 367.774   3
   2 -14   4 2644.36 299.904   2
  -2 -14  -4 2627.25 228.255   3
   2 -14   5 917.598 212.427   2
   2 -14   6 524.370 180.641   2
  -2 -13   7 4307.31 359.723   3
  -2 -13   7 3638.59 323.881   2
  -2 -13   6 228.783 133.586   3
  -2 -13   5 4603.51 364.752   3
  -2 -13   4 218.475 120.518   3
  -2 -13   3 5069.32 356.402   3
  -2 -13   2 18948.0 721.982   3
  -2 -13   1 9004.94 458.841   3
  -2 -13   0 3211.60 271.013   3
  -2 -13  -1 12576.3 536.473   3
  -2 -13  -2 3425.03 266.441   3
  -2 -13  -3 4356.25 282.180   3
  -2 -13  -4 342.317 103.638   3
   2 -13   4 275.245 135.507   2
   2 -13   5 2053.56 268.690   2
   2 -13   6 3476.10 348.049   2
  -2 -12   7 223.373 116.467   3
  -2 -12   7 342.062 137.855   2
  -2 -12   6 2825.24 283.793   3
  -2 -12   5 3054.28 284.214   3
  -2 -12   4 16834.5 675.836   3
  -2 -12   3 1932.68 227.974   3
  -2 -12   2 2704.31 257.190   3
  -2 -12   1 11931.4 517.888   3
  -2 -12   0 12637.1 527.516   3
  -2 -12  -1 3323.18 260.943   3
  -2 -12  -2 30616.2 898.145   3
  -2 -12  -3 2726.45 214.844   3
  -2 -12  -4 695.483 120.432   3
   2 -12   4 326.047 152.970   2
   2 -12   5 2428.72 277.467   2
   2 -12   6 2124.36 275.330   2
   2 -12   7 1298.17 236.915   2
  -2 -11   7 202.192 119.615   3
  -2 -11   7-32.4064 110.453   2
  -2 -11   6 176.676 110.699   3
  -2 -11   5 8864.53 464.806   3
  -2 -11   4 2793.78 259.265   3
  -2 -11   3 1100.86 175.729   3
  -2 -11   2 35322.0 1029.99   3
  -2 -11   1 3815.80 276.252   3
  -2 -11   0 39340.2 1076.53   3
  -2 -11  -1 11998.4 481.493   3
  -2 -11  -2 10378.1 430.544   3
  -2 -11  -3 561.060 113.394   3
  -2 -11  -4 4072.37 240.309   3
   2 -11   4 3765.19 326.385   2
   2 -11   5 2261.64 262.574   2
   2 -11   6 6884.09 457.073   2
   2 -11   7 503.994 169.309   2
  -2 -10   7 1635.89 212.090   3
  -2 -10   7 1516.57 199.211   2
  -2 -10   6 1703.61 204.963   3
  -2 -10   5 1235.51 181.769   3
  -2 -10   4 2418.56 229.629   3
  -2 -10   3 910.348 167.677   3
  -2 -10   2 15773.8 587.389   3
  -2 -10   1 1349.77 169.010   3
  -2 -10   0 2243.10 203.019   3
  -2 -10  -1 2647.71 204.027   3
  -2 -10  -2 7094.81 328.104   3
   2 -10   3 44182.0 1235.08   2
  -2 -10  -3 45348.8 1123.49   3
  -2 -10  -4 587.395 98.0180   3
   2 -10   4 698.213 164.141   2
   2 -10   5 8343.53 473.478   2
   2 -10   6 4536.66 357.409   2
  -2 -10  -7 1484.25 237.824   1
   2 -10   7 1971.51 267.323   2
   2 -10   8 351.867 155.517   2
  -2  -9   7 3579.62 284.783   3
  -2  -9   6 1870.90 211.285   3
  -2  -9   5 6405.30 365.446   3
  -2  -9   4 3746.04 274.218   3
  -2  -9   3 712.707 149.294   3
  -2  -9   2 8021.50 379.795   3
  -2  -9   1 3297.80 233.792   3
  -2  -9   0 1209.77 153.513   3
  -2  -9  -1 6270.60 309.221   3
  -2  -9  -2 5938.54 297.630   3
  -2  -9  -3 193.749 83.0611   3
   2  -9   3 287.885 132.798   2
   2  -9   4 21874.3 778.974   2
  -2  -9  -4 22738.8 624.830   3
   2  -9   5 7057.52 418.416   2
  -2  -9  -5 7004.26 399.685   1
  -2  -9  -6 572.922 170.126   1
   2  -9   6 40.1524 137.462   2
  -2  -9  -7 308.092 134.598   1
   2  -9   7 339.556 153.834   2
  -2  -9  -8 252.864 155.535   1
   2  -9   8 231.459 141.668   2
   2  -8  -8 2608.28 294.911   1
  -2  -8   7 1062.30 160.069   3
  -2  -8   6 4420.98 279.836   2
  -2  -8   6 3713.70 278.782   3
  -2  -8   5 41725.2 1146.24   3
  -2  -8   4 35200.9 993.309   3
  -2  -8   3 1653.67 178.964   3
  -2  -8   2 1461.31 166.240   3
  -2  -8   1 45128.1 1143.61   3
  -2  -8   0 42978.1 1081.81   3
  -2  -8  -1 14045.2 476.951   3
  -2  -8  -2 15109.6 482.849   3
   2  -8   3 14888.6 552.713   2
  -2  -8  -3 13555.3 441.807   3
   2  -8   4 2287.48 232.785   2
  -2  -8  -4 2449.92 150.458   3
  -2  -8  -4 2650.10 234.919   1
  -2  -8  -5 5027.03 333.484   1
   2  -8   5 5236.67 353.578   2
  -2  -8  -6 216.549 150.206   1
   2  -8   6 155.741 137.460   2
  -2  -8  -7 1112.86 211.729   1
   2  -8   7 1210.41 203.984   2
  -2  -8  -8 1715.94 261.801   1
   2  -8   8 1266.16 227.668   2
   2  -7  -8 2353.45 280.915   1
   2  -7  -7 5310.76 379.418   1
  -2  -7   7 4651.26 307.258   3
  -2  -7   6 9584.08 411.281   2
   2  -7  -6 9549.39 488.927   1
  -2  -7   6 10418.3 460.636   3
  -2  -7   5 12852.5 511.118   3
  -2  -7   4 26850.1 806.661   3
  -2  -7   3 23459.5 715.021   3
  -2  -7   2 22432.5 678.784   3
  -2  -7   1 25807.6 740.612   3
  -2  -7   0 15222.6 495.534   3
  -2  -7  -1 33508.4 854.412   3
   2  -7   2 8134.46 359.547   2
  -2  -7  -2 7332.78 298.727   3
   2  -7   3 8562.72 404.136   2
  -2  -7  -3 8672.64 365.628   1
  -2  -7  -3 8843.48 308.555   3
   2  -7   4 28440.2 871.696   2
  -2  -7  -4 28482.4 844.527   1
  -2  -7  -4 28180.8 690.167   3
   2  -7   5 11596.8 520.590   2
  -2  -7  -5 11268.2 513.801   1
   2  -7   6 4440.91 334.130   2
  -2  -7  -6 3850.97 316.491   1
  -2  -7  -7 2055.34 250.046   1
   2  -7   7 1844.20 239.544   2
  -2  -7  -8 1397.73 225.346   1
   2  -7   8 748.834 187.150   2
   2  -6  -8 1026.00 204.604   1
   2  -6  -7 2320.62 262.085   1
  -2  -6   7 2535.96 220.225   3
  -2  -6   6 4879.74 270.721   2
   2  -6  -6 4719.19 337.560   1
  -2  -6   6 4623.99 289.012   3
   2  -6  -5 34639.8 1025.55   1
  -2  -6   5 36455.1 990.692   3
   2  -6  -4 8682.74 261.310   2
  -2  -6   4 8331.45 374.212   3
  -2  -6   3 7303.23 337.475   3
  -2  -6   2 54124.4 1299.72   3
  -2  -6   1 4297.39 239.714   3
  -2  -6   0 7222.90 306.180   3
  -2  -6  -1 2452.32 162.223   3
   2  -6   1 2274.80 182.364   2
   2  -6   2 11323.3 429.874   2
  -2  -6  -2 10685.7 356.249   3
   2  -6   3 19612.1 639.472   2
  -2  -6  -3 19696.1 601.498   1
  -2  -6  -3 19184.1 514.824   3
   2  -6   4 4559.95 300.685   2
  -2  -6  -4 5026.93 188.320   3
  -2  -6  -4 4447.21 289.446   1
   2  -6   5 1462.66 197.082   2
  -2  -6  -5 1201.93 177.327   1
  -2  -6  -6 5395.48 360.050   1
   2  -6   6 5617.24 371.799   2
  -2  -6  -7 1421.94 215.744   1
   2  -6   7 1464.09 210.022   2
   2  -6   8 692.063 168.902   2
  -2  -6  -8 773.230 191.420   1
   2  -6   9 2162.05 271.559   2
   2  -5  -8 6405.21 447.530   1
  -2  -5   7 4994.55 294.244   3
   2  -5  -7 4928.97 364.982   1
  -2  -5   6 15413.3 509.565   2
  -2  -5   6 14937.6 552.024   3
   2  -5  -6 15906.8 635.521   1
   2  -5  -5 1642.58 198.634   1
  -2  -5   5 1647.64 172.257   3
  -2  -5   4 459.190 108.258   3
   2  -5  -4 493.845 45.7688   2
   2  -5  -4 680.775 136.938   1
  -2  -5   3 11160.9 420.299   3
  -2  -5   2 1202.21 142.577   3
  -2  -5   1 66052.0 1500.00   3
  -2  -5   0 14168.8 447.294   3
   2  -5   1 26176.7 713.240   2
  -2  -5  -1 27779.6 692.324   3
   2  -5   2 22979.6 662.622   2
  -2  -5  -2 22694.9 582.208   3
  -2  -5  -2 22309.6 601.168   1
   2  -5   3 6952.65 338.133   2
  -2  -5  -3 7061.22 243.138   3
  -2  -5  -3 7088.91 311.949   1
   2  -5   4 38276.8 1031.80   2
  -2  -5  -4 36693.2 805.325   3
  -2  -5  -4 36142.7 987.013   1
  -2  -5  -5 146.515 111.095   1
   2  -5   5 462.843 147.560   2
  -2  -5  -6 2128.42 230.742   1
   2  -5   6 2207.89 232.744   2
  -2  -5  -7 278.403 124.416   1
   2  -5   7 427.478 150.519   2
  -2  -5  -8 284.617 147.077   1
   2  -5   8 425.820 161.745   2
   2  -5   9 526.381 175.684   2
   2  -4  -9 2180.22 283.169   1
   2  -4  -8 1586.98 236.927   1
   2  -4  -7 4047.24 330.154   1
  -2  -4   7 5113.37 291.204   3
  -2  -4   6 28432.7 821.407   3
  -2  -4   6 27906.2 749.403   2
   2  -4  -6 29676.5 915.613   1
   2  -4  -5 1518.60 183.490   1
  -2  -4   5 1884.12 171.067   3
  -2  -4   5 1620.01 130.483   2
   2  -4  -4 20310.4 611.556   1
  -2  -4   4 20820.5 606.131   3
  -2  -4   3 1813.26 158.618   3
   2  -4  -3 1895.80 76.7734   2
   2  -4  -3 1809.80 160.484   1
  -2  -4   2 3280.27 202.428   3
  -2  -4   1 20180.5 569.534   3
   2  -4   0 102412. 2126.79   2
  -2  -4   0 102973. 2162.83   3
   2  -4   1 1744.69 142.697   2
  -2  -4  -1 1900.15 131.608   3
   2  -4   2 28658.2 791.702   2
  -2  -4  -2 30232.0 756.838   1
  -2  -4  -3 25641.2 695.558   1
  -2  -4  -3 24812.2 591.422   3
   2  -4   3 25521.8 734.037   2
  -2  -4  -4 484.860 125.505   1
  -2  -4  -4 850.527 56.5653   3
   2  -4   4 828.757 153.060   2
  -2  -4  -5 7314.48 380.692   1
   2  -4   5 7766.58 400.147   2
  -2  -4  -6 2831.25 261.091   1
   2  -4   6 2605.49 255.434   2
  -2  -4  -7-0.54862 116.029   1
   2  -4   7 123.136 124.185   2
  -2  -4  -8 721.962 187.483   1
   2  -4   8 823.036 184.108   2
   2  -4   9 5963.87 431.411   2
   2  -3  -9 1668.80 256.505   1
   2  -3  -8-1.64123 112.517   1
  -2  -3   7 585.691 108.156   3
   2  -3  -7 807.037 173.411   1
   2  -3  -6 2665.46 248.076   1
  -2  -3   6 3060.18 210.750   3
  -2  -3   6 2456.98 159.944   2
  -2  -3   5 475.911 106.355   3
  -2  -3   5 547.741 76.5555   2
   2  -3  -5 505.634 128.700   1
   2  -3  -4 25904.9 737.295   1
  -2  -3   4 25626.7 715.779   3
   2  -3  -3 50705.1 1193.24   1
  -2  -3   3 51725.6 1206.18   3
   2  -3  -2 44359.4 909.598   2
  -2  -3   2 46490.3 1075.73   3
   2  -3  -1 22259.1 519.181   2
  -2  -3   1 23127.0 612.214   3
   2  -3   0 95360.8 1988.44   2
  -2  -3   0 97911.4 2029.56   3
  -2  -3  -1 7073.32 225.477   1
  -2  -3  -1 7743.74 266.229   3
   2  -3   1 7007.24 272.059   2
  -2  -3  -2 35771.6 842.016   1
  -2  -3  -2 34974.3 804.970   3
   2  -3   2 36342.3 901.328   2
  -2  -3  -3 43335.3 1056.15   1
  -2  -3  -3 43290.3 938.720   3
   2  -3   3 44620.3 1096.18   2
  -2  -3  -4 39051.8 1002.13   1
   2  -3   4 40810.9 1032.54   2
   2  -3   5 320.603 138.066   2
  -2  -3  -5 529.428 141.925   1
  -2  -3  -6 9741.07 475.727   1
   2  -3   6 9979.49 472.335   2
   2  -3   7 220.786 131.207   2
  -2  -3  -7 111.721 104.413   1
  -2  -3  -8 1436.16 222.388   1
   2  -3   8 1366.74 207.144   2
   2  -3   9 674.063 176.125   2
   2  -2  -9 2075.64 268.556   1
   2  -2  -8 1517.42 229.977   1
   2  -2  -7 11702.5 550.426   1
  -2  -2   7 11476.2 435.802   3
   2  -2  -6 2198.81 227.968   1
  -2  -2   6 2325.40 187.887   3
  -2  -2   6 2147.80 139.981   2
   2  -2  -5 13650.5 512.899   1
  -2  -2   5 13830.0 465.824   3
  -2  -2   5 12994.1 381.778   2
  -2  -2   4 11420.4 324.300   2
   2  -2  -4 11780.3 429.679   1
  -2  -2   4 11477.3 407.286   3
   2  -2  -3 105327. 2218.03   1
  -2  -2   3 104483. 2238.23   3
   2  -2  -2 80902.9 1705.30   1
  -2  -2   2 81861.8 1760.68   3
   2  -2  -1 24799.8 551.233   2
  -2  -2   1 24950.8 644.078   3
  -2  -2   0 26683.4 642.391   2
   2  -2   0 25951.7 620.808   2
  -2  -2   0 26291.7 652.722   3
  -2  -2  -1 12688.6 329.993   1
  -2  -2  -1 12676.1 392.760   2
   2  -2   1 13314.6 396.427   2
  -2  -2  -1 12539.7 368.478   3
   2  -2   2 26429.3 702.678   2
  -2  -2  -2 25724.5 613.580   3
  -2  -2  -3 26990.0 616.106   3
   2  -2   3 28024.7 766.565   2
  -2  -2  -4 12832.1 293.834   3
   2  -2   4 14859.2 516.851   2
   2  -2   5 31141.7 911.642   2
  -2  -2  -6 749.471 156.206   1
   2  -2   6 1123.79 172.570   2
   2  -2   7 2082.45 231.082   2
  -2  -2  -7 2257.99 246.958   1
  -2  -2  -8 877.873 195.905   1
   2  -2   8 1204.88 202.400   2
   2  -2   9 5905.59 422.160   2
   2  -1  -9 202.589 135.879   1
   2  -1  -8 5212.70 385.403   1
   2  -1  -7 4579.17 338.904   1
  -2  -1   7 4273.18 245.036   3
  -2  -1   6 1767.96 115.486   2
   2  -1  -6 1514.95 199.185   1
  -2  -1   5 1435.51 97.0408   2
   2  -1  -5 1052.91 157.485   1
   2  -1  -4 1976.62 169.592   1
  -2  -1   4 1877.03 156.589   3
  -2  -1   4 2121.05 98.0751   2
   2  -1  -3 4533.52 228.988   1
  -2  -1   3 6153.41 292.409   3
   2  -1  -2 56630.6 1222.36   1
  -2  -1   2 57723.3 1284.22   3
  -2  -1   1 44854.5 956.055   2
   2  -1  -1 44927.2 933.454   2
  -2  -1   1 45136.3 1031.94   3
  -2  -1   0 9499.78 304.552   2
  -2  -1   0 9733.02 330.953   3
  -2  -1  -1 5910.52 230.137   2
   2  -1   1 5671.34 232.345   2
  -2  -1  -1 5915.49 222.313   3
   2  -1   2 97742.1 2021.16   2
  -2  -1  -2 92180.1 1930.70   3
   2  -1   3 37837.4 965.986   2
  -2  -1  -3 37584.8 815.753   3
   2  -1   4 17852.1 581.202   2
  -2  -1  -4 17946.4 388.064   3
  -2  -1  -4 16588.4 386.405   3
   2  -1   5 11234.6 472.528   2
   2  -1   6 3193.40 268.006   2
   2  -1   7 870.437 170.111   2
  -2  -1  -8 269.261 117.917   1
   2  -1   8 657.436 163.892   2
   2  -1   9 243.230 145.359   2
  -2  -1  -9 191.552 142.580   1
   2   0  -9 1342.56 224.392   1
   2   0  -8 6710.71 439.902   1
   2   0  -7 30756.4 991.445   1
   2   0  -6 32434.9 969.268   1
  -2   0   6 32276.2 853.976   3
   2   0  -5 35365.8 958.717   1
  -2   0   5 33702.6 744.178   2
  -2   0   5 35493.0 892.694   3
   2   0  -4 12590.1 422.644   1
  -2   0   4 12219.7 405.751   3
   2   0  -3 118509. 2463.81   1
  -2   0   3 118238. 2483.05   3
   2   0  -2 1849.51 112.362   1
  -2   0   2 1637.52 61.4697   2
  -2   0   2 1889.96 145.592   3
  -2   0   1 12606.5 311.273   2
   2   0   0 269357. 5284.59   2
  -2   0   0 267738. 5281.14   2
   2   0   1 794.084 108.383   2
  -2   0  -1 1139.55 100.959   2
   2   0   2 95635.5 2056.12   2
   2   0   3 21677.3 644.014   2
  -2   0  -4 64243.9 1308.81   3
   2   0   4 63636.7 1526.38   2
   2   0   5 3882.05 276.160   2
   2   0   6 187.998 123.289   2
   2   0   7 141.095 121.695   2
   2   0   8 683.478 166.893   2
  -2   0  -9 121.685 121.035   1
   2   0   9 202.763 131.004   2
   2   1  -9 161.436 138.509   1
   2   1  -8 5398.51 388.328   1
   2   1  -7 3741.40 315.952   1
  -2   1   6 1345.73 134.475   3
  -2   1   5 1278.79 138.241   3
  -2   1   4 2297.04 161.570   3
   2   1  -1 44969.8 929.768   1
  -2   1   1 45742.7 967.985   1
  -2   1   0 19343.7 482.156   2
   2   1   1 5569.50 240.121   2
  -2   1  -1 5546.49 225.434   2
   2   1   2 96894.7 2071.00   2
   2   1   3 38287.9 983.760   2
  -2   1  -4 19994.2 472.109   3
   2   1   4 18528.4 615.139   2
   2   1   5 12171.6 483.881   2
  -2   1  -5 11188.4 281.397   3
   2   1   6 3229.31 261.908   2
   2   1   7 845.965 164.890   2
   2   1   8 495.836 146.858   2
   2   1   9 211.050 125.967   2
   2   2  -9 2113.29 269.034   1
   2   2  -8 1766.30 234.834   1
  -2   2   6 2211.85 163.926   3
  -2   2   5 12792.5 431.786   3
  -2   2   2 83056.8 1743.20   1
  -2   2   1 24956.9 577.332   1
   2   2  -1 24750.6 645.527   3
  -2   2   0 26044.2 616.133   2
  -2   2  -1 13296.5 395.236   2
   2   2   2 26555.8 712.740   2
  -2   2  -3 28384.5 666.754   3
   2   2   3 27044.3 764.458   2
  -2   2  -4 15070.4 401.731   3
   2   2   4 15085.7 532.361   2
   2   2   5 32093.7 925.054   2
  -2   2  -5 31171.3 707.314   3
   2   2   6 1114.31 177.351   2
   2   2   7 1860.60 222.963   2
   2   2   8 993.628 178.693   2
   2   3  -9 2104.45 270.437   1
  -2   3   6 2654.05 178.769   3
  -2   3   5 396.305 84.6871   3
  -2   3   2 46819.2 1062.38   1
   2   3   0 94554.4 1898.94   1
   2   3   0 99067.0 2012.67   3
  -2   3  -1 7193.35 272.893   2
   2   3   1 7764.54 265.636   3
  -2   3  -3 44458.9 1009.74   3
   2   3   4 41282.9 1065.06   2
  -2   3  -4 39621.2 916.845   3
   2   3   5 33.6837 114.577   2
   2   3   6 8582.10 433.832   2
  -2   4   6 29052.3 781.799   3
   2   4   1 1860.94 110.504   1
   2   4   1 1877.20 126.131   3
   2   4   2 31374.5 741.651   3
  -2   5   6 16190.0 529.281   3
   2   5   1 27882.9 673.193   1
   2   5   2 22182.3 578.218   3
   2   5   3 6532.24 232.037   3
   2   6   1 2428.22 145.362   1
   2   6   3 19383.4 520.463   3
   2   6   4 4593.37 181.038   3
   2   7   4 27103.9 665.572   3
  -3 -19  -2 736.463 179.277   3
  -3 -18   1 3092.23 328.595   3
  -3 -18   0 4970.22 402.895   3
  -3 -18  -1 381.798 151.301   3
  -3 -18  -2 41.8823 115.919   3
  -3 -17   2-155.547 149.297   3
  -3 -17   1 1996.97 274.255   3
  -3 -17   0 298.849 165.982   3
  -3 -17  -1 1163.11 207.483   3
  -3 -17  -2 122.902 109.353   3
   3 -17   2 389.488 165.677   2
  -3 -17  -3 1072.31 187.127   3
   3 -17   3 1254.29 233.240   2
  -3 -16   4 312.952 172.159   3
  -3 -16   3 825.629 191.477   3
  -3 -16   2 5435.26 412.586   3
  -3 -16   1 5460.99 409.380   3
  -3 -16   0 1745.29 249.185   3
  -3 -16  -1 1508.67 226.341   3
   3 -16   2 3072.52 322.306   2
  -3 -16  -2 3073.59 286.443   3
  -3 -16  -3 1469.07 206.857   3
   3 -16   3 1914.07 266.823   2
  -3 -15   5 139.164 118.024   3
  -3 -15   4 288.358 143.250   3
  -3 -15   3 3181.74 319.300   3
  -3 -15   2 1673.33 239.418   3
  -3 -15   1 7550.96 460.783   3
  -3 -15   0 3957.57 330.129   3
  -3 -15  -1 106.381 127.731   3
   3 -15   2 2915.15 301.315   2
  -3 -15  -2 2343.42 250.189   3
  -3 -15  -3 2668.84 250.048   3
   3 -15   3 2494.44 297.315   2
   3 -15   4 288.278 176.605   2
  -3 -14   6 1328.17 231.513   3
  -3 -14   5 1322.77 229.623   3
  -3 -14   4 1558.76 230.810   3
  -3 -14   3 2722.87 295.105   3
  -3 -14   2 2115.36 266.177   3
  -3 -14   1 7224.24 441.788   3
  -3 -14   0 6.99590 120.357   3
  -3 -14  -1 2858.33 273.316   3
  -3 -14  -2 2234.96 235.477   3
   3 -14   2 1868.35 245.827   2
   3 -14   3 5912.51 424.316   2
  -3 -14  -3 5174.98 335.364   3
   3 -14   4 811.620 206.063   2
   3 -14   5 3111.67 344.483   2
  -3 -13   6 717.695 165.192   3
  -3 -13   5 878.100 187.399   3
  -3 -13   4 367.355 158.545   3
  -3 -13   3 106.627 130.365   3
  -3 -13   2 7045.67 427.679   3
  -3 -13   1 28438.2 947.521   3
  -3 -13   0 1682.42 222.196   3
  -3 -13  -1 9935.12 479.514   3
  -3 -13  -2 1455.72 183.761   3
   3 -13   2 1765.01 227.938   2
  -3 -13  -3 229.545 102.132   3
   3 -13   3 170.303 148.590   2
   3 -13   4 129.132 154.368   2
   3 -13   5 5534.30 432.010   2
  -3 -12   7 2142.51 261.447   3
  -3 -12   6 527.671 167.833   3
  -3 -12   5 1094.18 193.127   3
  -3 -12   4 1113.92 203.853   3
  -3 -12   3 5275.14 367.247   3
  -3 -12   2 5135.32 356.672   3
  -3 -12   1 10597.9 502.939   3
  -3 -12   0 6055.63 361.248   3
  -3 -12  -1 13831.3 560.852   3
   3 -12   2 10083.6 501.147   2
  -3 -12  -2 10365.0 457.020   3
  -3 -12  -3 2160.26 209.079   3
   3 -12   3 2059.95 244.621   2
   3 -12   4 10490.4 562.477   2
   3 -12   5 1694.54 260.977   2
   3 -12   6 1921.58 268.240   2
  -3 -11   7 2082.33 253.148   3
  -3 -11   6 470.749 149.521   3
  -3 -11   5 1082.02 195.479   3
  -3 -11   4 1696.61 221.066   3
  -3 -11   3 6506.55 399.427   3
  -3 -11   2 1953.73 226.133   3
  -3 -11   1 14070.0 573.793   3
  -3 -11   0 10210.9 465.785   3
   3 -11   1 6584.28 370.373   2
  -3 -11  -1 5894.15 337.551   3
   3 -11   2 11723.6 529.527   2
  -3 -11  -2 10994.4 472.291   3
   3 -11   3 7020.66 420.147   2
  -3 -11  -3 7157.00 351.745   3
  -3 -11  -4 1900.37 173.129   3
   3 -11   4 1527.92 224.402   2
   3 -11   5 2148.18 265.375   2
   3 -11   6 2005.75 276.574   2
  -3 -10   7 2916.74 287.004   3
  -3 -10   6 496.049 154.398   3
  -3 -10   5 7294.39 425.712   3
  -3 -10   4 3969.06 304.287   3
  -3 -10   3 53004.4 1426.13   3
  -3 -10   2 4289.39 306.080   3
  -3 -10   1 1671.15 204.315   3
  -3 -10   0 3599.12 268.640   3
   3 -10   1 7396.44 381.677   2
  -3 -10  -1 7349.70 369.620   3
   3 -10   2 6378.60 369.222   2
  -3 -10  -2 5382.38 305.892   3
   3 -10   3 5856.92 374.708   2
  -3 -10  -3 5378.44 301.292   3
   3 -10   4 5838.45 391.532   2
  -3 -10  -4 6243.56 296.663   3
   3 -10   5 5316.33 394.444   2
   3 -10   6 1562.62 242.889   2
  -3 -10  -7 1927.17 258.100   1
   3 -10   7 1709.67 264.842   2
  -3  -9   7 1380.32 202.193   3
  -3  -9   6 2581.33 254.180   3
  -3  -9   5 248.344 118.399   3
  -3  -9   4 17871.6 684.402   3
  -3  -9   3 2046.91 224.572   3
  -3  -9   2 7013.65 374.858   3
  -3  -9   1 28997.8 871.681   3
   3  -9   0 15901.2 550.666   2
  -3  -9   0 16124.2 579.641   3
   3  -9   1 9184.87 418.840   2
  -3  -9  -1 10013.2 415.462   3
   3  -9   2 3095.25 259.411   2
  -3  -9  -2 3332.77 225.083   3
   3  -9   3 8912.74 451.812   2
  -3  -9  -3 8872.00 369.366   3
  -3  -9  -4 22002.1 648.395   3
   3  -9   4 23994.2 819.850   2
   3  -9   5 6516.80 428.546   2
  -3  -9  -6 4246.13 337.821   1
   3  -9   6 4788.40 377.533   2
  -3  -9  -7 1672.68 236.199   1
   3  -9   7 1648.05 263.616   2
  -3  -8   7 1041.28 174.029   3
  -3  -8   6 1123.46 184.158   3
  -3  -8   5 1437.94 198.177   3
  -3  -8   4 11514.4 508.345   3
  -3  -8   3 5426.88 331.603   3
  -3  -8   2 92.5408 110.142   3
  -3  -8   1 12532.7 504.385   3
   3  -8   0 3831.88 239.966   2
  -3  -8   0 3998.32 260.010   3
   3  -8   1 2704.59 218.122   2
  -3  -8  -1 2922.50 214.456   3
  -3  -8  -2 823.720 124.783   3
   3  -8   2 754.335 149.151   2
   3  -8   3 5445.94 343.329   2
  -3  -8  -3 5483.76 271.936   3
  -3  -8  -4 7863.36 386.990   1
  -3  -8  -4 8244.97 320.778   3
   3  -8   4 7595.86 435.171   2
  -3  -8  -5 6387.71 375.376   1
   3  -8   5 6438.41 417.104   2
  -3  -8  -6 722.245 178.300   1
   3  -8   6 862.962 204.968   2
   3  -8   7 280.933 162.882   2
  -3  -8  -7 106.107 109.796   1
  -3  -8  -8 255.599 158.387   1
  -3  -7   7 5972.64 374.537   3
  -3  -7   6 635.198 140.432   3
  -3  -7   5 17311.0 652.377   3
  -3  -7   4 19485.2 690.425   3
  -3  -7   3 6514.02 353.851   3
  -3  -7   2 92.5014 115.917   3
   3  -7  -2 93.0800 59.3198   2
   3  -7  -1 6642.30 279.858   2
  -3  -7   1 6847.90 344.293   3
   3  -7   0 4086.46 229.976   2
  -3  -7   0 3784.81 250.505   3
   3  -7   1 5717.75 297.269   2
  -3  -7  -1 5502.07 284.375   3
   3  -7   2 8932.40 407.703   2
  -3  -7  -2 8679.35 352.740   3
  -3  -7  -3 2251.05 166.472   3
   3  -7   3 2313.86 228.560   2
  -3  -7  -4 13283.3 521.217   1
  -3  -7  -4 13985.6 431.018   3
   3  -7   4 14439.4 597.184   2
   3  -7   5 7070.03 422.680   2
  -3  -7  -5 6922.74 385.350   1
  -3  -7  -6 816.879 162.720   1
   3  -7   6 483.465 154.551   2
  -3  -7  -7 770.293 175.877   1
   3  -7   7 965.288 207.137   2
   3  -7   8 3765.81 353.638   2
  -3  -7  -8 4454.82 390.645   1
   3  -6  -8 3573.28 328.370   1
   3  -6  -7 5331.93 373.381   1
  -3  -6   7 4995.10 337.372   3
  -3  -6   6 1005.16 160.374   3
  -3  -6   5 4101.84 294.125   3
  -3  -6   4 30772.2 918.351   3
   3  -6  -3 14328.7 372.186   2
  -3  -6   3 15565.3 563.266   3
   3  -6  -2 3869.67 176.932   2
  -3  -6   2 4098.38 268.559   3
   3  -6  -1 5478.09 241.555   2
  -3  -6   1 5711.11 304.438   3
   3  -6   0 31423.8 814.319   2
  -3  -6   0 31007.2 857.106   3
   3  -6   1 34123.5 921.698   2
  -3  -6  -1 36258.0 928.612   3
  -3  -6  -2 9134.88 356.356   3
   3  -6   2 9331.69 402.357   2
  -3  -6  -3 20510.2 618.310   1
  -3  -6  -3 20900.8 581.918   3
   3  -6   3 19393.5 696.309   2
  -3  -6  -4 3900.63 191.153   3
  -3  -6  -4 3850.92 264.292   1
   3  -6   4 3660.11 290.956   2
  -3  -6  -5 1525.88 189.233   1
   3  -6   5 1867.69 240.873   2
  -3  -6  -6 4533.40 326.442   1
   3  -6   6 4660.41 364.048   2
   3  -6   7 1968.45 262.109   2
  -3  -6  -7 2190.19 260.916   1
   3  -6   8 345.176 170.264   2
  -3  -6  -8 225.347 141.086   1
   3  -5  -8 642.006 167.327   1
   3  -5  -7 3271.96 294.474   1
  -3  -5   7 3424.12 270.367   3
  -3  -5   6 65.8420 99.5347   3
   3  -5  -6 48.8455 109.784   1
   3  -5  -5 28804.1 861.678   1
  -3  -5   5 28225.4 878.889   3
  -3  -5   4 3410.46 255.245   3
  -3  -5   3 5202.72 297.307   3
   3  -5  -3 4904.97 148.809   2
  -3  -5   2 16020.2 567.931   3
   3  -5  -2 18226.5 452.889   2
  -3  -5   1 38407.5 804.519   3
   3  -5  -1 18429.4 574.567   2
  -3  -5   0 75495.0 1741.89   3
   3  -5   0 79107.4 1701.34   2
  -3  -5  -1 17858.8 548.303   3
   3  -5   1 17658.3 559.767   2
  -3  -5  -2 12017.4 388.484   1
   3  -5   2 12837.7 477.494   2
  -3  -5  -2 12607.4 421.549   3
  -3  -5  -3 26504.8 710.255   3
  -3  -5  -3 28010.4 761.999   1
   3  -5   3 29160.7 845.274   2
   3  -5   4 1821.13 217.156   2
  -3  -5  -4 1926.79 125.538   3
  -3  -5  -4 1625.41 176.418   1
  -3  -5  -5 31682.6 974.981   1
   3  -5   5 34879.1 1046.89   2
  -3  -5  -6 2052.40 228.342   1
   3  -5   6 1694.62 230.873   2
  -3  -5  -7 13.7112 122.633   1
   3  -5   7-13.1899 115.144   2
   3  -5   8 1366.46 224.694   2
  -3  -5  -8 1107.85 219.517   1
   3  -4  -8 477.517 150.127   1
   3  -4  -7 3265.03 293.740   1
  -3  -4   7 3299.55 263.085   3
  -3  -4   6 1959.05 206.452   3
   3  -4  -6 2000.42 214.740   1
   3  -4  -5 4728.49 297.237   1
  -3  -4   5 4379.53 289.640   3
  -3  -4   4 25285.2 770.071   3
  -3  -4   3 11457.1 453.898   3
   3  -4  -2 48797.3 1045.69   2
  -3  -4   2 51055.4 1240.13   3
  -3  -4   1 3016.95 215.787   3
   3  -4  -1 3122.99 159.609   2
  -3  -4   0 330.719 101.189   3
   3  -4   0 249.642 77.4601   2
  -3  -4  -1 3113.06 202.904   3
   3  -4   1 3364.03 209.187   2
  -3  -4  -2 4748.77 236.861   3
   3  -4   2 5411.29 285.458   2
  -3  -4  -2 4722.48 211.667   1
  -3  -4  -3 6862.28 298.103   1
  -3  -4  -3 6883.68 268.915   3
   3  -4   3 6729.70 358.015   2
  -3  -4  -4 33967.9 959.052   1
  -3  -4  -4 34852.2 816.885   3
   3  -4   4 36277.5 1030.80   2
  -3  -4  -5 3225.04 255.694   1
   3  -4   5 3284.93 284.125   2
  -3  -4  -6 28233.0 913.518   1
   3  -4   6 26018.2 906.737   2
  -3  -4  -7 1359.25 215.511   1
   3  -4   7 1165.54 202.779   2
  -3  -4  -8 358.627 146.202   1
   3  -4   8 98.0412 137.495   2
   3  -3  -9 1323.70 225.410   1
   3  -3  -8 684.829 161.916   1
  -3  -3   7 1541.65 179.383   3
   3  -3  -7 1671.67 219.881   1
  -3  -3   6 10562.0 463.637   3
   3  -3  -6 10311.3 481.678   1
  -3  -3   5 7390.10 249.513   2
  -3  -3   5 7494.38 363.888   3
   3  -3  -5 7215.88 366.882   1
   3  -3  -4 2275.90 182.800   1
  -3  -3   4 2014.61 188.628   3
  -3  -3   3 3355.25 234.677   3
   3  -3  -2 16109.9 385.095   2
  -3  -3   2 15986.6 537.192   3
   3  -3  -1 44501.8 984.567   2
  -3  -3   1 43264.8 1088.40   3
   3  -3   0 24614.6 648.114   2
  -3  -3   0 25803.5 700.278   3
  -3  -3  -1 5605.58 186.841   1
   3  -3   1 5734.82 271.278   2
  -3  -3  -1 6428.54 270.068   3
  -3  -3  -2 20741.7 547.183   1
   3  -3   2 21828.7 649.218   2
  -3  -3  -2 20171.8 567.303   3
  -3  -3  -3 61148.0 1418.06   1
   3  -3   3 62814.1 1509.91   2
  -3  -3  -3 61750.6 1366.36   3
  -3  -3  -4 8598.46 374.958   1
   3  -3   4 8251.40 415.363   2
  -3  -3  -4 7945.82 270.192   3
  -3  -3  -5 30467.5 917.416   1
   3  -3   5 32231.7 967.611   2
  -3  -3  -6 14737.9 606.811   1
   3  -3   6 13889.6 611.583   2
  -3  -3  -7 2931.50 288.291   1
   3  -3   7 2646.74 281.425   2
   3  -3   8 1750.69 247.578   2
  -3  -3  -8 2198.27 275.354   1
   3  -2  -9 1819.59 246.090   1
   3  -2  -8-34.3781 103.074   1
  -3  -2   7 2173.62 207.588   3
   3  -2  -7 1687.88 210.600   1
   3  -2  -6 24256.9 790.333   1
  -3  -2   6 24188.2 764.010   3
   3  -2  -5 11601.5 459.354   1
  -3  -2   5 12068.8 470.141   3
  -3  -2   5 10852.6 293.094   2
  -3  -2   4 11565.0 462.864   3
   3  -2  -4 12296.3 434.426   1
   3  -2  -3 18184.0 521.785   1
  -3  -2   3 18914.0 597.490   3
  -3  -2   2 49793.9 1095.81   2
  -3  -2   2 50886.5 1223.23   3
  -3  -2   1 668.228 120.226   3
   3  -2  -1 822.563 81.9669   2
  -3  -2   1 991.383 92.1102   2
   3  -2   0 15291.6 447.891   2
  -3  -2   0 16071.4 499.530   3
  -3  -2  -1 54591.5 1127.55   1
   3  -2   1 53130.9 1246.08   2
  -3  -2  -1 53783.7 1251.82   3
  -3  -2  -2 9827.80 317.466   1
   3  -2   2 9977.12 391.080   2
  -3  -2  -2 9593.25 338.035   3
   3  -2   3 35872.6 946.961   2
  -3  -2  -3 33133.9 814.060   3
   3  -2   4 16112.0 583.376   2
  -3  -2  -4 14953.2 415.015   3
   3  -2   5 321.312 143.128   2
  -3  -2  -6 5121.10 347.877   1
   3  -2   6 5002.67 357.337   2
   3  -2   7 1827.00 237.993   2
  -3  -2  -7 1797.91 232.890   1
   3  -2   8 274.533 142.446   2
  -3  -2  -8 143.786 121.522   1
   3  -2   9 1048.39 219.912   2
   3  -1  -9 840.724 182.877   1
   3  -1  -8 143.423 111.481   1
   3  -1  -7 1610.50 207.254   1
  -3  -1   7 1820.32 185.822   3
   3  -1  -6 2840.08 247.207   1
  -3  -1   6 2914.20 243.036   3
  -3  -1   5 676.488 123.325   3
   3  -1  -5 695.966 130.460   1
  -3  -1   4 493.965 124.319   3
   3  -1  -4 377.495 95.4272   1
  -3  -1   3 4984.80 156.775   2
  -3  -1   3 4978.56 270.428   3
   3  -1  -3 5185.44 224.164   1
  -3  -1   2 12143.5 329.224   2
  -3  -1   2 11919.6 442.751   3
   3  -1  -1 35839.0 813.118   2
  -3  -1   1 35306.1 825.945   2
  -3  -1   1 36926.1 927.743   3
   3  -1   0 27367.1 692.618   2
  -3  -1   0 28385.2 751.173   3
   3  -1   1 70466.9 1557.80   2
  -3  -1  -1 69000.9 1551.36   3
   3  -1   2 5574.00 283.186   2
  -3  -1  -2 5330.57 246.083   3
   3  -1   3 3661.34 258.458   2
  -3  -1  -3 3588.58 186.425   3
   3  -1   4 7436.16 383.962   2
  -3  -1  -4 6830.64 247.057   3
   3  -1   5 1435.51 196.154   2
   3  -1   6 5391.99 360.076   2
   3  -1   7 1905.74 239.090   2
   3  -1   8 987.028 196.834   2
  -3  -1  -8 958.479 201.011   1
   3  -1   9 57.2133 140.284   2
   3   0  -9 1234.64 211.353   1
   3   0  -8 960.710 180.884   1
   3   0  -7 191.282 120.886   1
  -3   0   7 171.930 88.6541   3
   3   0  -6 24227.0 801.979   1
  -3   0   6 25642.2 776.332   3
   3   0  -5 2280.64 194.481   1
  -3   0   5 2336.73 203.813   3
   3   0  -4 14528.7 470.119   1
  -3   0   4 13771.6 500.996   3
   3   0  -3 11679.6 367.821   1
  -3   0   3 12503.8 454.932   3
   3   0  -2 120737. 2333.67   1
  -3   0   2 116765. 2501.70   3
  -3   0   1 23658.3 579.754   2
   3   0   0 2118.88 156.064   2
  -3   0   0 2494.60 151.605   2
   3   0   1 7293.67 324.926   2
   3   0   2 6491.20 309.157   2
   3   0   3-10.6726 116.563   2
   3   0   4 1380.63 184.676   2
   3   0   5 978.877 172.513   2
  -3   0  -5 1043.49 80.9154   3
   3   0   6 907.614 180.811   2
   3   0   7 1565.11 222.511   2
   3   0   8 1701.29 249.667   2
   3   0   9 41.8792 126.299   2
   3   1  -9 913.702 194.458   1
   3   1  -8 385.196 136.605   1
  -3   1   7 1659.41 170.192   3
   3   1  -7 1742.60 206.197   1
   3   1  -6 2832.66 247.175   1
  -3   1   6 2658.38 218.901   3
  -3   1   5 964.434 140.053   3
   3   1  -5 716.279 126.054   1
  -3   1   4 516.307 118.122   3
   3   1  -4 415.450 99.4080   1
   3   1  -3 5372.75 221.337   1
  -3   1   2 11469.3 294.621   2
   3   1  -2 12549.6 315.056   1
  -3   1   1 36040.3 767.840   1
  -3   1   1 35181.7 804.401   2
  -3   1   0 27961.1 697.242   2
   3   1   1 69494.2 1558.25   2
   3   1   2 5783.58 297.105   2
   3   1   3 3495.26 251.280   2
   3   1   4 7712.03 397.108   2
   3   1   5 1263.60 197.502   2
   3   1   6 6039.94 390.500   2
   3   1   7 1879.45 242.914   2
   3   1   8 951.244 194.868   2
   3   1   9 107.371 141.899   2
   3   2  -9 1863.74 255.016   1
   3   2  -8 92.5907 103.569   1
   3   2  -7 1852.43 216.430   1
  -3   2   7 1960.60 187.672   3
   3   2  -6 25661.6 801.742   1
  -3   2   6 24346.9 763.376   3
  -3   2   5 11932.7 459.926   3
  -3   2   4 12399.0 470.452   3
  -3   2   2 51627.0 1123.45   1
   3   2  -2 50170.5 1060.83   1
  -3   2   1 726.377 74.6294   2
  -3   2   1 1019.16 80.7393   1
  -3   2   0 15931.5 455.428   2
   3   2   2 10536.4 413.588   2
   3   2   3 35019.4 974.585   2
   3   2   4 15456.3 591.658   2
   3   2   5 156.021 139.273   2
   3   2   6 5413.39 368.857   2
   3   2   7 1560.86 223.168   2
   3   2   8 287.927 158.959   2
   3   3  -9 1314.83 216.162   1
   3   3  -8 787.901 167.683   1
  -3   3   6 10744.5 447.007   3
  -3   3   5 8475.13 386.546   3
  -3   3   2 17372.3 488.191   1
  -3   3   1 45094.4 1002.37   1
   3   3   4 8052.65 405.795   2
   3   3   5 30273.6 958.314   2
   3   3   6 12094.5 565.477   2
   3   4  -9 694.802 162.630   1
  -3   4   6 1890.71 181.112   3
   3   5  -9 1694.02 242.921   1
  -3   5   6 5.71427 93.3316   3
   3   5   0 74284.9 1522.02   1
   3   6   0 30419.1 704.009   1
   3   6   1 36013.6 842.654   1
   3   7   0 3973.27 178.190   1
   4 -18   0 5867.66 427.313   2
  -4 -18  -2 802.232 185.355   3
   4 -17  -1 170.425 126.066   2
  -4 -17   0 584.665 165.098   3
   4 -17   0 608.829 165.404   2
   4 -17   1 3753.00 351.450   2
  -4 -17  -1 3857.42 358.649   3
  -4 -17  -2-12.5909 107.363   3
   4 -17   2-57.9597 133.032   2
  -4 -16   2 555.348 173.692   3
   4 -16  -1 5533.14 378.255   2
  -4 -16   1 5866.49 427.952   3
   4 -16   0 8697.17 496.013   2
  -4 -16   0 8344.82 511.772   3
  -4 -16  -1 278.069 147.288   3
   4 -16   1 454.864 156.256   2
  -4 -16  -2 1299.30 207.745   3
   4 -16   2 1337.68 244.397   2
  -4 -15   3 159.246 148.100   3
  -4 -15   2 3689.03 346.503   3
   4 -15  -1 6089.31 385.949   2
  -4 -15   1 6083.87 427.198   3
   4 -15   0 11695.8 573.030   2
  -4 -15   0 12586.3 619.459   3
  -4 -15  -1 824.242 184.223   3
   4 -15   1 712.191 181.087   2
   4 -15   2 4337.61 370.058   2
  -4 -15  -2 5155.17 364.660   3
  -4 -15  -3 890.214 174.350   3
   4 -15   3 1045.07 215.997   2
  -4 -14   4 3216.72 328.343   3
  -4 -14   3 238.111 152.540   3
  -4 -14   2 2087.36 257.373   3
  -4 -14   1 1282.20 218.731   3
   4 -14  -1 1011.21 167.101   2
  -4 -14   0 1635.09 225.166   3
   4 -14   0 1490.27 195.725   2
  -4 -14  -1 1838.85 246.708   3
   4 -14   1 2261.77 252.236   2
  -4 -14  -2 110.452 109.005   3
   4 -14   2 263.592 144.999   2
  -4 -14  -3 2119.96 235.319   3
   4 -14   3 2174.17 272.454   2
   4 -14   4 1091.14 230.781   2
  -4 -13   5 1242.99 216.829   3
  -4 -13   4 1219.33 220.758   3
  -4 -13   3 206.941 136.602   3
  -4 -13   2 477.023 154.159   3
  -4 -13   1 423.396 160.979   3
   4 -13  -1 504.199 135.045   2
  -4 -13   0 427.481 154.951   3
   4 -13   0 229.014 119.423   2
  -4 -13  -1 148.682 114.261   3
   4 -13   1 136.446 127.583   2
  -4 -13  -2 1851.57 225.627   3
   4 -13   2 1688.65 233.367   2
  -4 -13  -3 2434.63 236.190   3
   4 -13   3 2328.72 270.656   2
   4 -13   4 1186.55 227.128   2
  -4 -12   6 1058.60 217.696   3
  -4 -12   5 794.293 179.993   3
  -4 -12   4 1444.50 229.757   3
  -4 -12   3 196.726 138.686   3
   4 -12  -2 4557.64 281.969   2
  -4 -12   2 4913.70 361.320   3
   4 -12  -1 3218.23 250.134   2
  -4 -12   1 2569.50 266.378   3
   4 -12   0 5630.60 354.490   2
  -4 -12   0 5977.07 382.119   3
   4 -12   1 4017.52 309.781   2
  -4 -12  -1 4106.01 310.535   3
  -4 -12  -2 1003.67 164.787   3
   4 -12   2 821.893 180.999   2
  -4 -12  -3 1063.63 157.986   3
   4 -12   3 975.129 202.728   2
   4 -12   4 1227.07 212.720   2
   4 -12   5 448.226 167.673   2
  -4 -11   6 4640.43 381.955   3
  -4 -11   5 3193.39 309.816   3
  -4 -11   4 6037.61 408.874   3
  -4 -11   3 1346.92 213.718   3
   4 -11  -2 1885.39 177.195   2
  -4 -11   2 1522.47 219.929   3
   4 -11  -1 1930.43 201.147   2
  -4 -11   1 1658.61 219.351   3
   4 -11   0 24175.7 786.480   2
  -4 -11   0 22343.9 806.597   3
   4 -11   1 3233.31 275.787   2
  -4 -11  -1 3513.55 283.214   3
   4 -11   2 10164.8 505.780   2
  -4 -11  -2 9971.13 466.213   3
  -4 -11  -3 1134.20 155.433   3
   4 -11   3 762.396 172.513   2
   4 -11   4 745.613 183.562   2
   4 -11   5 7063.58 484.088   2
  -4 -10   7 952.225 189.759   3
  -4 -10   6 2211.06 271.190   3
  -4 -10   5 321.082 138.615   3
  -4 -10   4 129.244 113.012   3
  -4 -10   3 10991.7 541.170   3
   4 -10  -2 5832.90 296.273   2
  -4 -10   2 6230.43 383.860   3
   4 -10  -1 3979.76 255.169   2
  -4 -10   1 4341.02 317.662   3
   4 -10   0 21272.5 714.417   2
  -4 -10   0 22020.4 758.418   3
   4 -10   1 14308.4 571.918   2
  -4 -10  -1 13783.5 569.053   3
  -4 -10  -2 7787.07 392.823   3
   4 -10   2 8525.12 454.420   2
  -4 -10  -3 2237.20 201.603   3
   4 -10   3 1875.08 236.349   2
   4 -10   4 3422.85 312.720   2
   4 -10   5 2089.64 276.864   2
   4 -10   6 4091.29 378.916   2
  -4  -9   7 1599.79 230.057   3
  -4  -9   6 1939.65 254.843   3
  -4  -9   5 1315.54 211.712   3
  -4  -9   4 960.319 191.402   3
  -4  -9   3 2713.67 266.294   3
   4  -9  -2 12452.7 437.373   2
  -4  -9   2 13146.1 569.936   3
   4  -9  -1 5533.15 289.569   2
  -4  -9   1 6010.79 366.343   3
   4  -9   0 5830.63 322.422   2
  -4  -9   0 6073.42 358.869   3
   4  -9   1 2643.30 237.113   2
  -4  -9  -1 2773.58 236.509   3
  -4  -9  -2 13143.3 522.626   3
   4  -9   2 13579.2 560.134   2
  -4  -9  -3 12841.2 492.885   3
   4  -9   3 12519.0 582.915   2
   4  -9   4 2078.57 254.396   2
   4  -9   5 901.527 203.075   2
  -4  -9  -6 3404.68 294.930   1
   4  -9   6 3049.50 324.336   2
  -4  -9  -7 4711.37 367.264   1
  -4  -8   7 212.909 127.092   3
  -4  -8   6 7141.06 440.613   3
  -4  -8   5 463.546 146.689   3
  -4  -8   4 8050.22 445.957   3
  -4  -8   3 11929.3 548.499   3
  -4  -8   2 12537.4 546.113   3
   4  -8  -2 12056.3 408.290   2
  -4  -8   1 1824.20 215.469   3
   4  -8  -1 2224.26 176.954   2
  -4  -8   0 4744.87 309.092   3
   4  -8   0 4739.05 278.536   2
  -4  -8  -1 1499.15 185.995   3
   4  -8   1 1250.23 165.391   2
  -4  -8  -2 4917.23 296.974   3
   4  -8   2 4668.21 315.178   2
  -4  -8  -3 2450.69 198.194   3
   4  -8   3 2512.01 261.292   2
  -4  -8  -4 100.873 67.8995   3
   4  -8   4-135.612 147.743   2
  -4  -8  -5 1673.32 196.976   1
   4  -8   5 1296.34 225.768   2
   4  -8   6 1573.49 252.046   2
  -4  -8  -6 1306.78 197.939   1
  -4  -8  -7 497.645 152.454   1
  -4  -7   7 1655.00 222.542   3
  -4  -7   6 5021.40 365.231   3
  -4  -7   5 722.708 161.662   3
  -4  -7   4 754.864 163.019   3
  -4  -7   3 15617.4 633.681   3
  -4  -7   2 13153.2 556.082   3
   4  -7  -2 13619.7 424.443   2
  -4  -7   1 4643.83 308.423   3
   4  -7  -1 3968.87 228.118   2
  -4  -7   0 12449.3 501.934   3
   4  -7   0 10989.6 438.365   2
  -4  -7  -1 9430.10 426.899   3
   4  -7   1 9023.35 416.888   2
  -4  -7  -2 2701.78 219.674   3
   4  -7   2 2694.21 242.045   2
  -4  -7  -3 1158.60 144.895   3
   4  -7   3 1233.94 192.812   2
  -4  -7  -4 2055.92 198.126   1
   4  -7   4 2142.82 248.712   2
  -4  -7  -4 2169.51 169.082   3
  -4  -7  -5 3176.08 265.020   1
   4  -7   5 3186.99 306.793   2
   4  -7   6 12251.3 635.543   2
  -4  -7  -6 11778.5 559.165   1
   4  -7   7 2753.05 318.991   2
  -4  -7  -7 2077.79 256.443   1
  -4  -7  -8 619.184 169.302   1
  -4  -6   7 692.193 153.228   3
  -4  -6   6 9291.91 492.431   3
  -4  -6   5 4458.06 334.520   3
  -4  -6   4 13674.8 580.635   3
  -4  -6   3 6573.34 378.851   3
  -4  -6   2 12668.5 526.959   3
   4  -6  -2 12441.5 385.653   2
  -4  -6   1 3193.52 251.614   3
   4  -6  -1 3183.45 192.136   2
  -4  -6   0 264.906 113.360   3
   4  -6   0 223.370 90.9218   2
  -4  -6  -1 1955.76 191.623   3
   4  -6   1 2202.82 201.209   2
   4  -6   2 1853.79 203.152   2
  -4  -6  -2 2058.64 185.337   3
  -4  -6  -3 2894.19 196.646   1
  -4  -6  -3 2930.88 211.365   3
   4  -6   3 3099.03 264.898   2
  -4  -6  -4 4015.89 224.663   3
   4  -6   4 3991.79 321.876   2
  -4  -6  -4 4136.23 260.749   1
   4  -6   5 5048.32 378.210   2
  -4  -6  -5 4335.11 307.189   1
  -4  -6  -6 529.679 150.903   1
   4  -6   6 661.789 181.210   2
   4  -6   7 13981.0 684.447   2
  -4  -6  -7 12288.0 607.063   1
  -4  -6  -8 806.132 189.620   1
  -4  -5   7 1843.04 223.675   3
  -4  -5   6 986.957 184.125   3
  -4  -5   5 2755.80 261.145   3
  -4  -5   4 33141.6 1003.65   3
  -4  -5   3 35272.8 1030.17   3
   4  -5  -2 6209.03 230.580   2
  -4  -5   2 6154.82 351.305   3
   4  -5  -1 2184.50 155.035   2
  -4  -5   1 2145.20 210.144   3
  -4  -5   0 11833.7 475.622   3
   4  -5   0 11310.6 418.933   2
  -4  -5  -1 10336.0 422.047   3
   4  -5   1 9913.36 411.914   2
  -4  -5  -2 7576.20 344.680   3
   4  -5   2 8096.18 392.155   2
  -4  -5  -3 6124.56 298.226   3
   4  -5   3 6554.59 378.319   2
  -4  -5  -3 6460.80 295.078   1
  -4  -5  -4 5292.20 294.658   1
  -4  -5  -4 5715.54 267.036   3
   4  -5   4 5066.40 361.328   2
  -4  -5  -5 9048.47 432.627   1
   4  -5   5 9799.55 514.077   2
  -4  -5  -6 6556.42 394.416   1
   4  -5   6 6464.00 437.968   2
  -4  -5  -7 9259.09 517.373   1
   4  -5   7 10092.4 576.117   2
  -4  -5  -8 1585.86 246.156   1
   4  -4  -8 2363.50 256.265   1
  -4  -4   7 1849.13 220.935   3
   4  -4  -7 2011.08 222.005   1
  -4  -4   6 2575.74 250.777   3
  -4  -4   5 8329.55 433.518   3
  -4  -4   4 334.847 126.988   3
  -4  -4   3 10450.4 479.340   3
   4  -4  -2 6512.21 232.424   2
  -4  -4   2 6916.70 370.399   3
   4  -4  -1 18144.0 521.348   2
  -4  -4   1 19092.7 636.982   3
   4  -4   0 2825.23 193.190   2
  -4  -4   0 3487.84 244.901   3
   4  -4   1 7410.37 345.804   2
  -4  -4  -1 7491.35 345.671   3
  -4  -4  -2 15265.4 445.687   1
  -4  -4  -2 15999.5 536.070   3
  -4  -4  -3 5820.87 273.123   1
   4  -4   3 6587.62 367.934   2
  -4  -4  -3 5914.15 285.145   3
  -4  -4  -4 27573.6 802.108   1
   4  -4   4 26940.3 887.889   2
  -4  -4  -4 27510.4 732.526   3
  -4  -4  -5 2001.54 208.921   1
   4  -4   5 2088.12 259.684   2
  -4  -4  -6 4188.62 318.316   1
   4  -4   6 3992.69 341.321   2
  -4  -4  -7 3382.66 315.347   1
   4  -4   7 3136.55 328.716   2
  -4  -4  -8 5183.71 406.483   1
   4  -3  -8 1550.52 220.543   1
  -4  -3   7 961.898 171.375   3
   4  -3  -7 1038.47 173.986   1
   4  -3  -6 4454.90 301.491   1
  -4  -3   6 4974.48 337.138   3
  -4  -3   5 3360.94 275.460   3
  -4  -3   4 15910.2 613.622   3
  -4  -3   3 6463.57 248.736   2
  -4  -3   3 6572.08 355.631   3
   4  -3  -2 12994.6 361.336   2
  -4  -3   2 13103.5 517.495   3
   4  -3  -1 17327.3 498.164   2
  -4  -3   1 17438.2 606.279   3
   4  -3   0 3489.28 205.247   2
  -4  -3   0 3384.94 240.010   3
   4  -3   1 10830.3 414.141   2
  -4  -3  -1 10331.7 419.907   3
  -4  -3  -2 10658.7 332.470   1
   4  -3   2 10173.3 438.793   2
  -4  -3  -2 10643.2 407.672   3
  -4  -3  -3 12488.7 424.894   1
   4  -3   3 11795.2 500.048   2
  -4  -3  -3 11868.8 430.028   3
  -4  -3  -4 18293.6 606.554   1
   4  -3   4 18127.2 693.866   2
  -4  -3  -4 18983.6 558.401   3
  -4  -3  -5 8794.68 425.929   1
   4  -3   5 8594.69 475.614   2
   4  -3   6 1499.53 224.512   2
  -4  -3  -6 1524.60 196.164   1
  -4  -3  -7 4357.16 350.816   1
   4  -3   7 4756.70 389.959   2
  -4  -3  -8 981.119 202.985   1
  -4  -2   7 1321.44 185.227   3
   4  -2  -7 1399.27 198.914   1
   4  -2  -6 2766.00 236.352   1
  -4  -2   6 2872.26 257.085   3
  -4  -2   5 365.402 130.101   3
   4  -2  -5 358.447 108.255   1
  -4  -2   4 127.263 101.183   3
  -4  -2   3 19647.6 504.402   2
  -4  -2   3 19944.4 683.145   3
  -4  -2   2 34316.9 831.594   2
  -4  -2   2 35238.0 978.849   3
   4  -2  -1 67923.6 1488.06   2
  -4  -2   1 67562.7 1619.50   3
   4  -2   0 6872.02 293.211   2
  -4  -2   0 6400.58 333.170   3
   4  -2   1 3311.78 222.517   2
  -4  -2  -1 2758.86 111.626   1
  -4  -2  -1 2996.56 214.587   3
  -4  -2  -2 3758.93 178.026   1
   4  -2   2 3537.42 256.195   2
  -4  -2  -2 3624.19 230.416   3
  -4  -2  -3 3469.90 204.375   1
   4  -2   3 3730.81 278.594   2
  -4  -2  -3 3583.41 215.883   3
  -4  -2  -4 10231.8 427.079   1
   4  -2   4 11031.8 509.179   2
  -4  -2  -4 10535.8 376.721   3
  -4  -2  -5 4868.47 310.718   1
   4  -2   5 5161.66 370.242   2
   4  -2   6 2493.89 276.080   2
  -4  -2  -6 1991.02 228.794   1
  -4  -2  -7 3218.07 304.659   1
   4  -2   7 3333.46 332.413   2
   4  -2   8 1582.41 265.120   2
  -4  -2  -8 838.847 199.641   1
  -4  -1   7 836.816 150.625   3
   4  -1  -7 967.927 163.832   1
  -4  -1   6 3423.85 278.473   3
   4  -1  -6 3359.91 255.024   1
   4  -1  -5 1289.80 157.677   1
  -4  -1   5 2095.50 223.621   3
   4  -1  -4 3225.87 197.176   1
  -4  -1   4 3688.38 275.025   3
  -4  -1   3 12857.8 345.807   2
  -4  -1   3 13571.5 527.884   3
  -4  -1   2 14115.4 407.544   2
  -4  -1   2 15281.5 550.589   3
   4  -1  -1 6318.58 261.140   2
  -4  -1   1 6901.23 347.477   3
   4  -1   0 5546.40 261.595   2
  -4  -1   0 5253.47 299.157   3
  -4  -1  -1 752.144 60.6053   1
  -4  -1  -1 986.297 141.018   3
   4  -1   2 8122.72 392.015   2
  -4  -1  -2 8124.28 356.432   3
   4  -1   3 2123.96 219.694   2
  -4  -1  -3 2049.62 164.612   3
   4  -1   4 6693.02 395.994   2
  -4  -1  -4 7034.95 294.596   3
   4  -1   5 7550.95 445.155   2
   4  -1   6 6872.30 439.970   2
  -4  -1  -7 17.5730 127.602   1
   4  -1   7 170.414 144.208   2
   4  -1   8 237.752 165.608   2
  -4  -1  -8 219.426 136.224   1
   4   0  -7 4363.19 309.810   1
  -4   0   7 4377.72 313.608   3
   4   0  -6 7288.34 369.913   1
  -4   0   6 7585.34 410.860   3
   4   0  -5 30171.8 844.834   1
  -4   0   5 30607.2 940.346   3
   4   0  -4 20975.4 603.749   1
  -4   0   4 21705.8 727.636   3
  -4   0   3 17831.8 417.544   2
  -4   0   3 19758.3 649.980   3
  -4   0   2 12147.0 354.691   2
  -4   0   2 12530.3 507.744   3
  -4   0   1 1270.21 200.715   3
   4   0   0 4033.23 224.811   2
   4   0   1 17838.9 578.180   2
   4   0   2 4777.26 294.248   2
   4   0   3 1247.17 186.968   2
   4   0   4 10546.5 511.171   2
  -4   0  -4 11509.3 407.239   3
   4   0   5 2269.98 257.075   2
   4   0   6-56.5113 144.166   2
   4   0   7 91.8977 141.618   2
   4   0   8 2661.70 316.609   2
  -4   1   7 686.297 147.750   3
   4   1  -7 1119.87 170.222   1
   4   1  -6 3002.45 238.443   1
  -4   1   6 3307.69 268.639   3
  -4   1   5 1471.35 185.447   3
   4   1  -5 2109.34 176.435   1
   4   1  -4 3577.09 201.022   1
  -4   1   4 3389.15 256.828   3
   4   1  -3 13457.0 377.142   1
  -4   1   3 13980.1 554.680   3
  -4   1   2 14074.8 384.070   2
  -4   1   1 6608.94 190.904   1
   4   1   1 870.380 145.268   2
   4   1   2 8175.24 384.707   2
   4   1   3 2239.60 231.806   2
   4   1   4 7214.52 411.651   2
   4   1   5 8885.33 479.959   2
   4   1   6 7358.03 462.867   2
   4   1   7 35.1288 136.310   2
   4   1   8 638.258 202.091   2
  -4   2   7 1311.24 173.367   3
   4   2  -6 2365.82 215.044   1
  -4   2   6 2516.24 233.698   3
   4   2  -5 239.169 90.0750   1
  -4   2   5 281.705 117.033   3
   4   2  -4 15.4446 66.6085   1
  -4   2   4 297.897 120.083   3
   4   2  -3 21066.1 523.821   1
  -4   2   1 66434.3 1388.91   1
   4   2   2 3358.48 256.641   2
   4   2   3 4077.21 297.518   2
   4   2   4 10826.9 516.011   2
   4   2   5 5748.90 388.770   2
   4   2   6 2632.65 292.708   2
   4   2   7 3451.18 346.729   2
  -4   3   7 1017.17 163.704   3
   4   3  -6 4757.44 290.985   1
  -4   3   6 4458.34 313.417   3
   4   3  -5 3778.19 229.801   1
  -4   3   5 3427.30 269.268   3
   4   3  -4 15716.2 476.133   1
   4   3  -3 6431.01 222.949   1
  -4   3   2 13857.5 412.905   1
  -4   3   1 18239.0 483.927   1
  -4   4   7 1718.75 192.796   3
   4   4  -6 2895.03 227.590   1
  -4   4   6 3117.80 260.412   3
   4   4  -5 7979.71 350.072   1
   4   4  -3 9962.85 301.866   1
   4   4  -2 5158.49 136.161   1
  -4   4   1 19332.5 529.666   1
  -4   5   6 1067.23 175.827   3
   4   6  -1 2641.87 97.8918   1
   4   7  -1 3991.91 153.936   1
   4   7   0 11307.9 319.525   1
  -5 -16  -1 1087.99 218.447   3
   5 -16   1 1171.40 213.455   2
  -5 -16  -2-126.606 129.938   3
  -5 -15   1 1244.29 229.895   3
  -5 -15   0 1352.92 229.527   3
   5 -15   0 1118.16 196.436   2
  -5 -15  -1 644.699 181.219   3
   5 -15   1 903.190 198.951   2
  -5 -15  -2 369.487 142.516   3
   5 -15   2 462.930 169.804   2
  -5 -14   2 714.053 208.242   3
  -5 -14   1 348.971 150.973   3
  -5 -14   0 132.422 128.352   3
   5 -14   0 184.257 119.411   2
  -5 -14  -1 1338.99 216.519   3
   5 -14   1 1282.64 212.121   2
  -5 -14  -2 4.75982 105.697   3
   5 -14   2 104.601 140.516   2
   5 -14   3 1009.50 212.984   2
  -5 -13   3 3307.57 337.595   3
  -5 -13   2 829.867 203.104   3
  -5 -13   1 149.256 115.770   3
  -5 -13   0 1004.44 198.714   3
   5 -13   0 608.862 144.964   2
  -5 -13  -1 9184.76 513.051   3
   5 -13   1 9537.06 505.674   2
  -5 -13  -2 35.9073 114.534   3
   5 -13   2 137.872 138.931   2
   5 -13   3 522.326 179.741   2
  -5 -12   4 9.64980 121.167   3
  -5 -12   3 539.727 174.138   3
  -5 -12   2-104.212 142.386   3
  -5 -12   1 428.582 167.456   3
  -5 -12   0 100.231 134.807   3
   5 -12   0 388.263 127.552   2
  -5 -12  -1 8352.15 470.668   3
   5 -12   1 8377.45 471.587   2
  -5 -12  -2 3144.93 278.645   3
   5 -12   2 2743.99 289.558   2
  -5 -12  -3 3314.64 280.620   3
   5 -12   3 3252.91 327.574   2
   5 -12   4 626.213 185.803   2
  -5 -11   5 286.263 163.823   3
  -5 -11   4 2875.19 309.606   3
  -5 -11   3 1617.52 244.297   3
  -5 -11   2 3363.09 328.194   3
  -5 -11   1 1355.18 203.095   3
   5 -11  -1 1660.28 184.559   2
  -5 -11   0 2404.77 255.206   3
   5 -11   0 1899.91 212.351   2
  -5 -11  -1 1803.62 231.402   3
   5 -11   1 2195.90 243.246   2
  -5 -11  -2 6974.41 408.376   3
   5 -11   2 7016.97 438.650   2
  -5 -11  -3 6302.66 374.330   3
   5 -11   3 6789.75 453.197   2
   5 -11   4 3824.67 364.237   2
  -5 -10   5 1334.12 237.057   3
  -5 -10   4 180.683 157.592   3
  -5 -10   3 3342.69 314.076   3
  -5 -10   2 268.428 146.479   3
  -5 -10   1 4501.49 344.597   3
   5 -10  -1 4304.73 277.036   2
  -5 -10   0 426.928 130.925   3
   5 -10   0 668.453 140.792   2
  -5 -10  -1 14322.3 607.606   3
   5 -10   1 13974.2 601.363   2
  -5 -10  -2 793.700 156.582   3
   5 -10   2 493.354 148.354   2
  -5 -10  -3 1944.22 203.305   3
   5 -10   3 2201.48 264.410   2
   5 -10   4 2385.80 296.821   2
   5 -10   5 1477.76 248.030   2
  -5  -9   6 851.911 195.391   3
  -5  -9   5 1222.62 222.823   3
  -5  -9   4 2483.60 282.642   3
  -5  -9   3 1758.34 240.013   3
  -5  -9   2 7452.44 453.089   3
  -5  -9   1 17242.9 703.927   3
   5  -9  -1 16844.6 586.374   2
  -5  -9   0 3818.16 310.483   3
   5  -9   0 3838.72 273.512   2
  -5  -9  -1 17653.6 682.586   3
   5  -9   1 17728.1 671.003   2
  -5  -9  -2 5096.58 333.552   3
   5  -9   2 4470.96 337.462   2
  -5  -9  -3 3914.82 277.226   3
   5  -9   3 3904.16 335.116   2
   5  -9   4 3415.52 329.457   2
   5  -9   5 1067.60 227.228   2
  -5  -8   6 5192.11 403.750   3
  -5  -8   5 1047.21 206.233   3
  -5  -8   4 735.118 182.386   3
  -5  -8   3 4583.23 363.259   3
  -5  -8   2 6202.34 405.975   3
  -5  -8   1 1708.55 224.312   3
   5  -8  -1 1840.36 175.470   2
  -5  -8   0 134.510 125.144   3
   5  -8   0 136.094 97.9814   2
  -5  -8  -1 3056.81 276.243   3
   5  -8   1 3169.65 261.366   2
  -5  -8  -2 1889.76 214.695   3
   5  -8   2 2297.36 244.227   2
  -5  -8  -3 4990.00 314.396   3
   5  -8   3 5462.88 384.481   2
   5  -8   4 878.377 197.055   2
   5  -8   5 542.601 174.484   2
  -5  -7   7 5944.46 428.330   3
  -5  -7   6 72.9588 128.245   3
  -5  -7   5 160.158 134.793   3
  -5  -7   4 4743.70 363.545   3
  -5  -7   3 3042.87 285.624   3
  -5  -7   2 7115.78 424.718   3
   5  -7  -1 12349.4 464.162   2
  -5  -7   1 13241.2 573.854   3
  -5  -7   0 10726.5 501.392   3
   5  -7   0 10650.1 453.612   2
  -5  -7  -1 3457.24 274.580   3
   5  -7   1 3167.72 257.572   2
  -5  -7  -2 4206.66 293.919   3
   5  -7   2 4225.62 321.563   2
  -5  -7  -3 1195.01 162.671   3
   5  -7   3 762.425 174.017   2
   5  -7   4 3393.60 322.178   2
   5  -7   5 119.936 121.946   2
   5  -7   6 945.582 220.283   2
  -5  -6   7 2000.82 255.151   3
  -5  -6   6 154.731 114.312   3
  -5  -6   5 3305.23 313.832   3
  -5  -6   4 1108.66 198.242   3
  -5  -6   3 12220.6 566.170   3
  -5  -6   2 922.685 168.220   3
   5  -6  -1 2950.89 200.288   2
  -5  -6   1 2696.13 249.308   3
   5  -6   0 5602.24 306.104   2
  -5  -6   0 5705.96 351.545   3
  -5  -6  -1 480.922 135.019   3
   5  -6   1 333.670 109.606   2
  -5  -6  -2 224.855 107.240   3
   5  -6   2 374.750 139.969   2
   5  -6   3 10285.1 512.445   2
  -5  -6  -3 10807.3 462.294   3
   5  -6   4 732.807 182.229   2
   5  -6   5 633.256 186.848   2
   5  -6   6 1348.22 243.597   2
  -5  -5   7 1734.21 234.237   3
  -5  -5   6 1502.21 222.459   3
  -5  -5   5 11415.9 568.282   3
  -5  -5   4 2744.50 265.093   3
  -5  -5   3 1888.36 233.256   3
  -5  -5   2 25140.0 861.452   3
  -5  -5   1 2072.60 234.612   3
   5  -5  -1 2187.57 173.624   2
   5  -5   0 9919.82 414.354   2
  -5  -5   0 11514.8 508.994   3
   5  -5   1 3695.90 265.300   2
  -5  -5  -1 4212.19 296.104   3
   5  -5   2 2435.20 232.316   2
  -5  -5  -2 2802.57 231.435   3
   5  -5   3 2883.79 262.132   2
  -5  -5  -3 2741.22 220.004   3
   5  -5   4 4472.58 350.072   2
   5  -5   5 2241.90 269.904   2
   5  -5   6 121.658 161.713   2
  -5  -4   7 861.544 178.952   3
  -5  -4   6 2879.41 284.374   3
  -5  -4   5 6033.27 401.241   3
  -5  -4   4 1066.27 186.994   3
  -5  -4   3 11144.0 534.544   3
   5  -4  -2 3737.33 187.315   2
  -5  -4   2 4410.71 325.555   3
   5  -4  -1 14300.8 482.163   2
  -5  -4   1 15620.7 602.005   3
   5  -4   0 8508.32 374.260   2
  -5  -4   0 8546.18 427.633   3
   5  -4   1 20096.7 675.758   2
  -5  -4  -1 20620.0 699.432   3
  -5  -4  -2 412.448 116.564   3
   5  -4   2 527.688 140.857   2
   5  -4   3 3304.27 284.438   2
  -5  -4  -3 3036.05 234.749   3
   5  -4   4 3765.23 319.943   2
  -5  -4  -4 3260.83 225.317   3
   5  -4   5 6055.76 429.958   2
   5  -4   6 2560.79 306.268   2
  -5  -3   7 2350.06 265.699   3
  -5  -3   6 1206.72 196.282   3
  -5  -3   5 6456.48 413.636   3
  -5  -3   4 1326.00 208.843   3
  -5  -3   3 12763.9 567.429   3
  -5  -3   2 58020.8 1521.81   3
   5  -3  -1 19014.5 581.107   2
  -5  -3   1 19725.8 705.149   3
   5  -3   0 24862.5 743.816   2
  -5  -3   0 25948.9 829.917   3
   5  -3   1 2628.55 223.311   2
  -5  -3  -1 3365.28 254.094   3
   5  -3   2 10126.4 468.669   2
  -5  -3  -2 10260.5 445.452   3
  -5  -3  -3 418.294 107.730   3
   5  -3   3 336.174 125.548   2
  -5  -3  -3 237.399 71.0734   1
  -5  -3  -4 3732.80 243.210   1
   5  -3   4 3854.77 325.301   2
  -5  -3  -4 4419.50 259.834   3
  -5  -3  -5 2812.63 239.517   1
   5  -3   5 3516.40 322.078   2
  -5  -3  -6 2010.35 229.952   1
   5  -3   6 2265.54 288.710   2
  -5  -2   7 2138.60 247.102   3
  -5  -2   6 638.867 170.915   3
  -5  -2   5 522.315 162.686   3
  -5  -2   4 9007.34 474.756   3
  -5  -2   3 25724.9 870.741   3
  -5  -2   2 1226.57 182.362   3
   5  -2  -1 17841.9 553.830   2
  -5  -2   1 18221.4 666.249   3
  -5  -2   0 1990.85 208.927   3
   5  -2   0 2087.62 187.287   2
   5  -2   1 6533.56 341.979   2
  -5  -2  -1 5889.87 340.759   3
  -5  -2  -2 3070.90 149.370   1
   5  -2   2 3067.91 259.005   2
  -5  -2  -2 2644.19 219.532   3
  -5  -2  -3 1740.81 144.541   1
   5  -2   3 1802.17 215.166   2
  -5  -2  -3 1681.53 175.403   3
  -5  -2  -4 2304.83 188.961   1
   5  -2   4 2177.40 253.321   2
  -5  -2  -4 2226.75 184.742   3
  -5  -2  -5 5761.06 337.140   1
   5  -2   5 5322.32 405.709   2
  -5  -2  -6 6390.77 393.091   1
   5  -2   6 6923.37 471.217   2
  -5  -2  -7 2148.13 253.902   1
  -5  -1   7 979.228 184.406   3
  -5  -1   6 2092.23 245.916   3
  -5  -1   5 5746.75 385.028   3
  -5  -1   4 5020.90 355.514   3
  -5  -1   3 4092.90 316.332   3
  -5  -1   2 134.685 132.066   3
  -5  -1   1 14557.6 581.722   3
   5  -1   0 10750.7 433.259   2
  -5  -1   0 10097.2 464.209   3
   5  -1   1 180.285 101.272   2
  -5  -1  -1 69.9134 109.951   3
  -5  -1  -2 10879.8 337.862   1
   5  -1   2 11501.7 501.228   2
  -5  -1  -2 10484.5 458.617   3
   5  -1   3 530.569 154.461   2
  -5  -1  -3 398.613 107.994   3
   5  -1   4 92.8179 135.084   2
  -5  -1  -4 289.361 92.6356   3
   5  -1   5 2564.17 287.785   2
  -5  -1  -6 2152.28 232.218   1
   5  -1   6 2506.55 304.811   2
   5  -1   7 1755.56 276.737   2
  -5  -1  -7 1275.29 206.147   1
  -5   0   7 719.495 162.988   3
  -5   0   6 72.8312 108.321   3
  -5   0   5 2372.00 258.476   3
  -5   0   4-101.384 117.653   3
  -5   0   3 1083.66 193.612   3
  -5   0   2 7497.67 413.594   3
  -5   0   1 10144.8 486.840   3
  -5   0   0 44627.7 1226.59   3
   5   0   1 1895.13 194.439   2
  -5   0  -1 1980.80 213.661   3
   5   0   2 570.016 143.297   2
  -5   0  -2 478.697 130.758   3
   5   0   3 6541.35 394.421   2
  -5   0  -3 6200.00 337.594   3
   5   0   4 5019.28 362.879   2
  -5   0  -4 4930.12 280.654   3
   5   0   5 4457.47 368.643   2
   5   0   6 366.458 180.478   2
   5   0   7 108.564 150.176   2
  -5   0  -8 260.544 137.160   1
  -5   1   7 909.502 175.578   3
  -5   1   6 1552.22 214.669   3
  -5   1   5 5823.86 381.263   3
  -5   1   4 5253.93 359.706   3
  -5   1   3 5254.28 364.098   3
  -5   1   2 517.217 163.768   3
   5   1   2 11440.9 507.319   2
   5   1   3 327.662 148.447   2
   5   1   4 403.862 157.992   2
  -5   1  -4 260.294 89.1300   3
   5   1   5 2161.43 272.285   2
   5   1   6 2047.37 276.928   2
   5   1   7 1304.40 237.690   2
  -5   2   7 2093.02 242.701   3
  -5   2   6 827.363 168.843   3
  -5   2   5 646.287 165.334   3
  -5   2   4 9990.78 502.577   3
  -5   2   3 26549.3 890.306   3
   5   2   4 1748.70 242.700   2
   5   2   5 5179.27 397.031   2
  -5   3   7 1931.62 232.428   3
  -5   3   6 1291.58 203.613   3
  -5   3   5 6738.55 409.752   3
  -5   3   4 1046.17 185.376   3
  -5   4   7 802.019 160.141   3
  -5   4   6 2496.78 252.002   3
  -5   4   5 5954.22 397.244   3
  -5   5   7 2000.13 236.689   3
  -5   5   6 1949.92 237.709   3
  -5   6   6 169.762 110.816   3
  -6 -14  -2 735.331 167.320   3
  -6 -13   0 3737.81 354.908   3
  -6 -13  -1 3962.36 344.315   3
   6 -13   1 3692.99 327.519   2
  -6 -13  -2 2140.92 256.172   3
   6 -13   2 2442.66 288.300   2
  -6 -12   1 432.381 162.268   3
  -6 -12   0 544.287 163.009   3
  -6 -12  -1 1520.83 236.754   3
   6 -12   1 1946.23 242.129   2
  -6 -12  -2 2515.79 268.286   3
   6 -12   2 2575.68 293.777   2
   6 -12   3 4888.22 413.262   2
  -6 -11   2-25.5461 134.992   3
  -6 -11   1 4109.12 364.050   3
  -6 -11   0 2603.20 293.426   3
  -6 -11  -1 104.919 112.020   3
   6 -11   1 369.811 147.728   2
  -6 -11  -2 4842.94 369.765   3
   6 -11   2 5337.87 403.582   2
   6 -11   3 3982.98 367.800   2
  -6 -10   3 1583.04 252.819   3
  -6 -10   2 2498.22 296.510   3
  -6 -10   1 2316.68 275.878   3
  -6 -10   0 1576.51 232.673   3
  -6 -10  -1 2306.38 259.852   3
   6 -10   1 3047.37 283.816   2
  -6 -10  -2 2591.50 267.376   3
   6 -10   2 2429.95 278.443   2
   6 -10   3 911.719 203.030   2
  -6  -9   4 1711.77 263.635   3
  -6  -9   3 362.776 146.822   3
  -6  -9   2 534.229 165.976   3
  -6  -9   1 5556.26 412.874   3
  -6  -9   0 1968.77 258.096   3
   6  -9   0 1651.68 195.693   2
  -6  -9  -1 1470.86 216.050   3
   6  -9   1 1945.77 221.998   2
  -6  -9  -2 7128.45 435.737   3
   6  -9   2 8556.13 485.959   2
  -6  -9  -3 1281.43 184.960   3
   6  -9   3 1163.55 210.021   2
   6  -9   4 2416.73 297.436   2
  -6  -8   4 1336.64 231.209   3
  -6  -8   3-14.7789 149.488   3
  -6  -8   2 4367.27 369.639   3
  -6  -8   1 866.150 191.132   3
  -6  -8   0 1584.61 232.234   3
   6  -8   0 1928.16 199.892   2
  -6  -8  -1 1226.22 206.305   3
   6  -8   1 1002.36 171.435   2
   6  -8   2 3033.34 285.544   2
  -6  -8  -2 2856.05 275.254   3
  -6  -8  -3 169.397 106.382   3
   6  -8   3 210.354 143.477   2
   6  -8   4 5632.94 428.947   2
  -6  -7   5 1905.58 270.224   3
  -6  -7   4 399.704 159.373   3
  -6  -7   3 986.316 189.390   3
  -6  -7   2 4896.39 383.000   3
  -6  -7   1 8935.12 501.848   3
   6  -7   0 5598.74 333.481   2
  -6  -7   0 6300.32 408.704   3
   6  -7   1 6435.57 382.330   2
  -6  -7  -1 6434.35 407.381   3
   6  -7   2 13300.2 603.176   2
  -6  -7  -2 14107.0 606.819   3
   6  -7   3 4249.38 349.888   2
  -6  -7  -3 4514.02 326.800   3
   6  -7   4 2169.26 279.158   2
  -6  -6   5 590.466 185.687   3
  -6  -6   4 1521.84 233.389   3
  -6  -6   3 5006.47 391.708   3
  -6  -6   2 2930.03 293.295   3
  -6  -6   1 451.155 151.049   3
  -6  -6   0 1164.84 203.075   3
   6  -6   0 1248.41 165.533   2
   6  -6   1 2620.95 248.282   2
  -6  -6  -1 3178.39 283.872   3
  -6  -6  -2 1210.03 182.819   3
   6  -6   2 1238.59 191.994   2
  -6  -6  -3 1680.31 197.940   3
   6  -6   3 1450.24 221.198   2
   6  -6   4 786.613 192.387   2
   6  -6   5 2008.53 283.730   2
  -6  -5   5 971.978 196.633   3
  -6  -5   4 2207.80 269.789   3
  -6  -5   3 3586.86 327.701   3
  -6  -5   2 1317.13 218.570   3
  -6  -5   1 9781.72 520.934   3
   6  -5   0 15025.4 578.583   2
  -6  -5   0 17030.6 691.875   3
  -6  -5  -1 950.225 183.069   3
   6  -5   1 959.992 166.270   2
   6  -5   2 2232.23 248.882   2
  -6  -5  -2 2196.57 231.538   3
   6  -5   3 5722.18 392.587   2
  -6  -5  -3 5454.97 343.805   3
   6  -5   4 1071.92 206.898   2
   6  -5   5 2230.31 291.689   2
  -6  -4   6 1059.17 217.654   3
  -6  -4   5 645.347 165.519   3
  -6  -4   4 3756.89 344.192   3
  -6  -4   3 267.968 153.473   3
  -6  -4   2 1731.44 239.897   3
  -6  -4   1 3415.59 301.855   3
   6  -4   0 10809.7 466.646   2
  -6  -4   0 10915.8 533.260   3
   6  -4   1 15031.9 600.297   2
  -6  -4  -1 14965.5 630.116   3
  -6  -4  -2 1632.72 207.162   3
   6  -4   2 1558.67 211.388   2
  -6  -4  -3 1132.23 185.977   3
   6  -4   3 1312.82 204.361   2
   6  -4   4 444.504 160.117   2
   6  -4   5 864.961 213.727   2
  -6  -3   6 36.8110 128.314   3
  -6  -3   5 3356.35 327.997   3
  -6  -3   4 4269.16 364.757   3
  -6  -3   3 3146.90 305.859   3
  -6  -3   2 1938.44 240.346   3
  -6  -3   1 3949.90 324.192   3
   6  -3   0 9861.55 439.213   2
  -6  -3   0 9072.38 487.149   3
   6  -3   1 654.323 139.566   2
  -6  -3  -1 534.962 152.286   3
   6  -3   2 7139.75 417.840   2
  -6  -3  -2 6826.20 398.924   3
  -6  -3  -3 1846.16 199.923   3
   6  -3   3 2013.44 247.745   2
   6  -3   4 5857.62 422.548   2
   6  -3   5 1631.17 249.763   2
  -6  -2   6 695.878 180.462   3
  -6  -2   5 381.601 168.803   3
  -6  -2   4 3698.03 333.417   3
  -6  -2   3 1644.61 243.239   3
  -6  -2   2 699.050 183.247   3
  -6  -2   1 4961.86 351.856   3
   6  -2   0 5706.11 325.612   2
  -6  -2   0 5521.90 370.581   3
   6  -2   1 956.715 171.108   2
  -6  -2  -1 682.374 163.388   3
   6  -2   2 5778.13 379.525   2
  -6  -2  -2 5476.27 351.620   3
   6  -2   3 3792.19 327.261   2
  -6  -2  -3 3570.06 279.739   3
   6  -2   4 268.519 162.287   2
   6  -2   5 123.564 144.175   2
  -6  -1   6 1892.05 267.711   3
  -6  -1   5 1206.14 218.851   3
  -6  -1   4 4676.83 376.127   3
  -6  -1   3 15.2761 121.706   3
  -6  -1   2 4351.95 343.994   3
  -6  -1   1 8831.10 480.696   3
  -6  -1   0 3127.49 283.460   3
   6  -1   1 18291.1 676.038   2
  -6  -1  -1 18158.4 701.862   3
   6  -1   2 4137.95 315.784   2
  -6  -1  -2 3380.89 282.431   3
   6  -1   3 4643.03 355.859   2
  -6  -1  -3 4140.15 300.764   3
   6  -1   4 1560.85 238.821   2
   6  -1   5 3461.57 346.175   2
  -6   0   6 5345.48 403.777   3
  -6   0   5 1224.78 212.820   3
  -6   0   4 794.483 198.553   3
  -6   0   3 111.333 132.563   3
  -6   0   2 12382.6 584.703   3
  -6   0   1 2309.83 255.599   3
  -6   0   0 19306.4 742.182   3
  -6   0  -1 123.312 131.387   3
   6   0   2 8240.30 450.223   2
  -6   0  -2 7598.07 422.875   3
   6   0   3 88.1083 142.442   2
  -6   0  -3-16.1925 94.7496   3
   6   0   4 88.0337 147.872   2
  -6   0  -4 143.109 97.2718   3
   6   0   5 776.908 199.976   2
  -6   1   7 508.940 166.085   3
  -6   1   6 1299.10 220.896   3
  -6   1   5 1128.70 210.188   3
  -6   1   4 5064.41 387.269   3
  -6   1   3 76.4471 128.903   3
  -6   1   2 4886.16 368.979   3
  -6   1   1 9609.24 514.130   3
  -6   1   0 3549.00 316.158   3
  -6   1  -1 18132.2 721.288   3
  -6   1  -2 3818.66 307.396   3
  -6   1  -3 4926.43 334.540   3
  -6   1  -4 1620.06 188.826   3
   6   1   4 1398.99 234.931   2
   6   1   5 2258.51 285.967   2
  -6   2   6 549.950 170.956   3
  -6   2   5 206.769 139.391   3
  -6   2   4 3320.73 317.993   3
  -6   2   3 1486.11 225.361   3
  -6   2   2 609.610 176.895   3
  -6   2  -4 508.460 133.144   3
  -6   3   6 191.196 126.850   3
  -6   3   5 2821.87 300.402   3
  -6   3   4 4128.10 363.416   3
  -6   3   3 3261.54 309.285   3
  -6   4   6 971.162 195.635   3
  -6   4   5 397.737 155.223   3
  -6   4   4 4108.59 363.203   3
  -6   5   6 1711.08 248.316   3
  -6   5   5 764.616 176.842   3
  -6   6   6 5191.73 409.356   3
  -6   6   5 784.758 205.041   3
  -7 -11  -2 589.733 160.676   3
   7 -11   2 777.390 175.878   2
  -7 -10  -1 1123.08 219.274   3
  -7 -10  -2 425.416 153.408   3
   7 -10   2 846.226 185.013   2
  -7  -9   0 1677.48 254.662   3
  -7  -9  -1 7106.16 474.358   3
  -7  -9  -2 739.994 165.748   3
   7  -9   2 293.137 149.257   2
  -7  -8   1 3641.62 348.953   3
  -7  -8   0 1466.01 239.894   3
  -7  -8  -1 443.412 156.685   3
  -7  -8  -2 1085.49 200.595   3
   7  -8   2 805.766 171.406   2
   7  -8   3 218.375 150.429   2
  -7  -7   2 543.466 171.394   3
  -7  -7   1 535.282 173.894   3
  -7  -7   0 3605.40 340.466   3
  -7  -7  -1 2373.66 272.286   3
   7  -7   1 2280.72 250.432   2
  -7  -7  -2 649.962 165.875   3
   7  -7   2 371.573 155.184   2
   7  -7   3 1519.01 228.415   2
  -7  -6   2 150.405 134.889   3
  -7  -6   1 930.806 196.208   3
  -7  -6   0 3077.08 311.434   3
   7  -6   1 6813.60 415.327   2
  -7  -6  -1 6791.94 446.522   3
  -7  -6  -2 1009.81 182.801   3
   7  -6   2 1186.26 205.712   2
   7  -6   3 751.064 196.816   2
  -7  -5   3 581.471 170.145   3
  -7  -5   2 4870.24 409.086   3
  -7  -5   1 951.956 209.606   3
  -7  -5   0 2771.63 306.446   3
  -7  -5  -1 776.630 175.317   3
   7  -5   1 838.914 161.075   2
  -7  -5  -2 860.762 172.205   3
   7  -5   2 794.562 179.460   2
   7  -5   3 592.576 173.533   2
  -7  -4   3 1207.42 228.340   3
  -7  -4   2 538.487 177.070   3
  -7  -4   1 161.596 147.731   3
  -7  -4   0 7067.94 460.441   3
   7  -4   1 2830.61 265.604   2
  -7  -4  -1 2546.61 282.505   3
  -7  -4  -2 1897.17 244.810   3
   7  -4   2 1953.61 249.537   2
  -7  -4  -3 119.939 124.389   3
   7  -4   3 22.8530 136.359   2
   7  -4   4 3198.40 339.820   2
  -7  -3   3 146.110 140.292   3
  -7  -3   2 4750.18 385.622   3
  -7  -3   1 4591.92 375.119   3
  -7  -3   0 840.014 196.608   3
   7  -3   1 1491.63 207.754   2
  -7  -3  -1 952.334 192.272   3
   7  -3   2 1702.58 232.246   2
  -7  -3  -2 1641.39 224.283   3
   7  -3   3 1965.50 260.246   2
  -7  -3  -3 1833.27 221.391   3
   7  -3   4 281.579 153.019   2
  -7  -2   3-124.924 154.111   3
  -7  -2   2 129.483 136.817   3
  -7  -2   1 964.536 210.839   3
  -7  -2   0 3427.03 321.464   3
  -7  -2  -1 2870.38 287.430   3
   7  -2   2 8238.15 481.854   2
  -7  -2  -2 7608.94 457.760   3
   7  -2   3 1709.25 245.305   2
  -7  -2  -3 1283.89 198.034   3
   7  -2   4 901.551 214.412   2
  -7  -1   4-8.13829 122.001   3
  -7  -1   3 975.341 218.682   3
  -7  -1   2 2688.69 300.313   3
  -7  -1   1 1585.51 243.428   3
  -7  -1   0 1100.89 213.073   3
  -7  -1  -1 700.533 180.300   3
  -7  -1  -2 6734.44 430.418   3
   7  -1   3 5416.99 413.286   2
  -7  -1  -3 5719.03 385.678   3
   7  -1   4 651.476 209.073   2
  -7   0   4 520.195 179.255   3
  -7   0   3 1945.68 271.868   3
  -7   0   2 972.948 209.754   3
  -7   0   1-40.5219 126.668   3
  -7   0   0 572.617 156.332   3
  -7   0  -1 6061.75 416.542   3
  -7   0  -2 4925.55 371.454   3
  -7   0  -3 1992.23 236.503   3
  -7   1   4 149.096 142.854   3
  -7   1   3 555.193 188.523   3
  -7   1   2 3163.24 332.492   3
  -7   1   1 1512.41 239.722   3
  -7   1   0 1250.94 213.133   3
  -7   1  -1 1284.74 222.316   3
  -7   1  -2 7127.67 448.756   3
  -7   1  -3 6578.89 418.464   3
  -7   2   4 1436.70 244.960   3
  -7   2   3 225.764 155.607   3
  -7   2   2 368.859 177.808   3
  -7   2   1 568.603 188.048   3
  -7   2   0 3107.68 320.376   3
  -7   2  -1 2880.31 309.607   3
  -7   2  -2 8313.85 494.190   3
  -7   2  -3 1182.13 205.040   3
  -7   3   3 251.160 139.584   3
  -7   3   2 5221.91 424.692   3
  -7   3   1 5474.76 419.648   3
  -7   3  -3 1858.50 248.210   3
  -7   4   3 840.616 218.677   3
  -8  -4  -2 104.354 125.499   3
  -8  -3  -2 644.389 184.574   3
  -8  -2  -2 724.378 181.718   3
  -8  -1  -2 1250.45 217.997   3
  -8   0  -2-160.403 142.615   3
  -8   1  -2 1616.17 243.770   3
;
_shelx_hkl_checksum              4409
loop_
_space_group_symop_operation_xyz
'x, y, z'
'-x, y+1/2, -z'
loop_
_atom_site_label
_atom_site_type_symbol
_atom_site_fract_x
_atom_site_fract_y
_atom_site_fract_z
_atom_site_U_iso_or_equiv
_atom_site_adp_type
_atom_site_occupancy
_atom_site_site_symmetry_order
_atom_site_calc_flag
_atom_site_refinement_flags_posn
_atom_site_refinement_flags_adp
O1 O 0.0812(3) 0.10968(13) 0.4361(2) 0.0242(5) Uani 1 1 d . .
O2 O -0.1343(3) 0.22568(13) 0.5230(2) 0.0256(5) Uani 1 1 d . .
O4 O -0.4642(3) 0.37774(15) 0.4166(2) 0.0267(5) Uani 1 1 d . .
O3 O -0.0931(3) 0.40078(13) 0.3535(3) 0.0251(5) Uani 1 1 d . .
N5 N 0.2757(4) 0.26131(16) 0.1056(3) 0.0214(5) Uani 1 1 d . .
N6 N 0.4564(4) 0.2652(2) 0.0022(3) 0.0286(6) Uani 1 1 d . .
N7 N 0.5492(4) 0.1890(2) 0.0087(3) 0.0303(6) Uani 1 1 d . .
C1 C 0.1413(4) 0.33933(19) 0.1325(3) 0.0223(6) Uani 1 1 d . .
H1 H 0.2357 0.3831 0.1877 0.029 Uiso 1 1 calc R U
C2 C 0.2545(4) 0.1821(2) 0.1784(3) 0.0212(6) Uani 1 1 d . .
C3 C 0.0601(4) 0.17057(18) 0.2948(3) 0.0202(6) Uani 1 1 d . .
H3 H -0.0684 0.1569 0.2203 0.026 Uiso 1 1 calc R U
C4 C 0.0224(4) 0.25292(19) 0.3954(3) 0.0202(6) Uani 1 1 d . .
H4 H 0.1572 0.2708 0.4572 0.026 Uiso 1 1 calc R U
C5 C -0.0507(4) 0.32179(18) 0.2651(4) 0.0208(6) Uani 1 1 d . .
H5 H -0.1809 0.3028 0.1982 0.027 Uiso 1 1 calc R U
C6 C 0.4286(5) 0.1359(2) 0.1156(3) 0.0278(7) Uani 1 1 d . .
C7 C -0.0714(4) 0.13967(19) 0.5739(3) 0.0218(6) Uani 1 1 d . .
C8 C -0.2724(5) 0.0848(2) 0.5741(4) 0.0290(7) Uani 1 1 d . .
H8A H -0.3406 0.0864 0.4572 0.038 Uiso 1 1 calc R U
H8B H -0.3724 0.1062 0.6622 0.038 Uiso 1 1 calc R U
H8C H -0.2330 0.0267 0.6032 0.038 Uiso 1 1 calc R U
C9 C 0.0500(5) 0.1408(2) 0.7519(4) 0.0278(6) Uani 1 1 d . .
H9A H -0.0438 0.1630 0.8436 0.036 Uiso 1 1 calc R U
H9B H 0.1770 0.1767 0.7424 0.036 Uiso 1 1 calc R U
H9C H 0.0942 0.0834 0.7828 0.036 Uiso 1 1 calc R U
C10 C 0.0597(5) 0.3746(2) -0.0433(4) 0.0304(7) Uani 1 1 d . .
H10 H -0.0150 0.3376 -0.1208 0.039 Uiso 1 1 calc R U
C11 C 0.0872(6) 0.4541(2) -0.0939(5) 0.0396(8) Uani 1 1 d . .
H11A H 0.1612 0.4924 -0.0190 0.051 Uiso 1 1 calc R U
H11B H 0.0328 0.4724 -0.2047 0.051 Uiso 1 1 calc R U
C12 C -0.3112(5) 0.4303(2) 0.3341(4) 0.0266(7) Uani 1 1 d . .
H12A H -0.3213 0.4876 0.3849 0.035 Uiso 1 1 calc R U
H12B H -0.3469 0.4344 0.2069 0.035 Uiso 1 1 calc R U
C13 C -0.4516(5) 0.3806(2) 0.6092(4) 0.0332(7) Uani 1 1 d . .
H13A H -0.4656 0.4390 0.6490 0.043 Uiso 1 1 calc R U
H13B H -0.3133 0.3580 0.6490 0.043 Uiso 1 1 calc R U
H13C H -0.5675 0.3468 0.6587 0.043 Uiso 1 1 calc R U
loop_
_atom_site_aniso_label
_atom_site_aniso_U_11
_atom_site_aniso_U_22
_atom_site_aniso_U_33
_atom_site_aniso_U_23
_atom_site_aniso_U_13
_atom_site_aniso_U_12
O1 0.0321(11) 0.0196(11) 0.0210(9) 0.0021(8) 0.0055(8) 0.0064(9)
O2 0.0265(10) 0.0217(11) 0.0288(10) 0.0022(9) 0.0113(8) 0.0039(9)
O4 0.0198(9) 0.0341(12) 0.0262(9) 0.0018(10) 0.0022(7) -0.0035(9)
O3 0.0186(9) 0.0180(11) 0.0388(10) -0.0033(8) 0.0020(8) 0.0008(8)
N5 0.0176(10) 0.0278(14) 0.0187(10) -0.0010(10) -0.0007(8) 0.0000(10)
N6 0.0204(12) 0.0441(17) 0.0214(11) -0.0012(11) 0.0039(9) -0.0030(12)
N7 0.0240(12) 0.0404(17) 0.0266(12) -0.0041(12) 0.0028(10) 0.0063(12)
C1 0.0211(12) 0.0214(15) 0.0244(13) 0.0010(11) 0.0001(10) -0.0041(12)
C2 0.0213(13) 0.0261(15) 0.0162(12) -0.0027(12) -0.0012(10) 0.0015(13)
C3 0.0202(13) 0.0198(15) 0.0204(12) -0.0017(11) -0.0008(10) 0.0011(11)
C4 0.0156(12) 0.0239(15) 0.0212(12) -0.0016(11) 0.0038(10) -0.0006(11)
C5 0.0171(13) 0.0179(15) 0.0274(13) -0.0025(12) 0.0010(10) -0.0021(11)
C6 0.0232(13) 0.0413(19) 0.0187(12) -0.0038(13) 0.0001(10) 0.0062(14)
C7 0.0246(13) 0.0201(15) 0.0208(12) -0.0011(12) 0.0047(11) 0.0033(12)
C8 0.0293(15) 0.0253(17) 0.0324(15) 0.0007(13) 0.0003(12) -0.0032(14)
C9 0.0270(15) 0.0318(17) 0.0245(13) -0.0040(14) 0.0002(11) 0.0024(14)
C10 0.0321(15) 0.0308(18) 0.0282(14) 0.0021(15) 0.0017(11) 0.0035(14)
C11 0.043(2) 0.036(2) 0.0392(17) 0.0121(15) 0.0093(14) 0.0065(16)
C12 0.0228(14) 0.0235(16) 0.0338(15) 0.0043(13) 0.0054(12) 0.0051(12)
C13 0.0349(15) 0.0372(19) 0.0276(14) 0.0007(15) 0.0060(11) 0.0052(16)
loop_
_atom_type_symbol
_atom_type_description
_atom_type_scat_dispersion_real
_atom_type_scat_dispersion_imag
_atom_type_scat_source
C C 0.0033 0.0016 'International Tables Vol C Tables 4.2.6.8 and 6.1.1.4'
H H 0.0000 0.0000 'International Tables Vol C Tables 4.2.6.8 and 6.1.1.4'
N N 0.0061 0.0033 'International Tables Vol C Tables 4.2.6.8 and 6.1.1.4'
O O 0.0106 0.0060 'International Tables Vol C Tables 4.2.6.8 and 6.1.1.4'
loop_
_geom_angle_atom_site_label_1
_geom_angle_atom_site_label_2
_geom_angle_atom_site_label_3
_geom_angle
C3 O1 C7 104.46(19)
C4 O2 C7 105.8(2)
C12 O4 C13 113.1(2)
C12 O3 C5 114.2(2)
C2 N5 N6 110.5(2)
C2 N5 C1 129.6(2)
N6 N5 C1 119.8(2)
N7 N6 N5 107.1(2)
N6 N7 C6 109.3(2)
N5 C1 C10 111.3(2)
N5 C1 C5 111.3(2)
C10 C1 C5 111.5(2)
N5 C1 H1 107.5
C10 C1 H1 107.5
C5 C1 H1 107.5
N5 C2 C6 105.3(2)
N5 C2 C3 115.0(2)
C6 C2 C3 139.7(3)
O1 C3 C2 116.3(2)
O1 C3 C4 102.4(2)
C2 C3 C4 108.3(2)
O1 C3 H3 109.8
C2 C3 H3 109.8
C4 C3 H3 109.8
O2 C4 C3 100.7(2)
O2 C4 C5 116.3(2)
C3 C4 C5 109.5(2)
O2 C4 H4 110.0
C3 C4 H4 110.0
C5 C4 H4 110.0
O3 C5 C4 111.9(2)
O3 C5 C1 106.4(2)
C4 C5 C1 108.0(2)
O3 C5 H5 110.2
C4 C5 H5 110.2
C1 C5 H5 110.2
N7 C6 C2 107.9(3)
O2 C7 O1 106.37(19)
O2 C7 C8 108.2(2)
O1 C7 C8 110.4(2)
O2 C7 C9 110.2(2)
O1 C7 C9 107.7(2)
C8 C7 C9 113.7(2)
C7 C8 H8A 109.5
C7 C8 H8B 109.5
H8A C8 H8B 109.5
C7 C8 H8C 109.5
H8A C8 H8C 109.5
H8B C8 H8C 109.5
C7 C9 H9A 109.5
C7 C9 H9B 109.5
H9A C9 H9B 109.5
C7 C9 H9C 109.5
H9A C9 H9C 109.5
H9B C9 H9C 109.5
C11 C10 C1 123.8(3)
C11 C10 H10 118.1
C1 C10 H10 118.1
C10 C11 H11A 120.0
C10 C11 H11B 120.0
H11A C11 H11B 120.0
O4 C12 O3 113.7(2)
O4 C12 H12A 108.8
O3 C12 H12A 108.8
O4 C12 H12B 108.8
O3 C12 H12B 108.8
H12A C12 H12B 107.7
O4 C13 H13A 109.5
O4 C13 H13B 109.5
H13A C13 H13B 109.5
O4 C13 H13C 109.5
H13A C13 H13C 109.5
H13B C13 H13C 109.5
loop_
_geom_bond_atom_site_label_1
_geom_bond_atom_site_label_2
_geom_bond_distance
O1 C3 1.419(3)
O1 C7 1.470(3)
O2 C4 1.420(3)
O2 C7 1.442(4)
O4 C12 1.391(3)
O4 C13 1.433(3)
O3 C12 1.417(3)
O3 C5 1.419(3)
N5 C2 1.353(4)
N5 N6 1.354(3)
N5 C1 1.481(4)
N6 N7 1.316(4)
N7 C6 1.367(4)
C1 C10 1.497(4)
C1 C5 1.566(4)
C1 H1 0.9800
C2 C6 1.371(4)
C2 C3 1.489(3)
C3 C4 1.503(4)
C3 H3 0.9800
C4 C5 1.509(4)
C4 H4 0.9800
C5 H5 0.9800
C7 C8 1.496(4)
C7 C9 1.510(4)
C8 H8A 0.9600
C8 H8B 0.9600
C8 H8C 0.9600
C9 H9A 0.9600
C9 H9B 0.9600
C9 H9C 0.9600
C10 C11 1.305(5)
C10 H10 0.9300
C11 H11A 0.9300
C11 H11B 0.9300
C12 H12A 0.9700
C12 H12B 0.9700
C13 H13A 0.9600
C13 H13B 0.9600
C13 H13C 0.9600
