#------------------------------------------------------------------------------
#$Date: 2019-11-24 19:33:06 +0200 (Sun, 24 Nov 2019) $
#$Revision: 239179 $
#$URL: file:///home/coder/svn-repositories/cod/cif/1/55/58/1555851.cif $
#------------------------------------------------------------------------------
#
# This file is available in the Crystallography Open Database (COD),
# http://www.crystallography.net/
#
# All data on this site have been placed in the public domain by the
# contributors.
#
data_1555851
loop_
_publ_author_name
'Lanke, Veeranjaneyulu'
'Bettadapur, Kiran R.'
'Prabhu, Kandikere Ramaiah'
_publ_section_title
;
 Electronic Nature of Ketone Directing Group as a Key To Control C-2 vs
 C-4 Alkenylation of Indoles.
;
_journal_issue                   21
_journal_name_full               'Organic letters'
_journal_page_first              5496
_journal_page_last               5499
_journal_paper_doi               10.1021/acs.orglett.6b02698
_journal_volume                  18
_journal_year                    2016
_chemical_formula_moiety         'C15 H15 N O3'
_chemical_formula_sum            'C15 H15 N O3'
_chemical_formula_weight         257.28
_chemical_name_systematic
'(E)-methyl 3-(3-acetyl-1-methyl-1H-indol-2-yl)acrylate'
_space_group_crystal_system      triclinic
_space_group_IT_number           2
_space_group_name_Hall           '-P 1'
_space_group_name_H-M_alt        'P -1'
_atom_sites_solution_hydrogens   geom
_audit_creation_date             2015-11-24
_audit_creation_method
;
Olex2 1.2
(compiled 2015.01.26 svn.r3150 for OlexSys, GUI svn.r4998)
;
_audit_update_record
;
2015-11-24 deposited with the CCDC.
2016-03-28 downloaded from the CCDC.
;
_cell_angle_alpha                107.206(12)
_cell_angle_beta                 104.236(13)
_cell_angle_gamma                99.256(9)
_cell_formula_units_Z            2
_cell_length_a                   7.2360(12)
_cell_length_b                   8.5114(15)
_cell_length_c                   11.770(3)
_cell_measurement_reflns_used    4573
_cell_measurement_temperature    296(2)
_cell_measurement_theta_max      27.13
_cell_measurement_theta_min      2.59
_cell_volume                     649.5(2)
_computing_cell_refinement       'SAINT v8.27A (Bruker, 2012)'
_computing_data_reduction        'SAINT v8.27A (Bruker, 2012)'
_computing_molecular_graphics    'Olex2 (Dolomanov et al., 2009)'
_computing_publication_material  'Olex2 (Dolomanov et al., 2009)'
_computing_structure_refinement  'ShelXL (Sheldrick, 2008)'
_diffrn_ambient_temperature      296.15
_diffrn_measured_fraction_theta_full 0.983
_diffrn_measured_fraction_theta_max 0.983
_diffrn_measurement_device_type  'Bruker APEX-II CCD'
_diffrn_measurement_method       '\f and \w scans'
_diffrn_radiation_monochromator  graphite
_diffrn_radiation_type           MoK\a
_diffrn_radiation_wavelength     0.71073
_diffrn_reflns_av_unetI/netI     0.0414
_diffrn_reflns_Laue_measured_fraction_full 0.983
_diffrn_reflns_Laue_measured_fraction_max 0.983
_diffrn_reflns_limit_h_max       8
_diffrn_reflns_limit_h_min       -8
_diffrn_reflns_limit_k_max       9
_diffrn_reflns_limit_k_min       -10
_diffrn_reflns_limit_l_max       13
_diffrn_reflns_limit_l_min       -13
_diffrn_reflns_number            2241
_diffrn_reflns_point_group_measured_fraction_full 0.983
_diffrn_reflns_point_group_measured_fraction_max 0.983
_diffrn_reflns_theta_full        24.996
_diffrn_reflns_theta_max         24.996
_diffrn_reflns_theta_min         1.906
_diffrn_standards_number         0
_exptl_absorpt_coefficient_mu    0.092
_exptl_absorpt_correction_T_max  0.7461
_exptl_absorpt_correction_T_min  0.5968
_exptl_absorpt_correction_type   multi-scan
_exptl_absorpt_process_details
;
SADABS-2012/1 (Bruker,2012) was used for absorption correction.
wR2(int) was 0.1267 before and 0.0818 after correction.
The Ratio of minimum to maximum transmission is 0.7999.
The \l/2 correction factor is 0.0015.
;
_exptl_crystal_colour            yellow
_exptl_crystal_colour_primary    colourless
_exptl_crystal_density_diffrn    1.316
_exptl_crystal_description       plate
_exptl_crystal_F_000             272
_exptl_crystal_size_max          0.28
_exptl_crystal_size_mid          0.2
_exptl_crystal_size_min          0.05
_refine_diff_density_max         0.612
_refine_diff_density_min         -0.444
_refine_diff_density_rms         0.137
_refine_ls_extinction_coef       0.13(6)
_refine_ls_extinction_expression Fc^*^=kFc[1+0.001xFc^2^\l^3^/sin(2\q)]^-1/4^
_refine_ls_extinction_method     'SHELXL-2014/7 (Sheldrick 2014'
_refine_ls_goodness_of_fit_ref   1.948
_refine_ls_hydrogen_treatment    constr
_refine_ls_matrix_type           full
_refine_ls_number_parameters     177
_refine_ls_number_reflns         2241
_refine_ls_number_restraints     0
_refine_ls_restrained_S_all      1.948
_refine_ls_R_factor_all          0.1352
_refine_ls_R_factor_gt           0.1283
_refine_ls_shift/su_max          0.000
_refine_ls_shift/su_mean         0.000
_refine_ls_structure_factor_coef Fsqd
_refine_ls_weighting_details
'w=1/[\s^2^(Fo^2^)+(0.2000P)^2^] where P=(Fo^2^+2Fc^2^)/3'
_refine_ls_weighting_scheme      calc
_refine_ls_wR_factor_gt          0.4228
_refine_ls_wR_factor_ref         0.4280
_reflns_Friedel_coverage         0.000
_reflns_number_gt                1875
_reflns_number_total             2241
_reflns_threshold_expression     'I > 2\s(I)'
_iucr_refine_instructions_details
;

    red.res created by SHELXL-2014/7

TITL RED in P-1
CELL 0.71073 7.236 8.5114 11.7701 107.206 104.236 99.256
ZERR 2 0.0012 0.0015 0.0026 0.012 0.013 0.009
LATT 1
SFAC C H N O
UNIT 30 30 2 6
 
L.S. 10
PLAN  -10 0 0
TEMP 23
HTAB
BOND $H
CONF
fmap 2
acta
OMIT 0 50
REM <olex2.extras>
REM <HklSrc "%.\\platon_trm.hkl">
REM </olex2.extras>
 
WGHT    0.200000
EXTI    0.132269
BASF   0.26112
FVAR      10.71377
O1    4    0.311427   -0.143746    0.181432    11.00000    0.08321    0.06307 =
         0.04600   -0.00135    0.02664    0.03866
O3    4    0.232494    0.750115    0.456058    11.00000    0.11183    0.04174 =
         0.05717    0.01868    0.02460    0.02641
O2    4    0.020975   -0.078800    0.151108    11.00000    0.05773    0.07464 =
         0.04474   -0.00784    0.00892    0.01947
C13   1   -0.048689   -0.210130    0.029215    11.00000    0.08392    0.08549 =
         0.04634   -0.01061    0.01119    0.01252
AFIX 137
H13A  2    0.020682   -0.178651   -0.023737    11.00000   -1.50000
H13B  2   -0.187226   -0.224192   -0.006881    11.00000   -1.50000
H13C  2   -0.025935   -0.315046    0.037053    11.00000   -1.50000
AFIX   0
C12   1    0.205835   -0.059756    0.218552    11.00000    0.05829    0.04744 =
         0.03913    0.01352    0.01521    0.01701
C11   1    0.268155    0.078716    0.340653    11.00000    0.04870    0.04625 =
         0.03468    0.00740    0.01222    0.01704
AFIX  43
H11   2    0.381135    0.083424    0.401291    11.00000   -1.20000
AFIX   0
C10   1    0.172902    0.195219    0.368132    11.00000    0.04394    0.04114 =
         0.02622    0.00829    0.01015    0.01166
AFIX  43
H10   2    0.059577    0.187724    0.306589    11.00000   -1.20000
AFIX   0
C8    1    0.228797    0.337574    0.487923    11.00000    0.03623    0.03635 =
         0.02757    0.00794    0.01033    0.01425
C7    1    0.243838    0.508946    0.510458    11.00000    0.03450    0.03917 =
         0.03156    0.00749    0.01155    0.01243
C5    1    0.290894    0.588941    0.643333    11.00000    0.03386    0.03976 =
         0.03123    0.00168    0.00939    0.01322
C4    1    0.324204    0.755471    0.724564    11.00000    0.04860    0.04157 =
         0.04348   -0.00188    0.01353    0.01001
AFIX  43
H4    2    0.321857    0.844204    0.693784    11.00000   -1.20000
AFIX   0
C3    1    0.360461    0.786381    0.850487    11.00000    0.05318    0.06449 =
         0.03824   -0.01187    0.00886    0.01534
AFIX  43
H3    2    0.377581    0.896153    0.904478    11.00000   -1.20000
AFIX   0
C6    1    0.303347    0.462943    0.695446    11.00000    0.03965    0.04471 =
         0.02788    0.00375    0.00915    0.01668
N1    3    0.268093    0.308394    0.599802    11.00000    0.04201    0.04222 =
         0.03041    0.00995    0.00795    0.01733
C9    1    0.251685    0.148340    0.620943    11.00000    0.07256    0.05006 =
         0.04720    0.01696    0.01839    0.02092
AFIX 137
H9A   2    0.193269    0.056275    0.542286    11.00000   -1.50000
H9B   2    0.170532    0.143165    0.673811    11.00000   -1.50000
H9C   2    0.380371    0.139422    0.660755    11.00000   -1.50000
AFIX   0
C1    1    0.344322    0.492428    0.823956    11.00000    0.05568    0.07868 =
         0.02557    0.01308    0.01053    0.02397
AFIX  43
H1    2    0.352232    0.405798    0.856596    11.00000   -1.20000
AFIX   0
C2    1    0.371776    0.657207    0.897757    11.00000    0.05972    0.08450 =
         0.02713    0.00196    0.01217    0.02686
AFIX  43
H2    2    0.399297    0.683211    0.983639    11.00000   -1.20000
AFIX   0
C14   1    0.221377    0.598680    0.420994    11.00000    0.04817    0.04100 =
         0.03234    0.01106    0.01200    0.01309
C15   1    0.190555    0.506050    0.284902    11.00000    0.06550    0.04814 =
         0.03009    0.01534    0.01829    0.01808
AFIX 137
H15A  2    0.060492    0.431438    0.247134    11.00000   -1.50000
H15B  2    0.286248    0.440746    0.277156    11.00000   -1.50000
H15C  2    0.205234    0.586785    0.243466    11.00000   -1.50000
AFIX   0
HKLF 5
 
REM  RED in P-1
REM R1 =  0.1283 for    1875 Fo > 4sig(Fo)  and  0.1352 for all    2241 data
REM    177 parameters refined using      0 restraints
 
END  
     
WGHT      0.2000      0.0000 

REM Instructions for potential hydrogen bonds
EQIV $1 x, y-1, z
HTAB C9 O3_$1
EQIV $2 -x+1, -y, -z+1
HTAB C9 O1_$2

REM Highest difference peak  0.612,  deepest hole -0.444,  1-sigma level  0.137
Q1    1   0.3050  0.8747  0.5099  11.00000  0.05    0.61
Q2    1   0.3094  0.4201  0.6357  11.00000  0.05    0.54
Q3    1   0.2752  0.8272  0.3786  11.00000  0.05    0.49
Q4    1   0.3472  0.4872  0.7523  11.00000  0.05    0.46
Q5    1   0.2871  0.6442  0.5613  11.00000  0.05    0.46
Q6    1   0.2286  0.0343  0.5206  11.00000  0.05    0.45
Q7    1   0.3804  0.5977  0.7543  11.00000  0.05    0.45
Q8    1   0.3166  0.7062  0.4551  11.00000  0.05    0.44
Q9    1   0.2747  0.5643  0.5691  11.00000  0.05    0.42
Q10   1   0.0811  0.0649  0.2163  11.00000  0.05    0.41

REM The information below was added by Olex2.
REM
REM R1 = 0.1283 for 1875 Fo > 4sig(Fo) and 0.1352 for all 3581 data
REM n/a parameters refined using n/a restraints
REM Highest difference peak 0.61, deepest hole -0.44
REM Mean Shift 0, Max Shift 0.000.

REM +++ Tabular Listing of Refinement Information +++
REM R1_all = 0.1352
REM R1_gt = 0.1283
REM wR_ref = 0.4280
REM GOOF = 1.948
REM Shift_max = 0.000
REM Shift_mean = 0
REM Reflections_all = 3581
REM Reflections_gt = 1875
REM Parameters = n/a
REM Hole = -0.44
REM Peak = 0.61
REM Flack = n/a

;
_cod_data_source_file            ol6b02698_si_002.cif
_cod_data_source_block           red
_cod_database_code               1555851
_shelx_space_group_comment
;
The symmetry employed for this shelxl refinement is uniquely defined
by the following loop, which should always be used as a source of
symmetry information in preference to the above space-group names.
They are only intended as comments.
;
_olex2_refinement_description
;
1. Twinned data refinement
 Scales: 0.739(8) 0.261(8)
2. Fixed Uiso
 At 1.2 times of:
  All C(H) groups
 At 1.5 times of:
  All C(H,H,H) groups
3.a Aromatic/amide H refined with riding coordinates:
 C11(H11), C10(H10), C4(H4), C3(H3), C1(H1), C2(H2)
3.b Idealised Me refined as rotating group:
 C13(H13A,H13B,H13C), C9(H9A,H9B,H9C), C15(H15A,H15B,H15C)
;
_shelx_shelxl_version_number     2014/7
_olex2_submission_special_instructions 'No special instructions were received'
loop_
_space_group_symop_operation_xyz
'x, y, z'
'-x, -y, -z'
loop_
_atom_site_label
_atom_site_type_symbol
_atom_site_fract_x
_atom_site_fract_y
_atom_site_fract_z
_atom_site_U_iso_or_equiv
_atom_site_adp_type
_atom_site_occupancy
_atom_site_site_symmetry_order
_atom_site_calc_flag
_atom_site_refinement_flags_posn
O1 O 0.3114(8) -0.1437(6) 0.1814(5) 0.0651(15) Uani 1 1 d .
O3 O 0.2325(9) 0.7501(5) 0.4561(5) 0.0694(16) Uani 1 1 d .
O2 O 0.0210(7) -0.0788(6) 0.1511(5) 0.0668(16) Uani 1 1 d .
C13 C -0.0487(14) -0.2101(11) 0.0292(8) 0.083(3) Uani 1 1 d .
H13A H 0.0207 -0.1787 -0.0237 0.124 Uiso 1 1 calc GR
H13B H -0.1872 -0.2242 -0.0069 0.124 Uiso 1 1 calc GR
H13C H -0.0259 -0.3150 0.0371 0.124 Uiso 1 1 calc GR
C12 C 0.2058(9) -0.0598(7) 0.2186(6) 0.0482(15) Uani 1 1 d .
C11 C 0.2682(8) 0.0787(7) 0.3407(5) 0.0443(15) Uani 1 1 d .
H11 H 0.3811 0.0834 0.4013 0.053 Uiso 1 1 calc R
C10 C 0.1729(8) 0.1952(7) 0.3681(5) 0.0380(13) Uani 1 1 d .
H10 H 0.0596 0.1877 0.3066 0.046 Uiso 1 1 calc R
C8 C 0.2288(7) 0.3376(6) 0.4879(5) 0.0334(13) Uani 1 1 d .
C7 C 0.2438(7) 0.5089(6) 0.5105(5) 0.0356(13) Uani 1 1 d .
C5 C 0.2909(7) 0.5889(6) 0.6433(5) 0.0371(13) Uani 1 1 d .
C4 C 0.3242(8) 0.7555(7) 0.7246(6) 0.0488(16) Uani 1 1 d .
H4 H 0.3219 0.8442 0.6938 0.059 Uiso 1 1 calc R
C3 C 0.3605(10) 0.7864(9) 0.8505(7) 0.060(2) Uani 1 1 d .
H3 H 0.3776 0.8962 0.9045 0.072 Uiso 1 1 calc R
C6 C 0.3033(7) 0.4629(7) 0.6954(5) 0.0390(14) Uani 1 1 d .
N1 N 0.2681(6) 0.3084(5) 0.5998(4) 0.0387(12) Uani 1 1 d .
C9 C 0.2517(10) 0.1483(8) 0.6209(7) 0.0560(17) Uani 1 1 d .
H9A H 0.1933 0.0563 0.5423 0.084 Uiso 1 1 calc GR
H9B H 0.1705 0.1432 0.6738 0.084 Uiso 1 1 calc GR
H9C H 0.3804 0.1394 0.6608 0.084 Uiso 1 1 calc GR
C1 C 0.3443(9) 0.4924(9) 0.8240(6) 0.0541(17) Uani 1 1 d .
H1 H 0.3522 0.4058 0.8566 0.065 Uiso 1 1 calc R
C2 C 0.3718(9) 0.6572(10) 0.8978(6) 0.0604(19) Uani 1 1 d .
H2 H 0.3993 0.6832 0.9836 0.073 Uiso 1 1 calc R
C14 C 0.2214(8) 0.5987(7) 0.4210(5) 0.0408(14) Uani 1 1 d .
C15 C 0.1906(9) 0.5061(8) 0.2849(5) 0.0464(15) Uani 1 1 d .
H15A H 0.0605 0.4314 0.2471 0.070 Uiso 1 1 calc GR
H15B H 0.2862 0.4407 0.2772 0.070 Uiso 1 1 calc GR
H15C H 0.2052 0.5868 0.2435 0.070 Uiso 1 1 calc GR
loop_
_atom_site_aniso_label
_atom_site_aniso_U_11
_atom_site_aniso_U_22
_atom_site_aniso_U_33
_atom_site_aniso_U_23
_atom_site_aniso_U_13
_atom_site_aniso_U_12
O1 0.083(3) 0.063(3) 0.046(3) -0.001(2) 0.027(2) 0.039(2)
O3 0.112(4) 0.042(3) 0.057(3) 0.019(2) 0.025(3) 0.026(2)
O2 0.058(3) 0.075(3) 0.045(3) -0.008(2) 0.009(2) 0.019(2)
C13 0.084(5) 0.085(5) 0.046(5) -0.011(4) 0.011(4) 0.013(4)
C12 0.058(3) 0.047(3) 0.039(3) 0.014(3) 0.015(3) 0.017(3)
C11 0.049(3) 0.046(3) 0.035(3) 0.007(2) 0.012(2) 0.017(2)
C10 0.044(3) 0.041(3) 0.026(3) 0.008(2) 0.010(2) 0.012(2)
C8 0.036(2) 0.036(3) 0.028(3) 0.008(2) 0.0103(19) 0.0142(19)
C7 0.035(2) 0.039(3) 0.032(3) 0.007(2) 0.012(2) 0.0124(19)
C5 0.034(2) 0.040(3) 0.031(3) 0.002(2) 0.009(2) 0.0132(19)
C4 0.049(3) 0.042(3) 0.043(3) -0.002(3) 0.014(3) 0.010(2)
C3 0.053(3) 0.064(4) 0.038(3) -0.012(3) 0.009(3) 0.015(3)
C6 0.040(3) 0.045(3) 0.028(3) 0.004(2) 0.009(2) 0.017(2)
N1 0.042(2) 0.042(2) 0.030(2) 0.0099(19) 0.0079(18) 0.0173(17)
C9 0.073(4) 0.050(4) 0.047(4) 0.017(3) 0.018(3) 0.021(3)
C1 0.056(3) 0.079(4) 0.026(3) 0.013(3) 0.011(3) 0.024(3)
C2 0.060(4) 0.084(5) 0.027(3) 0.002(3) 0.012(3) 0.027(3)
C14 0.048(3) 0.041(3) 0.032(3) 0.011(2) 0.012(2) 0.013(2)
C15 0.066(3) 0.048(3) 0.030(3) 0.015(2) 0.018(3) 0.018(2)
loop_
_atom_type_symbol
_atom_type_description
_atom_type_scat_dispersion_real
_atom_type_scat_dispersion_imag
_atom_type_scat_source
C C 0.0033 0.0016 'International Tables Vol C Tables 4.2.6.8 and 6.1.1.4'
H H 0.0000 0.0000 'International Tables Vol C Tables 4.2.6.8 and 6.1.1.4'
N N 0.0061 0.0033 'International Tables Vol C Tables 4.2.6.8 and 6.1.1.4'
O O 0.0106 0.0060 'International Tables Vol C Tables 4.2.6.8 and 6.1.1.4'
loop_
_geom_angle_atom_site_label_1
_geom_angle_atom_site_label_2
_geom_angle_atom_site_label_3
_geom_angle
C12 O2 C13 115.9(6)
O2 C13 H13A 109.5
O2 C13 H13B 109.5
O2 C13 H13C 109.5
H13A C13 H13B 109.5
H13A C13 H13C 109.5
H13B C13 H13C 109.5
O1 C12 O2 123.2(6)
O1 C12 C11 123.9(6)
O2 C12 C11 112.9(5)
C12 C11 H11 118.3
C10 C11 C12 123.3(6)
C10 C11 H11 118.3
C11 C10 H10 117.1
C11 C10 C8 125.8(5)
C8 C10 H10 117.1
C7 C8 C10 129.7(5)
N1 C8 C10 120.5(4)
N1 C8 C7 109.8(4)
C8 C7 C5 106.4(5)
C8 C7 C14 128.9(5)
C5 C7 C14 124.7(5)
C4 C5 C7 134.9(6)
C6 C5 C7 107.4(5)
C6 C5 C4 117.7(6)
C5 C4 H4 120.4
C3 C4 C5 119.2(7)
C3 C4 H4 120.4
C4 C3 H3 119.5
C4 C3 C2 120.9(6)
C2 C3 H3 119.5
C5 C6 N1 108.6(5)
C5 C6 C1 124.0(5)
N1 C6 C1 127.4(6)
C8 N1 C6 107.8(4)
C8 N1 C9 129.1(5)
C6 N1 C9 122.7(5)
N1 C9 H9A 109.5
N1 C9 H9B 109.5
N1 C9 H9C 109.5
H9A C9 H9B 109.5
H9A C9 H9C 109.5
H9B C9 H9C 109.5
C6 C1 H1 122.3
C2 C1 C6 115.3(7)
C2 C1 H1 122.3
C3 C2 H2 118.6
C1 C2 C3 122.8(6)
C1 C2 H2 118.6
O3 C14 C7 120.6(5)
O3 C14 C15 118.8(5)
C7 C14 C15 120.6(5)
C14 C15 H15A 109.5
C14 C15 H15B 109.5
C14 C15 H15C 109.5
H15A C15 H15B 109.5
H15A C15 H15C 109.5
H15B C15 H15C 109.5
loop_
_geom_bond_atom_site_label_1
_geom_bond_atom_site_label_2
_geom_bond_distance
O1 C12 1.200(8)
O3 C14 1.214(7)
O2 C13 1.441(8)
O2 C12 1.333(8)
C13 H13A 0.9600
C13 H13B 0.9600
C13 H13C 0.9600
C12 C11 1.472(8)
C11 H11 0.9300
C11 C10 1.305(8)
C10 H10 0.9300
C10 C8 1.473(7)
C8 C7 1.384(7)
C8 N1 1.382(7)
C7 C5 1.435(7)
C7 C14 1.466(8)
C5 C4 1.399(8)
C5 C6 1.388(8)
C4 H4 0.9300
C4 C3 1.375(10)
C3 H3 0.9300
C3 C2 1.376(12)
C6 N1 1.392(7)
C6 C1 1.403(8)
N1 C9 1.447(8)
C9 H9A 0.9600
C9 H9B 0.9600
C9 H9C 0.9600
C1 H1 0.9300
C1 C2 1.366(10)
C2 H2 0.9300
C14 C15 1.503(8)
C15 H15A 0.9600
C15 H15B 0.9600
C15 H15C 0.9600
loop_
_geom_torsion_atom_site_label_1
_geom_torsion_atom_site_label_2
_geom_torsion_atom_site_label_3
_geom_torsion_atom_site_label_4
_geom_torsion
O1 C12 C11 C10 162.5(7)
O2 C12 C11 C10 -15.3(9)
C13 O2 C12 O1 0.9(10)
C13 O2 C12 C11 178.8(7)
C12 C11 C10 C8 -179.4(5)
C11 C10 C8 C7 131.4(7)
C11 C10 C8 N1 -51.3(8)
C10 C8 C7 C5 176.3(5)
C10 C8 C7 C14 -4.7(9)
C10 C8 N1 C6 -176.1(4)
C10 C8 N1 C9 -4.2(8)
C8 C7 C5 C4 -179.7(6)
C8 C7 C5 C6 0.3(5)
C8 C7 C14 O3 177.4(5)
C8 C7 C14 C15 -4.6(9)
C7 C8 N1 C6 1.7(5)
C7 C8 N1 C9 173.6(5)
C7 C5 C4 C3 177.7(6)
C7 C5 C6 N1 0.7(6)
C7 C5 C6 C1 -179.0(5)
C5 C7 C14 O3 -3.8(9)
C5 C7 C14 C15 174.3(5)
C5 C4 C3 C2 2.5(9)
C5 C6 N1 C8 -1.5(6)
C5 C6 N1 C9 -174.0(5)
C5 C6 C1 C2 0.2(8)
C4 C5 C6 N1 -179.3(4)
C4 C5 C6 C1 1.0(8)
C4 C3 C2 C1 -1.4(10)
C6 C5 C4 C3 -2.3(8)
C6 C1 C2 C3 0.0(9)
N1 C8 C7 C5 -1.3(5)
N1 C8 C7 C14 177.7(5)
N1 C6 C1 C2 -179.5(5)
C1 C6 N1 C8 178.3(5)
C1 C6 N1 C9 5.8(9)
C14 C7 C5 C4 1.2(9)
C14 C7 C5 C6 -178.7(5)
loop_
_refln_index_h
_refln_index_k
_refln_index_l
_refln_F_squared_meas
_refln_F_squared_sigma
_refln_scale_group_code
-1 0 1 1167 73 -2
1 0 0 1167 73 1
-2 0 2 577786 17787 -2
2 0 0 577786 17787 1
-3 0 3 72574 2535 -2
3 0 0 72574 2535 1
-4 0 4 38575 1368 -2
4 0 0 38575 1368 1
-5 0 5 1193 72 -2
5 0 0 1193 72 1
-6 0 6 22 29 -2
6 0 0 22 29 1
-7 0 7 479 57 -2
7 0 0 479 57 1
8 0 0 198 44 1
9 0 0 7 49 1
9 -1 -8 43 50 -2
-9 1 0 43 50 1
8 -1 -7 653 107 -2
-8 1 0 653 107 1
7 -1 -6 3 35 -2
-7 1 0 3 35 1
6 -1 -5 0 29 -2
-6 1 0 0 29 1
5 -1 -4 10231 390 -2
-5 1 0 10231 390 1
4 -1 -3 18536 670 -2
-4 1 0 18536 670 1
3 -1 -2 5731 221 -2
-3 1 0 5731 221 1
2 -1 -1 310704 7418 -2
-2 1 0 310704 7418 1
1 -1 0 4094 130 -2
-1 1 0 4094 130 1
0 -1 1 22195 600 -2
0 1 0 22195 600 1
-1 -1 2 88346 2768 -2
1 1 0 88346 2768 1
-2 -1 3 135 22 -2
2 1 0 135 22 1
3 1 -4 6722 379 -2
-3 -1 0 6722 379 1
-4 -1 5 2323 143 -2
4 1 0 2323 143 1
5 1 0 1678 91 1
6 1 0 1159 85 1
7 1 0 908 82 1
8 1 0 154 51 1
9 1 0 72 47 1
9 -2 -7 73 60 -2
-9 2 0 73 60 1
8 -2 -6 461 77 -2
-8 2 0 461 77 1
7 -2 -5 327 64 -2
-7 2 0 327 64 1
6 -2 -4 195 46 -2
-6 2 0 195 46 1
5 -2 -3 445 52 -2
-5 2 0 445 52 1
4 -2 -2 989 57 -2
-4 2 0 989 57 1
3 -2 -1 3975 167 -2
-3 2 0 3975 167 1
2 -2 0 3630 113 -2
-2 2 0 3630 113 1
-1 2 -1 10289 738 -2
1 -2 0 10289 738 1
2 2 0 4273 166 1
3 2 0 57 30 1
4 2 0 7964 370 1
5 2 0 3 26 1
6 2 0 11 33 1
7 2 0 373 59 1
8 2 0 165 52 1
-9 -2 0 88 63 1
10 -3 -7 101 130 -2
-10 3 0 101 130 1
9 -3 -6 203 101 -2
-9 3 0 203 101 1
8 -3 -5 415 84 -2
-8 3 0 415 84 1
7 -3 -4 1226 121 -2
-7 3 0 1226 121 1
6 -3 -3 7062 334 -2
-6 3 0 7062 334 1
5 -3 -2 1077 94 -2
-5 3 0 1077 94 1
4 -3 -1 5265 199 -2
-4 3 0 5265 199 1
3 -3 0 12355 465 -2
-3 3 0 12355 465 1
2 -3 1 2359 111 -2
-2 3 0 2359 111 1
0 3 0 68709 1554 1
1 3 0 430 39 1
2 3 0 30754 863 1
3 3 0 1270 79 1
4 3 0 73 40 1
5 3 0 2218 134 1
6 3 0 133 46 1
7 3 0 1 44 1
8 3 0 395 75 1
9 -4 -5 294 115 -2
-9 4 0 294 115 1
8 -4 -4 948 153 -2
-8 4 0 948 153 1
7 -4 -3 6932 348 -2
-7 4 0 6932 348 1
6 -4 -2 590 87 -2
-6 4 0 590 87 1
5 -4 -1 4140 177 -2
-5 4 0 4140 177 1
4 -4 0 16 31 -2
-4 4 0 16 31 1
3 -4 1 37052 1013 -2
-3 4 0 37052 1013 1
2 -4 2 18433 465 -2
-2 4 0 18433 465 1
1 -4 3 9874 235 -2
-1 4 0 9874 235 1
1 4 0 5515 195 1
2 4 0 1068 61 1
3 4 0 6731 233 1
4 4 0 1607 108 1
5 4 0 941 99 1
6 4 0 1809 143 1
7 4 0 481 85 1
-8 -4 0 89 66 1
9 -5 -4 360 128 -2
-9 5 0 360 128 1
8 -5 -3 77 87 -2
-8 5 0 77 87 1
7 -5 -2 188 81 -2
-7 5 0 188 81 1
6 -5 -1 666 93 -2
-6 5 0 666 93 1
5 -5 0 6495 298 -2
-5 5 0 6495 298 1
4 -5 1 472 60 -2
-4 5 0 472 60 1
3 -5 2 3911 158 -2
-3 5 0 3911 158 1
2 -5 3 897 61 -2
-2 5 0 897 61 1
-1 5 0 11244 294 1
0 5 0 6169 191 1
1 5 0 10011 358 1
2 5 0 8273 308 1
3 5 0 5917 250 1
4 5 0 4650 209 1
5 5 0 576 87 1
6 5 0 1365 136 1
7 5 0 77 87 1
9 -6 -3 14 130 -2
-9 6 0 14 130 1
8 -6 -2 640 133 -2
-8 6 0 640 133 1
7 -6 -1 166 87 -2
-7 6 0 166 87 1
6 -6 0 92 81 -2
-6 6 0 92 81 1
5 -6 1 4 70 -2
-5 6 0 4 70 1
4 -6 2 3146 165 -2
-4 6 0 3146 165 1
-3 6 -3 1201 188 -2
3 -6 0 1201 188 1
-2 6 0 684 71 1
-1 6 0 6129 192 1
0 6 0 35 34 1
1 6 0 696 81 1
2 6 0 3369 192 1
3 6 0 2812 173 1
4 6 0 11 46 1
5 6 0 327 95 1
6 6 0 264 105 1
-7 -6 0 236 151 1
-8 7 1 746 193 -2
8 -7 0 746 193 1
7 -7 0 3798 299 -2
-7 7 0 3798 299 1
6 -7 1 1038 152 -2
-6 7 0 1038 152 1
5 -7 2 2098 205 -2
-5 7 0 2098 205 1
-4 7 -3 3155 376 -2
4 -7 0 3155 376 1
-3 7 0 3243 188 1
-1 7 0 6490 275 1
0 7 0 5959 289 1
1 7 0 14505 698 1
2 7 0 152 83 1
3 7 0 2755 217 1
4 7 0 226 93 1
5 7 0 1149 173 1
-6 -7 0 17 116 1
-8 8 0 347 203 -2
8 -8 0 347 203 1
-7 8 -1 1699 264 -2
7 -8 0 1699 264 1
-6 8 -2 1815 265 -2
6 -8 0 1815 265 1
-5 8 -3 163 139 -2
5 -8 0 163 139 1
4 -8 0 1006 190 1
-3 8 0 2793 218 1
-2 8 0 554 105 1
-1 8 0 3772 265 1
0 8 0 29 53 1
1 8 0 414 108 1
2 8 0 40 75 1
3 8 0 307 97 1
4 8 0 75 86 1
-5 -8 0 104 123 1
-7 9 -2 14 203 -2
7 -9 0 14 203 1
6 -9 0 289 217 1
5 -9 0 271 151 1
4 -9 0 134 125 1
-3 9 0 2117 312 1
-2 9 0 553 137 1
-1 9 0 2030 221 1
0 9 0 536 169 1
1 9 0 298 152 1
2 9 0 678 199 1
3 9 0 154 133 1
-4 -9 0 318 260 1
7 -10 0 246 217 1
-3 10 0 387 194 1
-2 10 0 521 177 1
-1 10 0 0 159 1
0 10 0 0 159 1
1 10 0 0 188 1
2 10 0 469 198 1
0 11 0 1100 347 1
1 11 -1 0 232 1
0 11 -1 333 289 1
2 -11 1 130 203 1
-3 -10 1 87 304 1
2 10 -1 130 217 1
1 10 -1 0 174 1
0 10 -1 38 128 1
1 -10 1 250 119 1
2 -10 1 0 128 1
3 -10 1 593 289 1
4 -10 1 0 260 1
5 -10 1 0 188 1
6 -10 1 0 203 1
7 -10 1 232 203 1
-4 -9 1 14 275 1
-3 -9 1 279 149 1
2 9 -1 31 139 1
1 9 -1 1447 256 1
0 9 -1 267 148 1
1 -9 1 3367 266 1
2 -9 1 1910 225 1
3 -9 1 994 205 1
4 -9 1 408 158 1
5 -9 1 1048 226 1
6 -9 1 10 158 1
-7 9 -1 246 217 -2
7 -9 1 246 217 1
-5 -8 1 45 123 1
-4 -8 1 21 78 1
-3 -8 1 438 109 1
-2 -8 1 340 101 1
-1 -8 1 1728 196 1
0 -8 1 1335 160 1
1 -8 1 1813 200 1
2 -8 1 909 123 1
3 -8 1 215 115 1
4 -8 1 970 246 1
-5 8 -2 2831 320 -2
5 -8 1 2831 320 1
-6 8 -1 3016 336 -2
6 -8 1 3016 336 1
-7 8 0 1877 278 -2
7 -8 1 1877 278 1
-8 8 1 970 289 -2
8 -8 1 970 289 1
-6 -7 1 137 125 1
-5 -7 1 303 108 1
-4 -7 1 31 67 1
-3 -7 1 3944 239 1
-2 -7 1 492 110 1
-1 -7 1 4193 270 1
0 -7 1 3425 239 1
1 -7 1 877 95 1
-2 7 -4 6270 248 -2
2 -7 1 6270 248 1
-3 7 -3 4063 226 -2
3 -7 1 4063 226 1
-5 7 -1 5651 341 -2
5 -7 1 5651 341 1
-6 7 0 698 128 -2
6 -7 1 698 128 1
-7 7 1 450 123 -2
7 -7 1 450 123 1
-8 7 2 1372 186 -2
8 -7 1 1372 186 1
-7 -6 1 706 178 1
-6 -6 1 349 105 1
-5 -6 1 5317 325 1
-4 -6 1 1835 143 1
-3 -6 1 5095 236 1
-2 -6 1 2339 155 1
-1 -6 1 8320 268 1
0 -6 1 9029 347 1
1 -6 1 820 57 1
-2 6 -3 7870 259 -2
2 -6 1 7870 259 1
-3 6 -2 3884 271 -2
3 -6 1 3884 271 1
-4 6 -1 330 64 -2
4 -6 1 330 64 1
-5 6 0 82 71 -2
5 -6 1 82 71 1
-6 6 1 3695 254 -2
6 -6 1 3695 254 1
-7 6 2 201 93 -2
7 -6 1 201 93 1
-8 6 3 596 148 -2
8 -6 1 596 148 1
9 -6 -4 203 159 -2
-9 6 -1 203 159 1
-7 -5 1 166 94 1
-6 -5 1 1495 140 1
-5 -5 1 4161 223 1
-4 -5 1 370 64 1
-3 -5 1 8642 272 1
-2 -5 1 2005 114 1
-1 -5 1 31087 808 1
0 -5 1 2102 84 1
-1 5 -3 8480 214 -2
1 -5 1 8480 214 1
-2 5 -2 13099 327 -2
2 -5 1 13099 327 1
-3 5 -1 337 48 -2
3 -5 1 337 48 1
-4 5 0 1733 109 -2
4 -5 1 1733 109 1
-5 5 1 3685 197 -2
5 -5 1 3685 197 1
-6 5 2 1153 118 -2
6 -5 1 1153 118 1
-7 5 3 627 107 -2
7 -5 1 627 107 1
-8 5 4 598 136 -2
8 -5 1 598 136 1
-9 5 5 88 94 -2
9 -5 1 88 94 1
-8 -4 1 82 60 1
-7 -4 1 1090 119 1
-6 -4 1 8 44 1
-5 -4 1 2007 144 1
-4 -4 1 3137 153 1
-3 -4 1 1756 92 1
-2 -4 1 7495 270 1
-1 -4 1 0 12 1
0 4 -3 12424 323 -2
0 -4 1 12424 323 1
-1 4 -2 30786 703 -2
1 -4 1 30786 703 1
-2 4 -1 15773 421 -2
2 -4 1 15773 421 1
-3 4 0 26797 978 -2
3 -4 1 26797 978 1
-4 4 1 14106 541 -2
4 -4 1 14106 541 1
-5 4 2 25345 941 -2
5 -4 1 25345 941 1
-6 4 3 3362 201 -2
6 -4 1 3362 201 1
-7 4 4 1713 155 -2
7 -4 1 1713 155 1
-8 4 5 753 107 -2
8 -4 1 753 107 1
-9 4 6 0 72 -2
9 -4 1 0 72 1
-8 -3 1 33 50 1
-7 -3 1 550 80 1
-6 -3 1 765 88 1
-5 -3 1 43 31 1
-4 -3 1 2297 101 1
-3 -3 1 3556 152 1
2 3 -4 849 64 -2
-2 -3 1 849 64 1
0 3 -2 52109 1130 -2
0 -3 1 52109 1130 1
-1 3 -1 9566 230 -2
1 -3 1 9566 230 1
-2 3 0 3539 112 -2
2 -3 1 3539 112 1
-3 3 1 13957 430 -2
3 -3 1 13957 430 1
-4 3 2 7216 254 -2
4 -3 1 7216 254 1
-5 3 3 3421 162 -2
5 -3 1 3421 162 1
-6 3 4 7853 362 -2
6 -3 1 7853 362 1
-7 3 5 1203 115 -2
7 -3 1 1203 115 1
-8 3 6 1434 135 -2
8 -3 1 1434 135 1
-9 3 7 1231 132 -2
9 -3 1 1231 132 1
-9 -2 1 33 58 1
-8 -2 1 10 44 1
-7 -2 1 127 44 1
-6 -2 1 933 85 1
-5 -2 1 902 84 1
4 2 -5 400 47 -2
-4 -2 1 400 47 1
3 2 -4 33631 1406 -2
-3 -2 1 33631 1406 1
2 2 -3 3553 133 -2
-2 -2 1 3553 133 1
1 2 -2 53190 1265 -2
-1 -2 1 53190 1265 1
0 2 -1 17526 377 -2
0 -2 1 17526 377 1
-1 2 0 76370 1536 -2
1 -2 1 76370 1536 1
-2 2 1 24533 641 -2
2 -2 1 24533 641 1
-3 2 2 29451 1023 -2
3 -2 1 29451 1023 1
-4 2 3 7811 331 -2
4 -2 1 7811 331 1
-5 2 4 1501 97 -2
5 -2 1 1501 97 1
-6 2 5 870 83 -2
6 -2 1 870 83 1
-7 2 6 130 42 -2
7 -2 1 130 42 1
-8 2 7 1552 158 -2
8 -2 1 1552 158 1
-9 2 8 148 59 -2
9 -2 1 148 59 1
-9 -1 1 116 55 1
-8 -1 1 320 63 1
-7 -1 1 47 37 1
6 1 -6 316 47 -2
-6 -1 1 316 47 1
5 1 -5 69 30 -2
-5 -1 1 69 30 1
4 1 -4 14633 542 -2
-4 -1 1 14633 542 1
3 1 -3 796 72 -2
-3 -1 1 796 72 1
2 1 -2 131441 4049 -2
-2 -1 1 131441 4049 1
1 1 -1 208545 5643 -2
-1 -1 1 208545 5643 1
0 1 0 61796 1543 -2
0 -1 1 61796 1543 1
-1 1 1 211519 5045 -2
1 -1 1 211519 5045 1
-2 1 2 78198 2365 -2
2 -1 1 78198 2365 1
-3 1 3 10136 302 -2
3 -1 1 10136 302 1
-4 1 4 18592 669 -2
4 -1 1 18592 669 1
-5 1 5 821 59 -2
5 -1 1 821 59 1
-6 1 6 1822 101 -2
6 -1 1 1822 101 1
-7 1 7 219 47 -2
7 -1 1 219 47 1
-8 1 8 476 74 -2
8 -1 1 476 74 1
-9 1 9 49 46 -2
9 -1 1 49 46 1
9 0 -8 73 51 -2
-9 0 1 73 51 1
8 0 -7 67 44 -2
-8 0 1 67 44 1
7 0 -6 275 48 -2
-7 0 1 275 48 1
6 0 -5 16830 631 -2
-6 0 1 16830 631 1
5 0 -4 4745 202 -2
-5 0 1 4745 202 1
4 0 -3 136855 4741 -2
-4 0 1 136855 4741 1
3 0 -2 71482 2945 -2
-3 0 1 71482 2945 1
2 0 -1 1300994 42268 -2
-2 0 1 1300994 42268 1
1 0 0 965 47 -2
-1 0 1 965 47 1
0 0 1 202051 5352 -2
0 0 1 202051 5352 1
-1 0 2 9349 532 -2
1 0 1 9349 532 1
-2 0 3 38119 1589 -2
2 0 1 38119 1589 1
3 0 -4 44506 2351 -2
-3 0 -1 44506 2351 1
4 0 -5 2754 135 -2
-4 0 -1 2754 135 1
5 0 -6 12706 553 -2
-5 0 -1 12706 553 1
-6 0 7 969 67 -2
6 0 1 969 67 1
7 0 1 383 53 1
8 0 1 143 43 1
9 0 1 10 42 1
10 -1 -8 0 87 -2
-10 1 1 0 87 1
9 -1 -7 14 63 -2
-9 1 1 14 63 1
8 -1 -6 650 96 -2
-8 1 1 650 96 1
7 -1 -5 2967 163 -2
-7 1 1 2967 163 1
6 -1 -4 7582 283 -2
-6 1 1 7582 283 1
5 -1 -3 1171 78 -2
-5 1 1 1171 78 1
4 -1 -2 148241 4736 -2
-4 1 1 148241 4736 1
3 -1 -1 1659 77 -2
-3 1 1 1659 77 1
2 -1 0 243026 6431 -2
-2 1 1 243026 6431 1
1 -1 1 216575 6103 -2
-1 1 1 216575 6103 1
0 -1 2 71620 1947 -2
0 1 1 71620 1947 1
-1 -1 3 43849 2981 -2
1 1 1 43849 2981 1
-2 -1 4 7248 263 -2
2 1 1 7248 263 1
-3 -1 -1 1547 115 1
4 1 1 6303 243 1
5 1 1 29 24 1
6 1 1 236 40 1
7 1 1 700 70 1
8 1 1 25 36 1
9 1 1 374 61 1
10 -2 -7 14 101 -2
-10 2 1 14 101 1
9 -2 -6 407 89 -2
-9 2 1 407 89 1
8 -2 -5 646 100 -2
-8 2 1 646 100 1
7 -2 -4 379 97 -2
-7 2 1 379 97 1
6 -2 -3 6816 399 -2
-6 2 1 6816 399 1
5 -2 -2 3576 200 -2
-5 2 1 3576 200 1
4 -2 -1 702 65 -2
-4 2 1 702 65 1
3 -2 0 5577 202 -2
-3 2 1 5577 202 1
2 -2 1 14902 486 -2
-2 2 1 14902 486 1
1 -2 2 10281 316 -2
-1 2 1 10281 316 1
0 2 1 12623 297 1
-1 -2 -1 5654 337 1
2 2 1 689 56 1
-3 -2 -1 21 29 1
4 2 1 2447 117 1
-5 -2 -1 21 30 1
6 2 1 237 47 1
7 2 1 402 58 1
8 2 1 91 45 1
10 -3 -6 130 145 -2
-10 3 1 130 145 1
9 -3 -5 200 104 -2
-9 3 1 200 104 1
8 -3 -4 2058 178 -2
-8 3 1 2058 178 1
7 -3 -3 1482 142 -2
-7 3 1 1482 142 1
6 -3 -2 6836 329 -2
-6 3 1 6836 329 1
5 -3 -1 3431 159 -2
-5 3 1 3431 159 1
4 -3 0 4467 193 -2
-4 3 1 4467 193 1
3 -3 1 6932 275 -2
-3 3 1 6932 275 1
2 -3 2 11185 306 -2
-2 3 1 11185 306 1
1 -3 -1 8422 622 1
0 3 1 27977 679 1
2 3 1 4061 142 1
-3 -3 -1 36 37 1
4 3 1 1450 105 1
5 3 1 2458 140 1
6 3 1 2048 130 1
7 3 1 39 40 1
8 3 1 77 51 1
10 -4 -5 174 159 -2
-10 4 1 174 159 1
9 -4 -4 543 143 -2
-9 4 1 543 143 1
8 -4 -3 163 96 -2
-8 4 1 163 96 1
7 -4 -2 369 81 -2
-7 4 1 369 81 1
6 -4 -1 283 66 -2
-6 4 1 283 66 1
5 -4 0 2725 158 -2
-5 4 1 2725 158 1
4 -4 1 19201 646 -2
-4 4 1 19201 646 1
-2 4 1 49893 1378 1
-1 4 1 12228 298 1
0 4 1 204 37 1
1 4 1 42788 1522 1
2 4 1 1400 92 1
3 4 1 1875 84 1
4 4 1 5030 234 1
5 4 1 2624 159 1
6 4 1 308 69 1
7 4 1 45 53 1
9 -5 -3 365 132 -2
-9 5 1 365 132 1
8 -5 -2 0 71 -2
-8 5 1 0 71 1
7 -5 -1 3728 257 -2
-7 5 1 3728 257 1
6 -5 0 722 113 -2
-6 5 1 722 113 1
5 -5 1 5486 265 -2
-5 5 1 5486 265 1
3 -5 3 17129 546 -2
-3 5 1 17129 546 1
-2 5 1 521 116 1
-1 5 1 23911 637 1
0 5 1 278 40 1
1 5 1 2808 153 1
2 5 1 4 33 1
3 5 1 580 72 1
4 5 1 1630 134 1
5 5 1 67 51 1
6 5 1 722 105 1
-7 -5 -1 42 69 1
9 -6 -2 521 152 -2
-9 6 1 521 152 1
8 -6 -1 32 87 -2
-8 6 1 32 87 1
7 -6 0 140 90 -2
-7 6 1 140 90 1
6 -6 1 3808 264 -2
-6 6 1 3808 264 1
5 -6 2 369 136 -2
-5 6 1 369 136 1
4 -6 3 729 89 -2
-4 6 1 729 89 1
-3 6 1 2262 125 1
-2 6 1 991 85 1
-1 6 1 56 26 1
0 6 1 6244 216 1
1 6 1 62 52 1
2 6 1 2228 155 1
3 6 1 79 52 1
4 6 1 1346 139 1
5 6 1 29 69 1
6 6 1 235 104 1
-8 7 0 1440 246 -2
8 -7 -1 1440 246 1
-7 7 -1 501 166 -2
7 -7 -1 501 166 1
-6 7 -2 2098 391 -2
6 -7 -1 2098 391 1
-5 7 -3 13499 816 -2
5 -7 -1 13499 816 1
-4 7 1 6653 395 1
-3 7 1 12144 528 1
-2 7 1 16196 588 1
-1 7 1 20430 715 1
0 7 1 406 70 1
1 7 1 6172 354 1
2 7 1 157 72 1
3 7 1 3625 245 1
4 7 1 49 82 1
5 7 1 21 78 1
-8 8 -1 0 188 -2
8 -8 -1 0 188 1
-7 8 -2 100 153 -2
7 -8 -1 100 153 1
-6 8 -3 205 152 -2
6 -8 -1 205 152 1
5 -8 -1 0 125 1
-4 8 1 735 142 1
-3 8 1 176 88 1
-2 8 1 1646 195 1
-1 8 1 64 76 1
0 8 1 130 113 1
1 8 1 820 137 1
2 8 1 45 71 1
3 8 1 37 71 1
4 8 1 133 91 1
-7 9 -3 0 203 -2
7 -9 -1 0 203 1
6 -9 -1 0 174 1
5 -9 -1 31 139 1
-4 9 1 35 136 1
-3 9 1 40 128 1
-2 9 1 856 160 1
-1 9 1 435 158 1
0 9 1 1425 251 1
1 9 1 118 138 1
2 9 1 818 185 1
3 9 1 116 179 1
-4 10 1 58 260 1
3 -10 -1 0 203 1
-1 10 1 0 217 1
0 10 1 535 260 1
1 10 1 29 203 1
-2 -10 -1 0 304 1
1 11 -2 159 246 1
2 -11 2 0 174 1
-3 -10 2 509 206 1
2 10 -2 289 203 1
1 10 -2 1360 376 1
0 10 -2 610 218 1
1 -10 2 2057 242 1
2 -10 2 101 174 1
3 -10 2 29 203 1
4 -10 2 458 177 1
5 -10 2 145 188 1
6 -10 2 29 159 1
7 -10 2 14 217 1
-4 -9 2 27 124 1
3 9 -2 514 184 1
2 9 -2 0 138 1
1 9 -2 1037 225 1
0 -9 2 2298 219 1
1 -9 2 133 95 1
2 -9 2 1273 318 1
3 -9 2 172 112 1
4 -9 2 311 153 1
5 -9 2 0 114 1
6 -9 2 98 138 1
-7 9 0 43 203 -2
7 -9 2 43 203 1
-5 -8 2 241 110 1
-4 -8 2 247 110 1
-3 -8 2 495 115 1
-2 -8 2 9 67 1
-1 -8 2 491 117 1
0 -8 2 829 135 1
1 -8 2 3493 275 1
2 -8 2 3038 268 1
3 -8 2 5817 420 1
4 -8 2 9406 810 1
-5 8 -1 3512 358 -2
5 -8 2 3512 358 1
-6 8 0 3837 356 -2
6 -8 2 3837 356 1
-7 8 1 87 146 -2
7 -8 2 87 146 1
-8 8 2 905 233 -2
8 -8 2 905 233 1
-6 -7 2 223 103 1
-5 -7 2 1398 187 1
-4 -7 2 1579 170 1
-3 -7 2 1230 156 1
-2 -7 2 4219 276 1
-1 -7 2 1895 150 1
1 -7 2 7808 320 1
-2 7 -3 7599 332 -2
2 -7 2 7599 332 1
-3 7 -2 2580 195 -2
3 -7 2 2580 195 1
-4 7 -1 6762 381 -2
4 -7 2 6762 381 1
-5 7 0 557 116 -2
5 -7 2 557 116 1
-6 7 1 4313 286 -2
6 -7 2 4313 286 1
-7 7 2 1679 376 -2
7 -7 2 1679 376 1
-8 7 3 1127 183 -2
8 -7 2 1127 183 1
9 -7 -4 72 159 -2
-9 7 -2 72 159 1
-7 -6 2 1378 249 1
-6 -6 2 377 107 1
-5 -6 2 727 114 1
-4 -6 2 218 64 1
-3 -6 2 11 52 1
-2 -6 2 467 81 1
-1 -6 2 339 35 1
0 6 -4 1012 67 -2
0 -6 2 1012 67 1
-1 6 -3 2486 104 -2
1 -6 2 2486 104 1
-2 6 -2 1603 97 -2
2 -6 2 1603 97 1
-3 6 -1 16491 520 -2
3 -6 2 16491 520 1
-4 6 0 443 115 -2
4 -6 2 443 115 1
-5 6 1 2165 162 -2
5 -6 2 2165 162 1
-6 6 2 971 163 -2
6 -6 2 971 163 1
-7 6 3 182 86 -2
7 -6 2 182 86 1
-8 6 4 609 148 -2
8 -6 2 609 148 1
9 -6 -5 159 159 -2
-9 6 -2 159 159 1
-8 -5 2 200 134 1
-7 -5 2 405 114 1
-6 -5 2 11 54 1
-5 -5 2 494 76 1
-4 -5 2 46 44 1
-3 -5 2 4099 178 1
-2 -5 2 792 75 1
1 5 -4 1466 66 -2
-1 -5 2 1466 66 1
0 5 -3 650 50 -2
0 -5 2 650 50 1
-1 5 -2 46 23 -2
1 -5 2 46 23 1
-2 5 -1 5938 251 -2
2 -5 2 5938 251 1
-3 5 0 3210 133 -2
3 -5 2 3210 133 1
-4 5 1 5603 207 -2
4 -5 2 5603 207 1
-5 5 2 760 90 -2
5 -5 2 760 90 1
-6 5 3 10943 448 -2
6 -5 2 10943 448 1
-7 5 4 1221 153 -2
7 -5 2 1221 153 1
-8 5 5 1187 179 -2
8 -5 2 1187 179 1
9 -5 -6 449 174 -2
-9 5 -2 449 174 1
-8 -4 2 24 74 1
-7 -4 2 247 71 1
-6 -4 2 1118 114 1
-5 -4 2 1942 128 1
-4 -4 2 447 62 1
3 4 -5 3102 162 -2
-3 -4 2 3102 162 1
2 4 -4 3800 185 -2
-2 -4 2 3800 185 1
1 4 -3 34423 880 -2
-1 -4 2 34423 880 1
0 4 -2 7 16 -2
0 -4 2 7 16 1
-1 4 -1 41226 987 -2
1 -4 2 41226 987 1
-3 4 1 14197 403 -2
3 -4 2 14197 403 1
-4 4 2 335 44 -2
4 -4 2 335 44 1
-5 4 3 1733 114 -2
5 -4 2 1733 114 1
-6 4 4 2106 147 -2
6 -4 2 2106 147 1
-7 4 5 2455 172 -2
7 -4 2 2455 172 1
-8 4 6 24 56 -2
8 -4 2 24 56 1
-9 4 7 1057 160 -2
9 -4 2 1057 160 1
-9 -3 2 109 92 1
-8 -3 2 87 59 1
-7 -3 2 103 52 1
-6 -3 2 349 63 1
-5 -3 2 69 36 1
4 3 -5 1117 82 -2
-4 -3 2 1117 82 1
3 3 -4 548 51 -2
-3 -3 2 548 51 1
2 3 -3 6256 210 -2
-2 -3 2 6256 210 1
1 3 -2 5913 170 -2
-1 -3 2 5913 170 1
-1 3 0 6668 145 -2
1 -3 2 6668 145 1
-2 3 1 7061 243 -2
2 -3 2 7061 243 1
3 -3 -2 20525 843 -2
-3 3 -2 20525 843 1
-4 3 3 15672 510 -2
4 -3 2 15672 510 1
-5 3 4 1983 125 -2
5 -3 2 1983 125 1
-6 3 5 3024 173 -2
6 -3 2 3024 173 1
-7 3 6 4802 248 -2
7 -3 2 4802 248 1
-8 3 7 905 103 -2
8 -3 2 905 103 1
-9 3 8 352 78 -2
9 -3 2 352 78 1
-9 -2 2 0 66 1
-8 -2 2 294 68 1
-7 -2 2 5 34 1
6 2 -6 174 45 -2
-6 -2 2 174 45 1
5 2 -5 3627 142 -2
-5 -2 2 3627 142 1
4 2 -4 14748 459 -2
-4 -2 2 14748 459 1
3 2 -3 1302 203 -2
-3 -2 2 1302 203 1
2 2 -2 46737 1460 -2
-2 -2 2 46737 1460 1
1 2 -1 69052 1768 -2
-1 -2 2 69052 1768 1
0 2 0 301682 7721 -2
0 -2 2 301682 7721 1
-1 2 1 13740 298 -2
1 -2 2 13740 298 1
-2 2 2 1051 64 -2
2 -2 2 1051 64 1
-3 2 3 4084 148 -2
3 -2 2 4084 148 1
-4 2 4 1487 71 -2
4 -2 2 1487 71 1
-5 2 5 4465 206 -2
5 -2 2 4465 206 1
-6 2 6 3162 164 -2
6 -2 2 3162 164 1
-7 2 7 37 38 -2
7 -2 2 37 38 1
-8 2 8 347 63 -2
8 -2 2 347 63 1
-9 2 9 55 48 -2
9 -2 2 55 48 1
-9 -1 2 50 52 1
8 1 -7 330 66 -2
-8 -1 2 330 66 1
7 1 -6 341 57 -2
-7 -1 2 341 57 1
6 1 -5 3826 181 -2
-6 -1 2 3826 181 1
5 1 -4 1155 70 -2
-5 -1 2 1155 70 1
4 1 -3 36991 1207 -2
-4 -1 2 36991 1207 1
3 1 -2 5278 214 -2
-3 -1 2 5278 214 1
-2 -1 1 24920 2012 -2
2 1 -2 24920 2012 1
1 1 0 57162 2233 -2
-1 -1 2 57162 2233 1
-1 1 2 77952 1666 -2
1 -1 2 77952 1666 1
2 -1 -3 26876 1121 -2
-2 1 -2 26876 1121 1
3 -1 -4 1158 65 -2
-3 1 -2 1158 65 1
-4 1 5 125 15 -2
4 -1 2 125 15 1
-5 1 6 308 33 -2
5 -1 2 308 33 1
-6 1 7 3538 188 -2
6 -1 2 3538 188 1
-7 1 8 192 40 -2
7 -1 2 192 40 1
-8 1 9 491 64 -2
8 -1 2 491 64 1
9 -1 2 143 54 1
10 0 -8 29 101 -2
-10 0 2 29 101 1
9 0 -7 100 62 -2
-9 0 2 100 62 1
8 0 -6 4947 239 -2
-8 0 2 4947 239 1
7 0 -5 244 54 -2
-7 0 2 244 54 1
6 0 -4 34948 1264 -2
-6 0 2 34948 1264 1
5 0 -3 29592 966 -2
-5 0 2 29592 966 1
4 0 -2 106696 3734 -2
-4 0 2 106696 3734 1
3 0 -1 83435 2408 -2
-3 0 2 83435 2408 1
2 0 0 380701 10129 -2
-2 0 2 380701 10129 1
1 0 1 10863 279 -2
-1 0 2 10863 279 1
0 0 2 17401 421 -2
0 0 2 17401 421 1
-1 0 3 23890 821 -2
1 0 2 23890 821 1
2 0 -4 2123 163 -2
-2 0 -2 2123 163 1
4 0 -6 1993 204 -2
-4 0 -2 1993 204 1
-5 0 -2 1841 101 1
6 0 2 129 27 1
7 0 2 781 65 1
8 0 2 154 43 1
9 0 2 246 56 1
10 -1 -7 1635 275 -2
-10 1 2 1635 275 1
9 -1 -6 3 76 -2
-9 1 2 3 76 1
8 -1 -5 9378 440 -2
-8 1 2 9378 440 1
7 -1 -4 6505 317 -2
-7 1 2 6505 317 1
6 -1 -3 36322 1305 -2
-6 1 2 36322 1305 1
5 -1 -2 12253 425 -2
-5 1 2 12253 425 1
4 -1 -1 106096 3413 -2
-4 1 2 106096 3413 1
3 -1 0 7952 252 -2
-3 1 2 7952 252 1
2 -1 1 65588 1573 -2
-2 1 2 65588 1573 1
1 -1 2 107254 2437 -2
-1 1 2 107254 2437 1
0 -1 3 41805 1061 -2
0 1 2 41805 1061 1
1 1 2 2134 88 1
-2 -1 -2 26955 959 1
-4 -1 -2 5729 291 1
5 1 2 1270 67 1
6 1 2 73 29 1
7 1 2 275 45 1
8 1 2 128 44 1
10 -2 -6 43 116 -2
-10 2 2 43 116 1
9 -2 -5 49 90 -2
-9 2 2 49 90 1
8 -2 -4 641 104 -2
-8 2 2 641 104 1
7 -2 -3 2834 224 -2
-7 2 2 2834 224 1
6 -2 -2 4725 250 -2
-6 2 2 4725 250 1
5 -2 -1 3363 181 -2
-5 2 2 3363 181 1
4 -2 0 959 99 -2
-4 2 2 959 99 1
3 -2 1 39532 1177 -2
-3 2 2 39532 1177 1
2 -2 2 1522 57 -2
-2 2 2 1522 57 1
1 -2 3 59408 1891 -2
-1 2 2 59408 1891 1
1 2 2 13769 361 1
2 2 2 297 30 1
-3 -2 -2 260 45 1
-4 -2 -2 267 49 1
5 2 2 838 81 1
6 2 2 406 53 1
7 2 2 654 67 1
8 2 2 33 39 1
10 -3 -5 0 130 -2
-10 3 2 0 130 1
9 -3 -4 84 94 -2
-9 3 2 84 94 1
8 -3 -3 300 111 -2
-8 3 2 300 111 1
7 -3 -2 2282 188 -2
-7 3 2 2282 188 1
6 -3 -1 7078 345 -2
-6 3 2 7078 345 1
5 -3 0 1756 133 -2
-5 3 2 1756 133 1
4 -3 1 7607 257 -2
-4 3 2 7607 257 1
3 -3 2 39585 1314 -2
-3 3 2 39585 1314 1
2 -3 3 23959 805 -2
-2 3 2 23959 805 1
-1 3 2 7236 455 1
0 3 2 94519 2447 1
1 3 2 1930 81 1
2 3 2 34064 938 1
3 3 2 9535 369 1
-4 -3 -2 5594 281 1
5 3 2 20 35 1
6 3 2 0 36 1
7 3 2 27 40 1
-8 -3 -2 27 53 1
10 -4 -4 347 159 -2
-10 4 2 347 159 1
9 -4 -3 145 113 -2
-9 4 2 145 113 1
8 -4 -2 101 92 -2
-8 4 2 101 92 1
7 -4 -1 779 125 -2
-7 4 2 779 125 1
6 -4 0 872 103 -2
-6 4 2 872 103 1
5 -4 1 18636 717 -2
-5 4 2 18636 717 1
4 -4 2 1085 80 -2
-4 4 2 1085 80 1
3 -4 3 1433 119 -2
-3 4 2 1433 119 1
-2 4 2 9993 302 1
-1 4 2 3109 118 1
0 4 2 85 19 1
1 4 2 4994 218 1
2 4 2 35 32 1
3 4 2 2433 126 1
4 4 2 6330 280 1
5 4 2 57 46 1
6 4 2 874 99 1
7 4 2 7 48 1
9 -5 -2 628 167 -2
-9 5 2 628 167 1
8 -5 -1 33 79 -2
-8 5 2 33 79 1
7 -5 0 100 79 -2
-7 5 2 100 79 1
6 -5 1 414 101 -2
-6 5 2 414 101 1
5 -5 2 946 110 -2
-5 5 2 946 110 1
4 -5 3 2171 260 -2
-4 5 2 2171 260 1
-3 5 2 10817 363 1
-1 5 2 3547 116 1
0 5 2 3374 124 1
1 5 2 14919 579 1
2 5 2 2091 148 1
3 5 2 561 71 1
4 5 2 5 50 1
5 5 2 940 109 1
6 5 2 221 71 1
-7 -5 -2 7 69 1
-9 6 1 868 212 -2
9 -6 -2 868 212 1
-8 6 0 222 144 -2
8 -6 -2 222 144 1
7 -6 1 94 95 -2
-7 6 2 94 95 1
6 -6 2 1807 191 -2
-6 6 2 1807 191 1
5 -6 3 2462 205 -2
-5 6 2 2462 205 1
-4 6 2 5728 339 1
-3 6 2 6348 270 1
-2 6 2 2843 143 1
-1 6 2 8116 245 1
0 6 2 4285 259 1
1 6 2 251 72 1
2 6 2 2039 150 1
3 6 2 1170 113 1
4 6 2 1197 127 1
5 6 2 1019 150 1
-6 -6 -2 7 109 1
-8 7 -1 660 195 -2
8 -7 -2 660 195 1
-7 7 -2 3064 340 -2
7 -7 -2 3064 340 1
-6 7 -3 2338 274 -2
6 -7 -2 2338 274 1
-5 7 2 7291 432 1
-4 7 2 1880 175 1
-3 7 2 18947 772 1
-2 7 2 161 81 1
-1 7 2 15902 654 1
0 7 2 158 73 1
1 7 2 3616 249 1
2 7 2 18 56 1
3 7 2 98 73 1
4 7 2 82 85 1
-5 -7 -2 162 129 1
-8 8 -2 883 275 -2
8 -8 -2 883 275 1
-7 8 -3 289 203 -2
7 -8 -2 289 203 1
6 -8 -2 1584 261 1
-5 8 2 1401 202 1
-4 8 2 696 140 1
-3 8 2 246 111 1
-2 8 2 1356 178 1
-1 8 2 360 91 1
0 8 2 0 94 1
1 8 2 99 81 1
2 8 2 0 64 1
3 8 2 47 85 1
-4 -8 -2 54 115 1
7 -9 -2 275 246 1
6 -9 -2 87 217 1
-5 9 2 248 198 1
-4 9 2 239 153 1
-3 9 2 0 117 1
-2 9 2 46 91 1
-1 9 2 349 173 1
0 9 2 65 123 1
1 9 2 65 110 1
2 9 2 35 120 1
-3 -9 -2 130 232 1
-5 10 2 0 275 1
3 -10 -2 14 188 1
-1 10 2 72 217 1
0 10 2 0 174 1
1 10 2 0 158 1
2 11 -3 87 246 1
1 11 -3 29 246 1
1 -11 3 217 203 1
2 -11 3 232 203 1
3 10 -3 738 304 1
2 10 -3 116 203 1
1 10 -3 862 239 1
0 10 -3 246 203 1
1 -10 3 0 145 1
2 -10 3 130 188 1
3 -10 3 0 188 1
4 -10 3 258 170 1
5 -10 3 159 174 1
6 -10 3 14 159 1
-5 -9 3 0 174 1
-4 -9 3 45 125 1
3 9 -3 70 147 1
2 9 -3 704 205 1
1 9 -3 75 132 1
0 -9 3 0 80 1
1 -9 3 67 101 1
2 -9 3 260 188 1
3 -9 3 129 118 1
4 -9 3 701 189 1
5 -9 3 107 128 1
6 -9 3 202 152 1
-7 9 1 0 159 -2
7 -9 3 0 159 1
-6 -8 3 11 126 1
-5 -8 3 46 88 1
-4 -8 3 85 81 1
-3 -8 3 44 77 1
-2 -8 3 1087 154 1
-1 -8 3 2259 182 1
0 -8 3 6206 380 1
1 -8 3 866 120 1
2 -8 3 9955 484 1
4 -8 3 4096 348 1
-5 8 0 152 102 -2
5 -8 3 152 102 1
-6 8 1 1244 189 -2
6 -8 3 1244 189 1
-7 8 2 136 149 -2
7 -8 3 136 149 1
-7 -7 3 168 144 1
-6 -7 3 789 152 1
-5 -7 3 820 133 1
-4 -7 3 234 83 1
-3 -7 3 261 88 1
-2 -7 3 398 92 1
-1 -7 3 807 79 1
0 -7 3 12629 429 1
1 -7 3 790 91 1
-2 7 -2 8786 374 -2
2 -7 3 8786 374 1
-3 7 -1 211 74 -2
3 -7 3 211 74 1
-4 7 0 6871 330 -2
4 -7 3 6871 330 1
-5 7 1 4747 478 -2
5 -7 3 4747 478 1
-6 7 2 3784 264 -2
6 -7 3 3784 264 1
-7 7 3 547 120 -2
7 -7 3 547 120 1
-8 7 4 1793 240 -2
8 -7 3 1793 240 1
-7 -6 3 0 81 1
-6 -6 3 106 94 1
-5 -6 3 1399 154 1
-4 -6 3 155 65 1
-3 -6 3 2317 167 1
-2 -6 3 55 24 1
-1 -6 3 238 42 1
0 6 -3 63 34 -2
0 -6 3 63 34 1
-1 6 -2 18866 541 -2
1 -6 3 18866 541 1
-2 6 -1 3583 169 -2
2 -6 3 3583 169 1
-3 6 0 5801 218 -2
3 -6 3 5801 218 1
-4 6 1 1929 139 -2
4 -6 3 1929 139 1
-5 6 2 3967 215 -2
5 -6 3 3967 215 1
-6 6 3 5303 312 -2
6 -6 3 5303 312 1
-7 6 4 27 80 -2
7 -6 3 27 80 1
-8 6 5 110 97 -2
8 -6 3 110 97 1
9 -6 -6 478 159 -2
-9 6 -3 478 159 1
-8 -5 3 0 94 1
-7 -5 3 29 82 1
-6 -5 3 58 70 1
-5 -5 3 318 63 1
-4 -5 3 333 63 1
3 5 -5 822 96 -2
-3 -5 3 822 96 1
2 5 -4 358 45 -2
-2 -5 3 358 45 1
1 5 -3 9916 303 -2
-1 -5 3 9916 303 1
0 5 -2 4868 164 -2
0 -5 3 4868 164 1
-2 5 0 184 31 -2
2 -5 3 184 31 1
-4 5 2 5740 208 -2
4 -5 3 5740 208 1
-5 5 3 4911 236 -2
5 -5 3 4911 236 1
-6 5 4 36 50 -2
6 -5 3 36 50 1
-7 5 5 298 70 -2
7 -5 3 298 70 1
-8 5 6 149 83 -2
8 -5 3 149 83 1
9 -5 -7 43 116 -2
-9 5 -3 43 116 1
-8 -4 3 394 100 1
-7 -4 3 168 63 1
-6 -4 3 8 46 1
5 4 -6 25 37 -2
-5 -4 3 25 37 1
4 4 -5 163 45 -2
-4 -4 3 163 45 1
3 4 -4 749 80 -2
-3 -4 3 749 80 1
2 4 -3 155 30 -2
-2 -4 3 155 30 1
1 4 -2 27429 763 -2
-1 -4 3 27429 763 1
0 4 -1 1954 74 -2
0 -4 3 1954 74 1
-1 4 0 8660 242 -2
1 -4 3 8660 242 1
2 -4 3 32697 1068 1
-3 4 2 174 30 -2
3 -4 3 174 30 1
-4 4 3 7559 310 -2
4 -4 3 7559 310 1
-5 4 4 9405 343 -2
5 -4 3 9405 343 1
-6 4 5 2347 153 -2
6 -4 3 2347 153 1
-7 4 6 3219 195 -2
7 -4 3 3219 195 1
-8 4 7 257 69 -2
8 -4 3 257 69 1
9 -4 -8 559 117 -2
-9 4 -3 559 117 1
-9 -3 3 42 99 1
-8 -3 3 64 71 1
7 3 -7 13 48 -2
-7 -3 3 13 48 1
6 3 -6 447 71 -2
-6 -3 3 447 71 1
5 3 -5 4709 203 -2
-5 -3 3 4709 203 1
4 3 -4 2802 137 -2
-4 -3 3 2802 137 1
3 3 -3 23665 874 -2
-3 -3 3 23665 874 1
2 3 -2 439 44 -2
-2 -3 3 439 44 1
1 3 -1 44565 1147 -2
-1 -3 3 44565 1147 1
0 -3 3 11421 303 1
1 -3 3 20202 460 1
-2 3 2 39624 1048 -2
2 -3 3 39624 1048 1
-3 3 3 21493 632 -2
3 -3 3 21493 632 1
-4 3 4 5902 214 -2
4 -3 3 5902 214 1
-5 3 5 8990 314 -2
5 -3 3 8990 314 1
-6 3 6 774 86 -2
6 -3 3 774 86 1
-7 3 7 1727 136 -2
7 -3 3 1727 136 1
-8 3 8 727 89 -2
8 -3 3 727 89 1
-9 3 9 411 80 -2
9 -3 3 411 80 1
-9 -2 3 67 71 1
8 2 -7 141 54 -2
-8 -2 3 141 54 1
7 2 -6 593 78 -2
-7 -2 3 593 78 1
6 2 -5 1391 116 -2
-6 -2 3 1391 116 1
5 2 -4 569 68 -2
-5 -2 3 569 68 1
4 2 -3 3188 140 -2
-4 -2 3 3188 140 1
3 2 -2 2908 127 -2
-3 -2 3 2908 127 1
2 2 -1 75172 1909 -2
-2 -2 3 75172 1909 1
1 2 0 258259 6856 -2
-1 -2 3 258259 6856 1
0 -2 3 1358 78 1
-1 2 2 92138 1994 -2
1 -2 3 92138 1994 1
-2 2 3 23743 737 -2
2 -2 3 23743 737 1
-3 2 4 39919 1226 -2
3 -2 3 39919 1226 1
-4 2 5 14009 449 -2
4 -2 3 14009 449 1
-5 2 6 249 35 -2
5 -2 3 249 35 1
-6 2 7 4399 209 -2
6 -2 3 4399 209 1
-7 2 8 3096 161 -2
7 -2 3 3096 161 1
-8 2 9 73 46 -2
8 -2 3 73 46 1
-9 2 10 173 54 -2
9 -2 3 173 54 1
9 1 -7 45 68 -2
-9 -1 3 45 68 1
8 1 -6 1045 110 -2
-8 -1 3 1045 110 1
7 1 -5 1916 133 -2
-7 -1 3 1916 133 1
6 1 -4 3775 186 -2
-6 -1 3 3775 186 1
5 1 -3 1098 107 -2
-5 -1 3 1098 107 1
4 1 -2 21393 1074 -2
-4 -1 3 21393 1074 1
3 1 -1 2445 97 -2
-3 -1 3 2445 97 1
2 1 0 111 19 -2
-2 -1 3 111 19 1
1 1 1 201852 5256 -2
-1 -1 3 201852 5256 1
0 1 2 44175 1038 -2
0 -1 3 44175 1038 1
-1 1 3 62757 1605 -2
1 -1 3 62757 1605 1
-2 1 4 24679 705 -2
2 -1 3 24679 705 1
3 -1 -5 14538 535 -2
-3 1 -3 14538 535 1
4 -1 -6 12118 454 -2
-4 1 -3 12118 454 1
5 -1 -7 2555 124 -2
-5 1 -3 2555 124 1
-6 1 8 65 25 -2
6 -1 3 65 25 1
-7 1 9 654 61 -2
7 -1 3 654 61 1
8 -1 3 471 54 1
9 -1 3 0 38 1
10 0 -7 463 159 -2
-10 0 3 463 159 1
9 0 -6 2512 243 -2
-9 0 3 2512 243 1
8 0 -5 3034 181 -2
-8 0 3 3034 181 1
7 0 -4 12013 481 -2
-7 0 3 12013 481 1
6 0 -3 108 46 -2
-6 0 3 108 46 1
5 0 -2 27784 1008 -2
-5 0 3 27784 1008 1
4 0 -1 92879 3394 -2
-4 0 3 92879 3394 1
3 0 0 54428 1573 -2
-3 0 3 54428 1573 1
2 0 1 25591 746 -2
-2 0 3 25591 746 1
1 0 2 17161 467 -2
-1 0 3 17161 467 1
0 0 3 14689 341 -2
0 0 3 14689 341 1
-1 0 4 25979 818 -2
1 0 3 25979 818 1
2 0 -5 4312 204 -2
-2 0 -3 4312 204 1
3 0 -6 22876 1240 -2
-3 0 -3 22876 1240 1
-4 0 -3 309 90 1
-5 0 -3 2417 391 1
-6 0 -3 347 174 1
7 0 3 1107 123 1
8 0 3 741 109 1
10 -1 -6 3169 376 -2
-10 1 3 3169 376 1
9 -1 -5 709 142 -2
-9 1 3 709 142 1
8 -1 -4 6854 351 -2
-8 1 3 6854 351 1
7 -1 -3 447 83 -2
-7 1 3 447 83 1
6 -1 -2 27483 1128 -2
-6 1 3 27483 1128 1
5 -1 -1 1022 88 -2
-5 1 3 1022 88 1
4 -1 0 26230 1064 -2
-4 1 3 26230 1064 1
3 -1 1 7020 216 -2
-3 1 3 7020 216 1
2 -1 2 31627 814 -2
-2 1 3 31627 814 1
1 -1 3 78699 1920 -2
-1 1 3 78699 1920 1
0 -1 4 21766 556 -2
0 1 3 21766 556 1
1 1 3 63968 2001 1
2 1 3 14044 455 1
-3 -1 -3 3385 144 1
-4 -1 -3 1507 102 1
6 1 3 3539 242 1
7 1 3 606 96 1
8 1 3 31 68 1
10 -2 -5 159 145 -2
-10 2 3 159 145 1
9 -2 -4 87 92 -2
-9 2 3 87 92 1
8 -2 -3 528 133 -2
-8 2 3 528 133 1
7 -2 -2 2133 171 -2
-7 2 3 2133 171 1
6 -2 -1 4109 228 -2
-6 2 3 4109 228 1
5 -2 0 463 75 -2
-5 2 3 463 75 1
4 -2 1 10567 366 -2
-4 2 3 10567 366 1
3 -2 2 3571 120 -2
-3 2 3 3571 120 1
2 -2 3 26314 644 -2
-2 2 3 26314 644 1
-1 2 3 49639 1497 1
0 2 3 6338 167 1
1 2 3 66098 1810 1
2 2 3 1315 83 1
3 2 3 2841 119 1
-4 -2 -3 6825 325 1
-5 -2 -3 4128 215 1
6 2 3 21 29 1
7 2 3 344 51 1
8 2 3 206 89 1
10 -3 -4 72 145 -2
-10 3 3 72 145 1
9 -3 -3 204 118 -2
-9 3 3 204 118 1
8 -3 -2 470 133 -2
-8 3 3 470 133 1
7 -3 -1 885 118 -2
-7 3 3 885 118 1
6 -3 0 5376 284 -2
-6 3 3 5376 284 1
5 -3 1 3559 206 -2
-5 3 3 3559 206 1
4 -3 2 10323 341 -2
-4 3 3 10323 341 1
3 -3 3 14464 446 -2
-3 3 3 14464 446 1
-2 3 3 17856 480 1
-1 3 3 7805 259 1
0 3 3 27603 833 1
1 3 3 1029 70 1
2 3 3 914 52 1
3 3 3 1680 105 1
4 3 3 832 80 1
5 3 3 579 70 1
6 3 3 168 51 1
7 3 3 25 43 1
10 -4 -3 14 145 -2
-10 4 3 14 145 1
9 -4 -2 441 143 -2
-9 4 3 441 143 1
8 -4 -1 99 93 -2
-8 4 3 99 93 1
7 -4 0 6160 354 -2
-7 4 3 6160 354 1
6 -4 1 1944 180 -2
-6 4 3 1944 180 1
5 -4 2 2751 152 -2
-5 4 3 2751 152 1
4 -4 3 8101 313 -2
-4 4 3 8101 313 1
-3 4 3 5416 217 1
-2 4 3 5190 207 1
-1 4 3 4736 151 1
1 4 3 271 38 1
2 4 3 6645 257 1
3 4 3 954 92 1
-4 -4 -3 2251 167 1
5 4 3 152 54 1
6 4 3 2583 165 1
-7 -4 -3 148 67 1
-9 5 1 675 190 -2
9 -5 -3 675 190 1
8 -5 0 203 97 -2
-8 5 3 203 97 1
7 -5 1 1515 180 -2
-7 5 3 1515 180 1
6 -5 2 10084 517 -2
-6 5 3 10084 517 1
5 -5 3 6837 329 -2
-5 5 3 6837 329 1
-4 5 3 7401 271 1
-3 5 3 1614 110 1
-2 5 3 8914 307 1
-1 5 3 20040 507 1
0 5 3 8638 319 1
1 5 3 2541 168 1
2 5 3 1160 116 1
-3 -5 -3 5906 327 1
4 5 3 1830 151 1
5 5 3 280 74 1
6 5 3 8 56 1
-9 6 0 43 174 -2
9 -6 -3 43 174 1
-8 6 -1 605 181 -2
8 -6 -3 605 181 1
-7 6 -2 116 128 -2
7 -6 -3 116 128 1
-6 6 -3 5764 442 -2
6 -6 -3 5764 442 1
-5 6 3 199 123 1
-4 6 3 3454 253 1
-3 6 3 4541 279 1
-2 6 3 16955 684 1
-1 6 3 907 127 1
0 6 3 1778 174 1
1 6 3 9415 423 1
2 6 3 1175 127 1
3 6 3 3040 238 1
4 6 3 119 79 1
5 6 3 881 138 1
-8 7 -2 1548 333 -2
8 -7 -3 1548 333 1
-7 7 -3 650 184 -2
7 -7 -3 650 184 1
6 -7 -3 1390 229 1
-5 7 3 906 155 1
4 -7 -3 3488 492 1
-3 7 3 2724 252 1
-2 7 3 774 153 1
-1 7 3 56 63 1
0 7 3 179 97 1
1 7 3 363 105 1
2 7 3 51 63 1
3 7 3 149 82 1
4 7 3 53 86 1
-5 -7 -3 24 131 1
-8 8 -3 666 260 -2
8 -8 -3 666 260 1
7 -8 -3 1129 318 1
6 -8 -3 185 173 1
-5 8 3 3551 327 1
-4 8 3 147 160 1
-3 8 3 2582 256 1
-2 8 3 46 87 1
-1 8 3 65 113 1
0 8 3 39 107 1
1 8 3 187 81 1
2 8 3 91 73 1
3 8 3 10 84 1
-5 9 3 72 260 1
-4 9 3 0 163 1
-3 9 3 1203 233 1
-2 9 3 254 163 1
-1 9 3 496 189 1
0 9 3 144 118 1
1 9 3 89 149 1
-2 -9 -3 58 246 1
-1 10 3 203 246 1
0 10 3 786 240 1
2 11 -4 376 275 1
1 -11 4 130 217 1
5 -11 4 463 217 1
-4 -10 4 217 289 1
3 10 -4 29 188 1
2 10 -4 43 188 1
1 10 -4 29 232 1
0 -10 4 747 171 1
1 -10 4 232 188 1
2 -10 4 1114 304 1
3 -10 4 29 232 1
4 -10 4 449 177 1
5 -10 4 188 174 1
6 -10 4 0 174 1
-5 -9 4 0 318 1
-4 -9 4 43 155 1
3 9 -4 217 188 1
2 9 -4 14 159 1
-1 -9 4 0 94 1
0 -9 4 126 107 1
1 -9 4 181 123 1
2 -9 4 179 107 1
3 -9 4 749 142 1
4 -9 4 405 142 1
5 -9 4 835 212 1
6 -9 4 0 138 1
7 -9 4 174 188 1
-6 -8 4 43 275 1
-5 -8 4 11 136 1
-4 -8 4 116 106 1
-3 -8 4 522 123 1
2 8 -4 4081 550 1
-1 -8 4 309 125 1
0 -8 4 10389 510 1
1 -8 4 371 95 1
2 -8 4 7656 511 1
3 -8 4 466 122 1
4 -8 4 3409 253 1
5 -8 4 36 82 1
6 -8 4 1367 186 1
7 -8 4 229 109 1
-8 8 -4 87 174 1
-7 -7 4 56 128 1
-6 -7 4 244 105 1
-5 -7 4 378 113 1
-4 -7 4 5140 329 1
-3 -7 4 18 64 1
-2 -7 4 17734 681 1
-1 -7 4 1120 108 1
0 -7 4 13036 532 1
1 -7 4 816 98 1
-2 7 -1 5494 259 -2
2 -7 4 5494 259 1
3 -7 4 52 66 1
4 -7 4 3699 247 1
6 -7 4 1288 167 1
7 -7 4 7 102 1
-8 7 -4 275 145 1
-7 -6 4 500 131 1
-6 -6 4 14 75 1
-5 -6 4 10 75 1
-4 -6 4 187 81 1
-3 -6 4 1909 159 1
-2 -6 4 238 40 1
-1 -6 4 7793 268 1
0 6 -2 1358 86 -2
0 -6 4 1358 86 1
1 -6 4 97 36 1
2 -6 4 5283 173 1
3 -6 4 33 42 1
4 -6 4 11848 489 1
5 -6 4 1466 123 1
6 -6 4 1152 146 1
7 -6 4 3314 276 1
-8 6 6 66 88 -2
8 -6 4 66 88 1
-8 -5 4 163 118 1
-7 -5 4 54 80 1
-6 -5 4 64 71 1
-5 -5 4 603 95 1
-4 -5 4 54 51 1
3 5 -4 1948 147 -2
-3 -5 4 1948 147 1
2 5 -3 1941 104 -2
-2 -5 4 1941 104 1
1 5 -2 655 58 -2
-1 -5 4 655 58 1
0 -5 4 475 46 1
1 -5 4 7542 274 1
2 -5 4 5247 155 1
4 -5 4 4453 213 1
5 -5 4 6649 346 1
6 -5 4 3021 181 1
-7 5 6 422 79 -2
7 -5 4 422 79 1
-8 5 7 1027 132 -2
8 -5 4 1027 132 1
9 -5 -8 260 130 -2
-9 5 -4 260 130 1
-8 -4 4 9 74 1
-7 -4 4 48 74 1
-6 -4 4 168 62 1
5 4 -5 42 42 -2
-5 -4 4 42 42 1
4 4 -4 10210 420 -2
-4 -4 4 10210 420 1
3 4 -3 1557 122 -2
-3 -4 4 1557 122 1
2 4 -2 34773 1048 -2
-2 -4 4 34773 1048 1
-1 -4 4 16191 461 1
0 -4 4 100561 2249 1
1 -4 4 7622 272 1
2 -4 4 895 66 1
3 -4 4 8081 243 1
4 -4 4 813 66 1
-5 4 5 430 52 -2
5 -4 4 430 52 1
-6 4 6 683 82 -2
6 -4 4 683 82 1
-7 4 7 721 96 -2
7 -4 4 721 96 1
-8 4 8 769 102 -2
8 -4 4 769 102 1
9 -4 -9 289 82 -2
-9 4 -4 289 82 1
-9 -3 4 38 104 1
-8 -3 4 0 67 1
7 3 -6 877 103 -2
-7 -3 4 877 103 1
6 3 -5 351 69 -2
-6 -3 4 351 69 1
5 3 -4 5087 239 -2
-5 -3 4 5087 239 1
4 3 -3 2134 129 -2
-4 -3 4 2134 129 1
3 3 -2 219 33 -2
-3 -3 4 219 33 1
2 3 -1 663 53 -2
-2 -3 4 663 53 1
-1 -3 4 3642 113 1
0 -3 4 7642 298 1
1 -3 4 19366 655 1
-3 3 4 14237 524 -2
3 -3 4 14237 524 1
-4 3 5 1240 75 -2
4 -3 4 1240 75 1
-5 3 6 5537 208 -2
5 -3 4 5537 208 1
-6 3 7 1938 118 -2
6 -3 4 1938 118 1
-7 3 8 222 58 -2
7 -3 4 222 58 1
-8 3 9 322 66 -2
8 -3 4 322 66 1
9 -3 -10 372 76 -2
-9 3 -4 372 76 1
9 2 -7 48 73 -2
-9 -2 4 48 73 1
8 2 -6 59 68 -2
-8 -2 4 59 68 1
7 2 -5 64 45 -2
-7 -2 4 64 45 1
6 2 -4 1099 105 -2
-6 -2 4 1099 105 1
5 2 -3 503 70 -2
-5 -2 4 503 70 1
4 2 -2 3256 304 -2
-4 -2 4 3256 304 1
3 2 -1 34280 1021 -2
-3 -2 4 34280 1021 1
-2 -2 4 20549 627 1
-1 -2 4 106353 2838 1
0 -2 4 17912 435 1
1 -2 4 75452 1979 1
-2 2 4 18528 582 -2
2 -2 4 18528 582 1
-3 2 5 5622 195 -2
3 -2 4 5622 195 1
-4 2 6 5475 191 -2
4 -2 4 5475 191 1
-5 2 7 758 53 -2
5 -2 4 758 53 1
-6 2 8 1020 70 -2
6 -2 4 1020 70 1
-7 2 9 623 66 -2
7 -2 4 623 66 1
-8 2 10 594 68 -2
8 -2 4 594 68 1
9 -2 -11 87 72 -2
-9 2 -4 87 72 1
10 1 -7 136 116 -2
-10 -1 4 136 116 1
9 1 -6 164 80 -2
-9 -1 4 164 80 1
8 1 -5 95 64 -2
-8 -1 4 95 64 1
7 1 -4 31 46 -2
-7 -1 4 31 46 1
6 1 -3 4563 216 -2
-6 -1 4 4563 216 1
5 1 -2 742 76 -2
-5 -1 4 742 76 1
4 1 -1 5079 420 -2
-4 -1 4 5079 420 1
3 1 0 9119 273 -2
-3 -1 4 9119 273 1
2 1 1 25024 685 -2
-2 -1 4 25024 685 1
-1 -1 4 5944 177 1
0 1 3 25481 614 -2
0 -1 4 25481 614 1
-1 1 4 40545 1127 -2
1 -1 4 40545 1127 1
-2 1 5 49334 1506 -2
2 -1 4 49334 1506 1
3 -1 -6 28137 1014 -2
-3 1 -4 28137 1014 1
4 -1 -7 1819 93 -2
-4 1 -4 1819 93 1
5 -1 -8 2935 170 -2
-5 1 -4 2935 170 1
6 -1 -9 4298 318 -2
-6 1 -4 4298 318 1
7 -1 4 405 87 1
8 -1 4 1042 145 1
10 0 -6 333 145 -2
-10 0 4 333 145 1
9 0 -5 2927 271 -2
-9 0 4 2927 271 1
8 0 -4 86 77 -2
-8 0 4 86 77 1
7 0 -3 10949 449 -2
-7 0 4 10949 449 1
6 0 -2 21221 930 -2
-6 0 4 21221 930 1
5 0 -1 3245 162 -2
-5 0 4 3245 162 1
4 0 0 26957 977 -2
-4 0 4 26957 977 1
3 0 1 45064 1240 -2
-3 0 4 45064 1240 1
2 0 2 2154 74 -2
-2 0 4 2154 74 1
1 0 3 23450 574 -2
-1 0 4 23450 574 1
0 0 4 26222 627 -2
0 0 4 26222 627 1
-1 0 5 78135 2659 -2
1 0 4 78135 2659 1
-2 0 6 10046 376 -2
2 0 4 10046 376 1
3 0 -7 14131 619 -2
-3 0 -4 14131 619 1
-4 0 -4 3367 274 1
-5 0 -4 1250 204 1
-6 0 -4 101 174 1
-7 0 -4 203 203 1
10 -1 -5 347 159 -2
-10 1 4 347 159 1
9 -1 -4 53 90 -2
-9 1 4 53 90 1
8 -1 -3 4370 449 -2
-8 1 4 4370 449 1
7 -1 -2 5749 303 -2
-7 1 4 5749 303 1
6 -1 -1 5668 290 -2
-6 1 4 5668 290 1
5 -1 0 6879 326 -2
-5 1 4 6879 326 1
4 -1 1 19391 638 -2
-4 1 4 19391 638 1
3 -1 2 1354 69 -2
-3 1 4 1354 69 1
2 -1 3 35903 870 -2
-2 1 4 35903 870 1
1 -1 4 41061 1014 -2
-1 1 4 41061 1014 1
0 -1 5 153587 3865 -2
0 1 4 153587 3865 1
1 1 4 24550 881 1
2 1 4 32872 1039 1
-3 -1 -4 4703 362 1
-4 -1 -4 10404 477 1
-5 -1 -4 1404 304 1
-6 -1 -4 87 159 1
-7 -1 -4 188 188 1
-8 -1 -4 159 246 1
10 -2 -4 116 130 -2
-10 2 4 116 130 1
9 -2 -3 86 90 -2
-9 2 4 86 90 1
8 -2 -2 413 128 -2
-8 2 4 413 128 1
7 -2 -1 428 86 -2
-7 2 4 428 86 1
6 -2 0 327 71 -2
-6 2 4 327 71 1
5 -2 1 1933 115 -2
-5 2 4 1933 115 1
4 -2 2 1253 85 -2
-4 2 4 1253 85 1
3 -2 3 31328 877 -2
-3 2 4 31328 877 1
2 -2 4 16316 412 -2
-2 2 4 16316 412 1
-1 2 4 20827 522 1
0 2 4 3172 102 1
1 2 4 4730 244 1
2 2 4 3092 128 1
3 2 4 15882 526 1
4 2 4 2995 129 1
5 2 4 1548 91 1
6 2 4 730 65 1
7 2 4 318 94 1
10 -3 -3 29 130 -2
-10 3 4 29 130 1
9 -3 -2 174 113 -2
-9 3 4 174 113 1
8 -3 -1 1678 216 -2
-8 3 4 1678 216 1
7 -3 0 1583 204 -2
-7 3 4 1583 204 1
6 -3 1 8333 409 -2
-6 3 4 8333 409 1
5 -3 2 1804 121 -2
-5 3 4 1804 121 1
4 -3 3 7312 287 -2
-4 3 4 7312 287 1
3 -3 4 22521 639 -2
-3 3 4 22521 639 1
-2 3 4 6165 176 1
1 -3 -4 8427 387 1
0 3 4 8486 253 1
1 3 4 4993 165 1
3 3 4 177 41 1
-4 -3 -4 6840 345 1
-5 -3 -4 295 63 1
6 3 4 2866 156 1
7 3 4 268 57 1
9 -4 -1 814 154 -2
-9 4 4 814 154 1
8 -4 0 1418 178 -2
-8 4 4 1418 178 1
7 -4 1 897 138 -2
-7 4 4 897 138 1
6 -4 2 3108 239 -2
-6 4 4 3108 239 1
5 -4 3 9018 401 -2
-5 4 4 9018 401 1
-4 4 4 328 48 1
-3 4 4 1814 95 1
-2 4 4 6829 267 1
-1 4 4 356 46 1
0 4 4 3378 124 1
1 4 4 515 66 1
2 4 4 3995 174 1
-3 -4 -4 448 86 1
-4 -4 -4 3133 211 1
5 4 4 96 49 1
6 4 4 1173 114 1
-9 5 0 282 163 -2
9 -5 -4 282 163 1
-8 5 -1 735 190 -2
8 -5 -4 735 190 1
-7 5 -2 2267 281 -2
7 -5 -4 2267 281 1
6 -5 3 87 73 -2
-6 5 4 87 73 1
-5 5 4 9102 416 1
-4 5 4 251 74 1
-3 5 4 36452 1231 1
-2 5 4 7862 282 1
-1 5 4 12878 525 1
0 5 4 2264 124 1
1 5 4 4587 240 1
2 5 4 3457 200 1
-3 -5 -4 52 60 1
-4 -5 -4 521 108 1
5 5 4 58 60 1
-6 -5 -4 147 78 1
-9 6 -1 463 246 -2
9 -6 -4 463 246 1
-8 6 -2 326 167 -2
8 -6 -4 326 167 1
-7 6 -3 0 110 -2
7 -6 -4 0 110 1
-6 6 4 464 118 1
-5 6 4 5029 428 1
-4 6 4 1580 183 1
-3 6 4 38 77 1
-2 6 4 438 94 1
-1 6 4 6877 364 1
0 6 4 369 99 1
1 6 4 2542 241 1
2 6 4 186 83 1
-3 -6 -4 1059 184 1
4 6 4 137 84 1
-5 -6 -4 217 131 1
-8 7 -3 1100 304 -2
8 -7 -4 1100 304 1
7 -7 -4 42 139 1
-6 7 4 4484 327 1
-5 7 4 105 112 1
-4 7 4 1707 197 1
-3 7 4 3599 336 1
-2 7 4 852 167 1
-1 7 4 2557 291 1
0 7 4 267 96 1
1 7 4 970 157 1
2 7 4 108 82 1
3 7 4 62 86 1
-4 -7 -4 302 147 1
8 -8 -4 58 246 1
7 -8 -4 1331 347 1
-6 8 4 478 246 1
-5 8 4 89 163 1
-4 8 4 109 133 1
-3 8 4 80 123 1
-2 8 4 246 232 1
-1 8 4 87 159 1
0 8 4 73 149 1
1 8 4 165 120 1
2 8 4 256 88 1
-3 -8 -4 198 123 1
4 -9 -4 145 246 1
-2 9 4 14 188 1
-1 9 4 0 203 1
0 9 4 100 158 1
1 9 4 227 169 1
-1 10 4 2959 388 1
2 11 -5 0 232 1
1 -11 5 1548 333 1
-4 -10 5 26 181 1
3 10 -5 0 174 1
2 10 -5 796 304 1
1 10 -5 0 203 1
0 -10 5 174 159 1
1 -10 5 0 159 1
2 -10 5 0 188 1
3 -10 5 0 217 1
4 -10 5 0 260 1
5 -10 5 116 203 1
6 -10 5 58 203 1
-5 -9 5 102 184 1
4 9 -5 29 174 1
3 9 -5 72 174 1
2 9 -5 289 188 1
-1 -9 5 265 125 1
0 -9 5 108 115 1
1 -9 5 311 115 1
2 -9 5 106 99 1
3 -9 5 56 114 1
4 -9 5 379 122 1
5 -9 5 622 177 1
6 -9 5 509 205 1
-6 -8 5 304 289 1
-5 -8 5 101 173 1
4 8 -5 1751 362 1
3 8 -5 87 159 1
-2 -8 5 2893 267 1
-1 -8 5 261 79 1
0 8 -5 2419 228 1
1 -8 5 3450 244 1
2 -8 5 264 112 1
3 -8 5 617 111 1
4 -8 5 166 77 1
5 -8 5 58 83 1
6 -8 5 139 110 1
7 -8 5 283 125 1
-7 -7 5 3 128 1
-6 -7 5 2225 235 1
-5 -7 5 39 79 1
-4 -7 5 6362 440 1
-3 -7 5 116 61 1
-2 -7 5 8554 368 1
-1 -7 5 33 48 1
0 -7 5 9562 361 1
1 -7 5 977 110 1
2 -7 5 15033 604 1
4 -7 5 3321 223 1
5 -7 5 949 128 1
6 -7 5 1558 155 1
7 -7 5 83 104 1
-8 7 -5 174 145 1
-8 -6 5 130 145 1
-7 -6 5 97 87 1
-6 -6 5 683 126 1
-5 -6 5 288 96 1
-4 -6 5 1108 167 1
-3 -6 5 884 99 1
-2 -6 5 4124 170 1
-1 -6 5 647 65 1
0 -6 5 11031 357 1
1 -6 5 597 71 1
2 -6 5 2855 127 1
3 -6 5 4506 224 1
4 -6 5 208 69 1
5 -6 5 7623 312 1
6 -6 5 114 85 1
7 -6 5 4707 343 1
8 -6 5 50 101 1
-8 -5 5 112 105 1
-7 -5 5 356 104 1
-6 -5 5 7 56 1
-5 -5 5 2919 229 1
-4 -5 5 438 85 1
3 5 -3 3384 157 -2
-3 -5 5 3384 157 1
-2 -5 5 48 25 1
-1 -5 5 8761 287 1
0 -5 5 1855 98 1
2 -5 5 12361 426 1
3 -5 5 46 33 1
4 -5 5 2097 153 1
5 -5 5 2650 181 1
6 -5 5 1295 128 1
-7 5 7 1173 127 -2
7 -5 5 1173 127 1
-8 5 8 674 108 -2
8 -5 5 674 108 1
-9 -4 5 10 106 1
-8 -4 5 31 78 1
-7 -4 5 52 74 1
-6 -4 5 3680 244 1
5 4 -4 575 84 -2
-5 -4 5 575 84 1
4 4 -3 11538 524 -2
-4 -4 5 11538 524 1
3 4 -2 468 53 -2
-3 -4 5 468 53 1
-2 -4 5 49133 1605 1
-1 -4 5 2705 125 1
0 -4 5 3327 116 1
1 -4 5 1356 93 1
2 -4 5 6784 212 1
3 -4 5 392 62 1
4 -4 5 61 30 1
5 -4 5 3431 175 1
-6 4 7 2346 145 -2
6 -4 5 2346 145 1
-7 4 8 503 83 -2
7 -4 5 503 83 1
-8 4 9 396 79 -2
8 -4 5 396 79 1
-9 -3 5 51 114 1
-8 -3 5 0 63 1
7 3 -5 864 128 -2
-7 -3 5 864 128 1
6 3 -4 29 49 -2
-6 -3 5 29 49 1
5 3 -3 3764 193 -2
-5 -3 5 3764 193 1
4 3 -2 2186 134 -2
-4 -3 5 2186 134 1
-3 -3 5 14909 469 1
-2 -3 5 9711 345 1
-1 -3 5 84553 2110 1
1 -3 5 9686 335 1
2 -3 5 3858 206 1
3 -3 5 6602 216 1
-4 3 6 3199 136 -2
4 -3 5 3199 136 1
-5 3 7 4902 190 -2
5 -3 5 4902 190 1
-6 3 8 2477 138 -2
6 -3 5 2477 138 1
-7 3 9 1835 125 -2
7 -3 5 1835 125 1
-8 3 10 1476 114 -2
8 -3 5 1476 114 1
9 2 -6 97 79 -2
-9 -2 5 97 79 1
8 2 -5 51 64 -2
-8 -2 5 51 64 1
7 2 -4 631 93 -2
-7 -2 5 631 93 1
6 2 -3 103 48 -2
-6 -2 5 103 48 1
5 2 -2 4443 213 -2
-5 -2 5 4443 213 1
4 2 -1 961 61 -2
-4 -2 5 961 61 1
-3 -2 5 23523 769 1
-2 -2 5 1074 64 1
0 -2 5 4771 164 1
1 -2 5 14115 464 1
-2 2 5 21852 772 -2
2 -2 5 21852 772 1
-3 2 6 1000 59 -2
3 -2 5 1000 59 1
-4 2 7 6018 211 -2
4 -2 5 6018 211 1
-5 2 8 3099 125 -2
5 -2 5 3099 125 1
-6 2 9 1886 93 -2
6 -2 5 1886 93 1
-7 2 10 1831 108 -2
7 -2 5 1831 108 1
-8 2 11 124 48 -2
8 -2 5 124 48 1
10 1 -6 174 130 -2
-10 -1 5 174 130 1
9 1 -5 273 98 -2
-9 -1 5 273 98 1
8 1 -4 1538 167 -2
-8 -1 5 1538 167 1
7 1 -3 866 96 -2
-7 -1 5 866 96 1
6 1 -2 2313 202 -2
-6 -1 5 2313 202 1
5 1 -1 83 43 -2
-5 -1 5 83 43 1
4 1 0 3158 115 -2
-4 -1 5 3158 115 1
-3 -1 5 2725 110 1
-2 -1 5 15366 577 1
-1 -1 5 76501 2050 1
0 1 4 95310 2710 -2
0 -1 5 95310 2710 1
-1 1 5 41736 1121 -2
1 -1 5 41736 1121 1
-2 1 6 12151 440 -2
2 -1 5 12151 440 1
-3 1 7 5409 208 -2
3 -1 5 5409 208 1
-4 1 8 8080 263 -2
4 -1 5 8080 263 1
5 -1 -9 314 55 -2
-5 1 -5 314 55 1
6 -1 -10 260 159 -2
-6 1 -5 260 159 1
10 0 -5 0 101 -2
-10 0 5 0 101 1
9 0 -4 560 128 -2
-9 0 5 560 128 1
8 0 -3 2096 183 -2
-8 0 5 2096 183 1
7 0 -2 244 65 -2
-7 0 5 244 65 1
6 0 -1 9384 452 -2
-6 0 5 9384 452 1
5 0 0 905 82 -2
-5 0 5 905 82 1
4 0 1 2793 114 -2
-4 0 5 2793 114 1
3 0 2 9590 306 -2
-3 0 5 9590 306 1
2 0 3 4865 145 -2
-2 0 5 4865 145 1
1 0 4 71808 1640 -2
-1 0 5 71808 1640 1
0 0 5 2880 86 -2
0 0 5 2880 86 1
-1 0 6 4585 166 -2
1 0 5 4585 166 1
-2 0 7 4102 152 -2
2 0 5 4102 152 1
-3 0 8 2446 99 -2
3 0 5 2446 99 1
-4 0 -5 2125 104 1
-5 0 -5 0 83 1
-6 0 -5 839 260 1
-7 0 -5 318 289 1
10 -1 -4 87 130 -2
-10 1 5 87 130 1
9 -1 -3 209 96 -2
-9 1 5 209 96 1
8 -1 -2 5094 507 -2
-8 1 5 5094 507 1
7 -1 -1 3202 261 -2
-7 1 5 3202 261 1
6 -1 0 81 55 -2
-6 1 5 81 55 1
5 -1 1 703 74 -2
-5 1 5 703 74 1
4 -1 2 190 41 -2
-4 1 5 190 41 1
3 -1 3 10364 328 -2
-3 1 5 10364 328 1
2 -1 4 51505 1308 -2
-2 1 5 51505 1308 1
1 -1 5 31471 741 -2
-1 1 5 31471 741 1
0 -1 6 60876 1554 -2
0 1 5 60876 1554 1
1 1 5 30997 859 1
2 1 5 12088 457 1
-3 -1 -5 11102 510 1
-4 -1 -5 3544 201 1
5 1 5 1395 86 1
-6 -1 -5 130 188 1
-7 -1 -5 58 174 1
10 -2 -3 58 130 -2
-10 2 5 58 130 1
9 -2 -2 58 101 -2
-9 2 5 58 101 1
8 -2 -1 463 128 -2
-8 2 5 463 128 1
7 -2 0 188 92 -2
-7 2 5 188 92 1
6 -2 1 536 94 -2
-6 2 5 536 94 1
5 -2 2 3516 161 -2
-5 2 5 3516 161 1
4 -2 3 19510 614 -2
-4 2 5 19510 614 1
3 -2 4 4811 167 -2
-3 2 5 4811 167 1
2 -2 5 20750 496 -2
-2 2 5 20750 496 1
-1 2 5 7914 214 1
0 2 5 14886 399 1
1 2 5 4332 145 1
2 2 5 809 68 1
3 2 5 181 56 1
4 2 5 2105 108 1
-5 -2 -5 538 73 1
-6 -2 -5 211 56 1
7 2 5 1794 185 1
9 -3 -1 130 113 -2
-9 3 5 130 113 1
8 -3 0 118 107 -2
-8 3 5 118 107 1
7 -3 1 1252 184 -2
-7 3 5 1252 184 1
6 -3 2 3405 196 -2
-6 3 5 3405 196 1
5 -3 3 7515 275 -2
-5 3 5 7515 275 1
4 -3 4 997 80 -2
-4 3 5 997 80 1
-3 3 5 4816 187 1
-2 3 5 8636 297 1
-1 3 5 22922 577 1
0 3 5 6939 235 1
1 3 5 2695 115 1
2 3 5 13556 427 1
-3 -3 -5 3241 172 1
-4 -3 -5 3718 225 1
-5 -3 -5 1615 140 1
6 3 5 401 66 1
-9 4 0 163 163 -2
9 -4 -5 163 163 1
-8 4 -1 1402 239 -2
8 -4 -5 1402 239 1
-7 4 -2 2072 276 -2
7 -4 -5 2072 276 1
6 -4 3 3077 203 -2
-6 4 5 3077 203 1
5 -4 4 1566 150 -2
-5 4 5 1566 150 1
-4 4 5 245 58 1
-3 4 5 694 67 1
-2 4 5 3298 198 1
0 4 5 14425 462 1
1 4 5 2216 124 1
2 4 5 6638 303 1
-3 -4 -5 703 100 1
-4 -4 -5 2044 179 1
-5 -4 -5 40 58 1
6 4 5 27 52 1
-9 5 -1 188 217 -2
9 -5 -5 188 217 1
-8 5 -2 812 214 -2
8 -5 -5 812 214 1
-7 5 -3 793 179 -2
7 -5 -5 793 179 1
-6 5 5 3294 266 1
-5 5 5 4377 295 1
-4 5 5 14944 740 1
-3 5 5 7765 358 1
-2 5 5 20797 1253 1
-1 5 5 1854 156 1
0 -5 -5 8685 440 1
1 5 5 81 55 1
2 5 5 1660 150 1
-3 -5 -5 179 79 1
-4 -5 -5 39 68 1
5 5 5 15 60 1
-9 6 -2 651 275 -2
9 -6 -5 651 275 1
-8 6 -3 72 203 -2
8 -6 -5 72 203 1
7 -6 -5 4715 420 1
-6 6 5 645 149 1
-5 6 5 8882 500 1
-4 6 5 1645 187 1
-3 6 5 12770 844 1
-2 6 5 3932 330 1
-1 6 5 2293 224 1
0 6 5 1819 194 1
1 6 5 101 79 1
-2 -6 -5 183 107 1
-3 -6 -5 31 99 1
4 6 5 1280 178 1
8 -7 -5 1693 362 1
7 -7 -5 637 260 1
-6 7 5 424 133 1
-5 7 5 2573 342 1
-4 7 5 107 131 1
-3 7 5 42 111 1
-2 7 5 72 174 1
-1 7 5 289 146 1
0 7 5 840 149 1
1 7 5 497 122 1
-2 -7 -5 808 174 1
3 7 5 223 117 1
-6 8 5 246 260 1
-5 8 5 375 198 1
-4 8 5 137 143 1
-3 8 5 8 122 1
-2 8 5 2069 449 1
-1 8 5 26 139 1
0 8 5 774 226 1
1 8 5 99 153 1
-2 -8 -5 203 232 1
4 -9 -5 188 260 1
-2 9 5 2373 478 1
-1 9 5 217 177 1
0 9 5 2561 367 1
-1 -9 -5 145 275 1
0 -11 6 289 232 1
4 10 -6 0 232 1
3 10 -6 43 203 1
2 10 -6 666 275 1
-1 -10 6 0 174 1
0 -10 6 174 203 1
1 -10 6 246 203 1
2 -10 6 232 246 1
3 -10 6 205 147 1
-4 10 -6 0 145 1
-5 -9 6 39 166 1
4 9 -6 0 174 1
3 9 -6 333 217 1
2 9 -6 72 159 1
-1 -9 6 148 122 1
0 -9 6 94 113 1
1 -9 6 10 85 1
2 -9 6 133 101 1
3 -9 6 576 169 1
4 -9 6 162 131 1
5 -9 6 488 144 1
6 -9 6 138 169 1
-6 -8 6 1015 240 1
-5 -8 6 183 149 1
4 8 -6 1838 376 1
3 8 -6 0 145 1
-2 -8 6 2098 239 1
-1 -8 6 828 125 1
0 -8 6 143 68 1
1 -8 6 201 110 1
2 -8 6 2628 292 1
3 -8 6 96 81 1
4 -8 6 4339 258 1
5 -8 6 192 102 1
6 -8 6 402 122 1
-7 8 -6 0 159 1
-7 -7 6 0 246 1
-6 -7 6 1474 267 1
-5 -7 6 42 90 1
-4 -7 6 2870 286 1
-3 -7 6 77 55 1
-2 -7 6 2680 169 1
-1 -7 6 1713 132 1
0 -7 6 8161 367 1
-1 7 -6 94 92 1
-2 7 -6 3042 265 1
4 -7 6 5261 279 1
5 -7 6 741 124 1
6 -7 6 2542 250 1
7 -7 6 376 132 1
-8 7 -6 434 188 1
-8 -6 6 159 304 1
-7 -6 6 122 85 1
-6 -6 6 458 111 1
-5 -6 6 27 60 1
-4 -6 6 965 169 1
-3 -6 6 3 52 1
-2 -6 6 6289 285 1
-1 -6 6 3911 178 1
0 -6 6 2269 123 1
1 -6 6 2533 116 1
2 -6 6 2801 166 1
3 -6 6 5649 278 1
4 -6 6 70 51 1
5 -6 6 4956 255 1
6 -6 6 40 76 1
7 -6 6 1018 174 1
-8 6 -6 101 130 1
-8 -5 6 85 102 1
-7 -5 6 420 108 1
-6 -5 6 784 124 1
-5 -5 6 1733 174 1
-4 -5 6 2850 245 1
-3 -5 6 2127 118 1
-2 -5 6 95 41 1
-1 -5 6 407 49 1
0 -5 6 3430 142 1
1 -5 6 264 45 1
2 -5 6 6467 250 1
4 -5 6 9206 385 1
5 -5 6 305 62 1
6 -5 6 3441 199 1
7 -5 6 876 109 1
8 -5 -9 58 80 -2
-8 5 -6 58 80 1
-9 -4 6 0 102 1
-8 -4 6 543 117 1
-7 -4 6 104 79 1
-6 -4 6 1850 184 1
5 4 -3 653 90 -2
-5 -4 6 653 90 1
-4 -4 6 180 40 1
-3 -4 6 1571 100 1
-2 -4 6 9123 303 1
0 -4 6 2737 101 1
1 -4 6 1259 100 1
2 -4 6 5936 208 1
3 -4 6 1049 85 1
4 -4 6 2587 119 1
5 -4 6 140 46 1
-6 4 8 587 80 -2
6 -4 6 587 80 1
-7 4 9 2383 153 -2
7 -4 6 2383 153 1
-8 4 10 355 73 -2
8 -4 6 355 73 1
-9 -3 6 13 102 1
-8 -3 6 64 80 1
7 3 -4 1534 169 -2
-7 -3 6 1534 169 1
6 3 -3 446 96 -2
-6 -3 6 446 96 1
-5 -3 6 1492 128 1
-4 -3 6 447 51 1
-3 -3 6 13842 492 1
-2 -3 6 27673 821 1
-1 -3 6 2303 101 1
0 -3 6 26990 825 1
1 -3 6 15026 489 1
2 -3 6 9080 321 1
3 -3 6 27781 900 1
-4 3 7 41 32 -2
4 -3 6 41 32 1
-5 3 8 6546 244 -2
5 -3 6 6546 244 1
-6 3 9 1571 114 -2
6 -3 6 1571 114 1
-7 3 10 689 80 -2
7 -3 6 689 80 1
-8 3 11 181 57 -2
8 -3 6 181 57 1
9 2 -5 0 82 -2
-9 -2 6 0 82 1
8 2 -4 52 70 -2
-8 -2 6 52 70 1
7 2 -3 63 61 -2
-7 -2 6 63 61 1
6 2 -2 1252 119 -2
-6 -2 6 1252 119 1
-5 -2 6 3863 193 1
-4 -2 6 1141 89 1
-3 -2 6 58 29 1
-2 -2 6 23 22 1
-1 -2 6 45365 1683 1
0 -2 6 3158 103 1
1 -2 6 9400 289 1
-2 2 6 1250 65 -2
2 -2 6 1250 65 1
-3 2 7 6639 264 -2
3 -2 6 6639 264 1
-4 2 8 6362 253 -2
4 -2 6 6362 253 1
-5 2 9 2841 123 -2
5 -2 6 2841 123 1
-6 2 10 5799 285 -2
6 -2 6 5799 285 1
-7 2 11 860 94 -2
7 -2 6 860 94 1
-8 2 12 1042 159 -2
8 -2 6 1042 159 1
10 1 -5 130 130 -2
-10 -1 6 130 130 1
9 1 -4 515 134 -2
-9 -1 6 515 134 1
8 1 -3 130 78 -2
-8 -1 6 130 78 1
7 1 -2 2247 194 -2
-7 -1 6 2247 194 1
6 1 -1 18 42 -2
-6 -1 6 18 42 1
-5 -1 6 508 55 1
-4 -1 6 4578 206 1
-3 -1 6 16121 496 1
-2 -1 6 9587 284 1
-1 -1 6 37491 917 1
0 1 5 43892 1374 -2
0 -1 6 43892 1374 1
-1 1 6 9250 266 -2
1 -1 6 9250 266 1
-2 1 7 7261 281 -2
2 -1 6 7261 281 1
-3 1 8 828 63 -2
3 -1 6 828 63 1
-4 1 9 1295 75 -2
4 -1 6 1295 75 1
-5 1 10 2431 112 -2
5 -1 6 2431 112 1
6 -1 6 554 81 1
10 0 -4 145 145 -2
-10 0 6 145 145 1
9 0 -3 291 111 -2
-9 0 6 291 111 1
8 0 -2 709 159 -2
-8 0 6 709 159 1
7 0 -1 1732 170 -2
-7 0 6 1732 170 1
6 0 0 49 45 -2
-6 0 6 49 45 1
5 0 1 19592 672 -2
-5 0 6 19592 672 1
4 0 2 3099 139 -2
-4 0 6 3099 139 1
3 0 3 34241 1008 -2
-3 0 6 34241 1008 1
2 0 4 15750 397 -2
-2 0 6 15750 397 1
1 0 5 3243 100 -2
-1 0 6 3243 100 1
0 0 6 56497 1652 -2
0 0 6 56497 1652 1
-1 0 7 8352 269 -2
1 0 6 8352 269 1
-2 0 8 2454 108 -2
2 0 6 2454 108 1
3 0 6 3344 138 1
4 0 6 892 57 1
-5 0 -6 3658 210 1
-6 0 -6 839 304 1
9 -1 -2 20 94 -2
-9 1 6 20 94 1
8 -1 -1 195 96 -2
-8 1 6 195 96 1
7 -1 0 13 76 -2
-7 1 6 13 76 1
6 -1 1 2191 186 -2
-6 1 6 2191 186 1
5 -1 2 563 67 -2
-5 1 6 563 67 1
4 -1 3 13553 469 -2
-4 1 6 13553 469 1
3 -1 4 20748 591 -2
-3 1 6 20748 591 1
2 -1 5 14694 432 -2
-2 1 6 14694 432 1
1 -1 6 13361 344 -2
-1 1 6 13361 344 1
0 -1 7 16667 444 -2
0 1 6 16667 444 1
1 1 6 25963 728 1
-2 -1 -6 4942 220 1
3 1 6 7676 276 1
4 1 6 3365 142 1
5 1 6 301 80 1
-6 -1 -6 260 217 1
-7 -1 -6 188 217 1
-9 2 1 145 159 -2
9 -2 -6 145 159 1
8 -2 0 631 142 -2
-8 2 6 631 142 1
7 -2 1 333 113 -2
-7 2 6 333 113 1
6 -2 2 4369 256 -2
-6 2 6 4369 256 1
5 -2 3 412 72 -2
-5 2 6 412 72 1
4 -2 4 5110 219 -2
-4 2 6 5110 219 1
3 -2 5 984 69 -2
-3 2 6 984 69 1
2 -2 6 1857 78 -2
-2 2 6 1857 78 1
-1 2 6 11590 349 1
0 2 6 7433 228 1
1 2 6 8777 319 1
2 2 6 12905 417 1
3 2 6 10110 408 1
-4 -2 -6 445 80 1
-5 -2 -6 6745 334 1
-6 -2 -6 727 107 1
7 2 6 557 118 1
-9 3 0 232 203 -2
9 -3 -6 232 203 1
-8 3 -1 1650 333 -2
8 -3 -6 1650 333 1
7 -3 2 5832 354 -2
-7 3 6 5832 354 1
6 -3 3 775 110 -2
-6 3 6 775 110 1
5 -3 4 7242 342 -2
-5 3 6 7242 342 1
4 -3 5 3790 166 -2
-4 3 6 3790 166 1
-3 3 6 36907 1040 1
-2 3 6 2156 91 1
-1 3 6 1966 113 1
0 3 6 28428 793 1
1 3 6 736 73 1
-3 -3 -6 7848 399 1
-4 -3 -6 933 149 1
-5 -3 -6 646 131 1
6 3 6 425 81 1
-9 4 -1 14 174 -2
9 -4 -6 14 174 1
-8 4 -2 0 110 -2
8 -4 -6 0 110 1
-7 4 -3 3426 341 -2
7 -4 -6 3426 341 1
6 -4 4 1137 163 -2
-6 4 6 1137 163 1
-5 4 6 2569 223 1
-4 4 6 875 119 1
-3 4 6 9282 406 1
-2 4 6 17265 522 1
-1 4 6 271 54 1
0 4 6 1338 115 1
1 4 6 3238 160 1
-2 -4 -6 247 83 1
-3 -4 -6 12 61 1
-4 -4 -6 260 85 1
-5 -4 -6 84 92 1
-9 5 -2 753 289 -2
9 -5 -6 753 289 1
-8 5 -3 99 144 -2
8 -5 -6 99 144 1
-7 5 -4 960 201 -2
7 -5 -6 960 201 1
-6 5 6 433 124 1
-5 5 6 1574 185 1
-4 5 6 5787 355 1
-3 5 6 5355 393 1
-2 5 6 5540 402 1
-1 5 6 892 117 1
0 5 6 3940 264 1
1 5 6 1143 150 1
-2 -5 -6 1360 211 1
-3 -5 -6 87 101 1
-4 -5 -6 747 170 1
-5 -5 -6 210 120 1
-9 6 -3 1751 391 -2
9 -6 -6 1751 391 1
-8 6 -4 58 188 -2
8 -6 -6 58 188 1
7 -6 -6 5468 472 1
-6 6 6 25 103 1
-5 6 6 2320 241 1
-4 6 6 398 138 1
-3 6 6 1076 195 1
-2 6 6 369 128 1
-1 6 6 134 117 1
0 6 6 361 103 1
1 6 6 587 127 1
-2 -6 -6 685 174 1
-3 -6 -6 17 114 1
-4 -6 -6 0 116 1
-6 7 6 349 181 1
-5 7 6 160 152 1
-4 7 6 65 133 1
-3 7 6 978 191 1
-2 7 6 72 128 1
-1 7 6 2291 311 1
0 7 6 591 177 1
1 7 6 632 150 1
-2 -7 -6 0 105 1
-3 -7 -6 505 186 1
-6 8 6 101 260 1
5 -8 -6 0 232 1
4 -8 -6 608 260 1
1 -8 -6 1997 478 1
0 -8 -6 217 203 1
-1 -8 -6 955 362 1
0 -11 7 0 232 1
4 10 -7 116 246 1
3 10 -7 87 203 1
2 10 -7 0 188 1
-1 -10 7 0 188 1
0 -10 7 29 203 1
1 -10 7 738 289 1
2 -10 7 10 106 1
3 -10 7 500 171 1
-4 10 -7 0 159 1
-5 10 -7 72 246 1
-5 -9 7 20 153 1
4 9 -7 72 188 1
3 9 -7 29 174 1
-2 -9 7 98 123 1
-1 -9 7 148 138 1
0 -9 7 773 155 1
1 -9 7 290 106 1
2 -9 7 1007 198 1
3 -9 7 67 104 1
4 -9 7 122 139 1
5 -9 7 60 131 1
6 -9 7 100 170 1
-6 -8 7 396 195 1
-5 -8 7 0 120 1
4 8 -7 43 174 1
3 8 -7 29 145 1
-2 -8 7 580 103 1
-1 -8 7 59 66 1
0 -8 7 2397 217 1
1 -8 7 2012 362 1
2 -8 7 2495 299 1
3 -8 7 892 157 1
4 -8 7 64 91 1
5 -8 7 454 139 1
6 -8 7 219 108 1
-7 8 -7 217 188 1
-7 -7 7 203 304 1
-6 -7 7 853 218 1
-5 -7 7 31 120 1
4 7 -7 1201 289 1
-3 -7 7 676 113 1
2 7 -7 2637 233 1
-1 -7 7 351 83 1
0 7 -7 1197 146 1
2 -7 7 3853 264 1
3 -7 7 1347 170 1
4 -7 7 2796 252 1
5 -7 7 733 119 1
6 -7 7 996 170 1
-7 7 -7 253 139 1
-8 -6 7 0 260 1
-7 -6 7 0 122 1
-6 -6 7 281 146 1
-5 -6 7 640 131 1
-4 -6 7 725 136 1
-3 -6 7 60 63 1
-2 -6 7 28 49 1
-1 -6 7 20 39 1
0 -6 7 2423 139 1
-1 6 -7 2839 171 1
3 -6 7 743 107 1
4 -6 7 1329 139 1
5 -6 7 1707 157 1
6 -6 7 417 116 1
7 -6 7 343 119 1
-8 -5 7 120 144 1
-7 -5 7 552 167 1
-6 -5 7 1111 150 1
-5 -5 7 897 140 1
-4 -5 7 61 54 1
-3 -5 7 3654 276 1
-2 -5 7 529 79 1
-1 -5 7 12059 395 1
0 -5 7 2729 157 1
2 -5 7 3206 177 1
3 -5 7 5503 317 1
4 -5 7 4884 273 1
5 -5 7 2738 180 1
6 -5 7 756 100 1
7 -5 7 1464 139 1
8 -5 -10 671 122 -2
-8 5 -7 671 122 1
-8 -4 7 5 86 1
-7 -4 7 133 83 1
-6 -4 7 230 86 1
-5 -4 7 200 82 1
-4 -4 7 1956 145 1
-3 -4 7 1055 102 1
-2 -4 7 10848 358 1
-1 -4 7 10775 352 1
0 -4 7 21602 610 1
1 -4 7 2346 110 1
2 -4 7 18064 551 1
3 -4 7 6986 308 1
-4 4 -7 14848 1114 1
-5 4 -7 5984 315 1
-6 4 9 1755 140 -2
6 -4 7 1755 140 1
-7 4 10 424 77 -2
7 -4 7 424 77 1
8 -4 -11 549 97 -2
-8 4 -7 549 97 1
-9 -3 7 232 145 1
-8 -3 7 143 87 1
7 3 -3 415 102 -2
-7 -3 7 415 102 1
-6 -3 7 72 63 1
-5 -3 7 2694 211 1
-4 -3 7 1744 109 1
-3 -3 7 2115 119 1
-2 -3 7 652 107 1
-1 -3 7 2243 97 1
0 -3 7 4678 175 1
2 -3 7 2712 128 1
3 -3 7 2938 136 1
-4 3 8 2381 136 -2
4 -3 7 2381 136 1
5 -3 -9 7347 360 -2
-5 3 -7 7347 360 1
6 -3 -10 3155 199 -2
-6 3 -7 3155 199 1
7 -3 -11 519 81 -2
-7 3 -7 519 81 1
8 -3 -12 69 45 -2
-8 3 -7 69 45 1
9 2 -4 13 97 -2
-9 -2 7 13 97 1
8 2 -3 1328 189 -2
-8 -2 7 1328 189 1
-7 -2 7 389 96 1
-6 -2 7 243 76 1
-5 -2 7 257 54 1
-4 -2 7 101 37 1
-3 -2 7 2665 119 1
-2 -2 7 7070 240 1
-1 -2 7 7473 231 1
0 -2 7 13125 447 1
1 -2 7 14311 434 1
-2 2 7 11407 392 -2
2 -2 7 11407 392 1
-3 2 8 8509 334 -2
3 -2 7 8509 334 1
-4 2 9 20912 753 -2
4 -2 7 20912 753 1
5 -2 -10 1605 134 -2
-5 2 -7 1605 134 1
6 -2 -11 1308 111 -2
-6 2 -7 1308 111 1
9 1 -3 195 111 -2
-9 -1 7 195 111 1
8 1 -2 470 133 -2
-8 -1 7 470 133 1
-7 -1 7 1055 136 1
-6 -1 7 2063 167 1
-5 -1 7 411 59 1
-4 -1 7 10920 360 1
-3 -1 7 3330 136 1
-2 -1 7 20805 702 1
-1 -1 7 42719 1104 1
0 1 6 16464 496 -2
0 -1 7 16464 496 1
-1 1 7 19177 635 -2
1 -1 7 19177 635 1
-2 1 8 4101 181 -2
2 -1 7 4101 181 1
-3 1 9 4350 186 -2
3 -1 7 4350 186 1
-4 1 10 1878 103 -2
4 -1 7 1878 103 1
5 -1 -11 2284 135 -2
-5 1 -7 2284 135 1
-6 1 -7 1447 333 1
9 0 -2 304 148 -2
-9 0 7 304 148 1
8 0 -1 124 87 -2
-8 0 7 124 87 1
7 0 0 1903 225 -2
-7 0 7 1903 225 1
6 0 1 1177 169 -2
-6 0 7 1177 169 1
-5 0 7 3029 153 1
-4 0 7 371 57 1
3 0 4 9219 303 -2
-3 0 7 9219 303 1
2 0 5 4322 153 -2
-2 0 7 4322 153 1
1 0 6 12391 339 -2
-1 0 7 12391 339 1
0 0 7 1980 88 -2
0 0 7 1980 88 1
-1 0 8 3969 139 -2
1 0 7 3969 139 1
-2 0 9 8787 310 -2
2 0 7 8787 310 1
3 0 7 10509 366 1
4 0 7 5586 214 1
-5 0 -7 314 46 1
-6 0 -7 767 260 1
-9 1 1 116 174 -2
9 -1 -7 116 174 1
8 -1 0 496 125 -2
-8 1 7 496 125 1
7 -1 1 150 101 -2
-7 1 7 150 101 1
6 -1 2 2254 170 -2
-6 1 7 2254 170 1
5 -1 3 1336 131 -2
-5 1 7 1336 131 1
4 -1 4 2682 137 -2
-4 1 7 2682 137 1
3 -1 5 8116 260 -2
-3 1 7 8116 260 1
2 -1 6 7502 239 -2
-2 1 7 7502 239 1
1 -1 7 12356 393 -2
-1 1 7 12356 393 1
0 -1 8 4098 141 -2
0 1 7 4098 141 1
1 1 7 1068 70 1
2 1 7 11018 354 1
-3 -1 -7 6010 266 1
-4 -1 -7 2760 156 1
-5 -1 -7 939 115 1
-6 -1 -7 941 318 1
-9 2 0 116 174 -2
9 -2 -7 116 174 1
-8 2 -1 2938 434 -2
8 -2 -7 2938 434 1
7 -2 2 180 97 -2
-7 2 7 180 97 1
6 -2 3 7021 370 -2
-6 2 7 7021 370 1
5 -2 4 1116 126 -2
-5 2 7 1116 126 1
4 -2 5 6862 282 -2
-4 2 7 6862 282 1
3 -2 6 5420 207 -2
-3 2 7 5420 207 1
2 -2 7 15229 424 -2
-2 2 7 15229 424 1
-1 2 7 7584 286 1
0 2 7 1052 67 1
1 2 7 27598 838 1
-2 -2 -7 3646 186 1
-3 -2 -7 4549 220 1
-4 -2 -7 2977 167 1
-5 -2 -7 134 54 1
-6 -2 -7 113 68 1
-9 3 -1 1245 304 -2
9 -3 -7 1245 304 1
-8 3 -2 636 181 -2
8 -3 -7 636 181 1
-7 3 -3 2407 313 -2
7 -3 -7 2407 313 1
6 -3 4 1798 197 -2
-6 3 7 1798 197 1
5 -3 5 7131 403 -2
-5 3 7 7131 403 1
4 -3 6 179 65 -2
-4 3 7 179 65 1
-3 3 7 1234 149 1
-2 3 7 3876 148 1
-1 3 7 9876 418 1
0 3 7 1609 115 1
1 3 7 8807 335 1
-2 -3 -7 3759 196 1
-3 -3 -7 167 67 1
-4 -3 -7 303 74 1
-5 -3 -7 258 72 1
-9 4 -2 738 260 -2
9 -4 -7 738 260 1
-8 4 -3 475 170 -2
8 -4 -7 475 170 1
-7 4 -4 917 208 -2
7 -4 -7 917 208 1
6 -4 5 3835 291 -2
-6 4 7 3835 291 1
-5 4 7 455 115 1
-4 4 7 20088 972 1
-3 4 7 1388 105 1
-2 4 7 3634 199 1
-1 4 7 4470 225 1
0 4 7 145 48 1
1 4 7 122 54 1
-2 -4 -7 777 142 1
-3 -4 -7 307 112 1
-4 -4 -7 271 89 1
-5 -4 -7 143 77 1
-9 5 -3 318 260 -2
9 -5 -7 318 260 1
-8 5 -4 810 275 -2
8 -5 -7 810 275 1
-7 5 -5 1680 261 -2
7 -5 -7 1680 261 1
-6 5 7 2854 262 1
5 -5 -7 1375 208 1
4 -5 -7 3444 463 1
-3 5 7 863 183 1
-2 5 7 817 127 1
-1 5 7 355 102 1
0 5 7 716 128 1
1 5 7 195 110 1
-2 -5 -7 999 347 1
-3 -5 -7 420 289 1
-4 -5 -7 941 347 1
8 -6 -7 376 246 1
-6 6 7 180 163 1
-5 6 7 70 128 1
-4 6 7 493 167 1
-3 6 7 439 138 1
-2 6 7 232 188 1
-1 6 7 470 158 1
0 6 7 545 179 1
1 6 7 1390 260 1
-2 -6 -7 72 217 1
-3 -6 -7 14 232 1
-6 7 7 87 246 1
-5 7 7 136 170 1
-4 7 7 812 210 1
-3 7 7 2648 492 1
-2 7 7 970 318 1
-1 7 7 1794 420 1
0 7 7 65 143 1
1 7 7 734 233 1
-2 -7 -7 275 260 1
-1 -11 8 14 203 1
4 10 -8 130 232 1
-1 -10 8 405 232 1
0 -10 8 116 246 1
1 -10 8 246 275 1
2 -10 8 237 149 1
-3 10 -8 478 217 1
-4 10 -8 289 203 1
-5 10 -8 145 203 1
-5 -9 8 246 191 1
4 9 -8 0 174 1
3 9 -8 854 289 1
-2 -9 8 373 153 1
-1 -9 8 245 112 1
0 -9 8 1613 229 1
1 -9 8 826 179 1
2 -9 8 794 184 1
3 -9 8 281 158 1
4 -9 8 332 160 1
5 -9 8 152 179 1
-6 9 -8 0 159 1
-6 -8 8 62 158 1
5 8 -8 203 174 1
4 8 -8 217 188 1
-3 -8 8 161 91 1
-2 -8 8 1767 183 1
-1 -8 8 405 99 1
0 -8 8 116 104 1
1 -8 8 47 89 1
2 -8 8 463 147 1
3 -8 8 465 124 1
4 -8 8 1366 197 1
5 -8 8 43 95 1
-6 8 -8 134 149 1
-7 -7 8 260 275 1
-6 -7 8 40 120 1
5 7 -8 72 145 1
4 7 -8 203 159 1
-3 -7 8 17 70 1
-2 -7 8 275 94 1
0 -7 8 2679 250 1
2 -7 8 2929 251 1
4 -7 8 667 141 1
-5 7 -8 36 102 1
-6 7 -8 46 117 1
-7 7 -8 0 131 1
-8 -6 8 0 260 1
-7 -6 8 262 160 1
-6 -6 8 488 167 1
5 6 -8 232 159 1
-4 -6 8 1578 199 1
-3 -6 8 4009 492 1
-2 -6 8 7894 413 1
-1 -6 8 312 81 1
0 6 -8 3675 228 1
1 -6 8 306 96 1
2 -6 8 3473 253 1
-3 6 -8 4067 449 1
4 -6 8 2143 213 1
-5 6 -8 311 128 1
-6 6 -8 1201 205 1
-7 6 -8 35 99 1
-8 -5 8 224 167 1
-7 -5 8 644 184 1
-6 -5 8 84 101 1
-5 -5 8 1319 162 1
-4 -5 8 66 60 1
-3 -5 8 7871 486 1
-2 -5 8 9503 361 1
-1 -5 8 5038 213 1
0 -5 8 5628 229 1
1 -5 8 17464 691 1
2 -5 8 10398 649 1
3 -5 8 8693 382 1
-4 5 -8 5737 318 1
-5 5 -8 1193 144 1
-6 5 -8 3335 238 1
-7 5 -8 201 80 1
8 4 -8 101 188 1
-7 -4 8 215 132 1
-6 -4 8 651 121 1
-5 -4 8 148 59 1
-4 -4 8 7325 388 1
-3 -4 8 2529 144 1
-2 -4 8 6547 237 1
-1 -4 8 1269 93 1
0 -4 8 3620 140 1
1 -4 8 4028 163 1
2 -4 8 12046 565 1
3 -4 8 3034 173 1
-4 4 -8 2676 186 1
-5 4 -8 31 57 1
-6 4 -8 92 63 1
7 -4 -11 81 64 -2
-7 4 -8 81 64 1
8 3 -8 145 159 1
-7 -3 8 129 75 1
-6 -3 8 136 67 1
-5 -3 8 2177 154 1
-4 -3 8 69 63 1
-3 -3 8 3361 179 1
-2 -3 8 38 32 1
-1 -3 8 2661 164 1
0 -3 8 7715 291 1
1 -3 8 1105 69 1
2 -3 8 5239 214 1
3 -3 8 27872 1021 1
-4 3 -8 4797 261 1
5 -3 -10 955 109 -2
-5 3 -8 955 109 1
6 -3 -11 202 61 -2
-6 3 -8 202 61 1
7 -3 -12 434 73 -2
-7 3 -8 434 73 1
9 2 -8 333 217 1
8 2 -8 0 130 1
-7 -2 8 889 156 1
-6 -2 8 3 54 1
-5 -2 8 3616 193 1
-4 -2 8 44 35 1
-3 -2 8 3949 161 1
-2 -2 8 1371 149 1
-1 -2 8 2817 124 1
0 -2 8 4864 176 1
1 -2 8 6910 229 1
2 -2 8 9018 326 1
-3 2 9 2539 137 -2
3 -2 8 2539 137 1
4 -2 -10 3743 208 -2
-4 2 -8 3743 208 1
5 -2 -11 726 90 -2
-5 2 -8 726 90 1
6 -2 -12 2328 148 -2
-6 2 -8 2328 148 1
7 -2 -13 130 159 -2
-7 2 -8 130 159 1
9 1 -8 376 217 1
8 1 -8 507 217 1
-7 -1 8 87 74 1
-6 -1 8 935 109 1
-5 -1 8 986 93 1
-4 -1 8 940 87 1
-3 -1 8 14291 453 1
-2 -1 8 8309 290 1
-1 -1 8 40327 1046 1
0 1 7 5643 197 -2
0 -1 8 5643 197 1
-1 1 8 13239 456 -2
1 -1 8 13239 456 1
-2 1 9 4386 163 -2
2 -1 8 4386 163 1
-3 1 10 10248 392 -2
3 -1 8 10248 392 1
4 -1 -11 7748 364 -2
-4 1 -8 7748 364 1
5 -1 -12 639 74 -2
-5 1 -8 639 74 1
-6 1 -8 1864 168 1
-9 0 1 0 174 -2
9 0 -8 0 174 1
8 0 -8 695 246 1
-7 0 8 86 83 1
-6 0 8 580 94 1
-5 0 8 1747 148 1
-4 0 8 2059 121 1
3 0 5 1338 90 -2
-3 0 8 1338 90 1
2 0 6 1783 91 -2
-2 0 8 1783 91 1
1 0 7 3747 152 -2
-1 0 8 3747 152 1
0 0 8 1591 86 -2
0 0 8 1591 86 1
-1 0 9 8202 299 -2
1 0 8 8202 299 1
-2 0 10 5106 199 -2
2 0 8 5106 199 1
-3 0 -8 3129 189 1
-4 0 -8 1278 107 1
-5 0 -8 508 67 1
-6 0 -8 362 217 1
-9 1 0 0 159 -2
9 -1 -8 0 159 1
-8 1 -1 145 159 -2
8 -1 -8 145 159 1
-7 1 -2 709 232 -2
7 -1 -8 709 232 1
6 -1 3 32 56 -2
-6 1 8 32 56 1
5 -1 4 1953 172 -2
-5 1 8 1953 172 1
4 -1 5 6967 287 -2
-4 1 8 6967 287 1
3 -1 6 694 68 -2
-3 1 8 694 68 1
2 -1 7 3123 125 -2
-2 1 8 3123 125 1
1 -1 8 10048 358 -2
-1 1 8 10048 358 1
0 -1 9 9314 310 -2
0 1 8 9314 310 1
1 1 8 3833 170 1
-2 -1 -8 1845 153 1
-3 -1 -8 881 102 1
-4 -1 -8 289 58 1
-5 -1 -8 28 41 1
-9 2 -1 0 174 -2
9 -2 -8 0 174 1
-8 2 -2 1143 304 -2
8 -2 -8 1143 304 1
-7 2 -3 4313 492 -2
7 -2 -8 4313 492 1
6 -2 4 1661 192 -2
-6 2 8 1661 192 1
5 -2 5 2868 252 -2
-5 2 8 2868 252 1
4 -2 6 8797 400 -2
-4 2 8 8797 400 1
3 -2 7 6228 293 -2
-3 2 8 6228 293 1
-2 2 8 8450 297 1
-1 2 8 31982 1207 1
0 2 8 7374 287 1
1 2 8 2397 129 1
-2 -2 -8 5141 245 1
-3 -2 -8 90 47 1
-4 -2 -8 36 52 1
-5 -2 -8 43 56 1
-9 3 -2 521 232 -2
9 -3 -8 521 232 1
-8 3 -3 1160 233 -2
8 -3 -8 1160 233 1
-7 3 -4 485 163 -2
7 -3 -8 485 163 1
6 -3 5 3389 274 -2
-6 3 8 3389 274 1
5 -3 6 9439 519 -2
-5 3 8 9439 519 1
4 -3 7 2680 240 -2
-4 3 8 2680 240 1
-3 3 8 40230 1540 1
-2 3 8 10577 456 1
-1 3 8 6458 269 1
0 3 8 10336 389 1
1 3 8 128 48 1
-2 -3 -8 63 54 1
-3 -3 -8 549 100 1
-4 -3 -8 76 66 1
-5 -3 -8 45 68 1
-9 4 -3 217 246 -2
9 -4 -8 217 246 1
-8 4 -4 1056 304 -2
8 -4 -8 1056 304 1
-7 4 -5 433 174 -2
7 -4 -8 433 174 1
6 -4 6 1021 175 -2
-6 4 8 1021 175 1
-5 4 8 4610 318 1
-4 4 8 1502 222 1
-3 4 8 150 107 1
-2 4 8 2868 268 1
-1 4 8 2550 172 1
0 4 8 123 82 1
1 4 8 410 106 1
-2 -4 -8 4 85 1
-3 -4 -8 1281 206 1
-4 -4 -8 42 99 1
-9 5 -4 637 275 -2
9 -5 -8 637 275 1
-8 5 -5 810 289 -2
8 -5 -8 810 289 1
7 -5 -8 579 275 1
-6 5 8 439 179 1
-5 5 8 749 183 1
-4 5 8 3458 337 1
-3 5 8 8 97 1
-2 5 8 2402 434 1
-1 5 8 479 108 1
0 5 8 238 96 1
1 5 8 1127 169 1
-2 -5 -8 260 144 1
-3 -5 -8 358 144 1
-6 6 8 1020 235 1
-5 6 8 437 177 1
-4 6 8 27 128 1
-3 6 8 3517 507 1
-2 6 8 43 174 1
-1 6 8 3314 550 1
0 6 8 0 107 1
-1 -6 -8 54 125 1
-2 -6 -8 18 120 1
5 -7 -8 810 347 1
-2 -10 9 174 217 1
-1 -10 9 159 217 1
0 -10 9 391 260 1
-1 10 -9 0 130 1
-2 10 -9 318 174 1
-3 10 -9 420 217 1
-4 10 -9 0 188 1
-5 10 -9 232 260 1
5 9 -9 116 203 1
4 9 -9 362 232 1
3 9 -9 246 232 1
-2 -9 9 492 217 1
-1 -9 9 540 149 1
0 -9 9 768 174 1
1 -9 9 1288 224 1
2 -9 9 458 154 1
3 -9 9 1424 249 1
4 -9 9 224 156 1
5 -9 9 342 198 1
-6 -8 9 10 139 1
5 8 -9 0 174 1
4 8 -9 174 174 1
-3 -8 9 77 83 1
-2 -8 9 234 91 1
-1 -8 9 70 96 1
0 -8 9 549 158 1
1 -8 9 465 144 1
2 -8 9 685 183 1
3 -8 9 0 110 1
4 -8 9 5 86 1
-5 8 -9 0 117 1
-6 8 -9 52 136 1
-7 -7 9 0 246 1
-6 -7 9 176 160 1
5 7 -9 289 203 1
-4 -7 9 12 101 1
-3 -7 9 205 85 1
-2 -7 9 290 102 1
0 -7 9 1284 201 1
1 -7 9 98 90 1
2 -7 9 172 95 1
3 -7 9 103 89 1
4 -7 9 112 100 1
-5 7 -9 58 113 1
-6 7 -9 74 122 1
-7 -6 9 193 163 1
-6 -6 9 1038 204 1
5 6 -9 203 174 1
-4 -6 9 5022 388 1
-3 -6 9 187 99 1
-2 -6 9 9332 477 1
-1 -6 9 426 102 1
0 -6 9 9312 480 1
2 -6 9 6079 358 1
3 -6 9 123 83 1
4 -6 9 1082 161 1
-5 6 -9 788 169 1
-6 6 -9 117 122 1
-7 6 -9 232 217 1
8 5 -9 87 174 1
-7 -5 9 263 160 1
-6 -5 9 29 102 1
5 5 -9 1925 362 1
4 5 -9 1534 304 1
-3 -5 9 1886 236 1
-2 -5 9 309 80 1
-1 -5 9 5248 263 1
0 -5 9 2691 193 1
1 -5 9 2562 175 1
2 -5 9 7463 340 1
3 -5 9 199 67 1
-4 5 -9 3849 247 1
-5 5 -9 230 85 1
-6 5 -9 20 66 1
-7 5 -9 107 82 1
8 4 -9 0 174 1
7 4 -9 0 145 1
-6 -4 9 1863 240 1
-5 -4 9 54 77 1
-4 -4 9 1856 212 1
-3 -4 9 5267 310 1
-1 -4 9 8893 311 1
0 -4 9 8292 317 1
1 -4 9 1873 148 1
2 -4 9 3587 196 1
3 -4 9 69 54 1
-4 4 -9 1135 133 1
-5 4 -9 55 60 1
-6 4 -9 721 112 1
7 -4 -12 45 59 -2
-7 4 -9 45 59 1
8 3 -9 1172 289 1
7 3 -9 666 217 1
-6 -3 9 717 173 1
-5 -3 9 147 63 1
-3 -3 9 150 56 1
-2 -3 9 17669 608 1
-1 -3 9 1033 131 1
0 -3 9 28569 949 1
1 -3 9 7213 315 1
2 -3 9 8914 376 1
-3 3 -9 364 77 1
-4 3 -9 194 71 1
5 -3 -11 524 91 -2
-5 3 -9 524 91 1
6 -3 -12 327 72 -2
-6 3 -9 327 72 1
7 -3 -13 117 68 -2
-7 3 -9 117 68 1
9 2 -9 116 203 1
8 2 -9 0 159 1
7 2 -9 593 203 1
-6 -2 9 359 104 1
-5 -2 9 2583 169 1
-4 -2 9 5826 396 1
-3 -2 9 12709 608 1
-2 -2 9 160 39 1
-1 -2 9 16009 443 1
0 -2 9 2248 112 1
1 -2 9 20172 677 1
2 -2 9 6154 274 1
3 -2 -10 2484 175 -2
-3 2 -9 2484 175 1
4 -2 -11 2942 188 -2
-4 2 -9 2942 188 1
5 -2 -12 399 73 -2
-5 2 -9 399 73 1
6 -2 -13 196 58 -2
-6 2 -9 196 58 1
9 1 -9 203 188 1
8 1 -9 0 159 1
7 1 -9 1925 347 1
-6 -1 9 225 107 1
-5 -1 9 3919 250 1
-4 -1 9 8045 531 1
-3 -1 9 14323 504 1
-2 -1 9 7671 253 1
-1 -1 9 620 62 1
0 1 8 11306 454 -2
0 -1 9 11306 454 1
-1 1 9 3815 189 -2
1 -1 9 3815 189 1
-2 1 10 25121 945 -2
2 -1 9 25121 945 1
3 -1 -11 700 90 -2
-3 1 -9 700 90 1
4 -1 -12 3182 196 -2
-4 1 -9 3182 196 1
5 -1 -13 940 99 -2
-5 1 -9 940 99 1
-6 1 -9 215 54 1
9 0 -9 0 188 1
8 0 -9 260 188 1
7 0 -9 203 159 1
-6 0 9 535 143 1
-5 0 9 628 132 1
-4 0 9 2027 163 1
-3 0 9 3541 163 1
2 0 7 7089 236 -2
-2 0 9 7089 236 1
1 0 8 5537 203 -2
-1 0 9 5537 203 1
0 0 9 10915 442 -2
0 0 9 10915 442 1
-1 0 10 253 56 -2
1 0 9 253 56 1
2 0 -11 896 104 -2
-2 0 -9 896 104 1
-3 0 -9 489 79 1
-4 0 -9 253 62 1
-5 0 -9 192 57 1
-9 1 -1 43 188 -2
9 -1 -9 43 188 1
-8 1 -2 333 203 -2
8 -1 -9 333 203 1
-7 1 -3 260 174 -2
7 -1 -9 260 174 1
6 -1 4 4319 347 -2
-6 1 9 4319 347 1
5 -1 5 683 136 -2
-5 1 9 683 136 1
4 -1 6 2372 224 -2
-4 1 9 2372 224 1
3 -1 7 2913 187 -2
-3 1 9 2913 187 1
2 -1 8 3261 162 -2
-2 1 9 3261 162 1
1 -1 9 2690 160 -2
-1 1 9 2690 160 1
0 -1 10 5838 263 -2
0 1 9 5838 263 1
1 1 9 4221 189 1
-2 -1 -9 167 52 1
-3 -1 -9 447 74 1
-4 -1 -9 257 58 1
-5 -1 -9 79 56 1
-9 2 -2 0 188 -2
9 -2 -9 0 188 1
-8 2 -3 88 134 -2
8 -2 -9 88 134 1
-7 2 -4 1110 229 -2
7 -2 -9 1110 229 1
6 -2 5 2630 254 -2
-6 2 9 2630 254 1
5 -2 6 3016 261 -2
-5 2 9 3016 261 1
4 -2 7 29847 1376 -2
-4 2 9 29847 1376 1
3 -2 8 3608 249 -2
-3 2 9 3608 249 1
-2 2 9 8853 452 1
-1 2 9 6798 280 1
0 2 9 3115 156 1
1 2 9 477 61 1
-2 -2 -9 569 83 1
-3 -2 -9 21 57 1
-4 -2 -9 198 71 1
-5 -2 -9 197 76 1
-9 3 -3 637 275 -2
9 -3 -9 637 275 1
-8 3 -4 564 246 -2
8 -3 -9 564 246 1
-7 3 -5 3210 379 -2
7 -3 -9 3210 379 1
6 -3 6 2175 238 -2
-6 3 9 2175 238 1
5 -3 7 11156 602 -2
-5 3 9 11156 602 1
-4 3 9 3812 358 1
-3 3 9 320 128 1
-2 3 9 435 122 1
-1 3 9 302 72 1
0 3 9 1565 146 1
1 3 9 614 94 1
-2 -3 -9 52 61 1
-3 -3 -9 109 75 1
-4 -3 -9 798 126 1
-9 4 -4 275 275 -2
9 -4 -9 275 275 1
-8 4 -5 174 217 -2
8 -4 -9 174 217 1
7 -4 6 3116 353 -2
-7 4 9 3116 353 1
6 -4 7 1426 264 -2
-6 4 9 1426 264 1
-5 4 9 81 128 1
-4 4 9 1119 198 1
-3 4 9 64 101 1
-2 4 9 49 78 1
-1 4 9 74 63 1
0 4 9 182 78 1
-1 -4 -9 29 83 1
-2 -4 -9 0 92 1
-3 -4 -9 134 115 1
-7 5 9 1042 318 1
-6 5 9 1220 236 1
-5 5 9 55 128 1
-4 5 9 75 122 1
-3 5 9 130 159 1
-2 5 9 159 174 1
-1 5 9 478 217 1
0 5 9 435 136 1
-1 -5 -9 1277 226 1
-2 -5 -9 102 123 1
5 -6 -9 1606 376 1
-3 6 9 2721 507 1
-2 6 9 2156 463 1
-1 6 9 246 217 1
0 6 9 1216 376 1
-1 -6 -9 159 188 1
-3 11 -10 0 174 1
-2 -10 10 0 203 1
-1 10 -10 492 232 1
-2 10 -10 130 188 1
-3 10 -10 333 232 1
-4 10 -10 0 203 1
5 9 -10 0 217 1
-3 -9 10 217 217 1
-2 -9 10 291 131 1
-1 -9 10 560 149 1
0 -9 10 503 163 1
1 -9 10 970 208 1
2 -9 10 84 134 1
3 -9 10 595 198 1
4 -9 10 0 138 1
-5 9 -10 0 188 1
-6 -8 10 162 167 1
5 8 -10 0 174 1
4 8 -10 42 110 1
-3 -8 10 34 94 1
-2 -8 10 31 99 1
-1 -8 10 116 105 1
0 -8 10 133 112 1
1 -8 10 51 110 1
2 -8 10 72 104 1
3 -8 10 33 101 1
4 -8 10 85 110 1
-5 8 -10 90 136 1
-6 -7 10 210 152 1
5 7 -10 347 203 1
-4 -7 10 756 136 1
-3 -7 10 1181 171 1
-2 -7 10 1742 236 1
-1 -7 10 1823 318 1
0 -7 10 11 76 1
1 -7 10 1360 318 1
2 -7 10 639 132 1
3 -7 10 501 129 1
4 -7 10 962 173 1
-5 7 -10 199 138 1
-6 7 -10 0 133 1
7 6 -10 14 188 1
-6 -6 10 1182 229 1
5 6 -10 0 159 1
-4 -6 10 2828 302 1
-3 -6 10 993 148 1
2 6 -10 1709 224 1
0 -6 10 2035 212 1
1 -6 10 113 78 1
2 -6 10 128 86 1
3 -6 10 593 132 1
-4 6 -10 42 107 1
-5 6 -10 196 117 1
-6 6 -10 159 122 1
8 5 -10 434 232 1
7 5 -10 58 174 1
6 5 -10 116 174 1
-5 -5 10 1664 235 1
-4 -5 10 2164 255 1
-3 -5 10 3169 334 1
-2 -5 10 10643 540 1
0 5 -10 6799 353 1
1 -5 10 1324 164 1
2 -5 10 1348 161 1
3 -5 10 51 83 1
-4 5 -10 193 117 1
-5 5 -10 159 102 1
-6 5 -10 57 110 1
8 4 -10 145 188 1
7 4 -10 1462 347 1
6 4 -10 87 159 1
-5 -4 10 3841 280 1
4 4 -10 3343 463 1
-3 -4 10 1385 201 1
-2 -4 10 5033 260 1
-1 -4 10 641 115 1
0 -4 10 276 68 1
-1 4 -10 1389 217 1
2 -4 10 3987 212 1
-3 4 -10 87 67 1
-4 4 -10 1296 142 1
-5 4 -10 114 71 1
-6 4 -10 93 73 1
8 3 -10 0 174 1
7 3 -10 72 174 1
6 3 -10 651 217 1
-5 -3 10 249 132 1
-4 -3 10 4503 361 1
-3 -3 10 23 79 1
2 3 -10 6208 579 1
-1 -3 10 1228 110 1
0 -3 10 498 77 1
1 -3 10 5117 250 1
2 -3 10 196 56 1
-3 3 -10 708 108 1
-4 3 -10 52 64 1
5 -3 -12 112 70 -2
-5 3 -10 112 70 1
6 -3 -13 67 62 -2
-6 3 -10 67 62 1
9 2 -10 87 203 1
8 2 -10 58 174 1
7 2 -10 535 217 1
-6 -2 10 541 148 1
5 2 -10 1766 333 1
4 2 -10 1360 275 1
-3 -2 10 6082 342 1
-2 -2 10 12600 638 1
-1 -2 10 21082 943 1
0 -2 10 7113 319 1
1 -2 10 8948 380 1
2 -2 10 5049 245 1
3 -2 -11 2334 173 -2
-3 2 -10 2334 173 1
4 -2 -12 374 80 -2
-4 2 -10 374 80 1
5 -2 -13 546 90 -2
-5 2 -10 546 90 1
6 -2 -14 636 86 -2
-6 2 -10 636 86 1
9 1 -10 130 203 1
8 1 -10 72 159 1
7 1 -10 535 217 1
-6 -1 10 2504 376 1
-5 -1 10 3376 322 1
-4 -1 10 5961 430 1
-3 -1 10 5740 292 1
-2 -1 10 10134 438 1
-1 -1 10 5207 256 1
0 1 9 9637 407 -2
0 -1 10 9637 407 1
-1 1 10 1015 102 -2
1 -1 10 1015 102 1
2 -1 -11 67 55 -2
-2 1 -10 67 55 1
3 -1 -12 429 85 -2
-3 1 -10 429 85 1
4 -1 -13 463 82 -2
-4 1 -10 463 82 1
5 -1 -14 298 67 -2
-5 1 -10 298 67 1
-6 1 -10 0 188 1
9 0 -10 217 232 1
8 0 -10 101 188 1
7 0 -10 2214 391 1
-6 0 10 267 125 1
-5 0 10 164 122 1
-4 0 10 669 133 1
-3 0 10 8637 394 1
2 0 8 8335 440 -2
-2 0 10 8335 440 1
1 0 9 342 73 -2
-1 0 10 342 73 1
0 0 10 903 99 -2
0 0 10 903 99 1
-1 0 11 3434 185 -2
1 0 10 3434 185 1
2 0 -12 319 74 -2
-2 0 -10 319 74 1
-3 0 -10 125 57 1
-4 0 -10 54 52 1
-5 0 -10 12 49 1
9 -1 -10 0 188 1
8 -1 -10 695 246 1
7 -1 -10 376 217 1
6 -1 5 367 127 -2
-6 1 10 367 127 1
5 -1 6 3311 276 -2
-5 1 10 3311 276 1
4 -1 7 3094 253 -2
-4 1 10 3094 253 1
3 -1 8 11806 602 -2
-3 1 10 11806 602 1
2 -1 9 18416 865 -2
-2 1 10 18416 865 1
1 -1 10 1840 181 -2
-1 1 10 1840 181 1
0 -1 11 1076 107 -2
0 1 10 1076 107 1
1 1 10 185 58 1
-2 -1 -10 119 52 1
-3 -1 -10 64 56 1
-4 -1 -10 137 72 1
-5 -1 -10 295 76 1
-9 2 -3 246 260 -2
9 -2 -10 246 260 1
-8 2 -4 1491 376 -2
8 -2 -10 1491 376 1
7 -2 5 2025 234 -2
-7 2 10 2025 234 1
6 -2 6 8085 482 -2
-6 2 10 8085 482 1
5 -2 7 2179 306 -2
-5 2 10 2179 306 1
4 -2 8 5146 429 -2
-4 2 10 5146 429 1
3 -2 9 1700 225 -2
-3 2 10 1700 225 1
-2 2 10 3443 296 1
-1 2 10 764 115 1
0 2 10 253 65 1
-1 -2 -10 116 70 1
-2 -2 -10 79 58 1
-3 -2 -10 1871 176 1
-4 -2 -10 172 73 1
-9 3 -4 883 318 -2
9 -3 -10 883 318 1
-8 3 -5 2605 478 -2
8 -3 -10 2605 478 1
7 -3 6 926 289 -2
-7 3 10 926 289 1
6 -3 7 3636 396 -2
-6 3 10 3636 396 1
5 -3 8 1234 251 -2
-5 3 10 1234 251 1
-4 3 10 194 128 1
-3 3 10 387 125 1
-2 3 10 1656 198 1
-1 3 10 1147 137 1
0 3 10 22 63 1
-1 -3 -10 14 74 1
-2 -3 -10 860 177 1
-3 -3 -10 380 146 1
7 -4 7 376 260 -2
-7 4 10 376 260 1
-6 4 10 177 160 1
-5 4 10 81 123 1
-4 4 10 2028 261 1
-3 4 10 116 159 1
-2 4 10 114 96 1
-1 4 10 49 91 1
0 4 10 0 96 1
-1 -4 -10 0 130 1
-2 -4 -10 75 126 1
-3 -4 -10 101 145 1
-7 5 10 260 275 1
5 -5 -10 1085 347 1
-4 5 10 738 275 1
-3 5 10 593 260 1
-2 5 10 130 188 1
-1 5 10 318 217 1
0 5 10 333 246 1
-1 -5 -10 29 159 1
-2 -5 -10 1534 333 1
0 10 -11 87 159 1
-1 10 -11 0 159 1
-2 10 -11 159 159 1
-3 10 -11 87 217 1
-3 -9 11 0 203 1
-2 -9 11 82 120 1
-1 -9 11 79 107 1
0 -9 11 0 123 1
1 -9 11 298 155 1
-2 9 -11 0 159 1
-3 9 -11 0 145 1
-4 9 -11 188 246 1
6 8 -11 0 232 1
4 8 -11 72 145 1
-3 -8 11 262 125 1
-2 -8 11 625 169 1
-1 -8 11 420 260 1
0 -8 11 650 173 1
1 -8 11 0 112 1
2 -8 11 236 134 1
3 -8 11 174 134 1
4 -8 11 137 160 1
-5 8 -11 57 132 1
6 7 -11 535 275 1
5 7 -11 463 260 1
-4 -7 11 1262 210 1
-3 -7 11 359 131 1
-2 -7 11 97 120 1
-1 -7 11 630 158 1
0 -7 11 50 101 1
1 -7 11 716 184 1
2 -7 11 177 98 1
-3 7 -11 201 125 1
-4 7 -11 0 107 1
-5 7 -11 165 142 1
7 6 -11 0 174 1
6 6 -11 463 232 1
5 6 -11 174 188 1
-4 -6 11 514 153 1
-3 -6 11 32 99 1
-2 -6 11 155 101 1
-1 -6 11 953 179 1
0 -6 11 1375 304 1
1 -6 11 365 108 1
2 -6 11 185 95 1
-3 6 -11 810 246 1
-4 6 -11 240 146 1
-5 6 -11 142 117 1
7 5 -11 637 260 1
6 5 -11 2547 463 1
-5 -5 11 107 138 1
-4 -5 11 3480 338 1
2 5 -11 912 246 1
-1 -5 11 903 187 1
1 -5 11 83 83 1
2 -5 11 261 94 1
-3 5 -11 162 122 1
-4 5 -11 140 97 1
-5 5 -11 196 132 1
-6 5 -11 391 289 1
8 4 -11 0 188 1
7 4 -11 970 304 1
6 4 -11 2142 376 1
-5 -4 11 376 156 1
4 4 -11 1939 347 1
-3 -4 11 4 99 1
-1 -4 11 2865 230 1
0 -4 11 622 122 1
1 -4 11 1039 158 1
2 -4 11 90 79 1
-3 4 -11 260 113 1
-4 4 -11 341 91 1
-5 4 -11 397 108 1
8 3 -11 232 232 1
7 3 -11 347 203 1
-6 -3 11 1791 253 1
-5 -3 11 770 174 1
-3 -3 11 708 153 1
-2 -3 11 5151 279 1
-1 -3 11 5344 396 1
0 -3 11 6968 384 1
1 -3 11 277 95 1
2 -3 11 3560 207 1
-3 3 -11 881 120 1
-4 3 -11 729 115 1
5 -3 -13 49 69 -2
-5 3 -11 49 69 1
8 2 -11 101 203 1
7 2 -11 1056 304 1
-6 -2 11 294 156 1
-5 -2 11 3005 334 1
-4 -2 11 1332 222 1
-3 -2 11 9344 659 1
-2 -2 11 5088 318 1
-1 -2 11 2323 214 1
0 -2 11 4149 261 1
1 -2 11 1764 151 1
-2 2 -11 1342 153 1
3 -2 -12 619 105 -2
-3 2 -11 619 105 1
4 -2 -13 672 107 -2
-4 2 -11 672 107 1
5 -2 -14 289 81 -2
-5 2 -11 289 81 1
9 1 -11 0 217 1
8 1 -11 116 203 1
7 1 -11 232 217 1
-6 -1 11 933 210 1
-5 -1 11 1243 195 1
-4 -1 11 3628 293 1
-3 -1 11 5672 455 1
-2 -1 11 2902 215 1
-1 -1 11 3545 246 1
0 1 10 922 133 -2
0 -1 11 922 133 1
-1 1 11 1943 153 -2
1 -1 11 1943 153 1
2 -1 -12 461 89 -2
-2 1 -11 461 89 1
3 -1 -13 97 57 -2
-3 1 -11 97 57 1
4 -1 -14 70 61 -2
-4 1 -11 70 61 1
5 -1 -15 490 92 -2
-5 1 -11 490 92 1
9 0 -11 434 260 1
8 0 -11 1679 376 1
7 0 -11 550 246 1
-6 0 11 4089 363 1
-5 0 11 5882 382 1
-4 0 11 9599 685 1
-3 0 11 3259 340 1
2 0 9 627 142 -2
-2 0 11 627 142 1
1 0 10 3498 240 -2
-1 0 11 3498 240 1
0 0 11 551 104 -2
0 0 11 551 104 1
-1 0 12 11 57 -2
1 0 11 11 57 1
2 0 -13 297 75 -2
-2 0 -11 297 75 1
-3 0 -11 218 74 1
-4 0 -11 92 63 1
9 -1 -11 43 217 1
8 -1 -11 246 217 1
-7 1 11 451 143 1
-6 1 11 415 179 1
5 -1 7 3900 387 -2
-5 1 11 3900 387 1
4 -1 8 6186 491 -2
-4 1 11 6186 491 1
3 -1 9 1064 184 -2
-3 1 11 1064 184 1
2 -1 10 93 94 -2
-2 1 11 93 94 1
1 -1 11 2453 222 -2
-1 1 11 2453 222 1
0 -1 12 26 66 -2
0 1 11 26 66 1
-1 -1 -11 702 138 1
-2 -1 -11 1679 215 1
-3 -1 -11 211 90 1
-4 -1 -11 1540 177 1
7 -2 6 1230 304 -2
-7 2 11 1230 304 1
6 -2 7 1055 239 -2
-6 2 11 1055 239 1
5 -2 8 660 195 -2
-5 2 11 660 195 1
4 -2 9 2840 337 -2
-4 2 11 2840 337 1
3 -2 10 1751 362 -2
-3 2 11 1751 362 1
-2 2 11 716 117 1
-1 2 11 395 96 1
0 2 11 127 71 1
-1 -2 -11 1154 181 1
-2 -2 -11 260 145 1
-3 -2 -11 0 116 1
7 -3 7 347 260 -2
-7 3 11 347 260 1
6 -3 8 0 149 -2
-6 3 11 0 149 1
5 -3 9 980 218 -2
-5 3 11 980 218 1
-4 3 11 72 125 1
-3 3 11 1606 362 1
-2 3 11 747 174 1
-1 3 11 87 80 1
0 3 11 977 184 1
-1 -3 -11 521 203 1
-2 -3 -11 304 174 1
-3 -3 -11 492 174 1
5 -4 -11 362 246 1
-4 4 11 420 246 1
-3 4 11 1679 405 1
-2 4 11 1230 333 1
-1 4 11 0 174 1
0 4 11 171 128 1
-1 -4 -11 275 188 1
-2 -4 -11 0 174 1
0 10 -12 318 203 1
-1 10 -12 130 217 1
-2 10 -12 449 246 1
2 9 -12 58 130 1
1 9 -12 0 145 1
0 9 -12 333 217 1
-1 9 -12 188 174 1
-2 9 -12 362 217 1
-3 9 -12 58 174 1
-4 -8 12 70 139 1
-3 -8 12 455 177 1
-2 -8 12 177 131 1
-1 -8 12 279 138 1
0 -8 12 182 114 1
1 -8 12 86 123 1
2 -8 12 344 156 1
3 -8 12 308 160 1
-4 8 -12 275 232 1
-4 -7 12 23 112 1
-3 -7 12 648 187 1
-2 -7 12 147 125 1
-1 -7 12 937 198 1
0 -7 12 14 101 1
1 -7 12 220 129 1
2 -7 12 344 152 1
3 -7 12 340 129 1
-4 7 -12 337 173 1
7 6 -12 43 188 1
6 6 -12 188 217 1
-5 -6 12 116 188 1
-4 -6 12 666 246 1
-3 -6 12 149 115 1
-2 -6 12 134 114 1
-1 -6 12 41 92 1
0 -6 12 134 120 1
1 -6 12 427 123 1
2 -6 12 137 111 1
-3 6 -12 188 139 1
-4 6 -12 165 138 1
-5 6 -12 69 115 1
7 5 -12 0 159 1
6 5 -12 680 246 1
-5 -5 12 1085 289 1
-4 -5 12 781 260 1
-3 -5 12 1633 257 1
-2 -5 12 167 114 1
-1 -5 12 2787 326 1
0 -5 12 62 83 1
1 -5 12 2284 232 1
2 -5 12 93 94 1
-3 5 -12 1641 251 1
-4 5 -12 762 169 1
-5 5 -12 125 128 1
8 4 -12 579 260 1
7 4 -12 0 174 1
6 4 -12 275 203 1
-5 -4 12 211 138 1
-4 -4 12 1042 275 1
-3 -4 12 3213 478 1
-2 -4 12 391 142 1
-1 -4 12 2964 275 1
0 -4 12 24 74 1
1 -4 12 558 120 1
2 -4 12 561 127 1
-3 4 -12 275 113 1
-4 4 -12 474 128 1
-5 4 -12 824 160 1
8 3 -12 232 232 1
7 3 -12 0 188 1
-6 -3 12 180 138 1
-5 -3 12 970 318 1
-4 -3 12 4457 579 1
-3 -3 12 5861 666 1
-2 -3 12 2980 302 1
-1 -3 12 59 83 1
0 -3 12 3039 240 1
1 -3 12 2494 228 1
-2 3 -12 341 111 1
-3 3 -12 78 101 1
-4 3 -12 0 97 1
5 -3 -14 168 118 -2
-5 3 -12 168 118 1
8 2 -12 391 232 1
7 2 -12 188 203 1
-6 -2 12 225 148 1
-5 -2 12 2489 463 1
-4 -2 12 1650 391 1
-3 -2 12 4212 394 1
-2 -2 12 3053 449 1
-1 -2 12 1683 193 1
0 -2 12 163 83 1
1 -2 12 620 121 1
-2 2 -12 92 107 1
3 -2 -13 826 170 -2
-3 2 -12 826 170 1
4 -2 -14 1534 168 -2
-4 2 -12 1534 168 1
8 1 -12 246 246 1
7 1 -12 2576 478 1
-6 -1 12 130 203 1
5 1 -12 1520 376 1
-4 -1 12 2403 316 1
-3 -1 12 2873 309 1
-2 -1 12 412 116 1
-1 -1 12 49 71 1
0 1 11 19 74 -2
0 -1 12 19 74 1
-1 1 12 173 83 -2
1 -1 12 173 83 1
2 -1 -13 1547 222 -2
-2 1 -12 1547 222 1
3 -1 -14 501 138 -2
-3 1 -12 501 138 1
4 -1 -15 25 76 -2
-4 1 -12 25 76 1
-6 0 12 2210 319 1
-5 0 12 312 179 1
-4 0 12 1003 220 1
-3 0 12 527 160 1
2 0 10 159 89 -2
-2 0 12 159 89 1
1 0 11 72 80 -2
-1 0 12 72 80 1
0 0 12 48 67 -2
0 0 12 48 67 1
1 0 -13 967 174 -2
-1 0 -12 967 174 1
2 0 -14 50 74 -2
-2 0 -12 50 74 1
-3 0 -12 1311 198 1
-4 0 -12 347 145 1
-7 1 12 174 217 1
-6 1 12 800 225 1
5 -1 8 897 222 -2
-5 1 12 897 222 1
4 -1 9 3211 358 -2
-4 1 12 3211 358 1
3 -1 10 420 217 -2
-3 1 12 420 217 1
2 -1 11 209 125 -2
-2 1 12 209 125 1
1 -1 12 102 80 -2
-1 1 12 102 80 1
0 -1 13 1284 166 -2
0 1 12 1284 166 1
-1 -1 -12 93 94 1
-2 -1 -12 1786 229 1
-3 -1 -12 0 116 1
7 -2 7 203 246 -2
-7 2 12 203 246 1
6 -2 8 1756 309 -2
-6 2 12 1756 309 1
5 -2 9 832 235 -2
-5 2 12 832 235 1
4 -2 10 502 170 -2
-4 2 12 502 170 1
3 -2 11 1491 376 -2
-3 2 12 1491 376 1
-2 2 12 150 128 1
-1 2 12 470 117 1
0 2 12 1114 158 1
-1 -2 -12 492 174 1
-2 -2 -12 145 145 1
-5 3 -10 217 232 -2
5 -3 -12 217 232 1
-4 3 12 58 188 1
-3 3 12 275 232 1
-2 3 12 190 138 1
-1 3 12 1288 347 1
0 3 12 73 111 1
-1 -3 -12 796 246 1
1 10 -13 275 217 1
0 10 -13 507 232 1
-1 10 -13 174 217 1
3 9 -13 188 159 1
2 9 -13 0 145 1
1 9 -13 101 174 1
0 9 -13 883 289 1
-1 9 -13 0 145 1
-2 9 -13 637 275 1
5 8 -13 0 203 1
4 8 -13 0 159 1
3 8 -13 14 174 1
2 8 -13 260 174 1
1 8 -13 174 159 1
0 8 -13 347 217 1
-1 8 -13 87 174 1
-2 8 -13 116 174 1
-3 8 -13 188 217 1
5 7 -13 0 130 1
-4 -7 13 119 149 1
-3 -7 13 0 114 1
-2 -7 13 190 118 1
-1 -7 13 461 177 1
0 -7 13 476 174 1
1 -7 13 679 193 1
2 -7 13 309 163 1
3 -7 13 34 166 1
-4 7 -13 14 217 1
-5 -6 13 391 260 1
-4 -6 13 61 119 1
-3 -6 13 113 116 1
-2 -6 13 175 128 1
-1 -6 13 475 163 1
0 -6 13 128 136 1
1 -6 13 1491 362 1
2 -6 13 315 124 1
-3 6 -13 326 164 1
-4 6 -13 0 128 1
-5 -5 13 478 289 1
-4 -5 13 318 232 1
-3 -5 13 1994 296 1
-2 -5 13 579 173 1
-1 -5 13 2010 290 1
0 -5 13 42 110 1
1 -5 13 1098 181 1
2 -5 13 25 95 1
-3 5 -13 0 111 1
-4 5 -13 236 139 1
-6 -4 13 608 246 1
-5 -4 13 217 260 1
-4 -4 13 868 275 1
-3 -4 13 152 125 1
-2 -4 13 1330 243 1
-1 -4 13 52 128 1
0 -4 13 1776 209 1
1 -4 13 63 91 1
-2 4 -13 281 125 1
-3 4 -13 554 152 1
-4 4 -13 259 138 1
-6 -3 13 1867 362 1
-5 -3 13 1201 318 1
-4 -3 13 868 318 1
-3 -3 13 137 118 1
-2 -3 13 899 210 1
-1 -3 13 163 128 1
0 -3 13 236 108 1
1 -3 13 108 96 1
-2 3 -13 384 138 1
-3 3 -13 145 113 1
-4 3 -13 1030 187 1
-6 -2 13 564 260 1
-5 -2 13 5629 695 1
-4 -2 13 3421 399 1
-3 -2 13 348 173 1
-2 -2 13 478 156 1
-1 -2 13 292 108 1
0 -2 13 267 102 1
1 -2 13 259 103 1
-2 2 -13 819 163 1
3 -2 -14 238 117 -2
-3 2 -13 238 117 1
4 -2 -15 0 174 -2
-4 2 -13 0 174 1
-6 -1 13 344 187 1
-5 -1 13 2376 336 1
-4 -1 13 496 191 1
-3 -1 13 376 232 1
-2 -1 13 55 122 1
-1 -1 13 656 130 1
0 1 12 1007 155 -2
0 -1 13 1007 155 1
1 -1 -13 638 160 -2
-1 1 -13 638 160 1
2 -1 -14 158 117 -2
-2 1 -13 158 117 1
3 -1 -15 324 139 -2
-3 1 -13 324 139 1
-7 0 13 0 232 1
-6 0 13 764 240 1
-5 0 13 635 212 1
-4 0 13 586 184 1
-3 0 13 116 188 1
2 0 11 133 128 -2
-2 0 13 133 128 1
1 0 12 760 149 -2
-1 0 13 760 149 1
0 0 13 190 100 -2
0 0 13 190 100 1
1 0 -14 508 156 -2
-1 0 -13 508 156 1
2 0 -15 909 174 -2
-2 0 -13 909 174 1
-3 0 -13 130 159 1
-7 1 13 0 217 1
5 -1 9 823 211 -2
-5 1 13 823 211 1
4 -1 10 1100 347 -2
-4 1 13 1100 347 1
3 -1 11 217 217 -2
-3 1 13 217 217 1
2 -1 12 1957 290 -2
-2 1 13 1957 290 1
1 -1 13 1364 229 -2
-1 1 13 1364 229 1
0 1 13 1476 192 1
-1 -1 -13 360 136 1
-2 -1 -13 405 188 1
-5 2 -10 188 246 -2
5 -2 -13 188 246 1
3 -2 12 949 218 -2
-3 2 13 949 218 1
-2 2 13 1443 253 1
-1 2 13 1112 210 1
0 2 13 0 120 1
-1 -2 -13 839 260 1
3 -3 -13 101 203 1
2 9 -14 984 304 1
1 9 -14 333 232 1
0 9 -14 579 260 1
-1 9 -14 0 188 1
4 8 -14 289 174 1
3 8 -14 304 174 1
2 8 -14 695 260 1
1 8 -14 0 174 1
0 8 -14 159 174 1
-1 8 -14 275 188 1
-2 8 -14 174 217 1
5 7 -14 0 174 1
4 7 -14 188 188 1
3 7 -14 174 174 1
2 7 -14 362 188 1
1 7 -14 72 174 1
0 7 -14 622 260 1
-1 7 -14 29 159 1
-2 7 -14 724 304 1
-3 7 -14 0 188 1
4 6 -14 0 159 1
3 6 -14 695 260 1
-2 -6 14 67 129 1
-1 -6 14 130 129 1
0 -6 14 0 114 1
1 -6 14 101 142 1
2 -6 14 337 165 1
-3 6 -14 131 156 1
-5 -5 14 260 304 1
-4 -5 14 0 136 1
-3 -5 14 38 142 1
-2 -5 14 203 138 1
-1 -5 14 433 163 1
0 -5 14 141 142 1
1 -5 14 553 189 1
-2 5 -14 181 133 1
-3 5 -14 130 143 1
-6 -4 14 116 260 1
-5 -4 14 0 246 1
-4 -4 14 391 289 1
-3 -4 14 453 153 1
-2 -4 14 200 149 1
-1 -4 14 161 136 1
0 -4 14 54 112 1
1 -4 14 797 158 1
-2 4 -14 296 139 1
-3 4 -14 890 205 1
-6 -3 14 0 246 1
-5 -3 14 535 304 1
-4 -3 14 110 198 1
-3 -3 14 107 126 1
-2 -3 14 181 149 1
-1 -3 14 210 143 1
0 -3 14 482 158 1
1 -3 14 518 122 1
-2 3 -14 122 128 1
-3 3 -14 708 177 1
-6 -2 14 1027 362 1
-5 -2 14 388 229 1
-4 -2 14 48 184 1
-3 -2 14 110 136 1
-2 -2 14 107 138 1
-1 -2 14 438 147 1
0 -2 14 482 126 1
-1 2 -14 1431 245 1
-2 2 -14 135 111 1
3 -2 -15 1100 347 -2
-3 2 -14 1100 347 1
5 1 -14 0 318 1
-4 -1 14 825 333 1
-3 -1 14 60 152 1
-2 -1 14 1461 257 1
-1 -1 14 130 118 1
0 -1 14 961 166 1
1 -1 -14 550 164 -2
-1 1 -14 550 164 1
2 -1 -15 374 138 -2
-2 1 -14 374 138 1
5 0 -14 275 318 1
-3 0 14 535 194 1
2 0 12 31 132 -2
-2 0 14 31 132 1
1 0 13 410 152 -2
-1 0 14 410 152 1
0 0 14 435 143 -2
0 0 14 435 143 1
1 0 -15 618 163 -2
-1 0 -14 618 163 1
2 0 -16 420 232 -2
-2 0 -14 420 232 1
-3 1 -12 897 289 -2
3 -1 -14 897 289 1
-2 1 -13 14 174 -2
2 -1 -14 14 174 1
1 -1 14 347 163 -2
-1 1 14 347 163 1
0 -1 -14 1548 347 1
-1 -1 -14 376 159 1
-3 2 -13 43 203 -2
3 -2 -14 43 203 1
2 -2 -14 333 232 1
3 8 -15 246 159 1
2 8 -15 333 232 1
1 8 -15 145 188 1
0 8 -15 203 232 1
4 7 -15 130 188 1
3 7 -15 0 145 1
2 7 -15 58 188 1
1 7 -15 72 174 1
0 7 -15 275 217 1
-1 7 -15 0 174 1
5 6 -15 130 232 1
4 6 -15 29 232 1
3 6 -15 29 145 1
2 6 -15 651 275 1
1 6 -15 159 232 1
0 6 -15 941 333 1
-1 6 -15 289 275 1
-2 6 -15 0 174 1
4 5 -15 29 188 1
3 5 -15 116 260 1
2 5 -15 174 203 1
1 5 -15 608 246 1
0 5 -15 651 289 1
-1 5 -15 0 174 1
-2 5 -15 246 203 1
4 4 -15 156 184 1
3 4 -15 0 145 1
2 4 -15 14 188 1
-1 -4 15 761 226 1
0 -4 15 80 138 1
1 -4 15 1081 239 1
-2 4 -15 66 122 1
4 3 -15 116 188 1
3 3 -15 174 217 1
2 3 -15 376 232 1
-1 -3 15 384 179 1
0 -3 15 138 149 1
-1 3 -15 0 159 1
-2 3 -15 449 260 1
5 2 -15 0 362 1
3 2 -15 420 246 1
2 2 -15 58 130 1
-1 -2 15 1692 291 1
0 -2 15 232 183 1
-1 2 -15 529 189 1
3 1 -15 463 275 1
2 1 -15 1548 362 1
1 1 -15 825 318 1
0 -1 15 1957 312 1
1 -1 -15 319 169 -2
-1 1 -15 319 169 1
3 0 -15 376 260 1
-2 0 -13 970 304 -2
2 0 -15 970 304 1
-1 0 -14 535 232 -2
1 0 -15 535 232 1
0 0 -15 839 289 -2
0 0 -15 839 289 1
-4 1 -12 159 203 -2
4 -1 -15 159 203 1
-3 1 -13 116 260 -2
3 -1 -15 116 260 1
-2 1 -14 289 246 -2
2 -1 -15 289 246 1
-1 1 -15 116 203 -2
1 -1 -15 116 203 1
-3 2 -14 449 304 -2
3 -2 -15 449 304 1
2 7 -16 43 174 1
3 6 -16 43 203 1
2 6 -16 449 246 1
1 6 -16 101 188 1
0 6 -16 0 188 1
4 5 -16 0 188 1
3 5 -16 434 217 1
2 5 -16 0 174 1
1 5 -16 0 174 1
0 5 -16 362 246 1
5 4 -16 0 188 1
4 4 -16 43 232 1
3 4 -16 420 275 1
2 4 -16 72 203 1
1 4 -16 941 318 1
0 4 -16 246 217 1
4 3 -16 0 188 1
3 3 -16 87 232 1
2 3 -16 14 188 1
1 3 -16 203 217 1
0 3 -16 333 217 1
4 2 -16 579 275 1
3 2 -16 318 289 1
2 2 -16 999 362 1
1 2 -16 478 246 1
0 2 -16 333 217 1
4 1 -16 1433 391 1
3 1 -16 0 203 1
2 1 -16 1216 376 1
1 1 -16 622 260 1
3 0 -16 0 203 1
loop_
_twin_individual_id
_twin_individual_mass_fraction_refined
1 0.739(8)
2 0.261(8)
