#------------------------------------------------------------------------------
#$Date: 2019-11-24 16:42:25 +0200 (Sun, 24 Nov 2019) $
#$Revision: 238616 $
#$URL: file:///home/coder/svn-repositories/cod/cif/1/55/54/1555402.cif $
#------------------------------------------------------------------------------
#
# This file is available in the Crystallography Open Database (COD),
# http://www.crystallography.net/
#
# All data on this site have been placed in the public domain by the
# contributors.
#
data_1555402
loop_
_publ_author_name
'Arunprasath, Dhanarajan'
'Muthupandi, Pandi'
'Sekar, Govindasamy'
_publ_section_title
;
 Palladium-Catalyzed Intermolecular Carbene Insertion Prior to
 Intramolecular Heck Cyclization: Synthesis of
 2-Arylidene-3-aryl-1-indanones.
;
_journal_issue                   21
_journal_name_full               'Organic letters'
_journal_page_first              5448
_journal_page_last               5451
_journal_paper_doi               10.1021/acs.orglett.5b02803
_journal_volume                  17
_journal_year                    2015
_chemical_formula_moiety         'C22 H15 Cl O'
_chemical_formula_sum            'C22 H15 Cl O'
_chemical_formula_weight         330.79
_space_group_crystal_system      triclinic
_space_group_IT_number           2
_space_group_name_Hall           '-P 1'
_space_group_name_H-M_alt        'P -1'
_atom_sites_solution_hydrogens   geom
_audit_creation_method           SHELXL-2014/7
_cell_angle_alpha                92.224(2)
_cell_angle_beta                 101.2532(19)
_cell_angle_gamma                92.809(2)
_cell_formula_units_Z            2
_cell_length_a                   6.5461(2)
_cell_length_b                   8.9980(4)
_cell_length_c                   14.2101(5)
_cell_measurement_reflns_used    5211
_cell_measurement_temperature    296(2)
_cell_measurement_theta_max      26.46
_cell_measurement_theta_min      2.27
_cell_volume                     818.92(5)
_computing_cell_refinement       'Bruker SAINT'
_computing_data_collection       'Bruker APEX2'
_computing_data_reduction        'Bruker SAINT'
_computing_molecular_graphics    'Bruker SHELXTL'
_computing_publication_material  'Bruker SHELXTL'
_computing_structure_refinement  'SHELXL-2014/7 (Sheldrick, 2014)'
_computing_structure_solution    'SHELXS-97 (Sheldrick 2008)'
_diffrn_ambient_temperature      296(2)
_diffrn_measured_fraction_theta_full 0.998
_diffrn_measured_fraction_theta_max 0.998
_diffrn_measurement_device_type  'Bruker APEX-II CCD'
_diffrn_measurement_method       '\f and \w scans'
_diffrn_radiation_type           MoK\a
_diffrn_radiation_wavelength     0.71073
_diffrn_reflns_av_R_equivalents  0.0249
_diffrn_reflns_av_unetI/netI     0.0242
_diffrn_reflns_Laue_measured_fraction_full 0.998
_diffrn_reflns_Laue_measured_fraction_max 0.998
_diffrn_reflns_limit_h_max       7
_diffrn_reflns_limit_h_min       -7
_diffrn_reflns_limit_k_max       10
_diffrn_reflns_limit_k_min       -10
_diffrn_reflns_limit_l_max       16
_diffrn_reflns_limit_l_min       -16
_diffrn_reflns_number            9903
_diffrn_reflns_point_group_measured_fraction_full 0.998
_diffrn_reflns_point_group_measured_fraction_max 0.998
_diffrn_reflns_theta_full        24.998
_diffrn_reflns_theta_max         24.998
_diffrn_reflns_theta_min         1.463
_exptl_absorpt_coefficient_mu    0.238
_exptl_absorpt_correction_T_max  0.972
_exptl_absorpt_correction_T_min  0.943
_exptl_absorpt_correction_type   multi-scan
_exptl_absorpt_process_details   'SADABS V2014/5(Bruker AXS.Inc)'
_exptl_crystal_colour            Colourless
_exptl_crystal_density_diffrn    1.341
_exptl_crystal_description       Block
_exptl_crystal_F_000             344
_exptl_crystal_size_max          0.250
_exptl_crystal_size_mid          0.160
_exptl_crystal_size_min          0.120
_refine_diff_density_max         0.171
_refine_diff_density_min         -0.246
_refine_diff_density_rms         0.032
_refine_ls_extinction_method     none
_refine_ls_goodness_of_fit_ref   1.049
_refine_ls_hydrogen_treatment    constr
_refine_ls_matrix_type           full
_refine_ls_number_parameters     217
_refine_ls_number_reflns         2885
_refine_ls_number_restraints     0
_refine_ls_restrained_S_all      1.049
_refine_ls_R_factor_all          0.0448
_refine_ls_R_factor_gt           0.0354
_refine_ls_shift/su_max          0.000
_refine_ls_shift/su_mean         0.000
_refine_ls_structure_factor_coef Fsqd
_refine_ls_weighting_details
'w=1/[\s^2^(Fo^2^)+(0.0364P)^2^+0.2539P] where P=(Fo^2^+2Fc^2^)/3'
_refine_ls_weighting_scheme      calc
_refine_ls_wR_factor_gt          0.0863
_refine_ls_wR_factor_ref         0.0924
_reflns_Friedel_coverage         0.000
_reflns_number_gt                2431
_reflns_number_total             2885
_reflns_threshold_expression     'I > 2\s(I)'
_cod_data_source_file            ol5b02803_si_003.cif
_cod_data_source_block           157
_cod_database_code               1555402
_shelx_shelxl_version_number     2014/7
_shelx_space_group_comment
; 
The symmetry employed for this shelxl refinement is uniquely defined 
by the following loop, which should always be used as a source of 
symmetry information in preference to the above space-group names. 
They are only intended as comments. 
;
_shelx_estimated_absorpt_t_min   0.943
_shelx_estimated_absorpt_t_max   0.972
_shelx_res_file
; 
  
    157.res created by SHELXL-2014/7 
  
TITL 157 in P-1 
CELL 0.71073   6.54610   8.99800  14.21010  92.2240 101.2532  92.8092 
ZERR    2.00   0.00020   0.00040   0.00050   0.0021   0.0019   0.0020 
LATT 1 
SFAC C  H  O  Cl 
UNIT 44  30  2  2 
OMIT -3 50 
L.S. 8 
ACTA 
BOND $H 
FMAP 2 
PLAN 5 
SIZE 0.25 0.16 0.12 
CONF 
TEMP 23.000 
WGHT    0.036400    0.253900 
FVAR       0.21549 
MOLE 1 
C1    1    0.340957    0.585869    0.100014    11.00000    0.05830    0.03911 = 
         0.04917   -0.00049    0.00638    0.01114 
AFIX  43 
H1    2    0.199532    0.557191    0.084346    11.00000   -1.20000 
AFIX   0 
C2    1    0.433365    0.672507    0.039818    11.00000    0.08924    0.04273 = 
         0.04739    0.00802    0.01271    0.01685 
AFIX  43 
H2    2    0.352301    0.701705   -0.016975    11.00000   -1.20000 
AFIX   0 
C3    1    0.643478    0.716904    0.061921    11.00000    0.08888    0.03982 = 
         0.05967    0.00496    0.02901    0.00169 
AFIX  43 
H3    2    0.701420    0.775046    0.020023    11.00000   -1.20000 
AFIX   0 
C4    1    0.766764    0.675545    0.145379    11.00000    0.06644    0.04117 = 
         0.06085   -0.00142    0.02592   -0.00109 
AFIX  43 
H4    2    0.907913    0.705094    0.160904    11.00000   -1.20000 
AFIX   0 
C5    1    0.674325    0.588098    0.206073    11.00000    0.04918    0.03204 = 
         0.04782   -0.00503    0.01521    0.00433 
C6    1    0.772018    0.529439    0.298316    11.00000    0.03801    0.03691 = 
         0.04975   -0.00760    0.01181    0.00360 
C7    1    0.605301    0.443773    0.334487    11.00000    0.03344    0.03540 = 
         0.04070   -0.00564    0.00659    0.00397 
C8    1    0.403088    0.444123    0.260217    11.00000    0.03486    0.03638 = 
         0.03803   -0.00334    0.00739    0.00666 
AFIX  13 
H8    2    0.295946    0.490590    0.288931    11.00000   -1.20000 
AFIX   0 
C9    1    0.464359    0.542610    0.184519    11.00000    0.04820    0.02788 = 
         0.04145   -0.00447    0.01160    0.00851 
C10   1    0.651191    0.384319    0.420369    11.00000    0.03326    0.04297 = 
         0.04264   -0.00636    0.00152    0.00357 
AFIX  43 
H10   2    0.789974    0.400950    0.451057    11.00000   -1.20000 
AFIX   0 
C11   1    0.524188    0.298426    0.474689    11.00000    0.03842    0.03997 = 
         0.03644   -0.00410    0.00294    0.00489 
C12   1    0.623953    0.238036    0.559376    11.00000    0.03784    0.06132 = 
         0.04702    0.00452   -0.00165    0.00318 
AFIX  43 
H12   2    0.768064    0.252483    0.578069    11.00000   -1.20000 
AFIX   0 
C13   1    0.515287    0.157763    0.615996    11.00000    0.05026    0.06319 = 
         0.04548    0.01475   -0.00200    0.00505 
AFIX  43 
H13   2    0.585084    0.117588    0.671781    11.00000   -1.20000 
AFIX   0 
C14   1    0.301525    0.137778    0.588823    11.00000    0.05049    0.03992 = 
         0.04254    0.00002    0.00646   -0.00048 
C15   1    0.197404    0.196643    0.506055    11.00000    0.03820    0.05388 = 
         0.04403   -0.00280    0.00274    0.00058 
AFIX  43 
H15   2    0.053054    0.182764    0.488409    11.00000   -1.20000 
AFIX   0 
C16   1    0.307253    0.275787    0.449740    11.00000    0.03897    0.05552 = 
         0.03528    0.00228    0.00022    0.00524 
AFIX  43 
H16   2    0.236021    0.315089    0.393938    11.00000   -1.20000 
AFIX   0 
C17   1    0.319942    0.291030    0.214985    11.00000    0.03750    0.03636 = 
         0.03091    0.00208    0.00607    0.00274 
C18   1    0.453325    0.183064    0.199681    11.00000    0.04173    0.03931 = 
         0.04719   -0.00053    0.00356    0.00494 
AFIX  43 
H18   2    0.596381    0.202206    0.220039    11.00000   -1.20000 
AFIX   0 
C19   1    0.378769    0.046640    0.154613    11.00000    0.06477    0.03531 = 
         0.05248   -0.00160    0.00584    0.00937 
AFIX  43 
H19   2    0.471561   -0.024679    0.144746    11.00000   -1.20000 
AFIX   0 
C20   1    0.167576    0.016295    0.124365    11.00000    0.07145    0.03898 = 
         0.04597   -0.00040    0.00604   -0.01034 
AFIX  43 
H20   2    0.117043   -0.075194    0.093835    11.00000   -1.20000 
AFIX   0 
C21   1    0.031957    0.122319    0.139649    11.00000    0.04592    0.06430 = 
         0.05803   -0.00686    0.00448   -0.01319 
AFIX  43 
H21   2   -0.111060    0.102091    0.120001    11.00000   -1.20000 
AFIX   0 
C22   1    0.107246    0.259188    0.184184    11.00000    0.03863    0.05429 = 
         0.05542   -0.00816    0.00735    0.00348 
AFIX  43 
H22   2    0.014173    0.330575    0.193552    11.00000   -1.20000 
AFIX   0 
CL1   4    0.159156    0.041909    0.660936    11.00000    0.06450    0.06425 = 
         0.05992    0.01416    0.00976   -0.01021 
O1    3    0.956196    0.545734    0.337165    11.00000    0.03632    0.06394 = 
         0.06995   -0.00020    0.00896   -0.00266 
HKLF 4 
  
REM  157 in P-1 
REM R1 =  0.0354 for    2431 Fo > 4sig(Fo)  and  0.0448 for all    2885 data 
REM    217 parameters refined using      0 restraints 
  
END 
  
WGHT      0.0369      0.2470 
  
REM Highest difference peak  0.171,  deepest hole -0.246,  1-sigma level  0.032 
Q1    1   0.5840  0.4448  0.3823  11.00000  0.05    0.17 
Q2    1   0.3768  0.5944  0.1651  11.00000  0.05    0.16 
Q3    1   0.6493  0.3636  0.3577  11.00000  0.05    0.16 
Q4    1   0.5160  0.4433  0.2976  11.00000  0.05    0.15 
Q5    1   0.5492  0.5999  0.1998  11.00000  0.05    0.14 
;
_shelx_res_checksum              77936
_shelx_hkl_file
; 
  -1   0   0  133.65    3.63 
  -1   0   0  135.01    3.65 
  -1   0   0  135.41    3.65 
  -1   0   0  134.90    3.63 
   1   0   0  131.58    3.63 
   1   0   0  138.62    3.65 
   1   0   0  133.03    3.64 
   1   0   0  134.66    3.63 
  -2   0   0    2.68    0.10 
  -2   0   0    2.75    0.09 
  -2   0   0    2.62    0.10 
   2   0   0    2.55    0.08 
   2   0   0    2.71    0.10 
   2   0   0    2.41    0.08 
   2   0   0    2.50    0.09 
   2   0   0    2.54    0.10 
  -3   0   0    0.83    0.06 
   3   0   0    0.83    0.05 
   3   0   0    0.90    0.06 
   3   0   0    0.93    0.07 
  -4   0   0    5.59    0.20 
   4   0   0    5.25    0.17 
   4   0   0    5.61    0.19 
   4   0   0    5.52    0.20 
   4   0   0    5.37    0.18 
  -5   0   0    0.70    0.06 
   5   0   0    0.67    0.08 
   5   0   0    0.78    0.06 
   5   0   0    0.66    0.07 
  -6   0   0    4.19    0.16 
   6   0   0    4.05    0.16 
   6   0   0    4.46    0.20 
   6   0   0    3.13    0.19 
  -7   0   0    0.14    0.05 
  -8   0   0    0.02    0.05 
  -8   1   0    0.00    0.05 
   7  -1   0    3.76    0.20 
  -7   1   0    2.99    0.14 
   6  -1   0    1.25    0.13 
   6  -1   0    1.06    0.09 
  -6   1   0    1.05    0.08 
   5  -1   0   -0.01    0.05 
   5  -1   0    0.04    0.04 
   5  -1   0    0.01    0.03 
  -5   1   0    0.02    0.03 
   4  -1   0    1.65    0.11 
   4  -1   0    1.69    0.08 
  -4   1   0    1.76    0.08 
   3  -1   0   94.12    2.62 
   3  -1   0   98.27    2.65 
  -3   1   0   98.09    2.62 
   2  -1   0    9.70    0.29 
   2  -1   0    9.55    0.28 
   2  -1   0    9.65    0.29 
  -2   1   0   10.03    0.28 
  -2   1   0    9.39    0.29 
  -2   1   0    9.99    0.27 
   1  -1   0  370.36   10.33 
   1  -1   0  398.70   10.30 
   1  -1   0  403.24   10.30 
  -1   1   0  374.37   10.37 
  -1   1   0  364.16   10.32 
   0  -1   0   25.77    0.71 
   0  -1   0   24.91    0.70 
   0   1   0   26.28    0.70 
   0   1   0   25.45    0.71 
  -1  -1   0    6.68    0.19 
  -1  -1   0    6.55    0.19 
  -1  -1   0    6.78    0.19 
  -1  -1   0    6.60    0.20 
   1   1   0    6.56    0.19 
   1   1   0    6.29    0.19 
   1   1   0    6.55    0.19 
  -2  -1   0   31.22    0.88 
  -2  -1   0   31.80    0.88 
  -2  -1   0   32.13    0.86 
  -2  -1   0   31.88    0.87 
   2   1   0   31.53    0.88 
   2   1   0   32.02    0.87 
   2   1   0   30.90    0.87 
   2   1   0   32.04    0.88 
  -3  -1   0   20.67    0.60 
  -3  -1   0   20.93    0.58 
  -3  -1   0   20.89    0.60 
   3   1   0   20.52    0.59 
   3   1   0   21.02    0.59 
   3   1   0   20.67    0.60 
  -4  -1   0   14.34    0.45 
  -4  -1   0   14.76    0.42 
   4   1   0   14.59    0.43 
   4   1   0   14.56    0.44 
   4   1   0   14.00    0.43 
  -5  -1   0    0.05    0.05 
  -5  -1   0    0.02    0.03 
   5   1   0    0.02    0.04 
   5   1   0    0.02    0.03 
   5   1   0    0.06    0.04 
  -6  -1   0    3.59    0.15 
   6   1   0    3.62    0.16 
   6   1   0    3.85    0.18 
  -7  -1   0    0.19    0.06 
  -8   2   0   -0.03    0.04 
   7  -2   0    1.21    0.13 
  -7   2   0    1.19    0.08 
   6  -2   0    0.04    0.06 
   6  -2   0   -0.04    0.04 
  -6   2   0    0.00    0.03 
   5  -2   0    2.42    0.15 
   5  -2   0    2.42    0.11 
  -5   2   0    2.30    0.17 
  -5   2   0    2.16    0.10 
  -5   2   0    2.27    0.16 
   4  -2   0   12.43    0.38 
   4  -2   0   13.18    0.41 
  -4   2   0   13.30    0.43 
  -4   2   0   12.60    0.42 
  -4   2   0   13.09    0.37 
  -4   2   0   13.06    0.37 
   3  -2   0    0.01    0.02 
   3  -2   0    0.08    0.03 
   3  -2   0    0.02    0.03 
  -3   2   0    0.02    0.02 
  -3   2   0   -0.02    0.02 
  -3   2   0   -0.09    0.04 
  -3   2   0    0.07    0.05 
   2  -2   0    2.48    0.10 
   2  -2   0    2.46    0.08 
  -2   2   0    2.53    0.12 
  -2   2   0    2.02    0.10 
   1  -2   0  103.40    2.78 
  -1   2   0   99.15    2.73 
  -1   2   0  100.04    2.76 
   0  -2   0    4.54    0.15 
   0  -2   0    4.59    0.14 
   0  -2   0    4.53    0.16 
   0   2   0    4.37    0.16 
   0   2   0    4.65    0.14 
  -1  -2   0    2.79    0.10 
  -1  -2   0    2.72    0.10 
  -1  -2   0    2.78    0.11 
  -1  -2   0    2.74    0.10 
   1   2   0    2.72    0.11 
   1   2   0    2.63    0.10 
   1   2   0    2.70    0.10 
  -2  -2   0    0.69    0.05 
  -2  -2   0    0.65    0.05 
  -2  -2   0    0.67    0.04 
  -2  -2   0    0.62    0.05 
  -2  -2   0    0.66    0.04 
   2   2   0    0.65    0.04 
   2   2   0    0.67    0.05 
   2   2   0    0.68    0.05 
  -3  -2   0   22.36    0.63 
  -3  -2   0   21.82    0.63 
  -3  -2   0   22.44    0.61 
  -3  -2   0   21.93    0.63 
   3   2   0   21.83    0.63 
   3   2   0   21.27    0.62 
   3   2   0   22.05    0.63 
   3   2   0   22.05    0.63 
  -4  -2   0    0.19    0.03 
  -4  -2   0    0.14    0.04 
   4   2   0    0.20    0.04 
   4   2   0    0.17    0.04 
   4   2   0    0.18    0.04 
   4   2   0    0.21    0.04 
  -5  -2   0   11.59    0.38 
  -5  -2   0   11.47    0.34 
   5   2   0   10.69    0.35 
   5   2   0   11.18    0.37 
   5   2   0   10.96    0.36 
   5   2   0   11.13    0.36 
  -6  -2   0    0.07    0.07 
  -6  -2   0    0.20    0.05 
   6   2   0    0.16    0.06 
   6   2   0    0.26    0.06 
  -7  -2   0    0.06    0.05 
   7   2   0    0.01    0.06 
   7  -3   0    0.19    0.08 
   7  -3   0    0.24    0.06 
   6  -3   0    5.26    0.20 
   6  -3   0    5.37    0.25 
  -6   3   0    5.65    0.27 
   5  -3   0   -0.07    0.04 
   5  -3   0   -0.02    0.06 
  -5   3   0    0.03    0.08 
   4  -3   0   15.56    0.46 
   4  -3   0   16.77    0.50 
  -4   3   0   15.28    0.50 
  -4   3   0   16.16    0.53 
   3  -3   0    0.11    0.04 
   3  -3   0    0.13    0.03 
   3  -3   0    0.06    0.02 
  -3   3   0   -0.01    0.03 
  -3   3   0    0.03    0.05 
   2  -3   0    2.81    0.13 
   2  -3   0    3.13    0.12 
  -2   3   0    3.32    0.13 
  -2   3   0    3.24    0.16 
  -1   3   0    0.74    0.05 
  -1   3   0    0.61    0.08 
   0  -3   0    4.33    0.15 
   0  -3   0    4.20    0.15 
   0   3   0    4.34    0.18 
  -1  -3   0    0.18    0.03 
  -1  -3   0    0.17    0.03 
  -1  -3   0    0.23    0.03 
   1   3   0    0.17    0.03 
   1   3   0    0.18    0.03 
   1   3   0    0.20    0.05 
  -2  -3   0   58.74    1.62 
  -2  -3   0   56.90    1.62 
  -2  -3   0   59.85    1.61 
   2   3   0   60.47    1.61 
   2   3   0   57.30    1.62 
  -3  -3   0    4.41    0.16 
  -3  -3   0    4.53    0.17 
  -3  -3   0    4.41    0.16 
  -3  -3   0    4.50    0.16 
   3   3   0    4.43    0.17 
   3   3   0    4.57    0.16 
  -4  -3   0    2.71    0.13 
  -4  -3   0    2.76    0.10 
  -4  -3   0    2.80    0.12 
  -4  -3   0    2.81    0.13 
   4   3   0    2.68    0.12 
   4   3   0    2.80    0.13 
   4   3   0    2.80    0.13 
  -5  -3   0    0.39    0.07 
  -5  -3   0    0.46    0.05 
   5   3   0    0.33    0.07 
   5   3   0    0.45    0.06 
  -6  -3   0    0.09    0.05 
  -6  -3   0    0.11    0.07 
   6   3   0    0.21    0.06 
  -7  -3   0   -0.01    0.08 
  -7  -3   0    0.02    0.05 
   7   3   0   -0.02    0.05 
   7  -4   0    0.16    0.08 
   7  -4   0    0.11    0.06 
   6  -4   0    0.26    0.09 
   6  -4   0    0.21    0.06 
  -6   4   0    0.45    0.10 
   5  -4   0    5.44    0.20 
   5  -4   0    5.58    0.24 
  -5   4   0    5.78    0.28 
   4  -4   0    1.37    0.08 
   4  -4   0    1.25    0.11 
  -4   4   0    1.35    0.15 
   3  -4   0    8.78    0.24 
   3  -4   0    8.27    0.27 
  -3   4   0    7.84    0.28 
  -3   4   0    7.72    0.32 
   2  -4   0    2.92    0.13 
  -2   4   0    3.38    0.13 
  -2   4   0    3.38    0.17 
  -1   4   0   32.50    0.96 
   0  -4   0   28.15    0.79 
   0  -4   0   28.50    0.80 
   0   4   0   26.79    0.83 
  -1  -4   0   11.13    0.34 
  -1  -4   0   11.44    0.35 
  -1  -4   0   11.10    0.34 
   1   4   0   11.14    0.38 
   1   4   0   11.02    0.34 
  -2  -4   0    2.23    0.11 
  -2  -4   0    2.33    0.10 
   2   4   0    2.42    0.11 
   2   4   0    2.32    0.11 
   2   4   0    2.28    0.13 
  -3  -4   0    6.25    0.22 
  -3  -4   0    6.37    0.21 
   3   4   0    6.47    0.23 
   3   4   0    6.57    0.22 
  -4  -4   0    1.53    0.10 
  -4  -4   0    1.47    0.11 
  -4  -4   0    1.71    0.11 
   4   4   0    1.61    0.10 
   4   4   0    1.89    0.11 
  -5  -4   0   11.93    0.39 
  -5  -4   0   12.48    0.41 
  -5  -4   0   12.02    0.36 
   5   4   0   11.83    0.41 
  -6  -4   0    0.06    0.07 
  -6  -4   0    0.07    0.04 
   6   4   0    0.07    0.06 
  -7  -4   0    0.07    0.05 
  -7  -4   0    0.06    0.08 
   7   4   0    0.09    0.07 
   7  -5   0    0.09    0.06 
   7  -5   0    0.13    0.09 
   6  -5   0    0.63    0.11 
   6  -5   0    0.64    0.08 
  -6   5   0    0.66    0.14 
   5  -5   0   -0.04    0.05 
  -5   5   0    0.07    0.09 
   4  -5   0    4.25    0.16 
   4  -5   0    4.11    0.19 
  -4   5   0    4.13    0.24 
   3  -5   0    0.47    0.04 
   3  -5   0    0.43    0.06 
  -3   5   0    0.39    0.10 
  -2   5   0    2.41    0.16 
  -2   5   0    2.35    0.11 
  -1   5   0   13.26    0.46 
   0  -5   0    0.12    0.04 
   0   5   0    0.10    0.06 
  -1  -5   0   17.84    0.52 
   1   5   0   17.06    0.57 
   1   5   0   16.88    0.52 
  -2  -5   0   13.43    0.41 
   2   5   0   13.10    0.41 
   2   5   0   12.90    0.45 
  -3  -5   0    5.61    0.21 
   3   5   0    5.17    0.21 
   3   5   0    5.35    0.20 
  -4  -5   0    1.86    0.12 
  -4  -5   0    2.23    0.13 
   4   5   0    2.16    0.12 
   4   5   0    2.18    0.14 
  -5  -5   0    5.69    0.24 
  -5  -5   0    5.63    0.22 
  -5  -5   0    5.60    0.19 
   5   5   0    5.35    0.24 
  -6  -5   0    0.44    0.09 
  -6  -5   0    0.47    0.06 
   6   5   0    0.43    0.08 
  -7  -5   0    0.16    0.06 
   7  -6   0    0.41    0.11 
   7  -6   0    0.23    0.07 
   6  -6   0    1.23    0.11 
   6  -6   0    1.22    0.14 
  -6   6   0    1.67    0.21 
   5  -6   0    0.00    0.05 
   5  -6   0   -0.02    0.08 
  -5   6   0    0.25    0.11 
   4  -6   0    1.72    0.10 
   4  -6   0    1.77    0.13 
  -4   6   0    2.06    0.20 
   3  -6   0    4.23    0.19 
  -3   6   0    4.26    0.25 
  -2   6   0    7.09    0.32 
  -2   6   0    7.41    0.24 
   1  -6   0    0.33    0.06 
  -1   6   0    0.23    0.08 
   0  -6   0    0.19    0.05 
   0   6   0    0.08    0.07 
  -1  -6   0    0.12    0.04 
   1   6   0    0.14    0.07 
   1   6   0    0.14    0.05 
  -2  -6   0    4.30    0.18 
   2   6   0    4.08    0.18 
   2   6   0    4.07    0.23 
  -3  -6   0   15.37    0.48 
   3   6   0   14.47    0.48 
  -4  -6   0   37.76    1.09 
   4   6   0   37.22    1.14 
   4   6   0   37.77    1.10 
  -5  -6   0    1.02    0.11 
   5   6   0    1.27    0.12 
  -6  -6   0    0.75    0.11 
   6   6   0    0.60    0.10 
   6  -7   0    3.91    0.24 
   6  -7   0    3.59    0.18 
  -6   7   0    4.21    0.31 
   5  -7   0    4.38    0.23 
   5  -7   0    4.03    0.17 
  -5   7   0    4.89    0.31 
   4  -7   0    0.66    0.09 
  -4   7   0    0.64    0.14 
   3  -7   0    1.32    0.12 
  -3   7   0    1.41    0.18 
  -2   7   0    1.79    0.19 
   1  -7   0    1.91    0.14 
  -1   7   0    1.75    0.18 
   0  -7   0   15.35    0.50 
   0   7   0   14.89    0.55 
  -1  -7   0   24.98    0.76 
   1   7   0   25.13    0.83 
  -2  -7   0    1.02    0.10 
   2   7   0    1.19    0.12 
   2   7   0    1.06    0.15 
  -3  -7   0    4.29    0.20 
   3   7   0    3.95    0.20 
  -4  -7   0    1.57    0.13 
   4   7   0    1.58    0.14 
   5   7   0   -0.02    0.06 
   6   7   0    0.25    0.08 
   6  -8   0    0.47    0.08 
   5  -8   0    3.53    0.21 
  -5   8   0    3.77    0.32 
   4  -8   0    0.06    0.06 
  -4   8   0   -0.01    0.11 
  -3   8   0    3.86    0.28 
   2  -8   0    2.80    0.18 
  -2   8   0    2.82    0.24 
   1  -8   0   14.16    0.48 
  -1   8   0   13.30    0.54 
   0  -8   0    7.49    0.30 
   0   8   0    7.71    0.37 
  -1  -8   0    0.17    0.06 
   1   8   0    0.18    0.10 
  -2  -8   0    0.08    0.05 
   2   8   0    0.11    0.09 
  -3  -8   0    0.18    0.07 
   3   8   0    0.14    0.08 
   4   8   0   -0.02    0.06 
   5   8   0    0.63    0.10 
   5  -9   0    1.48    0.16 
  -5   9   0    1.27    0.23 
   4  -9   0    0.13    0.13 
  -4   9   0    0.21    0.15 
   3  -9   0   -0.02    0.06 
  -3   9   0   -0.01    0.11 
   2  -9   0    3.64    0.22 
  -2   9   0    3.64    0.29 
   1  -9   0    0.87    0.12 
  -1   9   0    0.74    0.16 
   0  -9   0    0.27    0.08 
   0   9   0    0.41    0.13 
  -1  -9   0    0.36    0.08 
   1   9   0    0.44    0.14 
  -2  -9   0    0.10    0.07 
   2   9   0    0.14    0.11 
  -3  -9   0   -0.02    0.06 
   4   9   0    0.56    0.11 
  -4  10   0    0.23    0.18 
  -3  10   0    0.08    0.14 
   2 -10   0    0.11    0.07 
  -2  10   0    0.06    0.13 
   1 -10   0    0.04    0.06 
  -1  10   0   -0.03    0.11 
   0 -10   0    1.00    0.13 
   0  10   0    0.99    0.21 
  -1 -10   0    0.04    0.06 
   1  10   0    0.01    0.12 
  -2 -10   0    1.38    0.15 
   2  10   0    1.87    0.26 
  -2  11   0    0.62    0.20 
  -1  11   0    0.17    0.16 
   0  11   0    0.07    0.14 
  -1 -11   0    0.76    0.12 
   1  11   0    1.09    0.23 
   1  11  -1    0.36    0.17 
  -1 -11   1    0.35    0.09 
   0  11  -1    0.11    0.15 
   0 -11   1   -0.01    0.07 
  -1  11  -1    0.45    0.19 
  -2  11  -1    0.39    0.18 
  -2 -10   1    0.13    0.07 
   1  10  -1    1.16    0.21 
  -1 -10   1    0.91    0.12 
   0  10  -1    0.08    0.12 
   0 -10   1    0.04    0.06 
  -1  10  -1    0.13    0.13 
   1 -10   1    0.08    0.07 
  -2  10  -1    0.10    0.13 
   2 -10   1    0.02    0.06 
  -3  10  -1    0.04    0.13 
  -4  10  -1    0.34    0.18 
   4   9  -1    0.33    0.10 
   3   9  -1   -0.10    0.07 
  -3  -9   1    0.00    0.06 
   2   9  -1    0.07    0.10 
  -2  -9   1    0.05    0.06 
   1   9  -1    0.43    0.13 
  -1  -9   1    0.32    0.07 
   0   9  -1    0.10    0.10 
   0  -9   1    0.01    0.05 
  -1   9  -1    0.09    0.11 
   1  -9   1    0.12    0.07 
  -2   9  -1    0.80    0.17 
   2  -9   1    0.73    0.12 
  -3   9  -1   -0.04    0.10 
  -4   9  -1    0.16    0.14 
  -5   9  -1    0.34    0.17 
   5  -9   1    0.38    0.10 
   5   8  -1    0.08    0.08 
   4   8  -1    1.37    0.14 
   3   8  -1    2.21    0.16 
  -3  -8   1    2.46    0.15 
   2   8  -1    8.95    0.40 
   2   8  -1    8.55    0.33 
  -2  -8   1    8.81    0.33 
   1   8  -1    3.20    0.24 
  -1  -8   1    3.29    0.18 
   0   8  -1   -0.01    0.09 
   0  -8   1    0.00    0.05 
  -1   8  -1    0.86    0.16 
   1  -8   1    0.90    0.11 
  -2   8  -1    2.43    0.22 
  -3   8  -1    0.12    0.11 
  -4   8  -1    0.08    0.12 
   4  -8   1    0.15    0.07 
  -5   8  -1    1.18    0.22 
   5  -8   1    1.47    0.15 
   6   7  -1    0.19    0.08 
  -6  -7   1    0.13    0.08 
   5   7  -1    0.00    0.06 
   4   7  -1    4.21    0.21 
  -4  -7   1    4.62    0.20 
   3   7  -1    5.76    0.25 
  -3  -7   1    5.92    0.24 
   2   7  -1    1.02    0.14 
   2   7  -1    1.11    0.11 
  -2  -7   1    0.91    0.10 
   1   7  -1    0.06    0.09 
  -1  -7   1    0.01    0.05 
   0   7  -1    1.65    0.18 
   0  -7   1    1.91    0.14 
  -1   7  -1   10.66    0.44 
   1  -7   1   11.44    0.39 
  -2   7  -1    3.97    0.25 
  -3   7  -1    2.33    0.21 
  -4   7  -1    1.51    0.21 
   4  -7   1    1.83    0.14 
  -5   7  -1    2.06    0.25 
   5  -7   1    1.66    0.12 
   5  -7   1    2.15    0.17 
  -6   7  -1    0.20    0.14 
   6  -7   1    0.15    0.06 
   6  -7   1    0.16    0.09 
   6   6  -1    0.93    0.12 
  -6  -6   1    1.20    0.12 
   5   6  -1   -0.02    0.05 
  -4  -6   1    0.06    0.06 
   3   6  -1    1.82    0.12 
  -3  -6   1    1.50    0.11 
   2   6  -1    4.20    0.23 
   2   6  -1    4.29    0.19 
  -2  -6   1    4.45    0.18 
   1   6  -1    3.89    0.17 
   1   6  -1    3.79    0.22 
  -1  -6   1    4.07    0.17 
   0   6  -1    0.04    0.06 
   0  -6   1    0.05    0.04 
  -1   6  -1    0.64    0.11 
  -2   6  -1    0.09    0.04 
  -2   6  -1    0.08    0.07 
  -3   6  -1    0.17    0.08 
   3  -6   1    0.30    0.06 
  -4   6  -1    8.47    0.38 
   4  -6   1    8.33    0.26 
   4  -6   1    8.16    0.30 
  -5   6  -1    0.63    0.13 
   5  -6   1    0.38    0.07 
   5  -6   1    0.54    0.10 
  -6   6  -1    0.25    0.12 
   6  -6   1    0.32    0.07 
   6  -6   1    0.27    0.09 
   7   5  -1    0.41    0.09 
  -7  -5   1    0.37    0.07 
  -7  -5   1    0.35    0.10 
   6   5  -1    1.11    0.12 
  -6  -5   1    0.95    0.11 
  -6  -5   1    1.11    0.09 
   5   5  -1    0.01    0.06 
  -5  -5   1    0.02    0.06 
   4   5  -1    2.61    0.15 
   4   5  -1    2.69    0.13 
  -4  -5   1    2.71    0.13 
   3   5  -1    0.46    0.06 
  -3  -5   1    0.34    0.05 
   2   5  -1    9.02    0.31 
   2   5  -1    9.08    0.35 
  -2  -5   1    9.34    0.30 
   1   5  -1   16.54    0.56 
   1   5  -1   16.81    0.51 
  -1  -5   1   17.39    0.51 
   0   5  -1    9.65    0.37 
   0  -5   1   10.21    0.33 
  -1   5  -1   12.33    0.44 
   1  -5   1   12.86    0.38 
  -2   5  -1    8.47    0.34 
  -2   5  -1    8.56    0.28 
  -3   5  -1    4.12    0.23 
   3  -5   1    4.71    0.14 
   3  -5   1    4.52    0.18 
  -4   5  -1    1.41    0.16 
   4  -5   1    1.44    0.09 
   4  -5   1    1.45    0.12 
  -5   5  -1    7.34    0.33 
   5  -5   1    6.21    0.23 
   5  -5   1    6.31    0.28 
  -6   5  -1    1.31    0.18 
   6  -5   1    0.91    0.09 
   6  -5   1    0.88    0.12 
   7  -5   1    0.12    0.06 
   7  -5   1    0.02    0.09 
   7   4  -1    1.90    0.16 
  -7  -4   1    1.96    0.13 
  -7  -4   1    1.75    0.17 
   6   4  -1    0.76    0.10 
  -6  -4   1    0.69    0.07 
  -6  -4   1    0.78    0.10 
   5   4  -1   16.23    0.52 
  -5  -4   1   16.57    0.52 
  -5  -4   1   16.19    0.48 
   4   4  -1    3.39    0.14 
   4   4  -1    3.47    0.16 
  -4  -4   1    3.50    0.15 
  -4  -4   1    3.48    0.14 
  -4  -4   1    3.74    0.16 
   3   4  -1   13.90    0.44 
   3   4  -1   14.13    0.42 
  -3  -4   1   13.91    0.42 
   2   4  -1    5.33    0.20 
  -2  -4   1    5.75    0.19 
  -2  -4   1    5.46    0.20 
   1   4  -1    0.76    0.09 
   1   4  -1    0.69    0.06 
  -1  -4   1    0.61    0.05 
  -1  -4   1    0.61    0.05 
  -1  -4   1    0.56    0.05 
   0   4  -1    0.29    0.04 
   0   4  -1    0.23    0.06 
   0  -4   1    0.25    0.04 
  -1   4  -1    2.77    0.11 
  -1   4  -1    2.48    0.15 
   1  -4   1    2.75    0.11 
   1  -4   1    2.73    0.11 
  -2   4  -1    4.39    0.20 
  -2   4  -1    4.49    0.17 
   2  -4   1    4.11    0.16 
   2  -4   1    4.48    0.15 
  -3   4  -1    4.59    0.22 
  -3   4  -1    4.37    0.21 
   3  -4   1    4.76    0.18 
   3  -4   1    4.38    0.17 
   3  -4   1    4.88    0.15 
  -4   4  -1    0.83    0.12 
   4  -4   1    0.75    0.06 
   4  -4   1    0.62    0.08 
  -5   4  -1    1.16    0.16 
   5  -4   1    1.04    0.10 
   5  -4   1    1.03    0.12 
  -6   4  -1    5.56    0.28 
   6  -4   1    5.01    0.25 
   6  -4   1    5.07    0.20 
   7  -4   1    0.05    0.09 
   7  -4   1    0.35    0.07 
   7   3  -1    0.84    0.11 
  -7  -3   1    1.20    0.10 
   6   3  -1    2.16    0.14 
   6   3  -1    2.15    0.13 
  -6  -3   1    2.12    0.11 
  -6  -3   1    2.12    0.16 
   5   3  -1    6.76    0.23 
   5   3  -1    6.75    0.26 
   5   3  -1    6.81    0.25 
  -5  -3   1    6.80    0.23 
  -5  -3   1    7.25    0.27 
   4   3  -1    2.69    0.13 
   4   3  -1    2.60    0.13 
   4   3  -1    2.71    0.11 
  -4  -3   1    2.66    0.11 
  -4  -3   1    2.60    0.10 
  -4  -3   1    2.61    0.12 
  -4  -3   1    2.65    0.13 
   3   3  -1    7.87    0.26 
   3   3  -1    7.81    0.26 
   3   3  -1    7.65    0.24 
  -3  -3   1    7.84    0.24 
  -3  -3   1    7.66    0.26 
  -3  -3   1    7.79    0.25 
  -3  -3   1    7.92    0.25 
   2   3  -1    0.52    0.04 
   1   3  -1    3.32    0.13 
   1   3  -1    3.44    0.15 
  -1  -3   1    3.52    0.13 
  -1  -3   1    3.43    0.13 
  -1  -3   1    3.47    0.12 
   0   3  -1    1.92    0.08 
   0   3  -1    1.82    0.11 
   0  -3   1    1.82    0.08 
   0  -3   1    1.74    0.07 
  -1   3  -1   35.35    0.98 
  -1   3  -1   34.97    1.01 
   1  -3   1   35.53    0.98 
  -2   3  -1    0.06    0.04 
  -2   3  -1    0.09    0.03 
   2  -3   1    0.08    0.03 
  -3   3  -1    5.32    0.21 
  -3   3  -1    5.40    0.20 
  -3   3  -1    5.50    0.23 
   3  -3   1    5.50    0.20 
   3  -3   1    5.45    0.19 
   3  -3   1    5.85    0.18 
  -4   3  -1    7.68    0.30 
   4  -3   1    7.80    0.27 
   4  -3   1    7.59    0.25 
  -5   3  -1   11.18    0.40 
   5  -3   1   10.59    0.38 
   5  -3   1   10.43    0.34 
   6  -3   1    5.19    0.20 
   6  -3   1    5.80    0.26 
   7  -3   1    0.02    0.05 
   7  -3   1    0.01    0.08 
   7   2  -1    1.69    0.14 
   7   2  -1    1.82    0.13 
  -7  -2   1    1.87    0.12 
   6   2  -1   -0.02    0.05 
   6   2  -1   -0.03    0.05 
  -6  -2   1   -0.01    0.04 
   5   2  -1    1.50    0.10 
   5   2  -1    1.24    0.08 
   5   2  -1    1.34    0.10 
  -5  -2   1    1.18    0.08 
  -5  -2   1    1.26    0.11 
   4   2  -1    3.65    0.14 
   4   2  -1    3.86    0.14 
   4   2  -1    3.72    0.15 
  -4  -2   1    3.77    0.16 
  -4  -2   1    3.88    0.13 
   3   2  -1    1.29    0.06 
  -3  -2   1    1.10    0.07 
  -3  -2   1    1.11    0.07 
  -3  -2   1    1.19    0.06 
  -3  -2   1    1.16    0.05 
   2   2  -1    2.34    0.09 
   2   2  -1    2.37    0.10 
   2   2  -1    2.37    0.10 
  -2  -2   1    2.43    0.09 
  -2  -2   1    2.39    0.09 
  -2  -2   1    2.36    0.10 
  -2  -2   1    2.46    0.09 
   1   2  -1   19.11    0.54 
   1   2  -1   19.24    0.54 
  -1  -2   1   19.49    0.55 
  -1  -2   1   19.00    0.54 
  -1  -2   1   19.28    0.56 
  -1  -2   1   19.28    0.54 
   0   2  -1    7.97    0.24 
   0   2  -1    8.00    0.26 
   0  -2   1    8.35    0.26 
   0  -2   1    8.03    0.24 
   0  -2   1    8.18    0.24 
  -1   2  -1    0.64    0.07 
  -1   2  -1    0.83    0.06 
  -2   2  -1   14.31    0.43 
  -2   2  -1   14.30    0.43 
  -2   2  -1   14.41    0.43 
  -2   2  -1   14.00    0.44 
   2  -2   1   14.96    0.40 
   2  -2   1   14.48    0.42 
   2  -2   1   14.79    0.42 
  -3   2  -1   14.28    0.46 
  -3   2  -1   15.05    0.41 
  -3   2  -1   15.06    0.41 
   3  -2   1   14.33    0.46 
   3  -2   1   14.92    0.42 
   3  -2   1   14.43    0.44 
  -4   2  -1   12.78    0.37 
  -4   2  -1   12.99    0.37 
   4  -2   1   12.36    0.38 
   4  -2   1   13.31    0.41 
  -5   2  -1    0.13    0.04 
   5  -2   1    0.06    0.04 
   5  -2   1    0.05    0.06 
  -6   2  -1    0.02    0.03 
   6  -2   1   -0.01    0.06 
   6  -2   1    0.06    0.04 
  -7   2  -1    0.01    0.04 
   7  -2   1    0.18    0.08 
   7  -2   1    0.13    0.05 
  -8  -1   1    0.05    0.06 
   7   1  -1   -0.09    0.06 
  -7  -1   1   -0.02    0.04 
   6   1  -1   -0.01    0.05 
   6   1  -1    0.09    0.05 
  -6  -1   1    0.02    0.04 
   5   1  -1    5.00    0.19 
   5   1  -1    5.30    0.20 
   5   1  -1    5.43    0.19 
  -5  -1   1    5.17    0.18 
   4   1  -1    2.00    0.09 
   4   1  -1    2.15    0.11 
   4   1  -1    2.12    0.10 
  -4  -1   1    1.94    0.09 
  -4  -1   1    2.05    0.11 
   3   1  -1    1.96    0.09 
   3   1  -1    2.19    0.08 
   3   1  -1    2.29    0.09 
  -3  -1   1    1.98    0.09 
  -3  -1   1    1.91    0.10 
  -3  -1   1    1.99    0.08 
   2   1  -1   36.26    1.03 
   2   1  -1   36.90    1.03 
   2   1  -1   37.85    1.03 
   2   1  -1   37.87    1.02 
  -2  -1   1   37.15    1.03 
  -2  -1   1   37.17    1.03 
  -2  -1   1   38.45    1.02 
   1   1  -1   10.02    0.28 
   1   1  -1   10.09    0.28 
   1   1  -1    8.65    0.27 
  -1  -1   1   10.12    0.28 
  -1  -1   1    9.56    0.27 
   0   1  -1    0.35    0.02 
   0   1  -1    0.37    0.03 
   0   1  -1    0.37    0.02 
   0  -1   1    0.37    0.03 
   0  -1   1    0.37    0.02 
   0  -1   1    0.35    0.02 
  -1   1  -1    1.20    0.05 
  -1   1  -1    1.23    0.06 
  -1   1  -1    0.98    0.06 
  -1   1  -1    1.13    0.05 
  -1   1  -1    1.22    0.06 
   1  -1   1    0.95    0.06 
   1  -1   1    1.15    0.05 
   1  -1   1    1.07    0.05 
   1  -1   1    1.14    0.04 
   1  -1   1    1.14    0.04 
  -2   1  -1   17.23    0.46 
  -2   1  -1   16.83    0.48 
  -2   1  -1   16.40    0.47 
  -2   1  -1   17.06    0.46 
   2  -1   1   16.45    0.47 
   2  -1   1   16.54    0.48 
   2  -1   1   16.14    0.48 
  -3   1  -1   34.07    0.92 
  -3   1  -1   33.00    0.94 
   3  -1   1   33.91    0.93 
   3  -1   1   33.07    0.94 
  -4   1  -1    9.11    0.27 
   4  -1   1    9.04    0.28 
   4  -1   1    8.72    0.30 
   4  -1   1    9.24    0.30 
  -5   1  -1    2.05    0.10 
   5  -1   1    1.94    0.10 
   5  -1   1    2.06    0.14 
   5  -1   1    1.90    0.12 
   5  -1   1    1.90    0.09 
  -6   1  -1    4.79    0.18 
   6  -1   1    4.70    0.18 
   6  -1   1    5.35    0.23 
   6  -1   1    5.21    0.18 
  -7   1  -1    0.11    0.05 
   7  -1   1    0.11    0.07 
  -8   0   1    0.10    0.06 
  -7   0   1   -0.01    0.04 
   6   0  -1    4.74    0.20 
   6   0  -1    5.80    0.23 
   6   0  -1    5.35    0.20 
  -6   0   1    5.22    0.19 
   5   0  -1    1.15    0.10 
   5   0  -1    0.89    0.08 
   5   0  -1    1.01    0.08 
  -5   0   1    1.06    0.07 
   4   0  -1    1.18    0.07 
   4   0  -1    1.27    0.09 
  -4   0   1    1.25    0.07 
   3   0  -1   36.86    1.02 
   3   0  -1   37.20    1.03 
  -3   0   1   36.31    1.01 
   2   0  -1   18.84    0.53 
   2   0  -1   18.62    0.51 
   2   0  -1   18.05    0.53 
  -2   0   1   19.29    0.53 
   1   0  -1    8.68    0.25 
   1   0  -1    8.80    0.24 
  -1   0   1    8.80    0.24 
  -1   0   1    8.79    0.25 
  -1   0   1    8.39    0.24 
   0   0  -1   32.33    0.84 
   0   0  -1   27.90    0.84 
   0   0  -1   32.71    0.85 
   0   0   1   31.68    0.84 
   0   0   1   30.26    0.84 
  -1   0  -1   12.53    0.34 
  -1   0  -1   12.00    0.34 
  -1   0  -1   12.19    0.35 
  -1   0  -1   12.35    0.34 
  -1   0  -1   11.36    0.34 
   1   0   1   12.30    0.34 
   1   0   1   11.50    0.34 
   1   0   1   12.30    0.35 
   1   0   1   12.28    0.34 
   1   0   1   12.63    0.34 
  -2   0  -1   67.38    1.81 
  -2   0  -1   67.82    1.80 
  -2   0  -1   64.74    1.81 
   2   0   1   66.03    1.81 
   2   0   1   66.16    1.80 
   2   0   1   67.12    1.81 
   2   0   1   64.50    1.81 
   2   0   1   67.56    1.80 
   2   0   1   66.02    1.80 
  -3   0  -1    6.08    0.20 
  -3   0  -1    5.96    0.18 
   3   0   1    6.19    0.21 
   3   0   1    5.78    0.20 
   3   0   1    5.93    0.18 
   3   0   1    5.98    0.18 
  -4   0  -1    0.11    0.03 
  -4   0  -1    0.14    0.04 
   4   0   1    0.16    0.03 
   4   0   1    0.16    0.04 
   4   0   1    0.17    0.05 
   4   0   1    0.15    0.03 
  -5   0  -1    1.13    0.10 
  -5   0  -1    1.08    0.07 
   5   0   1    1.12    0.11 
   5   0   1    1.15    0.07 
   5   0   1    0.97    0.08 
   5   0   1    1.10    0.07 
  -6   0  -1   -0.01    0.04 
   6   0   1    0.00    0.04 
   6   0   1    0.03    0.06 
  -7   0  -1    0.11    0.05 
  -8   1   1    0.24    0.06 
   7  -1  -1    2.10    0.16 
  -7   1   1    1.65    0.11 
   6  -1  -1    3.34    0.18 
  -6   1   1    2.96    0.13 
   5  -1  -1    8.79    0.30 
   5  -1  -1    7.98    0.28 
   5  -1  -1    8.58    0.26 
  -5   1   1    8.45    0.26 
   4  -1  -1   11.68    0.37 
   4  -1  -1   11.42    0.34 
  -4   1   1   11.74    0.34 
   3  -1  -1   17.45    0.50 
   3  -1  -1   18.22    0.52 
  -3   1   1   18.06    0.50 
   2  -1  -1   24.65    0.71 
   2  -1  -1   23.92    0.69 
  -2   1   1   25.35    0.72 
  -2   1   1   26.96    0.69 
  -2   1   1   25.13    0.70 
  -2   1   1   25.35    0.69 
   1  -1  -1    8.88    0.26 
   1  -1  -1    9.94    0.26 
   1  -1  -1    9.45    0.26 
   1  -1  -1    9.13    0.27 
  -1   1   1    9.84    0.25 
  -1   1   1    9.04    0.26 
  -1   1   1    8.33    0.27 
   0  -1  -1    2.44    0.12 
   0   1   1    2.31    0.12 
  -1  -1  -1    0.27    0.03 
  -1  -1  -1    0.27    0.03 
  -1  -1  -1    0.29    0.02 
  -1  -1  -1    0.40    0.03 
  -1  -1  -1    0.33    0.02 
  -1  -1  -1    0.32    0.02 
   1   1   1    0.25    0.02 
   1   1   1    0.33    0.03 
   1   1   1    0.31    0.02 
   1   1   1    0.31    0.02 
  -2  -1  -1   27.14    0.74 
  -2  -1  -1   26.16    0.74 
  -2  -1  -1   26.82    0.73 
  -2  -1  -1   25.81    0.74 
  -2  -1  -1   26.67    0.72 
   2   1   1   25.91    0.73 
   2   1   1   26.78    0.74 
   2   1   1   25.53    0.73 
  -3  -1  -1    4.28    0.16 
  -3  -1  -1    4.41    0.16 
  -3  -1  -1    4.24    0.16 
  -3  -1  -1    4.21    0.14 
   3   1   1    4.56    0.16 
   3   1   1    4.39    0.16 
   3   1   1    4.56    0.15 
  -4  -1  -1    0.73    0.05 
  -4  -1  -1    0.64    0.07 
   4   1   1    0.75    0.08 
   4   1   1    0.71    0.05 
   4   1   1    0.70    0.07 
  -5  -1  -1    0.69    0.08 
  -5  -1  -1    0.70    0.07 
   5   1   1    0.92    0.10 
   5   1   1    0.71    0.08 
   5   1   1    0.77    0.07 
  -6  -1  -1    5.15    0.24 
  -6  -1  -1    4.97    0.19 
   6   1   1    5.19    0.19 
   6   1   1    5.30    0.22 
  -7  -1  -1   -0.03    0.04 
  -8   2   1    0.10    0.05 
   7  -2  -1    0.33    0.09 
  -7   2   1    0.26    0.05 
   6  -2  -1    1.38    0.09 
   6  -2  -1    1.43    0.13 
  -6   2   1    1.21    0.08 
   5  -2  -1    1.44    0.09 
   5  -2  -1    1.80    0.13 
  -5   2   1    1.44    0.13 
  -5   2   1    1.46    0.08 
   4  -2  -1    2.84    0.14 
   4  -2  -1    2.66    0.11 
  -4   2   1    2.81    0.15 
  -4   2   1    2.91    0.11 
  -4   2   1    2.71    0.10 
   3  -2  -1    0.06    0.03 
   3  -2  -1    0.03    0.02 
  -3   2   1    0.04    0.02 
  -3   2   1   -0.01    0.03 
  -3   2   1    0.06    0.02 
   2  -2  -1   52.53    1.46 
   2  -2  -1   54.43    1.44 
   2  -2  -1   52.17    1.47 
  -2   2   1   53.27    1.46 
   1  -2  -1  223.69    6.09 
   0  -2  -1    0.20    0.03 
   0  -2  -1    0.33    0.03 
   0  -2  -1    0.32    0.05 
   0   2   1    0.21    0.03 
   0   2   1    0.17    0.04 
  -1  -2  -1   11.06    0.32 
  -1  -2  -1   11.44    0.33 
   1   2   1   11.15    0.34 
   1   2   1   10.80    0.32 
   1   2   1   11.45    0.33 
  -2  -2  -1    9.62    0.29 
  -2  -2  -1    9.66    0.29 
  -2  -2  -1    9.62    0.29 
  -2  -2  -1    9.55    0.29 
   2   2   1    9.52    0.29 
   2   2   1    9.42    0.29 
  -3  -2  -1    8.25    0.26 
  -3  -2  -1    7.96    0.26 
  -3  -2  -1    8.17    0.24 
  -3  -2  -1    8.28    0.25 
  -3  -2  -1    7.90    0.26 
   3   2   1    8.13    0.26 
   3   2   1    7.95    0.26 
   3   2   1    7.86    0.25 
  -4  -2  -1    0.31    0.05 
  -4  -2  -1    0.30    0.04 
  -4  -2  -1    0.25    0.05 
   4   2   1    0.21    0.04 
   4   2   1    0.30    0.05 
   4   2   1    0.33    0.05 
   4   2   1    0.25    0.05 
  -5  -2  -1    5.74    0.23 
  -5  -2  -1    5.67    0.19 
   5   2   1    5.19    0.21 
   5   2   1    5.25    0.21 
   5   2   1    5.43    0.21 
  -6  -2  -1    0.33    0.08 
  -6  -2  -1    0.39    0.06 
   6   2   1    0.47    0.07 
  -7  -2  -1    0.30    0.09 
  -7  -2  -1    0.22    0.06 
   7   2   1    0.20    0.07 
   7  -3  -1    0.57    0.07 
   7  -3  -1    0.58    0.10 
   6  -3  -1    3.61    0.16 
   6  -3  -1    3.85    0.20 
  -6   3   1    3.69    0.25 
   5  -3  -1    2.29    0.15 
   5  -3  -1    2.31    0.12 
  -5   3   1    2.53    0.20 
   4  -3  -1   13.72    0.44 
   4  -3  -1   14.04    0.41 
  -4   3   1   14.02    0.48 
   3  -3  -1   12.04    0.37 
   3  -3  -1   12.63    0.35 
  -3   3   1   11.96    0.42 
  -3   3   1   11.82    0.38 
   2  -3  -1   22.35    0.56 
   2  -3  -1   20.19    0.60 
   2  -3  -1   20.08    0.58 
  -2   3   1   19.68    0.63 
   0  -3  -1  136.35    3.72 
   0  -3  -1  142.92    3.73 
   0   3   1  132.88    3.75 
  -1  -3  -1   14.87    0.42 
  -1  -3  -1   13.85    0.41 
   1   3   1   13.77    0.41 
   1   3   1   14.13    0.42 
   1   3   1   13.89    0.44 
  -2  -3  -1    0.95    0.06 
  -2  -3  -1    0.93    0.06 
  -2  -3  -1    0.98    0.06 
  -2  -3  -1    0.92    0.06 
  -2  -3  -1    0.97    0.06 
   2   3   1    1.11    0.08 
   2   3   1    1.04    0.06 
   2   3   1    0.98    0.06 
  -3  -3  -1    1.79    0.09 
  -3  -3  -1    1.92    0.10 
  -3  -3  -1    1.90    0.09 
  -3  -3  -1    1.99    0.09 
   3   3   1    1.93    0.10 
   3   3   1    1.88    0.10 
  -4  -3  -1    2.74    0.11 
  -4  -3  -1    2.58    0.13 
  -4  -3  -1    2.77    0.13 
   4   3   1    2.66    0.13 
   4   3   1    2.66    0.13 
  -5  -3  -1    2.24    0.14 
  -5  -3  -1    2.20    0.11 
   5   3   1    2.22    0.12 
   5   3   1    2.20    0.13 
  -6  -3  -1    0.13    0.05 
  -6  -3  -1    0.06    0.07 
   6   3   1    0.18    0.06 
  -7  -3  -1    0.04    0.05 
  -7  -3  -1    0.03    0.08 
   7   3   1    0.12    0.07 
   7  -4  -1    1.09    0.10 
   7  -4  -1    1.03    0.13 
   6  -4  -1    0.58    0.10 
   6  -4  -1    0.68    0.08 
  -6   4   1    0.71    0.14 
   5  -4  -1    0.72    0.07 
   5  -4  -1    0.70    0.10 
  -5   4   1    0.75    0.13 
   4  -4  -1    0.17    0.04 
   4  -4  -1    0.18    0.05 
  -4   4   1    0.12    0.09 
   3  -4  -1   15.78    0.48 
   3  -4  -1   17.11    0.46 
  -3   4   1   15.44    0.54 
   2  -4  -1    6.18    0.20 
   2  -4  -1    6.05    0.21 
  -2   4   1    6.36    0.21 
  -2   4   1    6.20    0.26 
   1  -4  -1    1.87    0.10 
  -1   4   1    1.71    0.12 
   0  -4  -1    2.79    0.11 
   0  -4  -1    2.92    0.12 
   0   4   1    2.57    0.15 
  -1  -4  -1   17.63    0.51 
  -1  -4  -1   16.75    0.50 
   1   4   1   16.50    0.54 
   1   4   1   16.56    0.50 
   1   4   1   17.87    0.51 
  -2  -4  -1    2.36    0.11 
  -2  -4  -1    1.98    0.10 
  -2  -4  -1    2.04    0.10 
   2   4   1    2.02    0.13 
   2   4   1    2.06    0.10 
   2   4   1    2.25    0.10 
  -3  -4  -1    4.75    0.18 
  -3  -4  -1    4.59    0.17 
  -3  -4  -1    4.96    0.19 
   3   4   1    4.85    0.18 
   3   4   1    4.98    0.18 
  -4  -4  -1   12.71    0.40 
  -4  -4  -1   12.17    0.40 
   4   4   1   12.90    0.40 
   4   4   1   12.51    0.40 
  -5  -4  -1    0.45    0.08 
  -5  -4  -1    0.45    0.05 
  -5  -4  -1    0.58    0.08 
   5   4   1    0.42    0.07 
   5   4   1    0.48    0.09 
  -6  -4  -1    0.05    0.07 
  -6  -4  -1    0.05    0.04 
   6   4   1    0.09    0.06 
  -7  -4  -1    0.28    0.06 
  -7  -4  -1    0.44    0.11 
   7  -5  -1    1.63    0.12 
   7  -5  -1    1.06    0.13 
  -7   5   1    1.23    0.23 
   6  -5  -1    3.67    0.22 
   6  -5  -1    3.75    0.17 
  -6   5   1    3.96    0.26 
   5  -5  -1    0.44    0.06 
   5  -5  -1    0.37    0.09 
  -5   5   1    0.66    0.13 
   4  -5  -1    0.41    0.05 
   4  -5  -1    0.33    0.07 
  -4   5   1    0.50    0.11 
   3  -5  -1    0.61    0.07 
   3  -5  -1    0.74    0.05 
   3  -5  -1    0.75    0.07 
  -3   5   1    0.71    0.07 
  -3   5   1    0.71    0.11 
  -2   5   1    1.50    0.14 
   1  -5  -1    2.29    0.12 
  -1   5   1    2.00    0.15 
   0  -5  -1    0.16    0.04 
   0   5   1    0.09    0.06 
  -1  -5  -1    6.69    0.24 
   1   5   1    6.48    0.27 
   1   5   1    6.63    0.23 
  -2  -5  -1    6.16    0.23 
   2   5   1    6.29    0.26 
   2   5   1    6.08    0.22 
   2   5   1    6.56    0.23 
  -3  -5  -1    3.02    0.15 
   3   5   1    3.16    0.14 
   3   5   1    3.02    0.14 
  -4  -5  -1    6.47    0.24 
  -4  -5  -1    6.36    0.25 
   4   5   1    6.17    0.24 
   4   5   1    6.42    0.24 
  -5  -5  -1    1.57    0.09 
  -5  -5  -1    1.65    0.14 
  -5  -5  -1    1.63    0.12 
   5   5   1    1.49    0.12 
  -6  -5  -1    0.77    0.11 
  -6  -5  -1    0.70    0.07 
   6   5   1    0.55    0.09 
   7  -6  -1    2.49    0.20 
   7  -6  -1    2.59    0.16 
  -7   6   1    2.83    0.27 
   6  -6  -1    0.26    0.10 
   6  -6  -1    0.26    0.06 
  -6   6   1    0.40    0.13 
   5  -6  -1    1.13    0.10 
   5  -6  -1    1.22    0.13 
  -5   6   1    1.61    0.20 
   4  -6  -1    0.82    0.09 
   4  -6  -1    0.76    0.07 
  -4   6   1    0.87    0.15 
   3  -6  -1    0.03    0.05 
   3  -6  -1    0.05    0.04 
  -3   6   1    0.09    0.08 
   2  -6  -1    9.63    0.34 
  -2   6   1    9.09    0.38 
   1  -6  -1    0.15    0.05 
  -1   6   1    0.03    0.06 
   0  -6  -1    0.28    0.06 
   0   6   1    0.27    0.09 
  -1  -6  -1    1.49    0.10 
   1   6   1    1.43    0.14 
  -2  -6  -1    2.18    0.13 
   2   6   1    2.03    0.16 
   2   6   1    1.91    0.12 
  -3  -6  -1    0.28    0.06 
   3   6   1    0.36    0.08 
   3   6   1    0.56    0.08 
  -4  -6  -1    8.44    0.31 
   4   6   1    8.24    0.31 
  -5  -6  -1    0.49    0.09 
   5   6   1    0.59    0.09 
  -6  -6  -1    0.38    0.09 
   6   6   1    0.42    0.09 
   6  -7  -1    0.08    0.06 
   6  -7  -1    0.04    0.08 
  -6   7   1    0.30    0.13 
   5  -7  -1    0.23    0.06 
   5  -7  -1    0.21    0.09 
  -5   7   1    0.33    0.13 
   4  -7  -1    0.01    0.06 
  -4   7   1   -0.03    0.09 
   3  -7  -1    5.08    0.22 
  -3   7   1    5.35    0.30 
   2  -7  -1    1.15    0.12 
  -2   7   1    1.32    0.17 
   1  -7  -1   10.35    0.36 
  -1   7   1    9.28    0.41 
   0  -7  -1    4.34    0.20 
   0   7   1    4.11    0.25 
  -1  -7  -1   13.24    0.45 
   1   7   1   13.52    0.50 
  -2  -7  -1    1.09    0.10 
   2   7   1    1.23    0.15 
   2   7   1    1.04    0.12 
  -3  -7  -1    1.09    0.11 
   3   7   1    0.69    0.10 
  -4  -7  -1    0.05    0.06 
   4   7   1   -0.01    0.07 
  -5  -7  -1    0.11    0.07 
   5   7   1    0.05    0.07 
   6  -8  -1    0.67    0.11 
   6  -8  -1    0.70    0.09 
  -6   8   1    1.05    0.20 
   5  -8  -1    0.35    0.09 
  -5   8   1    0.38    0.14 
   4  -8  -1    0.56    0.11 
   4  -8  -1    0.94    0.11 
  -4   8   1    0.60    0.15 
   3  -8  -1    0.32    0.09 
  -3   8   1    0.53    0.13 
   2  -8  -1    2.99    0.19 
  -2   8   1    3.14    0.25 
   1  -8  -1    4.21    0.22 
  -1   8   1    4.12    0.28 
   0  -8  -1    0.29    0.07 
   0   8   1    0.36    0.12 
  -1  -8  -1    1.14    0.11 
   1   8   1    1.09    0.16 
  -2  -8  -1    1.12    0.12 
   2   8   1    1.28    0.18 
  -3  -8  -1    3.51    0.20 
   3   8   1    3.80    0.20 
   4   8   1    0.15    0.08 
   5   8   1    0.02    0.07 
   5  -9  -1    1.48    0.15 
  -5   9   1    1.44    0.24 
   4  -9  -1    0.49    0.14 
  -4   9   1    0.71    0.19 
   3  -9  -1    1.44    0.15 
  -3   9   1    1.70    0.24 
   2  -9  -1    0.25    0.08 
  -2   9   1    0.20    0.13 
   1  -9  -1    0.08    0.06 
  -1   9   1    0.00    0.10 
   0  -9  -1    1.86    0.15 
   0   9   1    2.29    0.23 
  -1  -9  -1    0.00    0.05 
   1   9   1    0.01    0.10 
  -2  -9  -1    0.22    0.08 
   2   9   1    0.17    0.13 
  -3  -9  -1    3.71    0.21 
  -4  10   1    0.11    0.16 
  -3  10   1    0.07    0.13 
   2 -10  -1    0.21    0.08 
  -2  10   1    0.18    0.14 
   1 -10  -1   -0.05    0.06 
  -1  10   1    0.14    0.13 
   0 -10  -1    0.89    0.12 
   0  10   1    1.06    0.21 
  -1 -10  -1    0.02    0.06 
   1  10   1    0.00    0.12 
  -2 -10  -1    3.88    0.23 
   2  10   1    4.24    0.32 
  -2  11   1    0.07    0.15 
  -1  11   1    0.89    0.22 
   0  11   1    0.08    0.15 
   1  11   1    0.55    0.19 
   1  11  -2    0.55    0.18 
  -1 -11   2    0.42    0.09 
   0  11  -2    0.13    0.14 
   0 -11   2    0.08    0.07 
  -1  11  -2    1.77    0.28 
  -2 -10   2   -0.02    0.06 
   1  10  -2    0.14    0.13 
  -1 -10   2    0.07    0.06 
   0  10  -2    2.06    0.26 
   0 -10   2    1.45    0.15 
  -1  10  -2    0.75    0.18 
   1 -10   2    0.31    0.09 
  -2  10  -2    1.13    0.22 
   2 -10   2    0.69    0.12 
  -3  10  -2    0.36    0.16 
   4   9  -2    0.45    0.10 
   3   9  -2    0.09    0.08 
  -2  -9   2    0.06    0.06 
   1   9  -2    0.41    0.13 
  -1  -9   2    0.22    0.07 
   0   9  -2    4.47    0.30 
   0  -9   2    4.67    0.23 
  -1   9  -2    1.66    0.22 
   1  -9   2    1.43    0.14 
  -2   9  -2    4.13    0.30 
  -3   9  -2    0.12    0.12 
  -4   9  -2   -0.05    0.13 
   5  -9   2    0.45    0.10 
   5   8  -2    0.08    0.07 
   4   8  -2    0.16    0.07 
   3   8  -2    4.05    0.21 
  -3  -8   2    4.06    0.19 
   2   8  -2    0.53    0.09 
  -2  -8   2    0.27    0.07 
   1   8  -2    0.25    0.10 
  -1  -8   2    0.25    0.07 
   0   8  -2    6.58    0.35 
   0  -8   2    7.20    0.29 
  -1   8  -2    1.24    0.18 
   1  -8   2    1.13    0.12 
  -2   8  -2    0.33    0.11 
  -3   8  -2   -0.01    0.10 
  -4   8  -2    1.85    0.24 
   4  -8   2    1.85    0.15 
  -5   8  -2    0.66    0.18 
   5  -8   2    0.69    0.11 
   6   7  -2    1.79    0.16 
  -6  -7   2    1.88    0.16 
   5   7  -2    0.21    0.07 
   4   7  -2    0.59    0.09 
   3   7  -2    1.07    0.12 
  -3  -7   2    0.97    0.10 
   2   7  -2    0.46    0.08 
  -2  -7   2    0.47    0.07 
   1   7  -2    2.87    0.21 
   1   7  -2    3.10    0.17 
  -1  -7   2    3.47    0.17 
   0   7  -2    2.65    0.20 
   0  -7   2    2.82    0.16 
  -1   7  -2    0.43    0.11 
   1  -7   2    0.43    0.07 
  -2   7  -2    1.23    0.17 
  -3   7  -2    0.82    0.15 
  -4   7  -2    0.11    0.11 
   4  -7   2    0.30    0.08 
  -5   7  -2    2.26    0.26 
   5  -7   2    2.19    0.13 
   5  -7   2    2.66    0.18 
  -6   7  -2    2.27    0.26 
   6  -7   2    1.58    0.13 
   6  -7   2    1.95    0.19 
   6   6  -2    0.29    0.08 
  -6  -6   2    0.20    0.08 
   5   6  -2    0.33    0.08 
   4   6  -2    6.34    0.26 
  -4  -6   2    6.10    0.23 
   3   6  -2    7.97    0.30 
  -3  -6   2    8.05    0.28 
   2   6  -2    1.60    0.11 
  -2  -6   2    1.66    0.10 
   1   6  -2    1.19    0.10 
   1   6  -2    1.15    0.13 
  -1  -6   2    1.04    0.09 
   0   6  -2    9.81    0.39 
  -1   6  -2    3.83    0.22 
   1  -6   2    4.12    0.16 
  -2   6  -2    1.83    0.12 
  -2   6  -2    2.01    0.17 
  -3   6  -2    8.59    0.37 
   3  -6   2    8.57    0.29 
  -4   6  -2    2.76    0.22 
   4  -6   2    2.68    0.12 
   4  -6   2    2.72    0.16 
  -5   6  -2    2.98    0.25 
   5  -6   2    2.80    0.19 
   5  -6   2    2.51    0.14 
  -6   6  -2    0.42    0.13 
   6  -6   2    0.43    0.07 
   6  -6   2    0.37    0.10 
   7   5  -2    0.62    0.10 
  -7  -5   2    0.44    0.07 
   6   5  -2    0.52    0.09 
  -6  -5   2    0.53    0.06 
  -6  -5   2    0.58    0.09 
   5   5  -2    0.03    0.06 
  -5  -5   2   -0.10    0.05 
   4   5  -2    5.62    0.24 
  -4  -5   2    5.77    0.20 
   3   5  -2    2.74    0.14 
  -3  -5   2    2.70    0.12 
   2   5  -2    5.21    0.21 
  -2  -5   2    5.61    0.20 
   1   5  -2  135.16    3.80 
   1   5  -2  134.99    3.75 
  -1  -5   2  141.94    3.75 
   0   5  -2    2.84    0.13 
   0   5  -2    2.75    0.17 
   0  -5   2    3.02    0.12 
  -1   5  -2    4.34    0.22 
   1  -5   2    4.56    0.17 
  -2   5  -2   25.10    0.78 
  -2   5  -2   24.09    0.71 
  -3   5  -2    0.78    0.12 
   3  -5   2    0.79    0.06 
   3  -5   2    0.86    0.09 
   3  -5   2    0.82    0.05 
  -4   5  -2    1.80    0.18 
   4  -5   2    1.95    0.10 
   4  -5   2    1.93    0.14 
  -5   5  -2   12.71    0.48 
   5  -5   2   12.01    0.42 
   5  -5   2   11.66    0.38 
  -6   5  -2    0.85    0.14 
   6  -5   2    0.77    0.09 
   6  -5   2    0.83    0.12 
   7  -5   2    0.02    0.09 
   7  -5   2    0.12    0.07 
   7   4  -2    0.76    0.11 
  -7  -4   2    0.85    0.09 
   6   4  -2    0.10    0.06 
   6   4  -2    0.13    0.06 
  -6  -4   2   -0.01    0.06 
  -6  -4   2    0.05    0.04 
   5   4  -2    0.31    0.07 
   5   4  -2    0.45    0.07 
   4   4  -2   48.94    1.39 
   4   4  -2   48.78    1.38 
   4   4  -2   49.92    1.35 
  -4  -4   2   48.14    1.36 
  -4  -4   2   47.31    1.35 
  -4  -4   2   49.97    1.37 
   3   4  -2    0.37    0.06 
   3   4  -2    0.45    0.06 
   2   4  -2   23.16    0.67 
   2   4  -2   22.27    0.67 
  -2  -4   2   23.40    0.65 
   1   4  -2    1.39    0.11 
   1   4  -2    1.30    0.08 
  -1  -4   2    1.46    0.08 
  -1  -4   2    1.48    0.08 
  -1  -4   2    1.46    0.08 
   0   4  -2    0.06    0.04 
   0   4  -2    0.04    0.03 
   0  -4   2    0.14    0.03 
  -1   4  -2    6.24    0.26 
   1  -4   2    6.39    0.22 
   1  -4   2    6.78    0.22 
  -2   4  -2   58.69    1.64 
  -2   4  -2   59.53    1.69 
  -3   4  -2   -0.02    0.06 
   3  -4   2    0.06    0.04 
   3  -4   2    0.04    0.03 
   3  -4   2    0.05    0.03 
  -4   4  -2    0.45    0.10 
   4  -4   2    0.28    0.07 
   4  -4   2    0.40    0.06 
  -5   4  -2    0.51    0.11 
   5  -4   2    0.48    0.07 
   5  -4   2    0.47    0.09 
   6  -4   2    3.43    0.16 
   6  -4   2    3.63    0.22 
   7  -4   2    0.02    0.06 
   7  -4   2   -0.05    0.08 
   7   3  -2    1.34    0.13 
   7   3  -2    1.32    0.13 
  -7  -3   2    1.36    0.11 
   6   3  -2    0.09    0.05 
   6   3  -2    0.08    0.05 
  -6  -3   2   -0.04    0.04 
   5   3  -2    9.33    0.29 
   5   3  -2    9.63    0.33 
   5   3  -2    9.52    0.34 
  -5  -3   2    9.77    0.34 
  -5  -3   2    9.78    0.30 
   4   3  -2    0.20    0.05 
   4   3  -2    0.18    0.03 
   4   3  -2    0.21    0.05 
  -4  -3   2    0.16    0.03 
  -4  -3   2    0.17    0.04 
  -4  -3   2    0.17    0.04 
   3   3  -2    1.42    0.07 
   3   3  -2    1.52    0.09 
   3   3  -2    1.61    0.09 
  -3  -3   2    1.38    0.08 
  -3  -3   2    1.53    0.07 
   2   3  -2   33.98    0.97 
  -2  -3   2   34.97    0.95 
  -2  -3   2   34.44    0.97 
   1   3  -2   25.55    0.73 
   1   3  -2   25.60    0.73 
  -1  -3   2   26.07    0.73 
  -1  -3   2   25.82    0.73 
   0   3  -2   32.01    0.93 
   0   3  -2   32.18    0.90 
   0  -3   2   31.95    0.90 
   0  -3   2   32.35    0.90 
  -1   3  -2   21.00    0.63 
  -1   3  -2   20.55    0.59 
   1  -3   2   21.12    0.60 
   1  -3   2   20.77    0.59 
  -2   3  -2    6.74    0.25 
  -2   3  -2    6.20    0.22 
   2  -3   2    6.41    0.21 
   2  -3   2    6.67    0.18 
   2  -3   2    6.20    0.20 
  -3   3  -2    3.31    0.16 
  -3   3  -2    3.35    0.16 
  -3   3  -2    2.88    0.14 
   3  -3   2    3.05    0.13 
   3  -3   2    3.27    0.14 
   3  -3   2    3.25    0.12 
  -4   3  -2   12.22    0.41 
   4  -3   2   11.90    0.39 
   4  -3   2   11.54    0.36 
   5  -3   2   12.24    0.42 
   5  -3   2   12.07    0.38 
   6  -3   2    0.71    0.08 
   6  -3   2    0.85    0.11 
   7  -3   2    0.04    0.05 
   7  -3   2    0.06    0.08 
   7   2  -2    0.27    0.07 
   7   2  -2    0.23    0.07 
  -7  -2   2    0.17    0.06 
   6   2  -2    2.85    0.15 
  -6  -2   2    2.93    0.13 
   5   2  -2    6.79    0.23 
   5   2  -2    7.58    0.26 
  -5  -2   2    7.20    0.23 
   4   2  -2   12.85    0.38 
   4   2  -2   13.26    0.41 
  -4  -2   2   13.20    0.41 
  -4  -2   2   12.46    0.44 
  -4  -2   2   13.62    0.38 
   3   2  -2    6.09    0.21 
   3   2  -2    6.01    0.18 
  -3  -2   2    6.07    0.20 
  -3  -2   2    6.27    0.18 
  -3  -2   2    6.15    0.20 
   2   2  -2    9.05    0.28 
   2   2  -2    8.96    0.28 
  -2  -2   2    9.24    0.26 
   1   2  -2   17.57    0.51 
   1   2  -2   17.94    0.51 
  -1  -2   2   17.72    0.51 
   0   2  -2   22.58    0.63 
   0   2  -2   22.16    0.63 
   0   2  -2   22.30    0.66 
   0  -2   2   22.74    0.63 
   0  -2   2   23.22    0.63 
  -1   2  -2   59.69    1.65 
  -1   2  -2   60.42    1.67 
   1  -2   2   59.88    1.64 
   1  -2   2   60.03    1.65 
   1  -2   2   60.89    1.63 
  -2   2  -2   10.95    0.35 
  -2   2  -2   10.86    0.34 
  -2   2  -2   10.78    0.34 
   2  -2   2   10.95    0.33 
   2  -2   2   11.30    0.31 
   2  -2   2   11.04    0.33 
  -3   2  -2    0.86    0.09 
  -3   2  -2    0.90    0.04 
  -3   2  -2    0.85    0.09 
   3  -2   2    0.84    0.06 
   3  -2   2    0.82    0.08 
  -4   2  -2    2.13    0.09 
  -4   2  -2    2.26    0.08 
  -4   2  -2    2.34    0.15 
   4  -2   2    2.20    0.11 
   4  -2   2    2.14    0.13 
  -5   2  -2    0.19    0.04 
  -5   2  -2    0.10    0.10 
   5  -2   2    0.17    0.05 
   5  -2   2    0.02    0.06 
  -6   2  -2   -0.01    0.03 
   6  -2   2    0.11    0.05 
   6  -2   2    0.10    0.07 
  -7   2  -2   -0.08    0.03 
   7  -2   2    0.01    0.07 
   7  -2   2    0.03    0.05 
  -8  -1   2    0.06    0.06 
   7   1  -2    0.25    0.07 
  -7  -1   2    0.13    0.05 
   6   1  -2    4.43    0.19 
   6   1  -2    4.54    0.20 
  -6  -1   2    4.18    0.17 
   5   1  -2    3.72    0.16 
   5   1  -2    3.81    0.16 
   5   1  -2    3.55    0.14 
  -5  -1   2    3.71    0.14 
   4   1  -2    0.92    0.07 
   4   1  -2    0.77    0.05 
   4   1  -2    0.76    0.07 
  -4  -1   2    0.80    0.05 
   3   1  -2    5.87    0.18 
   3   1  -2    5.88    0.19 
   3   1  -2    5.95    0.20 
  -3  -1   2    6.07    0.18 
  -3  -1   2    5.98    0.20 
   2   1  -2   43.65    1.26 
   2   1  -2   49.09    1.26 
  -2  -1   2   44.39    1.26 
  -2  -1   2   46.84    1.25 
   1   1  -2  126.22    3.45 
  -1  -1   2  124.08    3.38 
   0   1  -2   41.76    1.16 
   0   1  -2   42.34    1.16 
   0  -1   2   42.88    1.16 
   0  -1   2   43.12    1.16 
  -1   1  -2   23.16    0.65 
  -1   1  -2   23.73    0.64 
  -1   1  -2   22.90    0.65 
  -1   1  -2   23.14    0.65 
  -1   1  -2   23.59    0.64 
   1  -1   2   22.67    0.63 
   1  -1   2   23.82    0.63 
   1  -1   2   23.27    0.64 
   1  -1   2   23.27    0.65 
   1  -1   2   23.07    0.65 
   1  -1   2   21.83    0.65 
   1  -1   2   23.61    0.64 
  -2   1  -2    0.05    0.02 
  -2   1  -2    0.10    0.02 
  -2   1  -2    0.01    0.03 
  -2   1  -2    0.07    0.02 
  -2   1  -2    0.09    0.03 
   2  -1   2    0.03    0.02 
   2  -1   2    0.05    0.02 
   2  -1   2    0.03    0.03 
  -3   1  -2    2.08    0.10 
  -3   1  -2    2.11    0.08 
   3  -1   2    2.03    0.09 
   3  -1   2    2.10    0.11 
   3  -1   2    2.10    0.11 
  -4   1  -2    9.39    0.31 
  -4   1  -2    9.42    0.28 
   4  -1   2    9.20    0.28 
   4  -1   2    9.03    0.31 
   4  -1   2    9.51    0.31 
  -5   1  -2    3.08    0.13 
   5  -1   2    3.25    0.17 
   5  -1   2    3.18    0.13 
  -6   1  -2    0.19    0.04 
   6  -1   2    0.16    0.07 
   6  -1   2    0.18    0.05 
  -7   1  -2    0.07    0.04 
   7  -1   2    0.26    0.08 
  -8   0   2    0.21    0.06 
   7   0  -2    0.27    0.07 
  -7   0   2    0.17    0.05 
   6   0  -2    1.00    0.09 
   6   0  -2    0.99    0.11 
   6   0  -2    1.03    0.11 
  -6   0   2    0.85    0.08 
   5   0  -2    1.60    0.09 
   5   0  -2    1.98    0.12 
  -5   0   2    1.85    0.09 
   4   0  -2    0.12    0.03 
   4   0  -2    0.09    0.04 
  -4   0   2    0.11    0.03 
   3   0  -2   41.73    1.14 
   3   0  -2   41.64    1.16 
  -3   0   2   41.57    1.14 
   2   0  -2    3.99    0.14 
   2   0  -2    4.21    0.14 
   2   0  -2    4.18    0.12 
  -2   0   2    4.33    0.13 
  -2   0   2    4.00    0.14 
   1   0  -2   64.20    1.90 
   1   0  -2   72.48    1.91 
   1   0  -2   72.25    1.90 
   1   0  -2   68.57    1.90 
  -1   0   2   73.07    1.90 
  -1   0   2   68.46    1.90 
  -1   0   2   69.81    1.90 
  -1   0   2   72.73    1.91 
   0   0  -2   23.96    0.66 
   0   0  -2   23.41    0.65 
   0   0  -2   22.91    0.65 
   0   0  -2   23.92    0.66 
   0   0   2   24.91    0.66 
   0   0   2   22.74    0.66 
   0   0   2   23.68    0.65 
   0   0   2   24.58    0.65 
  -1   0  -2  213.47    5.74 
  -1   0  -2  209.22    5.72 
  -1   0  -2  207.08    5.71 
  -1   0  -2  213.67    5.71 
  -1   0  -2  214.31    5.78 
  -1   0  -2  212.83    5.72 
  -1   0  -2  209.81    5.74 
   1   0   2  212.01    5.80 
   1   0   2  213.42    5.72 
   1   0   2  206.78    5.71 
   1   0   2  213.87    5.73 
   1   0   2  216.11    5.74 
   1   0   2  210.33    5.72 
  -2   0  -2   26.59    0.76 
  -2   0  -2   28.21    0.75 
  -2   0  -2   27.60    0.76 
   2   0   2   27.51    0.76 
   2   0   2   26.46    0.77 
   2   0   2   26.46    0.76 
   2   0   2   27.92    0.75 
  -3   0  -2   18.45    0.53 
  -3   0  -2   18.57    0.51 
   3   0   2   17.44    0.53 
   3   0   2   18.08    0.53 
   3   0   2   18.09    0.51 
  -4   0  -2    2.62    0.11 
  -4   0  -2    3.01    0.14 
   4   0   2    2.70    0.11 
   4   0   2    2.84    0.14 
   4   0   2    2.73    0.13 
  -5   0  -2    0.18    0.06 
  -5   0  -2    0.10    0.03 
   5   0   2    0.14    0.04 
   5   0   2    0.12    0.03 
   5   0   2    0.11    0.06 
  -6   0  -2    0.15    0.04 
  -6   0  -2    0.12    0.06 
   6   0   2    0.11    0.07 
  -7   0  -2    2.37    0.13 
  -8   1   2    0.75    0.08 
   7  -1  -2    0.10    0.07 
   7  -1  -2    0.11    0.06 
  -7   1   2    0.15    0.05 
   6  -1  -2    2.36    0.15 
   6  -1  -2    1.73    0.11 
  -6   1   2    2.13    0.11 
   5  -1  -2    3.38    0.16 
  -5   1   2    3.03    0.13 
  -5   1   2    3.20    0.19 
   4  -1  -2    0.05    0.03 
   4  -1  -2    0.00    0.04 
  -4   1   2   -0.01    0.02 
  -4   1   2    0.05    0.04 
   3  -1  -2    3.01    0.13 
   3  -1  -2    3.25    0.12 
  -3   1   2    3.47    0.12 
  -3   1   2    3.69    0.15 
   2  -1  -2   13.91    0.39 
   2  -1  -2   13.24    0.40 
  -2   1   2   13.33    0.40 
  -2   1   2   13.69    0.38 
  -2   1   2   14.30    0.38 
  -2   1   2   13.79    0.41 
   1  -1  -2   10.30    0.29 
   1  -1  -2   11.10    0.29 
   1  -1  -2   10.26    0.30 
   1  -1  -2   10.45    0.31 
   1  -1  -2    9.85    0.30 
  -1   1   2   10.04    0.30 
  -1   1   2   11.17    0.29 
  -1   1   2   10.42    0.29 
  -1   1   2   10.41    0.31 
  -1   1   2    9.96    0.30 
   0  -1  -2    0.41    0.03 
   0  -1  -2    0.44    0.02 
   0  -1  -2    0.39    0.04 
   0  -1  -2    0.40    0.03 
   0  -1  -2    0.40    0.03 
   0   1   2    0.39    0.03 
   0   1   2    0.40    0.04 
   0   1   2    0.39    0.03 
  -1  -1  -2   31.41    0.86 
  -1  -1  -2   30.57    0.88 
  -1  -1  -2   31.15    0.87 
  -1  -1  -2   32.00    0.87 
  -1  -1  -2   31.25    0.87 
  -1  -1  -2   32.35    0.88 
   1   1   2   32.29    0.88 
   1   1   2   30.92    0.87 
   1   1   2   32.30    0.87 
  -2  -1  -2  117.68    3.12 
  -2  -1  -2  113.51    3.11 
  -2  -1  -2  114.34    3.11 
  -2  -1  -2  116.31    3.10 
  -2  -1  -2  117.11    3.10 
   2   1   2  112.57    3.11 
   2   1   2  114.12    3.10 
   2   1   2  110.55    3.09 
   2   1   2  115.88    3.12 
  -3  -1  -2   68.58    1.86 
  -3  -1  -2   68.60    1.89 
  -3  -1  -2   70.02    1.89 
   3   1   2   66.48    1.89 
   3   1   2   68.37    1.88 
   3   1   2   68.65    1.85 
  -4  -1  -2    5.39    0.20 
  -4  -1  -2    5.37    0.18 
   4   1   2    5.14    0.20 
   4   1   2    5.08    0.20 
  -5  -1  -2    7.01    0.23 
  -5  -1  -2    7.06    0.27 
   5   1   2    7.08    0.26 
   5   1   2    6.49    0.25 
  -6  -1  -2    0.54    0.09 
  -6  -1  -2    0.33    0.05 
   6   1   2    0.50    0.08 
  -7  -1  -2    0.41    0.07 
  -8   2   2   -0.03    0.05 
   7  -2  -2    0.86    0.11 
  -7   2   2    0.72    0.07 
   6  -2  -2    0.21    0.07 
  -6   2   2    0.12    0.04 
   5  -2  -2    6.20    0.21 
   5  -2  -2    6.49    0.24 
  -5   2   2    6.44    0.20 
  -5   2   2    6.23    0.27 
   4  -2  -2    0.17    0.05 
   4  -2  -2    0.27    0.04 
  -4   2   2    0.26    0.04 
  -4   2   2    0.26    0.06 
   3  -2  -2    0.62    0.05 
   3  -2  -2    0.59    0.06 
  -3   2   2    0.66    0.04 
  -3   2   2    0.57    0.07 
  -3   2   2    0.68    0.04 
   2  -2  -2    0.09    0.02 
   2  -2  -2    0.02    0.03 
   2  -2  -2    0.02    0.03 
  -2   2   2    0.04    0.03 
   1  -2  -2  733.32   19.92 
   1  -2  -2  698.16   19.81 
   1  -2  -2  749.92   19.88 
  -1   2   2  753.40   19.84 
   0  -2  -2  955.18   26.49 
   0  -2  -2  994.43   26.64 
   0   2   2 1000.00   26.63 
  -1  -2  -2   21.45    0.60 
  -1  -2  -2   21.86    0.61 
  -1  -2  -2   20.91    0.60 
  -1  -2  -2   21.32    0.60 
   1   2   2   21.48    0.60 
   1   2   2   21.04    0.61 
   1   2   2   22.51    0.62 
  -2  -2  -2    7.74    0.24 
  -2  -2  -2    7.82    0.25 
  -2  -2  -2    7.66    0.24 
  -2  -2  -2    7.53    0.24 
   2   2   2    7.45    0.23 
   2   2   2    7.90    0.23 
   2   2   2    7.64    0.25 
  -3  -2  -2    0.09    0.03 
  -3  -2  -2    0.06    0.04 
  -3  -2  -2    0.10    0.02 
  -3  -2  -2    0.13    0.03 
  -3  -2  -2    0.11    0.03 
   3   2   2    0.10    0.03 
   3   2   2    0.07    0.03 
   3   2   2    0.11    0.04 
  -4  -2  -2    2.50    0.13 
  -4  -2  -2    2.62    0.10 
  -4  -2  -2    2.46    0.13 
   4   2   2    2.44    0.11 
   4   2   2    2.23    0.12 
   4   2   2    2.55    0.12 
  -5  -2  -2    0.14    0.06 
  -5  -2  -2    0.15    0.04 
   5   2   2    0.23    0.06 
   5   2   2    0.16    0.04 
   5   2   2    0.18    0.05 
  -6  -2  -2    8.69    0.33 
  -6  -2  -2    8.25    0.28 
   6   2   2    7.83    0.29 
  -7  -2  -2    0.22    0.09 
  -7  -2  -2    0.30    0.06 
   7  -3  -2    1.01    0.12 
  -7   3   2    0.74    0.15 
   6  -3  -2    7.30    0.29 
   6  -3  -2    7.04    0.25 
   5  -3  -2    3.95    0.18 
   5  -3  -2    3.86    0.15 
  -5   3   2    3.54    0.20 
   4  -3  -2    8.88    0.27 
   4  -3  -2    8.92    0.30 
  -4   3   2    8.24    0.31 
   3  -3  -2   16.14    0.48 
   3  -3  -2   16.63    0.46 
   3  -3  -2   16.05    0.50 
  -3   3   2   16.04    0.49 
   2  -3  -2   38.51    0.97 
   2  -3  -2   33.66    0.98 
   2  -3  -2   34.00    1.00 
   1  -3  -2  240.57    6.35 
  -1   3   2  226.07    6.37 
   0  -3  -2    2.59    0.11 
   0  -3  -2    2.66    0.10 
   0   3   2    2.40    0.13 
   0   3   2    2.71    0.11 
  -1  -3  -2   49.47    1.37 
  -1  -3  -2   51.72    1.38 
   1   3   2   50.14    1.38 
   1   3   2   49.06    1.37 
   1   3   2   48.12    1.39 
  -2  -3  -2    4.60    0.16 
  -2  -3  -2    4.93    0.18 
  -2  -3  -2    4.83    0.17 
  -2  -3  -2    4.84    0.16 
  -2  -3  -2    4.67    0.16 
   2   3   2    4.71    0.16 
   2   3   2    4.87    0.18 
  -3  -3  -2    0.01    0.03 
  -3  -3  -2   -0.03    0.03 
  -3  -3  -2    0.02    0.03 
  -3  -3  -2    0.04    0.03 
   3   3   2    0.04    0.03 
   3   3   2    0.05    0.03 
  -4  -3  -2    2.97    0.15 
  -4  -3  -2    3.08    0.15 
  -4  -3  -2    2.83    0.13 
  -4  -3  -2    2.86    0.11 
   4   3   2    2.78    0.13 
   4   3   2    3.06    0.14 
  -5  -3  -2    1.82    0.12 
  -5  -3  -2    1.91    0.14 
  -5  -3  -2    1.88    0.10 
   5   3   2    1.85    0.12 
   5   3   2    1.67    0.13 
  -6  -3  -2    0.06    0.07 
  -6  -3  -2    0.01    0.04 
   6   3   2    0.04    0.05 
  -7  -3  -2    0.17    0.09 
  -7  -3  -2    0.13    0.06 
   7  -4  -2    0.93    0.12 
   7  -4  -2    0.75    0.08 
  -7   4   2    0.79    0.15 
   6  -4  -2    0.18    0.08 
   6  -4  -2    0.32    0.06 
  -6   4   2    0.20    0.11 
   5  -4  -2   -0.08    0.06 
   5  -4  -2   -0.08    0.04 
  -5   4   2    0.03    0.09 
   4  -4  -2    8.67    0.27 
   4  -4  -2    8.93    0.30 
  -4   4   2    8.87    0.37 
   3  -4  -2    2.00    0.11 
   3  -4  -2    1.82    0.12 
   3  -4  -2    1.83    0.08 
  -3   4   2    1.97    0.16 
   2  -4  -2   22.81    0.66 
   2  -4  -2   22.45    0.65 
   2  -4  -2   23.46    0.68 
  -2   4   2   22.45    0.72 
   1  -4  -2    1.02    0.08 
  -1   4   2    0.96    0.11 
   0  -4  -2   16.17    0.48 
   0  -4  -2   15.11    0.46 
   0   4   2   16.56    0.48 
   0   4   2   14.44    0.50 
  -1  -4  -2    0.63    0.06 
  -1  -4  -2    0.71    0.05 
   1   4   2    0.56    0.08 
   1   4   2    0.70    0.06 
  -2  -4  -2    0.18    0.03 
  -2  -4  -2    0.14    0.05 
  -2  -4  -2    0.15    0.03 
   2   4   2    0.09    0.04 
   2   4   2    0.13    0.05 
   2   4   2    0.17    0.04 
  -3  -4  -2    1.59    0.09 
  -3  -4  -2    1.61    0.10 
  -3  -4  -2    1.50    0.10 
   3   4   2    1.74    0.10 
   3   4   2    1.62    0.10 
  -4  -4  -2   16.44    0.52 
  -4  -4  -2   17.10    0.53 
   4   4   2   16.74    0.52 
   4   4   2   16.70    0.51 
  -5  -4  -2    0.55    0.08 
  -5  -4  -2    0.61    0.06 
  -5  -4  -2    0.68    0.09 
   5   4   2    0.69    0.08 
  -6  -4  -2    0.25    0.08 
  -6  -4  -2    0.23    0.06 
   6   4   2    0.32    0.07 
  -7  -4  -2   -0.08    0.05 
  -7  -4  -2   -0.03    0.08 
   7  -5  -2    0.10    0.09 
   7  -5  -2    0.15    0.06 
  -7   5   2    0.12    0.10 
   6  -5  -2    0.19    0.06 
   6  -5  -2    0.03    0.07 
  -6   5   2    0.18    0.11 
   5  -5  -2    0.24    0.08 
   5  -5  -2    0.49    0.06 
  -5   5   2    0.52    0.13 
   4  -5  -2    0.37    0.07 
   4  -5  -2    0.48    0.05 
  -4   5   2    0.55    0.12 
   3  -5  -2    1.76    0.13 
   3  -5  -2    1.96    0.11 
   3  -5  -2    2.08    0.08 
  -3   5   2    1.76    0.17 
   2  -5  -2    3.44    0.15 
   2  -5  -2    3.52    0.17 
  -2   5   2    3.35    0.21 
   1  -5  -2    2.91    0.14 
  -1   5   2    2.55    0.18 
   0  -5  -2    9.28    0.31 
   0   5   2    8.46    0.34 
  -1  -5  -2    1.91    0.11 
   1   5   2    1.93    0.11 
   1   5   2    1.77    0.14 
  -2  -5  -2    2.73    0.14 
   2   5   2    2.61    0.16 
   2   5   2    2.61    0.13 
   2   5   2    2.61    0.13 
  -3  -5  -2    5.86    0.23 
  -3  -5  -2    5.35    0.20 
  -3  -5  -2    5.30    0.20 
   3   5   2    5.53    0.21 
   3   5   2    5.60    0.22 
  -4  -5  -2    5.70    0.23 
  -4  -5  -2    5.81    0.23 
   4   5   2    5.62    0.22 
  -5  -5  -2    0.04    0.06 
  -5  -5  -2   -0.02    0.04 
  -5  -5  -2    0.01    0.06 
   5   5   2    0.05    0.06 
  -6  -5  -2   -0.06    0.04 
  -6  -5  -2   -0.06    0.07 
   6   5   2    0.04    0.06 
   7  -6  -2    0.14    0.06 
   7  -6  -2    0.10    0.09 
  -7   6   2    0.19    0.12 
   6  -6  -2   -0.03    0.07 
   6  -6  -2    0.09    0.05 
  -6   6   2    0.12    0.11 
   5  -6  -2   -0.01    0.05 
   5  -6  -2   -0.02    0.06 
  -5   6   2    0.14    0.10 
   4  -6  -2    0.10    0.06 
   4  -6  -2    0.10    0.04 
  -4   6   2    0.10    0.09 
   3  -6  -2    2.17    0.12 
   3  -6  -2    2.27    0.08 
   3  -6  -2    2.07    0.15 
   3  -6  -2    1.98    0.14 
  -3   6   2    2.11    0.19 
  -3   6   2    2.14    0.12 
   2  -6  -2    2.35    0.15 
  -2   6   2    2.17    0.19 
   1  -6  -2    1.90    0.12 
  -1   6   2    1.78    0.16 
   0  -6  -2    2.33    0.13 
   0   6   2    2.08    0.17 
  -1  -6  -2    3.01    0.15 
   1   6   2    2.96    0.19 
  -2  -6  -2    0.60    0.08 
   2   6   2    0.46    0.07 
   2   6   2    0.53    0.10 
  -3  -6  -2    9.93    0.34 
   3   6   2    9.41    0.33 
   3   6   2    9.20    0.36 
  -4  -6  -2    2.39    0.14 
  -4  -6  -2    2.43    0.15 
   4   6   2    2.39    0.15 
  -5  -6  -2    2.34    0.17 
  -5  -6  -2    2.33    0.16 
   5   6   2    2.18    0.15 
  -6  -6  -2    0.36    0.09 
   6   6   2    0.33    0.10 
   6  -7  -2    0.22    0.06 
   6  -7  -2    0.19    0.09 
  -6   7   2    0.38    0.15 
   5  -7  -2    1.25    0.13 
   5  -7  -2    1.15    0.10 
  -5   7   2    1.82    0.23 
   4  -7  -2    6.44    0.25 
   4  -7  -2    6.45    0.29 
   4  -7  -2    5.94    0.27 
  -4   7   2    6.62    0.35 
   3  -7  -2    0.15    0.07 
   3  -7  -2    0.29    0.06 
   3  -7  -2    0.27    0.06 
  -3   7   2    0.30    0.11 
   2  -7  -2    0.98    0.12 
  -2   7   2    0.93    0.15 
   1  -7  -2    0.86    0.10 
  -1   7   2    0.88    0.15 
   0  -7  -2    5.70    0.24 
   0   7   2    5.50    0.29 
  -1  -7  -2    0.25    0.06 
   1   7   2    0.22    0.09 
  -2  -7  -2    1.39    0.12 
   2   7   2    1.30    0.16 
  -3  -7  -2    0.03    0.05 
   3   7   2   -0.20    0.06 
   3   7   2    0.10    0.07 
  -4  -7  -2    0.14    0.07 
   4   7   2    0.16    0.07 
  -5  -7  -2    0.06    0.07 
   5   7   2    0.09    0.07 
   6  -8  -2    0.29    0.10 
   6  -8  -2    0.37    0.07 
  -6   8   2    0.42    0.16 
   5  -8  -2    0.41    0.11 
   5  -8  -2    0.44    0.10 
  -5   8   2    0.65    0.17 
   4  -8  -2    0.11    0.06 
   4  -8  -2   -0.01    0.07 
   4  -8  -2    0.13    0.06 
  -4   8   2    0.11    0.11 
   3  -8  -2    1.36    0.14 
  -3   8   2    1.72    0.21 
   2  -8  -2    0.26    0.08 
  -2   8   2    0.26    0.11 
   1  -8  -2    2.38    0.16 
  -1   8   2    1.93    0.22 
   0  -8  -2    0.13    0.06 
   0   8   2   -0.01    0.09 
  -1  -8  -2    0.23    0.07 
   1   8   2    0.25    0.10 
  -2  -8  -2    0.13    0.06 
   2   8   2    0.38    0.12 
  -3  -8  -2   13.97    0.49 
   3   8   2   14.14    0.54 
  -4  -8  -2    1.03    0.13 
   4   8   2    1.32    0.14 
   5   8   2    0.22    0.09 
   5  -9  -2    0.24    0.09 
  -5   9   2    0.45    0.17 
   4  -9  -2    0.44    0.13 
   4  -9  -2    0.38    0.09 
  -4   9   2    0.71    0.17 
   3  -9  -2    0.00    0.05 
   3  -9  -2    0.01    0.06 
  -3   9   2    0.17    0.12 
   2  -9  -2    0.75    0.12 
  -2   9   2    0.99    0.19 
   1  -9  -2    0.28    0.08 
  -1   9   2    0.22    0.13 
   0  -9  -2    6.70    0.30 
   0   9   2    7.45    0.39 
  -1  -9  -2    0.35    0.08 
   1   9   2    0.58    0.15 
  -2  -9  -2    3.11    0.19 
   2   9   2    3.41    0.27 
  -3  -9  -2    0.57    0.11 
  -4  10   2    0.16    0.17 
  -3  10   2    2.93    0.32 
   2 -10  -2    0.61    0.12 
  -2  10   2    0.79    0.20 
   1 -10  -2    2.15    0.17 
  -1  10   2    2.24    0.28 
   0 -10  -2    0.90    0.12 
   0  10   2    1.14    0.21 
  -1 -10  -2    0.17    0.08 
   1  10   2    0.22    0.14 
  -2 -10  -2    0.11    0.07 
   2  10   2    0.34    0.14 
  -1  11   2    0.04    0.15 
   0  11   2    0.93    0.23 
  -1 -11   3    0.49    0.10 
   0  11  -3    0.25    0.16 
   0 -11   3    0.33    0.09 
  -1  11  -3    0.01    0.14 
   3  10  -3   -0.04    0.08 
  -2 -10   3    0.30    0.08 
   1  10  -3    0.18    0.13 
  -1 -10   3    0.21    0.07 
   0  10  -3    4.06    0.32 
   0 -10   3    3.94    0.23 
  -1  10  -3    0.31    0.14 
   1 -10   3    0.06    0.07 
  -2  10  -3    1.12    0.22 
   2 -10   3    0.50    0.11 
  -3  10  -3   -0.04    0.13 
   4   9  -3    0.22    0.08 
   3   9  -3    2.75    0.19 
   2   9  -3   -0.01    0.06 
  -2  -9   3   -0.01    0.05 
   1   9  -3    2.83    0.25 
  -1  -9   3    2.97    0.18 
   0   9  -3    0.39    0.13 
   0  -9   3    0.35    0.09 
  -1   9  -3    0.14    0.11 
   1  -9   3    0.08    0.07 
  -2   9  -3    0.44    0.15 
  -3   9  -3    0.53    0.16 
  -4   9  -3    0.99    0.21 
   4  -9   3    1.11    0.13 
   5   8  -3    0.56    0.11 
   4   8  -3    0.92    0.11 
   3   8  -3    0.14    0.06 
  -3  -8   3    0.09    0.06 
   2   8  -3    1.19    0.12 
  -2  -8   3    1.15    0.11 
   1   8  -3    1.27    0.17 
  -1  -8   3    1.20    0.12 
   0   8  -3    0.62    0.14 
   0  -8   3    0.82    0.11 
  -1   8  -3    1.78    0.20 
   1  -8   3    1.59    0.13 
  -2   8  -3    0.47    0.13 
  -3   8  -3    0.36    0.13 
  -4   8  -3    0.37    0.14 
  -5   8  -3    0.80    0.19 
   5  -8   3    0.77    0.11 
   6   7  -3    0.21    0.08 
  -6  -7   3    0.13    0.08 
   5   7  -3    0.77    0.10 
   4   7  -3    0.13    0.07 
   3   7  -3    0.44    0.08 
  -3  -7   3    0.38    0.07 
   2   7  -3    1.90    0.13 
  -2  -7   3    2.16    0.12 
   1   7  -3    0.69    0.09 
   1   7  -3    0.65    0.12 
  -1  -7   3    0.64    0.08 
   0   7  -3    3.05    0.22 
   0  -7   3    3.37    0.15 
  -1   7  -3    1.19    0.16 
   1  -7   3    1.29    0.11 
  -2   7  -3    1.98    0.19 
  -3   7  -3    0.33    0.11 
  -4   7  -3   -0.06    0.10 
   4  -7   3    0.01    0.06 
  -5   7  -3    1.66    0.23 
   5  -7   3    1.55    0.16 
   5  -7   3    1.53    0.11 
  -6   7  -3    1.26    0.21 
   6  -7   3    1.01    0.14 
   6  -7   3    1.18    0.11 
   6   6  -3    0.73    0.11 
  -6  -6   3    0.60    0.10 
   5   6  -3    0.92    0.12 
  -5  -6   3    0.83    0.10 
   4   6  -3    6.42    0.26 
  -4  -6   3    5.95    0.22 
   3   6  -3    8.58    0.32 
  -3  -6   3    9.29    0.30 
   2   6  -3    1.44    0.11 
  -2  -6   3    1.59    0.10 
   1   6  -3   11.61    0.38 
   1   6  -3   10.88    0.43 
  -1  -6   3   11.88    0.38 
   0   6  -3    3.35    0.20 
   0  -6   3    3.55    0.15 
  -1   6  -3    0.05    0.07 
   1  -6   3    0.08    0.05 
  -2   6  -3    0.60    0.11 
  -3   6  -3    1.97    0.19 
   3  -6   3    2.28    0.13 
  -4   6  -3   -0.02    0.09 
   4  -6   3    0.08    0.06 
   4  -6   3   -0.01    0.04 
  -5   6  -3    7.97    0.38 
   5  -6   3    7.26    0.26 
   5  -6   3    7.30    0.31 
   6  -6   3    0.00    0.08 
   6  -6   3    0.20    0.06 
   7   5  -3    0.28    0.09 
  -7  -5   3    0.16    0.06 
   6   5  -3    0.17    0.07 
  -6  -5   3    0.03    0.07 
   5   5  -3    8.27    0.33 
   5   5  -3    9.05    0.33 
  -5  -5   3    9.07    0.32 
   4   5  -3   20.10    0.63 
   4   5  -3   20.48    0.63 
  -4  -5   3   19.82    0.58 
   3   5  -3    3.41    0.16 
   3   5  -3    3.17    0.16 
  -3  -5   3    3.36    0.13 
   2   5  -3    9.94    0.34 
  -2  -5   3   10.41    0.32 
   1   5  -3    0.89    0.12 
   1   5  -3    0.92    0.08 
   0   5  -3    0.03    0.04 
   0   5  -3    0.08    0.05 
   0  -5   3    0.08    0.03 
  -1   5  -3    0.59    0.10 
   1  -5   3    0.57    0.07 
   1  -5   3    0.63    0.06 
  -2   5  -3   15.06    0.52 
  -3   5  -3    0.88    0.12 
   3  -5   3    0.73    0.07 
   3  -5   3    0.83    0.06 
   3  -5   3    0.87    0.09 
  -4   5  -3    0.07    0.09 
   4  -5   3    0.06    0.07 
   4  -5   3    0.05    0.05 
  -5   5  -3    0.15    0.10 
   5  -5   3    0.14    0.06 
   5  -5   3    0.15    0.08 
   6  -5   3    0.26    0.09 
   6  -5   3    0.23    0.07 
   7  -5   3    1.44    0.12 
   7  -5   3    1.28    0.15 
   7   4  -3    0.14    0.07 
   7   4  -3    0.16    0.07 
  -7  -4   3    0.08    0.06 
   6   4  -3    1.19    0.12 
   6   4  -3    1.16    0.11 
  -6  -4   3    1.09    0.09 
   5   4  -3    6.85    0.26 
   5   4  -3    6.22    0.26 
  -5  -4   3    6.08    0.25 
  -5  -4   3    6.24    0.21 
   4   4  -3    9.05    0.32 
   4   4  -3    8.82    0.31 
  -4  -4   3    8.39    0.29 
  -4  -4   3    8.66    0.25 
  -4  -4   3    8.92    0.30 
   3   4  -3    1.69    0.11 
   3   4  -3    1.68    0.10 
  -3  -4   3    1.76    0.08 
   2   4  -3    4.29    0.17 
   2   4  -3    4.05    0.17 
  -2  -4   3    4.52    0.15 
   1   4  -3    7.80    0.26 
   1   4  -3    8.25    0.27 
  -1  -4   3    8.04    0.26 
   0   4  -3    2.58    0.11 
   0   4  -3    2.46    0.14 
   0  -4   3    2.57    0.11 
   0  -4   3    2.36    0.10 
   0  -4   3    2.48    0.11 
  -1   4  -3    0.02    0.04 
   1  -4   3    0.01    0.02 
   1  -4   3   -0.01    0.03 
   1  -4   3    0.05    0.03 
  -2   4  -3    7.31    0.25 
  -2   4  -3    7.38    0.29 
   2  -4   3    7.03    0.23 
   2  -4   3    7.25    0.26 
   2  -4   3    7.78    0.26 
  -3   4  -3    2.36    0.16 
   3  -4   3    2.14    0.11 
   3  -4   3    2.29    0.12 
   3  -4   3    2.27    0.10 
  -4   4  -3    4.59    0.23 
   4  -4   3    4.19    0.20 
   4  -4   3    4.24    0.17 
  -5   4  -3    0.39    0.10 
   5  -4   3    0.23    0.08 
   5  -4   3    0.25    0.06 
   6  -4   3    0.64    0.11 
   6  -4   3    0.73    0.08 
   7  -4   3    0.59    0.12 
   7  -4   3    0.37    0.08 
   7   3  -3    0.35    0.09 
   7   3  -3    0.43    0.08 
  -7  -3   3    0.38    0.07 
   6   3  -3    1.32    0.11 
   6   3  -3    1.51    0.13 
  -6  -3   3    1.43    0.10 
   5   3  -3    2.02    0.14 
   5   3  -3    2.07    0.13 
  -5  -3   3    1.89    0.10 
   4   3  -3    3.65    0.17 
   4   3  -3    3.71    0.17 
  -4  -3   3    3.75    0.13 
  -4  -3   3    4.13    0.16 
  -4  -3   3    3.92    0.16 
   3   3  -3    0.73    0.07 
   3   3  -3    0.76    0.07 
  -3  -3   3    0.83    0.06 
   2   3  -3   37.31    1.05 
   2   3  -3   37.34    1.05 
  -2  -3   3   38.39    1.05 
  -2  -3   3   36.45    1.02 
   1   3  -3    8.05    0.26 
   1   3  -3    8.22    0.26 
  -1  -3   3    8.27    0.26 
  -1  -3   3    8.03    0.26 
   0   3  -3    2.60    0.10 
   0   3  -3    2.64    0.13 
   0  -3   3    2.61    0.10 
   0  -3   3    2.48    0.10 
  -1   3  -3   18.25    0.55 
  -1   3  -3   16.98    0.51 
   1  -3   3   17.62    0.50 
   1  -3   3   17.43    0.51 
   1  -3   3   17.50    0.51 
  -2   3  -3   34.79    1.01 
  -2   3  -3   34.54    0.99 
   2  -3   3   35.36    1.00 
   2  -3   3   33.65    0.97 
   2  -3   3   35.26    0.97 
   2  -3   3   35.95    0.95 
  -3   3  -3    6.71    0.26 
   3  -3   3    6.52    0.23 
   3  -3   3    6.51    0.21 
   3  -3   3    6.81    0.23 
   4  -3   3    2.33    0.15 
   4  -3   3    2.19    0.11 
   5  -3   3    0.48    0.10 
   5  -3   3    0.52    0.07 
   6  -3   3    0.31    0.09 
   6  -3   3    0.38    0.07 
   7  -3   3    0.59    0.11 
   7  -3   3    0.46    0.08 
  -8  -2   3    0.66    0.09 
   7   2  -3    1.78    0.14 
  -7  -2   3    1.76    0.12 
   6   2  -3    0.04    0.05 
  -6  -2   3    0.00    0.04 
   5   2  -3   14.95    0.46 
   5   2  -3   15.58    0.48 
  -5  -2   3   15.37    0.45 
   4   2  -3    0.39    0.05 
   4   2  -3    0.49    0.06 
  -4  -2   3    0.42    0.05 
  -4  -2   3    0.49    0.04 
   3   2  -3    1.75    0.09 
  -3  -2   3    1.68    0.06 
  -3  -2   3    1.43    0.08 
   2   2  -3    0.03    0.02 
   2   2  -3    0.01    0.02 
   1   2  -3   70.69    1.94 
   1   2  -3   71.09    1.94 
  -1  -2   3   71.34    1.94 
   0   2  -3   84.97    2.34 
   0   2  -3   85.28    2.34 
   0  -2   3   86.96    2.34 
   0  -2   3   87.68    2.34 
  -1   2  -3   58.75    1.61 
  -1   2  -3   56.69    1.59 
   1  -2   3   58.95    1.59 
   1  -2   3   57.52    1.58 
   1  -2   3   56.96    1.59 
   1  -2   3   57.12    1.57 
   1  -2   3   58.15    1.58 
   1  -2   3   58.54    1.57 
  -2   2  -3    4.39    0.17 
  -2   2  -3    4.28    0.16 
  -2   2  -3    4.17    0.16 
  -2   2  -3    4.29    0.15 
   2  -2   3    4.37    0.14 
   2  -2   3    4.36    0.15 
   2  -2   3    4.28    0.15 
  -3   2  -3    1.43    0.11 
  -3   2  -3    1.38    0.08 
  -3   2  -3    1.34    0.11 
   3  -2   3    1.45    0.09 
   3  -2   3    1.33    0.07 
  -4   2  -3    2.77    0.10 
  -4   2  -3    2.90    0.17 
  -4   2  -3    2.58    0.10 
   4  -2   3    2.89    0.15 
   4  -2   3    2.80    0.12 
  -5   2  -3   -0.02    0.03 
   5  -2   3   -0.02    0.05 
   5  -2   3   -0.02    0.07 
  -6   2  -3    0.32    0.04 
   6  -2   3    0.58    0.10 
   6  -2   3    0.50    0.07 
  -7   2  -3    0.41    0.05 
   7  -2   3    0.66    0.11 
   7  -2   3    0.50    0.07 
  -8  -1   3    0.09    0.06 
   7   1  -3    0.33    0.07 
  -7  -1   3    0.33    0.06 
   6   1  -3    6.26    0.25 
   6   1  -3    6.99    0.26 
  -6  -1   3    6.43    0.23 
   5   1  -3    1.95    0.12 
   5   1  -3    1.89    0.09 
   5   1  -3    2.32    0.12 
  -5  -1   3    2.06    0.10 
   4   1  -3   -0.01    0.03 
   4   1  -3    0.05    0.03 
   4   1  -3    0.03    0.02 
  -4  -1   3    0.03    0.02 
   3   1  -3    4.61    0.16 
  -3  -1   3    4.90    0.15 
  -3  -1   3    4.68    0.16 
   2   1  -3   18.59    0.53 
  -2  -1   3   19.04    0.52 
  -2  -1   3   19.24    0.54 
  -1  -1   3   69.27    1.94 
  -1  -1   3   71.77    1.93 
  -1  -1   3   72.69    1.93 
   0   1  -3   84.42    2.31 
   0   1  -3   84.70    2.33 
   0   1  -3   86.16    2.31 
   0   1  -3   83.40    2.31 
   0  -1   3   85.58    2.31 
   0  -1   3   82.95    2.32 
   0  -1   3   87.08    2.32 
   0  -1   3   89.05    2.31 
  -1   1  -3    0.49    0.04 
  -1   1  -3    0.50    0.02 
  -1   1  -3    0.65    0.04 
  -1   1  -3    0.51    0.06 
  -1   1  -3    0.53    0.05 
   1  -1   3    0.45    0.04 
   1  -1   3    0.56    0.05 
   1  -1   3    0.49    0.03 
   1  -1   3    0.59    0.05 
   1  -1   3    0.59    0.06 
   1  -1   3    0.52    0.05 
   1  -1   3    0.44    0.04 
   1  -1   3    0.44    0.05 
  -2   1  -3    5.60    0.17 
  -2   1  -3    5.62    0.19 
  -2   1  -3    5.59    0.16 
  -2   1  -3    5.52    0.20 
  -2   1  -3    5.43    0.18 
   2  -1   3    5.45    0.17 
   2  -1   3    5.49    0.19 
   2  -1   3    5.70    0.18 
   2  -1   3    5.51    0.19 
  -3   1  -3   43.90    1.21 
  -3   1  -3   45.13    1.19 
  -3   1  -3   42.51    1.22 
  -3   1  -3   43.93    1.24 
   3  -1   3   42.45    1.19 
   3  -1   3   43.76    1.21 
   3  -1   3   41.44    1.22 
  -4   1  -3    0.40    0.08 
  -4   1  -3    0.44    0.06 
  -4   1  -3    0.37    0.04 
   4  -1   3    0.51    0.07 
   4  -1   3    0.50    0.05 
   4  -1   3    0.40    0.06 
  -5   1  -3    5.68    0.19 
  -5   1  -3    5.16    0.28 
  -5   1  -3    5.56    0.23 
   5  -1   3    5.56    0.20 
   5  -1   3    5.67    0.24 
  -6   1  -3    2.15    0.11 
   6  -1   3    2.43    0.17 
   6  -1   3    2.42    0.12 
  -7   1  -3    0.25    0.05 
   7  -1   3    0.42    0.10 
   7  -1   3    0.40    0.06 
  -8   0   3    0.06    0.06 
   7   0  -3    0.37    0.07 
  -7   0   3    0.23    0.05 
   6   0  -3    0.00    0.05 
   6   0  -3    0.06    0.06 
  -6   0   3    0.04    0.04 
   5   0  -3    3.50    0.14 
   5   0  -3    4.12    0.17 
  -5   0   3    3.77    0.14 
   4   0  -3    2.65    0.12 
  -4   0   3    2.85    0.11 
   3   0  -3    6.98    0.21 
   3   0  -3    7.03    0.23 
  -3   0   3    7.26    0.22 
  -3   0   3    7.87    0.26 
   2   0  -3    1.92    0.08 
   2   0  -3    1.73    0.07 
   2   0  -3    2.03    0.07 
  -2   0   3    2.07    0.08 
  -2   0   3    2.05    0.10 
   1   0  -3   14.57    0.42 
   1   0  -3   14.42    0.41 
   1   0  -3   14.62    0.41 
   1   0  -3   14.36    0.40 
  -1   0   3   14.82    0.42 
  -1   0   3   14.83    0.41 
  -1   0   3   14.88    0.40 
  -1   0   3   13.28    0.40 
   0   0  -3   35.83    0.98 
   0   0  -3   35.32    0.97 
   0   0  -3   35.32    0.96 
   0   0  -3   34.73    0.98 
   0   0   3   36.46    0.97 
   0   0   3   36.36    0.98 
   0   0   3   34.40    0.98 
   0   0   3   34.54    0.96 
  -1   0  -3   21.65    0.58 
  -1   0  -3   20.80    0.61 
  -1   0  -3   21.19    0.59 
  -1   0  -3   21.04    0.59 
  -1   0  -3   21.05    0.59 
  -1   0  -3   21.40    0.58 
  -1   0  -3   21.10    0.60 
   1   0   3   20.75    0.61 
   1   0   3   20.64    0.60 
   1   0   3   21.64    0.59 
   1   0   3   21.37    0.58 
   1   0   3   20.90    0.59 
  -2   0  -3    3.18    0.12 
  -2   0  -3    3.17    0.13 
  -2   0  -3    3.24    0.13 
  -2   0  -3    3.20    0.14 
  -2   0  -3    3.32    0.11 
   2   0   3    3.24    0.13 
   2   0   3    3.13    0.12 
   2   0   3    3.30    0.11 
  -3   0  -3    0.88    0.10 
  -3   0  -3    0.57    0.04 
   3   0   3    0.66    0.05 
   3   0   3    0.80    0.07 
   3   0   3    0.52    0.06 
  -4   0  -3    0.83    0.10 
  -4   0  -3    1.00    0.06 
  -4   0  -3    1.10    0.09 
   4   0   3    1.04    0.10 
   4   0   3    0.95    0.08 
   4   0   3    1.00    0.07 
  -5   0  -3    1.97    0.19 
  -5   0  -3    1.98    0.14 
  -5   0  -3    1.95    0.10 
   5   0   3    2.15    0.10 
   5   0   3    2.09    0.15 
  -6   0  -3    0.52    0.06 
  -6   0  -3    0.61    0.09 
   6   0   3    0.68    0.10 
  -7   0  -3    0.25    0.06 
  -8   1   3    0.00    0.06 
   7  -1  -3    0.04    0.08 
  -7   1   3   -0.03    0.05 
   6  -1  -3    5.11    0.21 
   6  -1  -3    6.19    0.24 
  -6   1   3    5.71    0.20 
   5  -1  -3    6.18    0.23 
  -5   1   3    5.69    0.26 
  -5   1   3    5.77    0.20 
   4  -1  -3    9.19    0.30 
  -4   1   3    8.79    0.32 
  -4   1   3    9.28    0.28 
   3  -1  -3    2.63    0.12 
  -3   1   3    2.87    0.14 
  -3   1   3    2.84    0.10 
   2  -1  -3    8.92    0.28 
   2  -1  -3    9.67    0.30 
   2  -1  -3    9.40    0.28 
  -2   1   3    9.33    0.27 
  -2   1   3    9.03    0.28 
  -2   1   3    9.76    0.27 
  -2   1   3    9.47    0.30 
   1  -1  -3  123.20    3.58 
   1  -1  -3  145.71    3.58 
   1  -1  -3  123.95    3.58 
  -1   1   3  126.73    3.58 
  -1   1   3  130.56    3.59 
  -1   1   3  132.97    3.57 
  -1   1   3  137.21    3.59 
  -1   1   3  139.32    3.58 
   0  -1  -3   40.69    1.13 
   0  -1  -3   40.88    1.14 
   0  -1  -3   41.00    1.14 
   0  -1  -3   43.24    1.12 
   0   1   3   39.88    1.12 
   0   1   3   41.25    1.13 
   0   1   3   40.58    1.14 
   0   1   3   41.99    1.12 
  -1  -1  -3    0.08    0.03 
  -1  -1  -3    0.05    0.02 
  -1  -1  -3    0.07    0.03 
  -1  -1  -3    0.06    0.02 
  -1  -1  -3    0.08    0.02 
   1   1   3    0.06    0.02 
   1   1   3    0.06    0.02 
   1   1   3    0.04    0.02 
   1   1   3    0.06    0.02 
  -2  -1  -3    6.86    0.22 
  -2  -1  -3    6.75    0.21 
  -2  -1  -3    7.15    0.22 
  -2  -1  -3    6.94    0.24 
  -2  -1  -3    6.96    0.22 
  -2  -1  -3    6.81    0.20 
  -2  -1  -3    7.22    0.23 
   2   1   3    6.93    0.20 
   2   1   3    7.03    0.23 
   2   1   3    6.67    0.22 
  -3  -1  -3   32.42    0.89 
  -3  -1  -3   32.52    0.92 
  -3  -1  -3   32.71    0.92 
   3   1   3   32.15    0.88 
   3   1   3   31.96    0.91 
   3   1   3   31.57    0.92 
  -4  -1  -3    0.09    0.03 
  -4  -1  -3    0.10    0.05 
   4   1   3    0.08    0.05 
   4   1   3    0.13    0.03 
   4   1   3    0.10    0.04 
  -5  -1  -3    0.86    0.10 
  -5  -1  -3    0.95    0.08 
   5   1   3    0.82    0.09 
   5   1   3    0.91    0.08 
  -6  -1  -3    0.47    0.06 
  -6  -1  -3    0.54    0.09 
   6   1   3    0.56    0.09 
   6   1   3    0.51    0.07 
  -7  -1  -3    0.31    0.06 
  -7  -1  -3    0.44    0.10 
  -8   2   3    0.11    0.06 
   7  -2  -3    0.18    0.08 
  -7   2   3    0.13    0.05 
   6  -2  -3    0.17    0.07 
  -6   2   3    0.04    0.04 
   5  -2  -3   10.35    0.35 
   5  -2  -3   10.35    0.31 
  -5   2   3    9.95    0.31 
  -5   2   3    9.79    0.37 
   4  -2  -3    1.82    0.11 
   4  -2  -3    1.74    0.08 
  -4   2   3    1.75    0.08 
  -4   2   3    1.77    0.13 
   3  -2  -3   34.73    0.99 
   3  -2  -3   35.89    1.01 
  -3   2   3   37.15    0.98 
  -3   2   3   36.19    0.98 
  -3   2   3   35.13    1.02 
   2  -2  -3    1.66    0.09 
   2  -2  -3    1.78    0.07 
   2  -2  -3    1.68    0.08 
   2  -2  -3    1.73    0.09 
  -2   2   3    1.79    0.06 
  -2   2   3    1.80    0.09 
   1  -2  -3   57.51    1.46 
   1  -2  -3   54.57    1.48 
   1  -2  -3   54.55    1.46 
   1  -2  -3   52.00    1.48 
   1  -2  -3   50.61    1.47 
  -1   2   3   55.43    1.48 
  -1   2   3   51.90    1.46 
  -1   2   3   53.48    1.48 
   0  -2  -3  180.59    4.84 
   0  -2  -3  175.82    4.83 
   0  -2  -3  175.45    4.85 
   0  -2  -3  187.04    4.82 
   0  -2  -3  180.90    4.92 
   0   2   3  170.04    4.84 
   0   2   3  176.86    4.83 
   0   2   3  184.72    4.88 
  -1  -2  -3    2.03    0.07 
  -1  -2  -3    2.10    0.09 
  -1  -2  -3    1.80    0.08 
  -1  -2  -3    1.91    0.08 
  -1  -2  -3    1.91    0.10 
   1   2   3    1.80    0.08 
   1   2   3    1.91    0.09 
   1   2   3    1.89    0.09 
  -2  -2  -3   14.57    0.43 
  -2  -2  -3   14.36    0.42 
  -2  -2  -3   14.98    0.44 
  -2  -2  -3   14.58    0.43 
  -2  -2  -3   14.48    0.43 
   2   2   3   14.31    0.42 
   2   2   3   14.99    0.44 
  -3  -2  -3    0.09    0.04 
  -3  -2  -3    0.09    0.02 
  -3  -2  -3    0.09    0.04 
  -3  -2  -3    0.11    0.03 
   3   2   3    0.09    0.04 
   3   2   3    0.04    0.03 
   3   2   3    0.07    0.03 
  -4  -2  -3    0.02    0.03 
  -4  -2  -3   -0.02    0.05 
  -4  -2  -3   -0.06    0.04 
   4   2   3    0.01    0.03 
   4   2   3   -0.01    0.03 
   4   2   3   -0.07    0.04 
  -5  -2  -3    1.73    0.10 
  -5  -2  -3    1.48    0.13 
   5   2   3    1.69    0.12 
   5   2   3    1.76    0.10 
  -6  -2  -3    2.68    0.18 
  -6  -2  -3    2.78    0.13 
   6   2   3    2.55    0.14 
  -7  -2  -3   -0.09    0.07 
  -7  -2  -3   -0.03    0.04 
   8  -3  -3   -0.10    0.08 
   7  -3  -3    4.98    0.25 
   6  -3  -3    1.49    0.10 
   6  -3  -3    1.71    0.15 
  -6   3   3    1.38    0.08 
   5  -3  -3    0.79    0.09 
   5  -3  -3    0.88    0.07 
  -5   3   3    0.54    0.09 
  -5   3   3    0.73    0.06 
   4  -3  -3    2.18    0.09 
   4  -3  -3    2.03    0.12 
  -4   3   3    1.70    0.14 
   3  -3  -3   11.32    0.38 
   3  -3  -3   11.35    0.36 
   3  -3  -3   11.67    0.34 
  -3   3   3   12.10    0.37 
   2  -3  -3   44.97    1.28 
   2  -3  -3   46.66    1.30 
   2  -3  -3   46.78    1.30 
   2  -3  -3   47.67    1.26 
  -2   3   3   45.21    1.28 
   1  -3  -3   22.42    0.64 
   1  -3  -3   21.42    0.63 
   1  -3  -3   20.26    0.61 
  -1   3   3   22.98    0.64 
   0  -3  -3   16.54    0.49 
   0  -3  -3   18.46    0.52 
   0  -3  -3   17.63    0.50 
   0   3   3   16.91    0.54 
  -1  -3  -3    5.13    0.17 
  -1  -3  -3    5.58    0.19 
  -1  -3  -3    5.18    0.19 
  -1  -3  -3    5.15    0.17 
   1   3   3    5.17    0.20 
   1   3   3    5.42    0.19 
  -2  -3  -3   14.52    0.43 
  -2  -3  -3   14.52    0.43 
  -2  -3  -3   14.67    0.45 
  -2  -3  -3   14.28    0.43 
   2   3   3   14.86    0.45 
   2   3   3   14.88    0.43 
  -3  -3  -3    9.96    0.33 
  -3  -3  -3   10.33    0.32 
  -3  -3  -3    9.99    0.32 
  -3  -3  -3   10.27    0.34 
   3   3   3   10.16    0.33 
   3   3   3   10.10    0.31 
  -4  -3  -3    0.39    0.06 
  -4  -3  -3    0.50    0.08 
  -4  -3  -3    0.40    0.05 
  -4  -3  -3    0.37    0.05 
   4   3   3    0.39    0.05 
   4   3   3    0.36    0.06 
   4   3   3    0.37    0.06 
  -5  -3  -3    0.08    0.06 
  -5  -3  -3    0.04    0.04 
  -5  -3  -3    0.06    0.06 
   5   3   3    0.08    0.04 
  -6  -3  -3    2.16    0.12 
  -6  -3  -3    2.40    0.17 
   6   3   3    2.32    0.14 
  -7  -3  -3    0.28    0.10 
  -7  -3  -3    0.31    0.07 
   7  -4  -3    0.11    0.05 
   7  -4  -3    0.08    0.08 
  -7   4   3   -0.01    0.13 
   6  -4  -3   -0.01    0.05 
   6  -4  -3   -0.05    0.07 
   5  -4  -3    0.67    0.09 
   5  -4  -3    0.94    0.08 
   4  -4  -3    2.18    0.13 
   4  -4  -3    2.19    0.10 
   3  -4  -3    0.09    0.03 
   3  -4  -3    0.09    0.05 
   3  -4  -3    0.04    0.04 
   3  -4  -3    0.07    0.04 
   2  -4  -3    1.60    0.09 
   2  -4  -3    1.61    0.11 
   2  -4  -3    1.54    0.10 
   2  -4  -3    1.86    0.06 
  -2   4   3    1.75    0.14 
   1  -4  -3   40.24    1.16 
   1  -4  -3   44.32    1.20 
  -1   4   3   41.84    1.23 
   0  -4  -3    0.60    0.07 
   0  -4  -3    0.51    0.05 
   0   4   3    0.55    0.06 
   0   4   3    0.52    0.09 
  -1  -4  -3    5.78    0.20 
  -1  -4  -3    5.99    0.22 
   1   4   3    5.85    0.24 
   1   4   3    5.93    0.22 
  -2  -4  -3   11.75    0.37 
  -2  -4  -3   11.10    0.34 
  -2  -4  -3   10.99    0.35 
  -2  -4  -3   11.30    0.35 
   2   4   3   11.49    0.37 
   2   4   3   11.51    0.35 
   2   4   3   11.15    0.38 
  -3  -4  -3    3.04    0.14 
  -3  -4  -3    3.17    0.15 
  -3  -4  -3    2.79    0.14 
   3   4   3    3.21    0.15 
   3   4   3    3.07    0.13 
  -4  -4  -3    6.83    0.27 
  -4  -4  -3    6.78    0.26 
   4   4   3    7.15    0.25 
  -5  -4  -3    6.76    0.28 
  -5  -4  -3    6.70    0.23 
  -5  -4  -3    6.97    0.28 
   5   4   3    6.81    0.25 
  -6  -4  -3    0.36    0.09 
  -6  -4  -3    0.41    0.06 
   7  -5  -3    2.32    0.14 
   7  -5  -3    2.54    0.20 
  -7   5   3    2.41    0.25 
   6  -5  -3    0.00    0.05 
   6  -5  -3   -0.04    0.07 
  -6   5   3   -0.01    0.11 
   5  -5  -3    0.31    0.05 
   5  -5  -3    0.14    0.07 
  -5   5   3    0.25    0.12 
   4  -5  -3    4.71    0.23 
   4  -5  -3    4.91    0.20 
   4  -5  -3    4.86    0.17 
  -4   5   3    4.96    0.29 
   3  -5  -3    1.36    0.09 
   3  -5  -3    1.39    0.12 
   3  -5  -3    1.41    0.07 
   3  -5  -3    1.34    0.11 
  -3   5   3    1.31    0.16 
   2  -5  -3    6.74    0.26 
   2  -5  -3    6.67    0.24 
  -2   5   3    6.57    0.30 
   1  -5  -3   26.03    0.76 
  -1   5   3   24.40    0.80 
   0  -5  -3    0.54    0.07 
   0   5   3    0.40    0.06 
   0   5   3    0.32    0.08 
  -1  -5  -3    4.89    0.19 
   1   5   3    4.21    0.21 
   1   5   3    4.64    0.19 
  -2  -5  -3    0.10    0.05 
   2   5   3    0.05    0.06 
   2   5   3    0.03    0.03 
  -3  -5  -3    0.86    0.10 
  -3  -5  -3    0.68    0.07 
   3   5   3    0.78    0.08 
   3   5   3    0.77    0.10 
  -4  -5  -3    0.24    0.06 
  -4  -5  -3    0.17    0.06 
   4   5   3    0.18    0.06 
  -5  -5  -3    0.02    0.04 
  -5  -5  -3   -0.03    0.06 
  -5  -5  -3   -0.02    0.06 
   5   5   3    0.02    0.05 
  -6  -5  -3    0.02    0.05 
  -6  -5  -3   -0.02    0.07 
   7  -6  -3    0.89    0.10 
   7  -6  -3    0.70    0.13 
   7  -6  -3    0.80    0.13 
  -7   6   3    0.79    0.18 
   6  -6  -3    0.03    0.05 
   6  -6  -3   -0.06    0.07 
  -6   6   3    0.00    0.11 
   5  -6  -3    3.87    0.20 
   5  -6  -3    4.12    0.16 
   5  -6  -3    3.88    0.22 
  -5   6   3    4.09    0.29 
   4  -6  -3    0.02    0.06 
   4  -6  -3    0.04    0.03 
   4  -6  -3    0.00    0.05 
   4  -6  -3    0.01    0.05 
  -4   6   3   -0.01    0.09 
   3  -6  -3    0.13    0.05 
   3  -6  -3   -0.01    0.05 
   3  -6  -3    0.06    0.05 
   3  -6  -3    0.11    0.03 
  -3   6   3    0.10    0.09 
  -3   6   3    0.09    0.05 
   2  -6  -3    9.57    0.35 
  -2   6   3    8.96    0.39 
   1  -6  -3    0.11    0.05 
  -1   6   3    0.10    0.08 
   0  -6  -3    0.98    0.09 
   0   6   3    0.91    0.13 
  -1  -6  -3    0.31    0.06 
   1   6   3    0.30    0.09 
  -2  -6  -3    1.80    0.13 
   2   6   3    1.64    0.15 
  -3  -6  -3    0.75    0.08 
  -3  -6  -3    0.89    0.10 
   3   6   3    0.68    0.09 
   3   6   3    0.86    0.11 
  -4  -6  -3    1.53    0.12 
  -4  -6  -3    1.37    0.13 
   4   6   3    1.37    0.12 
  -5  -6  -3    0.30    0.08 
  -5  -6  -3    0.35    0.08 
   5   6   3    0.57    0.09 
  -6  -6  -3   -0.08    0.07 
  -6  -6  -3   -0.05    0.04 
   6  -7  -3    0.84    0.12 
   6  -7  -3    1.17    0.16 
   6  -7  -3    1.05    0.10 
  -6   7   3    1.32    0.21 
   5  -7  -3    0.83    0.11 
   5  -7  -3    0.84    0.13 
   5  -7  -3    1.01    0.09 
  -5   7   3    1.13    0.19 
   4  -7  -3    0.02    0.06 
   4  -7  -3    0.11    0.06 
   4  -7  -3    0.06    0.07 
   4  -7  -3    0.04    0.04 
  -4   7   3    0.28    0.12 
   3  -7  -3    0.04    0.05 
   3  -7  -3   -0.02    0.06 
   3  -7  -3    0.02    0.05 
  -3   7   3    0.06    0.09 
   2  -7  -3   15.07    0.51 
  -2   7   3   14.73    0.57 
   1  -7  -3    1.04    0.11 
  -1   7   3    0.73    0.15 
   0  -7  -3    0.00    0.05 
   0   7   3   -0.11    0.07 
  -1  -7  -3    1.27    0.12 
   1   7   3    1.12    0.16 
  -2  -7  -3    4.45    0.21 
   2   7   3    4.43    0.25 
  -3  -7  -3    0.50    0.09 
   3   7   3    0.51    0.11 
  -4  -7  -3    0.13    0.07 
   4   7   3    0.27    0.08 
  -5  -7  -3    0.75    0.10 
   5   7   3    0.81    0.11 
   6  -8  -3    0.35    0.07 
   6  -8  -3    0.40    0.11 
  -6   8   3    0.55    0.17 
   5  -8  -3    0.44    0.10 
   5  -8  -3    0.42    0.11 
  -5   8   3    0.63    0.18 
   4  -8  -3    0.03    0.07 
   4  -8  -3    0.13    0.06 
   4  -8  -3    0.11    0.06 
  -4   8   3    0.11    0.12 
   3  -8  -3    0.00    0.05 
   3  -8  -3   -0.08    0.06 
  -3   8   3    0.02    0.09 
   2  -8  -3    0.25    0.08 
  -2   8   3    0.16    0.11 
   1  -8  -3    2.78    0.17 
  -1   8   3    2.59    0.23 
   0  -8  -3    0.03    0.05 
   0   8   3   -0.06    0.09 
  -1  -8  -3    1.90    0.15 
   1   8   3    2.01    0.20 
  -2  -8  -3    2.13    0.16 
   2   8   3    2.02    0.21 
  -3  -8  -3    0.27    0.08 
   3   8   3    0.33    0.11 
  -4  -8  -3    6.64    0.30 
   5  -9  -3    0.10    0.08 
  -5   9   3    0.23    0.15 
   4  -9  -3    0.47    0.16 
   4  -9  -3    0.41    0.09 
  -4   9   3    0.80    0.19 
   3  -9  -3    0.63    0.09 
   3  -9  -3    0.75    0.12 
  -3   9   3    1.12    0.21 
   2  -9  -3    0.21    0.08 
  -2   9   3    0.35    0.13 
   1  -9  -3    0.44    0.10 
  -1   9   3    0.49    0.16 
   0  -9  -3    0.11    0.07 
   0   9   3    0.19    0.12 
  -1  -9  -3    5.23    0.26 
   1   9   3    5.86    0.34 
  -2  -9  -3    0.27    0.08 
   2   9   3    0.47    0.14 
  -3  -9  -3    1.84    0.17 
   3   9   3    2.61    0.25 
  -4  -9  -3    0.02    0.10 
   4 -10  -3   -0.06    0.06 
  -3  10   3    0.65    0.20 
  -2  10   3   -0.03    0.15 
   1 -10  -3    0.55    0.11 
  -1  10   3    0.65    0.18 
   0 -10  -3    1.13    0.14 
   0  10   3    1.32    0.23 
  -1 -10  -3    0.22    0.08 
   1  10   3    0.33    0.15 
  -2 -10  -3    0.15    0.07 
   2  10   3    0.27    0.14 
  -1  11   3    0.11    0.16 
  -1 -11   4    0.08    0.06 
   0  11  -4   -0.01    0.14 
   0 -11   4    0.04    0.07 
   3  10  -4    0.63    0.12 
  -1 -10   4    1.10    0.13 
   0  10  -4    4.82    0.35 
   0 -10   4    4.17    0.24 
  -1  10  -4    5.26    0.36 
   1 -10   4    4.22    0.25 
  -2  10  -4    1.24    0.23 
  -3  10  -4    0.16    0.15 
   4   9  -4    0.14    0.08 
   3   9  -4    0.04    0.07 
   2   9  -4    2.00    0.16 
  -2  -9   4    2.07    0.14 
  -1  -9   4    0.05    0.06 
   0   9  -4    0.21    0.12 
   0  -9   4    0.09    0.07 
  -1   9  -4   16.11    0.64 
   1  -9   4   15.27    0.51 
  -2   9  -4    0.78    0.17 
  -3   9  -4    0.11    0.12 
  -4   9  -4    0.16    0.15 
   5   8  -4    0.24    0.08 
   4   8  -4    0.12    0.07 
   3   8  -4    0.69    0.11 
  -3  -8   4    0.62    0.09 
   2   8  -4    0.45    0.08 
  -2  -8   4    0.51    0.08 
   1   8  -4    5.37    0.24 
  -1  -8   4    5.65    0.24 
   0   8  -4    7.34    0.37 
   0  -8   4    7.65    0.28 
  -1   8  -4    0.17    0.10 
   1  -8   4    0.19    0.07 
  -2   8  -4    0.94    0.17 
  -3   8  -4    0.04    0.10 
  -4   8  -4    3.20    0.29 
   4  -8   4    2.99    0.19 
  -5   8  -4    0.11    0.13 
   5  -8   4    0.14    0.08 
   6   7  -4    0.63    0.11 
   5   7  -4    2.76    0.18 
   4   7  -4    0.81    0.11 
   3   7  -4    0.55    0.09 
  -3  -7   4    0.56    0.07 
   2   7  -4    1.83    0.13 
  -2  -7   4    2.20    0.12 
   1   7  -4    0.21    0.06 
  -1  -7   4    0.22    0.06 
   0   7  -4    4.73    0.27 
   0  -7   4    5.13    0.20 
  -1   7  -4    4.70    0.27 
   1  -7   4    4.43    0.20 
  -2   7  -4    0.34    0.11 
  -3   7  -4    1.33    0.19 
  -4   7  -4   -0.05    0.10 
   4  -7   4   -0.08    0.06 
  -5   7  -4   -0.06    0.11 
   5  -7   4    0.08    0.08 
   5  -7   4   -0.03    0.05 
   6  -7   4    0.07    0.06 
   6  -7   4    0.13    0.09 
   6   6  -4    0.44    0.09 
   5   6  -4    2.63    0.17 
   4   6  -4    0.17    0.06 
   3   6  -4   12.08    0.42 
  -3  -6   4   12.80    0.39 
   2   6  -4    0.73    0.09 
  -2  -6   4    0.66    0.07 
   1   6  -4    7.24    0.27 
   0   6  -4    2.02    0.16 
   0   6  -4    2.03    0.12 
   0  -6   4    1.96    0.11 
  -1   6  -4    1.28    0.14 
   1  -6   4    1.17    0.10 
  -2   6  -4    0.17    0.08 
   2  -6   4    0.16    0.07 
  -3   6  -4    0.73    0.13 
   3  -6   4    0.90    0.09 
  -4   6  -4    1.80    0.20 
   4  -6   4    1.89    0.14 
   4  -6   4    2.02    0.10 
  -5   6  -4    0.47    0.13 
   5  -6   4    0.56    0.10 
   5  -6   4    0.59    0.08 
   6  -6   4    0.01    0.06 
   6  -6   4    0.04    0.08 
   7   5  -4    0.57    0.11 
   7   5  -4    0.38    0.09 
  -7  -5   4    0.25    0.06 
   6   5  -4    1.44    0.14 
   6   5  -4    1.62    0.14 
   5   5  -4    0.49    0.09 
   5   5  -4    0.52    0.09 
   4   5  -4    5.55    0.23 
   4   5  -4    5.44    0.24 
   3   5  -4    1.55    0.11 
   3   5  -4    1.57    0.11 
  -3  -5   4    1.33    0.08 
   2   5  -4   15.72    0.49 
   2   5  -4   15.49    0.49 
  -2  -5   4   16.01    0.47 
   1   5  -4    0.26    0.05 
   0   5  -4   14.80    0.51 
   0   5  -4   15.24    0.46 
   0  -5   4   14.12    0.44 
  -1   5  -4   16.06    0.54 
   1  -5   4   15.69    0.49 
   1  -5   4   16.14    0.48 
  -2   5  -4    1.57    0.15 
   2  -5   4    1.71    0.13 
   2  -5   4    1.57    0.09 
  -3   5  -4    1.02    0.14 
   3  -5   4    1.01    0.07 
   3  -5   4    0.94    0.10 
   3  -5   4    0.86    0.06 
   3  -5   4    0.82    0.07 
  -4   5  -4    0.80    0.13 
   4  -5   4    0.82    0.07 
   4  -5   4    0.76    0.10 
  -5   5  -4    8.83    0.38 
   5  -5   4    8.26    0.29 
   5  -5   4    9.20    0.34 
   6  -5   4    1.65    0.17 
   6  -5   4    1.51    0.12 
   7   4  -4    1.71    0.15 
   7   4  -4    1.53    0.15 
  -7  -4   4    1.53    0.12 
   6   4  -4    0.68    0.10 
   6   4  -4    0.66    0.10 
  -6  -4   4    0.79    0.07 
   5   4  -4    0.22    0.07 
   5   4  -4    0.23    0.07 
  -5  -4   4    0.17    0.04 
   4   4  -4    0.11    0.05 
   4   4  -4    0.18    0.06 
  -4  -4   4    0.03    0.02 
  -4  -4   4    0.00    0.05 
   3   4  -4    7.89    0.28 
   3   4  -4    7.73    0.28 
   2   4  -4    5.85    0.22 
   2   4  -4    6.22    0.22 
  -2  -4   4    5.93    0.19 
   1   4  -4    0.01    0.02 
   1   4  -4    0.01    0.03 
  -1  -4   4    0.00    0.02 
   0   4  -4   21.11    0.65 
   0   4  -4   20.88    0.61 
   0  -4   4   20.90    0.61 
   0  -4   4   20.89    0.60 
   0  -4   4   20.11    0.60 
  -1   4  -4   10.15    0.36 
   1  -4   4    9.79    0.32 
   1  -4   4   10.27    0.31 
   1  -4   4    9.73    0.31 
  -2   4  -4    0.64    0.09 
   2  -4   4    0.49    0.06 
   2  -4   4    0.62    0.07 
   2  -4   4    0.55    0.05 
   2  -4   4    0.71    0.09 
   2  -4   4    0.62    0.08 
   2  -4   4    0.57    0.05 
  -3   4  -4    2.51    0.16 
   3  -4   4    2.72    0.13 
   3  -4   4    2.42    0.11 
   3  -4   4    2.59    0.11 
   3  -4   4    2.34    0.10 
  -4   4  -4   40.33    1.19 
   4  -4   4   39.60    1.12 
   4  -4   4   40.58    1.16 
   5  -4   4    1.44    0.11 
   5  -4   4    1.78    0.15 
   6  -4   4    0.59    0.11 
   6  -4   4    0.66    0.08 
   7  -4   4    0.33    0.11 
   7  -4   4    0.23    0.07 
   7   3  -4    1.30    0.14 
   7   3  -4    1.42    0.13 
  -7  -3   4    1.48    0.11 
   6   3  -4    0.04    0.06 
   6   3  -4    0.22    0.07 
  -6  -3   4    0.08    0.04 
   5   3  -4    1.95    0.13 
   5   3  -4    1.62    0.13 
  -5  -3   4    1.67    0.09 
   4   3  -4    1.82    0.11 
   4   3  -4    1.79    0.12 
  -4  -3   4    1.64    0.10 
  -4  -3   4    1.68    0.07 
   3   3  -4   22.14    0.66 
   3   3  -4   22.35    0.66 
   2   3  -4   66.68    1.83 
   2   3  -4   67.06    1.83 
  -2  -3   4   64.99    1.80 
   1   3  -4   59.59    1.64 
   1   3  -4   58.61    1.64 
  -1  -3   4   60.85    1.64 
  -1  -3   4   58.56    1.64 
   0   3  -4    3.25    0.12 
   0   3  -4    3.06    0.12 
   0  -3   4    3.22    0.12 
   0  -3   4    3.22    0.12 
  -1   3  -4   38.41    1.12 
   1  -3   4   39.10    1.07 
   1  -3   4   38.92    1.10 
   1  -3   4   39.21    1.08 
   1  -3   4   39.73    1.09 
  -2   3  -4    7.18    0.27 
  -2   3  -4    6.86    0.24 
   2  -3   4    7.00    0.23 
   2  -3   4    6.92    0.21 
   2  -3   4    7.19    0.25 
   2  -3   4    7.16    0.25 
   2  -3   4    7.25    0.23 
   2  -3   4    6.86    0.22 
   2  -3   4    7.02    0.21 
  -3   3  -4    3.51    0.17 
   3  -3   4    3.43    0.13 
   3  -3   4    3.47    0.16 
   4  -3   4    9.63    0.30 
   4  -3   4    9.31    0.33 
   5  -3   4   32.01    0.94 
   5  -3   4   30.70    0.90 
   6  -3   4    0.15    0.08 
   6  -3   4    0.24    0.06 
   7  -3   4    0.01    0.06 
   7  -3   4    0.06    0.09 
  -8  -2   4   -0.04    0.06 
   7   2  -4    1.22    0.13 
  -7  -2   4    1.08    0.10 
   6   2  -4    3.07    0.16 
  -6  -2   4    2.94    0.14 
   5   2  -4   19.39    0.59 
   5   2  -4   18.77    0.57 
  -5  -2   4   19.57    0.56 
   4   2  -4   47.80    1.37 
  -4  -2   4   49.26    1.38 
  -4  -2   4   48.78    1.33 
   3   2  -4   24.96    0.72 
  -3  -2   4   25.52    0.69 
  -3  -2   4   24.38    0.71 
   2   2  -4   72.11    1.98 
   2   2  -4   71.67    1.98 
  -2  -2   4   72.31    1.96 
   1   2  -4    3.76    0.13 
   1   2  -4    3.70    0.13 
   0   2  -4   61.47    1.68 
   0   2  -4   60.93    1.68 
   0  -2   4   61.72    1.68 
  -1   2  -4   23.29    0.66 
  -1   2  -4   22.79    0.65 
   1  -2   4   23.15    0.64 
   1  -2   4   23.50    0.65 
   1  -2   4   23.63    0.67 
   1  -2   4   23.66    0.65 
   1  -2   4   23.20    0.67 
   1  -2   4   23.27    0.65 
   1  -2   4   23.28    0.65 
  -2   2  -4   31.53    0.90 
  -2   2  -4   31.06    0.88 
  -2   2  -4   31.63    0.90 
  -2   2  -4   31.48    0.90 
   2  -2   4   31.81    0.91 
   2  -2   4   31.38    0.88 
   2  -2   4   31.26    0.87 
   2  -2   4   31.49    0.90 
   2  -2   4   31.25    0.87 
   2  -2   4   31.58    0.88 
  -3   2  -4    9.67    0.33 
  -3   2  -4    9.18    0.30 
   3  -2   4    9.04    0.32 
   3  -2   4    9.45    0.31 
   3  -2   4    9.02    0.28 
  -4   2  -4    6.30    0.20 
  -4   2  -4    6.52    0.30 
  -4   2  -4    6.38    0.24 
  -4   2  -4    6.34    0.19 
   4  -2   4    6.54    0.25 
   4  -2   4    6.74    0.22 
  -5   2  -4    2.30    0.10 
   5  -2   4    2.52    0.13 
   5  -2   4    2.54    0.17 
  -6   2  -4    0.26    0.04 
   6  -2   4    0.35    0.06 
   6  -2   4    0.33    0.09 
   7  -2   4    0.13    0.09 
   7  -2   4    0.16    0.06 
  -8  -1   4    0.20    0.07 
   7   1  -4    2.29    0.15 
  -7  -1   4    2.26    0.13 
   6   1  -4    1.32    0.12 
   6   1  -4    1.33    0.11 
  -6  -1   4    1.14    0.09 
   5   1  -4   22.71    0.67 
   5   1  -4   22.43    0.68 
  -5  -1   4   22.93    0.65 
   4   1  -4    8.50    0.27 
  -4  -1   4    8.43    0.26 
   3   1  -4    7.23    0.22 
  -3  -1   4    7.01    0.21 
  -3  -1   4    7.19    0.23 
  -3  -1   4    6.95    0.26 
   2   1  -4    0.28    0.03 
  -2  -1   4    0.26    0.03 
  -2  -1   4    0.35    0.03 
  -2  -1   4    0.26    0.04 
   1   1  -4    8.72    0.26 
   1   1  -4    8.85    0.26 
   1   1  -4    8.83    0.26 
  -1  -1   4    8.79    0.25 
  -1  -1   4    8.61    0.26 
  -1  -1   4    8.85    0.27 
  -1  -1   4    9.15    0.26 
   0   1  -4  264.10    7.13 
   0   1  -4  267.80    7.21 
   0   1  -4  259.46    7.13 
   0   1  -4  267.18    7.13 
   0  -1   4  260.09    7.12 
   0  -1   4  256.14    7.11 
   0  -1   4  270.71    7.20 
   0  -1   4  269.43    7.13 
   0  -1   4  258.51    7.14 
  -1   1  -4   29.17    0.79 
  -1   1  -4   28.26    0.80 
  -1   1  -4   24.67    0.77 
  -1   1  -4   29.13    0.81 
  -1   1  -4   29.71    0.78 
  -1   1  -4   28.88    0.78 
   1  -1   4   28.52    0.81 
   1  -1   4   28.52    0.78 
   1  -1   4   28.98    0.81 
   1  -1   4   29.14    0.79 
   1  -1   4   29.90    0.80 
   1  -1   4   28.18    0.81 
   1  -1   4   28.07    0.80 
  -2   1  -4    5.39    0.17 
  -2   1  -4    5.80    0.19 
  -2   1  -4    5.90    0.17 
  -2   1  -4    5.92    0.20 
  -2   1  -4    6.03    0.22 
   2  -1   4    5.58    0.20 
   2  -1   4    5.72    0.19 
   2  -1   4    5.75    0.19 
   2  -1   4    5.43    0.18 
  -3   1  -4    5.70    0.23 
  -3   1  -4    5.35    0.25 
  -3   1  -4    5.74    0.20 
  -3   1  -4    5.58    0.17 
   3  -1   4    5.50    0.20 
   3  -1   4    5.29    0.21 
   3  -1   4    5.40    0.18 
  -4   1  -4    0.13    0.03 
  -4   1  -4    0.09    0.07 
  -4   1  -4    0.05    0.05 
   4  -1   4    0.03    0.06 
   4  -1   4    0.10    0.04 
  -5   1  -4    3.83    0.15 
  -5   1  -4    4.04    0.19 
   5  -1   4    3.88    0.16 
   5  -1   4    4.18    0.21 
  -6   1  -4    1.75    0.10 
   6  -1   4    1.79    0.11 
   6  -1   4    2.12    0.16 
  -7   1  -4   -0.03    0.04 
   7  -1   4    0.07    0.05 
   7  -1   4    0.00    0.08 
  -8   0   4    0.54    0.08 
   7   0  -4    0.00    0.06 
  -7   0   4    0.00    0.05 
   6   0  -4    1.83    0.13 
  -6   0   4    1.39    0.10 
   5   0  -4    0.12    0.03 
   5   0  -4    0.13    0.03 
   5   0  -4    0.18    0.05 
  -5   0   4    0.15    0.07 
  -5   0   4    0.17    0.04 
   4   0  -4    4.81    0.14 
   4   0  -4    3.86    0.15 
   4   0  -4    4.26    0.17 
  -4   0   4    4.44    0.15 
  -4   0   4    4.29    0.20 
   3   0  -4   11.03    0.31 
   3   0  -4   10.02    0.31 
   3   0  -4   10.69    0.33 
  -3   0   4   11.09    0.31 
  -3   0   4   11.03    0.35 
   2   0  -4    6.42    0.21 
   2   0  -4    6.89    0.22 
   2   0  -4    7.14    0.20 
   2   0  -4    7.40    0.24 
  -2   0   4    6.45    0.21 
  -2   0   4    7.46    0.21 
  -2   0   4    6.88    0.22 
  -2   0   4    7.25    0.24 
   1   0  -4  159.98    4.43 
   1   0  -4  160.51    4.40 
   1   0  -4  168.91    4.42 
   1   0  -4  164.12    4.41 
  -1   0   4  151.94    4.41 
  -1   0   4  169.09    4.42 
  -1   0   4  164.82    4.41 
  -1   0   4  165.28    4.40 
   0   0  -4   57.88    1.58 
   0   0  -4   57.96    1.60 
   0   0  -4   58.21    1.59 
   0   0  -4   59.94    1.60 
   0   0   4   57.52    1.60 
   0   0   4   56.20    1.60 
   0   0   4   59.13    1.58 
   0   0   4   58.77    1.59 
  -1   0  -4    1.93    0.07 
  -1   0  -4    1.96    0.08 
  -1   0  -4    2.00    0.08 
  -1   0  -4    2.00    0.10 
  -1   0  -4    1.73    0.07 
  -1   0  -4    2.03    0.08 
  -1   0  -4    1.81    0.09 
   1   0   4    1.76    0.08 
   1   0   4    1.71    0.07 
   1   0   4    1.78    0.08 
   1   0   4    1.83    0.08 
   1   0   4    1.88    0.10 
  -2   0  -4    4.01    0.15 
  -2   0  -4    4.22    0.16 
  -2   0  -4    4.24    0.16 
  -2   0  -4    4.23    0.13 
  -2   0  -4    4.30    0.18 
   2   0   4    4.00    0.14 
   2   0   4    4.07    0.16 
   2   0   4    4.09    0.15 
  -3   0  -4   14.91    0.44 
  -3   0  -4   14.72    0.45 
  -3   0  -4   14.43    0.41 
  -3   0  -4   14.53    0.47 
   3   0   4   13.39    0.45 
   3   0   4   14.56    0.42 
   3   0   4   14.19    0.44 
  -4   0  -4    0.02    0.04 
  -4   0  -4   -0.04    0.06 
  -4   0  -4    0.01    0.03 
   4   0   4   -0.04    0.03 
   4   0   4   -0.05    0.05 
  -5   0  -4   -0.10    0.05 
  -5   0  -4    0.00    0.03 
   5   0   4    0.00    0.07 
   5   0   4    0.02    0.04 
  -6   0  -4    0.31    0.08 
  -6   0  -4    0.47    0.06 
   6   0   4    0.56    0.09 
   6   0   4    0.49    0.05 
  -7   0  -4   -0.06    0.04 
  -8   1   4    0.44    0.07 
   7  -1  -4    0.58    0.10 
  -7   1   4    0.37    0.06 
   6  -1  -4    0.33    0.08 
  -6   1   4    0.25    0.05 
   5  -1  -4    0.15    0.06 
  -5   1   4    0.15    0.04 
  -5   1   4    0.08    0.06 
   4  -1  -4    2.89    0.13 
  -4   1   4    2.89    0.16 
  -4   1   4    2.83    0.11 
   3  -1  -4    5.33    0.19 
   3  -1  -4    5.56    0.19 
  -3   1   4    5.76    0.17 
  -3   1   4    5.58    0.21 
   2  -1  -4    0.04    0.02 
   2  -1  -4    0.01    0.02 
   2  -1  -4    0.04    0.03 
  -2   1   4    0.06    0.03 
  -2   1   4    0.05    0.02 
   1  -1  -4    5.87    0.18 
   1  -1  -4    5.84    0.19 
  -1   1   4    5.95    0.18 
  -1   1   4    5.43    0.19 
  -1   1   4    6.23    0.18 
  -1   1   4    6.22    0.20 
   0  -1  -4    0.96    0.06 
   0  -1  -4    0.92    0.05 
   0   1   4    1.04    0.06 
   0   1   4    0.90    0.06 
   0   1   4    0.95    0.07 
   0   1   4    0.97    0.05 
   0   1   4    1.02    0.05 
  -1  -1  -4    2.79    0.13 
  -1  -1  -4    3.52    0.12 
  -1  -1  -4    3.27    0.12 
  -1  -1  -4    3.32    0.13 
  -1  -1  -4    3.51    0.12 
   1   1   4    3.47    0.11 
   1   1   4    3.41    0.13 
   1   1   4    3.24    0.12 
   1   1   4    3.42    0.14 
   1   1   4    3.35    0.12 
  -2  -1  -4   13.75    0.39 
  -2  -1  -4   13.80    0.41 
  -2  -1  -4   14.05    0.42 
  -2  -1  -4   14.05    0.43 
   2   1   4   13.70    0.41 
   2   1   4   13.71    0.39 
   2   1   4   13.91    0.43 
  -3  -1  -4   11.84    0.35 
  -3  -1  -4   11.83    0.37 
  -3  -1  -4   12.06    0.37 
  -3  -1  -4   12.04    0.38 
   3   1   4   11.34    0.38 
   3   1   4   11.67    0.37 
   3   1   4   11.90    0.34 
  -4  -1  -4    0.30    0.07 
  -4  -1  -4    0.51    0.07 
  -4  -1  -4    0.65    0.06 
   4   1   4    0.53    0.07 
   4   1   4    0.51    0.05 
  -5  -1  -4    6.69    0.27 
  -5  -1  -4    6.76    0.23 
   5   1   4    6.93    0.27 
  -6  -1  -4    0.25    0.07 
  -6  -1  -4    0.19    0.05 
   6   1   4    0.21    0.11 
  -7  -1  -4   -0.01    0.05 
  -7  -1  -4   -0.02    0.08 
  -8   2   4    0.13    0.06 
   7  -2  -4    0.11    0.08 
  -7   2   4   -0.03    0.05 
   6  -2  -4    8.97    0.32 
  -6   2   4    7.84    0.27 
   5  -2  -4    1.18    0.11 
  -5   2   4    1.12    0.08 
  -5   2   4    0.85    0.11 
   4  -2  -4    6.33    0.23 
   4  -2  -4    6.46    0.23 
  -4   2   4    6.63    0.21 
  -4   2   4    6.49    0.26 
   3  -2  -4    8.25    0.27 
   3  -2  -4    8.15    0.25 
   3  -2  -4    7.87    0.28 
  -3   2   4    8.72    0.25 
  -3   2   4    9.06    0.30 
  -3   2   4    8.99    0.25 
   2  -2  -4    0.09    0.03 
   2  -2  -4    0.19    0.04 
   2  -2  -4    0.11    0.03 
  -2   2   4    0.14    0.04 
  -2   2   4    0.16    0.02 
  -2   2   4    0.16    0.02 
   1  -2  -4    8.74    0.27 
   1  -2  -4    8.29    0.26 
   1  -2  -4    8.89    0.28 
  -1   2   4    8.48    0.27 
  -1   2   4    8.86    0.27 
   0  -2  -4   93.60    2.58 
   0  -2  -4   95.34    2.59 
   0  -2  -4   95.85    2.59 
   0   2   4   94.15    2.59 
   0   2   4   97.42    2.60 
   0   2   4   92.81    2.57 
  -1  -2  -4    5.74    0.20 
  -1  -2  -4    5.39    0.18 
  -1  -2  -4    5.63    0.18 
  -1  -2  -4    5.73    0.21 
   1   2   4    5.39    0.18 
   1   2   4    5.80    0.20 
  -2  -2  -4    7.18    0.23 
  -2  -2  -4    7.05    0.23 
  -2  -2  -4    7.14    0.23 
  -2  -2  -4    6.97    0.26 
  -2  -2  -4    7.19    0.25 
   2   2   4    7.34    0.25 
   2   2   4    6.84    0.23 
  -3  -2  -4    0.00    0.03 
  -3  -2  -4    0.06    0.04 
  -3  -2  -4    0.04    0.02 
  -3  -2  -4    0.08    0.06 
  -3  -2  -4    0.05    0.04 
  -3  -2  -4    0.03    0.02 
   3   2   4    0.00    0.03 
   3   2   4    0.02    0.04 
  -4  -2  -4    0.45    0.09 
  -4  -2  -4    0.51    0.05 
  -4  -2  -4    0.55    0.08 
  -4  -2  -4    0.47    0.07 
   4   2   4    0.52    0.07 
  -5  -2  -4   -0.09    0.05 
  -5  -2  -4   -0.01    0.04 
   5   2   4   -0.04    0.05 
  -6  -2  -4    0.27    0.06 
  -6  -2  -4    0.42    0.09 
  -7  -2  -4    0.27    0.06 
  -7  -2  -4    0.32    0.10 
   7  -3  -4    1.82    0.16 
  -7   3   4    1.31    0.08 
   6  -3  -4    0.93    0.11 
  -6   3   4    0.86    0.07 
   5  -3  -4    9.45    0.33 
   5  -3  -4    9.33    0.30 
  -5   3   4    9.22    0.35 
  -5   3   4    9.40    0.28 
   4  -3  -4    0.58    0.07 
   4  -3  -4    0.52    0.05 
   4  -3  -4    0.45    0.06 
  -4   3   4    0.43    0.08 
   3  -3  -4   19.61    0.58 
   3  -3  -4   19.24    0.56 
   3  -3  -4   20.51    0.60 
   3  -3  -4   19.71    0.60 
  -3   3   4   19.55    0.59 
   2  -3  -4    2.20    0.11 
   2  -3  -4    2.34    0.12 
   2  -3  -4    2.10    0.10 
   2  -3  -4    2.31    0.08 
  -2   3   4    2.45    0.12 
   1  -3  -4    0.25    0.04 
   1  -3  -4    0.26    0.05 
   1  -3  -4    0.24    0.03 
   1  -3  -4    0.27    0.02 
  -1   3   4    0.26    0.04 
   0  -3  -4    5.86    0.20 
   0  -3  -4    5.31    0.18 
   0  -3  -4    5.34    0.17 
   0  -3  -4    5.68    0.20 
   0   3   4    5.61    0.20 
  -1  -3  -4   14.22    0.43 
  -1  -3  -4   14.01    0.41 
  -1  -3  -4   14.21    0.44 
  -1  -3  -4   13.64    0.41 
  -1  -3  -4   14.07    0.41 
   1   3   4   14.48    0.44 
   1   3   4   13.49    0.44 
  -2  -3  -4   62.55    1.74 
  -2  -3  -4   61.29    1.71 
  -2  -3  -4   63.59    1.74 
  -2  -3  -4   61.27    1.70 
  -2  -3  -4   61.62    1.71 
   2   3   4   61.98    1.73 
  -3  -3  -4    0.44    0.05 
  -3  -3  -4    0.47    0.07 
  -3  -3  -4    0.41    0.06 
  -3  -3  -4    0.27    0.07 
  -3  -3  -4    0.32    0.06 
   3   3   4    0.37    0.06 
   3   3   4    0.34    0.05 
  -4  -3  -4    3.45    0.14 
  -4  -3  -4    3.65    0.14 
  -4  -3  -4    3.57    0.18 
  -4  -3  -4    3.54    0.22 
  -4  -3  -4    3.56    0.17 
   4   3   4    3.44    0.16 
   4   3   4    3.58    0.14 
  -5  -3  -4    3.57    0.15 
  -5  -3  -4    3.55    0.19 
  -5  -3  -4    3.61    0.19 
   5   3   4    3.58    0.15 
  -6  -3  -4   -0.06    0.04 
  -6  -3  -4    0.00    0.07 
  -7  -3  -4    0.00    0.08 
  -7  -3  -4    0.06    0.05 
   7  -4  -4    0.14    0.08 
   7  -4  -4    0.11    0.08 
  -7   4   4   -0.18    0.12 
   6  -4  -4    0.64    0.07 
   6  -4  -4    0.49    0.10 
   5  -4  -4    0.45    0.06 
   5  -4  -4    0.48    0.08 
   5  -4  -4    0.43    0.08 
   4  -4  -4    0.55    0.08 
   4  -4  -4    0.48    0.05 
   4  -4  -4    0.43    0.07 
   4  -4  -4    0.42    0.08 
   3  -4  -4    0.15    0.05 
   3  -4  -4    0.20    0.03 
   3  -4  -4    0.16    0.05 
   3  -4  -4    0.15    0.04 
   2  -4  -4   10.74    0.31 
   2  -4  -4   10.68    0.33 
   2  -4  -4   10.99    0.36 
   2  -4  -4   10.79    0.35 
   1  -4  -4  295.24    8.37 
   1  -4  -4  289.31    8.35 
   1  -4  -4  320.44    8.37 
  -1   4   4  330.71    8.38 
   0  -4  -4   52.51    1.47 
   0  -4  -4   51.16    1.45 
   0  -4  -4   56.40    1.49 
   0  -4  -4   52.01    1.46 
   0   4   4   53.83    1.49 
   0   4   4   51.25    1.51 
  -1  -4  -4   46.81    1.28 
  -1  -4  -4   45.51    1.27 
  -1  -4  -4   45.09    1.27 
  -1  -4  -4   46.86    1.30 
  -1  -4  -4   46.83    1.31 
   1   4   4   44.64    1.32 
   1   4   4   46.08    1.30 
  -2  -4  -4    6.24    0.25 
  -2  -4  -4    6.39    0.21 
  -2  -4  -4    6.27    0.22 
  -2  -4  -4    6.56    0.24 
  -2  -4  -4    6.36    0.22 
   2   4   4    6.49    0.25 
   2   4   4    6.27    0.24 
  -3  -4  -4    6.97    0.25 
  -3  -4  -4    6.90    0.26 
  -3  -4  -4    7.58    0.30 
  -3  -4  -4    7.66    0.28 
   3   4   4    7.64    0.25 
  -4  -4  -4    5.88    0.25 
  -4  -4  -4    5.84    0.20 
  -4  -4  -4    5.52    0.23 
   4   4   4    5.81    0.21 
  -5  -4  -4    4.94    0.19 
  -5  -4  -4    4.95    0.23 
  -5  -4  -4    4.76    0.23 
   5   4   4    4.88    0.20 
  -6  -4  -4    0.93    0.12 
  -6  -4  -4    1.16    0.10 
   7  -5  -4    0.16    0.09 
   7  -5  -4    0.15    0.06 
   7  -5  -4    0.07    0.09 
  -7   5   4   -0.03    0.13 
   6  -5  -4    0.14    0.05 
   6  -5  -4    0.11    0.07 
   6  -5  -4    0.04    0.07 
  -6   5   4    0.05    0.13 
   5  -5  -4    0.32    0.08 
   5  -5  -4    0.34    0.05 
   5  -5  -4    0.35    0.09 
  -5   5   4    0.37    0.14 
   4  -5  -4    9.67    0.37 
   4  -5  -4   10.81    0.35 
   4  -5  -4    9.84    0.37 
   4  -5  -4   10.31    0.32 
  -4   5   4   10.57    0.44 
   3  -5  -4    2.42    0.12 
   3  -5  -4    2.55    0.10 
   3  -5  -4    2.62    0.15 
   3  -5  -4    2.54    0.15 
  -3   5   4    2.40    0.20 
   2  -5  -4   48.97    1.41 
   2  -5  -4   49.16    1.39 
   2  -5  -4   52.21    1.43 
   2  -5  -4   50.45    1.36 
  -2   5   4   49.27    1.48 
   1  -5  -4   68.57    1.91 
   1  -5  -4   66.60    1.89 
   1  -5  -4   71.90    1.94 
  -1   5   4   68.80    1.98 
   0  -5  -4    2.47    0.13 
   0   5   4    2.40    0.15 
   0   5   4    2.35    0.17 
  -1  -5  -4    9.47    0.33 
   1   5   4    9.27    0.35 
  -2  -5  -4    1.13    0.12 
  -2  -5  -4    1.13    0.09 
  -2  -5  -4    1.21    0.08 
  -2  -5  -4    1.03    0.10 
   2   5   4    1.23    0.12 
  -3  -5  -4    0.45    0.07 
  -3  -5  -4    0.68    0.09 
  -3  -5  -4    0.39    0.09 
   3   5   4    0.44    0.07 
  -4  -5  -4    3.68    0.18 
  -4  -5  -4    3.39    0.19 
   4   5   4    3.62    0.16 
  -5  -5  -4    0.02    0.04 
  -5  -5  -4    0.07    0.07 
  -5  -5  -4    0.01    0.07 
   5   5   4   -0.01    0.06 
  -6  -5  -4    0.35    0.07 
  -6  -5  -4    0.31    0.09 
   7  -6  -4    0.06    0.09 
   7  -6  -4    0.17    0.10 
   7  -6  -4    0.16    0.06 
  -7   6   4    0.11    0.14 
   6  -6  -4    0.01    0.07 
   6  -6  -4    0.00    0.07 
   6  -6  -4   -0.01    0.05 
  -6   6   4    0.00    0.12 
   5  -6  -4    3.06    0.18 
   5  -6  -4    2.86    0.20 
   5  -6  -4    3.24    0.14 
  -5   6   4    3.44    0.28 
   4  -6  -4    0.66    0.08 
   4  -6  -4    0.70    0.06 
   4  -6  -4    0.47    0.08 
   4  -6  -4    0.70    0.10 
  -4   6   4    0.61    0.14 
   3  -6  -4    0.62    0.10 
   3  -6  -4    0.67    0.06 
   3  -6  -4    0.75    0.10 
   3  -6  -4    0.65    0.07 
  -3   6   4    0.60    0.13 
   2  -6  -4    2.33    0.14 
   2  -6  -4    2.28    0.15 
   2  -6  -4    2.34    0.12 
  -2   6   4    2.21    0.21 
   1  -6  -4    3.52    0.17 
  -1   6   4    3.14    0.22 
   0  -6  -4    0.44    0.08 
   0   6   4    0.33    0.10 
  -1  -6  -4    0.35    0.07 
   1   6   4    0.26    0.09 
  -2  -6  -4    0.05    0.04 
  -2  -6  -4    0.06    0.05 
  -2  -6  -4    0.08    0.06 
   2   6   4    0.09    0.08 
  -3  -6  -4    1.49    0.11 
  -3  -6  -4    1.53    0.13 
  -3  -6  -4    1.32    0.15 
   3   6   4    1.38    0.14 
  -4  -6  -4    5.13    0.23 
  -4  -6  -4    5.69    0.26 
  -4  -6  -4    5.80    0.29 
   4   6   4    5.45    0.23 
  -5  -6  -4    0.24    0.08 
  -5  -6  -4    0.22    0.09 
  -5  -6  -4    0.19    0.06 
   5   6   4   -0.01    0.12 
   6  -7  -4   -0.02    0.05 
   6  -7  -4   -0.01    0.08 
   6  -7  -4    0.00    0.07 
  -6   7   4    0.00    0.12 
   5  -7  -4    0.58    0.10 
   5  -7  -4    0.61    0.07 
   5  -7  -4    0.65    0.12 
  -5   7   4    0.72    0.17 
   4  -7  -4    0.44    0.08 
   4  -7  -4    0.54    0.06 
   4  -7  -4    0.33    0.08 
   4  -7  -4    0.55    0.11 
  -4   7   4    0.58    0.15 
   3  -7  -4    0.41    0.09 
   3  -7  -4    0.49    0.08 
  -3   7   4    0.45    0.13 
   2  -7  -4   -0.04    0.06 
  -2   7   4    0.08    0.11 
   1  -7  -4    3.14    0.18 
  -1   7   4    2.97    0.25 
   0  -7  -4    0.87    0.10 
   0   7   4    0.83    0.14 
  -1  -7  -4    1.13    0.12 
   1   7   4    1.07    0.16 
  -2  -7  -4    0.00    0.05 
   2   7   4    0.02    0.07 
  -3  -7  -4    0.00    0.08 
  -3  -7  -4    0.01    0.05 
   3   7   4    0.02    0.07 
  -4  -7  -4    0.09    0.09 
  -4  -7  -4    0.10    0.06 
  -4  -7  -4    0.00    0.06 
  -5  -7  -4    0.23    0.08 
   6  -8  -4    0.08    0.06 
   5  -8  -4    0.09    0.07 
   5  -8  -4   -0.02    0.07 
  -5   8   4    0.04    0.12 
   4  -8  -4   -0.04    0.07 
   4  -8  -4   -0.04    0.06 
   4  -8  -4    0.04    0.06 
  -4   8   4   -0.02    0.11 
   3  -8  -4    0.08    0.06 
   3  -8  -4    0.08    0.07 
   3  -8  -4    0.03    0.06 
  -3   8   4    0.18    0.12 
   2  -8  -4    2.83    0.19 
  -2   8   4    3.25    0.27 
   1  -8  -4    0.12    0.06 
  -1   8   4   -0.01    0.10 
   0  -8  -4    0.85    0.11 
   0   8   4    1.03    0.17 
  -1  -8  -4    0.35    0.08 
   1   8   4    0.42    0.13 
  -2  -8  -4    1.05    0.13 
   2   8   4    1.05    0.16 
  -3  -8  -4    0.20    0.08 
   3   8   4    0.20    0.10 
  -4  -8  -4    3.65    0.22 
  -4  -8  -4    3.49    0.28 
   5  -9  -4    1.15    0.13 
  -5   9   4    1.59    0.26 
   4  -9  -4    2.28    0.16 
  -4   9   4    2.53    0.29 
   3  -9  -4    0.18    0.08 
   3  -9  -4    0.23    0.09 
  -3   9   4    0.52    0.16 
   2  -9  -4    0.25    0.08 
  -2   9   4    0.36    0.15 
   1  -9  -4    0.25    0.08 
  -1   9   4    0.22    0.13 
   0  -9  -4    0.08    0.06 
   0   9   4    0.04    0.11 
  -1  -9  -4    1.42    0.15 
   1   9   4    1.85    0.23 
  -2  -9  -4    0.45    0.09 
   2   9   4    0.61    0.15 
  -3  -9  -4    0.01    0.07 
   3   9   4    0.16    0.11 
   3 -10  -4   -0.02    0.07 
  -3  10   4    0.29    0.16 
  -2  10   4    0.19    0.16 
   1 -10  -4    0.10    0.08 
  -1  10   4    0.02    0.14 
   0 -10  -4    0.05    0.06 
   0  10   4   -0.03    0.12 
  -1 -10  -4   -0.05    0.05 
   1  10   4    0.20    0.14 
  -2 -10  -4    0.85    0.13 
   2  10   4    1.07    0.19 
   3  10  -5   -0.04    0.07 
  -1 -10   5    0.19    0.08 
   0 -10   5    0.25    0.09 
  -1  10  -5    3.24    0.31 
  -2  10  -5    0.97    0.20 
  -3  10  -5    0.07    0.14 
   4   9  -5    0.02    0.06 
   3   9  -5    0.01    0.06 
   2   9  -5    3.97    0.22 
  -2  -9   5    4.35    0.21 
  -1  -9   5    2.96    0.18 
  -1  -9   5    2.48    0.15 
   0  -9   5    0.33    0.08 
  -1   9  -5    0.79    0.18 
   1  -9   5    0.68    0.10 
  -2   9  -5    5.59    0.35 
  -3   9  -5    4.67    0.35 
  -4   9  -5    0.35    0.16 
   4  -9   5    0.43    0.10 
   5   8  -5    0.14    0.07 
   4   8  -5    0.98    0.12 
   3   8  -5    0.95    0.12 
   2   8  -5    0.27    0.07 
  -2  -8   5    0.17    0.06 
   1   8  -5    4.29    0.21 
  -1  -8   5    4.38    0.21 
  -1  -8   5    3.65    0.18 
   0   8  -5    2.39    0.22 
   0  -8   5    2.31    0.15 
  -1   8  -5    6.98    0.36 
   1  -8   5    6.58    0.28 
  -2   8  -5    1.97    0.22 
  -3   8  -5   -0.01    0.10 
  -4   8  -5    0.12    0.13 
   4  -8   5    0.12    0.08 
  -5   8  -5    0.03    0.13 
   5  -8   5    0.12    0.08 
   6   7  -5    0.84    0.13 
   5   7  -5    0.16    0.07 
   4   7  -5    0.22    0.08 
   3   7  -5    1.99    0.15 
  -3  -7   5    2.16    0.12 
   2   7  -5    0.24    0.06 
  -2  -7   5    0.30    0.06 
   1   7  -5    8.79    0.32 
   0   7  -5    6.79    0.33 
   0  -7   5    7.07    0.26 
  -1   7  -5    0.08    0.08 
   1  -7   5    0.01    0.05 
  -2   7  -5    0.63    0.13 
   2  -7   5    0.79    0.11 
  -3   7  -5    0.92    0.16 
  -4   7  -5    0.35    0.13 
   4  -7   5    0.29    0.09 
  -5   7  -5    0.53    0.14 
   5  -7   5    0.37    0.07 
   5  -7   5    0.40    0.10 
   6   6  -5    0.11    0.08 
   6   6  -5    0.11    0.08 
   5   6  -5    0.73    0.11 
   5   6  -5    0.52    0.09 
   4   6  -5    0.30    0.07 
   4   6  -5    0.58    0.09 
   3   6  -5    3.41    0.17 
   3   6  -5    3.24    0.17 
  -3  -6   5    3.17    0.14 
   2   6  -5    0.92    0.09 
  -2  -6   5    1.07    0.08 
   1   6  -5    2.81    0.15 
   0   6  -5    0.05    0.05 
   0  -6   5    0.08    0.04 
  -1   6  -5    1.24    0.14 
   1  -6   5    1.55    0.11 
  -2   6  -5    0.12    0.08 
   2  -6   5    0.16    0.07 
  -3   6  -5   -0.04    0.07 
   3  -6   5   -0.09    0.05 
  -4   6  -5    0.82    0.15 
   4  -6   5    0.95    0.08 
   4  -6   5    0.87    0.11 
  -5   6  -5    1.34    0.19 
   5  -6   5    1.38    0.11 
   5  -6   5    1.42    0.15 
   6  -6   5    0.25    0.08 
   6  -6   5    0.18    0.10 
   7   5  -5    0.83    0.12 
   7   5  -5    1.25    0.14 
  -7  -5   5    0.69    0.08 
   6   5  -5    0.49    0.09 
   6   5  -5    0.54    0.10 
   5   5  -5    0.00    0.05 
   5   5  -5    0.05    0.06 
   4   5  -5    0.13    0.06 
   4   5  -5    0.26    0.07 
   3   5  -5    0.26    0.06 
   3   5  -5    0.24    0.06 
  -3  -5   5    0.22    0.04 
   2   5  -5    8.03    0.29 
   2   5  -5    8.00    0.28 
  -2  -5   5    8.16    0.26 
   1   5  -5    1.03    0.08 
   1   5  -5    1.21    0.08 
   0   5  -5    4.29    0.17 
   0  -5   5    3.69    0.16 
  -1   5  -5    0.68    0.10 
   1  -5   5    0.67    0.08 
   1  -5   5    0.54    0.06 
  -2   5  -5    0.73    0.11 
   2  -5   5    0.67    0.09 
   2  -5   5    0.81    0.09 
   2  -5   5    0.88    0.08 
   2  -5   5    0.82    0.06 
  -3   5  -5    2.42    0.18 
   3  -5   5    2.31    0.11 
   3  -5   5    2.25    0.10 
   3  -5   5    2.46    0.14 
  -4   5  -5    5.54    0.28 
   4  -5   5    5.67    0.20 
   4  -5   5    5.80    0.24 
  -5   5  -5    1.13    0.17 
   5  -5   5    1.29    0.14 
   5  -5   5    1.09    0.10 
   6  -5   5    0.09    0.07 
   6  -5   5   -0.01    0.09 
   7   4  -5    0.75    0.11 
   7   4  -5    1.12    0.13 
  -7  -4   5    0.96    0.09 
   6   4  -5    0.04    0.06 
   6   4  -5    0.04    0.06 
  -6  -4   5    0.04    0.04 
   5   4  -5    4.17    0.21 
   5   4  -5    4.41    0.20 
  -5  -4   5    4.26    0.15 
   4   4  -5    0.06    0.05 
   4   4  -5   -0.01    0.04 
  -4  -4   5    0.02    0.02 
   3   4  -5    1.38    0.10 
   3   4  -5    1.33    0.10 
   2   4  -5    9.57    0.32 
   2   4  -5    9.86    0.32 
   1   4  -5   23.72    0.68 
   1   4  -5   23.04    0.68 
   0   4  -5    2.23    0.10 
   0   4  -5    2.30    0.11 
   0  -4   5    2.16    0.11 
   0  -4   5    2.20    0.10 
   1  -4   5    0.02    0.02 
   1  -4   5    0.02    0.02 
   1  -4   5    0.03    0.04 
  -2   4  -5    0.73    0.10 
   2  -4   5    0.47    0.07 
   2  -4   5    0.53    0.06 
   2  -4   5    0.53    0.07 
   2  -4   5    0.45    0.05 
   2  -4   5    0.54    0.05 
   2  -4   5    0.52    0.04 
   2  -4   5    0.52    0.08 
  -3   4  -5    2.38    0.16 
   3  -4   5    2.41    0.12 
   3  -4   5    2.32    0.11 
   3  -4   5    2.28    0.09 
   3  -4   5    2.55    0.14 
  -4   4  -5    2.41    0.19 
   4  -4   5    3.19    0.17 
   4  -4   5    2.87    0.14 
   5  -4   5    0.81    0.08 
   5  -4   5    0.85    0.12 
   6  -4   5    0.06    0.09 
   6  -4   5    0.10    0.06 
   7   3  -5    0.02    0.06 
   7   3  -5    0.01    0.06 
  -7  -3   5   -0.02    0.05 
   6   3  -5    3.08    0.18 
   6   3  -5    2.83    0.17 
  -6  -3   5    2.92    0.14 
   5   3  -5    6.99    0.28 
   5   3  -5    6.95    0.27 
  -5  -3   5    6.76    0.23 
   4   3  -5   15.17    0.49 
   4   3  -5   15.23    0.48 
  -4  -3   5   14.73    0.46 
  -4  -3   5   15.49    0.43 
   3   3  -5    0.03    0.03 
   3   3  -5    0.03    0.03 
  -3  -3   5    0.00    0.03 
   2   3  -5    9.44    0.30 
   2   3  -5    9.17    0.30 
   1   3  -5   36.37    1.02 
   1   3  -5   36.17    1.02 
  -1  -3   5   36.68    1.03 
   0   3  -5    5.14    0.18 
   0   3  -5    4.94    0.17 
   0  -3   5    5.08    0.17 
   0  -3   5    5.13    0.18 
   1  -3   5    5.56    0.18 
   1  -3   5    5.50    0.18 
   1  -3   5    5.54    0.20 
   1  -3   5    5.57    0.20 
   1  -3   5    5.48    0.19 
   2  -3   5   33.92    0.97 
   2  -3   5   33.20    0.94 
   2  -3   5   34.26    0.94 
   2  -3   5   35.72    0.99 
   2  -3   5   34.47    0.99 
   2  -3   5   34.66    0.96 
   2  -3   5   33.78    0.96 
  -3   3  -5    1.33    0.11 
   3  -3   5    1.48    0.08 
   3  -3   5    1.40    0.11 
   3  -3   5    1.66    0.09 
   4  -3   5    0.43    0.07 
   4  -3   5    0.52    0.08 
   5  -3   5    1.19    0.13 
   5  -3   5    1.41    0.11 
   6  -3   5    0.82    0.09 
   6  -3   5    0.91    0.12 
   7  -3   5    1.73    0.17 
   7  -3   5    1.82    0.14 
   7   2  -5    0.52    0.09 
  -7  -2   5    0.44    0.07 
   6   2  -5    0.70    0.09 
  -6  -2   5    0.69    0.07 
   5   2  -5    2.84    0.15 
   5   2  -5    2.86    0.14 
  -5  -2   5    2.82    0.12 
   4   2  -5    2.00    0.11 
  -4  -2   5    1.75    0.09 
   3   2  -5    1.06    0.08 
  -3  -2   5    1.00    0.05 
  -3  -2   5    0.98    0.07 
   2   2  -5   41.06    1.16 
   2   2  -5   41.28    1.16 
  -2  -2   5   41.31    1.13 
  -2  -2   5   41.52    1.16 
  -2  -2   5   42.13    1.14 
   1   2  -5    0.33    0.04 
   1   2  -5    0.42    0.04 
  -1  -2   5    0.29    0.04 
  -1  -2   5    0.34    0.04 
  -1  -2   5    0.39    0.04 
   0   2  -5   88.34    2.42 
   0   2  -5   89.44    2.42 
   0  -2   5   86.90    2.43 
   0  -2   5   89.85    2.42 
   0  -2   5   89.82    2.41 
   0  -2   5   88.96    2.43 
  -1   2  -5   12.39    0.36 
  -1   2  -5   12.25    0.35 
   1  -2   5   12.28    0.36 
   1  -2   5   12.45    0.35 
   1  -2   5   12.40    0.38 
   1  -2   5   12.26    0.38 
   1  -2   5   12.38    0.37 
   1  -2   5   12.42    0.36 
   1  -2   5   12.61    0.39 
  -2   2  -5   11.30    0.35 
  -2   2  -5   11.27    0.36 
  -2   2  -5   11.56    0.36 
   2  -2   5   11.08    0.37 
   2  -2   5   11.49    0.35 
   2  -2   5   11.48    0.34 
   2  -2   5   11.30    0.37 
   2  -2   5   11.54    0.38 
   2  -2   5   11.63    0.35 
  -3   2  -5   15.03    0.48 
  -3   2  -5   14.81    0.45 
   3  -2   5   15.31    0.46 
   3  -2   5   14.57    0.44 
  -4   2  -5    1.08    0.06 
  -4   2  -5    1.34    0.10 
  -4   2  -5    1.37    0.06 
   4  -2   5    1.44    0.10 
   4  -2   5    1.74    0.13 
  -5   2  -5    0.69    0.05 
  -5   2  -5    0.76    0.09 
   5  -2   5    0.85    0.11 
   5  -2   5    0.74    0.07 
  -6   2  -5   -0.05    0.03 
   6  -2   5    0.05    0.08 
   6  -2   5    0.05    0.05 
   7  -2   5    0.05    0.06 
   7  -2   5    0.00    0.09 
   8   1  -5    0.11    0.08 
  -8  -1   5   -0.02    0.05 
   7   1  -5    0.10    0.06 
  -7  -1   5    0.00    0.05 
   6   1  -5    0.05    0.06 
   6   1  -5    0.22    0.06 
  -6  -1   5    0.20    0.05 
   5   1  -5   10.19    0.34 
  -5  -1   5   10.16    0.32 
  -5  -1   5   10.66    0.39 
   4   1  -5    0.10    0.04 
  -4  -1   5    0.06    0.03 
  -4  -1   5    0.10    0.05 
   3   1  -5    9.52    0.29 
  -3  -1   5    9.67    0.28 
  -3  -1   5    9.28    0.29 
  -3  -1   5    9.51    0.32 
   2   1  -5   23.74    0.65 
   2   1  -5   23.48    0.66 
  -2  -1   5   23.83    0.65 
  -2  -1   5   23.47    0.66 
  -2  -1   5   22.30    0.65 
  -2  -1   5   23.67    0.68 
   1   1  -5   15.34    0.43 
   1   1  -5   14.80    0.44 
   1   1  -5   15.01    0.43 
  -1  -1   5   15.08    0.43 
  -1  -1   5   15.08    0.43 
  -1  -1   5   14.88    0.44 
  -1  -1   5   14.78    0.42 
   0   1  -5    0.75    0.04 
   0   1  -5    0.77    0.06 
   0   1  -5    0.81    0.06 
   0   1  -5    0.74    0.05 
   0  -1   5    0.95    0.05 
   0  -1   5    0.75    0.06 
   0  -1   5    0.82    0.04 
   0  -1   5    0.97    0.07 
  -1   1  -5    0.04    0.01 
  -1   1  -5    0.08    0.03 
  -1   1  -5    0.06    0.02 
   1  -1   5    0.10    0.03 
   1  -1   5    0.05    0.02 
   1  -1   5    0.03    0.03 
   1  -1   5    0.12    0.03 
   1  -1   5    0.08    0.04 
   1  -1   5    0.06    0.03 
  -2   1  -5   31.14    0.84 
  -2   1  -5   30.89    0.87 
  -2   1  -5   31.57    0.89 
  -2   1  -5   30.72    0.84 
  -2   1  -5   31.19    0.87 
   2  -1   5   30.83    0.87 
   2  -1   5   29.63    0.85 
   2  -1   5   30.85    0.88 
   2  -1   5   29.10    0.88 
   2  -1   5   29.94    0.89 
  -3   1  -5    5.44    0.24 
  -3   1  -5    5.61    0.17 
  -3   1  -5    5.49    0.20 
   3  -1   5    5.51    0.21 
   3  -1   5    5.40    0.22 
   3  -1   5    5.67    0.19 
  -4   1  -5   22.93    0.65 
  -4   1  -5   22.47    0.69 
  -4   1  -5   23.05    0.73 
   4  -1   5   23.37    0.66 
   4  -1   5   23.54    0.70 
  -5   1  -5    0.36    0.07 
  -5   1  -5    0.36    0.05 
   5  -1   5    0.33    0.06 
   5  -1   5    0.43    0.09 
  -6   1  -5    0.09    0.04 
  -6   1  -5    0.20    0.07 
   6  -1   5    0.13    0.08 
   6  -1   5    0.15    0.05 
  -7   1  -5    0.16    0.05 
   7  -1   5    0.07    0.10 
   7  -1   5    0.24    0.06 
   8   0  -5    0.99    0.12 
  -8   0   5    0.74    0.09 
   7   0  -5   -0.04    0.06 
  -7   0   5   -0.02    0.05 
   6   0  -5    0.72    0.07 
   6   0  -5    0.87    0.09 
  -6   0   5    0.69    0.07 
   5   0  -5   14.06    0.43 
   5   0  -5   13.52    0.38 
   5   0  -5   12.20    0.39 
  -5   0   5   13.56    0.47 
  -5   0   5   13.66    0.40 
   4   0  -5    1.93    0.10 
   4   0  -5    1.50    0.07 
   4   0  -5    1.80    0.07 
  -4   0   5    1.86    0.13 
  -4   0   5    1.77    0.08 
   3   0  -5   12.23    0.34 
   3   0  -5   11.19    0.35 
   3   0  -5   12.34    0.37 
  -3   0   5   12.44    0.39 
  -3   0   5   12.32    0.35 
   2   0  -5   17.95    0.52 
   2   0  -5   17.52    0.50 
   2   0  -5   17.82    0.48 
   2   0  -5   16.65    0.49 
  -2   0   5   18.09    0.49 
  -2   0   5   17.17    0.50 
  -2   0   5   16.23    0.49 
  -2   0   5   18.30    0.52 
   1   0  -5    2.90    0.11 
   1   0  -5    2.87    0.12 
   1   0  -5    2.78    0.11 
   1   0  -5    2.88    0.09 
  -1   0   5    3.10    0.13 
  -1   0   5    2.78    0.11 
  -1   0   5    2.90    0.11 
  -1   0   5    2.86    0.10 
   0   0  -5    0.53    0.06 
   0   0  -5    0.47    0.04 
   0   0  -5    0.50    0.03 
   0   0  -5    0.51    0.05 
   0   0   5    0.49    0.05 
   0   0   5    0.54    0.07 
   0   0   5    0.49    0.04 
   0   0   5    0.60    0.04 
   0   0   5    0.47    0.05 
  -1   0  -5  108.36    2.97 
  -1   0  -5  106.99    2.96 
  -1   0  -5  109.42    2.99 
  -1   0  -5  106.65    2.99 
   1   0   5  105.74    2.98 
   1   0   5  125.11    3.01 
   1   0   5  108.51    2.97 
   1   0   5  106.36    2.99 
   1   0   5  107.22    2.96 
  -2   0  -5    0.66    0.04 
  -2   0  -5    0.70    0.09 
  -2   0  -5    0.78    0.07 
  -2   0  -5    0.58    0.07 
   2   0   5    0.71    0.05 
   2   0   5    0.52    0.06 
  -3   0  -5    2.21    0.09 
  -3   0  -5    2.18    0.15 
  -3   0  -5    2.14    0.11 
   3   0   5    2.06    0.09 
   3   0   5    2.01    0.12 
   3   0   5    2.11    0.12 
  -4   0  -5    0.55    0.07 
  -4   0  -5    0.63    0.06 
  -4   0  -5    0.65    0.11 
   4   0   5    0.75    0.09 
   4   0   5    0.62    0.06 
  -5   0  -5    2.59    0.16 
  -5   0  -5    2.61    0.12 
   5   0   5    2.78    0.12 
   5   0   5    2.73    0.17 
  -6   0  -5    0.04    0.04 
  -6   0  -5   -0.02    0.06 
   6   0   5    0.03    0.04 
   6   0   5    0.03    0.07 
  -7   0  -5    0.15    0.09 
  -7   0  -5    0.09    0.05 
   8  -1  -5   -0.11    0.07 
  -8   1   5   -0.08    0.06 
   7  -1  -5    0.20    0.08 
  -7   1   5    0.16    0.06 
   6  -1  -5   27.37    0.76 
   6  -1  -5   24.29    0.73 
  -6   1   5   23.53    0.72 
   5  -1  -5    0.54    0.08 
   5  -1  -5    0.43    0.06 
  -5   1   5    0.37    0.08 
  -5   1   5    0.56    0.06 
   4  -1  -5    0.10    0.04 
   4  -1  -5    0.03    0.03 
  -4   1   5    0.07    0.03 
  -4   1   5    0.04    0.05 
   3  -1  -5    1.70    0.11 
   3  -1  -5    1.52    0.08 
   3  -1  -5    1.62    0.09 
  -3   1   5    1.70    0.08 
  -3   1   5    1.78    0.11 
   2  -1  -5   17.78    0.53 
   2  -1  -5   17.44    0.51 
   2  -1  -5   17.37    0.51 
  -2   1   5   16.96    0.51 
  -2   1   5   18.67    0.50 
  -2   1   5   17.93    0.53 
   1  -1  -5    3.21    0.13 
   1  -1  -5    2.94    0.12 
   1  -1  -5    3.11    0.11 
  -1   1   5    2.93    0.12 
  -1   1   5    3.50    0.14 
  -1   1   5    3.20    0.11 
   0  -1  -5    1.18    0.07 
   0  -1  -5    1.18    0.06 
   0   1   5    1.22    0.07 
   0   1   5    1.12    0.06 
   0   1   5    1.14    0.08 
   0   1   5    1.18    0.07 
  -1  -1  -5    3.75    0.14 
  -1  -1  -5    3.69    0.15 
  -1  -1  -5    4.06    0.14 
   1   1   5    3.75    0.14 
   1   1   5    3.73    0.12 
   1   1   5    3.74    0.14 
   1   1   5    3.82    0.16 
   1   1   5    3.81    0.15 
  -2  -1  -5    0.57    0.06 
  -2  -1  -5    0.41    0.04 
  -2  -1  -5    0.53    0.06 
  -2  -1  -5    0.33    0.04 
   2   1   5    0.37    0.04 
   2   1   5    0.44    0.06 
   2   1   5    0.36    0.05 
  -3  -1  -5   13.24    0.41 
  -3  -1  -5   13.11    0.39 
  -3  -1  -5   13.48    0.43 
  -3  -1  -5   13.56    0.42 
   3   1   5   13.18    0.38 
   3   1   5   13.06    0.41 
   3   1   5   12.46    0.42 
  -4  -1  -5    0.13    0.04 
  -4  -1  -5    0.08    0.08 
  -4  -1  -5    0.16    0.06 
   4   1   5    0.11    0.06 
   4   1   5    0.12    0.04 
  -5  -1  -5    6.71    0.28 
  -5  -1  -5    6.55    0.23 
   5   1   5    7.06    0.21 
   5   1   5    7.18    0.28 
  -6  -1  -5    0.67    0.10 
  -6  -1  -5    0.63    0.07 
  -7  -1  -5    0.66    0.12 
  -7  -1  -5    0.62    0.08 
  -8   2   5   -0.04    0.05 
   7  -2  -5    0.93    0.12 
  -7   2   5    0.77    0.08 
   6  -2  -5    0.15    0.07 
   6  -2  -5    0.07    0.06 
  -6   2   5    0.13    0.05 
   5  -2  -5    0.51    0.08 
   5  -2  -5    0.41    0.06 
  -5   2   5    0.35    0.08 
  -5   2   5    0.41    0.06 
   4  -2  -5    1.38    0.10 
   4  -2  -5    1.18    0.09 
  -4   2   5    1.50    0.08 
  -4   2   5    1.35    0.12 
   3  -2  -5   29.20    0.83 
   3  -2  -5   27.20    0.83 
  -3   2   5   29.79    0.85 
  -3   2   5   30.41    0.81 
   2  -2  -5   17.62    0.52 
   2  -2  -5   16.74    0.51 
   2  -2  -5   17.94    0.53 
  -2   2   5   16.38    0.52 
  -2   2   5   17.82    0.53 
  -2   2   5   18.11    0.49 
  -2   2   5   17.82    0.49 
   1  -2  -5    0.89    0.08 
   1  -2  -5    1.01    0.06 
   1  -2  -5    1.00    0.07 
  -1   2   5    1.03    0.08 
  -1   2   5    0.94    0.06 
   0  -2  -5   10.44    0.32 
   0  -2  -5   11.15    0.34 
   0  -2  -5   10.92    0.35 
   0   2   5   11.04    0.34 
   0   2   5   10.67    0.32 
   0   2   5   10.73    0.34 
  -1  -2  -5    0.07    0.03 
  -1  -2  -5    0.09    0.04 
  -1  -2  -5    0.05    0.04 
  -1  -2  -5    0.13    0.03 
   1   2   5    0.07    0.03 
   1   2   5    0.08    0.03 
  -2  -2  -5    0.77    0.07 
  -2  -2  -5    0.67    0.06 
  -2  -2  -5    0.77    0.07 
  -2  -2  -5    0.74    0.10 
   2   2   5    0.73    0.07 
   2   2   5    0.72    0.07 
  -3  -2  -5    0.19    0.05 
  -3  -2  -5    0.18    0.03 
  -3  -2  -5    0.14    0.07 
  -3  -2  -5    0.20    0.06 
  -3  -2  -5    0.18    0.05 
  -3  -2  -5    0.20    0.03 
   3   2   5    0.16    0.08 
   3   2   5    0.15    0.05 
  -4  -2  -5    8.17    0.27 
  -4  -2  -5    8.23    0.31 
  -4  -2  -5    8.43    0.30 
  -4  -2  -5    8.58    0.35 
   4   2   5    8.06    0.29 
  -5  -2  -5    0.08    0.07 
  -5  -2  -5    0.33    0.06 
   5   2   5    0.33    0.08 
  -6  -2  -5    0.05    0.04 
  -6  -2  -5    0.13    0.08 
  -7  -2  -5   -0.01    0.09 
  -7  -2  -5   -0.04    0.05 
   7  -3  -5   -0.02    0.08 
  -7   3   5    0.01    0.04 
   6  -3  -5    1.11    0.12 
   6  -3  -5    1.10    0.12 
  -6   3   5    0.99    0.08 
   5  -3  -5    0.09    0.06 
   5  -3  -5    0.08    0.06 
  -5   3   5    0.11    0.09 
  -5   3   5    0.15    0.04 
   4  -3  -5    1.06    0.12 
   4  -3  -5    1.11    0.10 
   4  -3  -5    1.07    0.09 
  -4   3   5    1.09    0.06 
  -4   3   5    0.96    0.11 
  -4   3   5    1.00    0.05 
   3  -3  -5    1.71    0.12 
   3  -3  -5    1.59    0.10 
   3  -3  -5    1.70    0.10 
   3  -3  -5    1.69    0.08 
  -3   3   5    1.84    0.12 
   2  -3  -5   11.02    0.37 
   2  -3  -5   10.76    0.34 
   2  -3  -5   11.88    0.36 
   2  -3  -5   11.28    0.32 
  -2   3   5   11.19    0.36 
   1  -3  -5   12.25    0.39 
   1  -3  -5   12.76    0.39 
   1  -3  -5   11.76    0.36 
  -1   3   5   12.04    0.37 
  -1   3   5   11.82    0.36 
  -1   3   5   12.78    0.39 
   0  -3  -5    9.80    0.30 
   0  -3  -5    9.86    0.32 
   0  -3  -5   10.34    0.33 
   0   3   5    9.42    0.29 
   0   3   5   10.04    0.32 
  -1  -3  -5    0.10    0.02 
  -1  -3  -5    0.08    0.04 
  -1  -3  -5    0.02    0.04 
  -1  -3  -5    0.09    0.03 
  -1  -3  -5   -0.03    0.03 
   1   3   5    0.05    0.05 
   1   3   5    0.01    0.03 
   1   3   5    0.03    0.03 
  -2  -3  -5    4.60    0.18 
  -2  -3  -5    4.53    0.19 
  -2  -3  -5    4.88    0.21 
  -2  -3  -5    4.71    0.17 
   2   3   5    4.43    0.19 
  -3  -3  -5   35.14    1.03 
  -3  -3  -5   34.41    1.00 
  -3  -3  -5   35.68    1.02 
  -3  -3  -5   34.72    0.98 
  -3  -3  -5   34.55    0.97 
   3   3   5   33.06    0.98 
  -4  -3  -5    0.65    0.08 
  -4  -3  -5    0.82    0.10 
  -4  -3  -5    0.69    0.08 
  -4  -3  -5    0.69    0.11 
  -4  -3  -5    0.77    0.07 
   4   3   5    0.84    0.08 
  -5  -3  -5    0.94    0.08 
  -5  -3  -5    1.08    0.12 
  -5  -3  -5    0.85    0.11 
  -6  -3  -5    0.06    0.07 
  -6  -3  -5    0.05    0.05 
   7  -4  -5    0.43    0.10 
   7  -4  -5    0.56    0.11 
   6  -4  -5    0.44    0.09 
   6  -4  -5    0.39    0.09 
   5  -4  -5    0.94    0.11 
   5  -4  -5    0.87    0.10 
   5  -4  -5    0.76    0.07 
   4  -4  -5   -0.01    0.05 
   4  -4  -5    0.00    0.03 
   4  -4  -5   -0.01    0.05 
   4  -4  -5    0.04    0.05 
   3  -4  -5    3.22    0.17 
   3  -4  -5    3.18    0.15 
   3  -4  -5    3.34    0.12 
   3  -4  -5    3.34    0.16 
   2  -4  -5   32.56    0.88 
   2  -4  -5   31.81    0.93 
   2  -4  -5   32.34    0.93 
   2  -4  -5   31.21    0.90 
   1  -4  -5    1.77    0.07 
   1  -4  -5    1.66    0.09 
   1  -4  -5    1.77    0.12 
   1  -4  -5    1.90    0.12 
  -1   4   5    1.96    0.11 
   0  -4  -5    9.72    0.33 
   0  -4  -5   10.25    0.34 
   0  -4  -5    9.33    0.30 
   0   4   5    9.76    0.36 
   0   4   5   10.06    0.33 
  -1  -4  -5    2.93    0.16 
  -1  -4  -5    3.05    0.15 
  -1  -4  -5    3.15    0.12 
  -1  -4  -5    2.82    0.12 
  -1  -4  -5    2.66    0.13 
   1   4   5    3.15    0.14 
   1   4   5    2.84    0.16 
  -2  -4  -5   13.91    0.45 
  -2  -4  -5   13.09    0.40 
  -2  -4  -5   13.06    0.41 
  -2  -4  -5   13.33    0.43 
  -2  -4  -5   12.69    0.39 
   2   4   5   12.72    0.43 
  -3  -4  -5    3.33    0.20 
  -3  -4  -5    3.40    0.18 
  -3  -4  -5    3.33    0.16 
  -4  -4  -5    0.86    0.09 
  -4  -4  -5    0.98    0.11 
  -4  -4  -5    0.85    0.08 
  -4  -4  -5    0.87    0.12 
  -5  -4  -5    0.01    0.07 
  -5  -4  -5    0.10    0.04 
  -5  -4  -5    0.08    0.06 
  -6  -4  -5    3.28    0.16 
  -6  -4  -5    3.61    0.22 
   7  -5  -5    3.50    0.23 
   7  -5  -5    3.12    0.22 
  -7   5   5    3.04    0.32 
   6  -5  -5    0.23    0.06 
   6  -5  -5    0.06    0.07 
   6  -5  -5    0.12    0.08 
  -6   5   5   -0.17    0.12 
   5  -5  -5    0.58    0.10 
   5  -5  -5    0.63    0.07 
   5  -5  -5    0.56    0.09 
   4  -5  -5    0.29    0.07 
   4  -5  -5    0.30    0.08 
   4  -5  -5    0.32    0.05 
   4  -5  -5    0.30    0.07 
   3  -5  -5    7.62    0.27 
   3  -5  -5    7.85    0.30 
   3  -5  -5    7.81    0.24 
   3  -5  -5    7.44    0.29 
   2  -5  -5    0.14    0.05 
   2  -5  -5    0.19    0.05 
   2  -5  -5    0.00    0.05 
   1  -5  -5   28.41    0.80 
   1  -5  -5   25.53    0.77 
   1  -5  -5   25.20    0.75 
  -1   5   5   26.09    0.84 
   0  -5  -5    1.65    0.13 
   0  -5  -5    1.70    0.10 
   0  -5  -5    2.15    0.13 
   0   5   5    1.85    0.17 
  -1  -5  -5    2.24    0.11 
  -1  -5  -5    2.36    0.15 
  -1  -5  -5    2.37    0.14 
   1   5   5    2.30    0.16 
  -2  -5  -5    0.84    0.08 
  -2  -5  -5    0.64    0.09 
  -2  -5  -5    0.69    0.07 
  -2  -5  -5    0.94    0.11 
   2   5   5    0.77    0.11 
  -3  -5  -5   -0.05    0.07 
  -3  -5  -5   -0.02    0.05 
  -3  -5  -5    0.04    0.06 
  -4  -5  -5    0.11    0.09 
  -4  -5  -5    0.14    0.07 
  -4  -5  -5    0.10    0.06 
  -5  -5  -5   -0.04    0.04 
  -5  -5  -5   -0.07    0.07 
  -5  -5  -5    0.06    0.07 
  -6  -5  -5    0.83    0.12 
  -6  -5  -5    0.66    0.08 
   7  -6  -5    0.05    0.09 
   7  -6  -5   -0.06    0.09 
  -7   6   5    0.09    0.14 
   6  -6  -5    0.23    0.06 
   6  -6  -5    0.13    0.08 
   6  -6  -5    0.12    0.09 
  -6   6   5    0.03    0.14 
   5  -6  -5    2.17    0.16 
   5  -6  -5    2.09    0.11 
   5  -6  -5    2.18    0.17 
  -5   6   5    1.65    0.25 
   4  -6  -5    0.56    0.09 
   4  -6  -5    0.64    0.08 
   4  -6  -5    0.63    0.06 
   4  -6  -5    0.50    0.10 
  -4   6   5    0.49    0.14 
   3  -6  -5    0.56    0.08 
   3  -6  -5    0.63    0.07 
   3  -6  -5    0.66    0.10 
   3  -6  -5    0.61    0.06 
  -3   6   5    0.53    0.13 
   2  -6  -5    5.23    0.20 
   2  -6  -5    5.37    0.16 
   2  -6  -5    5.20    0.23 
   2  -6  -5    5.47    0.24 
  -2   6   5    5.31    0.31 
   1  -6  -5   16.83    0.53 
   1  -6  -5   16.15    0.50 
   1  -6  -5   17.47    0.55 
  -1   6   5   17.03    0.61 
   0  -6  -5   -0.12    0.05 
   0  -6  -5   -0.04    0.04 
   0   6   5   -0.03    0.07 
  -1  -6  -5    1.33    0.12 
  -1  -6  -5    1.31    0.13 
   1   6   5    1.29    0.16 
  -2  -6  -5    2.95    0.17 
  -2  -6  -5    2.59    0.14 
  -2  -6  -5    2.70    0.19 
   2   6   5    2.88    0.20 
  -3  -6  -5    0.72    0.08 
  -3  -6  -5    0.73    0.11 
  -3  -6  -5    0.99    0.12 
   3   6   5    0.81    0.11 
  -4  -6  -5    1.39    0.14 
  -4  -6  -5    1.38    0.19 
  -4  -6  -5    1.24    0.13 
  -5  -6  -5    2.99    0.20 
  -5  -6  -5    3.03    0.20 
  -5  -6  -5    3.17    0.15 
   6  -7  -5    0.06    0.08 
   6  -7  -5    0.00    0.05 
   6  -7  -5    0.16    0.09 
  -6   7   5    0.13    0.14 
   5  -7  -5    0.43    0.10 
   5  -7  -5    0.53    0.09 
   5  -7  -5    0.38    0.06 
  -5   7   5    0.53    0.16 
   4  -7  -5    0.32    0.09 
   4  -7  -5    0.35    0.08 
   4  -7  -5    0.22    0.08 
   4  -7  -5    0.38    0.05 
  -4   7   5    0.42    0.14 
   3  -7  -5    1.88    0.12 
   3  -7  -5    1.80    0.15 
   3  -7  -5    1.64    0.15 
  -3   7   5    1.85    0.22 
   2  -7  -5   10.62    0.37 
   2  -7  -5   10.24    0.34 
   2  -7  -5   10.21    0.39 
  -2   7   5   10.24    0.47 
   1  -7  -5    6.69    0.28 
   1  -7  -5    6.15    0.25 
  -1   7   5    5.97    0.34 
   0  -7  -5    2.02    0.14 
   0   7   5    2.09    0.20 
  -1  -7  -5    0.41    0.09 
   1   7   5    0.42    0.12 
  -2  -7  -5    0.40    0.09 
  -2  -7  -5    0.63    0.10 
  -2  -7  -5    0.40    0.07 
   2   7   5    0.55    0.12 
  -3  -7  -5    0.23    0.09 
  -3  -7  -5    0.34    0.09 
  -3  -7  -5    0.26    0.07 
   3   7   5    0.25    0.09 
  -4  -7  -5    0.30    0.08 
  -4  -7  -5    0.27    0.09 
  -5  -7  -5    0.29    0.09 
   5  -8  -5    0.63    0.07 
   5  -8  -5    0.36    0.11 
   5  -8  -5    0.58    0.11 
  -5   8   5    0.56    0.18 
   4  -8  -5   -0.05    0.06 
   4  -8  -5   -0.01    0.06 
   4  -8  -5    0.01    0.07 
  -4   8   5   -0.03    0.11 
   3  -8  -5    0.00    0.07 
   3  -8  -5    0.07    0.06 
  -3   8   5    0.11    0.11 
   2  -8  -5    2.89    0.15 
   2  -8  -5    2.97    0.18 
   2  -8  -5    2.74    0.19 
  -2   8   5    3.19    0.28 
   1  -8  -5    0.20    0.07 
  -1   8   5    0.18    0.12 
   0  -8  -5    0.10    0.06 
   0   8   5    0.13    0.10 
  -1  -8  -5    0.08    0.06 
   1   8   5    0.16    0.11 
  -2  -8  -5    1.08    0.13 
   2   8   5    1.24    0.17 
  -3  -8  -5    2.02    0.20 
  -3  -8  -5    1.94    0.16 
  -3  -8  -5    1.84    0.15 
   3   8   5    2.00    0.20 
  -4  -8  -5    0.74    0.12 
  -4  -8  -5    0.71    0.10 
   4  -9  -5   -0.01    0.06 
  -4   9   5    0.08    0.13 
   3  -9  -5    0.42    0.11 
   3  -9  -5    0.26    0.09 
  -3   9   5    0.62    0.19 
   2  -9  -5    0.56    0.11 
   2  -9  -5    0.31    0.08 
  -2   9   5    0.51    0.17 
   1  -9  -5    0.22    0.08 
  -1   9   5    0.14    0.13 
   0  -9  -5    0.36    0.09 
   0   9   5    0.56    0.17 
  -1  -9  -5    0.06    0.07 
   1   9   5    0.19    0.13 
  -2  -9  -5    0.83    0.12 
   2   9   5    1.04    0.18 
  -3  -9  -5    0.30    0.09 
  -3  -9  -5    0.42    0.11 
   3   9   5    0.48    0.18 
   3 -10  -5   -0.03    0.07 
  -3  10   5    0.02    0.15 
  -2  10   5    0.31    0.17 
  -1  10   5    0.04    0.16 
   0  10   5    0.23    0.15 
   1  10   5   -0.04    0.12 
   2  10  -6    0.01    0.07 
  -1 -10   6    0.45    0.10 
   0 -10   6    2.41    0.19 
   1 -10   6   -0.01    0.07 
  -2  10  -6   -0.04    0.13 
   4   9  -6    0.46    0.10 
   3   9  -6    0.14    0.08 
   2   9  -6    0.46    0.10 
  -2  -9   6    0.48    0.10 
  -1  -9   6    0.18    0.07 
  -1  -9   6    0.15    0.07 
   0  -9   6    0.07    0.07 
   1  -9   6    0.27    0.08 
  -2   9  -6    0.90    0.19 
  -3   9  -6    1.99    0.27 
   4  -9   6    0.14    0.08 
   5   8  -6    0.08    0.07 
   4   8  -6    1.93    0.16 
   3   8  -6   -0.13    0.04 
   2   8  -6    1.08    0.12 
  -2  -8   6    1.11    0.11 
   1   8  -6    0.47    0.09 
  -1  -8   6    0.34    0.07 
   0  -8   6   11.31    0.40 
   1  -8   6    2.52    0.17 
  -2   8  -6    0.94    0.17 
   2  -8   6    0.73    0.12 
  -3   8  -6    1.88    0.23 
  -4   8  -6    1.13    0.19 
   4  -8   6    1.29    0.14 
   6   7  -6    0.56    0.10 
   5   7  -6    0.37    0.09 
   4   7  -6    3.16    0.19 
   3   7  -6    2.53    0.16 
  -3  -7   6    2.64    0.13 
   2   7  -6    3.02    0.17 
  -2  -7   6    3.02    0.15 
   1   7  -6    1.57    0.13 
   0   7  -6    3.14    0.18 
   0  -7   6    3.29    0.17 
   1  -7   6    6.93    0.27 
  -2   7  -6    3.03    0.23 
   2  -7   6    2.59    0.18 
  -3   7  -6    0.25    0.11 
  -4   7  -6    0.38    0.13 
   4  -7   6    0.36    0.09 
  -5   7  -6   -0.06    0.10 
   5  -7   6    0.05    0.06 
   5  -7   6    0.11    0.09 
   6   6  -6    0.38    0.09 
   6   6  -6    0.48    0.10 
   5   6  -6    6.16    0.27 
   5   6  -6    5.69    0.27 
   4   6  -6    5.01    0.23 
   4   6  -6    4.71    0.23 
   3   6  -6    0.04    0.05 
   3   6  -6    0.03    0.04 
  -3  -6   6   -0.02    0.03 
   2   6  -6    0.37    0.07 
   2   6  -6    0.49    0.08 
   1   6  -6   18.70    0.58 
   0   6  -6    2.58    0.15 
   0  -6   6    2.57    0.14 
   1  -6   6    0.06    0.05 
  -2   6  -6    3.69    0.23 
   2  -6   6    3.34    0.19 
  -3   6  -6    0.50    0.11 
  -4   6  -6    0.14    0.10 
   4  -6   6    0.27    0.08 
   4  -6   6    0.17    0.06 
  -5   6  -6    1.74    0.20 
   5  -6   6    1.69    0.13 
   5  -6   6    1.86    0.18 
   6  -6   6    0.03    0.07 
   6  -6   6    0.06    0.10 
   7   5  -6    0.47    0.11 
   7   5  -6    0.51    0.11 
  -7  -5   6    0.23    0.10 
   6   5  -6    0.17    0.07 
   6   5  -6    0.08    0.07 
   5   5  -6    3.09    0.18 
   5   5  -6    2.96    0.17 
   4   5  -6    0.04    0.05 
   4   5  -6   -0.03    0.04 
   3   5  -6    0.03    0.04 
   3   5  -6    0.02    0.04 
  -3  -5   6   -0.01    0.02 
   2   5  -6   10.47    0.36 
   2   5  -6   10.76    0.36 
   1   5  -6   13.00    0.41 
   1   5  -6   12.57    0.41 
   0   5  -6    0.30    0.06 
   0  -5   6    0.23    0.05 
   1  -5   6   18.85    0.57 
   1  -5   6   18.25    0.58 
   2  -5   6    3.76    0.19 
   2  -5   6    3.39    0.14 
   2  -5   6    3.39    0.18 
   2  -5   6    3.61    0.15 
   2  -5   6    3.29    0.14 
  -3   5  -6    0.54    0.11 
   3  -5   6    0.51    0.06 
   3  -5   6    0.52    0.08 
   3  -5   6    0.49    0.05 
  -4   5  -6    0.17    0.09 
   4  -5   6    0.25    0.08 
   4  -5   6    0.31    0.06 
   5  -5   6    1.40    0.14 
   5  -5   6    1.13    0.10 
   6  -5   6    0.00    0.06 
   6  -5   6   -0.05    0.09 
   7   4  -6    0.59    0.11 
   7   4  -6    0.64    0.11 
  -7  -4   6    0.70    0.09 
   6   4  -6    0.70    0.10 
   6   4  -6    1.02    0.12 
  -6  -4   6    1.04    0.09 
   5   4  -6    0.37    0.08 
   5   4  -6    0.30    0.08 
  -5  -4   6    0.31    0.04 
   4   4  -6    8.39    0.31 
   4   4  -6    8.48    0.31 
  -4  -4   6    8.08    0.24 
   3   4  -6    1.35    0.10 
   3   4  -6    1.33    0.10 
   2   4  -6    2.11    0.12 
   2   4  -6    2.12    0.11 
   1   4  -6    1.48    0.09 
   1   4  -6    1.52    0.09 
   0   4  -6    4.29    0.16 
   0   4  -6    3.96    0.16 
   0  -4   6    4.10    0.17 
   0  -4   6    4.06    0.16 
   1  -4   6    9.64    0.32 
   1  -4   6    9.40    0.30 
   1  -4   6    9.27    0.32 
   2  -4   6    0.51    0.05 
   2  -4   6    0.49    0.06 
   2  -4   6    0.45    0.08 
   2  -4   6    0.59    0.05 
   2  -4   6    0.59    0.06 
   2  -4   6    0.52    0.08 
   2  -4   6    0.47    0.05 
   3  -4   6    1.98    0.10 
   3  -4   6    1.95    0.13 
   4  -4   6    5.45    0.21 
   4  -4   6    5.67    0.24 
   5  -4   6    4.95    0.24 
   5  -4   6    4.50    0.19 
   6  -4   6    0.42    0.08 
   6  -4   6    0.48    0.11 
   7   3  -6    0.94    0.12 
   7   3  -6    0.88    0.12 
  -7  -3   6    0.89    0.09 
   6   3  -6    0.01    0.06 
   6   3  -6    0.07    0.06 
  -6  -3   6   -0.05    0.04 
   5   3  -6    1.69    0.13 
   5   3  -6    1.84    0.13 
  -5  -3   6    1.68    0.09 
   4   3  -6    0.29    0.06 
   4   3  -6    0.33    0.06 
  -4  -3   6    0.25    0.04 
  -4  -3   6    0.13    0.05 
   3   3  -6    4.28    0.18 
   3   3  -6    4.20    0.18 
  -3  -3   6    4.16    0.13 
  -3  -3   6    4.43    0.18 
  -3  -3   6    4.06    0.15 
   2   3  -6   23.73    0.69 
   2   3  -6   23.78    0.69 
  -2  -3   6   22.79    0.66 
   1   3  -6   11.12    0.35 
   1   3  -6   11.22    0.35 
  -1  -3   6   10.82    0.34 
   0   3  -6    5.42    0.19 
   0   3  -6    5.33    0.19 
   0  -3   6    5.44    0.19 
   0  -3   6    5.20    0.19 
   0  -3   6    5.53    0.19 
  -1   3  -6    4.50    0.15 
   1  -3   6    4.59    0.19 
   1  -3   6    4.31    0.18 
   1  -3   6    4.36    0.16 
   1  -3   6    4.35    0.18 
   1  -3   6    4.58    0.16 
   1  -3   6    4.43    0.16 
   1  -3   6    4.50    0.13 
   2  -3   6    0.21    0.03 
   2  -3   6    0.27    0.04 
   2  -3   6    0.22    0.04 
   2  -3   6    0.25    0.05 
   2  -3   6    0.27    0.07 
   2  -3   6    0.23    0.06 
   3  -3   6    4.95    0.18 
   3  -3   6    5.14    0.21 
   4  -3   6    0.14    0.06 
   4  -3   6    0.06    0.05 
   5  -3   6    2.26    0.13 
   5  -3   6    2.36    0.17 
   6  -3   6    0.04    0.06 
   6  -3   6    0.05    0.08 
   7   2  -6    0.03    0.06 
  -7  -2   6   -0.10    0.05 
   6   2  -6    2.87    0.17 
  -6  -2   6    2.96    0.14 
   5   2  -6    1.01    0.10 
  -5  -2   6    1.22    0.15 
  -5  -2   6    1.04    0.08 
   4   2  -6    3.44    0.16 
  -4  -2   6    3.74    0.19 
  -4  -2   6    3.31    0.13 
  -3  -2   6   10.58    0.33 
  -3  -2   6   10.58    0.31 
  -3  -2   6   10.94    0.36 
   2   2  -6    1.55    0.09 
   2   2  -6    1.52    0.09 
  -2  -2   6    1.45    0.06 
  -2  -2   6    1.59    0.08 
  -2  -2   6    1.58    0.10 
  -2  -2   6    1.36    0.06 
   1   2  -6   35.48    0.98 
   1   2  -6   34.47    0.97 
  -1  -2   6   35.03    0.97 
  -1  -2   6   35.29    0.96 
  -1  -2   6   33.76    0.98 
  -1  -2   6   34.04    0.94 
   0   2  -6   22.46    0.63 
   0   2  -6   22.21    0.63 
   0  -2   6   21.50    0.61 
   0  -2   6   22.20    0.64 
   0  -2   6   22.15    0.63 
   0  -2   6   22.46    0.65 
  -1   2  -6    0.11    0.03 
  -1   2  -6    0.13    0.03 
  -1   2  -6    0.12    0.04 
   1  -2   6    0.12    0.04 
   1  -2   6    0.10    0.03 
   1  -2   6    0.11    0.04 
   1  -2   6    0.15    0.04 
   1  -2   6    0.09    0.03 
   1  -2   6    0.15    0.05 
  -2   2  -6    7.37    0.24 
  -2   2  -6    7.75    0.27 
   2  -2   6    7.97    0.27 
   2  -2   6    6.75    0.26 
   2  -2   6    7.66    0.28 
   2  -2   6    7.51    0.25 
   2  -2   6    7.55    0.24 
  -3   2  -6    7.36    0.25 
   3  -2   6    7.39    0.24 
   3  -2   6    7.59    0.27 
  -4   2  -6   18.70    0.59 
   4  -2   6   19.93    0.61 
   4  -2   6   19.94    0.58 
  -5   2  -6    0.18    0.06 
   5  -2   6    0.08    0.05 
   5  -2   6    0.14    0.08 
   6  -2   6    0.11    0.06 
   6  -2   6    0.11    0.08 
   7  -2   6    0.73    0.09 
   8   1  -6    0.28    0.09 
  -8  -1   6    0.12    0.07 
   7   1  -6   -0.03    0.06 
  -7  -1   6    0.00    0.05 
   6   1  -6    0.42    0.08 
  -6  -1   6    0.42    0.06 
   5   1  -6    1.99    0.13 
  -5  -1   6    2.23    0.18 
  -5  -1   6    2.33    0.12 
   4   1  -6    2.52    0.12 
  -4  -1   6    2.56    0.16 
  -4  -1   6    2.60    0.11 
   3   1  -6    3.08    0.12 
  -3  -1   6    3.16    0.14 
  -3  -1   6    3.13    0.11 
  -3  -1   6    3.23    0.15 
   2   1  -6  133.09    3.65 
   2   1  -6  138.07    3.67 
  -2  -1   6  135.80    3.66 
  -2  -1   6  136.51    3.64 
  -2  -1   6  137.35    3.68 
  -2  -1   6  127.26    3.64 
   1   1  -6    8.67    0.28 
   1   1  -6    8.36    0.26 
   1   1  -6    8.96    0.27 
  -1  -1   6    8.54    0.25 
  -1  -1   6    8.76    0.27 
  -1  -1   6    8.97    0.27 
  -1  -1   6    8.95    0.29 
   0   1  -6    2.03    0.10 
   0   1  -6    1.82    0.09 
   0   1  -6    2.01    0.08 
   0   1  -6    1.93    0.10 
   0  -1   6    1.86    0.09 
   0  -1   6    1.99    0.10 
   0  -1   6    2.01    0.08 
   0  -1   6    1.95    0.11 
  -1   1  -6   45.75    1.21 
  -1   1  -6   44.45    1.24 
  -1   1  -6   45.77    1.26 
  -1   1  -6   44.15    1.21 
  -1   1  -6   44.84    1.26 
   1  -1   6   44.38    1.26 
   1  -1   6   43.28    1.23 
   1  -1   6   46.08    1.24 
   1  -1   6   44.81    1.24 
   1  -1   6   44.22    1.27 
   1  -1   6   44.33    1.25 
  -2   1  -6    0.12    0.04 
  -2   1  -6    0.16    0.04 
  -2   1  -6    0.19    0.03 
  -2   1  -6    0.13    0.05 
  -2   1  -6    0.17    0.02 
   2  -1   6    0.15    0.05 
   2  -1   6    0.16    0.06 
   2  -1   6    0.08    0.04 
   2  -1   6    0.17    0.05 
   2  -1   6    0.16    0.04 
  -3   1  -6    0.35    0.03 
  -3   1  -6    0.27    0.07 
  -3   1  -6    0.39    0.06 
   3  -1   6    0.31    0.06 
   3  -1   6    0.36    0.05 
  -4   1  -6   24.08    0.67 
  -4   1  -6   23.78    0.76 
  -4   1  -6   23.95    0.72 
   4  -1   6   23.98    0.69 
   4  -1   6   23.85    0.72 
  -5   1  -6    1.32    0.12 
  -5   1  -6    1.25    0.08 
   5  -1   6    1.42    0.15 
   5  -1   6    1.55    0.10 
  -6   1  -6    1.99    0.15 
  -6   1  -6    1.81    0.10 
   6  -1   6    2.09    0.17 
   6  -1   6    1.97    0.12 
  -7   1  -6   -0.06    0.04 
   7  -1   6   -0.01    0.05 
   8   0  -6    1.57    0.15 
  -8   0   6    1.31    0.12 
  -7   0   6   -0.02    0.05 
   6   0  -6    1.58    0.13 
  -6   0   6    1.35    0.10 
   5   0  -6   19.99    0.59 
   5   0  -6   18.51    0.56 
  -5   0   6   20.02    0.57 
  -5   0   6   20.05    0.64 
   4   0  -6    3.97    0.15 
   4   0  -6    4.52    0.17 
   4   0  -6    4.61    0.14 
  -4   0   6    4.53    0.21 
  -4   0   6    4.82    0.16 
   3   0  -6   41.78    1.19 
   3   0  -6   43.63    1.21 
   3   0  -6   42.58    1.18 
  -3   0   6   44.94    1.19 
  -3   0   6   43.76    1.24 
   2   0  -6   19.59    0.55 
   2   0  -6   20.29    0.57 
   2   0  -6   19.39    0.53 
   2   0  -6   18.55    0.54 
  -2   0   6   19.16    0.57 
  -2   0   6   17.16    0.54 
  -2   0   6   19.64    0.54 
   1   0  -6   14.24    0.43 
   1   0  -6   13.74    0.39 
   1   0  -6   13.96    0.42 
   1   0  -6   14.14    0.41 
  -1   0   6   13.67    0.42 
  -1   0   6   14.49    0.41 
  -1   0   6   14.23    0.44 
  -1   0   6   14.69    0.40 
   0   0  -6   47.42    1.31 
   0   0  -6   47.95    1.33 
   0   0  -6   47.58    1.29 
   0   0  -6   48.66    1.32 
   0   0  -6   46.55    1.29 
   0   0   6   48.62    1.30 
   0   0   6   45.27    1.30 
   0   0   6   47.27    1.33 
   0   0   6   47.25    1.32 
   0   0   6   47.72    1.31 
  -1   0  -6   48.92    1.33 
  -1   0  -6   48.55    1.35 
  -1   0  -6   49.72    1.37 
  -1   0  -6   49.05    1.37 
   1   0   6   48.24    1.35 
   1   0   6   48.70    1.37 
   1   0   6   47.93    1.33 
   1   0   6   48.67    1.35 
   1   0   6   48.47    1.38 
  -2   0  -6    1.67    0.09 
  -2   0  -6    1.58    0.12 
  -2   0  -6    1.74    0.09 
  -2   0  -6    1.67    0.07 
  -2   0  -6    1.64    0.10 
   2   0   6    1.66    0.11 
   2   0   6    1.68    0.12 
   2   0   6    1.64    0.10 
   2   0   6    1.63    0.08 
  -3   0  -6   18.02    0.51 
  -3   0  -6   18.08    0.58 
  -3   0  -6   17.58    0.54 
   3   0   6   18.42    0.55 
   3   0   6   17.48    0.52 
  -4   0  -6    6.01    0.24 
  -4   0  -6    5.77    0.20 
  -4   0  -6    5.56    0.28 
   4   0   6    6.05    0.20 
   4   0   6    6.01    0.25 
  -5   0  -6    0.79    0.10 
  -5   0  -6    0.79    0.07 
   5   0   6    0.93    0.11 
   5   0   6    0.82    0.08 
  -6   0  -6    1.10    0.12 
  -6   0  -6    1.06    0.09 
   6   0   6    1.07    0.08 
   6   0   6    0.94    0.12 
  -7   0  -6   -0.01    0.09 
  -7   0  -6   -0.06    0.04 
  -8   1   6    0.04    0.06 
   7  -1  -6    0.19    0.08 
  -7   1   6    0.23    0.06 
   6  -1  -6    6.62    0.25 
   6  -1  -6    7.78    0.29 
  -6   1   6    6.86    0.24 
   5  -1  -6    0.35    0.06 
   5  -1  -6    0.59    0.08 
  -5   1   6    0.45    0.06 
  -5   1   6    0.44    0.09 
   4  -1  -6    0.87    0.07 
   4  -1  -6    1.17    0.09 
  -4   1   6    0.87    0.11 
  -4   1   6    1.04    0.07 
   3  -1  -6    0.08    0.04 
  -3   1   6    0.17    0.05 
  -3   1   6    0.21    0.04 
   2  -1  -6    0.03    0.03 
   2  -1  -6    0.11    0.03 
   2  -1  -6    0.03    0.03 
  -2   1   6    0.10    0.04 
  -2   1   6    0.12    0.03 
  -2   1   6    0.09    0.03 
   1  -1  -6    1.48    0.08 
   1  -1  -6    1.46    0.08 
  -1   1   6    1.55    0.07 
  -1   1   6    1.50    0.08 
   0  -1  -6   22.26    0.64 
   0  -1  -6   22.37    0.65 
   0  -1  -6   22.65    0.66 
   0   1   6   22.86    0.62 
   0   1   6   22.30    0.66 
   0   1   6   22.26    0.65 
   0   1   6   21.71    0.63 
  -1  -1  -6    3.21    0.14 
  -1  -1  -6    3.17    0.15 
  -1  -1  -6    3.07    0.13 
   1   1   6    3.28    0.13 
   1   1   6    3.14    0.14 
   1   1   6    3.27    0.11 
   1   1   6    3.29    0.16 
   1   1   6    3.13    0.13 
  -2  -1  -6    1.40    0.10 
  -2  -1  -6    1.35    0.11 
  -2  -1  -6    1.34    0.09 
  -2  -1  -6    1.41    0.09 
  -2  -1  -6    1.34    0.07 
   2   1   6    1.36    0.07 
   2   1   6    1.32    0.09 
   2   1   6    1.44    0.09 
  -3  -1  -6    4.77    0.19 
  -3  -1  -6    4.69    0.21 
  -3  -1  -6    4.45    0.16 
  -3  -1  -6    4.72    0.23 
   3   1   6    4.80    0.19 
   3   1   6    4.65    0.16 
  -4  -1  -6    4.27    0.16 
  -4  -1  -6    4.19    0.24 
  -4  -1  -6    4.21    0.20 
   4   1   6    4.12    0.20 
   4   1   6    4.29    0.15 
  -5  -1  -6    0.61    0.09 
  -5  -1  -6    0.63    0.07 
   5   1   6    0.82    0.10 
   5   1   6    0.73    0.06 
  -6  -1  -6    0.83    0.11 
  -6  -1  -6    0.64    0.07 
  -8   2   6    0.48    0.07 
   7  -2  -6    0.46    0.09 
  -7   2   6    0.39    0.07 
   6  -2  -6    2.84    0.17 
   6  -2  -6    2.52    0.15 
  -6   2   6    2.58    0.13 
   5  -2  -6    0.97    0.10 
   5  -2  -6    0.91    0.09 
  -5   2   6    0.89    0.09 
  -5   2   6    0.68    0.15 
   4  -2  -6    7.98    0.27 
   4  -2  -6    7.10    0.26 
  -4   2   6    7.44    0.24 
  -4   2   6    7.37    0.29 
   3  -2  -6    2.04    0.13 
   3  -2  -6    1.82    0.10 
   3  -2  -6    1.88    0.10 
  -3   2   6    2.01    0.13 
  -3   2   6    2.05    0.09 
   2  -2  -6    2.74    0.12 
   2  -2  -6    2.52    0.11 
  -2   2   6    2.55    0.09 
  -2   2   6    2.69    0.14 
  -2   2   6    2.44    0.12 
  -2   2   6    2.64    0.10 
   1  -2  -6    3.51    0.15 
   1  -2  -6    3.56    0.14 
   1  -2  -6    3.67    0.16 
  -1   2   6    3.53    0.16 
  -1   2   6    3.82    0.15 
  -1   2   6    3.65    0.12 
   0  -2  -6   20.02    0.58 
   0  -2  -6   20.14    0.61 
   0  -2  -6   19.93    0.60 
   0   2   6   20.04    0.56 
   0   2   6   19.93    0.58 
   0   2   6   20.83    0.60 
   0   2   6   20.36    0.60 
  -1  -2  -6   16.43    0.50 
  -1  -2  -6   16.23    0.51 
  -1  -2  -6   16.26    0.48 
   1   2   6   15.70    0.47 
   1   2   6   16.14    0.50 
   1   2   6   16.43    0.45 
   1   2   6   16.01    0.50 
  -2  -2  -6    0.29    0.05 
  -2  -2  -6    0.38    0.05 
  -2  -2  -6    0.30    0.07 
  -2  -2  -6    0.42    0.07 
   2   2   6    0.33    0.06 
   2   2   6    0.31    0.05 
   2   2   6    0.32    0.03 
  -3  -2  -6    0.03    0.05 
  -3  -2  -6   -0.01    0.06 
  -3  -2  -6    0.07    0.04 
  -3  -2  -6    0.09    0.05 
  -3  -2  -6    0.02    0.03 
  -3  -2  -6    0.05    0.03 
   3   2   6    0.00    0.05 
  -4  -2  -6    1.05    0.11 
  -4  -2  -6    1.29    0.12 
  -4  -2  -6    1.17    0.08 
  -4  -2  -6    0.79    0.13 
   4   2   6    1.10    0.10 
  -5  -2  -6    0.08    0.07 
  -5  -2  -6    0.15    0.05 
  -6  -2  -6    0.04    0.08 
  -6  -2  -6    0.08    0.05 
   7  -3  -6    3.32    0.21 
  -7   3   6    2.86    0.13 
   6  -3  -6    0.76    0.10 
   6  -3  -6    0.73    0.11 
  -6   3   6    0.68    0.06 
   5  -3  -6    1.52    0.11 
   5  -3  -6    1.26    0.12 
  -5   3   6    1.33    0.08 
   4  -3  -6    1.13    0.10 
   4  -3  -6    0.86    0.11 
   4  -3  -6    0.87    0.09 
  -4   3   6    1.04    0.06 
  -4   3   6    0.83    0.11 
   3  -3  -6    2.46    0.13 
   3  -3  -6    2.56    0.15 
   3  -3  -6    2.62    0.13 
  -3   3   6    2.36    0.14 
   2  -3  -6    0.43    0.06 
   2  -3  -6    0.39    0.05 
   2  -3  -6    0.33    0.06 
  -2   3   6    0.50    0.06 
  -2   3   6    0.48    0.06 
   1  -3  -6    1.01    0.08 
   1  -3  -6    1.03    0.10 
   1  -3  -6    1.07    0.07 
  -1   3   6    1.07    0.08 
  -1   3   6    1.18    0.09 
  -1   3   6    1.08    0.07 
   0  -3  -6   18.99    0.56 
   0  -3  -6   18.38    0.56 
   0  -3  -6   17.88    0.53 
   0   3   6   17.85    0.53 
   0   3   6   18.46    0.55 
   0   3   6   18.36    0.56 
  -1  -3  -6    0.30    0.04 
  -1  -3  -6    0.30    0.06 
  -1  -3  -6    0.25    0.05 
  -1  -3  -6    0.25    0.06 
   1   3   6    0.41    0.06 
   1   3   6    0.28    0.04 
  -2  -3  -6    0.82    0.11 
  -2  -3  -6    0.84    0.08 
  -2  -3  -6    0.79    0.09 
   2   3   6    0.76    0.08 
  -3  -3  -6    1.85    0.11 
  -3  -3  -6    1.85    0.10 
  -3  -3  -6    1.86    0.14 
  -3  -3  -6    1.91    0.17 
  -3  -3  -6    1.79    0.12 
   3   3   6    1.69    0.12 
  -4  -3  -6   11.53    0.41 
  -4  -3  -6   11.79    0.40 
  -4  -3  -6   11.38    0.36 
  -4  -3  -6   11.54    0.49 
   4   3   6   11.18    0.40 
  -5  -3  -6    0.27    0.09 
  -5  -3  -6    0.10    0.07 
  -5  -3  -6    0.19    0.05 
  -6  -3  -6    0.04    0.05 
  -6  -3  -6   -0.03    0.07 
   7  -4  -6    1.20    0.14 
   6  -4  -6    0.01    0.06 
   6  -4  -6    0.04    0.07 
   5  -4  -6    0.04    0.05 
   5  -4  -6   -0.03    0.05 
   4  -4  -6    4.43    0.22 
   4  -4  -6    4.41    0.20 
   4  -4  -6    4.49    0.19 
   3  -4  -6    1.34    0.12 
   3  -4  -6    1.39    0.10 
   3  -4  -6    1.28    0.10 
   2  -4  -6    0.76    0.07 
   2  -4  -6    0.84    0.10 
   2  -4  -6    0.86    0.09 
  -2   4   6    0.85    0.08 
   1  -4  -6   -0.04    0.03 
   1  -4  -6    0.00    0.04 
   1  -4  -6   -0.03    0.04 
  -1   4   6    0.04    0.04 
   0  -4  -6   25.15    0.74 
   0  -4  -6   25.38    0.75 
   0  -4  -6   24.03    0.71 
  -1  -4  -6    1.80    0.09 
  -1  -4  -6    1.69    0.13 
  -1  -4  -6    1.74    0.12 
  -1  -4  -6    1.73    0.09 
  -1  -4  -6    1.65    0.10 
   1   4   6    1.84    0.14 
  -2  -4  -6    1.03    0.07 
  -2  -4  -6    0.91    0.11 
  -2  -4  -6    1.14    0.13 
  -2  -4  -6    1.14    0.10 
  -3  -4  -6    5.10    0.24 
  -3  -4  -6    5.38    0.26 
  -4  -4  -6    0.03    0.06 
  -4  -4  -6    0.03    0.06 
  -4  -4  -6    0.03    0.04 
  -5  -4  -6   -0.03    0.04 
  -5  -4  -6    0.01    0.07 
  -5  -4  -6    0.04    0.07 
  -6  -4  -6    0.39    0.07 
  -6  -4  -6    0.30    0.10 
   7  -5  -6    0.75    0.13 
   7  -5  -6    0.79    0.13 
  -7   5   6    0.48    0.20 
   6  -5  -6    0.12    0.07 
   6  -5  -6    0.16    0.08 
   5  -5  -6    0.06    0.06 
   5  -5  -6    0.12    0.07 
   5  -5  -6    0.20    0.05 
   4  -5  -6    0.45    0.09 
   4  -5  -6    0.50    0.08 
   4  -5  -6    0.50    0.06 
   4  -5  -6    0.59    0.09 
   3  -5  -6    0.51    0.05 
   3  -5  -6    0.50    0.07 
   3  -5  -6    0.49    0.08 
   3  -5  -6    0.42    0.08 
   2  -5  -6    3.22    0.14 
   2  -5  -6    3.33    0.12 
   2  -5  -6    3.06    0.17 
   2  -5  -6    3.50    0.18 
   1  -5  -6    0.01    0.04 
   1  -5  -6   -0.03    0.05 
   1  -5  -6    0.04    0.05 
   1  -5  -6    0.04    0.02 
  -1   5   6    0.11    0.08 
   0  -5  -6    0.01    0.05 
   0  -5  -6   -0.03    0.03 
   0  -5  -6   -0.01    0.04 
   0   5   6    0.01    0.08 
  -1  -5  -6    0.28    0.05 
  -1  -5  -6    0.27    0.07 
  -1  -5  -6    0.37    0.07 
  -1  -5  -6    0.36    0.05 
   1   5   6    0.35    0.09 
  -2  -5  -6   15.39    0.49 
  -2  -5  -6   15.81    0.53 
  -2  -5  -6   15.98    0.53 
   2   5   6   16.21    0.53 
  -3  -5  -6    0.92    0.12 
  -3  -5  -6    0.95    0.10 
  -3  -5  -6    1.06    0.12 
  -4  -5  -6    0.91    0.11 
  -4  -5  -6    0.87    0.12 
  -5  -5  -6    0.31    0.06 
  -5  -5  -6    0.12    0.08 
  -5  -5  -6    0.28    0.09 
   7  -6  -6    0.03    0.09 
   6  -6  -6    0.02    0.07 
   6  -6  -6   -0.01    0.07 
  -6   6   6   -0.19    0.13 
   5  -6  -6    0.00    0.07 
   5  -6  -6    0.00    0.06 
   5  -6  -6    0.03    0.04 
  -5   6   6   -0.08    0.12 
   4  -6  -6    3.59    0.18 
   4  -6  -6    3.45    0.20 
   4  -6  -6    3.47    0.14 
   4  -6  -6    3.37    0.21 
  -4   6   6    3.61    0.28 
   3  -6  -6    3.28    0.19 
   3  -6  -6    3.09    0.19 
   3  -6  -6    3.27    0.16 
   3  -6  -6    3.20    0.12 
  -3   6   6    2.97    0.26 
   2  -6  -6   51.18    1.47 
   2  -6  -6   51.26    1.41 
   2  -6  -6   53.72    1.50 
   2  -6  -6   48.83    1.43 
  -2   6   6   51.91    1.56 
   1  -6  -6   30.75    0.92 
   1  -6  -6   32.67    0.89 
   1  -6  -6   32.77    0.96 
   1  -6  -6   33.91    0.98 
  -1   6   6   32.47    1.03 
   0  -6  -6    0.03    0.05 
   0   6   6    0.07    0.09 
  -1  -6  -6   16.28    0.55 
  -1  -6  -6   16.39    0.54 
   1   6   6   16.45    0.58 
  -2  -6  -6    0.92    0.11 
  -2  -6  -6    0.79    0.11 
  -2  -6  -6    0.74    0.09 
   2   6   6    0.98    0.13 
  -3  -6  -6    0.72    0.09 
  -3  -6  -6    0.85    0.11 
  -3  -6  -6    0.67    0.11 
  -4  -6  -6    0.27    0.08 
  -4  -6  -6    0.35    0.09 
  -5  -6  -6    1.88    0.17 
  -5  -6  -6    1.92    0.12 
  -5  -6  -6    1.89    0.17 
   6  -7  -6    0.24    0.06 
   6  -7  -6    0.09    0.08 
   6  -7  -6    0.02    0.08 
  -6   7   6   -0.01    0.13 
   5  -7  -6    0.06    0.08 
   5  -7  -6    0.19    0.08 
   5  -7  -6    0.12    0.05 
  -5   7   6   -0.14    0.12 
   4  -7  -6    1.73    0.14 
   4  -7  -6    1.56    0.09 
   4  -7  -6    1.50    0.15 
   4  -7  -6    1.30    0.17 
  -4   7   6    1.71    0.24 
   3  -7  -6    3.26    0.17 
   3  -7  -6    3.53    0.13 
   3  -7  -6    3.35    0.21 
   3  -7  -6    3.45    0.20 
  -3   7   6    3.66    0.29 
   2  -7  -6   21.79    0.68 
   2  -7  -6   22.11    0.71 
   2  -7  -6   21.03    0.64 
  -2   7   6   22.06    0.78 
   1  -7  -6    0.34    0.08 
   1  -7  -6    0.47    0.09 
  -1   7   6    0.45    0.13 
   0  -7  -6    0.44    0.09 
   0   7   6    0.61    0.14 
  -1  -7  -6    0.00    0.05 
  -1  -7  -6    0.00    0.05 
  -1  -7  -6    0.00    0.06 
   1   7   6    0.04    0.09 
  -2  -7  -6    0.05    0.05 
  -2  -7  -6   -0.01    0.07 
  -2  -7  -6    0.06    0.06 
   2   7   6    0.09    0.09 
  -3  -7  -6    0.05    0.07 
  -3  -7  -6    0.00    0.06 
  -3  -7  -6   -0.01    0.08 
   3   7   6    0.06    0.08 
  -4  -7  -6    0.00    0.07 
  -4  -7  -6    0.00    0.07 
   5  -8  -6    1.45    0.10 
   5  -8  -6    1.32    0.14 
   5  -8  -6    1.34    0.18 
  -5   8   6    1.72    0.26 
   4  -8  -6    0.02    0.06 
   4  -8  -6    0.04    0.07 
  -4   8   6    0.15    0.13 
   3  -8  -6    0.83    0.12 
   3  -8  -6    0.61    0.10 
   3  -8  -6    1.01    0.10 
  -3   8   6    0.73    0.18 
   2  -8  -6    0.24    0.08 
   2  -8  -6    0.27    0.08 
  -2   8   6    0.30    0.13 
   1  -8  -6    0.33    0.09 
   1  -8  -6    0.16    0.07 
  -1   8   6    0.21    0.13 
   0  -8  -6    0.54    0.09 
   0  -8  -6    0.50    0.10 
   0   8   6    0.68    0.16 
  -1  -8  -6    0.26    0.08 
  -1  -8  -6    0.29    0.08 
   1   8   6    0.32    0.13 
  -2  -8  -6    0.43    0.09 
  -2  -8  -6    0.33    0.09 
   2   8   6    0.49    0.13 
  -3  -8  -6    0.40    0.13 
  -3  -8  -6    0.33    0.09 
  -4  -8  -6    0.12    0.08 
   4  -9  -6    0.10    0.07 
  -4   9   6    0.30    0.16 
   3  -9  -6    0.56    0.14 
   3  -9  -6    0.62    0.11 
   3  -9  -6    0.70    0.09 
  -3   9   6    0.87    0.21 
   2  -9  -6    0.13    0.08 
   2  -9  -6    0.04    0.07 
   2  -9  -6    0.04    0.06 
  -2   9   6   -0.04    0.13 
   1  -9  -6   -0.05    0.05 
  -1   9   6   -0.01    0.13 
   0  -9  -6    0.44    0.10 
   0   9   6    0.36    0.15 
  -1  -9  -6    0.15    0.07 
  -1  -9  -6    0.11    0.08 
   1   9   6    0.24    0.13 
  -2  -9  -6    0.02    0.06 
  -2  -9  -6   -0.04    0.08 
   2   9   6    0.02    0.10 
   3 -10  -6    0.19    0.07 
  -3  10   6    0.26    0.18 
   2 -10  -6    0.02    0.08 
  -2  10   6    0.13    0.17 
  -1  10   6    0.03    0.15 
   0  10   6    0.07    0.14 
   1  10   6    0.03    0.13 
   2  10  -7    0.51    0.11 
  -1 -10   7    0.25    0.08 
   0 -10   7    0.55    0.10 
   1 -10   7    0.96    0.13 
   4   9  -7    0.44    0.10 
   3   9  -7    0.15    0.07 
   2   9  -7    0.28    0.09 
   1   9  -7    0.04    0.07 
  -1  -9   7    0.06    0.06 
  -1  -9   7    0.16    0.07 
   0  -9   7    0.01    0.06 
   1  -9   7    0.70    0.11 
   2  -9   7    1.64    0.17 
   5   8  -7    1.63    0.16 
   4   8  -7    0.52    0.10 
   3   8  -7    0.49    0.09 
   2   8  -7    0.64    0.10 
  -2  -8   7    0.70    0.09 
   1   8  -7    0.59    0.10 
  -1  -8   7    0.35    0.08 
   0  -8   7    9.59    0.36 
   1  -8   7   12.34    0.44 
   2  -8   7    0.59    0.11 
   4  -8   7    0.06    0.08 
   5   7  -7    0.01    0.07 
   5   7  -7    0.03    0.08 
   4   7  -7    0.69    0.11 
   4   7  -7    0.49    0.09 
   3   7  -7    0.44    0.09 
   2   7  -7   10.45    0.38 
  -2  -7   7   11.16    0.37 
   1   7  -7    0.34    0.07 
   0   7  -7    7.33    0.28 
   0  -7   7    7.04    0.28 
   1  -7   7    0.94    0.11 
   2  -7   7    4.83    0.24 
   4  -7   7    0.02    0.08 
   5  -7   7    0.02    0.09 
   5  -7   7    0.01    0.06 
   6   6  -7    0.74    0.12 
   6   6  -7    0.85    0.13 
   5   6  -7    0.04    0.06 
   5   6  -7    0.04    0.06 
   4   6  -7    0.15    0.06 
   4   6  -7    0.19    0.07 
   3   6  -7    3.38    0.18 
   3   6  -7    3.09    0.17 
  -3  -6   7    3.03    0.13 
   2   6  -7   -0.03    0.04 
   2   6  -7   -0.03    0.04 
   1   6  -7    4.98    0.21 
   0   6  -7    0.69    0.09 
   0  -6   7    0.78    0.09 
   1  -6   7    3.03    0.17 
   2  -6   7    0.40    0.09 
   2  -6   7    0.58    0.10 
   3  -6   7    0.43    0.08 
   3  -6   7    0.31    0.09 
   4  -6   7    2.44    0.18 
   4  -6   7    2.31    0.13 
   5  -6   7    0.07    0.06 
   5  -6   7    0.22    0.09 
   6   5  -7    0.24    0.09 
   6   5  -7    0.36    0.09 
   5   5  -7    0.36    0.08 
   5   5  -7    0.28    0.07 
   4   5  -7    0.77    0.10 
   4   5  -7    0.82    0.10 
   3   5  -7    6.39    0.25 
   3   5  -7    6.30    0.25 
  -3  -5   7    6.09    0.20 
  -3  -5   7    6.40    0.20 
   2   5  -7    3.71    0.18 
   2   5  -7    3.86    0.17 
   1   5  -7    1.91    0.12 
   1   5  -7    1.81    0.11 
   0   5  -7   11.96    0.38 
   0  -5   7   11.14    0.38 
   1  -5   7    0.77    0.09 
   2  -5   7    1.47    0.09 
   2  -5   7    1.61    0.14 
   2  -5   7    1.55    0.15 
   2  -5   7    1.74    0.12 
   2  -5   7    1.54    0.08 
   3  -5   7    4.62    0.21 
   3  -5   7    4.55    0.17 
   3  -5   7    4.62    0.24 
   4  -5   7    2.16    0.17 
   4  -5   7    2.28    0.13 
   5  -5   7    0.35    0.08 
   5  -5   7    0.48    0.11 
   6  -5   7    0.06    0.10 
   6  -5   7    0.09    0.07 
   7   4  -7    1.06    0.13 
   7   4  -7    1.50    0.15 
  -7  -4   7    1.50    0.12 
   6   4  -7    3.62    0.20 
   6   4  -7    3.24    0.20 
  -6  -4   7    3.43    0.15 
   5   4  -7    1.53    0.14 
   5   4  -7    1.60    0.13 
  -5  -4   7    1.38    0.08 
  -5  -4   7    2.00    0.16 
   4   4  -7    3.12    0.17 
   4   4  -7    3.16    0.17 
  -4  -4   7    3.33    0.19 
  -4  -4   7    2.96    0.11 
   3   4  -7    2.35    0.13 
   3   4  -7    2.37    0.13 
  -3  -4   7    2.47    0.14 
   2   4  -7    0.07    0.04 
   2   4  -7    0.09    0.04 
  -2  -4   7    0.05    0.03 
   1   4  -7    3.64    0.16 
   1   4  -7    3.66    0.15 
  -1  -4   7    3.52    0.15 
   0   4  -7    5.34    0.19 
   0   4  -7    5.14    0.19 
   0  -4   7    5.08    0.21 
   1  -4   7    0.66    0.06 
   1  -4   7    0.71    0.07 
   1  -4   7    0.75    0.08 
   1  -4   7    0.65    0.08 
   2  -4   7    1.08    0.08 
   2  -4   7    1.20    0.08 
   2  -4   7    1.20    0.10 
   2  -4   7    1.14    0.13 
   2  -4   7    1.05    0.09 
   2  -4   7    1.15    0.12 
   3  -4   7    0.37    0.06 
   3  -4   7    0.35    0.07 
   3  -4   7    0.25    0.09 
   4  -4   7    0.03    0.05 
   4  -4   7   -0.05    0.07 
   5  -4   7    0.42    0.08 
   5  -4   7    0.61    0.11 
   6  -4   7    0.15    0.10 
   6  -4   7    0.14    0.07 
   7   3  -7    0.65    0.11 
   7   3  -7    0.76    0.11 
  -7  -3   7    0.66    0.09 
   6   3  -7    0.52    0.10 
   6   3  -7    0.58    0.09 
  -6  -3   7    0.55    0.07 
   5   3  -7    1.97    0.14 
   5   3  -7    1.88    0.13 
  -5  -3   7    2.04    0.17 
  -5  -3   7    2.00    0.10 
   4   3  -7    2.73    0.15 
   4   3  -7    2.77    0.15 
  -4  -3   7    3.04    0.18 
  -4  -3   7    2.87    0.11 
   3   3  -7    1.74    0.11 
   3   3  -7    1.63    0.11 
  -3  -3   7    1.74    0.12 
  -3  -3   7    1.73    0.09 
  -3  -3   7    1.72    0.07 
   2   3  -7    0.53    0.06 
   2   3  -7    0.56    0.06 
  -2  -3   7    0.59    0.08 
  -2  -3   7    0.52    0.05 
   1   3  -7   18.07    0.53 
   1   3  -7   17.87    0.53 
  -1  -3   7   17.84    0.52 
  -1  -3   7   17.59    0.53 
   0   3  -7    9.69    0.31 
   0   3  -7   10.05    0.31 
   0  -3   7    9.62    0.32 
   0  -3   7    9.56    0.30 
   0  -3   7    9.66    0.32 
   0  -3   7    9.81    0.30 
  -1   3  -7    0.40    0.05 
  -1   3  -7    0.37    0.04 
   1  -3   7    0.32    0.06 
   1  -3   7    0.35    0.06 
   1  -3   7    0.29    0.07 
   1  -3   7    0.27    0.04 
   1  -3   7    0.26    0.05 
   1  -3   7    0.33    0.04 
   1  -3   7    0.27    0.04 
   2  -3   7    0.33    0.04 
   2  -3   7    0.24    0.07 
   2  -3   7    0.24    0.07 
   2  -3   7    0.31    0.05 
   2  -3   7    0.24    0.06 
  -3   3  -7    1.80    0.10 
   3  -3   7    1.87    0.11 
   3  -3   7    1.90    0.13 
  -4   3  -7    0.90    0.09 
   4  -3   7    0.96    0.11 
   4  -3   7    0.87    0.08 
   5  -3   7    0.59    0.10 
   5  -3   7    0.45    0.07 
   6  -3   7    0.33    0.07 
   6  -3   7    0.25    0.10 
   7   2  -7    1.31    0.14 
  -7  -2   7    1.18    0.10 
   6   2  -7    1.58    0.13 
  -6  -2   7    1.34    0.10 
   5   2  -7    1.41    0.12 
  -5  -2   7    1.51    0.09 
  -5  -2   7    1.39    0.16 
   4   2  -7    2.06    0.11 
   4   2  -7    2.15    0.12 
  -4  -2   7    2.14    0.16 
  -4  -2   7    2.14    0.10 
  -3  -2   7    1.60    0.12 
  -3  -2   7    1.74    0.07 
  -3  -2   7    1.65    0.09 
   2   2  -7    8.31    0.28 
  -2  -2   7    8.53    0.29 
  -2  -2   7    7.97    0.25 
  -2  -2   7    8.54    0.26 
  -2  -2   7    8.35    0.24 
   1   2  -7   87.33    2.36 
  -1  -2   7   87.37    2.36 
  -1  -2   7   83.83    2.33 
  -1  -2   7   87.04    2.37 
  -1  -2   7   85.16    2.35 
   0   2  -7    2.82    0.11 
   0   2  -7    2.81    0.11 
   0  -2   7    2.44    0.11 
   0  -2   7    2.43    0.10 
   0  -2   7    2.89    0.12 
  -1   2  -7    0.06    0.02 
  -1   2  -7    0.04    0.03 
   1  -2   7    0.02    0.03 
   1  -2   7    0.06    0.04 
   1  -2   7    0.09    0.03 
   1  -2   7    0.03    0.03 
   1  -2   7    0.01    0.05 
   1  -2   7    0.02    0.04 
  -2   2  -7    1.54    0.09 
   2  -2   7    1.26    0.12 
   2  -2   7    1.29    0.08 
   2  -2   7    1.38    0.13 
   2  -2   7    1.23    0.10 
  -3   2  -7    2.57    0.13 
   3  -2   7    2.68    0.15 
   3  -2   7    2.82    0.13 
  -4   2  -7   13.78    0.46 
   4  -2   7   14.93    0.48 
   4  -2   7   14.60    0.44 
  -5   2  -7    2.23    0.15 
   5  -2   7    2.38    0.14 
   5  -2   7    2.62    0.18 
   6  -2   7    0.08    0.06 
   6  -2   7    0.07    0.08 
   7   1  -7   -0.01    0.06 
  -7  -1   7   -0.01    0.05 
  -6  -1   7    3.04    0.14 
   5   1  -7    9.76    0.33 
  -5  -1   7   10.01    0.31 
  -5  -1   7    9.82    0.39 
   4   1  -7    9.82    0.31 
  -4  -1   7    9.61    0.36 
  -4  -1   7    9.68    0.30 
   3   1  -7   27.68    0.78 
   3   1  -7   27.25    0.76 
  -3  -1   7   25.60    0.76 
  -3  -1   7   28.25    0.76 
  -3  -1   7   27.99    0.81 
   2   1  -7    3.12    0.12 
   2   1  -7    3.14    0.14 
   2   1  -7    3.19    0.12 
  -2  -1   7    3.10    0.12 
  -2  -1   7    3.28    0.16 
  -2  -1   7    3.39    0.13 
  -2  -1   7    3.32    0.11 
   1   1  -7    0.38    0.04 
   1   1  -7    0.36    0.05 
   1   1  -7    0.50    0.05 
  -1  -1   7    0.21    0.06 
  -1  -1   7    0.36    0.05 
  -1  -1   7    0.37    0.04 
  -1  -1   7    0.40    0.05 
   0   1  -7    1.85    0.09 
   0   1  -7    1.85    0.11 
   0   1  -7    1.86    0.08 
   0   1  -7    1.97    0.10 
   0  -1   7    1.81    0.10 
   0  -1   7    1.80    0.08 
   0  -1   7    1.91    0.12 
   0  -1   7    1.73    0.09 
  -1   1  -7   17.64    0.53 
  -1   1  -7   17.61    0.51 
  -1   1  -7   17.73    0.53 
  -1   1  -7   17.59    0.48 
  -1   1  -7   16.84    0.48 
   1  -1   7   16.60    0.52 
   1  -1   7   17.95    0.50 
   1  -1   7   17.62    0.55 
   1  -1   7   17.28    0.51 
  -2   1  -7   41.15    1.17 
  -2   1  -7   42.50    1.14 
  -2   1  -7   42.73    1.20 
  -2   1  -7   40.31    1.14 
   2  -1   7   40.68    1.18 
   2  -1   7   41.18    1.17 
   2  -1   7   41.15    1.21 
   2  -1   7   42.74    1.15 
  -3   1  -7    1.49    0.14 
  -3   1  -7    1.50    0.07 
  -3   1  -7    1.49    0.10 
   3  -1   7    1.50    0.12 
   3  -1   7    1.54    0.09 
  -4   1  -7    0.20    0.04 
  -4   1  -7    0.27    0.06 
   4  -1   7    0.21    0.06 
   4  -1   7    0.23    0.08 
  -5   1  -7    2.05    0.10 
  -5   1  -7    2.00    0.15 
   5  -1   7    2.04    0.12 
   5  -1   7    2.18    0.17 
  -6   1  -7    1.15    0.08 
   6  -1   7    1.34    0.11 
   6  -1   7    1.29    0.14 
   8   0  -7   -0.08    0.07 
  -8   0   7   -0.04    0.06 
  -7   0   7    0.40    0.07 
   6   0  -7    9.69    0.33 
  -6   0   7    8.53    0.30 
   5   0  -7    3.04    0.16 
  -5   0   7    2.72    0.14 
  -5   0   7    3.00    0.20 
   4   0  -7    5.51    0.19 
   4   0  -7    5.71    0.18 
   4   0  -7    6.12    0.22 
  -4   0   7    5.89    0.25 
  -4   0   7    6.03    0.20 
   3   0  -7    6.78    0.20 
   3   0  -7    6.48    0.21 
   3   0  -7    7.02    0.23 
  -3   0   7    6.81    0.26 
  -3   0   7    6.43    0.22 
  -3   0   7    7.01    0.22 
   2   0  -7   23.48    0.68 
   2   0  -7   22.76    0.66 
   2   0  -7   23.09    0.64 
   2   0  -7   23.08    0.66 
  -2   0   7   23.02    0.69 
  -2   0   7   21.89    0.66 
  -2   0   7   24.15    0.65 
   1   0  -7   10.94    0.31 
   1   0  -7   11.14    0.34 
   1   0  -7   10.95    0.33 
   1   0  -7   11.23    0.36 
  -1   0   7   10.57    0.34 
  -1   0   7   10.92    0.36 
  -1   0   7   11.33    0.32 
   0   0  -7    4.95    0.15 
   0   0  -7    5.17    0.19 
   0   0  -7    5.16    0.18 
   0   0  -7    5.12    0.20 
   0   0   7    5.00    0.19 
   0   0   7    4.90    0.20 
   0   0   7    4.95    0.17 
   0   0   7    4.95    0.18 
  -1   0  -7    7.64    0.23 
  -1   0  -7    7.64    0.28 
  -1   0  -7    7.47    0.27 
  -1   0  -7    7.50    0.25 
   1   0   7    7.53    0.28 
   1   0   7    7.51    0.25 
   1   0   7    7.63    0.24 
   1   0   7    7.42    0.25 
   1   0   7    7.47    0.27 
  -2   0  -7    0.67    0.05 
  -2   0  -7    0.78    0.08 
  -2   0  -7    0.75    0.07 
  -2   0  -7    0.60    0.08 
  -2   0  -7    0.70    0.08 
   2   0   7    0.71    0.07 
   2   0   7    0.95    0.09 
   2   0   7    0.88    0.10 
   2   0   7    0.89    0.11 
  -3   0  -7    6.22    0.20 
  -3   0  -7    6.18    0.27 
  -3   0  -7    6.32    0.24 
   3   0   7    6.04    0.21 
   3   0   7    6.44    0.24 
  -4   0  -7    1.13    0.08 
  -4   0  -7    1.12    0.12 
   4   0   7    1.17    0.11 
   4   0   7    1.00    0.09 
  -5   0  -7   -0.02    0.03 
  -5   0  -7   -0.07    0.06 
   5   0   7    0.00    0.04 
   5   0   7   -0.04    0.07 
  -6   0  -7    0.00    0.04 
  -6   0  -7    0.04    0.07 
   6   0   7    0.06    0.04 
   6   0   7    0.07    0.08 
  -8   1   7   -0.04    0.06 
  -7   1   7    1.63    0.12 
   6  -1  -7    0.93    0.10 
   6  -1  -7    0.96    0.11 
  -6   1   7    0.91    0.09 
   5  -1  -7   16.27    0.48 
   5  -1  -7   14.57    0.45 
  -5   1   7   14.35    0.44 
  -5   1   7   14.03    0.60 
   4  -1  -7    0.79    0.07 
   4  -1  -7    0.90    0.09 
  -4   1   7    0.68    0.06 
  -4   1   7    0.69    0.09 
   3  -1  -7   13.72    0.41 
   3  -1  -7   13.74    0.44 
   3  -1  -7   12.70    0.40 
  -3   1   7   13.76    0.39 
  -3   1   7   13.96    0.44 
  -3   1   7   11.93    0.40 
   2  -1  -7    1.89    0.10 
   2  -1  -7    2.03    0.12 
   2  -1  -7    1.83    0.10 
  -2   1   7    1.99    0.10 
  -2   1   7    2.04    0.09 
  -2   1   7    2.05    0.12 
   1  -1  -7    1.09    0.07 
   1  -1  -7    0.98    0.07 
   1  -1  -7    1.00    0.09 
  -1   1   7    1.12    0.10 
  -1   1   7    0.97    0.07 
  -1   1   7    0.92    0.06 
   0  -1  -7    0.37    0.06 
   0  -1  -7    0.39    0.05 
   0  -1  -7    0.37    0.06 
   0   1   7    0.43    0.04 
   0   1   7    0.41    0.05 
   0   1   7    0.37    0.06 
   0   1   7    0.36    0.05 
  -1  -1  -7    2.80    0.14 
  -1  -1  -7    2.58    0.12 
  -1  -1  -7    2.80    0.15 
   1   1   7    2.77    0.13 
   1   1   7    2.70    0.10 
   1   1   7    2.73    0.13 
   1   1   7    2.77    0.13 
   1   1   7    2.57    0.15 
  -2  -1  -7   14.70    0.46 
  -2  -1  -7   14.97    0.45 
  -2  -1  -7   14.48    0.43 
  -2  -1  -7   14.40    0.49 
  -2  -1  -7   15.13    0.48 
   2   1   7   14.94    0.43 
   2   1   7   14.83    0.45 
  -3  -1  -7    9.32    0.36 
  -3  -1  -7    9.09    0.28 
  -3  -1  -7    9.18    0.34 
  -3  -1  -7    9.27    0.32 
   3   1   7    9.15    0.28 
   3   1   7    9.16    0.32 
  -4  -1  -7    4.52    0.22 
  -4  -1  -7    4.14    0.16 
  -4  -1  -7    4.31    0.21 
   4   1   7    4.35    0.21 
   4   1   7    4.40    0.16 
  -5  -1  -7    0.26    0.08 
  -5  -1  -7    0.32    0.05 
   5   1   7    0.36    0.04 
   5   1   7    0.41    0.09 
  -6  -1  -7    0.44    0.06 
  -6  -1  -7    0.26    0.09 
   7  -2  -7    0.31    0.09 
  -7   2   7    0.31    0.06 
   6  -2  -7    0.11    0.07 
   6  -2  -7    0.04    0.05 
  -6   2   7    0.05    0.05 
   5  -2  -7    0.19    0.06 
   5  -2  -7    0.34    0.07 
  -5   2   7    0.27    0.06 
   4  -2  -7    8.39    0.29 
   4  -2  -7    7.77    0.28 
   4  -2  -7    8.11    0.32 
  -4   2   7    8.46    0.26 
  -4   2   7    8.02    0.32 
   3  -2  -7    3.44    0.15 
   3  -2  -7    3.32    0.17 
   3  -2  -7    2.95    0.14 
  -3   2   7    3.35    0.13 
  -3   2   7    3.31    0.17 
   2  -2  -7   26.99    0.76 
   2  -2  -7   25.89    0.75 
  -2   2   7   26.03    0.76 
  -2   2   7   26.18    0.73 
  -2   2   7   25.74    0.78 
   1  -2  -7   18.03    0.54 
   1  -2  -7   17.71    0.52 
  -1   2   7   17.97    0.55 
  -1   2   7   18.22    0.50 
  -1   2   7   17.90    0.50 
  -1   2   7   17.31    0.54 
   0  -2  -7    0.55    0.07 
   0  -2  -7    0.57    0.06 
   0  -2  -7    0.74    0.07 
   0   2   7    0.55    0.06 
   0   2   7    0.50    0.08 
   0   2   7    0.52    0.05 
   0   2   7    0.75    0.07 
  -1  -2  -7   17.79    0.55 
  -1  -2  -7   17.43    0.54 
  -1  -2  -7   17.38    0.52 
   1   2   7   17.45    0.49 
   1   2   7   17.06    0.51 
   1   2   7   17.34    0.54 
   1   2   7   17.29    0.51 
   1   2   7   17.58    0.54 
  -2  -2  -7    2.18    0.16 
  -2  -2  -7    2.15    0.13 
  -2  -2  -7    2.78    0.15 
   2   2   7    2.46    0.13 
   2   2   7    2.44    0.09 
  -3  -2  -7    0.05    0.03 
  -3  -2  -7    0.06    0.03 
  -3  -2  -7    0.08    0.07 
  -3  -2  -7   -0.01    0.05 
  -3  -2  -7    0.09    0.05 
   3   2   7    0.04    0.02 
   3   2   7    0.01    0.05 
  -4  -2  -7    6.51    0.28 
  -4  -2  -7    6.22    0.27 
  -4  -2  -7    6.39    0.22 
   4   2   7    6.06    0.26 
  -5  -2  -7    0.14    0.07 
  -5  -2  -7    0.01    0.04 
  -6  -2  -7    0.01    0.04 
  -6  -2  -7   -0.06    0.08 
   7  -3  -7    2.32    0.18 
  -7   3   7    1.79    0.11 
   6  -3  -7    2.93    0.18 
   6  -3  -7    1.99    0.15 
  -6   3   7    2.39    0.11 
   5  -3  -7    0.69    0.09 
   5  -3  -7    0.65    0.09 
  -5   3   7    0.75    0.07 
   4  -3  -7    1.07    0.10 
   4  -3  -7    1.08    0.10 
  -4   3   7    1.02    0.13 
  -4   3   7    0.99    0.06 
  -4   3   7    1.16    0.07 
   3  -3  -7    2.24    0.13 
   3  -3  -7    2.19    0.12 
   3  -3  -7    2.20    0.14 
  -3   3   7    2.11    0.14 
  -3   3   7    2.16    0.08 
   2  -3  -7    2.48    0.13 
   2  -3  -7    2.40    0.14 
   2  -3  -7    2.43    0.12 
  -2   3   7    2.48    0.14 
  -2   3   7    2.44    0.13 
   1  -3  -7    1.15    0.08 
   1  -3  -7    1.18    0.09 
   1  -3  -7    1.11    0.10 
  -1   3   7    1.07    0.08 
  -1   3   7    1.20    0.09 
  -1   3   7    1.13    0.10 
   0  -3  -7   10.02    0.34 
   0  -3  -7    9.92    0.32 
   0  -3  -7    9.84    0.35 
   0   3   7   10.22    0.34 
   0   3   7   10.07    0.31 
   0   3   7   10.36    0.34 
  -1  -3  -7    0.07    0.06 
  -1  -3  -7    0.03    0.04 
  -1  -3  -7    0.17    0.05 
   1   3   7    0.06    0.04 
  -2  -3  -7   17.05    0.55 
  -2  -3  -7   17.47    0.56 
  -2  -3  -7   17.16    0.53 
   2   3   7   16.45    0.51 
  -3  -3  -7    8.82    0.33 
  -3  -3  -7    8.71    0.28 
  -3  -3  -7    8.96    0.35 
  -3  -3  -7    8.76    0.29 
  -3  -3  -7    8.80    0.31 
  -3  -3  -7    8.27    0.28 
   3   3   7    8.16    0.30 
  -4  -3  -7   -0.02    0.04 
  -4  -3  -7   -0.17    0.06 
  -4  -3  -7    0.05    0.07 
  -5  -3  -7    0.69    0.11 
  -5  -3  -7    1.05    0.13 
  -5  -3  -7    0.83    0.08 
  -6  -3  -7    1.80    0.18 
  -6  -3  -7    1.59    0.12 
   7  -4  -7    0.21    0.09 
   6  -4  -7    0.07    0.07 
   6  -4  -7    0.04    0.07 
   5  -4  -7    1.93    0.14 
   5  -4  -7    2.21    0.15 
   4  -4  -7    0.01    0.05 
   4  -4  -7   -0.02    0.06 
   4  -4  -7    0.00    0.05 
   3  -4  -7    0.91    0.10 
   3  -4  -7    1.04    0.09 
   3  -4  -7    1.03    0.12 
   2  -4  -7    4.81    0.21 
   2  -4  -7    4.69    0.21 
   2  -4  -7    4.59    0.18 
   1  -4  -7    3.81    0.17 
   1  -4  -7    3.55    0.18 
   1  -4  -7    3.51    0.15 
  -1   4   7    3.39    0.14 
   0  -4  -7    0.71    0.09 
   0  -4  -7    0.85    0.08 
   0  -4  -7    0.82    0.11 
  -1  -4  -7    0.00    0.05 
  -1  -4  -7    0.03    0.03 
  -1  -4  -7    0.00    0.04 
  -1  -4  -7    0.01    0.04 
   1   4   7   -0.02    0.07 
  -2  -4  -7    0.26    0.07 
  -2  -4  -7    0.10    0.07 
  -2  -4  -7    0.10    0.05 
  -3  -4  -7    2.84    0.20 
  -3  -4  -7    2.58    0.15 
  -3  -4  -7    2.52    0.17 
  -4  -4  -7    2.40    0.17 
  -4  -4  -7    2.60    0.12 
  -4  -4  -7    2.46    0.17 
  -5  -4  -7    0.22    0.09 
  -5  -4  -7    0.13    0.05 
  -5  -4  -7    0.17    0.08 
  -6  -4  -7   -0.02    0.05 
   7  -5  -7    0.21    0.10 
   6  -5  -7    1.15    0.13 
   6  -5  -7    1.44    0.14 
   5  -5  -7    0.53    0.10 
   5  -5  -7    0.60    0.09 
   4  -5  -7    1.50    0.15 
   4  -5  -7    1.54    0.13 
   4  -5  -7    1.47    0.13 
   3  -5  -7    0.13    0.07 
   3  -5  -7    0.29    0.07 
   3  -5  -7    0.18    0.05 
   2  -5  -7    0.21    0.05 
   2  -5  -7    0.11    0.06 
   2  -5  -7    0.03    0.05 
   1  -5  -7    7.33    0.29 
   1  -5  -7    7.62    0.29 
   1  -5  -7    7.08    0.25 
   0  -5  -7    1.02    0.09 
   0  -5  -7    1.26    0.11 
   0  -5  -7    0.94    0.13 
   0   5   7    1.22    0.16 
  -1  -5  -7    1.44    0.12 
  -1  -5  -7    1.24    0.14 
  -1  -5  -7    1.16    0.10 
   1   5   7    1.43    0.16 
  -2  -5  -7    5.21    0.22 
  -2  -5  -7    5.62    0.26 
  -2  -5  -7    5.26    0.25 
   2   5   7    5.40    0.25 
  -3  -5  -7    0.64    0.10 
  -3  -5  -7    0.70    0.09 
  -3  -5  -7    0.68    0.11 
  -4  -5  -7    0.17    0.07 
  -4  -5  -7    0.07    0.08 
  -5  -5  -7    0.81    0.12 
  -5  -5  -7    0.85    0.09 
  -5  -5  -7    0.90    0.13 
   6  -6  -7    0.61    0.12 
   6  -6  -7    0.77    0.12 
  -6   6   7    0.44    0.19 
   5  -6  -7    0.93    0.13 
   5  -6  -7    1.00    0.11 
   4  -6  -7    0.46    0.09 
   4  -6  -7    0.42    0.08 
   4  -6  -7    0.36    0.05 
   4  -6  -7    0.29    0.11 
   3  -6  -7    0.32    0.08 
   3  -6  -7    0.37    0.05 
   3  -6  -7    0.31    0.08 
   3  -6  -7    0.31    0.06 
   2  -6  -7   20.12    0.63 
   2  -6  -7   21.56    0.68 
   2  -6  -7   21.33    0.60 
   2  -6  -7   20.90    0.67 
  -2   6   7   21.08    0.75 
   1  -6  -7    0.00    0.07 
   1  -6  -7    0.25    0.08 
  -1   6   7    0.21    0.11 
   0  -6  -7    1.74    0.14 
   0  -6  -7    1.32    0.11 
   0  -6  -7    1.27    0.15 
   0   6   7    1.76    0.19 
  -1  -6  -7    6.33    0.28 
  -1  -6  -7    6.78    0.29 
  -1  -6  -7    6.53    0.25 
   1   6   7    6.66    0.32 
  -2  -6  -7    0.19    0.07 
  -2  -6  -7    0.14    0.06 
  -2  -6  -7    0.16    0.08 
   2   6   7    0.29    0.10 
  -3  -6  -7    0.57    0.12 
  -3  -6  -7    0.64    0.09 
  -3  -6  -7    0.96    0.13 
  -4  -6  -7    1.79    0.16 
  -4  -6  -7    1.92    0.17 
  -5  -6  -7    0.27    0.10 
  -5  -6  -7    0.23    0.09 
  -5  -6  -7    0.33    0.07 
   6  -7  -7    0.20    0.09 
   6  -7  -7    0.10    0.09 
  -6   7   7   -0.08    0.16 
   5  -7  -7    0.08    0.04 
   5  -7  -7    0.05    0.08 
   5  -7  -7    0.07    0.08 
  -5   7   7   -0.05    0.13 
   4  -7  -7    0.51    0.10 
   4  -7  -7    0.45    0.09 
   4  -7  -7    0.44    0.06 
  -4   7   7    0.54    0.18 
   3  -7  -7    9.31    0.29 
   3  -7  -7    9.62    0.38 
   3  -7  -7    9.21    0.33 
   3  -7  -7    9.17    0.37 
  -3   7   7    9.61    0.47 
   2  -7  -7    0.32    0.07 
   2  -7  -7    0.33    0.09 
   2  -7  -7    0.28    0.08 
   2  -7  -7    0.36    0.05 
  -2   7   7    0.48    0.15 
   1  -7  -7    5.66    0.27 
   1  -7  -7    5.42    0.22 
   1  -7  -7    6.06    0.27 
  -1   7   7    5.93    0.35 
   0  -7  -7    0.99    0.13 
   0  -7  -7    0.67    0.10 
   0   7   7    1.09    0.17 
  -1  -7  -7    2.57    0.19 
  -1  -7  -7    2.48    0.18 
  -1  -7  -7    2.54    0.15 
   1   7   7    2.65    0.22 
  -2  -7  -7    0.03    0.06 
  -2  -7  -7   -0.06    0.07 
  -2  -7  -7   -0.03    0.05 
   2   7   7    0.03    0.09 
  -3  -7  -7    0.41    0.08 
  -3  -7  -7    0.35    0.09 
  -4  -7  -7    0.10    0.08 
  -4  -7  -7    0.03    0.08 
   5  -8  -7    0.08    0.08 
   5  -8  -7    0.06    0.05 
  -5   8   7    0.11    0.14 
   4  -8  -7    0.02    0.07 
   4  -8  -7    0.08    0.04 
   4  -8  -7    0.08    0.08 
  -4   8   7    0.12    0.14 
   3  -8  -7    0.62    0.12 
   3  -8  -7    0.61    0.09 
   3  -8  -7    0.45    0.10 
  -3   8   7    0.67    0.18 
   2  -8  -7    0.26    0.08 
   2  -8  -7    0.19    0.08 
   2  -8  -7    0.34    0.07 
  -2   8   7    0.29    0.15 
   1  -8  -7    0.45    0.10 
   1  -8  -7    0.64    0.08 
   1  -8  -7    0.63    0.11 
  -1   8   7    0.78    0.17 
   0  -8  -7    0.47    0.10 
   0  -8  -7    0.45    0.10 
   0   8   7    0.56    0.16 
  -1  -8  -7    0.77    0.12 
  -1  -8  -7    0.63    0.11 
  -1  -8  -7    0.65    0.09 
   1   8   7    0.88    0.16 
  -2  -8  -7    0.27    0.08 
  -2  -8  -7    0.12    0.09 
  -2  -8  -7    0.13    0.07 
   2   8   7    0.24    0.11 
  -3  -8  -7    0.47    0.11 
  -3  -8  -7    0.41    0.09 
   4  -9  -7    0.07    0.07 
  -4   9   7    0.21    0.17 
   3  -9  -7    2.14    0.16 
  -3   9   7    2.55    0.32 
   2  -9  -7   -0.02    0.07 
   2  -9  -7    0.12    0.06 
   2  -9  -7    0.07    0.08 
  -2   9   7    0.06    0.15 
   1  -9  -7    0.01    0.07 
   1  -9  -7    0.08    0.07 
  -1   9   7    0.03    0.14 
   0  -9  -7    2.10    0.18 
   0  -9  -7    2.05    0.19 
   0   9   7    2.36    0.28 
  -1  -9  -7    0.12    0.09 
  -1  -9  -7    0.19    0.08 
   1   9   7    0.33    0.15 
  -2  -9  -7   -0.03    0.06 
   2   9   7    0.13    0.11 
  -2  10   7    0.04    0.17 
   1 -10  -7    1.00    0.14 
  -1  10   7    1.42    0.25 
   0 -10  -7   -0.06    0.08 
   0  10   7    0.05    0.16 
  -1 -10   8    0.72    0.11 
   0 -10   8    0.38    0.10 
   1 -10   8    2.54    0.20 
   3   9  -8    0.15    0.07 
   2   9  -8    0.38    0.09 
   1   9  -8    0.04    0.08 
  -1  -9   8    0.14    0.06 
   0  -9   8    1.57    0.15 
   1  -9   8    0.30    0.09 
   2  -9   8   -0.04    0.08 
   4   8  -8    0.00    0.06 
   3   8  -8    1.70    0.15 
   2   8  -8    0.59    0.10 
  -2  -8   8    0.74    0.11 
   1   8  -8    0.09    0.06 
  -1  -8   8    0.02    0.06 
   0  -8   8    0.74    0.11 
   1  -8   8    0.10    0.07 
   2  -8   8    0.16    0.08 
   4  -8   8    0.44    0.10 
   5   7  -8    2.04    0.17 
   5   7  -8    1.47    0.16 
   4   7  -8    1.19    0.13 
   4   7  -8    0.73    0.10 
   3   7  -8    1.22    0.12 
   3   7  -8    1.12    0.12 
   2   7  -8    0.07    0.05 
   1   7  -8    0.23    0.07 
   0   7  -8    0.11    0.06 
   0  -7   8    0.11    0.07 
   1  -7   8    6.35    0.28 
   2  -7   8    0.03    0.08 
   2  -7   8   -0.02    0.07 
   3  -7   8    2.79    0.21 
   3  -7   8    2.48    0.17 
   4  -7   8   -0.09    0.08 
   6   6  -8    1.17    0.15 
   6   6  -8    1.24    0.16 
   5   6  -8    0.07    0.07 
   5   6  -8   -0.03    0.05 
  -5  -6   8    0.01    0.07 
   4   6  -8    5.14    0.24 
   4   6  -8    4.90    0.23 
   3   6  -8   -0.01    0.04 
   3   6  -8   -0.06    0.05 
   2   6  -8    5.97    0.24 
   2   6  -8    5.70    0.24 
   1   6  -8    5.30    0.23 
   1   6  -8    5.45    0.22 
   0   6  -8   27.05    0.78 
   0  -6   8   25.19    0.79 
   1  -6   8    0.28    0.07 
   2  -6   8    2.81    0.19 
   2  -6   8    2.95    0.20 
   3  -6   8    2.03    0.15 
   3  -6   8    1.89    0.18 
   4  -6   8    0.14    0.06 
   4  -6   8    0.15    0.09 
   5  -6   8    0.76    0.13 
   5  -6   8    0.62    0.09 
   6   5  -8    0.98    0.13 
   6   5  -8    0.83    0.13 
   5   5  -8    0.36    0.08 
   5   5  -8    0.34    0.08 
  -5  -5   8    0.43    0.09 
   4   5  -8   -0.03    0.04 
   4   5  -8    0.02    0.05 
  -4  -5   8   -0.07    0.06 
   3   5  -8   13.22    0.45 
   3   5  -8   13.31    0.44 
  -3  -5   8   12.89    0.39 
   2   5  -8    0.47    0.08 
   2   5  -8    0.60    0.08 
  -2  -5   8    0.52    0.06 
   1   5  -8    8.58    0.30 
   1   5  -8    8.55    0.30 
  -1  -5   8    8.08    0.29 
   0   5  -8   20.01    0.61 
   0   5  -8   20.82    0.61 
   0  -5   8   19.93    0.62 
   1  -5   8    1.35    0.13 
   1  -5   8    1.04    0.15 
   1  -5   8    1.30    0.10 
   2  -5   8    6.11    0.20 
   2  -5   8    6.27    0.27 
   2  -5   8    6.05    0.28 
   2  -5   8    6.10    0.24 
   3  -5   8    0.37    0.11 
   3  -5   8    0.34    0.09 
   3  -5   8    0.39    0.08 
   3  -5   8    0.41    0.06 
   4  -5   8    3.25    0.16 
   4  -5   8    3.30    0.20 
   5  -5   8    0.67    0.12 
   5  -5   8    0.56    0.09 
   7   4  -8    0.59    0.11 
   7   4  -8    0.73    0.12 
  -7  -4   8    0.55    0.08 
   6   4  -8    0.05    0.06 
   6   4  -8    0.06    0.07 
  -6  -4   8    0.12    0.05 
   5   4  -8    0.16    0.06 
   5   4  -8    0.23    0.07 
  -5  -4   8    0.12    0.08 
  -5  -4   8    0.16    0.04 
   4   4  -8    5.47    0.23 
   4   4  -8    5.51    0.24 
  -4  -4   8    5.58    0.25 
  -4  -4   8    5.16    0.17 
   3   4  -8    2.56    0.14 
   3   4  -8    2.35    0.14 
  -3  -4   8    2.40    0.15 
   2   4  -8    1.18    0.10 
   2   4  -8    1.19    0.10 
  -2  -4   8    1.21    0.08 
   1   4  -8   11.93    0.39 
   1   4  -8   12.43    0.39 
  -1  -4   8   11.96    0.39 
  -1  -4   8   12.21    0.39 
   0   4  -8    4.49    0.17 
   0   4  -8    4.66    0.18 
   0  -4   8    4.09    0.20 
   0  -4   8    4.23    0.19 
   0  -4   8    4.68    0.20 
   1  -4   8    1.07    0.06 
   1  -4   8    1.22    0.14 
   1  -4   8    1.20    0.11 
   1  -4   8    1.16    0.10 
   1  -4   8    1.16    0.08 
   2  -4   8    0.55    0.06 
   2  -4   8    0.46    0.08 
   2  -4   8    0.53    0.10 
   2  -4   8    0.53    0.08 
   3  -4   8    8.81    0.28 
   3  -4   8    8.39    0.35 
   3  -4   8    8.42    0.35 
   3  -4   8    8.40    0.31 
   4  -4   8    0.23    0.07 
   4  -4   8    0.17    0.08 
   5  -4   8    4.19    0.24 
   5  -4   8    4.12    0.19 
   6  -4   8    0.09    0.10 
   6  -4   8    0.15    0.07 
   7   3  -8    0.18    0.08 
   7   3  -8    0.06    0.07 
  -7  -3   8    0.10    0.06 
   6   3  -8    0.28    0.08 
   6   3  -8    0.20    0.07 
  -6  -3   8    0.20    0.06 
   5   3  -8    1.18    0.12 
   5   3  -8    1.25    0.12 
  -5  -3   8    1.28    0.15 
  -5  -3   8    1.18    0.09 
   4   3  -8    5.73    0.24 
   4   3  -8    5.62    0.24 
  -4  -3   8    5.90    0.26 
  -4  -3   8    5.56    0.19 
   3   3  -8    2.24    0.13 
   3   3  -8    2.33    0.13 
  -3  -3   8    2.23    0.14 
  -3  -3   8    2.18    0.11 
  -3  -3   8    2.07    0.09 
   2   3  -8    2.14    0.12 
   2   3  -8    2.14    0.12 
  -2  -3   8    2.12    0.13 
  -2  -3   8    2.06    0.10 
  -2  -3   8    2.08    0.08 
   1   3  -8    0.54    0.06 
   1   3  -8    0.47    0.06 
  -1  -3   8    0.51    0.06 
  -1  -3   8    0.51    0.07 
  -1  -3   8    0.51    0.03 
  -1  -3   8    0.61    0.06 
   0   3  -8   25.55    0.73 
   0   3  -8   25.61    0.72 
   0  -3   8   25.26    0.72 
   0  -3   8   24.77    0.74 
   0  -3   8   25.62    0.75 
   0  -3   8   24.32    0.69 
  -1   3  -8    0.35    0.05 
  -1   3  -8    0.40    0.05 
   1  -3   8    0.31    0.08 
   1  -3   8    0.42    0.05 
   1  -3   8    0.42    0.05 
   1  -3   8    0.37    0.05 
   1  -3   8    0.39    0.06 
   1  -3   8    0.37    0.07 
   2  -3   8    3.57    0.17 
   2  -3   8    3.50    0.19 
   2  -3   8    3.64    0.21 
   2  -3   8    3.83    0.15 
  -3   3  -8    0.87    0.08 
   3  -3   8    0.95    0.08 
   3  -3   8    0.80    0.12 
   3  -3   8    0.80    0.10 
   4  -3   8    1.58    0.11 
   4  -3   8    1.61    0.15 
   5  -3   8    0.09    0.08 
   5  -3   8    0.04    0.06 
   6  -3   8    0.50    0.08 
   6  -3   8    0.38    0.11 
   7   2  -8    0.66    0.11 
  -7  -2   8    0.67    0.08 
   6   2  -8    0.58    0.09 
  -6  -2   8    0.59    0.07 
   5   2  -8   -0.03    0.05 
  -5  -2   8   -0.02    0.04 
  -5  -2   8   -0.03    0.07 
  -4  -2   8   11.27    0.40 
  -4  -2   8   10.93    0.34 
  -3  -2   8    1.58    0.13 
  -3  -2   8    1.67    0.10 
  -3  -2   8    1.56    0.08 
   2   2  -8    0.65    0.07 
  -2  -2   8    0.81    0.06 
  -2  -2   8    0.71    0.09 
  -2  -2   8    0.73    0.05 
  -2  -2   8    0.60    0.05 
   1   2  -8   16.74    0.49 
  -1  -2   8   16.48    0.49 
  -1  -2   8   16.82    0.51 
  -1  -2   8   16.35    0.48 
  -1  -2   8   15.66    0.46 
   0   2  -8    4.32    0.16 
   0   2  -8    4.29    0.15 
   0  -2   8    4.37    0.16 
   0  -2   8    3.96    0.14 
   0  -2   8    4.32    0.17 
   0  -2   8    4.09    0.20 
  -1   2  -8    9.89    0.30 
  -1   2  -8   10.09    0.31 
   1  -2   8   10.40    0.36 
   1  -2   8    9.62    0.34 
   1  -2   8   10.00    0.32 
   1  -2   8    9.60    0.33 
   1  -2   8    9.58    0.30 
  -2   2  -8    0.67    0.07 
   2  -2   8    0.64    0.08 
   2  -2   8    0.70    0.09 
   2  -2   8    0.57    0.10 
   2  -2   8    0.65    0.07 
  -3   2  -8    3.70    0.16 
   3  -2   8    3.71    0.16 
   3  -2   8    4.02    0.19 
  -4   2  -8    0.92    0.10 
   4  -2   8    0.88    0.11 
   4  -2   8    1.13    0.10 
   5  -2   8    1.54    0.16 
   5  -2   8    1.64    0.12 
   6  -2   8    0.03    0.06 
   6  -2   8    0.04    0.08 
   7   1  -8   -0.07    0.06 
  -7  -1   8   -0.05    0.05 
  -6  -1   8    0.41    0.06 
   5   1  -8    1.28    0.11 
  -5  -1   8    1.41    0.16 
  -5  -1   8    1.44    0.10 
   4   1  -8    0.72    0.07 
  -4  -1   8    0.60    0.06 
  -4  -1   8    0.62    0.10 
   3   1  -8    0.19    0.03 
   3   1  -8    0.13    0.04 
  -3  -1   8    0.10    0.03 
  -3  -1   8    0.17    0.03 
  -3  -1   8    0.08    0.05 
   2   1  -8    5.99    0.22 
   2   1  -8    5.79    0.20 
   2   1  -8    6.40    0.21 
  -2  -1   8    6.16    0.24 
  -2  -1   8    6.05    0.19 
  -2  -1   8    5.95    0.20 
   1   1  -8   36.18    1.01 
   1   1  -8   36.60    1.02 
   1   1  -8   34.74    1.00 
  -1  -1   8   35.49    1.01 
  -1  -1   8   36.19    1.04 
  -1  -1   8   35.75    0.99 
   0   1  -8    2.04    0.11 
   0   1  -8    2.11    0.08 
   0   1  -8    1.85    0.12 
   0   1  -8    1.64    0.10 
   0  -1   8    2.17    0.11 
   0  -1   8    1.63    0.09 
   0  -1   8    2.08    0.10 
  -1   1  -8    0.17    0.05 
  -1   1  -8    0.18    0.02 
  -1   1  -8    0.13    0.05 
  -1   1  -8    0.14    0.02 
  -1   1  -8    0.14    0.04 
   1  -1   8    0.16    0.05 
   1  -1   8    0.11    0.06 
   1  -1   8    0.11    0.04 
   1  -1   8    0.02    0.05 
   1  -1   8    0.14    0.04 
  -2   1  -8    3.26    0.15 
  -2   1  -8    3.30    0.11 
  -2   1  -8    3.53    0.18 
  -2   1  -8    3.30    0.11 
   2  -1   8    3.40    0.17 
   2  -1   8    3.28    0.19 
   2  -1   8    3.21    0.14 
   2  -1   8    3.37    0.16 
  -3   1  -8    0.82    0.05 
  -3   1  -8    0.92    0.09 
  -3   1  -8    0.65    0.10 
   3  -1   8    0.76    0.09 
   3  -1   8    0.72    0.07 
  -4   1  -8    0.42    0.07 
  -4   1  -8    0.38    0.04 
   4  -1   8    0.29    0.06 
   4  -1   8    0.39    0.08 
  -5   1  -8    3.86    0.20 
  -5   1  -8    3.59    0.14 
   5  -1   8    3.84    0.17 
   5  -1   8    4.03    0.22 
  -6   1  -8    2.29    0.11 
   6  -1   8    2.57    0.14 
   6  -1   8    2.72    0.21 
  -7   0   8    0.02    0.05 
   6   0  -8    0.19    0.07 
  -6   0   8    0.12    0.05 
   5   0  -8    1.12    0.12 
  -5   0   8    1.09    0.09 
   4   0  -8    1.41    0.06 
   4   0  -8    1.47    0.08 
   4   0  -8    1.43    0.10 
  -4   0   8    1.47    0.09 
  -4   0   8    1.43    0.15 
   3   0  -8    4.28    0.16 
   3   0  -8    4.61    0.17 
   3   0  -8    4.50    0.20 
   3   0  -8    4.37    0.14 
  -3   0   8    3.95    0.16 
  -3   0   8    4.54    0.21 
  -3   0   8    4.52    0.16 
   2   0  -8    9.73    0.31 
   2   0  -8    9.64    0.31 
   2   0  -8    9.66    0.33 
   2   0  -8    9.80    0.28 
  -2   0   8    9.37    0.31 
  -2   0   8    9.87    0.29 
  -2   0   8    9.85    0.34 
   1   0  -8    9.01    0.31 
   1   0  -8    8.87    0.28 
   1   0  -8    9.15    0.30 
   1   0  -8    8.93    0.26 
  -1   0   8    8.48    0.27 
  -1   0   8    8.96    0.30 
  -1   0   8    9.01    0.32 
   0   0  -8   14.26    0.46 
   0   0  -8   14.37    0.44 
   0   0  -8   14.55    0.45 
   0   0  -8   14.28    0.41 
   0   0   8   14.71    0.42 
   0   0   8   14.41    0.43 
   0   0   8   14.26    0.45 
   0   0   8   14.71    0.47 
  -1   0  -8    1.60    0.12 
  -1   0  -8    1.54    0.09 
  -1   0  -8    1.52    0.10 
  -1   0  -8    1.57    0.07 
   1   0   8    1.52    0.13 
   1   0   8    1.62    0.10 
   1   0   8    1.54    0.09 
   1   0   8    1.36    0.10 
   1   0   8    1.43    0.10 
  -2   0  -8    3.75    0.19 
  -2   0  -8    3.88    0.16 
  -2   0  -8    3.70    0.13 
  -2   0  -8    3.78    0.18 
   2   0   8    3.87    0.18 
   2   0   8    3.79    0.17 
   2   0   8    3.73    0.20 
   2   0   8    3.97    0.15 
  -3   0  -8   18.78    0.58 
  -3   0  -8   18.70    0.62 
  -3   0  -8   18.58    0.54 
   3   0   8   19.40    0.58 
   3   0   8   18.75    0.55 
  -4   0  -8    9.72    0.31 
  -4   0  -8    9.94    0.36 
   4   0   8   10.16    0.32 
   4   0   8   10.07    0.36 
  -5   0  -8    0.32    0.05 
  -5   0  -8    0.28    0.08 
   5   0   8    0.45    0.10 
   5   0   8    0.41    0.06 
  -6   0  -8    0.24    0.09 
  -6   0  -8    0.17    0.05 
   6   0   8    0.19    0.05 
  -7   1   8    0.25    0.07 
   6  -1  -8    4.17    0.21 
  -6   1   8    3.73    0.17 
   5  -1  -8    7.82    0.27 
   5  -1  -8    8.63    0.30 
  -5   1   8    7.69    0.27 
   4  -1  -8    0.02    0.03 
   4  -1  -8   -0.05    0.04 
  -4   1   8    0.00    0.04 
  -4   1   8   -0.04    0.06 
   3  -1  -8    5.79    0.24 
   3  -1  -8    5.52    0.20 
   3  -1  -8    5.89    0.21 
  -3   1   8    5.24    0.20 
  -3   1   8    5.68    0.24 
  -3   1   8    5.76    0.19 
   2  -1  -8    8.65    0.31 
   2  -1  -8    8.31    0.28 
   2  -1  -8    8.29    0.28 
  -2   1   8    8.48    0.31 
  -2   1   8    8.77    0.26 
  -2   1   8    8.05    0.28 
   1  -1  -8    0.75    0.09 
   1  -1  -8    0.68    0.07 
   1  -1  -8    0.78    0.07 
  -1   1   8    0.91    0.10 
  -1   1   8    0.82    0.06 
  -1   1   8    0.76    0.07 
   0  -1  -8   29.88    0.87 
   0  -1  -8   29.69    0.84 
   0  -1  -8   29.72    0.86 
   0   1   8   29.45    0.82 
   0   1   8   29.05    0.86 
   0   1   8   29.84    0.87 
   0   1   8   29.02    0.84 
  -1  -1  -8   23.04    0.70 
  -1  -1  -8   22.10    0.64 
  -1  -1  -8   22.46    0.67 
  -1  -1  -8   22.84    0.69 
   1   1   8   23.23    0.66 
   1   1   8   22.82    0.70 
   1   1   8   22.57    0.66 
   1   1   8   22.19    0.64 
  -2  -1  -8    1.64    0.08 
  -2  -1  -8    1.73    0.11 
  -2  -1  -8    1.68    0.15 
  -2  -1  -8    1.79    0.13 
   2   1   8    1.78    0.15 
   2   1   8    1.76    0.12 
   2   1   8    1.67    0.09 
   2   1   8    1.83    0.13 
  -3  -1  -8    0.36    0.07 
  -3  -1  -8    0.26    0.08 
  -3  -1  -8    0.22    0.04 
  -3  -1  -8    0.28    0.08 
   3   1   8    0.42    0.08 
   3   1   8    0.32    0.05 
  -4  -1  -8   10.81    0.35 
  -4  -1  -8   11.04    0.41 
  -4  -1  -8   11.07    0.39 
   4   1   8   11.13    0.34 
   4   1   8   11.42    0.39 
  -5  -1  -8    0.20    0.05 
  -5  -1  -8    0.24    0.08 
   5   1   8    0.25    0.09 
   5   1   8    0.27    0.04 
  -6  -1  -8    1.16    0.14 
  -6  -1  -8    1.02    0.10 
   7  -2  -8    0.86    0.12 
  -7   2   8    0.58    0.08 
   6  -2  -8    1.07    0.12 
   6  -2  -8    0.91    0.10 
  -6   2   8    0.87    0.08 
   5  -2  -8    9.67    0.33 
   5  -2  -8    8.37    0.31 
  -5   2   8    8.84    0.29 
   4  -2  -8    0.17    0.06 
   4  -2  -8    0.11    0.06 
   4  -2  -8    0.11    0.05 
  -4   2   8    0.05    0.07 
  -4   2   8    0.14    0.05 
   3  -2  -8   19.65    0.62 
   3  -2  -8   19.61    0.59 
   3  -2  -8   19.88    0.59 
  -3   2   8   19.06    0.59 
  -3   2   8   19.77    0.62 
  -3   2   8   19.99    0.56 
   2  -2  -8    0.71    0.07 
   2  -2  -8    0.75    0.10 
   2  -2  -8    0.63    0.07 
  -2   2   8    0.67    0.06 
  -2   2   8    0.70    0.08 
  -2   2   8    0.87    0.08 
   1  -2  -8    4.71    0.19 
   1  -2  -8    4.83    0.18 
  -1   2   8    4.88    0.16 
  -1   2   8    4.79    0.21 
  -1   2   8    4.87    0.19 
  -1   2   8    4.58    0.18 
   0  -2  -8   -0.01    0.03 
   0  -2  -8    0.03    0.04 
   0  -2  -8   -0.02    0.03 
   0   2   8   -0.03    0.03 
   0   2   8   -0.02    0.03 
   0   2   8    0.00    0.04 
   0   2   8    0.00    0.05 
  -1  -2  -8   20.95    0.62 
  -1  -2  -8   20.85    0.64 
   1   2   8   20.73    0.61 
   1   2   8   21.41    0.58 
   1   2   8   20.48    0.64 
   1   2   8   20.66    0.61 
  -2  -2  -8    1.04    0.10 
  -2  -2  -8    1.01    0.07 
  -2  -2  -8    1.08    0.11 
   2   2   8    1.04    0.06 
   2   2   8    1.02    0.10 
  -3  -2  -8    7.76    0.31 
  -3  -2  -8    7.92    0.26 
  -3  -2  -8    8.12    0.30 
   3   2   8    7.67    0.29 
   3   2   8    7.98    0.23 
  -4  -2  -8    6.93    0.29 
  -4  -2  -8    6.39    0.23 
  -4  -2  -8    6.96    0.30 
   4   2   8    6.96    0.28 
  -5  -2  -8   -0.04    0.07 
  -5  -2  -8   -0.06    0.04 
  -6  -2  -8    0.29    0.10 
  -6  -2  -8    0.33    0.07 
   7  -3  -8    0.02    0.08 
  -7   3   8   -0.01    0.05 
   6  -3  -8   13.19    0.44 
   6  -3  -8   11.69    0.42 
  -6   3   8   11.69    0.37 
   5  -3  -8    0.27    0.07 
   5  -3  -8    0.20    0.07 
  -5   3   8    0.26    0.05 
   4  -3  -8    0.08    0.05 
   4  -3  -8    0.06    0.06 
   4  -3  -8    0.00    0.05 
  -4   3   8   -0.05    0.06 
  -4   3   8    0.05    0.04 
   3  -3  -8    0.08    0.05 
   3  -3  -8    0.06    0.05 
   3  -3  -8    0.03    0.05 
  -3   3   8    0.07    0.06 
  -3   3   8    0.06    0.03 
  -3   3   8    0.08    0.02 
   2  -3  -8    0.08    0.05 
   2  -3  -8    0.10    0.04 
   2  -3  -8    0.07    0.05 
  -2   3   8    0.14    0.04 
  -2   3   8    0.09    0.05 
   1  -3  -8    1.22    0.09 
   1  -3  -8    1.19    0.11 
   1  -3  -8    1.22    0.10 
  -1   3   8    1.04    0.09 
  -1   3   8    1.27    0.11 
   0  -3  -8   25.58    0.78 
   0  -3  -8   26.16    0.76 
   0  -3  -8   26.69    0.79 
   0   3   8   25.65    0.74 
   0   3   8   25.76    0.77 
  -1  -3  -8    2.10    0.14 
  -1  -3  -8    1.99    0.12 
  -1  -3  -8    2.04    0.15 
   1   3   8    1.86    0.11 
  -2  -3  -8    0.07    0.05 
  -2  -3  -8    0.04    0.05 
  -2  -3  -8    0.09    0.07 
   2   3   8    0.08    0.05 
  -3  -3  -8    6.74    0.33 
  -3  -3  -8    6.94    0.28 
  -3  -3  -8    6.85    0.29 
  -3  -3  -8    6.99    0.23 
   3   3   8    6.85    0.26 
  -4  -3  -8    4.03    0.22 
  -4  -3  -8    3.86    0.16 
  -4  -3  -8    3.89    0.22 
  -5  -3  -8   -0.03    0.07 
  -5  -3  -8    0.02    0.05 
  -5  -3  -8    0.30    0.10 
   7  -4  -8    0.03    0.09 
   6  -4  -8    0.27    0.08 
   6  -4  -8    0.27    0.09 
   5  -4  -8    0.15    0.07 
   5  -4  -8    0.17    0.07 
   4  -4  -8    1.58    0.12 
   4  -4  -8    1.41    0.15 
   4  -4  -8    1.27    0.12 
   3  -4  -8    1.76    0.15 
   3  -4  -8    1.82    0.12 
   3  -4  -8    1.70    0.12 
   2  -4  -8    0.15    0.06 
   2  -4  -8    0.25    0.06 
   2  -4  -8    0.14    0.05 
  -2   4   8    0.23    0.05 
   1  -4  -8    0.37    0.06 
   1  -4  -8    0.36    0.07 
   1  -4  -8    0.37    0.07 
  -1   4   8    0.47    0.06 
   0  -4  -8    1.64    0.11 
   0  -4  -8    1.58    0.14 
   0  -4  -8    1.70    0.13 
   0   4   8    1.58    0.10 
  -1  -4  -8    0.97    0.13 
  -1  -4  -8    1.09    0.11 
  -1  -4  -8    0.78    0.08 
   1   4   8    0.82    0.09 
  -2  -4  -8    0.73    0.11 
  -2  -4  -8    0.84    0.11 
  -2  -4  -8    0.74    0.09 
  -3  -4  -8    2.07    0.16 
  -3  -4  -8    1.96    0.15 
  -4  -4  -8    0.33    0.06 
  -4  -4  -8    0.34    0.09 
  -4  -4  -8    0.30    0.09 
  -5  -4  -8    0.11    0.08 
  -5  -4  -8    0.11    0.05 
  -5  -4  -8    0.11    0.08 
   7  -5  -8    0.26    0.11 
   6  -5  -8    0.22    0.09 
   6  -5  -8    0.13    0.08 
   5  -5  -8    0.07    0.07 
   5  -5  -8   -0.02    0.06 
   4  -5  -8    0.16    0.07 
   4  -5  -8    0.14    0.06 
   3  -5  -8    0.00    0.06 
   3  -5  -8    0.03    0.06 
   3  -5  -8    0.09    0.05 
   2  -5  -8    4.11    0.18 
   2  -5  -8    4.31    0.21 
   2  -5  -8    4.13    0.22 
   1  -5  -8    0.21    0.07 
   1  -5  -8    0.20    0.07 
   1  -5  -8    0.21    0.05 
   0  -5  -8    3.36    0.16 
   0  -5  -8    3.48    0.20 
   0  -5  -8    3.88    0.19 
   0   5   8    3.29    0.23 
  -1  -5  -8    0.42    0.09 
  -1  -5  -8    0.20    0.06 
  -1  -5  -8    0.31    0.08 
   1   5   8    0.36    0.11 
  -2  -5  -8    0.07    0.07 
  -2  -5  -8    0.00    0.05 
  -2  -5  -8    0.00    0.06 
   2   5   8    0.13    0.08 
  -3  -5  -8    0.12    0.07 
  -3  -5  -8    0.20    0.08 
  -4  -5  -8    1.24    0.10 
  -4  -5  -8    0.89    0.12 
  -4  -5  -8    1.36    0.15 
  -5  -5  -8    0.07    0.09 
  -5  -5  -8    0.12    0.08 
  -5  -5  -8    0.07    0.05 
   6  -6  -8    0.08    0.08 
   6  -6  -8    0.01    0.08 
   5  -6  -8    1.05    0.13 
   5  -6  -8    1.06    0.12 
   4  -6  -8    1.36    0.14 
   4  -6  -8    1.28    0.13 
   3  -6  -8    0.18    0.08 
   3  -6  -8    0.22    0.06 
   3  -6  -8    0.19    0.07 
   2  -6  -8    1.28    0.14 
   2  -6  -8    1.24    0.15 
   2  -6  -8    1.23    0.11 
   1  -6  -8    4.41    0.20 
   1  -6  -8    4.52    0.24 
   1  -6  -8    4.94    0.24 
  -1   6   8    4.83    0.30 
   0  -6  -8    2.61    0.15 
   0  -6  -8    2.68    0.19 
   0  -6  -8    3.11    0.18 
   0   6   8    2.92    0.23 
  -1  -6  -8    0.71    0.11 
  -1  -6  -8    0.68    0.09 
  -1  -6  -8    0.54    0.10 
   1   6   8    0.95    0.14 
  -2  -6  -8    0.84    0.10 
  -2  -6  -8    0.92    0.12 
  -2  -6  -8    0.64    0.11 
   2   6   8    1.02    0.13 
  -3  -6  -8    0.74    0.10 
  -3  -6  -8    0.89    0.12 
  -4  -6  -8    0.01    0.08 
  -4  -6  -8    0.03    0.08 
   6  -7  -8    0.02    0.09 
   6  -7  -8   -0.06    0.08 
  -6   7   8   -0.07    0.17 
   5  -7  -8    0.55    0.10 
   5  -7  -8    0.55    0.12 
  -5   7   8    0.59    0.20 
   4  -7  -8   -0.01    0.07 
   4  -7  -8    0.05    0.06 
  -4   7   8   -0.11    0.12 
   3  -7  -8    0.57    0.08 
   3  -7  -8    0.56    0.11 
   3  -7  -8    0.53    0.11 
  -3   7   8    0.65    0.18 
   2  -7  -8    0.38    0.09 
   2  -7  -8    0.60    0.08 
   2  -7  -8    0.65    0.11 
  -2   7   8    0.70    0.17 
   1  -7  -8    2.11    0.14 
   1  -7  -8    2.59    0.18 
   1  -7  -8    2.32    0.19 
  -1   7   8    2.63    0.25 
   0  -7  -8    0.37    0.07 
   0  -7  -8    0.41    0.09 
   0  -7  -8    0.19    0.08 
   0   7   8    0.46    0.13 
  -1  -7  -8    0.87    0.12 
  -1  -7  -8    1.10    0.13 
  -1  -7  -8    1.11    0.12 
   1   7   8    1.57    0.20 
  -2  -7  -8    0.52    0.09 
  -2  -7  -8    0.39    0.09 
  -2  -7  -8    0.29    0.14 
   2   7   8    0.45    0.12 
  -3  -7  -8    0.53    0.10 
  -3  -7  -8    0.57    0.11 
   5  -8  -8    0.15    0.09 
  -5   8   8   -0.03    0.16 
   4  -8  -8    1.94    0.18 
   4  -8  -8    1.75    0.16 
  -4   8   8    2.22    0.31 
   3  -8  -8    2.21    0.19 
   3  -8  -8    2.53    0.16 
  -3   8   8    2.81    0.31 
   2  -8  -8    7.63    0.30 
   2  -8  -8    7.93    0.35 
   2  -8  -8    8.12    0.36 
  -2   8   8    9.01    0.46 
   1  -8  -8    2.32    0.18 
   1  -8  -8    2.09    0.20 
   1  -8  -8    2.08    0.15 
  -1   8   8    2.99    0.28 
   0  -8  -8    0.62    0.09 
   0  -8  -8    0.58    0.11 
   0  -8  -8    0.86    0.12 
   0   8   8    1.02    0.19 
  -1  -8  -8    2.40    0.21 
  -1  -8  -8    2.29    0.16 
  -1  -8  -8    2.41    0.19 
   1   8   8    2.81    0.26 
  -2  -8  -8   -0.01    0.07 
  -2  -8  -8    0.12    0.08 
   2   8   8    0.10    0.11 
  -3  -8  -8    0.76    0.11 
   4  -9  -8    0.03    0.07 
  -4   9   8    0.04    0.16 
   3  -9  -8    3.66    0.21 
  -3   9   8    4.78    0.38 
   2  -9  -8    7.97    0.32 
  -2   9   8   10.03    0.52 
   1  -9  -8    0.00    0.07 
   1  -9  -8   -0.17    0.08 
  -1   9   8    0.26    0.16 
   0  -9  -8   -0.03    0.09 
   0  -9  -8    0.16    0.07 
   0   9   8    0.20    0.14 
  -1  -9  -8   -0.02    0.06 
   1   9   8   -0.07    0.13 
  -1 -10   9    0.56    0.10 
   0 -10   9   -0.06    0.06 
   3   9  -9    0.55    0.10 
   2   9  -9    0.00    0.06 
  -2  -9   9    0.03    0.07 
   1   9  -9    0.37    0.10 
  -1  -9   9    0.29    0.08 
   0  -9   9   -0.04    0.07 
   1  -9   9    0.08    0.07 
   2  -9   9    0.67    0.13 
   4   8  -9    0.47    0.09 
   3   8  -9    0.41    0.08 
   2   8  -9    0.47    0.09 
   1   8  -9    1.36    0.14 
  -1  -8   9    1.28    0.14 
   0  -8   9   -0.08    0.05 
   1  -8   9    0.16    0.08 
   2  -8   9    0.09    0.09 
   2  -8   9    0.05    0.08 
   3  -8   9    0.13    0.08 
   5   7  -9    0.15    0.08 
   5   7  -9    0.14    0.08 
  -5  -7   9    0.03    0.09 
   4   7  -9    0.15    0.06 
   4   7  -9    0.09    0.07 
   3   7  -9    0.01    0.05 
   3   7  -9   -0.01    0.06 
   2   7  -9    2.54    0.16 
   2   7  -9    2.89    0.17 
   1   7  -9    0.35    0.08 
  -1  -7   9    0.32    0.08 
   0   7  -9    0.02    0.06 
   0  -7   9   -0.04    0.05 
   1  -7   9    0.05    0.06 
   2  -7   9   -0.02    0.08 
   2  -7   9    0.04    0.07 
   3  -7   9    2.49    0.21 
   3  -7   9    2.66    0.18 
   4  -7   9    0.26    0.10 
   6   6  -9    0.43    0.11 
   6   6  -9    0.31    0.10 
   5   6  -9    0.61    0.11 
   5   6  -9    0.78    0.12 
  -5  -6   9    0.61    0.12 
   4   6  -9    0.84    0.11 
   4   6  -9    0.85    0.11 
   3   6  -9    0.04    0.05 
   3   6  -9    0.06    0.05 
   2   6  -9    0.91    0.11 
   2   6  -9    0.72    0.10 
   1   6  -9    0.87    0.10 
   1   6  -9    0.65    0.09 
   0   6  -9   13.82    0.45 
   0  -6   9   13.29    0.46 
   1  -6   9    5.94    0.26 
   1  -6   9    5.75    0.26 
   2  -6   9    0.39    0.08 
   2  -6   9    0.28    0.09 
   2  -6   9    0.33    0.09 
   3  -6   9    0.06    0.08 
   3  -6   9   -0.04    0.09 
   3  -6   9    0.04    0.07 
   4  -6   9    1.98    0.18 
   4  -6   9    2.09    0.14 
   5  -6   9    0.02    0.07 
   5  -6   9   -0.05    0.09 
   6   5  -9    0.09    0.07 
   6   5  -9    0.06    0.07 
   5   5  -9    0.88    0.12 
   5   5  -9    1.05    0.13 
  -5  -5   9    1.04    0.13 
   4   5  -9    0.05    0.05 
   4   5  -9    0.04    0.05 
  -4  -5   9    0.03    0.07 
   3   5  -9    0.12    0.06 
   3   5  -9    0.14    0.06 
  -3  -5   9    0.13    0.06 
   2   5  -9    8.26    0.30 
   2   5  -9    8.32    0.30 
  -2  -5   9    7.68    0.27 
   1   5  -9   10.86    0.37 
   1   5  -9   11.00    0.37 
  -1  -5   9   10.51    0.36 
   0   5  -9    7.09    0.27 
   0   5  -9    7.39    0.27 
   0  -5   9    7.17    0.30 
   0  -5   9    7.63    0.29 
   1  -5   9    3.40    0.19 
   1  -5   9    3.55    0.21 
   2  -5   9    8.43    0.30 
   2  -5   9    8.04    0.26 
   2  -5   9    8.16    0.33 
   2  -5   9    8.53    0.35 
   3  -5   9    1.73    0.12 
   3  -5   9    1.58    0.15 
   3  -5   9    1.76    0.18 
   3  -5   9    1.47    0.17 
   4  -5   9    0.21    0.07 
   4  -5   9    0.35    0.09 
   5  -5   9    0.80    0.10 
   5  -5   9    0.84    0.14 
   7   4  -9    0.10    0.08 
   7   4  -9    0.09    0.09 
  -7  -4   9   -0.06    0.06 
   6   4  -9    1.79    0.16 
   6   4  -9    1.86    0.16 
  -6  -4   9    1.94    0.12 
   5   4  -9    2.21    0.15 
   5   4  -9    2.02    0.15 
  -5  -4   9    2.34    0.19 
  -5  -4   9    1.98    0.11 
   4   4  -9    0.41    0.08 
   4   4  -9    0.69    0.09 
  -4  -4   9    0.38    0.04 
  -4  -4   9    0.33    0.08 
   3   4  -9    2.24    0.14 
   3   4  -9    2.02    0.14 
  -3  -4   9    2.07    0.09 
  -3  -4   9    2.13    0.09 
  -3  -4   9    2.77    0.16 
   2   4  -9    0.56    0.08 
   2   4  -9    0.41    0.07 
  -2  -4   9    0.59    0.06 
  -2  -4   9    0.55    0.08 
   1   4  -9   10.73    0.35 
   1   4  -9   10.31    0.35 
  -1  -4   9   10.77    0.36 
  -1  -4   9   10.56    0.35 
   0   4  -9    0.07    0.05 
   0   4  -9    0.17    0.05 
   0  -4   9    0.05    0.04 
   0  -4   9    0.01    0.07 
   0  -4   9    0.15    0.06 
   0  -4   9    0.05    0.03 
  -1   4  -9   10.20    0.33 
   1  -4   9   10.22    0.31 
   1  -4   9   10.67    0.37 
   1  -4   9   10.76    0.34 
   1  -4   9   10.71    0.39 
   2  -4   9    0.55    0.10 
   2  -4   9    0.51    0.11 
   2  -4   9    0.55    0.09 
   2  -4   9    0.68    0.07 
   3  -4   9    0.02    0.08 
   3  -4   9    0.07    0.07 
   3  -4   9    0.07    0.08 
   3  -4   9    0.11    0.06 
   4  -4   9    0.20    0.07 
   4  -4   9    0.11    0.08 
   5  -4   9    2.26    0.15 
   5  -4   9    2.81    0.20 
   7   3  -9    0.03    0.07 
   7   3  -9   -0.12    0.06 
  -7  -3   9   -0.03    0.06 
   6   3  -9    0.38    0.09 
   6   3  -9    0.28    0.08 
  -6  -3   9    0.25    0.06 
   5   3  -9   -0.05    0.04 
   5   3  -9   -0.01    0.04 
  -5  -3   9   -0.03    0.07 
  -5  -3   9   -0.03    0.04 
   4   3  -9    0.18    0.06 
   4   3  -9    0.14    0.06 
  -4  -3   9    0.18    0.04 
  -4  -3   9    0.09    0.07 
   3   3  -9    0.71    0.09 
   3   3  -9    0.64    0.08 
  -3  -3   9    0.59    0.09 
  -3  -3   9    0.62    0.06 
  -3  -3   9    0.61    0.07 
  -3  -3   9    0.67    0.05 
   2   3  -9   34.90    1.01 
   2   3  -9   35.17    1.01 
  -2  -3   9   35.37    1.02 
  -2  -3   9   35.09    0.96 
  -2  -3   9   33.85    0.98 
   1   3  -9    1.34    0.10 
   1   3  -9    1.39    0.10 
  -1  -3   9    1.76    0.14 
  -1  -3   9    1.39    0.10 
  -1  -3   9    1.62    0.09 
  -1  -3   9    1.39    0.07 
   0   3  -9   16.99    0.51 
   0   3  -9   17.59    0.51 
   0  -3   9   16.51    0.48 
   0  -3   9   16.82    0.53 
   0  -3   9   17.22    0.54 
   0  -3   9   16.42    0.53 
  -1   3  -9    2.03    0.10 
  -1   3  -9    2.01    0.10 
   1  -3   9    1.86    0.16 
   1  -3   9    2.07    0.11 
   1  -3   9    2.02    0.14 
   1  -3   9    1.94    0.12 
  -2   3  -9    3.41    0.14 
   2  -3   9    3.48    0.17 
   2  -3   9    3.51    0.22 
   2  -3   9    3.42    0.19 
   2  -3   9    3.42    0.15 
   3  -3   9    2.41    0.20 
   3  -3   9    2.64    0.14 
   3  -3   9    2.35    0.16 
   3  -3   9    2.44    0.19 
   4  -3   9    0.14    0.06 
   4  -3   9    0.17    0.08 
   5  -3   9    0.02    0.08 
   5  -3   9    0.13    0.07 
   7   2  -9   -0.02    0.06 
  -7  -2   9   -0.02    0.06 
   6   2  -9    0.55    0.09 
  -6  -2   9    0.73    0.08 
   5   2  -9    3.91    0.20 
  -5  -2   9    3.89    0.23 
  -5  -2   9    3.96    0.16 
   4   2  -9   -0.01    0.04 
  -4  -2   9    0.02    0.07 
  -4  -2   9    0.05    0.04 
  -3  -2   9    1.52    0.08 
  -3  -2   9    1.62    0.08 
  -3  -2   9    1.53    0.13 
   2   2  -9    2.68    0.13 
  -2  -2   9    2.57    0.10 
  -2  -2   9    2.83    0.16 
  -2  -2   9    2.58    0.12 
   1   2  -9   27.28    0.78 
  -1  -2   9   26.78    0.79 
  -1  -2   9   26.69    0.76 
  -1  -2   9   28.24    0.82 
   0   2  -9    8.12    0.25 
   0   2  -9    8.13    0.26 
   0   2  -9    7.76    0.25 
   0  -2   9    7.76    0.25 
   0  -2   9    7.58    0.28 
   0  -2   9    7.44    0.30 
  -1   2  -9    9.15    0.29 
  -1   2  -9    9.23    0.30 
   1  -2   9    9.44    0.35 
   1  -2   9    9.59    0.31 
   1  -2   9    9.68    0.30 
   1  -2   9    9.27    0.33 
  -2   2  -9    0.13    0.04 
   2  -2   9    0.12    0.07 
   2  -2   9    0.27    0.07 
   2  -2   9    0.14    0.06 
   2  -2   9    0.21    0.08 
  -3   2  -9    0.44    0.07 
   3  -2   9    0.38    0.07 
   3  -2   9    0.37    0.10 
   3  -2   9    0.20    0.08 
  -4   2  -9    0.80    0.10 
   4  -2   9    1.00    0.09 
   4  -2   9    1.11    0.12 
   5  -2   9    0.05    0.08 
   5  -2   9    0.04    0.06 
   6  -2   9   -0.02    0.09 
   6  -2   9    0.11    0.07 
   7   1  -9   -0.03    0.06 
  -7  -1   9    0.04    0.06 
  -6  -1   9    3.47    0.16 
   5   1  -9    0.34    0.07 
  -5  -1   9    0.32    0.06 
   4   1  -9   -0.05    0.04 
  -4  -1   9   -0.04    0.07 
  -4  -1   9   -0.02    0.04 
   3   1  -9    4.89    0.17 
   3   1  -9    4.63    0.18 
  -3  -1   9    4.85    0.17 
  -3  -1   9    4.38    0.16 
  -3  -1   9    4.79    0.22 
   2   1  -9    1.15    0.08 
   2   1  -9    1.04    0.08 
  -2  -1   9    1.05    0.12 
  -2  -1   9    1.24    0.08 
  -2  -1   9    1.10    0.07 
   1   1  -9    0.90    0.08 
   1   1  -9    0.85    0.09 
   1   1  -9    0.80    0.07 
  -1  -1   9    0.83    0.11 
  -1  -1   9    0.99    0.07 
  -1  -1   9    0.76    0.07 
   0   1  -9    0.26    0.06 
   0   1  -9    0.32    0.04 
   0   1  -9    0.44    0.07 
   0   1  -9    0.36    0.05 
   0  -1   9    0.38    0.06 
   0  -1   9    0.35    0.07 
   0  -1   9    0.42    0.06 
   0  -1   9    0.38    0.05 
  -1   1  -9    0.94    0.10 
  -1   1  -9    0.68    0.04 
  -1   1  -9    0.54    0.08 
  -1   1  -9    0.51    0.04 
  -1   1  -9    0.69    0.07 
   1  -1   9    0.69    0.08 
   1  -1   9    0.73    0.07 
   1  -1   9    0.63    0.07 
   1  -1   9    0.60    0.09 
  -2   1  -9    0.61    0.07 
  -2   1  -9    0.57    0.05 
  -2   1  -9    0.61    0.04 
  -2   1  -9    0.63    0.10 
   2  -1   9    0.52    0.09 
   2  -1   9    0.65    0.09 
   2  -1   9    0.55    0.07 
   2  -1   9    0.53    0.08 
  -3   1  -9    5.45    0.22 
  -3   1  -9    5.62    0.18 
   3  -1   9    5.87    0.24 
   3  -1   9    5.15    0.20 
  -4   1  -9    0.02    0.06 
  -4   1  -9   -0.02    0.03 
   4  -1   9    0.05    0.05 
   4  -1   9   -0.01    0.06 
  -5   1  -9   -0.02    0.03 
  -5   1  -9    0.06    0.11 
   5  -1   9    0.02    0.08 
   5  -1   9    0.01    0.06 
  -6   1  -9    0.12    0.04 
   6  -1   9    0.26    0.10 
   6  -1   9    0.28    0.07 
  -7   0   9    0.03    0.06 
  -6   0   9    5.80    0.22 
   5   0  -9    0.63    0.08 
  -5   0   9    0.63    0.07 
   4   0  -9    0.35    0.05 
   4   0  -9    0.33    0.03 
   4   0  -9    0.35    0.07 
  -4   0   9    0.38    0.06 
  -4   0   9    0.23    0.08 
   3   0  -9    1.50    0.09 
   3   0  -9    1.41    0.06 
   3   0  -9    1.38    0.10 
   3   0  -9    1.54    0.12 
  -3   0   9    1.51    0.09 
  -3   0   9    1.38    0.14 
  -3   0   9    1.55    0.09 
   2   0  -9   18.82    0.55 
   2   0  -9   18.22    0.51 
   2   0  -9   18.47    0.57 
   2   0  -9   18.24    0.55 
  -2   0   9   17.76    0.55 
  -2   0   9   18.83    0.53 
  -2   0   9   18.66    0.59 
   1   0  -9    6.84    0.26 
   1   0  -9    7.02    0.21 
   1   0  -9    6.85    0.22 
   1   0  -9    6.69    0.24 
   1   0  -9    7.23    0.25 
  -1   0   9    6.94    0.23 
  -1   0   9    7.02    0.25 
  -1   0   9    6.86    0.27 
   0   0  -9    9.81    0.33 
   0   0  -9    9.82    0.31 
   0   0  -9    9.80    0.28 
   0   0  -9    9.67    0.34 
   0   0   9    9.46    0.30 
   0   0   9    9.45    0.31 
   0   0   9    9.40    0.33 
   0   0   9    9.57    0.35 
  -1   0  -9    0.96    0.09 
  -1   0  -9    1.00    0.11 
  -1   0  -9    1.03    0.08 
  -1   0  -9    1.04    0.06 
   1   0   9    1.14    0.09 
   1   0   9    0.96    0.12 
   1   0   9    0.89    0.08 
   1   0   9    0.86    0.10 
  -2   0  -9    0.07    0.06 
  -2   0  -9    0.07    0.05 
  -2   0  -9    0.01    0.05 
  -2   0  -9    0.06    0.03 
   2   0   9    0.06    0.06 
   2   0   9    0.05    0.06 
   2   0   9    0.09    0.05 
   2   0   9    0.13    0.07 
  -3   0  -9    2.41    0.11 
  -3   0  -9    2.50    0.15 
   3   0   9    2.69    0.16 
   3   0   9    2.38    0.12 
  -4   0  -9    7.12    0.29 
  -4   0  -9    6.75    0.23 
   4   0   9    7.16    0.24 
   4   0   9    7.42    0.29 
  -5   0  -9    0.16    0.04 
  -5   0  -9    0.15    0.08 
   5   0   9    0.23    0.08 
   5   0   9    0.36    0.06 
  -6   0  -9    0.08    0.05 
   6   0   9    0.07    0.05 
  -7   1   9    4.11    0.19 
   6  -1  -9    3.98    0.20 
  -6   1   9    3.44    0.17 
   5  -1  -9    3.00    0.13 
   5  -1  -9    2.86    0.17 
  -5   1   9    2.71    0.14 
   4  -1  -9    0.22    0.06 
   4  -1  -9    0.27    0.07 
   4  -1  -9    0.16    0.04 
  -4   1   9    0.10    0.08 
  -4   1   9    0.23    0.06 
   3  -1  -9   31.85    0.93 
   3  -1  -9   30.28    0.89 
   3  -1  -9   31.85    0.89 
  -3   1   9   30.86    0.87 
  -3   1   9   30.65    0.93 
  -3   1   9   29.97    0.89 
   2  -1  -9    0.66    0.08 
   2  -1  -9    0.76    0.07 
   2  -1  -9    0.49    0.08 
  -2   1   9    0.62    0.07 
  -2   1   9    0.59    0.06 
  -2   1   9    0.62    0.09 
   1  -1  -9    0.37    0.05 
   1  -1  -9    0.38    0.06 
   1  -1  -9    0.29    0.06 
  -1   1   9    0.38    0.06 
  -1   1   9    0.30    0.07 
  -1   1   9    0.32    0.05 
   0  -1  -9    0.06    0.05 
   0  -1  -9    0.11    0.05 
   0  -1  -9    0.06    0.04 
   0   1   9    0.06    0.04 
   0   1   9    0.14    0.06 
   0   1   9    0.14    0.05 
   0   1   9    0.11    0.06 
   0   1   9    0.10    0.04 
  -1  -1  -9    7.77    0.30 
  -1  -1  -9    7.84    0.27 
  -1  -1  -9    7.48    0.28 
  -1  -1  -9    7.29    0.23 
   1   1   9    7.65    0.27 
   1   1   9    7.33    0.24 
   1   1   9    7.19    0.30 
   1   1   9    7.40    0.26 
  -2  -1  -9    1.96    0.14 
  -2  -1  -9    2.01    0.09 
  -2  -1  -9    2.00    0.13 
  -2  -1  -9    2.08    0.16 
   2   1   9    2.23    0.17 
   2   1   9    2.00    0.10 
   2   1   9    2.01    0.13 
   2   1   9    2.05    0.15 
  -3  -1  -9   10.90    0.34 
  -3  -1  -9   11.21    0.41 
  -3  -1  -9   10.96    0.38 
   3   1   9   10.74    0.34 
   3   1   9   11.19    0.38 
  -4  -1  -9    2.78    0.18 
  -4  -1  -9    2.75    0.13 
   4   1   9    2.95    0.18 
   4   1   9    2.86    0.12 
  -5  -1  -9    0.18    0.08 
  -5  -1  -9    0.10    0.05 
   5   1   9    0.17    0.04 
  -6  -1  -9    1.34    0.15 
  -6  -1  -9    1.23    0.10 
   7  -2  -9    0.82    0.14 
  -7   2   9    0.82    0.09 
   6  -2  -9    1.29    0.13 
  -6   2   9    1.28    0.11 
   5  -2  -9    0.16    0.05 
   5  -2  -9    0.09    0.07 
  -5   2   9    0.05    0.05 
   4  -2  -9    6.23    0.23 
   4  -2  -9    6.21    0.24 
   4  -2  -9    5.99    0.27 
  -4   2   9    6.02    0.21 
  -4   2   9    5.58    0.32 
   3  -2  -9   13.59    0.42 
   3  -2  -9   13.48    0.43 
   3  -2  -9   13.32    0.46 
  -3   2   9   12.77    0.43 
  -3   2   9   13.14    0.46 
  -3   2   9   13.26    0.40 
   2  -2  -9    0.59    0.09 
   2  -2  -9    0.61    0.08 
   2  -2  -9    0.84    0.09 
  -2   2   9    0.78    0.07 
  -2   2   9    0.65    0.10 
  -2   2   9    0.72    0.07 
   1  -2  -9   11.67    0.40 
   1  -2  -9   11.15    0.38 
   1  -2  -9   11.31    0.36 
  -1   2   9   11.31    0.39 
  -1   2   9   11.35    0.36 
  -1   2   9   11.35    0.34 
  -1   2   9   11.93    0.40 
   0  -2  -9    6.22    0.23 
   0  -2  -9    5.86    0.25 
   0  -2  -9    6.24    0.24 
   0   2   9    5.95    0.19 
   0   2   9    6.02    0.26 
   0   2   9    6.02    0.22 
   0   2   9    5.88    0.21 
  -1  -2  -9    0.53    0.08 
  -1  -2  -9    0.78    0.10 
  -1  -2  -9    0.73    0.08 
   1   2   9    0.70    0.07 
   1   2   9    0.71    0.06 
   1   2   9    0.69    0.09 
   1   2   9    0.64    0.07 
  -2  -2  -9    0.15    0.04 
  -2  -2  -9    0.19    0.07 
  -2  -2  -9    0.09    0.07 
  -2  -2  -9    0.10    0.05 
   2   2   9    0.11    0.06 
   2   2   9    0.11    0.04 
  -3  -2  -9   16.44    0.55 
  -3  -2  -9   15.77    0.49 
  -3  -2  -9   16.69    0.54 
   3   2   9   16.17    0.46 
   3   2   9   17.07    0.53 
  -4  -2  -9    0.72    0.07 
  -4  -2  -9    0.91    0.13 
  -4  -2  -9    0.97    0.11 
   4   2   9    0.98    0.12 
  -5  -2  -9    0.27    0.06 
  -5  -2  -9    0.20    0.09 
   7  -3  -9    0.78    0.12 
  -7   3   9    0.62    0.07 
   6  -3  -9    2.25    0.18 
   6  -3  -9    1.63    0.14 
  -6   3   9    1.76    0.11 
   5  -3  -9    1.26    0.11 
   5  -3  -9    1.39    0.14 
  -5   3   9    1.22    0.09 
   4  -3  -9    0.72    0.09 
   4  -3  -9    0.68    0.09 
  -4   3   9    0.71    0.06 
   3  -3  -9    0.13    0.06 
   3  -3  -9    0.03    0.04 
   3  -3  -9    0.14    0.05 
  -3   3   9    0.10    0.03 
  -3   3   9    0.17    0.04 
  -3   3   9    0.12    0.07 
   2  -3  -9    0.04    0.06 
   2  -3  -9    0.05    0.05 
   2  -3  -9    0.07    0.04 
  -2   3   9    0.07    0.03 
  -2   3   9    0.07    0.02 
  -2   3   9    0.02    0.06 
   1  -3  -9    0.27    0.05 
   1  -3  -9    0.25    0.06 
   1  -3  -9    0.20    0.07 
  -1   3   9    0.17    0.06 
  -1   3   9    0.19    0.05 
   0  -3  -9    0.18    0.06 
   0  -3  -9    0.30    0.06 
   0  -3  -9    0.23    0.07 
   0   3   9    0.27    0.06 
   0   3   9    0.25    0.07 
  -1  -3  -9    0.65    0.08 
  -1  -3  -9    0.63    0.10 
  -1  -3  -9    0.77    0.10 
   1   3   9    0.83    0.08 
  -2  -3  -9    9.23    0.35 
  -2  -3  -9    9.02    0.37 
  -2  -3  -9    9.41    0.33 
   2   3   9    8.77    0.31 
  -3  -3  -9    8.49    0.29 
  -3  -3  -9    8.96    0.34 
  -3  -3  -9    8.92    0.36 
   3   3   9    8.66    0.33 
  -4  -3  -9    1.09    0.13 
  -4  -3  -9    1.38    0.16 
  -4  -3  -9    1.20    0.10 
  -5  -3  -9    0.08    0.08 
  -5  -3  -9    0.02    0.04 
  -5  -3  -9   -0.08    0.08 
   7  -4  -9    0.01    0.10 
   6  -4  -9    0.33    0.10 
   6  -4  -9    0.33    0.09 
   5  -4  -9    0.36    0.08 
   5  -4  -9    0.32    0.08 
   4  -4  -9    4.83    0.21 
   4  -4  -9    4.37    0.21 
   3  -4  -9    1.23    0.12 
   3  -4  -9    1.46    0.15 
   3  -4  -9    1.55    0.12 
   2  -4  -9    0.85    0.10 
   2  -4  -9    0.90    0.09 
   2  -4  -9    0.77    0.10 
  -2   4   9    0.86    0.08 
   1  -4  -9    3.20    0.19 
   1  -4  -9    3.12    0.17 
   1  -4  -9    3.05    0.15 
  -1   4   9    2.82    0.14 
   0  -4  -9    6.13    0.23 
   0  -4  -9    5.90    0.26 
   0  -4  -9    6.20    0.27 
   0   4   9    5.60    0.21 
  -1  -4  -9    1.20    0.12 
  -1  -4  -9    1.10    0.11 
  -1  -4  -9    1.04    0.14 
   1   4   9    1.09    0.10 
  -2  -4  -9    3.81    0.19 
  -2  -4  -9    3.34    0.20 
  -2  -4  -9    3.59    0.22 
  -3  -4  -9    1.13    0.12 
  -3  -4  -9    0.92    0.13 
  -4  -4  -9    0.99    0.14 
  -4  -4  -9    0.97    0.09 
  -4  -4  -9    0.75    0.11 
  -5  -4  -9    1.13    0.11 
  -5  -4  -9    0.83    0.12 
  -5  -4  -9    0.94    0.15 
   6  -5  -9    0.33    0.10 
   6  -5  -9    0.16    0.08 
   5  -5  -9    1.20    0.13 
   5  -5  -9    1.13    0.13 
   4  -5  -9    0.00    0.06 
   4  -5  -9    0.03    0.06 
   3  -5  -9    0.84    0.11 
   3  -5  -9    0.82    0.09 
   3  -5  -9    0.93    0.12 
   2  -5  -9    3.91    0.18 
   2  -5  -9    4.10    0.21 
   2  -5  -9    3.89    0.22 
  -2   5   9    3.52    0.20 
   1  -5  -9    5.84    0.23 
   1  -5  -9    6.01    0.26 
   1  -5  -9    5.89    0.27 
   0  -5  -9    0.25    0.07 
   0  -5  -9    0.11    0.06 
   0  -5  -9    0.14    0.07 
  -1  -5  -9    0.82    0.11 
  -1  -5  -9    0.65    0.09 
  -1  -5  -9    0.73    0.11 
   1   5   9    0.64    0.13 
  -2  -5  -9    2.67    0.17 
  -2  -5  -9    2.58    0.19 
   2   5   9    3.03    0.20 
  -3  -5  -9    0.42    0.10 
  -3  -5  -9    0.50    0.09 
  -4  -5  -9    0.58    0.12 
  -4  -5  -9    0.46    0.07 
  -4  -5  -9    0.49    0.11 
   6  -6  -9    0.00    0.08 
   6  -6  -9   -0.06    0.08 
   5  -6  -9    0.42    0.10 
   5  -6  -9    0.34    0.09 
   4  -6  -9    0.12    0.07 
   4  -6  -9   -0.03    0.06 
   3  -6  -9    0.66    0.11 
   3  -6  -9    0.44    0.08 
   2  -6  -9    5.28    0.22 
   2  -6  -9    4.94    0.26 
   2  -6  -9    5.49    0.26 
   1  -6  -9    0.09    0.06 
   1  -6  -9   -0.03    0.07 
   1  -6  -9    0.02    0.06 
  -1   6   9    0.08    0.12 
   0  -6  -9    0.54    0.08 
   0  -6  -9    0.35    0.09 
   0  -6  -9    0.59    0.10 
   0   6   9    0.54    0.14 
  -1  -6  -9    0.23    0.08 
  -1  -6  -9    0.15    0.07 
  -1  -6  -9    0.15    0.08 
   1   6   9    0.26    0.11 
  -2  -6  -9    0.42    0.09 
  -2  -6  -9    0.38    0.10 
   2   6   9    0.57    0.12 
  -3  -6  -9    0.83    0.11 
  -3  -6  -9    0.99    0.14 
  -4  -6  -9    1.36    0.11 
  -4  -6  -9    1.04    0.13 
   5  -7  -9    0.10    0.08 
   5  -7  -9   -0.03    0.08 
  -5   7   9   -0.32    0.15 
   4  -7  -9    0.16    0.08 
   4  -7  -9    0.22    0.07 
  -4   7   9   -0.15    0.14 
   3  -7  -9    2.30    0.15 
   3  -7  -9    2.37    0.19 
  -3   7   9    2.51    0.29 
   2  -7  -9   -0.05    0.05 
   2  -7  -9   -0.01    0.07 
   2  -7  -9    0.10    0.07 
  -2   7   9   -0.09    0.12 
   1  -7  -9    1.16    0.14 
   1  -7  -9    0.94    0.13 
   1  -7  -9    1.17    0.12 
  -1   7   9    1.23    0.20 
   0  -7  -9    0.21    0.09 
   0  -7  -9    0.36    0.09 
   0  -7  -9    0.32    0.07 
   0   7   9    0.44    0.14 
  -1  -7  -9    0.21    0.08 
  -1  -7  -9    0.08    0.07 
   1   7   9    0.26    0.12 
  -2  -7  -9    1.83    0.16 
  -2  -7  -9    1.89    0.17 
   2   7   9    2.21    0.21 
  -3  -7  -9    0.13    0.08 
   4  -8  -9   -0.05    0.07 
  -4   8   9   -0.07    0.15 
   3  -8  -9    3.12    0.19 
   3  -8  -9    3.04    0.22 
  -3   8   9    3.20    0.34 
   2  -8  -9    0.34    0.08 
   2  -8  -9    0.54    0.11 
  -2   8   9    0.66    0.18 
   1  -8  -9    1.30    0.13 
   1  -8  -9    1.61    0.16 
  -1   8   9    1.77    0.25 
   0  -8  -9   -0.03    0.06 
   0  -8  -9   -0.04    0.06 
   0   8   9    0.11    0.13 
  -1  -8  -9    1.95    0.20 
  -1  -8  -9    2.17    0.16 
  -2  -8  -9    0.01    0.07 
   3  -9  -9    0.82    0.11 
  -3   9   9    1.17    0.24 
   2  -9  -9    1.83    0.16 
  -2   9   9    2.96    0.33 
   1  -9  -9   -0.02    0.07 
  -1   9   9    0.33    0.16 
   0  -9  -9    0.34    0.08 
   0   9   9    0.88    0.20 
   2   9 -10    0.97    0.13 
  -2  -9  10    0.93    0.12 
   1   9 -10    0.01    0.08 
  -1  -9  10    0.17    0.08 
   0  -9  10    0.00    0.07 
   1  -9  10    0.10    0.08 
   4   8 -10    2.06    0.17 
   3   8 -10    0.95    0.12 
   2   8 -10    0.09    0.07 
   1   8 -10    1.20    0.13 
  -1  -8  10    1.31    0.14 
   0  -8  10    0.17    0.08 
   1  -8  10    1.58    0.16 
   2  -8  10    0.07    0.09 
   2  -8  10    0.09    0.09 
   3  -8  10   -0.01    0.09 
   5   7 -10    3.76    0.27 
   5   7 -10    3.39    0.22 
  -5  -7  10    4.17    0.27 
   4   7 -10    0.08    0.07 
   4   7 -10   -0.01    0.05 
   3   7 -10    0.04    0.06 
   3   7 -10    0.01    0.05 
   2   7 -10    0.61    0.09 
   2   7 -10    0.86    0.11 
   1   7 -10    0.07    0.06 
  -1  -7  10    0.09    0.06 
   0   7 -10   -0.14    0.06 
   0  -7  10    0.01    0.06 
   1  -7  10    1.83    0.16 
   2  -7  10    0.69    0.10 
   2  -7  10    0.68    0.12 
   2  -7  10    0.58    0.12 
   3  -7  10    0.03    0.08 
   5   6 -10    1.41    0.15 
   5   6 -10    1.26    0.14 
  -5  -6  10    1.40    0.19 
   4   6 -10    0.07    0.06 
   4   6 -10    0.01    0.06 
  -4  -6  10    0.00    0.07 
   3   6 -10    0.09    0.06 
   3   6 -10    0.05    0.06 
  -3  -6  10   -0.02    0.06 
   2   6 -10    2.73    0.16 
   2   6 -10    2.80    0.16 
   1   6 -10    0.86    0.10 
   1   6 -10    0.74    0.09 
   0   6 -10    0.16    0.06 
   0  -6  10    0.15    0.07 
   1  -6  10    2.39    0.18 
   1  -6  10    2.07    0.17 
   2  -6  10   -0.02    0.07 
   2  -6  10    0.05    0.07 
   2  -6  10   -0.01    0.08 
   3  -6  10    0.07    0.08 
   3  -6  10   -0.03    0.09 
   4  -6  10    0.41    0.08 
   4  -6  10    0.41    0.11 
   6   5 -10    0.19    0.09 
   6   5 -10    0.35    0.09 
   5   5 -10    0.29    0.08 
   5   5 -10    0.32    0.08 
  -5  -5  10    0.24    0.10 
   4   5 -10    0.01    0.05 
   4   5 -10    0.06    0.06 
  -4  -5  10    0.04    0.07 
   3   5 -10    2.17    0.15 
   3   5 -10    2.36    0.15 
  -3  -5  10    2.63    0.17 
   2   5 -10    1.43    0.11 
   2   5 -10    1.29    0.12 
  -2  -5  10    1.49    0.11 
  -2  -5  10    1.63    0.14 
   1   5 -10    1.03    0.10 
   1   5 -10    0.89    0.10 
  -1  -5  10    0.82    0.10 
   0   5 -10   -0.02    0.05 
   0   5 -10    0.03    0.06 
   0  -5  10    0.30    0.08 
   0  -5  10    0.13    0.07 
   1  -5  10    5.10    0.21 
   1  -5  10    4.99    0.24 
   1  -5  10    5.22    0.26 
   2  -5  10    1.01    0.09 
   2  -5  10    1.34    0.17 
   2  -5  10    1.35    0.13 
   2  -5  10    1.02    0.13 
   3  -5  10    0.26    0.07 
   3  -5  10    0.20    0.08 
   3  -5  10    0.24    0.10 
   4  -5  10    1.18    0.13 
   4  -5  10    0.98    0.10 
   5  -5  10    0.03    0.09 
   5  -5  10    0.01    0.07 
   6   4 -10    0.50    0.10 
   6   4 -10    0.57    0.11 
  -6  -4  10    0.64    0.08 
   5   4 -10    1.58    0.14 
   5   4 -10    1.48    0.14 
  -5  -4  10    1.67    0.18 
  -5  -4  10    1.29    0.10 
   4   4 -10    0.27    0.07 
   4   4 -10    0.19    0.06 
  -4  -4  10    0.14    0.08 
  -4  -4  10    0.18    0.04 
   3   4 -10    0.09    0.05 
   3   4 -10    0.09    0.05 
  -3  -4  10    0.07    0.07 
  -3  -4  10    0.08    0.03 
   2   4 -10    0.26    0.06 
   2   4 -10    0.27    0.06 
  -2  -4  10    0.23    0.03 
  -2  -4  10    0.18    0.05 
  -2  -4  10    0.19    0.07 
   1   4 -10   23.64    0.70 
   1   4 -10   22.96    0.70 
  -1  -4  10   22.46    0.65 
  -1  -4  10   24.60    0.72 
  -1  -4  10   22.87    0.70 
   0   4 -10   10.55    0.33 
   0   4 -10    9.73    0.33 
   0  -4  10    9.55    0.30 
   0  -4  10    9.86    0.38 
   0  -4  10   10.21    0.36 
  -1   4 -10    1.00    0.08 
   1  -4  10    0.83    0.07 
   1  -4  10    0.96    0.11 
   1  -4  10    0.77    0.10 
   1  -4  10    0.69    0.12 
   2  -4  10    0.16    0.08 
   2  -4  10    0.11    0.06 
   2  -4  10    0.10    0.07 
   2  -4  10    0.10    0.08 
   3  -4  10    4.13    0.24 
   3  -4  10    3.86    0.18 
   3  -4  10    3.82    0.21 
   4  -4  10    0.80    0.09 
   4  -4  10    0.76    0.11 
   5  -4  10    0.84    0.11 
   5  -4  10    1.15    0.14 
   7   3 -10    0.05    0.08 
   7   3 -10    0.03    0.09 
  -7  -3  10    0.00    0.06 
   6   3 -10    0.64    0.10 
   6   3 -10    0.62    0.10 
  -6  -3  10    0.71    0.08 
   5   3 -10   -0.03    0.05 
   5   3 -10    0.00    0.05 
  -5  -3  10   -0.06    0.09 
  -5  -3  10   -0.06    0.04 
   4   3 -10    0.64    0.10 
   4   3 -10    0.48    0.08 
  -4  -3  10    0.44    0.05 
  -4  -3  10    0.47    0.09 
   3   3 -10   18.96    0.58 
   3   3 -10   17.93    0.57 
  -3  -3  10   16.82    0.52 
  -3  -3  10   18.17    0.52 
  -3  -3  10   18.97    0.59 
   2   3 -10    3.30    0.16 
   2   3 -10    3.59    0.17 
  -2  -3  10    3.54    0.15 
  -2  -3  10    3.69    0.19 
  -2  -3  10    3.25    0.13 
   1   3 -10    2.86    0.14 
   1   3 -10    2.87    0.14 
  -1  -3  10    2.95    0.15 
  -1  -3  10    2.67    0.11 
  -1  -3  10    3.06    0.18 
   0   3 -10   12.43    0.39 
   0   3 -10   12.23    0.39 
   0  -3  10   12.80    0.44 
   0  -3  10   12.19    0.37 
   0  -3  10   12.47    0.42 
  -1   3 -10    1.60    0.09 
   1  -3  10    1.55    0.11 
   1  -3  10    1.88    0.13 
   1  -3  10    2.11    0.15 
   1  -3  10    1.76    0.18 
   2  -3  10    5.62    0.21 
   2  -3  10    5.54    0.24 
   2  -3  10    5.44    0.26 
   2  -3  10    5.40    0.28 
   3  -3  10    0.16    0.09 
   3  -3  10    0.18    0.06 
   3  -3  10    0.04    0.08 
   4  -3  10    0.22    0.09 
   4  -3  10    0.15    0.07 
   5  -3  10    0.06    0.09 
   5  -3  10    0.15    0.07 
   7   2 -10    1.57    0.16 
  -7  -2  10    1.81    0.13 
   6   2 -10    0.80    0.11 
  -6  -2  10    0.88    0.09 
   5   2 -10    0.44    0.08 
  -5  -2  10    0.35    0.06 
  -4  -2  10    6.18    0.28 
  -4  -2  10    6.32    0.22 
   3   2 -10    0.00    0.03 
  -3  -2  10   -0.06    0.04 
  -3  -2  10   -0.11    0.06 
  -3  -2  10   -0.03    0.03 
   2   2 -10   10.22    0.34 
  -2  -2  10   10.37    0.31 
  -2  -2  10    9.82    0.33 
  -2  -2  10   10.41    0.37 
   1   2 -10   11.75    0.38 
  -1  -2  10   11.52    0.39 
  -1  -2  10   11.90    0.36 
  -1  -2  10   12.54    0.42 
   0   2 -10    2.28    0.12 
   0   2 -10    2.55    0.11 
   0   2 -10    2.21    0.12 
   0  -2  10    2.10    0.18 
   0  -2  10    2.62    0.14 
   0  -2  10    2.34    0.12 
   0  -2  10    2.60    0.15 
  -1   2 -10    1.01    0.07 
  -1   2 -10    1.08    0.08 
   1  -2  10    0.91    0.11 
   1  -2  10    0.95    0.10 
   1  -2  10    0.96    0.09 
   1  -2  10    1.01    0.10 
  -2   2 -10    1.53    0.11 
   2  -2  10    1.51    0.14 
   2  -2  10    1.58    0.12 
   2  -2  10    1.59    0.15 
   2  -2  10    1.30    0.17 
  -3   2 -10    1.22    0.11 
   3  -2  10    1.51    0.16 
   3  -2  10    1.28    0.11 
   3  -2  10    1.41    0.14 
   4  -2  10    2.17    0.17 
   4  -2  10    1.94    0.13 
   5  -2  10    0.18    0.09 
   5  -2  10    0.31    0.07 
   7   1 -10    0.04    0.07 
  -7  -1  10    0.10    0.06 
  -6  -1  10    0.16    0.06 
  -5  -1  10    0.76    0.08 
   4   1 -10    2.62    0.11 
   4   1 -10    2.67    0.14 
  -4  -1  10    2.82    0.13 
  -4  -1  10    2.57    0.19 
   3   1 -10    5.28    0.19 
   3   1 -10    5.27    0.20 
  -3  -1  10    5.61    0.19 
  -3  -1  10    4.82    0.19 
  -3  -1  10    5.41    0.25 
   2   1 -10    0.23    0.05 
   2   1 -10    0.18    0.05 
  -2  -1  10    0.12    0.04 
  -2  -1  10    0.18    0.05 
  -2  -1  10    0.09    0.07 
   1   1 -10    0.94    0.09 
   1   1 -10    0.94    0.08 
  -1  -1  10    0.98    0.13 
  -1  -1  10    0.84    0.08 
  -1  -1  10    0.91    0.08 
   0   1 -10    4.62    0.20 
   0   1 -10    4.16    0.17 
   0  -1  10    4.67    0.20 
   0  -1  10    4.66    0.23 
   0  -1  10    4.57    0.19 
   0  -1  10    4.25    0.17 
  -1   1 -10    0.98    0.09 
  -1   1 -10    0.96    0.10 
   1  -1  10    0.99    0.11 
   1  -1  10    0.87    0.08 
   1  -1  10    0.87    0.11 
   1  -1  10    0.87    0.09 
  -2   1 -10    2.32    0.09 
  -2   1 -10    2.44    0.13 
   2  -1  10    2.37    0.15 
   2  -1  10    2.29    0.18 
   2  -1  10    2.26    0.13 
   2  -1  10    2.51    0.17 
  -3   1 -10    0.35    0.04 
  -3   1 -10    0.31    0.06 
   3  -1  10    0.38    0.08 
   3  -1  10    0.35    0.06 
  -4   1 -10    0.09    0.06 
  -4   1 -10    0.04    0.03 
   4  -1  10    0.00    0.06 
   4  -1  10    0.14    0.08 
  -5   1 -10   -0.03    0.03 
   5  -1  10    0.01    0.06 
   5  -1  10   -0.03    0.08 
  -7   0  10    0.06    0.06 
  -6   0  10    0.21    0.06 
   5   0 -10    2.30    0.14 
  -5   0  10    2.21    0.13 
   4   0 -10    2.78    0.12 
   4   0 -10    2.76    0.14 
  -4   0  10    2.85    0.14 
  -4   0  10    2.43    0.20 
   3   0 -10    2.05    0.11 
   3   0 -10    1.84    0.16 
   3   0 -10    2.02    0.07 
   3   0 -10    2.12    0.12 
  -3   0  10    2.01    0.16 
  -3   0  10    1.79    0.10 
  -3   0  10    1.94    0.11 
   2   0 -10    1.45    0.12 
   2   0 -10    1.48    0.10 
   2   0 -10    1.47    0.10 
   2   0 -10    1.33    0.06 
  -2   0  10    1.33    0.09 
  -2   0  10    1.11    0.09 
  -2   0  10    1.44    0.14 
   1   0 -10    7.18    0.25 
   1   0 -10    7.29    0.27 
   1   0 -10    7.20    0.28 
   1   0 -10    7.20    0.23 
   1   0 -10    7.40    0.22 
  -1   0  10    7.02    0.26 
  -1   0  10    7.46    0.24 
  -1   0  10    7.61    0.30 
   0   0 -10    1.56    0.11 
   0   0 -10    1.66    0.14 
   0   0 -10    1.91    0.08 
   0   0 -10    1.78    0.12 
   0   0  10    1.70    0.15 
   0   0  10    1.75    0.11 
   0   0  10    1.69    0.12 
   0   0  10    1.74    0.12 
  -1   0 -10    0.14    0.05 
  -1   0 -10    0.24    0.07 
  -1   0 -10    0.20    0.07 
  -1   0 -10    0.26    0.03 
   1   0  10    0.21    0.06 
   1   0  10    0.21    0.06 
   1   0  10    0.20    0.07 
   1   0  10    0.25    0.06 
  -2   0 -10    0.04    0.08 
  -2   0 -10    0.09    0.06 
  -2   0 -10    0.15    0.03 
  -2   0 -10    0.18    0.07 
   2   0  10    0.15    0.06 
   2   0  10   -0.01    0.08 
   2   0  10    0.04    0.06 
   2   0  10    0.10    0.07 
  -3   0 -10    0.40    0.08 
  -3   0 -10    0.28    0.04 
   3   0  10    0.22    0.06 
   3   0  10    0.29    0.08 
  -4   0 -10    1.48    0.09 
  -4   0 -10    1.50    0.14 
   4   0  10    1.60    0.11 
   4   0  10    1.80    0.16 
  -5   0 -10    1.95    0.10 
  -5   0 -10    1.93    0.17 
   5   0  10    2.02    0.12 
   5   0  10    2.09    0.18 
  -7   1  10    0.22    0.07 
   6  -1 -10    1.64    0.15 
  -6   1  10    1.24    0.12 
   5  -1 -10    0.48    0.06 
   5  -1 -10    0.58    0.09 
  -5   1  10    0.40    0.07 
   4  -1 -10    0.10    0.06 
   4  -1 -10    0.25    0.05 
   4  -1 -10    0.17    0.08 
  -4   1  10    0.13    0.06 
   3  -1 -10    0.64    0.07 
   3  -1 -10    0.56    0.07 
   3  -1 -10    0.60    0.09 
  -3   1  10    0.63    0.07 
  -3   1  10    0.61    0.10 
  -3   1  10    0.62    0.07 
   2  -1 -10    0.25    0.06 
   2  -1 -10    0.19    0.05 
   2  -1 -10    0.14    0.07 
  -2   1  10    0.19    0.05 
  -2   1  10   -0.03    0.05 
   1  -1 -10    0.08    0.04 
   1  -1 -10   -0.06    0.04 
   1  -1 -10   -0.05    0.05 
  -1   1  10    0.03    0.06 
  -1   1  10    0.02    0.05 
   0  -1 -10    1.44    0.11 
   0  -1 -10    1.20    0.13 
   0  -1 -10    1.44    0.10 
   0   1  10    1.38    0.09 
   0   1  10    1.44    0.11 
   0   1  10    1.41    0.11 
   0   1  10    1.36    0.14 
  -1  -1 -10    0.67    0.09 
  -1  -1 -10    0.59    0.09 
  -1  -1 -10    0.68    0.08 
  -1  -1 -10    0.73    0.06 
   1   1  10    0.64    0.08 
   1   1  10    0.63    0.10 
   1   1  10    0.60    0.06 
   1   1  10    0.63    0.08 
  -2  -1 -10    6.60    0.32 
  -2  -1 -10    6.96    0.23 
  -2  -1 -10    7.30    0.27 
  -2  -1 -10    7.11    0.29 
   2   1  10    7.23    0.24 
   2   1  10    7.14    0.28 
   2   1  10    7.10    0.27 
  -3  -1 -10    1.76    0.16 
  -3  -1 -10    1.92    0.14 
  -3  -1 -10    1.79    0.10 
   3   1  10    1.72    0.10 
   3   1  10    1.90    0.15 
  -4  -1 -10    0.32    0.05 
  -4  -1 -10    0.18    0.08 
   4   1  10    0.36    0.09 
   4   1  10    0.28    0.05 
  -5  -1 -10    0.16    0.05 
  -5  -1 -10    0.06    0.08 
   5   1  10    0.18    0.04 
  -7   2  10    0.72    0.08 
   6  -2 -10    0.03    0.08 
  -6   2  10    0.02    0.06 
   5  -2 -10    0.05    0.05 
   5  -2 -10   -0.06    0.06 
  -5   2  10   -0.04    0.05 
   4  -2 -10    0.19    0.06 
   4  -2 -10    0.10    0.06 
  -4   2  10    0.14    0.06 
   3  -2 -10    0.24    0.07 
   3  -2 -10    0.29    0.06 
   3  -2 -10    0.29    0.06 
  -3   2  10    0.29    0.05 
  -3   2  10    0.27    0.08 
  -3   2  10    0.37    0.06 
   2  -2 -10    2.65    0.14 
   2  -2 -10    2.88    0.18 
   2  -2 -10    2.83    0.14 
  -2   2  10    2.77    0.13 
  -2   2  10    2.56    0.18 
   1  -2 -10   10.23    0.35 
   1  -2 -10   10.63    0.36 
   1  -2 -10   10.35    0.38 
  -1   2  10   10.64    0.39 
  -1   2  10   10.26    0.34 
  -1   2  10   10.34    0.32 
   0  -2 -10    0.64    0.08 
   0  -2 -10    0.74    0.10 
   0  -2 -10    0.52    0.09 
   0   2  10    0.70    0.07 
   0   2  10    0.52    0.06 
   0   2  10    0.54    0.08 
   0   2  10    0.52    0.09 
  -1  -2 -10    0.00    0.05 
  -1  -2 -10    0.06    0.06 
  -1  -2 -10   -0.02    0.05 
   1   2  10    0.03    0.04 
   1   2  10    0.03    0.05 
   1   2  10    0.00    0.06 
   1   2  10   -0.01    0.05 
  -2  -2 -10    6.53    0.23 
  -2  -2 -10    6.85    0.29 
  -2  -2 -10    7.01    0.27 
   2   2  10    7.20    0.26 
   2   2  10    6.59    0.21 
  -3  -2 -10    8.66    0.35 
  -3  -2 -10    8.53    0.33 
  -3  -2 -10    8.11    0.28 
   3   2  10    8.45    0.25 
   3   2  10    8.31    0.32 
  -4  -2 -10    0.54    0.10 
  -4  -2 -10    0.69    0.12 
  -4  -2 -10    0.50    0.06 
  -5  -2 -10    0.51    0.07 
  -5  -2 -10    0.54    0.11 
   7  -3 -10    0.76    0.13 
  -7   3  10    0.64    0.07 
   6  -3 -10    0.43    0.10 
  -6   3  10    0.36    0.06 
   5  -3 -10    1.18    0.11 
   5  -3 -10    1.04    0.12 
  -5   3  10    0.94    0.09 
   4  -3 -10    0.03    0.06 
   4  -3 -10   -0.04    0.05 
  -4   3  10    0.01    0.04 
   3  -3 -10    2.22    0.17 
   3  -3 -10    2.22    0.14 
   3  -3 -10    2.22    0.14 
  -3   3  10    2.14    0.10 
  -3   3  10    1.50    0.23 
   2  -3 -10    3.90    0.19 
   2  -3 -10    4.08    0.18 
  -2   3  10    3.91    0.13 
  -2   3  10    3.64    0.20 
   1  -3 -10    1.82    0.12 
   1  -3 -10    1.63    0.15 
   1  -3 -10    1.92    0.13 
  -1   3  10    1.79    0.07 
  -1   3  10    1.77    0.15 
  -1   3  10    1.61    0.12 
   0  -3 -10   10.53    0.35 
   0  -3 -10   10.06    0.38 
   0  -3 -10   10.58    0.37 
   0   3  10   10.46    0.34 
   0   3  10    9.09    0.42 
  -1  -3 -10    4.91    0.25 
  -1  -3 -10    5.22    0.22 
  -1  -3 -10    4.84    0.23 
   1   3  10    4.94    0.20 
  -2  -3 -10    2.25    0.16 
  -2  -3 -10    1.93    0.16 
   2   3  10    2.10    0.14 
  -3  -3 -10    7.03    0.29 
  -3  -3 -10    6.48    0.23 
  -3  -3 -10    6.28    0.30 
  -4  -3 -10    0.66    0.11 
  -4  -3 -10    0.65    0.07 
  -4  -3 -10    0.66    0.12 
  -5  -3 -10    0.49    0.11 
  -5  -3 -10    0.52    0.07 
   6  -4 -10    0.49    0.10 
   6  -4 -10    0.55    0.11 
   5  -4 -10    0.11    0.08 
   5  -4 -10    0.08    0.07 
   4  -4 -10    5.60    0.26 
   4  -4 -10    6.53    0.26 
   3  -4 -10    9.71    0.35 
   3  -4 -10   10.37    0.38 
   2  -4 -10    0.25    0.08 
   2  -4 -10    0.24    0.06 
   2  -4 -10    0.32    0.08 
  -2   4  10    0.31    0.06 
   1  -4 -10    1.43    0.13 
   1  -4 -10    1.19    0.15 
   1  -4 -10    1.31    0.11 
  -1   4  10    1.18    0.11 
   0  -4 -10   -0.01    0.05 
   0  -4 -10   -0.03    0.05 
   0  -4 -10   -0.02    0.06 
   0   4  10    0.00    0.05 
  -1  -4 -10    1.52    0.13 
  -1  -4 -10    1.66    0.17 
  -1  -4 -10    1.56    0.14 
   1   4  10    1.52    0.12 
  -2  -4 -10    7.10    0.31 
  -2  -4 -10    7.03    0.29 
  -3  -4 -10    5.46    0.21 
  -3  -4 -10    5.42    0.28 
  -3  -4 -10    5.71    0.26 
  -4  -4 -10   -0.03    0.04 
  -4  -4 -10    0.00    0.07 
  -4  -4 -10   -0.17    0.07 
   6  -5 -10    1.76    0.17 
   6  -5 -10    1.99    0.19 
   5  -5 -10    0.12    0.08 
   5  -5 -10    0.12    0.08 
   4  -5 -10    0.45    0.09 
   4  -5 -10    0.43    0.09 
   3  -5 -10    1.09    0.13 
   3  -5 -10    1.48    0.12 
   2  -5 -10    4.67    0.23 
   2  -5 -10    4.32    0.24 
   2  -5 -10    4.50    0.20 
   1  -5 -10    0.89    0.09 
   1  -5 -10    1.00    0.12 
   1  -5 -10    0.66    0.11 
   0  -5 -10    4.23    0.22 
   0  -5 -10    4.38    0.20 
   0  -5 -10    3.99    0.23 
  -1  -5 -10    2.73    0.17 
  -1  -5 -10    2.81    0.19 
   1   5  10    2.99    0.23 
  -2  -5 -10    0.82    0.12 
  -2  -5 -10    0.86    0.11 
  -3  -5 -10    0.95    0.12 
  -3  -5 -10    1.01    0.14 
  -4  -5 -10   -0.03    0.04 
  -4  -5 -10   -0.17    0.08 
   6  -6 -10    0.01    0.08 
   6  -6 -10    0.12    0.09 
   5  -6 -10    1.03    0.14 
   5  -6 -10    1.10    0.13 
   4  -6 -10    0.18    0.07 
   4  -6 -10    0.24    0.09 
   3  -6 -10    0.56    0.09 
   3  -6 -10    0.58    0.11 
   2  -6 -10    0.05    0.07 
   2  -6 -10    0.05    0.06 
   1  -6 -10    0.08    0.06 
   1  -6 -10    0.13    0.07 
   1  -6 -10    0.07    0.11 
   0  -6 -10    0.32    0.07 
   0  -6 -10    0.34    0.09 
   0   6  10    0.27    0.13 
  -1  -6 -10    0.08    0.07 
  -1  -6 -10    0.17    0.08 
   1   6  10    0.14    0.11 
  -2  -6 -10   -0.04    0.06 
  -2  -6 -10    0.10    0.07 
   2   6  10    0.11    0.10 
  -3  -6 -10    0.64    0.15 
  -3  -6 -10    0.63    0.11 
   5  -7 -10    0.11    0.09 
   5  -7 -10    0.05    0.08 
   4  -7 -10    0.11    0.08 
   4  -7 -10    0.05    0.07 
   3  -7 -10    0.07    0.06 
   3  -7 -10    0.09    0.08 
  -3   7  10   -0.24    0.13 
   2  -7 -10    0.09    0.08 
   2  -7 -10    0.16    0.07 
  -2   7  10   -0.04    0.13 
   1  -7 -10    0.05    0.07 
   1  -7 -10    0.07    0.06 
  -1   7  10   -0.04    0.13 
   0  -7 -10    0.14    0.07 
   0  -7 -10    0.16    0.07 
   0   7  10    0.11    0.13 
  -1  -7 -10   -0.06    0.06 
  -1  -7 -10    0.01    0.07 
   1   7  10    0.17    0.11 
  -2  -7 -10    0.07    0.08 
   4  -8 -10    0.29    0.09 
  -4   8  10    0.23    0.21 
   3  -8 -10    0.07    0.07 
  -3   8  10    0.06    0.17 
   2  -8 -10    0.01    0.06 
  -2   8  10    0.05    0.16 
   1  -8 -10    0.14    0.07 
  -1   8  10    0.30    0.16 
   0  -8 -10    0.15    0.08 
   0   8  10    0.37    0.15 
  -1  -8 -10    0.13    0.08 
   1   8  10    0.39    0.14 
   2  -9 -10    0.04    0.07 
  -2   9  10    0.19    0.16 
   1  -9 -10    0.37    0.09 
  -1   9  10    0.80    0.20 
  -2  -9  11    0.32    0.08 
   1   9 -11   -0.17    0.07 
  -1  -9  11    0.08    0.07 
   0  -9  11    0.05    0.07 
   3   8 -11    1.73    0.16 
   2   8 -11    1.79    0.16 
   1   8 -11    0.12    0.07 
  -1  -8  11    0.19    0.08 
   0  -8  11    0.38    0.09 
   1  -8  11    0.38    0.10 
   2  -8  11   -0.01    0.09 
   4   7 -11   -0.02    0.06 
   4   7 -11   -0.03    0.06 
   3   7 -11    2.20    0.17 
   3   7 -11    2.36    0.17 
   2   7 -11   -0.07    0.05 
   2   7 -11    0.07    0.06 
   1   7 -11    2.67    0.17 
  -1  -7  11    2.21    0.17 
   0   7 -11    1.23    0.14 
   0  -7  11    1.11    0.13 
   0  -7  11    1.37    0.16 
   1  -7  11    0.02    0.07 
   1  -7  11    0.11    0.09 
   2  -7  11    0.22    0.09 
   2  -7  11    0.19    0.11 
   2  -7  11    0.22    0.10 
   3  -7  11    0.29    0.10 
   5   6 -11    0.10    0.07 
   5   6 -11   -0.01    0.07 
  -5  -6  11    0.19    0.12 
   4   6 -11    1.61    0.15 
   4   6 -11    1.70    0.15 
  -4  -6  11    1.60    0.18 
   3   6 -11    2.31    0.16 
   3   6 -11    2.45    0.17 
  -3  -6  11    2.42    0.18 
   2   6 -11    0.13    0.06 
   2   6 -11    0.05    0.05 
  -2  -6  11    0.05    0.07 
   1   6 -11    1.67    0.13 
   1   6 -11    1.47    0.12 
  -1  -6  11    1.66    0.16 
   0   6 -11    0.37    0.08 
   0  -6  11    0.34    0.09 
   0  -6  11    0.48    0.09 
   1  -6  11    0.00    0.07 
   1  -6  11   -0.03    0.06 
   1  -6  11   -0.02    0.08 
   2  -6  11   -0.05    0.09 
   2  -6  11   -0.16    0.07 
   2  -6  11   -0.03    0.08 
   3  -6  11    2.98    0.19 
   3  -6  11    3.02    0.22 
   3  -6  11    3.25    0.20 
   4  -6  11    0.31    0.08 
   4  -6  11    0.41    0.11 
   6   5 -11    0.58    0.12 
   6   5 -11    0.40    0.10 
   5   5 -11    0.01    0.06 
   5   5 -11    0.03    0.06 
   4   5 -11    2.74    0.18 
   4   5 -11    3.28    0.19 
  -4  -5  11    3.15    0.22 
   3   5 -11   -0.09    0.04 
   3   5 -11   -0.01    0.04 
  -3  -5  11   -0.06    0.06 
   2   5 -11    0.75    0.10 
   2   5 -11    0.66    0.09 
  -2  -5  11    0.71    0.10 
   1   5 -11    0.64    0.08 
   1   5 -11    0.59    0.08 
  -1  -5  11    0.49    0.09 
   0   5 -11    2.44    0.14 
   0   5 -11    2.17    0.13 
   0  -5  11    2.42    0.18 
   0  -5  11    2.08    0.16 
   1  -5  11    0.50    0.09 
   1  -5  11    0.53    0.10 
   1  -5  11    0.61    0.09 
   1  -5  11    0.43    0.07 
   2  -5  11    0.04    0.08 
   2  -5  11   -0.04    0.08 
   2  -5  11    0.06    0.05 
   2  -5  11    0.03    0.07 
   3  -5  11    0.77    0.11 
   3  -5  11    0.79    0.09 
   3  -5  11    0.77    0.13 
   4  -5  11    0.82    0.10 
   4  -5  11    0.87    0.13 
   6   4 -11    0.86    0.13 
   6   4 -11    0.63    0.11 
  -6  -4  11    0.59    0.08 
   5   4 -11    1.37    0.14 
   5   4 -11    1.47    0.14 
  -5  -4  11    1.45    0.10 
   4   4 -11    0.80    0.11 
   4   4 -11    0.88    0.12 
  -4  -4  11    0.73    0.07 
  -4  -4  11    0.62    0.11 
   3   4 -11    0.06    0.05 
   3   4 -11    0.09    0.05 
  -3  -4  11    0.01    0.03 
  -3  -4  11    0.10    0.07 
   2   4 -11    0.02    0.04 
   2   4 -11   -0.02    0.05 
  -2  -4  11   -0.02    0.03 
  -2  -4  11    0.00    0.06 
  -2  -4  11    0.00    0.04 
   1   4 -11    0.06    0.05 
   1   4 -11    0.11    0.06 
  -1  -4  11    0.14    0.08 
  -1  -4  11    0.16    0.04 
   0   4 -11   17.05    0.54 
   0   4 -11   17.63    0.54 
   0  -4  11   17.12    0.51 
   0  -4  11   18.22    0.58 
   0  -4  11   17.47    0.53 
   0  -4  11   17.55    0.57 
  -1   4 -11    0.76    0.08 
   1  -4  11    0.82    0.10 
   1  -4  11    0.63    0.11 
   1  -4  11    0.71    0.07 
   1  -4  11    0.74    0.10 
   2  -4  11    3.28    0.21 
   2  -4  11    3.35    0.16 
   2  -4  11    3.40    0.19 
   2  -4  11    3.76    0.24 
   3  -4  11    0.16    0.10 
   3  -4  11    0.02    0.07 
   3  -4  11    0.15    0.08 
   4  -4  11    0.09    0.07 
   4  -4  11    0.17    0.09 
   6   3 -11   -0.05    0.06 
   6   3 -11    0.00    0.06 
  -6  -3  11   -0.04    0.05 
   5   3 -11    0.84    0.11 
   5   3 -11    1.26    0.13 
  -5  -3  11    1.14    0.10 
   4   3 -11    0.21    0.06 
   4   3 -11    0.24    0.06 
  -4  -3  11    0.29    0.05 
  -4  -3  11    0.30    0.08 
   3   3 -11    5.36    0.23 
   3   3 -11    5.69    0.24 
  -3  -3  11    5.34    0.19 
  -3  -3  11    5.60    0.26 
   2   3 -11    2.80    0.15 
   2   3 -11    2.73    0.15 
  -2  -3  11    2.55    0.12 
  -2  -3  11    2.76    0.13 
  -2  -3  11    2.30    0.19 
   1   3 -11   47.08    1.32 
   1   3 -11   44.19    1.32 
  -1  -3  11   46.35    1.28 
  -1  -3  11   47.93    1.35 
   0   3 -11    6.84    0.23 
   0   3 -11    6.07    0.23 
   0  -3  11    6.92    0.27 
   0  -3  11    4.95    0.30 
   0  -3  11    6.62    0.24 
   0  -3  11    4.99    0.21 
  -1   3 -11    2.78    0.13 
   1  -3  11    2.58    0.14 
   1  -3  11    2.42    0.21 
   1  -3  11    2.70    0.17 
   1  -3  11    2.84    0.18 
   2  -3  11    6.09    0.28 
   2  -3  11    6.08    0.35 
   2  -3  11    6.14    0.23 
   2  -3  11    6.14    0.26 
   3  -3  11    0.12    0.06 
   3  -3  11    0.01    0.09 
   3  -3  11    0.03    0.08 
   4  -3  11    0.42    0.08 
   4  -3  11    0.32    0.10 
   5  -3  11    0.39    0.08 
   5  -3  11    0.30    0.10 
   7   2 -11    0.66    0.12 
  -7  -2  11    0.60    0.09 
   6   2 -11    0.01    0.06 
  -6  -2  11    0.01    0.06 
  -5  -2  11    0.08    0.05 
  -4  -2  11    2.21    0.19 
  -4  -2  11    2.27    0.12 
  -3  -2  11    1.45    0.10 
  -3  -2  11    1.50    0.16 
  -3  -2  11    1.11    0.09 
   2   2 -11    0.92    0.10 
  -2  -2  11    1.06    0.14 
  -2  -2  11    0.94    0.09 
  -2  -2  11    1.05    0.09 
   1   2 -11    0.12    0.04 
  -1  -2  11    0.12    0.08 
  -1  -2  11    0.18    0.06 
  -1  -2  11    0.11    0.05 
   0   2 -11    1.39    0.09 
   0   2 -11    1.31    0.09 
   0   2 -11    1.36    0.09 
   0  -2  11    1.44    0.13 
   0  -2  11    1.36    0.16 
   0  -2  11    1.22    0.10 
   0  -2  11    1.37    0.12 
  -1   2 -11    6.21    0.22 
  -1   2 -11    6.13    0.23 
   1  -2  11    6.52    0.23 
   1  -2  11    6.32    0.27 
   1  -2  11    6.55    0.30 
   1  -2  11    6.67    0.26 
  -2   2 -11    4.78    0.20 
   2  -2  11    5.05    0.23 
   2  -2  11    4.77    0.20 
   2  -2  11    4.93    0.24 
   3  -2  11    0.33    0.07 
   3  -2  11    0.26    0.09 
   3  -2  11    0.19    0.10 
   4  -2  11    0.12    0.07 
   4  -2  11    0.15    0.09 
   5  -2  11    2.11    0.20 
   5  -2  11    2.01    0.15 
   7   1 -11    0.09    0.08 
  -7  -1  11    0.24    0.07 
  -6  -1  11    0.18    0.06 
  -5  -1  11    0.90    0.09 
   4   1 -11    2.81    0.14 
   4   1 -11    2.61    0.11 
  -4  -1  11    2.66    0.29 
  -4  -1  11    2.87    0.14 
   3   1 -11    2.91    0.14 
   3   1 -11    3.02    0.14 
  -3  -1  11    3.06    0.14 
  -3  -1  11    2.77    0.13 
  -3  -1  11    3.07    0.20 
   2   1 -11    4.66    0.19 
   2   1 -11    4.71    0.19 
  -2  -1  11    5.01    0.19 
  -2  -1  11    4.60    0.19 
  -2  -1  11    4.94    0.24 
   1   1 -11    6.29    0.23 
   1   1 -11    6.23    0.22 
   1   1 -11    6.15    0.24 
  -1  -1  11    6.49    0.28 
  -1  -1  11    6.54    0.23 
   0   1 -11    0.12    0.06 
   0   1 -11    0.08    0.05 
   0  -1  11    0.06    0.08 
   0  -1  11    0.03    0.06 
   0  -1  11    0.12    0.07 
   0  -1  11    0.26    0.07 
  -1   1 -11    3.60    0.19 
  -1   1 -11    3.37    0.16 
   1  -1  11    3.53    0.19 
   1  -1  11    3.63    0.22 
   1  -1  11    3.57    0.18 
   1  -1  11    3.47    0.16 
  -2   1 -11    2.58    0.15 
   2  -1  11    2.64    0.18 
   2  -1  11    2.89    0.17 
   2  -1  11    2.34    0.13 
  -3   1 -11    0.90    0.05 
  -3   1 -11    1.11    0.11 
   3  -1  11    0.82    0.09 
   3  -1  11    0.86    0.12 
   4  -1  11    1.27    0.12 
   4  -1  11    1.60    0.16 
   5  -1  11   -0.04    0.06 
   5  -1  11    0.00    0.09 
  -7   0  11    0.59    0.09 
  -6   0  11    0.46    0.08 
   5   0 -11    3.49    0.19 
  -5   0  11    3.21    0.16 
   4   0 -11    0.47    0.06 
   4   0 -11    0.59    0.08 
  -4   0  11    0.45    0.07 
   3   0 -11    0.26    0.06 
   3   0 -11    0.27    0.05 
   3   0 -11    0.23    0.03 
  -3   0  11    0.18    0.06 
  -3   0  11    0.33    0.06 
  -3   0  11    0.21    0.08 
   2   0 -11    8.64    0.26 
   2   0 -11    8.78    0.31 
   2   0 -11    8.48    0.26 
   2   0 -11    8.80    0.35 
   2   0 -11    9.15    0.30 
  -2   0  11    8.63    0.31 
  -2   0  11    8.72    0.29 
  -2   0  11    8.82    0.35 
   1   0 -11    0.91    0.12 
   1   0 -11    1.09    0.06 
   1   0 -11    0.87    0.09 
   1   0 -11    0.95    0.05 
   1   0 -11    1.04    0.10 
  -1   0  11    1.18    0.15 
  -1   0  11    0.98    0.09 
   0   0 -11    2.22    0.09 
   0   0 -11    2.14    0.14 
   0   0 -11    2.03    0.16 
   0   0 -11    2.07    0.13 
   0   0  11    2.01    0.17 
   0   0  11    1.95    0.12 
   0   0  11    2.07    0.14 
   0   0  11    2.24    0.14 
  -1   0 -11    6.36    0.20 
  -1   0 -11    6.19    0.28 
  -1   0 -11    6.29    0.27 
  -1   0 -11    6.19    0.24 
   1   0  11    6.23    0.25 
   1   0  11    6.09    0.29 
   1   0  11    6.41    0.25 
   1   0  11    6.24    0.23 
  -2   0 -11    0.05    0.07 
  -2   0 -11    0.02    0.05 
  -2   0 -11    0.08    0.03 
   2   0  11    0.14    0.05 
   2   0  11    0.07    0.08 
   2   0  11    0.01    0.07 
  -3   0 -11    0.83    0.10 
  -3   0 -11    0.79    0.07 
   3   0  11    0.81    0.08 
   3   0  11    0.83    0.11 
  -4   0 -11    0.04    0.03 
  -4   0 -11   -0.06    0.06 
   4   0  11    0.01    0.08 
   4   0  11   -0.09    0.05 
  -5   0 -11   -0.01    0.04 
   5   0  11    0.15    0.12 
   5   0  11    0.08    0.05 
  -7   1  11    0.16    0.08 
  -6   1  11    3.66    0.18 
   5  -1 -11    0.02    0.06 
   5  -1 -11    0.03    0.04 
  -5   1  11    0.00    0.06 
   4  -1 -11    3.00    0.15 
   4  -1 -11    3.11    0.17 
  -4   1  11    3.00    0.15 
   3  -1 -11    1.20    0.14 
   3  -1 -11    1.13    0.11 
   3  -1 -11    1.20    0.10 
  -3   1  11    1.13    0.09 
  -3   1  11    0.87    0.18 
  -3   1  11    1.16    0.09 
   2  -1 -11    3.11    0.16 
   2  -1 -11    3.05    0.15 
   2  -1 -11    3.01    0.18 
  -2   1  11    3.03    0.14 
  -2   1  11    3.05    0.19 
   1  -1 -11    0.14    0.05 
   1  -1 -11    0.02    0.05 
   1  -1 -11    0.02    0.06 
  -1   1  11    0.08    0.07 
  -1   1  11    0.11    0.06 
  -1   1  11    0.00    0.05 
   0  -1 -11    6.16    0.27 
   0  -1 -11    6.32    0.26 
   0  -1 -11    6.35    0.24 
   0  -1 -11    6.03    0.20 
   0   1  11    6.23    0.24 
   0   1  11    6.42    0.24 
   0   1  11    6.28    0.28 
   0   1  11    5.98    0.22 
  -1  -1 -11    0.10    0.08 
  -1  -1 -11    0.21    0.07 
  -1  -1 -11    0.15    0.04 
  -1  -1 -11    0.21    0.06 
   1   1  11    0.17    0.07 
   1   1  11    0.14    0.07 
   1   1  11    0.16    0.05 
  -2  -1 -11    3.57    0.20 
  -2  -1 -11    3.56    0.18 
  -2  -1 -11    3.54    0.14 
   2   1  11    3.62    0.15 
   2   1  11    3.62    0.19 
   2   1  11    3.76    0.20 
  -3  -1 -11    0.24    0.08 
  -3  -1 -11    0.32    0.05 
  -3  -1 -11    0.34    0.10 
   3   1  11    0.30    0.09 
   3   1  11    0.34    0.06 
  -4  -1 -11    1.00    0.12 
  -4  -1 -11    0.95    0.08 
   4   1  11    1.15    0.09 
   4   1  11    0.95    0.12 
  -5  -1 -11    0.18    0.09 
  -5  -1 -11    0.12    0.05 
   5   1  11    0.19    0.04 
  -7   2  11   -0.03    0.06 
   6  -2 -11    0.06    0.08 
  -6   2  11    0.14    0.06 
   5  -2 -11    0.11    0.05 
   5  -2 -11    0.12    0.07 
  -5   2  11    0.20    0.07 
   4  -2 -11    1.64    0.13 
   4  -2 -11    1.86    0.12 
  -4   2  11    1.42    0.11 
   3  -2 -11    0.00    0.05 
   3  -2 -11    0.06    0.05 
  -3   2  11   -0.05    0.05 
   2  -2 -11    8.97    0.32 
   2  -2 -11    8.57    0.34 
   2  -2 -11    8.88    0.31 
  -2   2  11    8.30    0.28 
  -2   2  11    8.61    0.35 
   1  -2 -11    0.42    0.07 
   1  -2 -11    0.42    0.09 
   1  -2 -11    0.56    0.08 
  -1   2  11    0.60    0.08 
  -1   2  11    0.41    0.10 
  -1   2  11    0.43    0.06 
   0  -2 -11    2.04    0.14 
   0  -2 -11    1.78    0.16 
   0  -2 -11    1.92    0.13 
   0   2  11    1.88    0.19 
   0   2  11    2.04    0.13 
   0   2  11    1.87    0.10 
   0   2  11    1.97    0.13 
  -1  -2 -11    0.03    0.06 
  -1  -2 -11    0.04    0.05 
  -1  -2 -11   -0.02    0.03 
   1   2  11   -0.05    0.04 
   1   2  11   -0.01    0.06 
   1   2  11   -0.09    0.05 
  -2  -2 -11    0.70    0.09 
  -2  -2 -11    0.65    0.11 
  -2  -2 -11    0.70    0.06 
   2   2  11    0.68    0.07 
   2   2  11    0.72    0.10 
  -3  -2 -11    0.15    0.04 
  -3  -2 -11    0.16    0.08 
  -3  -2 -11    0.12    0.07 
   3   2  11    0.18    0.08 
   3   2  11    0.18    0.04 
  -4  -2 -11    4.29    0.23 
  -4  -2 -11    4.23    0.25 
  -4  -2 -11    3.96    0.17 
  -5  -2 -11    0.08    0.05 
  -5  -2 -11    0.04    0.09 
  -7   3  11    1.08    0.10 
   6  -3 -11    1.95    0.17 
  -6   3  11    1.60    0.11 
   5  -3 -11    2.05    0.17 
   5  -3 -11    2.08    0.14 
  -5   3  11    1.83    0.11 
   4  -3 -11    2.19    0.14 
   4  -3 -11    2.24    0.15 
  -4   3  11    1.99    0.11 
   3  -3 -11    2.04    0.15 
   3  -3 -11    2.25    0.14 
  -3   3  11    2.15    0.10 
   2  -3 -11   -0.05    0.05 
   2  -3 -11   -0.02    0.07 
   2  -3 -11   -0.05    0.05 
  -2   3  11    0.00    0.04 
  -2   3  11    0.05    0.06 
   1  -3 -11    0.19    0.07 
   1  -3 -11    0.05    0.05 
   1  -3 -11    0.15    0.06 
  -1   3  11    0.18    0.06 
  -1   3  11    0.08    0.03 
   0  -3 -11    1.66    0.13 
   0  -3 -11    1.57    0.14 
   0   3  11    1.74    0.12 
  -1  -3 -11    7.39    0.28 
  -1  -3 -11    7.00    0.30 
   1   3  11    6.68    0.26 
  -2  -3 -11    0.16    0.05 
  -2  -3 -11    0.28    0.08 
  -2  -3 -11    0.28    0.08 
   2   3  11    0.24    0.08 
  -3  -3 -11    6.25    0.23 
  -3  -3 -11    6.89    0.29 
  -3  -3 -11    6.43    0.31 
  -4  -3 -11    0.33    0.06 
  -4  -3 -11    0.26    0.11 
  -4  -3 -11    0.35    0.10 
   6  -4 -11    2.04    0.19 
   5  -4 -11    0.83    0.11 
   5  -4 -11    0.65    0.11 
   4  -4 -11    0.84    0.11 
   4  -4 -11    0.79    0.10 
   3  -4 -11    2.01    0.15 
   3  -4 -11    2.12    0.15 
   2  -4 -11    8.44    0.30 
   2  -4 -11    8.07    0.32 
  -2   4  11    7.56    0.28 
   1  -4 -11    0.34    0.08 
   1  -4 -11    0.16    0.07 
  -1   4  11    0.21    0.07 
   0  -4 -11    2.29    0.15 
   0  -4 -11    2.30    0.16 
   0   4  11    2.31    0.14 
  -1  -4 -11    0.08    0.06 
  -1  -4 -11    0.12    0.07 
  -2  -4 -11    0.06    0.07 
  -2  -4 -11    0.05    0.07 
  -3  -4 -11    2.90    0.20 
  -3  -4 -11    2.63    0.14 
  -3  -4 -11    2.36    0.20 
  -4  -4 -11    0.09    0.09 
  -4  -4 -11    0.05    0.05 
   6  -5 -11    1.48    0.16 
   5  -5 -11    1.02    0.13 
   5  -5 -11    0.82    0.12 
   4  -5 -11   -0.01    0.07 
   4  -5 -11    0.06    0.07 
   3  -5 -11    1.97    0.16 
   3  -5 -11    2.09    0.15 
   2  -5 -11    0.56    0.10 
   2  -5 -11    0.57    0.09 
   1  -5 -11    1.75    0.14 
   1  -5 -11    2.17    0.16 
   0  -5 -11    0.01    0.06 
   0  -5 -11    0.06    0.07 
  -1  -5 -11    2.82    0.18 
  -1  -5 -11    2.60    0.19 
   1   5  11    2.82    0.24 
  -2  -5 -11    0.19    0.08 
  -2  -5 -11    0.09    0.08 
  -3  -5 -11    1.01    0.21 
  -3  -5 -11    1.04    0.13 
   5  -6 -11    0.09    0.08 
   5  -6 -11   -0.04    0.08 
   4  -6 -11    0.43    0.11 
   4  -6 -11    0.58    0.10 
   3  -6 -11    1.98    0.15 
   3  -6 -11    1.77    0.17 
   2  -6 -11    0.02    0.07 
   2  -6 -11    0.05    0.06 
   1  -6 -11   -0.05    0.06 
   1  -6 -11    0.02    0.06 
   0  -6 -11    2.52    0.19 
   0  -6 -11    2.29    0.16 
   0   6  11    2.30    0.26 
  -1  -6 -11    0.37    0.10 
  -1  -6 -11    0.46    0.09 
   1   6  11    0.44    0.13 
  -2  -6 -11    2.01    0.17 
  -2  -6 -11    1.59    0.20 
  -3  -6 -11    0.57    0.11 
   4  -7 -11    0.01    0.08 
   4  -7 -11    0.07    0.07 
   3  -7 -11    0.01    0.07 
   3  -7 -11    0.08    0.08 
   2  -7 -11    0.32    0.10 
   2  -7 -11    0.46    0.09 
  -2   7  11    0.15    0.18 
   1  -7 -11    0.91    0.14 
   1  -7 -11    0.73    0.10 
  -1   7  11    0.78    0.20 
   0  -7 -11    0.15    0.07 
   0  -7 -11    0.24    0.09 
   0   7  11    0.15    0.14 
  -1  -7 -11    0.26    0.09 
   1   7  11    0.52    0.14 
  -2  -7 -11    0.72    0.12 
   3  -8 -11    0.15    0.08 
  -3   8  11    0.16    0.19 
   2  -8 -11    0.02    0.06 
  -2   8  11   -0.01    0.15 
   1  -8 -11    0.08    0.07 
  -1   8  11    0.09    0.15 
   0  -8 -11    0.30    0.09 
   0   8  11    0.67    0.18 
   3   8 -12    0.87    0.13 
   3   8 -12    0.49    0.10 
   2   8 -12    0.00    0.07 
   1   8 -12    0.69    0.11 
  -1  -8  12    0.56    0.10 
   0  -8  12    0.19    0.08 
   1  -8  12    0.74    0.13 
   4   7 -12    0.35    0.09 
   4   7 -12    0.11    0.07 
  -4  -7  12    0.19    0.11 
   3   7 -12    0.37    0.09 
   3   7 -12    0.34    0.09 
  -3  -7  12    0.11    0.09 
   2   7 -12    0.31    0.08 
   2   7 -12    0.35    0.09 
   1   7 -12    0.43    0.09 
  -1  -7  12    0.40    0.09 
   0   7 -12    0.50    0.10 
   0  -7  12    0.52    0.11 
   0  -7  12    0.50    0.10 
   1  -7  12    0.07    0.09 
   1  -7  12    0.09    0.08 
   2  -7  12    0.45    0.10 
   5   6 -12    0.09    0.12 
   5   6 -12    0.13    0.07 
   4   6 -12    1.78    0.16 
   4   6 -12    1.78    0.15 
  -4  -6  12    1.74    0.20 
   3   6 -12    0.16    0.07 
   3   6 -12    0.12    0.07 
  -3  -6  12   -0.04    0.08 
   2   6 -12    0.05    0.06 
   2   6 -12    0.04    0.05 
  -2  -6  12   -0.17    0.07 
   1   6 -12    0.84    0.10 
   1   6 -12    0.90    0.11 
  -1  -6  12    0.60    0.11 
  -1  -6  12    0.69    0.12 
   0   6 -12    2.17    0.15 
   0   6 -12    2.09    0.14 
   0  -6  12    2.44    0.20 
   0  -6  12    2.31    0.18 
   1  -6  12    2.76    0.18 
   1  -6  12    2.82    0.22 
   1  -6  12    2.74    0.20 
   2  -6  12   -0.01    0.08 
   2  -6  12    0.03    0.08 
   3  -6  12    0.11    0.07 
   3  -6  12    0.13    0.10 
   5   5 -12    0.44    0.10 
   5   5 -12    0.50    0.10 
   4   5 -12    0.29    0.08 
   4   5 -12    0.18    0.07 
  -4  -5  12    0.12    0.09 
   3   5 -12    0.12    0.06 
   3   5 -12    0.05    0.05 
  -3  -5  12   -0.01    0.08 
   2   5 -12    3.47    0.18 
   2   5 -12    3.51    0.19 
  -2  -5  12    3.58    0.21 
   1   5 -12    0.01    0.04 
   1   5 -12    0.09    0.05 
  -1  -5  12    0.03    0.07 
   0   5 -12   -0.02    0.05 
   0   5 -12   -0.02    0.04 
   0  -5  12    0.07    0.07 
   0  -5  12   -0.01    0.08 
   0  -5  12    0.10    0.07 
   1  -5  12    0.67    0.10 
   1  -5  12    0.40    0.09 
   1  -5  12    0.51    0.07 
   1  -5  12    0.48    0.11 
   2  -5  12    0.35    0.10 
   2  -5  12    0.21    0.07 
   2  -5  12    0.31    0.10 
   3  -5  12    0.93    0.14 
   3  -5  12    1.12    0.14 
   3  -5  12    1.03    0.11 
   4  -5  12    0.12    0.08 
   4  -5  12    0.26    0.11 
   6   4 -12    0.00    0.07 
   6   4 -12    0.03    0.07 
  -6  -4  12   -0.03    0.06 
   5   4 -12    0.55    0.10 
   5   4 -12    0.48    0.10 
  -5  -4  12    0.47    0.07 
   4   4 -12    2.19    0.16 
   4   4 -12    2.04    0.16 
  -4  -4  12    1.93    0.11 
  -4  -4  12    2.24    0.19 
   3   4 -12   -0.01    0.05 
   3   4 -12    0.03    0.05 
  -3  -4  12   -0.06    0.07 
  -3  -4  12   -0.02    0.04 
   2   4 -12    0.06    0.05 
   2   4 -12    0.00    0.04 
  -2  -4  12   -0.01    0.07 
  -2  -4  12    0.00    0.04 
   1   4 -12    0.02    0.05 
   1   4 -12    0.02    0.04 
  -1  -4  12   -0.06    0.04 
  -1  -4  12    0.05    0.07 
   0   4 -12    0.43    0.07 
   0   4 -12    0.32    0.06 
   0  -4  12    0.38    0.09 
   0  -4  12    0.32    0.06 
   0  -4  12    0.37    0.08 
   0  -4  12    0.39    0.08 
  -1   4 -12    1.00    0.08 
   1  -4  12    0.94    0.12 
   1  -4  12    1.02    0.12 
   1  -4  12    1.07    0.11 
   1  -4  12    1.13    0.10 
   2  -4  12    0.94    0.12 
   2  -4  12    0.82    0.12 
   2  -4  12    0.90    0.09 
   3  -4  12   -0.02    0.10 
   3  -4  12   -0.03    0.09 
   3  -4  12    0.13    0.07 
   4  -4  12    0.67    0.12 
   4  -4  12    0.69    0.10 
   6   3 -12    0.22    0.09 
   6   3 -12    0.15    0.08 
  -6  -3  12    0.20    0.07 
   5   3 -12    0.84    0.11 
   5   3 -12    0.73    0.11 
  -5  -3  12    0.95    0.09 
   4   3 -12    0.64    0.10 
   4   3 -12    0.60    0.09 
  -4  -3  12    0.59    0.17 
  -4  -3  12    0.47    0.07 
   3   3 -12    1.77    0.13 
   3   3 -12    1.46    0.12 
  -3  -3  12    1.46    0.16 
  -3  -3  12    1.64    0.10 
   2   3 -12    0.32    0.06 
   2   3 -12    0.30    0.06 
  -2  -3  12    0.29    0.06 
  -2  -3  12    0.21    0.05 
  -2  -3  12    0.14    0.08 
   1   3 -12    1.71    0.12 
   1   3 -12    1.82    0.12 
  -1  -3  12    1.60    0.11 
  -1  -3  12    1.80    0.17 
   0   3 -12    1.98    0.12 
   0   3 -12    1.87    0.12 
   0  -3  12    2.24    0.17 
   0  -3  12    1.97    0.12 
   0  -3  12    2.35    0.19 
   0  -3  12    2.47    0.15 
  -1   3 -12    0.45    0.06 
   1  -3  12    0.34    0.09 
   1  -3  12    0.55    0.09 
   1  -3  12    0.63    0.08 
   1  -3  12    0.51    0.11 
   2  -3  12    0.62    0.08 
   2  -3  12    0.47    0.10 
   2  -3  12    0.42    0.09 
   3  -3  12    0.41    0.08 
   3  -3  12    0.52    0.11 
   3  -3  12    0.39    0.12 
   4  -3  12   -0.08    0.08 
   4  -3  12    0.02    0.07 
   6   2 -12    0.48    0.10 
  -6  -2  12    0.53    0.08 
  -5  -2  12    0.91    0.09 
  -4  -2  12    0.56    0.07 
   3   2 -12    0.07    0.05 
  -3  -2  12    0.02    0.05 
  -3  -2  12    0.00    0.08 
   2   2 -12    2.93    0.15 
  -2  -2  12    2.88    0.14 
  -2  -2  12    3.11    0.21 
  -2  -2  12    2.94    0.14 
   1   2 -12   30.63    0.91 
  -1  -2  12   32.31    0.97 
  -1  -2  12   31.82    0.90 
   0   2 -12    5.86    0.24 
   0   2 -12    7.08    0.23 
   0   2 -12    6.23    0.24 
   0  -2  12    6.55    0.33 
   0  -2  12    6.32    0.24 
   0  -2  12    7.21    0.28 
   0  -2  12    6.71    0.27 
  -1   2 -12    0.85    0.07 
  -1   2 -12    0.71    0.10 
   1  -2  12    0.90    0.09 
   1  -2  12    0.84    0.11 
   1  -2  12    0.96    0.11 
   2  -2  12    0.72    0.09 
   2  -2  12    0.90    0.12 
   2  -2  12    0.72    0.10 
   3  -2  12   -0.01    0.06 
   3  -2  12    0.09    0.10 
   3  -2  12   -0.01    0.08 
   4  -2  12    0.15    0.07 
   4  -2  12    0.13    0.09 
  -6  -1  12   -0.06    0.06 
  -5  -1  12    0.67    0.09 
   4   1 -12    3.39    0.14 
  -4  -1  12    3.42    0.16 
   3   1 -12    4.46    0.19 
   3   1 -12    4.78    0.19 
  -3  -1  12    4.59    0.20 
  -3  -1  12    4.36    0.27 
  -3  -1  12    4.63    0.19 
   2   1 -12   13.79    0.44 
   2   1 -12   14.48    0.46 
  -2  -1  12   12.86    0.46 
  -2  -1  12   14.43    0.43 
  -2  -1  12   14.73    0.50 
   1   1 -12    0.14    0.06 
   1   1 -12    0.26    0.07 
   1   1 -12    0.13    0.05 
  -1  -1  12    0.25    0.09 
  -1  -1  12    0.28    0.07 
   0   1 -12    0.62    0.08 
   0   1 -12    0.94    0.11 
   0  -1  12    1.15    0.13 
   0  -1  12    0.74    0.10 
   0  -1  12    0.71    0.12 
   0  -1  12    0.78    0.09 
  -1   1 -12    3.01    0.16 
   1  -1  12    3.07    0.18 
   1  -1  12    3.24    0.19 
   1  -1  12    2.86    0.15 
  -2   1 -12    1.36    0.12 
   2  -1  12    1.44    0.15 
   2  -1  12    1.48    0.16 
   2  -1  12    1.38    0.11 
   3  -1  12   -0.03    0.07 
   3  -1  12    0.11    0.06 
   4  -1  12    1.60    0.13 
   4  -1  12    1.99    0.18 
  -7   0  12   -0.03    0.07 
  -6   0  12    0.17    0.07 
  -5   0  12    2.91    0.16 
   4   0 -12    5.27    0.22 
   4   0 -12    5.00    0.20 
  -4   0  12    5.12    0.20 
   3   0 -12    0.04    0.05 
   3   0 -12   -0.01    0.04 
  -3   0  12   -0.03    0.03 
  -3   0  12    0.09    0.05 
   2   0 -12    3.36    0.12 
   2   0 -12    3.35    0.17 
   2   0 -12    3.49    0.16 
  -2   0  12    3.42    0.23 
  -2   0  12    3.61    0.16 
   1   0 -12    8.11    0.29 
   1   0 -12    8.24    0.24 
   1   0 -12    8.14    0.31 
  -1   0  12    7.87    0.34 
  -1   0  12    8.47    0.30 
  -1   0  12    8.28    0.28 
   0   0 -12    0.72    0.08 
   0   0 -12    0.59    0.05 
   0   0 -12    0.35    0.16 
   0   0 -12    0.76    0.10 
   0   0  12    0.61    0.08 
   0   0  12    0.68    0.10 
   0   0  12    0.78    0.09 
  -1   0 -12   -0.02    0.06 
  -1   0 -12    0.03    0.03 
  -1   0 -12    0.06    0.05 
   1   0  12   -0.07    0.05 
   1   0  12    0.04    0.06 
   1   0  12    0.01    0.07 
  -2   0 -12    0.62    0.11 
  -2   0 -12    0.53    0.05 
  -2   0 -12    0.44    0.08 
   2   0  12    0.53    0.09 
   2   0  12    0.54    0.10 
   2   0  12    0.54    0.08 
  -3   0 -12    0.13    0.04 
  -3   0 -12    0.13    0.07 
   3   0  12    0.06    0.06 
   3   0  12    0.05    0.08 
  -4   0 -12    0.94    0.07 
   4   0  12    0.91    0.09 
   4   0  12    0.78    0.12 
  -7   1  12    0.02    0.07 
  -6   1  12    0.90    0.10 
   5  -1 -12   -0.04    0.06 
  -5   1  12    0.00    0.06 
   4  -1 -12    0.07    0.05 
   4  -1 -12    0.11    0.06 
  -4   1  12    0.06    0.06 
   3  -1 -12    0.86    0.10 
   3  -1 -12    0.65    0.08 
  -3   1  12    0.77    0.08 
   2  -1 -12    0.16    0.06 
   2  -1 -12    0.26    0.06 
  -2   1  12    0.28    0.06 
   1  -1 -12    1.32    0.12 
   1  -1 -12    1.39    0.12 
   1  -1 -12    0.94    0.13 
  -1   1  12    1.46    0.11 
  -1   1  12    1.53    0.13 
   0  -1 -12    0.04    0.05 
   0  -1 -12    0.04    0.03 
   0  -1 -12    0.08    0.06 
   0   1  12    0.00    0.05 
   0   1  12    0.03    0.07 
   0   1  12    0.03    0.06 
  -1  -1 -12    2.46    0.15 
  -1  -1 -12    2.27    0.10 
  -1  -1 -12    2.22    0.16 
   1   1  12    2.32    0.16 
   1   1  12    2.09    0.12 
   1   1  12    2.14    0.16 
  -2  -1 -12    4.26    0.16 
  -2  -1 -12    4.40    0.24 
  -2  -1 -12    4.34    0.21 
   2   1  12    4.61    0.22 
   2   1  12    4.35    0.23 
   2   1  12    4.16    0.17 
  -3  -1 -12   -0.01    0.04 
  -3  -1 -12   -0.02    0.07 
  -3  -1 -12   -0.04    0.07 
   3   1  12    0.00    0.08 
   3   1  12   -0.03    0.05 
  -4  -1 -12    0.12    0.04 
  -4  -1 -12    0.14    0.08 
   4   1  12    0.20    0.05 
   6  -2 -12    0.11    0.09 
  -6   2  12   -0.04    0.06 
   5  -2 -12    0.00    0.07 
   5  -2 -12   -0.04    0.05 
  -5   2  12    0.04    0.06 
   4  -2 -12    0.66    0.09 
   4  -2 -12    0.59    0.08 
  -4   2  12    0.52    0.07 
   3  -2 -12    0.21    0.07 
   3  -2 -12    0.21    0.07 
  -3   2  12    0.18    0.06 
   2  -2 -12    0.27    0.07 
   2  -2 -12    0.26    0.07 
  -2   2  12    0.31    0.06 
   1  -2 -12    0.54    0.08 
   1  -2 -12    0.55    0.09 
  -1   2  12    0.53    0.07 
  -1   2  12    0.60    0.09 
   0  -2 -12    5.30    0.25 
   0  -2 -12    5.41    0.23 
   0   2  12    5.26    0.22 
   0   2  12    5.03    0.19 
   0   2  12    5.35    0.22 
  -1  -2 -12    0.74    0.11 
  -1  -2 -12    0.83    0.10 
  -1  -2 -12    0.64    0.06 
   1   2  12    0.62    0.06 
   1   2  12    0.63    0.09 
   1   2  12    0.84    0.10 
  -2  -2 -12    1.32    0.14 
  -2  -2 -12    1.11    0.13 
  -2  -2 -12    1.13    0.08 
   2   2  12    1.21    0.08 
   2   2  12    1.07    0.12 
  -3  -2 -12    2.96    0.19 
  -3  -2 -12    2.80    0.14 
  -3  -2 -12    2.84    0.21 
   3   2  12    3.04    0.11 
  -4  -2 -12    1.87    0.18 
  -4  -2 -12    1.58    0.11 
   6  -3 -12    0.08    0.08 
  -6   3  12   -0.01    0.05 
   5  -3 -12   -0.03    0.05 
   5  -3 -12    0.03    0.07 
  -5   3  12   -0.05    0.05 
   4  -3 -12    0.03    0.07 
   4  -3 -12    0.04    0.06 
  -4   3  12    0.07    0.05 
   3  -3 -12    0.90    0.11 
   3  -3 -12    0.95    0.11 
  -3   3  12    0.87    0.08 
   2  -3 -12    1.16    0.12 
   2  -3 -12    1.13    0.12 
  -2   3  12    1.01    0.08 
  -2   3  12    1.22    0.12 
   1  -3 -12    0.46    0.09 
   1  -3 -12    0.41    0.08 
  -1   3  12    0.35    0.04 
  -1   3  12    0.28    0.07 
   0  -3 -12    0.36    0.09 
   0  -3 -12    0.39    0.08 
   0   3  12    0.34    0.07 
  -1  -3 -12    1.45    0.15 
  -1  -3 -12    1.69    0.14 
   1   3  12    1.38    0.13 
  -2  -3 -12    0.28    0.08 
  -2  -3 -12    0.31    0.09 
  -2  -3 -12    0.25    0.05 
  -3  -3 -12    0.26    0.10 
  -3  -3 -12    0.38    0.10 
  -3  -3 -12    0.31    0.06 
  -4  -3 -12    0.22    0.10 
  -4  -3 -12    0.15    0.05 
   6  -4 -12    0.27    0.10 
   5  -4 -12    0.24    0.08 
   5  -4 -12    0.35    0.09 
   4  -4 -12    1.18    0.12 
   4  -4 -12    1.17    0.13 
   3  -4 -12   -0.02    0.06 
   3  -4 -12    0.11    0.07 
   2  -4 -12    1.22    0.13 
   2  -4 -12    0.92    0.10 
  -2   4  12    1.09    0.11 
   1  -4 -12    1.28    0.13 
   1  -4 -12    0.96    0.11 
   0  -4 -12    0.07    0.07 
   0  -4 -12    0.04    0.06 
  -1  -4 -12    0.73    0.10 
  -1  -4 -12    0.82    0.12 
  -2  -4 -12    2.64    0.19 
  -2  -4 -12    2.44    0.19 
  -3  -4 -12    4.41    0.19 
  -3  -4 -12    5.10    0.26 
   5  -5 -12    0.09    0.09 
   5  -5 -12    0.15    0.08 
   4  -5 -12    0.01    0.07 
   4  -5 -12    0.07    0.08 
   3  -5 -12    0.84    0.11 
   3  -5 -12    0.75    0.12 
   2  -5 -12    0.40    0.08 
   2  -5 -12    0.27    0.09 
   1  -5 -12    2.22    0.16 
   1  -5 -12    2.23    0.17 
   0  -5 -12    2.78    0.20 
   0  -5 -12    2.77    0.18 
  -1  -5 -12    0.18    0.08 
  -1  -5 -12    0.23    0.08 
   1   5  12    0.11    0.12 
  -2  -5 -12    1.03    0.16 
  -2  -5 -12    1.10    0.13 
  -3  -5 -12    0.23    0.06 
  -3  -5 -12    0.34    0.11 
   5  -6 -12   -0.08    0.08 
   5  -6 -12    0.07    0.08 
   4  -6 -12    2.29    0.19 
   4  -6 -12    2.71    0.19 
   3  -6 -12    0.10    0.08 
   3  -6 -12    0.07    0.07 
   2  -6 -12    1.05    0.14 
   2  -6 -12    0.99    0.11 
   1  -6 -12    1.59    0.16 
   1  -6 -12    1.54    0.15 
   0  -6 -12    0.33    0.10 
   0  -6 -12    0.39    0.09 
   0   6  12    0.43    0.17 
  -1  -6 -12   -0.04    0.07 
   1   6  12   -0.06    0.11 
  -2  -6 -12    3.63    0.23 
   4  -7 -12    0.14    0.08 
   3  -7 -12    0.21    0.08 
   2  -7 -12    0.10    0.07 
  -2   7  12   -0.25    0.15 
   1  -7 -12    0.39    0.09 
  -1   7  12    0.39    0.18 
   0  -7 -12    0.10    0.07 
   0   7  12    0.09    0.14 
  -1  -7 -12    0.95    0.12 
   1   7  12    1.73    0.24 
  -1   8  12    0.54    0.19 
   1   8 -13   -0.13    0.08 
   3   7 -13    0.43    0.10 
   3   7 -13    0.44    0.10 
   2   7 -13    0.62    0.10 
   2   7 -13    0.62    0.10 
   1   7 -13    0.05    0.06 
   1   7 -13   -0.06    0.05 
  -1  -7  13    0.10    0.07 
  -1  -7  13   -0.17    0.08 
   0   7 -13   -0.10    0.08 
   0  -7  13    0.13    0.08 
   0  -7  13    0.12    0.09 
   0  -7  13    0.10    0.08 
   1  -7  13    0.50    0.10 
   4   6 -13    0.19    0.08 
   4   6 -13    0.29    0.08 
   3   6 -13    0.94    0.12 
   3   6 -13    0.91    0.12 
  -3  -6  13    0.62    0.13 
   2   6 -13    1.57    0.14 
   2   6 -13    1.67    0.14 
  -2  -6  13    1.53    0.19 
   1   6 -13    0.27    0.07 
   1   6 -13    0.22    0.07 
  -1  -6  13    0.21    0.10 
  -1  -6  13    0.24    0.09 
   0   6 -13   -0.04    0.07 
   0   6 -13    0.07    0.06 
   0  -6  13    0.00    0.06 
   0  -6  13    0.00    0.08 
   0  -6  13    0.05    0.09 
   1  -6  13    0.33    0.09 
   1  -6  13    0.24    0.09 
   2  -6  13    0.87    0.13 
   5   5 -13    0.18    0.08 
   5   5 -13    0.21    0.07 
   4   5 -13    0.19    0.08 
   4   5 -13    0.27    0.08 
   3   5 -13    1.74    0.14 
   3   5 -13    1.82    0.15 
  -3  -5  13    1.73    0.18 
   2   5 -13    2.34    0.16 
   2   5 -13    2.43    0.16 
  -2  -5  13    2.56    0.20 
   1   5 -13   -0.01    0.05 
   1   5 -13    0.10    0.06 
  -1  -5  13   -0.04    0.08 
   0   5 -13    2.02    0.13 
   0   5 -13    2.17    0.15 
   0  -5  13    2.47    0.16 
   0  -5  13    2.05    0.17 
   0  -5  13    2.42    0.20 
   1  -5  13    1.38    0.13 
   1  -5  13    1.30    0.12 
   1  -5  13    1.63    0.17 
   2  -5  13   -0.03    0.08 
   2  -5  13    0.17    0.09 
   2  -5  13    0.18    0.07 
   3  -5  13    0.26    0.08 
   3  -5  13    0.24    0.11 
   5   4 -13    0.34    0.09 
   5   4 -13    0.45    0.10 
  -5  -4  13    0.41    0.07 
   4   4 -13    0.36    0.08 
   4   4 -13    0.48    0.10 
  -4  -4  13    0.45    0.07 
   3   4 -13    1.39    0.13 
   3   4 -13    1.08    0.12 
  -3  -4  13    1.03    0.09 
  -3  -4  13    0.93    0.13 
   2   4 -13    3.29    0.17 
   2   4 -13    2.94    0.17 
  -2  -4  13    3.10    0.14 
  -2  -4  13    3.27    0.22 
   1   4 -13    4.18    0.19 
   1   4 -13    3.75    0.18 
  -1  -4  13    3.50    0.16 
  -1  -4  13    4.00    0.24 
   0   4 -13    0.61    0.08 
   0   4 -13    0.59    0.08 
   0  -4  13    0.48    0.08 
   0  -4  13    0.52    0.10 
   0  -4  13    0.50    0.11 
   0  -4  13    0.56    0.09 
  -1   4 -13    0.06    0.04 
   1  -4  13    0.02    0.08 
   1  -4  13    0.03    0.06 
   1  -4  13    0.01    0.08 
   2  -4  13    0.78    0.10 
   2  -4  13    0.95    0.12 
   2  -4  13    0.65    0.12 
   3  -4  13    0.90    0.10 
   3  -4  13    0.83    0.13 
   3  -4  13    0.88    0.15 
   6   3 -13    0.15    0.09 
   6   3 -13    0.18    0.08 
  -6  -3  13    0.28    0.08 
   5   3 -13    0.00    0.06 
   5   3 -13    0.01    0.06 
  -5  -3  13   -0.03    0.06 
   4   3 -13    1.14    0.12 
   4   3 -13    1.28    0.13 
  -4  -3  13    1.18    0.11 
   3   3 -13    2.33    0.15 
   3   3 -13    2.30    0.15 
  -3  -3  13    2.34    0.28 
  -3  -3  13    2.22    0.12 
   2   3 -13    0.17    0.06 
   2   3 -13    0.07    0.05 
  -2  -3  13    0.02    0.08 
  -2  -3  13    0.01    0.05 
   1   3 -13    0.94    0.09 
   1   3 -13    0.98    0.10 
  -1  -3  13    0.99    0.09 
  -1  -3  13    0.93    0.13 
   0   3 -13    0.98    0.09 
   0   3 -13    1.09    0.09 
   0  -3  13    0.92    0.12 
   0  -3  13    0.90    0.16 
   0  -3  13    1.01    0.09 
   0  -3  13    1.04    0.11 
  -1   3 -13    1.15    0.09 
   1  -3  13    1.21    0.12 
   1  -3  13    1.34    0.12 
   1  -3  13    1.34    0.15 
   2  -3  13    0.31    0.10 
   2  -3  13    0.31    0.08 
   2  -3  13    0.27    0.09 
   3  -3  13    1.47    0.18 
   3  -3  13    1.61    0.16 
   3  -3  13    1.59    0.13 
   4  -3  13   -0.06    0.07 
   4  -3  13   -0.03    0.09 
   6   2 -13    1.66    0.16 
  -6  -2  13    1.86    0.14 
  -5  -2  13   -0.06    0.06 
  -4  -2  13   -0.04    0.06 
   3   2 -13    0.17    0.06 
  -3  -2  13    0.11    0.06 
   2   2 -13    2.64    0.15 
  -2  -2  13    2.56    0.14 
  -2  -2  13    2.87    0.24 
   1   2 -13    4.02    0.17 
  -1  -2  13    3.88    0.27 
  -1  -2  13    3.70    0.17 
   0   2 -13    8.70    0.31 
   0  -2  13    9.13    0.34 
   0  -2  13    9.05    0.33 
   0  -2  13    8.74    0.30 
  -1   2 -13    2.48    0.12 
   1  -2  13    2.58    0.15 
   1  -2  13    2.52    0.18 
   1  -2  13    2.60    0.17 
   2  -2  13    2.76    0.21 
   2  -2  13    3.16    0.17 
   2  -2  13    3.18    0.20 
   3  -2  13    0.82    0.12 
   3  -2  13    0.78    0.10 
   3  -2  13    0.67    0.14 
   4  -2  13   -0.02    0.07 
   4  -2  13    0.11    0.10 
  -6  -1  13    1.07    0.11 
  -5  -1  13    0.83    0.09 
  -4  -1  13    0.15    0.06 
   3   1 -13    4.03    0.18 
  -3  -1  13    3.84    0.18 
   2   1 -13    9.60    0.34 
   2   1 -13   10.10    0.35 
  -2  -1  13    9.95    0.33 
   1   1 -13   16.89    0.54 
   1   1 -13   15.80    0.51 
   1   1 -13   15.95    0.50 
  -1  -1  13   16.94    0.51 
   0   1 -13    0.04    0.06 
   0   1 -13   -0.04    0.05 
   0  -1  13   -0.10    0.07 
  -1   1 -13    0.37    0.07 
   1  -1  13    0.35    0.09 
   1  -1  13    0.50    0.08 
   1  -1  13    0.47    0.10 
   2  -1  13    1.90    0.18 
   2  -1  13    1.87    0.13 
   2  -1  13    1.65    0.16 
   3  -1  13    0.25    0.10 
   3  -1  13    0.32    0.07 
   4  -1  13    0.16    0.10 
   4  -1  13    0.06    0.07 
  -6   0  13    0.00    0.07 
  -5   0  13    0.00    0.06 
   4   0 -13    2.30    0.13 
  -4   0  13    2.00    0.14 
   3   0 -13    0.21    0.06 
   3   0 -13    0.10    0.06 
  -3   0  13    0.13    0.07 
   2   0 -13    0.37    0.07 
   2   0 -13    0.22    0.07 
  -2   0  13    0.36    0.07 
   1   0 -13    2.00    0.15 
   1   0 -13    2.16    0.14 
   1   0 -13    2.10    0.08 
  -1   0  13    2.02    0.13 
  -1   0  13    2.34    0.15 
   0   0 -13    6.36    0.25 
   0   0 -13    6.28    0.20 
   0   0 -13    6.35    0.27 
   0   0  13    6.42    0.26 
   0   0  13    6.06    0.24 
   0   0  13    6.32    0.26 
  -1   0 -13    0.70    0.09 
  -1   0 -13    0.75    0.06 
  -1   0 -13    0.91    0.12 
   1   0  13    0.54    0.10 
   1   0  13    0.46    0.08 
   1   0  13    0.72    0.10 
  -2   0 -13    0.01    0.03 
  -2   0 -13    0.07    0.07 
  -2   0 -13   -0.04    0.06 
   2   0  13   -0.01    0.09 
   2   0  13    0.02    0.06 
   2   0  13    0.02    0.08 
  -3   0 -13    0.38    0.12 
  -3   0 -13    0.56    0.05 
   3   0  13    0.53    0.08 
   3   0  13    0.52    0.11 
  -4   0 -13    1.06    0.08 
   4   0  13    1.21    0.11 
   4   0  13    1.13    0.15 
  -6   1  13    0.42    0.09 
  -5   1  13   -0.10    0.06 
   4  -1 -13    1.75    0.14 
   4  -1 -13    1.44    0.12 
  -4   1  13    1.39    0.13 
   3  -1 -13    4.37    0.20 
   3  -1 -13    4.10    0.20 
  -3   1  13    4.32    0.18 
   2  -1 -13    0.20    0.06 
   2  -1 -13   -0.01    0.05 
  -2   1  13    0.22    0.06 
   1  -1 -13    6.80    0.22 
   1  -1 -13    6.50    0.28 
   1  -1 -13    6.54    0.26 
  -1   1  13    6.55    0.26 
  -1   1  13    6.46    0.24 
   0  -1 -13    0.16    0.07 
   0  -1 -13    0.16    0.04 
   0  -1 -13    0.05    0.06 
   0   1  13   -0.01    0.08 
   0   1  13    0.14    0.06 
   0   1  13    0.25    0.07 
  -1  -1 -13    0.11    0.07 
  -1  -1 -13    0.21    0.08 
  -1  -1 -13    0.11    0.04 
   1   1  13    0.15    0.08 
   1   1  13    0.16    0.06 
   1   1  13    0.10    0.08 
  -2  -1 -13    3.61    0.22 
  -2  -1 -13    3.72    0.15 
  -2  -1 -13    3.66    0.21 
   2   1  13    3.79    0.21 
   2   1  13    3.68    0.16 
   2   1  13    3.82    0.23 
  -3  -1 -13    3.35    0.22 
  -3  -1 -13    2.80    0.13 
  -3  -1 -13    3.10    0.20 
   3   1  13    3.08    0.14 
   3   1  13    2.85    0.20 
  -4  -1 -13    0.38    0.06 
   4   1  13    0.47    0.06 
  -6   2  13    0.44    0.08 
   5  -2 -13    0.93    0.11 
  -5   2  13    0.79    0.09 
   4  -2 -13    1.40    0.14 
   4  -2 -13    1.28    0.12 
  -4   2  13    1.22    0.10 
   3  -2 -13    0.02    0.06 
   3  -2 -13    0.08    0.06 
  -3   2  13    0.01    0.05 
   2  -2 -13    3.01    0.17 
   2  -2 -13    2.71    0.17 
  -2   2  13    2.79    0.14 
  -2   2  13    2.51    0.16 
   1  -2 -13    1.02    0.12 
   1  -2 -13    1.09    0.11 
  -1   2  13    1.03    0.11 
  -1   2  13    0.97    0.08 
   0  -2 -13    0.11    0.06 
   0  -2 -13    0.05    0.06 
   0  -2 -13    0.05    0.04 
   0   2  13    0.02    0.07 
   0   2  13    0.11    0.06 
   0   2  13    0.00    0.04 
  -1  -2 -13    0.54    0.06 
  -1  -2 -13    0.67    0.11 
  -1  -2 -13    0.62    0.10 
   1   2  13    0.60    0.10 
   1   2  13    0.48    0.06 
   1   2  13    0.48    0.09 
  -2  -2 -13    1.62    0.15 
  -2  -2 -13    1.46    0.15 
  -2  -2 -13    1.40    0.10 
   2   2  13    1.50    0.15 
   2   2  13    1.56    0.09 
  -3  -2 -13    0.05    0.04 
  -3  -2 -13   -0.04    0.07 
  -4  -2 -13    0.17    0.05 
   6  -3 -13    0.29    0.10 
  -6   3  13    0.29    0.07 
   5  -3 -13    0.21    0.08 
   5  -3 -13    0.13    0.09 
  -5   3  13    0.04    0.05 
   4  -3 -13    0.28    0.08 
   4  -3 -13    0.29    0.08 
  -4   3  13    0.27    0.06 
   3  -3 -13    0.09    0.07 
   3  -3 -13    0.14    0.07 
  -3   3  13    0.17    0.05 
   2  -3 -13    0.05    0.07 
   2  -3 -13    0.08    0.06 
  -2   3  13    0.10    0.07 
  -2   3  13    0.08    0.04 
   1  -3 -13    0.27    0.08 
   1  -3 -13    0.23    0.07 
  -1   3  13    0.33    0.04 
  -1   3  13    0.29    0.08 
   0  -3 -13    0.59    0.09 
   0  -3 -13    0.54    0.10 
   0   3  13    0.55    0.09 
  -1  -3 -13    0.10    0.07 
  -1  -3 -13    0.02    0.07 
  -2  -3 -13    1.64    0.16 
  -2  -3 -13    1.66    0.11 
  -2  -3 -13    1.89    0.17 
  -3  -3 -13    0.18    0.05 
  -3  -3 -13    0.06    0.08 
   5  -4 -13    1.17    0.14 
   5  -4 -13    1.05    0.13 
   4  -4 -13    0.67    0.11 
   4  -4 -13    0.56    0.11 
   3  -4 -13    3.88    0.22 
   3  -4 -13    3.92    0.21 
   2  -4 -13    4.16    0.23 
   2  -4 -13    4.09    0.21 
   1  -4 -13    0.59    0.10 
   1  -4 -13    0.81    0.12 
   0  -4 -13    0.01    0.07 
   0  -4 -13    0.00    0.07 
  -1  -4 -13    0.02    0.07 
  -1  -4 -13    0.06    0.07 
  -2  -4 -13    0.53    0.11 
  -2  -4 -13    0.54    0.07 
  -3  -4 -13    1.47    0.16 
  -3  -4 -13    1.22    0.11 
   5  -5 -13    0.11    0.08 
   5  -5 -13    0.16    0.09 
   4  -5 -13    2.15    0.18 
   4  -5 -13    2.50    0.19 
   3  -5 -13    0.92    0.12 
   3  -5 -13    0.90    0.13 
   2  -5 -13    1.50    0.16 
   2  -5 -13    1.77    0.15 
   1  -5 -13    0.50    0.11 
   1  -5 -13    0.45    0.09 
   0  -5 -13    3.34    0.20 
   0  -5 -13    3.12    0.22 
  -1  -5 -13    0.33    0.17 
  -1  -5 -13    0.29    0.09 
   1   5  13    0.24    0.15 
  -2  -5 -13    3.76    0.24 
   4  -6 -13    0.07    0.08 
   4  -6 -13    0.06    0.09 
   3  -6 -13    0.56    0.10 
   3  -6 -13    0.48    0.11 
   2  -6 -13    0.32    0.10 
   2  -6 -13    0.28    0.08 
   1  -6 -13    1.05    0.15 
   1  -6 -13    1.04    0.12 
   0  -6 -13    0.26    0.09 
   0   6  13    0.31    0.17 
  -1  -6 -13    0.24    0.09 
   1   6  13    0.14    0.17 
   3  -7 -13    0.21    0.09 
   2  -7 -13    0.07    0.07 
   1  -7 -13    0.00    0.07 
  -1   7  13   -0.26    0.14 
   0  -7 -13   -0.01    0.08 
   0   7  13    0.02    0.14 
   2   7 -14    0.85    0.12 
   2   7 -14    0.80    0.12 
  -2  -7  14    0.80    0.14 
   1   7 -14    0.28    0.08 
   1   7 -14    0.28    0.09 
  -1  -7  14    0.18    0.11 
   0  -7  14   -0.05    0.08 
   3   6 -14    2.30    0.18 
   3   6 -14    2.03    0.16 
   2   6 -14    0.53    0.09 
   2   6 -14    0.42    0.09 
  -2  -6  14    0.22    0.11 
   1   6 -14    0.25    0.07 
   1   6 -14    0.21    0.08 
  -1  -6  14    0.21    0.11 
  -1  -6  14    0.14    0.08 
   0   6 -14    0.30    0.09 
   0   6 -14    0.41    0.08 
   0  -6  14    0.33    0.09 
   0  -6  14    0.26    0.09 
   1  -6  14    0.94    0.13 
   4   5 -14    0.10    0.08 
   4   5 -14    0.18    0.08 
   3   5 -14    1.64    0.15 
   3   5 -14    1.59    0.14 
   2   5 -14    1.14    0.12 
   2   5 -14    1.11    0.12 
  -2  -5  14    1.13    0.23 
   1   5 -14    0.24    0.07 
   1   5 -14    0.25    0.07 
  -1  -5  14    0.22    0.09 
   0   5 -14    0.82    0.11 
   0   5 -14    0.85    0.10 
   0  -5  14    0.89    0.12 
   0  -5  14    0.70    0.12 
   0  -5  14    0.67    0.11 
   1  -5  14   -0.02    0.06 
   1  -5  14   -0.09    0.08 
   1  -5  14    0.01    0.08 
   2  -5  14    0.04    0.09 
   2  -5  14   -0.02    0.07 
   5   4 -14    0.14    0.07 
   5   4 -14    0.17    0.08 
  -5  -4  14    0.10    0.07 
   4   4 -14    2.29    0.17 
   4   4 -14    2.30    0.18 
  -4  -4  14    2.26    0.14 
   3   4 -14    0.07    0.06 
   3   4 -14    0.05    0.06 
  -3  -4  14    0.00    0.05 
   2   4 -14    0.00    0.05 
   2   4 -14   -0.03    0.05 
  -2  -4  14   -0.03    0.05 
   1   4 -14    0.82    0.10 
   1   4 -14    0.79    0.09 
  -1  -4  14    0.74    0.09 
   0   4 -14    2.38    0.18 
   0   4 -14    2.20    0.14 
   0  -4  14    2.66    0.20 
   0  -4  14    2.61    0.18 
   0  -4  14    2.21    0.14 
   1  -4  14    0.91    0.12 
   1  -4  14    0.92    0.13 
   1  -4  14    0.75    0.09 
   2  -4  14    0.70    0.10 
   2  -4  14    0.70    0.13 
   2  -4  14    0.58    0.12 
   3  -4  14    0.05    0.08 
   3  -4  14   -0.07    0.09 
   5   3 -14    0.79    0.12 
   5   3 -14    0.87    0.12 
  -5  -3  14    0.92    0.10 
   4   3 -14    0.70    0.11 
   4   3 -14    0.82    0.12 
  -4  -3  14    0.70    0.09 
   3   3 -14    0.30    0.08 
   3   3 -14    0.19    0.07 
  -3  -3  14    0.06    0.06 
   2   3 -14    0.02    0.05 
   2   3 -14   -0.01    0.05 
  -2  -3  14    0.03    0.06 
   1   3 -14    0.44    0.07 
   1   3 -14    0.44    0.07 
  -1  -3  14    0.36    0.07 
   0   3 -14    0.49    0.07 
   0  -3  14    0.50    0.08 
   0  -3  14    0.54    0.10 
   0  -3  14    0.52    0.10 
   1  -3  14    0.16    0.09 
   1  -3  14    0.17    0.08 
   1  -3  14    0.20    0.09 
   2  -3  14    0.03    0.09 
   2  -3  14    0.07    0.07 
   2  -3  14    0.00    0.09 
   3  -3  14   -0.02    0.09 
   3  -3  14    0.06    0.07 
  -6  -2  14    0.12    0.08 
  -5  -2  14   -0.01    0.07 
   4   2 -14    0.44    0.08 
  -4  -2  14    0.33    0.08 
   3   2 -14    0.03    0.05 
  -3  -2  14    0.11    0.06 
   2   2 -14    0.04    0.05 
  -2  -2  14   -0.05    0.06 
   1   2 -14    0.79    0.09 
  -1  -2  14    0.64    0.10 
  -1  -2  14    0.70    0.09 
   0   2 -14   -0.01    0.04 
   0  -2  14    0.01    0.07 
   0  -2  14    0.06    0.07 
   0  -2  14   -0.02    0.06 
   1  -2  14    0.04    0.07 
   1  -2  14    0.01    0.08 
   1  -2  14   -0.13    0.07 
   2  -2  14    0.60    0.11 
   2  -2  14    0.79    0.13 
   2  -2  14    0.65    0.09 
   3  -2  14    0.23    0.08 
   3  -2  14    0.24    0.10 
   3  -2  14    0.15    0.13 
  -6  -1  14    0.03    0.08 
  -5  -1  14    0.18    0.07 
  -4  -1  14    1.16    0.11 
   3   1 -14    0.14    0.06 
  -3  -1  14    0.11    0.06 
   2   1 -14    1.52    0.12 
   2   1 -14    1.60    0.13 
  -2  -1  14    1.36    0.13 
   1   1 -14    0.07    0.05 
   1   1 -14   -0.05    0.07 
  -1  -1  14   -0.02    0.06 
  -1  -1  14    0.11    0.08 
   0   1 -14    0.30    0.09 
   0  -1  14    0.16    0.07 
   0  -1  14    0.27    0.08 
   0  -1  14    0.27    0.09 
   1  -1  14    0.08    0.08 
   1  -1  14    0.09    0.07 
   1  -1  14    0.18    0.09 
   2  -1  14    2.08    0.18 
   2  -1  14    1.90    0.19 
   2  -1  14    1.90    0.13 
   3  -1  14    0.14    0.07 
   3  -1  14    0.14    0.09 
  -6   0  14    0.28    0.08 
  -5   0  14    1.06    0.11 
  -4   0  14    0.80    0.09 
   3   0 -14    2.66    0.16 
  -3   0  14    2.74    0.16 
   2   0 -14    5.94    0.26 
   2   0 -14    5.81    0.24 
  -2   0  14    6.06    0.23 
   1   0 -14    7.38    0.30 
   1   0 -14    6.85    0.28 
  -1   0  14    7.49    0.29 
  -1   0  14    6.96    0.27 
   0   0 -14    0.03    0.03 
   0   0 -14   -0.06    0.06 
   0   0 -14    0.10    0.07 
   0   0  14   -0.02    0.07 
   0   0  14   -0.16    0.08 
   0   0  14    0.13    0.07 
  -1   0 -14    1.57    0.16 
  -1   0 -14    1.20    0.12 
  -1   0 -14    1.21    0.07 
   1   0  14    1.02    0.10 
   1   0  14    1.26    0.14 
   1   0  14    1.46    0.16 
  -2   0 -14    0.27    0.10 
  -2   0 -14    0.29    0.04 
   2   0  14    0.34    0.11 
   2   0  14    0.38    0.10 
   2   0  14    0.19    0.07 
  -3   0 -14    0.45    0.05 
   3   0  14    0.44    0.08 
   3   0  14    0.49    0.11 
  -6   1  14    0.58    0.10 
  -5   1  14    0.54    0.09 
   4  -1 -14    1.72    0.13 
   4  -1 -14    1.94    0.18 
  -4   1  14    1.80    0.14 
   3  -1 -14    1.37    0.13 
   3  -1 -14    1.67    0.14 
  -3   1  14    1.46    0.13 
   2  -1 -14    5.10    0.17 
   2  -1 -14    5.03    0.24 
   2  -1 -14    5.42    0.23 
  -2   1  14    4.93    0.21 
   1  -1 -14    0.30    0.08 
   1  -1 -14    0.22    0.04 
   1  -1 -14    0.22    0.08 
  -1   1  14    0.13    0.07 
  -1   1  14    0.31    0.09 
   0  -1 -14    0.58    0.10 
   0  -1 -14    0.51    0.05 
   0  -1 -14    0.42    0.08 
   0   1  14    0.55    0.09 
   0   1  14    0.46    0.08 
   0   1  14    0.44    0.10 
  -1  -1 -14    4.96    0.26 
  -1  -1 -14    5.20    0.18 
  -1  -1 -14    5.19    0.24 
   1   1  14    5.41    0.25 
   1   1  14    5.15    0.25 
   1   1  14    5.05    0.20 
  -2  -1 -14    2.20    0.11 
  -2  -1 -14    2.09    0.19 
  -2  -1 -14    2.44    0.18 
   2   1  14    2.41    0.13 
   2   1  14    2.25    0.19 
   2   1  14    2.17    0.20 
  -3  -1 -14    0.00    0.04 
  -3  -1 -14    0.06    0.11 
   3   1  14    0.02    0.05 
  -6   2  14   -0.01    0.07 
  -5   2  14    1.38    0.13 
   4  -2 -14    0.69    0.10 
   4  -2 -14    0.68    0.10 
  -4   2  14    0.64    0.08 
   3  -2 -14    0.40    0.09 
   3  -2 -14    0.42    0.08 
  -3   2  14    0.35    0.07 
   2  -2 -14    6.35    0.28 
   2  -2 -14    6.36    0.27 
  -2   2  14    6.14    0.26 
  -2   2  14    5.84    0.22 
   1  -2 -14   -0.02    0.06 
   1  -2 -14   -0.08    0.07 
  -1   2  14   -0.04    0.05 
  -1   2  14    0.05    0.08 
   0  -2 -14    1.80    0.15 
   0  -2 -14    1.85    0.16 
   0  -2 -14    2.07    0.11 
   0   2  14    1.80    0.16 
   0   2  14    2.03    0.16 
   0   2  14    1.81    0.11 
  -1  -2 -14    0.64    0.07 
  -1  -2 -14    0.71    0.12 
  -1  -2 -14    0.67    0.11 
   1   2  14    0.57    0.07 
   1   2  14    0.52    0.10 
   1   2  14    0.66    0.11 
  -2  -2 -14   -0.01    0.04 
  -2  -2 -14   -0.03    0.08 
  -2  -2 -14   -0.10    0.07 
   2   2  14    0.10    0.04 
  -3  -2 -14    0.79    0.08 
  -3  -2 -14    0.81    0.12 
   5  -3 -14    0.18    0.09 
  -5   3  14    0.12    0.06 
   4  -3 -14    0.35    0.08 
   4  -3 -14    0.29    0.09 
  -4   3  14    0.20    0.06 
   3  -3 -14    3.47    0.21 
   3  -3 -14    3.63    0.20 
  -3   3  14    3.24    0.14 
   2  -3 -14    0.74    0.12 
   2  -3 -14    0.73    0.11 
  -2   3  14    0.77    0.06 
  -2   3  14    0.69    0.10 
   1  -3 -14    0.18    0.08 
   1  -3 -14    0.18    0.08 
  -1   3  14    0.06    0.08 
  -1   3  14    0.18    0.07 
  -1   3  14    0.14    0.04 
   0  -3 -14   -0.08    0.06 
   0  -3 -14   -0.10    0.06 
   0   3  14   -0.01    0.07 
  -1  -3 -14    1.63    0.11 
  -1  -3 -14    1.71    0.17 
  -1  -3 -14    2.04    0.17 
  -2  -3 -14    0.04    0.08 
  -2  -3 -14    0.09    0.05 
  -3  -3 -14    0.18    0.06 
   5  -4 -14    0.21    0.09 
   4  -4 -14    0.89    0.12 
   4  -4 -14    0.81    0.12 
   3  -4 -14    0.23    0.09 
   3  -4 -14    0.20    0.08 
   2  -4 -14    0.16    0.08 
   2  -4 -14    0.29    0.09 
   1  -4 -14    0.09    0.08 
   1  -4 -14    0.00    0.07 
   0  -4 -14    2.10    0.18 
   0  -4 -14    2.26    0.18 
  -1  -4 -14    0.26    0.09 
  -2  -4 -14    0.10    0.05 
  -2  -4 -14    0.06    0.09 
   4  -5 -14   -0.03    0.08 
   4  -5 -14    0.07    0.09 
   3  -5 -14    0.20    0.09 
   3  -5 -14    0.31    0.10 
   2  -5 -14    0.19    0.09 
   2  -5 -14    0.15    0.08 
   1  -5 -14    0.10    0.08 
   1  -5 -14    0.02    0.08 
   0  -5 -14    0.09    0.08 
  -1  -5 -14    0.35    0.10 
   3  -6 -14    0.10    0.09 
   2  -6 -14    0.36    0.10 
   1  -6 -14    0.54    0.11 
   0  -6 -14    0.07    0.08 
   0   6  14   -0.35    0.14 
   2   6 -15    1.37    0.15 
   2   6 -15    1.04    0.13 
   1   6 -15    0.33    0.09 
   1   6 -15    0.29    0.08 
  -1  -6  15    0.29    0.09 
   0  -6  15    0.06    0.09 
   4   5 -15    0.12    0.08 
   4   5 -15   -0.04    0.06 
   3   5 -15    0.15    0.07 
   3   5 -15    0.07    0.06 
   2   5 -15    0.29    0.08 
   2   5 -15    0.47    0.09 
   1   5 -15    1.59    0.13 
   1   5 -15    1.43    0.13 
  -1  -5  15    1.57    0.17 
   0  -5  15    0.42    0.11 
   0  -5  15    0.21    0.07 
   0  -5  15    0.19    0.10 
   1  -5  15    0.33    0.08 
   1  -5  15    0.36    0.11 
   4   4 -15    0.37    0.10 
   4   4 -15    0.42    0.09 
  -4  -4  15    0.49    0.08 
   3   4 -15    0.10    0.07 
   3   4 -15    0.26    0.08 
  -3  -4  15    0.13    0.07 
   2   4 -15    2.24    0.16 
   2   4 -15    2.55    0.16 
  -2  -4  15    2.56    0.15 
   1   4 -15    1.25    0.12 
   1   4 -15    1.36    0.12 
  -1  -4  15    1.16    0.13 
  -1  -4  15    0.97    0.13 
  -1  -4  15    1.04    0.10 
   0   4 -15    0.07    0.06 
   0  -4  15    0.00    0.07 
   0  -4  15    0.21    0.09 
   0  -4  15    0.20    0.09 
   1  -4  15   -0.03    0.09 
   1  -4  15    0.11    0.08 
   1  -4  15    0.09    0.10 
   2  -4  15    2.36    0.20 
   2  -4  15    2.12    0.16 
   5   3 -15    0.29    0.09 
   5   3 -15    0.16    0.09 
  -5  -3  15    0.19    0.08 
   4   3 -15    0.18    0.07 
   4   3 -15    0.30    0.09 
  -4  -3  15    0.14    0.07 
   3   3 -15    0.88    0.11 
   3   3 -15    0.67    0.10 
  -3  -3  15    0.80    0.09 
   2   3 -15    4.78    0.22 
   2   3 -15    4.44    0.22 
  -2  -3  15    4.46    0.20 
   1   3 -15    0.00    0.05 
   1   3 -15    0.03    0.05 
  -1  -3  15    0.11    0.08 
  -1  -3  15    0.04    0.08 
  -1  -3  15   -0.09    0.06 
   0   3 -15    0.00    0.04 
   0  -3  15    0.04    0.08 
   0  -3  15    0.18    0.09 
   0  -3  15   -0.02    0.07 
   1  -3  15    1.86    0.15 
   1  -3  15    1.78    0.18 
   1  -3  15    2.06    0.19 
   2  -3  15    0.08    0.12 
   2  -3  15    0.24    0.10 
   2  -3  15    0.24    0.09 
   5   2 -15    0.79    0.12 
   5   2 -15    0.93    0.12 
  -5  -2  15    0.90    0.11 
   4   2 -15    0.03    0.06 
  -4  -2  15   -0.04    0.07 
   3   2 -15    0.25    0.07 
  -3  -2  15    0.23    0.08 
   2   2 -15    0.60    0.09 
  -2  -2  15    0.61    0.09 
   1   2 -15    0.42    0.08 
   1   2 -15    0.50    0.07 
  -1  -2  15    0.43    0.08 
  -1  -2  15    0.45    0.09 
   0   2 -15    0.32    0.07 
   0  -2  15    0.23    0.09 
   0  -2  15    0.37    0.10 
   0  -2  15    0.38    0.08 
   1  -2  15    0.30    0.10 
   1  -2  15    0.27    0.10 
   1  -2  15    0.33    0.08 
   2  -2  15    0.95    0.13 
   2  -2  15    0.87    0.14 
   2  -2  15    0.88    0.11 
  -5  -1  15    0.25    0.08 
  -4  -1  15   -0.11    0.06 
   3   1 -15    0.75    0.10 
  -3  -1  15    0.54    0.09 
   2   1 -15    0.05    0.05 
   2   1 -15   -0.02    0.06 
  -2  -1  15   -0.04    0.06 
   1   1 -15    1.47    0.15 
   1   1 -15    1.41    0.14 
  -1  -1  15    1.37    0.13 
  -1  -1  15    1.57    0.13 
   0  -1  15    0.68    0.11 
   0  -1  15    0.72    0.11 
   0  -1  15    0.74    0.10 
   1  -1  15    0.22    0.08 
   1  -1  15    0.20    0.09 
   1  -1  15    0.08    0.09 
   2  -1  15    0.29    0.10 
   2  -1  15    0.19    0.11 
   2  -1  15    0.10    0.07 
   3  -1  15    0.22    0.08 
   3  -1  15    0.27    0.11 
  -5   0  15   -0.06    0.07 
  -4   0  15   -0.03    0.07 
   3   0 -15    0.48    0.09 
  -3   0  15    0.55    0.09 
   2   0 -15    0.24    0.07 
  -2   0  15    0.19    0.07 
   1   0 -15    2.68    0.18 
  -1   0  15    2.40    0.16 
  -1   0  15    2.78    0.18 
   0   0 -15    2.37    0.18 
   0   0  15    2.52    0.19 
   0   0  15    2.63    0.19 
   0   0  15    2.44    0.15 
  -1   0 -15    2.40    0.19 
   1   0  15    2.57    0.19 
   1   0  15    2.30    0.15 
   1   0  15    2.71    0.20 
   2   0  15    0.28    0.07 
   2   0  15    0.30    0.11 
   2   0  15    0.34    0.10 
   3   0  15    0.06    0.07 
  -5   1  15   -0.05    0.07 
  -4   1  15    0.35    0.08 
   3  -1 -15   -0.03    0.03 
   3  -1 -15   -0.07    0.10 
   3  -1 -15    0.03    0.06 
  -3   1  15   -0.01    0.07 
   2  -1 -15   11.28    0.40 
   2  -1 -15   11.34    0.42 
   2  -1 -15   11.47    0.34 
  -2   1  15   11.05    0.40 
  -2   1  15   11.30    0.38 
   1  -1 -15    6.29    0.21 
   1  -1 -15    6.21    0.29 
   1  -1 -15    6.34    0.28 
  -1   1  15    6.31    0.25 
  -1   1  15    6.19    0.28 
  -1   1  15    7.12    0.29 
   0  -1 -15   -0.02    0.07 
   0  -1 -15    0.02    0.04 
   0  -1 -15    0.16    0.08 
   0   1  15   -0.21    0.09 
   0   1  15    0.05    0.07 
   0   1  15    0.04    0.08 
  -1  -1 -15    0.78    0.13 
  -1  -1 -15    0.79    0.07 
  -1  -1 -15    0.83    0.11 
   1   1  15    0.71    0.12 
   1   1  15    0.79    0.09 
   1   1  15    0.63    0.11 
  -2  -1 -15   -0.02    0.04 
   2   1  15    0.07    0.06 
   2   1  15   -0.05    0.11 
   2   1  15    0.00    0.09 
  -5   2  15    0.59    0.09 
   4  -2 -15    1.78    0.15 
   4  -2 -15    1.84    0.18 
  -4   2  15    1.75    0.14 
   3  -2 -15    0.24    0.08 
   3  -2 -15    0.20    0.08 
  -3   2  15    0.16    0.06 
   2  -2 -15    0.26    0.08 
   2  -2 -15    0.10    0.08 
  -2   2  15    0.16    0.06 
  -2   2  15    0.18    0.09 
   1  -2 -15   -0.08    0.06 
   1  -2 -15    0.08    0.07 
   1  -2 -15    0.06    0.04 
  -1   2  15    0.01    0.05 
  -1   2  15   -0.03    0.09 
  -1   2  15    0.09    0.08 
   0  -2 -15    1.31    0.13 
   0  -2 -15    1.49    0.16 
   0  -2 -15    1.34    0.09 
   0   2  15    1.39    0.15 
   0   2  15    1.26    0.10 
   0   2  15    1.08    0.13 
  -1  -2 -15    0.08    0.04 
  -1  -2 -15    0.20    0.10 
  -1  -2 -15    0.16    0.08 
   1   2  15    0.06    0.05 
   1   2  15    0.01    0.09 
  -2  -2 -15    0.40    0.10 
  -2  -2 -15    0.41    0.06 
   2   2  15    0.50    0.06 
  -5   3  15    0.01    0.05 
   4  -3 -15    0.10    0.07 
   4  -3 -15    0.28    0.09 
  -4   3  15    0.20    0.06 
   3  -3 -15    0.29    0.09 
   3  -3 -15    0.33    0.09 
  -3   3  15    0.34    0.06 
   2  -3 -15    2.30    0.18 
   2  -3 -15    2.24    0.18 
  -2   3  15    2.09    0.11 
   1  -3 -15    1.04    0.13 
   1  -3 -15    0.92    0.13 
  -1   3  15    1.32    0.14 
  -1   3  15    0.92    0.08 
   0  -3 -15   -0.05    0.08 
   0  -3 -15    0.04    0.08 
   0  -3 -15    0.02    0.04 
  -1  -3 -15    0.02    0.04 
  -1  -3 -15    0.06    0.08 
  -2  -3 -15    0.41    0.07 
  -2  -3 -15    0.56    0.12 
   4  -4 -15    0.23    0.09 
   4  -4 -15    0.20    0.09 
   3  -4 -15    2.77    0.20 
   3  -4 -15    2.73    0.20 
   2  -4 -15    0.04    0.08 
   2  -4 -15    0.08    0.08 
   1  -4 -15    0.49    0.11 
   1  -4 -15    0.55    0.12 
   0  -4 -15   -0.10    0.07 
  -1  -4 -15   -0.02    0.08 
  -1  -4 -15   -0.06    0.04 
   3  -5 -15    0.01    0.12 
   3  -5 -15    0.14    0.08 
   2  -5 -15    0.40    0.10 
   1  -5 -15    0.02    0.08 
   0  -5 -15    0.02    0.08 
   2   5 -16    0.41    0.09 
   2   5 -16    0.20    0.08 
   1   5 -16    0.56    0.09 
  -1  -5  16    0.67    0.12 
  -1  -5  16    0.60    0.10 
   0  -5  16    0.27    0.11 
   0  -5  16    0.17    0.08 
   3   4 -16    0.50    0.10 
   3   4 -16    0.40    0.09 
  -3  -4  16    0.57    0.09 
   2   4 -16    0.05    0.06 
   2   4 -16    0.05    0.06 
  -2  -4  16   -0.05    0.07 
   1   4 -16    0.31    0.07 
  -1  -4  16    0.42    0.09 
  -1  -4  16    0.23    0.12 
  -1  -4  16    0.43    0.11 
   0  -4  16    0.18    0.08 
   0  -4  16    0.05    0.10 
   1  -4  16    0.86    0.13 
   1  -4  16    0.62    0.10 
   4   3 -16    0.13    0.07 
   4   3 -16    0.17    0.08 
  -4  -3  16   -0.01    0.08 
   3   3 -16    1.18    0.13 
   3   3 -16    0.89    0.12 
  -3  -3  16    0.91    0.11 
   2   3 -16    0.19    0.07 
   2   3 -16    0.39    0.08 
  -2  -3  16    0.26    0.08 
   1   3 -16    0.02    0.05 
  -1  -3  16   -0.05    0.09 
  -1  -3  16   -0.02    0.07 
  -1  -3  16    0.01    0.09 
   0  -3  16    1.88    0.18 
   0  -3  16    1.87    0.15 
   0  -3  16    1.79    0.19 
   1  -3  16    0.34    0.09 
   1  -3  16    0.16    0.10 
   4   2 -16    0.72    0.11 
  -4  -2  16    0.87    0.11 
   3   2 -16    0.09    0.07 
  -3  -2  16    0.22    0.08 
   2   2 -16    0.05    0.06 
  -2  -2  16    0.08    0.07 
   1   2 -16    0.07    0.06 
  -1  -2  16    0.01    0.07 
  -1  -2  16   -0.05    0.08 
  -1  -2  16    0.00    0.08 
   0  -2  16    0.56    0.11 
   0  -2  16    0.57    0.10 
   0  -2  16    0.57    0.11 
   1  -2  16   -0.07    0.09 
   1  -2  16    0.01    0.07 
   1  -2  16   -0.02    0.09 
   2  -2  16    0.04    0.08 
  -4  -1  16    1.01    0.12 
   3   1 -16    0.46    0.09 
  -3  -1  16    0.53    0.09 
   2   1 -16    0.16    0.06 
   2   1 -16    0.31    0.09 
  -2  -1  16    0.28    0.08 
  -1  -1  16    0.05    0.08 
  -1  -1  16    0.08    0.09 
  -1  -1  16    0.07    0.07 
   0  -1  16    0.05    0.07 
   0  -1  16   -0.10    0.08 
   0  -1  16    0.07    0.08 
   1  -1  16   -0.10    0.09 
   1  -1  16    0.11    0.07 
   1  -1  16    0.01    0.09 
   2  -1  16    0.30    0.12 
   2  -1  16    0.28    0.11 
   2  -1  16    0.20    0.08 
  -5   0  16    0.06    0.08 
  -4   0  16    0.06    0.08 
   3   0 -16    0.21    0.08 
  -3   0  16    0.34    0.08 
   2   0 -16    0.09    0.07 
  -2   0  16    0.11    0.09 
  -2   0  16    0.01    0.07 
   1   0 -16    0.05    0.08 
  -1   0  16    0.13    0.08 
  -1   0  16    0.14    0.07 
  -1   0  16    0.19    0.09 
   0   0 -16    0.49    0.12 
   0   0  16    0.31    0.10 
   0   0  16    0.26    0.08 
   0   0  16    0.34    0.10 
   1   0  16    0.19    0.10 
   1   0  16    0.07    0.09 
   1   0  16    0.07    0.07 
   2   0  16    0.87    0.10 
   2   0  16    0.81    0.15 
   2   0  16    0.94    0.13 
  -4   1  16    0.06    0.07 
   3  -1 -16    0.55    0.10 
  -3   1  16    0.51    0.09 
   2  -1 -16    0.02    0.03 
   2  -1 -16    0.00    0.07 
  -2   1  16    0.08    0.07 
  -2   1  16    0.12    0.09 
   1  -1 -16    0.00    0.03 
   1  -1 -16    0.01    0.07 
  -1   1  16    0.14    0.08 
  -1   1  16    0.07    0.07 
  -1   1  16   -0.04    0.09 
   0  -1 -16    0.23    0.04 
   0  -1 -16    0.29    0.09 
   0   1  16    0.17    0.07 
   0   1  16    0.21    0.10 
   0   1  16    0.25    0.09 
  -1  -1 -16    0.09    0.04 
   1   1  16    0.14    0.07 
   1   1  16    0.15    0.10 
   1   1  16    0.12    0.10 
  -4   2  16    0.15    0.08 
   3  -2 -16    1.60    0.16 
  -3   2  16    1.59    0.13 
  -3   2  16    1.66    0.17 
   2  -2 -16    1.13    0.14 
   2  -2 -16    1.09    0.13 
   2  -2 -16    1.32    0.09 
  -2   2  16    1.21    0.13 
  -2   2  16    1.08    0.10 
   1  -2 -16    2.82    0.13 
   1  -2 -16    2.94    0.21 
   1  -2 -16    2.75    0.20 
  -1   2  16    2.73    0.21 
  -1   2  16    3.00    0.20 
  -1   2  16    2.64    0.14 
   0  -2 -16    0.36    0.10 
   0  -2 -16    0.46    0.13 
   0  -2 -16    0.43    0.06 
   0   2  16    0.40    0.10 
   0   2  16    0.42    0.07 
  -1  -2 -16    0.19    0.09 
  -1  -2 -16    0.02    0.04 
   1   2  16    0.00    0.05 
   1   2  16    0.07    0.10 
   4  -3 -16    0.24    0.13 
  -4   3  16    0.39    0.06 
   3  -3 -16    0.70    0.12 
   3  -3 -16    0.80    0.12 
  -3   3  16    0.70    0.07 
   2  -3 -16    3.30    0.23 
   2  -3 -16    3.46    0.22 
  -2   3  16    3.19    0.13 
   1  -3 -16    0.00    0.08 
   1  -3 -16   -0.02    0.08 
   0  -3 -16    0.57    0.11 
   0  -3 -16    0.76    0.08 
  -1  -3 -16    1.56    0.11 
   3  -4 -16    0.70    0.12 
   3  -4 -16    0.56    0.12 
   2  -4 -16    0.22    0.09 
   1  -4 -16    0.74    0.12 
   3   3 -17   -0.09    0.06 
   3   3 -17    0.04    0.07 
  -3  -3  17    0.01    0.08 
   2   3 -17    0.51    0.10 
  -2  -3  17    0.45    0.10 
   1   3 -17    0.03    0.05 
  -1  -3  17   -0.01    0.09 
  -1  -3  17   -0.02    0.08 
   0  -3  17    1.13    0.14 
   0  -3  17    1.12    0.12 
   3   2 -17    0.16    0.07 
   3   2 -17    0.04    0.07 
  -3  -2  17    0.07    0.08 
   2   2 -17   -0.03    0.05 
  -2  -2  17   -0.01    0.09 
  -2  -2  17    0.00    0.08 
   1   2 -17    0.55    0.09 
  -1  -2  17    0.73    0.11 
  -1  -2  17    0.54    0.12 
  -1  -2  17    0.56    0.11 
   0  -2  17    0.52    0.12 
   0  -2  17    0.46    0.10 
   0  -2  17    0.35    0.12 
   3   1 -17    0.28    0.08 
  -3  -1  17    0.45    0.10 
  -2  -1  17    0.64    0.10 
  -2  -1  17    0.68    0.11 
  -1  -1  17    0.98    0.13 
  -1  -1  17    0.91    0.13 
  -1  -1  17    1.08    0.12 
   0  -1  17    0.13    0.09 
   0  -1  17    0.12    0.08 
   0  -1  17    0.13    0.10 
   1  -1  17    0.42    0.14 
  -3   0  17    0.04    0.07 
   2   0 -17    1.41    0.15 
  -2   0  17    1.20    0.12 
  -2   0  17    1.16    0.13 
   1   0 -17    0.32    0.10 
  -1   0  17    0.19    0.08 
  -1   0  17    0.21    0.09 
  -1   0  17    0.11    0.09 
   0   0  17    0.41    0.11 
   0   0  17    0.40    0.09 
   0   0  17    0.35    0.10 
   3  -1 -17    0.42    0.11 
  -3   1  17    0.56    0.11 
  -3   1  17    0.52    0.10 
   2  -1 -17    0.11    0.08 
  -2   1  17    0.22    0.09 
  -2   1  17    0.14    0.07 
   1  -1 -17    0.04    0.08 
   1  -1 -17    0.04    0.03 
  -1   1  17    0.15    0.09 
  -1   1  17    0.03    0.10 
  -1   1  17    0.21    0.08 
   0  -1 -17    0.03    0.03 
   0   1  17    0.00    0.10 
   0   1  17    0.02    0.07 
   0   1  17   -0.01    0.09 
   3  -2 -17   -0.01    0.04 
   3  -2 -17   -0.04    0.07 
  -3   2  17    0.01    0.07 
   2  -2 -17    0.72    0.07 
   2  -2 -17    0.72    0.13 
  -2   2  17    0.64    0.09 
   1  -2 -17    1.00    0.09 
  -1   2  17    1.01    0.12 
  -1   2  17    1.05    0.09 
   0  -2 -17    0.04    0.04 
   0   2  17    0.09    0.13 
   0   2  17   -0.06    0.06 
   0   0   0    0.00    0.00 
;
_shelx_hkl_checksum              21082
loop_
_space_group_symop_operation_xyz
'x, y, z'
'-x, -y, -z'
loop_
_atom_site_label
_atom_site_type_symbol
_atom_site_fract_x
_atom_site_fract_y
_atom_site_fract_z
_atom_site_U_iso_or_equiv
_atom_site_adp_type
_atom_site_occupancy
_atom_site_site_symmetry_order
_atom_site_calc_flag
_atom_site_refinement_flags_posn
_atom_site_refinement_flags_adp
C1 C 0.3410(3) 0.58587(19) 0.10001(12) 0.0492(4) Uani 1 1 d . .
H1 H 0.1995 0.5572 0.0843 0.059 Uiso 1 1 calc R U
C2 C 0.4334(4) 0.6725(2) 0.03982(13) 0.0593(5) Uani 1 1 d . .
H2 H 0.3523 0.7017 -0.0170 0.071 Uiso 1 1 calc R U
C3 C 0.6435(4) 0.7169(2) 0.06192(14) 0.0608(5) Uani 1 1 d . .
H3 H 0.7014 0.7750 0.0200 0.073 Uiso 1 1 calc R U
C4 C 0.7668(3) 0.6755(2) 0.14538(14) 0.0546(5) Uani 1 1 d . .
H4 H 0.9079 0.7051 0.1609 0.066 Uiso 1 1 calc R U
C5 C 0.6743(3) 0.58810(18) 0.20607(12) 0.0424(4) Uani 1 1 d . .
C6 C 0.7720(2) 0.52944(18) 0.29832(12) 0.0413(4) Uani 1 1 d . .
C7 C 0.6053(2) 0.44377(18) 0.33449(11) 0.0367(4) Uani 1 1 d . .
C8 C 0.4031(2) 0.44412(17) 0.26022(10) 0.0364(4) Uani 1 1 d . .
H8 H 0.2959 0.4906 0.2889 0.044 Uiso 1 1 calc R U
C9 C 0.4644(3) 0.54261(17) 0.18452(11) 0.0388(4) Uani 1 1 d . .
C10 C 0.6512(2) 0.38432(18) 0.42037(11) 0.0406(4) Uani 1 1 d . .
H10 H 0.7900 0.4010 0.4511 0.049 Uiso 1 1 calc R U
C11 C 0.5242(2) 0.29843(18) 0.47469(11) 0.0390(4) Uani 1 1 d . .
C12 C 0.6240(3) 0.2380(2) 0.55938(12) 0.0500(4) Uani 1 1 d . .
H12 H 0.7681 0.2525 0.5781 0.060 Uiso 1 1 calc R U
C13 C 0.5153(3) 0.1578(2) 0.61600(13) 0.0542(5) Uani 1 1 d . .
H13 H 0.5851 0.1176 0.6718 0.065 Uiso 1 1 calc R U
C14 C 0.3015(3) 0.13778(19) 0.58882(12) 0.0448(4) Uani 1 1 d . .
C15 C 0.1974(3) 0.1966(2) 0.50605(12) 0.0463(4) Uani 1 1 d . .
H15 H 0.0531 0.1828 0.4884 0.056 Uiso 1 1 calc R U
C16 C 0.3073(2) 0.2758(2) 0.44974(11) 0.0441(4) Uani 1 1 d . .
H16 H 0.2360 0.3151 0.3939 0.053 Uiso 1 1 calc R U
C17 C 0.3199(2) 0.29103(17) 0.21499(10) 0.0350(3) Uani 1 1 d . .
C18 C 0.4533(3) 0.18306(19) 0.19968(12) 0.0434(4) Uani 1 1 d . .
H18 H 0.5964 0.2022 0.2200 0.052 Uiso 1 1 calc R U
C19 C 0.3788(3) 0.0466(2) 0.15461(13) 0.0515(5) Uani 1 1 d . .
H19 H 0.4716 -0.0247 0.1447 0.062 Uiso 1 1 calc R U
C20 C 0.1676(3) 0.0163(2) 0.12437(12) 0.0534(5) Uani 1 1 d . .
H20 H 0.1170 -0.0752 0.0938 0.064 Uiso 1 1 calc R U
C21 C 0.0320(3) 0.1223(2) 0.13965(13) 0.0577(5) Uani 1 1 d . .
H21 H -0.1111 0.1021 0.1200 0.069 Uiso 1 1 calc R U
C22 C 0.1072(3) 0.2592(2) 0.18418(13) 0.0500(4) Uani 1 1 d . .
H22 H 0.0142 0.3306 0.1936 0.060 Uiso 1 1 calc R U
Cl1 Cl 0.15916(8) 0.04191(6) 0.66094(3) 0.06340(18) Uani 1 1 d . .
O1 O 0.95620(18) 0.54573(15) 0.33717(9) 0.0572(3) Uani 1 1 d . .
loop_
_atom_site_aniso_label
_atom_site_aniso_U_11
_atom_site_aniso_U_22
_atom_site_aniso_U_33
_atom_site_aniso_U_23
_atom_site_aniso_U_13
_atom_site_aniso_U_12
C1 0.0583(11) 0.0391(10) 0.0492(10) -0.0005(8) 0.0064(8) 0.0111(8)
C2 0.0892(15) 0.0427(11) 0.0474(10) 0.0080(8) 0.0127(10) 0.0169(10)
C3 0.0889(16) 0.0398(11) 0.0597(12) 0.0050(9) 0.0290(11) 0.0017(10)
C4 0.0664(12) 0.0412(11) 0.0608(11) -0.0014(9) 0.0259(10) -0.0011(9)
C5 0.0492(10) 0.0320(9) 0.0478(9) -0.0050(7) 0.0152(7) 0.0043(7)
C6 0.0380(9) 0.0369(9) 0.0497(9) -0.0076(7) 0.0118(7) 0.0036(7)
C7 0.0334(8) 0.0354(9) 0.0407(8) -0.0056(7) 0.0066(6) 0.0040(6)
C8 0.0349(8) 0.0364(9) 0.0380(8) -0.0033(7) 0.0074(6) 0.0067(6)
C9 0.0482(9) 0.0279(8) 0.0415(8) -0.0045(7) 0.0116(7) 0.0085(7)
C10 0.0333(8) 0.0430(10) 0.0426(9) -0.0064(7) 0.0015(7) 0.0036(7)
C11 0.0384(8) 0.0400(9) 0.0364(8) -0.0041(7) 0.0029(7) 0.0049(7)
C12 0.0378(9) 0.0613(12) 0.0470(10) 0.0045(8) -0.0016(7) 0.0032(8)
C13 0.0503(10) 0.0632(13) 0.0455(10) 0.0147(9) -0.0020(8) 0.0050(9)
C14 0.0505(10) 0.0399(10) 0.0425(9) 0.0000(7) 0.0065(7) -0.0005(8)
C15 0.0382(9) 0.0539(11) 0.0440(9) -0.0028(8) 0.0027(7) 0.0006(8)
C16 0.0390(9) 0.0555(11) 0.0353(8) 0.0023(7) 0.0002(7) 0.0052(8)
C17 0.0375(8) 0.0364(9) 0.0309(7) 0.0021(6) 0.0061(6) 0.0027(7)
C18 0.0417(9) 0.0393(10) 0.0472(9) -0.0005(7) 0.0036(7) 0.0049(7)
C19 0.0648(12) 0.0353(10) 0.0525(10) -0.0016(8) 0.0058(9) 0.0094(8)
C20 0.0714(13) 0.0390(10) 0.0460(10) -0.0004(8) 0.0060(9) -0.0103(9)
C21 0.0459(10) 0.0643(13) 0.0580(11) -0.0069(9) 0.0045(8) -0.0132(9)
C22 0.0386(9) 0.0543(12) 0.0554(10) -0.0082(9) 0.0074(8) 0.0035(8)
Cl1 0.0645(3) 0.0642(3) 0.0599(3) 0.0142(2) 0.0098(2) -0.0102(2)
O1 0.0363(7) 0.0639(9) 0.0700(8) -0.0002(7) 0.0090(6) -0.0027(6)
loop_
_atom_type_symbol
_atom_type_description
_atom_type_scat_dispersion_real
_atom_type_scat_dispersion_imag
_atom_type_scat_source
C C 0.0033 0.0016 'International Tables Vol C Tables 4.2.6.8 and 6.1.1.4'
H H 0.0000 0.0000 'International Tables Vol C Tables 4.2.6.8 and 6.1.1.4'
O O 0.0106 0.0060 'International Tables Vol C Tables 4.2.6.8 and 6.1.1.4'
Cl Cl 0.1484 0.1585 'International Tables Vol C Tables 4.2.6.8 and 6.1.1.4'
loop_
_geom_angle_atom_site_label_1
_geom_angle_atom_site_label_2
_geom_angle_atom_site_label_3
_geom_angle
C2 C1 C9 118.49(18)
C2 C1 H1 120.8
C9 C1 H1 120.8
C1 C2 C3 121.71(18)
C1 C2 H2 119.1
C3 C2 H2 119.1
C4 C3 C2 120.37(18)
C4 C3 H3 119.8
C2 C3 H3 119.8
C3 C4 C5 118.08(18)
C3 C4 H4 121.0
C5 C4 H4 121.0
C9 C5 C4 122.04(16)
C9 C5 C6 109.56(14)
C4 C5 C6 128.40(16)
O1 C6 C5 126.49(16)
O1 C6 C7 126.42(16)
C5 C6 C7 107.08(13)
C10 C7 C6 119.20(14)
C10 C7 C8 132.13(15)
C6 C7 C8 108.67(13)
C9 C8 C7 102.61(12)
C9 C8 C17 110.08(12)
C7 C8 C17 114.68(13)
C9 C8 H8 109.7
C7 C8 H8 109.7
C17 C8 H8 109.7
C5 C9 C1 119.32(16)
C5 C9 C8 111.96(14)
C1 C9 C8 128.70(15)
C7 C10 C11 131.92(15)
C7 C10 H10 114.0
C11 C10 H10 114.0
C12 C11 C16 117.27(15)
C12 C11 C10 118.13(14)
C16 C11 C10 124.57(14)
C13 C12 C11 121.92(16)
C13 C12 H12 119.0
C11 C12 H12 119.0
C12 C13 C14 119.02(16)
C12 C13 H13 120.5
C14 C13 H13 120.5
C15 C14 C13 120.72(16)
C15 C14 Cl1 119.20(13)
C13 C14 Cl1 120.05(13)
C16 C15 C14 119.84(16)
C16 C15 H15 120.1
C14 C15 H15 120.1
C15 C16 C11 121.23(15)
C15 C16 H16 119.4
C11 C16 H16 119.4
C18 C17 C22 118.10(15)
C18 C17 C8 121.15(13)
C22 C17 C8 120.68(14)
C17 C18 C19 121.29(16)
C17 C18 H18 119.4
C19 C18 H18 119.4
C20 C19 C18 120.10(17)
C20 C19 H19 119.9
C18 C19 H19 119.9
C21 C20 C19 119.43(17)
C21 C20 H20 120.3
C19 C20 H20 120.3
C20 C21 C22 120.31(17)
C20 C21 H21 119.8
C22 C21 H21 119.8
C21 C22 C17 120.76(17)
C21 C22 H22 119.6
C17 C22 H22 119.6
loop_
_geom_bond_atom_site_label_1
_geom_bond_atom_site_label_2
_geom_bond_distance
C1 C2 1.383(3)
C1 C9 1.391(2)
C1 H1 0.9300
C2 C3 1.385(3)
C2 H2 0.9300
C3 C4 1.373(3)
C3 H3 0.9300
C4 C5 1.392(2)
C4 H4 0.9300
C5 C9 1.386(2)
C5 C6 1.472(2)
C6 O1 1.2233(19)
C6 C7 1.489(2)
C7 C10 1.338(2)
C7 C8 1.524(2)
C8 C9 1.520(2)
C8 C17 1.526(2)
C8 H8 0.9800
C10 C11 1.455(2)
C10 H10 0.9300
C11 C12 1.396(2)
C11 C16 1.398(2)
C12 C13 1.376(3)
C12 H12 0.9300
C13 C14 1.378(2)
C13 H13 0.9300
C14 C15 1.378(2)
C14 Cl1 1.7393(18)
C15 C16 1.372(2)
C15 H15 0.9300
C16 H16 0.9300
C17 C18 1.376(2)
C17 C22 1.388(2)
C18 C19 1.383(2)
C18 H18 0.9300
C19 C20 1.376(3)
C19 H19 0.9300
C20 C21 1.374(3)
C20 H20 0.9300
C21 C22 1.385(2)
C21 H21 0.9300
C22 H22 0.9300
loop_
_geom_torsion_atom_site_label_1
_geom_torsion_atom_site_label_2
_geom_torsion_atom_site_label_3
_geom_torsion_atom_site_label_4
_geom_torsion
C9 C1 C2 C3 -0.2(3)
C1 C2 C3 C4 -0.1(3)
C2 C3 C4 C5 0.2(3)
C3 C4 C5 C9 0.0(3)
C3 C4 C5 C6 179.71(16)
C9 C5 C6 O1 178.18(16)
C4 C5 C6 O1 -1.5(3)
C9 C5 C6 C7 -0.65(17)
C4 C5 C6 C7 179.63(16)
O1 C6 C7 C10 4.4(3)
C5 C6 C7 C10 -176.76(14)
O1 C6 C7 C8 -176.15(15)
C5 C6 C7 C8 2.68(16)
C10 C7 C8 C9 175.87(17)
C6 C7 C8 C9 -3.46(15)
C10 C7 C8 C17 -64.8(2)
C6 C7 C8 C17 115.88(14)
C4 C5 C9 C1 -0.3(2)
C6 C5 C9 C1 179.91(14)
C4 C5 C9 C8 178.07(14)
C6 C5 C9 C8 -1.68(18)
C2 C1 C9 C5 0.4(2)
C2 C1 C9 C8 -177.67(16)
C7 C8 C9 C5 3.19(16)
C17 C8 C9 C5 -119.32(14)
C7 C8 C9 C1 -178.59(15)
C17 C8 C9 C1 58.9(2)
C6 C7 C10 C11 178.98(15)
C8 C7 C10 C11 -0.3(3)
C7 C10 C11 C12 173.42(17)
C7 C10 C11 C16 -8.7(3)
C16 C11 C12 C13 0.8(3)
C10 C11 C12 C13 178.77(17)
C11 C12 C13 C14 -0.7(3)
C12 C13 C14 C15 0.2(3)
C12 C13 C14 Cl1 -177.95(14)
C13 C14 C15 C16 0.2(3)
Cl1 C14 C15 C16 178.35(13)
C14 C15 C16 C11 -0.1(3)
C12 C11 C16 C15 -0.4(2)
C10 C11 C16 C15 -178.22(16)
C9 C8 C17 C18 81.69(18)
C7 C8 C17 C18 -33.4(2)
C9 C8 C17 C22 -95.42(17)
C7 C8 C17 C22 149.51(15)
C22 C17 C18 C19 0.2(2)
C8 C17 C18 C19 -176.93(15)
C17 C18 C19 C20 -0.2(3)
C18 C19 C20 C21 -0.2(3)
C19 C20 C21 C22 0.7(3)
C20 C21 C22 C17 -0.7(3)
C18 C17 C22 C21 0.2(3)
C8 C17 C22 C21 177.41(16)
