#------------------------------------------------------------------------------
#$Date: 2019-11-24 16:44:29 +0200 (Sun, 24 Nov 2019) $
#$Revision: 238624 $
#$URL: file:///home/coder/svn-repositories/cod/cif/1/55/54/1555406.cif $
#------------------------------------------------------------------------------
#
# This file is available in the Crystallography Open Database (COD),
# http://www.crystallography.net/
#
# All data on this site have been placed in the public domain by the
# contributors.
#
data_1555406
loop_
_publ_author_name
'Li, Zequan'
'Shi, Yian'
_publ_section_title
;
 Chiral Phosphine Oxide-Sc(OTf)3 Complex Catalyzed Enantioselective
 Bromoaminocyclization of 2-Benzofuranylmethyl N-Tosylcarbamates. Approach
 to a Novel Class of Optically Active Spiro Compounds.
;
_journal_issue                   23
_journal_name_full               'Organic letters'
_journal_page_first              5752
_journal_page_last               5755
_journal_paper_doi               10.1021/acs.orglett.5b02817
_journal_volume                  17
_journal_year                    2015
_chemical_absolute_configuration ad
_chemical_formula_moiety         'C17 H15 N O6 S'
_chemical_formula_sum            'C17 H15 N O6 S'
_chemical_formula_weight         361.36
_space_group_crystal_system      monoclinic
_space_group_IT_number           4
_space_group_name_Hall           'P 2yb'
_space_group_name_H-M_alt        'P 1 21 1'
_atom_sites_solution_hydrogens   geom
_audit_creation_date             2015-07-28
_audit_creation_method
;
Olex2 1.2
(compiled 2015.01.19 svn.r3143 for OlexSys, GUI svn.r4992)
;
_cell_angle_alpha                90
_cell_angle_beta                 104.11(3)
_cell_angle_gamma                90
_cell_formula_units_Z            2
_cell_length_a                   7.5529(15)
_cell_length_b                   11.091(2)
_cell_length_c                   10.123(2)
_cell_measurement_reflns_used    2687
_cell_measurement_temperature    173.1500
_cell_measurement_theta_max      27.4790
_cell_measurement_theta_min      1.8362
_cell_volume                     822.4(3)
_computing_cell_refinement       'CrystalClear (Rigaku Inc., 2007)'
_computing_data_collection       'CrystalClear (Rigaku Inc., 2007)'
_computing_data_reduction        'CrystalClear (Rigaku Inc., 2007)'
_computing_molecular_graphics    'Olex2 (Dolomanov et al., 2013)'
_computing_publication_material  'Olex2 (Dolomanov et al., 2013)'
_computing_structure_refinement  'ShelXL (Sheldrick, 2013)'
_computing_structure_solution
;
 'XS (Sheldrick, 2013)'
;
_diffrn_ambient_temperature      173.1500
_diffrn_detector_area_resol_mean 28.5714
_diffrn_measured_fraction_theta_full 0.997
_diffrn_measured_fraction_theta_max 0.994
_diffrn_measurement_details
;
scan:
	Number of images: 360
	           Slice: -110.0000 - 70.0000
	     Image width: 0.5000
	        Exp time: 8.0000
	   Rotation axis: Omega
	           Omega: 0.0000
	             Chi: 45.0000
	             Phi: 90.0000
	             XTD: 45.0675
	          2theta: -20.3714
scan:
	Number of images: 360
	           Slice: -110.0000 - 70.0000
	     Image width: 0.5000
	        Exp time: 8.0000
	   Rotation axis: Omega
	           Omega: 0.0000
	             Chi: 45.0000
	             Phi: 180.0000
	             XTD: 45.0675
	          2theta: -20.3714
scan:
	Number of images: 330
	           Slice: -110.0000 - 55.0000
	     Image width: 0.5000
	        Exp time: 8.0000
	   Rotation axis: Omega
	           Omega: 0.0000
	             Chi: 45.0000
	             Phi: 0.0000
	             XTD: 45.0675
	          2theta: -20.3714
;
_diffrn_measurement_device
;
Saturn724+ (2x2 bin mode)
;
_diffrn_measurement_device_details
;
AFC10: Fixed Chi 2 circle
;
_diffrn_measurement_device_type  'Saturn724+ CCD'
_diffrn_measurement_method       '\w scans at fixed \c = 45\%'
_diffrn_orient_matrix_type       d*Trek
_diffrn_orient_matrix_UB_11      0.0089
_diffrn_orient_matrix_UB_12      0.0003
_diffrn_orient_matrix_UB_13      -0.1362
_diffrn_orient_matrix_UB_21      0.0900
_diffrn_orient_matrix_UB_22      -0.0016
_diffrn_orient_matrix_UB_23      0.0059
_diffrn_orient_matrix_UB_31      -0.0001
_diffrn_orient_matrix_UB_32      -0.0987
_diffrn_orient_matrix_UB_33      -0.0251
_diffrn_radiation_detector       CCD
_diffrn_radiation_monochromator  'Graphite Monochromator'
_diffrn_radiation_type           MoK\a
_diffrn_radiation_wavelength     0.71073
_diffrn_reflns_av_R_equivalents  0.0341
_diffrn_reflns_av_unetI/netI     0.0336
_diffrn_reflns_Laue_measured_fraction_full 0.997
_diffrn_reflns_Laue_measured_fraction_max 0.994
_diffrn_reflns_limit_h_max       9
_diffrn_reflns_limit_h_min       -9
_diffrn_reflns_limit_k_max       14
_diffrn_reflns_limit_k_min       -14
_diffrn_reflns_limit_l_max       13
_diffrn_reflns_limit_l_min       -13
_diffrn_reflns_number            9445
_diffrn_reflns_point_group_measured_fraction_full 0.981
_diffrn_reflns_point_group_measured_fraction_max 0.975
_diffrn_reflns_theta_full        26.000
_diffrn_reflns_theta_max         27.507
_diffrn_reflns_theta_min         3.333
_diffrn_source                   'Sealed Tube'
_diffrn_source_current           30.0000
_diffrn_source_power             1.5000
_diffrn_source_voltage           50.0000
_exptl_absorpt_coefficient_mu    0.231
_exptl_absorpt_correction_T_max  1.0000
_exptl_absorpt_correction_T_min  0.8660
_exptl_absorpt_correction_type   multi-scan
_exptl_absorpt_process_details   'CrystalClear (Rigaku Inc., 2007)'
_exptl_crystal_colour            Colorless
_exptl_crystal_density_diffrn    1.459
_exptl_crystal_description       block
_exptl_crystal_F_000             376
_exptl_crystal_size_max          0.227
_exptl_crystal_size_mid          0.209
_exptl_crystal_size_min          0.103
_refine_diff_density_max         0.235
_refine_diff_density_min         -0.169
_refine_diff_density_rms         0.036
_refine_ls_abs_structure_details
;
 Flack x determined using 1415 quotients [(I+)-(I-)]/[(I+)+(I-)]
 (Parsons and Flack (2004), Acta Cryst. A60, s61).
;
_refine_ls_abs_structure_Flack   0.04(4)
_refine_ls_extinction_method     none
_refine_ls_goodness_of_fit_ref   1.123
_refine_ls_hydrogen_treatment    constr
_refine_ls_matrix_type           full
_refine_ls_number_parameters     228
_refine_ls_number_reflns         3698
_refine_ls_number_restraints     1
_refine_ls_restrained_S_all      1.123
_refine_ls_R_factor_all          0.0475
_refine_ls_R_factor_gt           0.0440
_refine_ls_shift/su_max          0.000
_refine_ls_shift/su_mean         0.000
_refine_ls_structure_factor_coef Fsqd
_refine_ls_weighting_details
'w=1/[\s^2^(Fo^2^)+(0.0305P)^2^+0.2189P] where P=(Fo^2^+2Fc^2^)/3'
_refine_ls_weighting_scheme      calc
_refine_ls_wR_factor_gt          0.0883
_refine_ls_wR_factor_ref         0.0903
_reflns_Friedel_coverage         0.864
_reflns_Friedel_fraction_full    0.963
_reflns_Friedel_fraction_max     0.954
_reflns_number_gt                3503
_reflns_number_total             3698
_reflns_threshold_expression     'I > 2\s(I)'
_cod_data_source_file            ol5b02817_si_007.cif
_cod_data_source_block           sa4278
_cod_original_cell_volume        822.3(3)
_cod_database_code               1555406
_shelxl_version_number           2013-4
_shelx_space_group_comment
;
The symmetry employed for this shelxl refinement is uniquely defined
by the following loop, which should always be used as a source of
symmetry information in preference to the above space-group names.
They are only intended as comments.
;
_diffrn_number_total             1993
_olex2_refinement_description
;
1. Fixed Uiso
 At 1.2 times of:
  All C(H) groups, All C(H,H) groups
 At 1.5 times of:
  All C(H,H,H) groups, All O(H) groups
2.a Ternary CH refined with riding coordinates:
 C4(H4)
2.b Secondary CH2 refined with riding coordinates:
 C2(H2A,H2B)
2.c Aromatic/amide H refined with riding coordinates:
 C7(H7), C8(H8), C9(H9), C10(H10), C12(H12), C13(H13), C15(H15), C16(H16)
2.d Idealised Me refined as rotating group:
 C17(H17A,H17B,H17C)
2.e Idealised tetrahedral OH refined as rotating group:
 O6(H6)
;
_shelx_res_file
;
TITL sa4278 in P2(1)
CELL 0.71073 7.5529 11.0907 10.1225 90 104.112 90
ZERR 2 0.0015 0.0022 0.002 0 0.03 0
LATT -1
SYMM -X,0.5+Y,-Z
SFAC C H N O S
UNIT 34 30 2 12 2

L.S. 4
PLAN  20
BOND
fmap 2
MORE -1
BOND $H
ACTA 52
CONF
OMIT 0 0 1
OMIT 1 0 0
REM <olex2.extras>
REM <HklSrc "%.\\sa4278.hkl">
REM </olex2.extras>

WGHT    0.030500    0.218900
FVAR      13.59714
S1    5    0.429054    0.360720    0.693076    11.00000    0.03209    0.04652 =
         0.03627   -0.00507    0.00837   -0.00370
O1    4    0.494357    0.242328    0.678705    11.00000    0.04650    0.04250 =
         0.05669   -0.01450    0.02262   -0.00677
O2    4    0.255796    0.399285    0.612530    11.00000    0.03338    0.07895 =
         0.04038   -0.00681    0.00065   -0.00028
O3    4    0.431846    0.630678    0.668049    11.00000    0.06878    0.05339 =
         0.05162    0.01292    0.02140    0.01539
O4    4    0.715121    0.629164    0.635197    11.00000    0.06345    0.04476 =
         0.05239    0.01029    0.01424   -0.00425
O5    4    0.870243    0.401723    0.793466    11.00000    0.04240    0.04299 =
         0.03173   -0.00126   -0.00270   -0.00484
O6    4    0.900823    0.331195    0.471826    11.00000    0.03702    0.08992 =
         0.03730   -0.00819    0.01363   -0.01037
AFIX 147
H6    2    1.010074    0.336234    0.508484    11.00000   -1.50000
AFIX   0
N1    3    0.582746    0.451121    0.649057    11.00000    0.03507    0.04297 =
         0.03130    0.00090    0.00831   -0.00075
C1    1    0.562057    0.576933    0.652265    11.00000    0.05532    0.04684 =
         0.03487    0.01125    0.00809    0.00187
C2    1    0.833251    0.538279    0.601348    11.00000    0.04114    0.05646 =
         0.04077    0.00708    0.00632   -0.01170
AFIX  23
H2A   2    0.959831    0.555188    0.645576    11.00000   -1.20000
H2B   2    0.820142    0.535076    0.503672    11.00000   -1.20000
AFIX   0
C3    1    0.772600    0.419438    0.653027    11.00000    0.03105    0.04927 =
         0.03048    0.00165    0.00202   -0.00561
C4    1    0.802736    0.305503    0.571759    11.00000    0.02883    0.06042 =
         0.03936   -0.00873    0.01116   -0.00653
AFIX  13
H4    2    0.684356    0.269798    0.527767    11.00000   -1.20000
AFIX   0
C5    1    0.902184    0.224202    0.682708    11.00000    0.03063    0.05008 =
         0.05109   -0.00479    0.01680   -0.00526
C6    1    0.941212    0.285702    0.805214    11.00000    0.02906    0.04356 =
         0.04820    0.00657    0.00798   -0.00531
C7    1    1.041091    0.237118    0.925658    11.00000    0.03617    0.06271 =
         0.05530    0.01663    0.00290   -0.00799
AFIX  43
H7    2    1.065716    0.279651    1.007285    11.00000   -1.20000
AFIX   0
C8    1    1.103283    0.118388    0.916360    11.00000    0.03536    0.07474 =
         0.09050    0.03774    0.01367    0.00865
AFIX  43
H8    2    1.174486    0.081808    0.993965    11.00000   -1.20000
AFIX   0
C9    1    1.061942    0.055020    0.796150    11.00000    0.05340    0.06086 =
         0.10799    0.01206    0.03693    0.01615
AFIX  43
H9    2    1.102633   -0.023949    0.794181    11.00000   -1.20000
AFIX   0
C10   1    0.960699    0.107482    0.678479    11.00000    0.04936    0.06003 =
         0.08441   -0.00994    0.03518    0.00556
AFIX  43
H10   2    0.932396    0.064346    0.597252    11.00000   -1.20000
AFIX   0
C11   1    0.439419    0.388990    0.864664    11.00000    0.02979    0.03609 =
         0.03635    0.00169    0.01041   -0.00132
C12   1    0.330039    0.477568    0.900941    11.00000    0.03133    0.03962 =
         0.03916    0.00533    0.00669    0.00248
AFIX  43
H12   2    0.255108    0.525378    0.834803    11.00000   -1.20000
AFIX   0
C13   1    0.334719    0.493261    1.037113    11.00000    0.03605    0.03634 =
         0.04473   -0.00196    0.01450    0.00374
AFIX  43
H13   2    0.261351    0.551899    1.062424    11.00000   -1.20000
AFIX   0
C14   1    0.447333    0.422845    1.137179    11.00000    0.03891    0.03725 =
         0.03932    0.00133    0.01039   -0.00398
C15   1    0.555943    0.336459    1.097883    11.00000    0.04329    0.05072 =
         0.04230    0.01400    0.01048    0.01206
AFIX  43
H15   2    0.632299    0.289221    1.163824    11.00000   -1.20000
AFIX   0
C16   1    0.552963    0.319056    0.961865    11.00000    0.04447    0.03995 =
         0.04505    0.00556    0.01793    0.01057
AFIX  43
H16   2    0.626851    0.260776    0.936515    11.00000   -1.20000
AFIX   0
C17   1    0.448921    0.440129    1.284969    11.00000    0.06484    0.06215 =
         0.03935    0.00002    0.01296    0.00091
AFIX 137
H17A  2    0.436773    0.524341    1.302855    11.00000   -1.50000
H17B  2    0.561960    0.410548    1.340931    11.00000   -1.50000
H17C  2    0.349043    0.396519    1.305369    11.00000   -1.50000
AFIX   0
HKLF 4

REM  sa4278 in P2(1)
REM R1 =  0.0440 for    3503 Fo > 4sig(Fo)  and  0.0475 for all    3698 data
REM    228 parameters refined using      1 restraints

END

WGHT      0.0305      0.2187

REM Highest difference peak  0.235,  deepest hole -0.169,  1-sigma level  0.036
Q1    1   0.4273  0.3627  0.7923  11.00000  0.05    0.24
Q2    1   1.1133  0.1605  0.9944  11.00000  0.05    0.16
Q3    1   0.5350  0.5079  1.3547  11.00000  0.05    0.15
Q4    1   0.4532  0.3386  1.3444  11.00000  0.05    0.15
Q5    1   0.4905  0.3562  0.9043  11.00000  0.05    0.14
Q6    1   0.4127  0.4693  1.0985  11.00000  0.05    0.14
Q7    1   0.9394  0.2419  0.7369  11.00000  0.05    0.14
Q8    1   0.5693  0.3634  1.0319  11.00000  0.05    0.13
Q9    1   0.4680  0.6153  0.6245  11.00000  0.05    0.13
Q10   1   0.7971  0.5065  0.4726  11.00000  0.05    0.13
Q11   1   0.6855  0.6471  0.4364  11.00000  0.05    0.13
Q12   1   1.2042  0.1026  1.1506  11.00000  0.05    0.13
Q13   1   0.3023  0.4965  1.3107  11.00000  0.05    0.13
Q14   1   0.9508  0.1837  1.0787  11.00000  0.05    0.12
Q15   1   0.2582  0.5173  0.6311  11.00000  0.05    0.12
Q16   1   1.1093  0.3640  1.0611  11.00000  0.05    0.12
Q17   1   0.3914  0.3934  0.8660  11.00000  0.05    0.11
Q18   1   0.2972  0.3605  0.6593  11.00000  0.05    0.11
Q19   1   0.3447  0.4982  0.9827  11.00000  0.05    0.11
Q20   1   0.3732  0.4782  0.8009  11.00000  0.05    0.11
;
_shelx_res_checksum              32100
_shelx_hkl_file
;
   0   0  -1   32.03   65.22   1 0.73584-0.75357 0.63933-0.63933-0.22315 0.15289
   0   0   1   43.55   64.75   1-0.64760 0.66525 0.73521-0.73521 0.20016-0.12996
   0   0  -2254280.4 1968.81   1 0.72946-0.76493 0.63312-0.63312-0.25890 0.11839
   0   0   2255180.9 1970.16   1-0.64232 0.67762 0.72914-0.72914 0.23616-0.09575
   0   0  -3939364.8 6646.57   1-0.98771 0.93477-0.07632 0.07632 0.13635-0.34693
   0   0  -3950830.4 6750.13   1 0.89481-0.94942 0.28340-0.28340-0.34495 0.13518
   0   0  -3970874.1 6997.99   1 0.72207-0.77529 0.62604-0.62604-0.29440 0.08364
   0   0   3955839.1 6874.29   1-0.63614 0.68910 0.72205-0.72205 0.27193-0.06131
   0   0  -4384407.5 3008.57   1-0.99407 0.92348-0.04117 0.04117 0.10064-0.38141
   0   0  -4393731.0 3026.28   1 0.87136-0.94417 0.31498-0.31498-0.37618 0.09649
   0   0  -4390976.9 3147.23   1 0.71367-0.78462 0.61806-0.61806-0.32965 0.04863
   0   0   4395447.7 3154.44   1-0.62907 0.69969 0.71394-0.71394 0.30747-0.02665
   0   0  -5120141.4 2356.22   1-0.99762 0.90784-0.01088 0.01088 0.06808-0.41917
   0   0  -5126214.0 2513.87   1 0.84544-0.93646 0.34607-0.34607-0.40676 0.05715
   0   0  -5112868.7 2346.15   1 0.70524-0.79361 0.60828-0.60828-0.36417 0.01274
   0   0   5115437.6 2358.29   1-0.62179 0.71027 0.70388-0.70388 0.34338 0.00737
   0   0  -6135367.6 3493.72   1 0.81979-0.92678 0.37540-0.37540-0.43244 0.01156
   0   0  -6138210.5 3635.98   1 0.69473-0.80078 0.59851-0.59851-0.39889-0.02281
   0   0   6135238.5 3528.96   1-0.61284 0.71901 0.69369-0.69369 0.37843 0.04248
   0   0  -736175.85 1241.29   1 0.78859-0.91342 0.40596-0.40596-0.46185-0.02917
   0   0  -733848.52 1275.77   1 0.68314-0.80687 0.58780-0.58780-0.43334-0.05864
   0   0   734935.99 1175.03   1-0.60293 0.72680 0.68241-0.68241 0.41324 0.07782
   0   0  -834224.10 1178.30   1 0.75451-0.89717 0.43597-0.43597-0.49053-0.07064
   0   0  -832184.73 1139.93   1 0.67044-0.81184 0.57613-0.57613-0.46751-0.09476
   0   0   830859.75 1018.06   1-0.59205 0.73362 0.67002-0.67002 0.44780 0.11341
   0   0  -913928.36  762.06   1 0.71737-0.87786 0.46540-0.46540-0.51843-0.11289
   0   0  -912137.51  840.60   1 0.65660-0.81567 0.56344-0.56344-0.50139-0.13116
   0   0   919055.01  881.31   1-0.58016 0.73942 0.65648-0.65648 0.48211 0.14925
   0   0 -10 6498.56  583.57   1 0.67691-0.85524 0.49419-0.49419-0.54548-0.15598
   0   0 -10 7356.04  679.78   1 0.64155-0.81830 0.54972-0.54972-0.53497-0.16786
   0   0  10 6645.21  516.52   1-0.56721 0.74417 0.64174-0.64174 0.51615 0.18536
   0   0 -11 4004.54  791.66   1 0.63301-0.82874 0.52233-0.52233-0.57136-0.20089
   0   0 -11 3946.57  829.86   1 0.62526-0.81968 0.53491-0.53491-0.56824-0.20488
   0   0  11 4201.78  483.35   1-0.55317 0.74782 0.62576-0.62576 0.54992 0.22175
   0   0 -12 2793.85  512.87   1 0.60855-0.81968 0.51873-0.51873-0.60046-0.24295
   0   0  12 3435.51  486.26   1-0.53872 0.75126 0.60758-0.60758 0.58361 0.25774
   0  -1   0   65.87   25.17   1-0.99531 0.99531-0.03199-0.03199 0.09128-0.09128
   0   1   0   -0.17   26.74   1-0.99919 0.99919 0.03198 0.03198 0.02407-0.02407
   0  -1   0  123.98   34.72   1-0.01209 0.01209-0.03198-0.03198-0.99941 0.99941
   0   1   0    3.40   22.62   1 0.06118-0.06118 0.03198 0.03198-0.99761 0.99761
   0   1   0   63.77   32.93   1-0.03344 0.03344 0.03191 0.03191 0.99893-0.99893
   0   1   2794032.1 5668.19   1 0.70494-0.66959 0.60800-0.54390-0.36520 0.50577
   0   1  -2787175.6 5599.83   1 0.75168-0.78721 0.65919-0.59515 0.02097-0.16148
   0  -1   2790135.3 5616.90   1 0.73481-0.69928 0.64845-0.71245 0.19889-0.05836
   0   1  -2786881.8 5607.79   1-0.61210 0.57671 0.69285-0.62887 0.38115-0.52146
   0   1   2793387.7 5671.95   1-0.65753 0.69293 0.74847-0.68446-0.08618 0.22659
   0  -1  -360858.50  627.97   1 0.80672-0.86022 0.38860-0.45268-0.44517 0.23473
   0   1   358692.89  719.13   1 0.73016-0.67694 0.63380-0.56970-0.25526 0.46602
   0   1  -361262.60  807.40   1 0.74910-0.80231 0.65284-0.58874-0.11242-0.09833
   0  -1   354512.25  691.51   1-0.58444 0.63752 0.66136-0.72534 0.47013-0.25968
   0   1   360166.63  753.09   1-0.65895 0.71205 0.74978-0.68577 0.05998 0.15062
   0  -1  -486033.09  802.13   1-0.99369 0.92311-0.04370-0.02028 0.10321-0.38399
   0   1  -479914.39  971.17   1-0.99577 0.92519-0.02814 0.09213 0.08736-0.36813
   0  -1  -484006.40  860.80   1 0.80124-0.87257 0.39396-0.45803-0.45032 0.16973
   0   1  -483706.17  982.93   1 0.90459-0.97741 0.26900-0.20508-0.33066 0.05097
   0   1  -482233.50 1031.90   1 0.73986-0.81081 0.64331-0.57921-0.19683-0.08417
   0  -1   483978.33 1016.00   1-0.58895 0.65973 0.66650-0.73048 0.45706-0.17644
   0   1   481325.88 1008.34   1-0.65327 0.72388 0.74174-0.67774 0.15182 0.12900
   0  -1  -5198203.2 3742.52   1-0.99796 0.90818-0.00641-0.05755 0.06350-0.41460
   0  -1  -5210674.7 3986.89   1 0.78308-0.87224 0.41103-0.47511-0.46671 0.11597
   0   1  -5212440.0 4093.10   1 0.87947-0.97049 0.30447-0.24055-0.36580 0.01619
   0  -1  -5211503.7 4120.01   1 0.67083-0.75920 0.57648-0.64058-0.46652 0.11510
   0   1  -5209967.3 4075.63   1 0.72900-0.81769 0.63268-0.56858-0.26128-0.08998
   0  -1   5210291.3 4074.68   1-0.58734 0.67582 0.66466-0.72865 0.46177-0.11101
   0   1   5207923.1 4046.48   1-0.64463 0.73290 0.73180-0.66781 0.22113 0.12989
   0  -1  -650161.08 1332.08   1-0.99916 0.89142 0.03508-0.09905 0.02088-0.44219
   0  -1  -654250.57 1504.42   1 0.75822-0.86522 0.43286-0.49693-0.48756 0.06668
   0   1  -655349.50 1599.83   1 0.85216-0.96139 0.33833-0.27442-0.39917-0.02036
   0  -1  -654441.06 1626.81   1 0.66434-0.77038 0.57053-0.63463-0.48285 0.06114
   0   1  -654033.84 1612.43   1 0.71714-0.82356 0.62134-0.55724-0.31564-0.10587
   0  -1   656414.98 1614.39   1-0.58243 0.68860 0.65907-0.72305 0.47581-0.05489
   0   1   653149.64 1549.30   1-0.63482 0.74074 0.72053-0.65654 0.27896 0.14227
   0   1  -730249.05 1087.99   1 0.82512-0.94995 0.36983-0.30576-0.42706-0.06396
   0  -1  -732995.13 1206.76   1 0.65554-0.77926 0.56247-0.62658-0.50386 0.01187
   0   1  -732279.20 1208.17   1 0.70534-0.82906 0.60837-0.54426-0.36383-0.12816
   0  -1   732196.36 1111.60   1-0.57530 0.69917 0.65095-0.71493 0.49525-0.00418
   0   1   732236.70 1144.18   1-0.62406 0.74764 0.70820-0.64421 0.33013 0.16131
   0  -1  -815934.37  748.43   1 0.69467-0.83733 0.48194-0.54601-0.53400-0.02717
   0   1  -814519.79  716.45   1 0.79284-0.93550 0.40198-0.33791-0.45803-0.10314
   0  -1  -814547.56  788.83   1 0.64490-0.78630 0.55277-0.61687-0.52776-0.03450
   0   1  -812985.22  717.46   1 0.69159-0.83299 0.59561-0.53150-0.40858-0.15369
   0  -1   814405.26  698.04   1-0.56645 0.70802 0.64088-0.70486 0.51806 0.04315
   0   1   814324.62  720.24   1-0.61305 0.75462 0.69393-0.62995 0.37763 0.18358
   0  -1  -944890.00 1592.67   1 0.65712-0.81726 0.50734-0.57144-0.55748-0.07436
   0   1  -944592.10 1693.29   1 0.75772-0.91822 0.43328-0.36921-0.48796-0.14335
   0  -1  -945870.82 1748.67   1 0.63265-0.79173 0.54162-0.60573-0.55351-0.07904
   0   1  -946537.11 1767.20   1 0.67683-0.83590 0.58199-0.51788-0.45075-0.18180
   0  -1   942401.32 1600.63   1-0.55613 0.71539 0.62913-0.69311 0.54305 0.08832
   0   1   941544.77 1554.01   1-0.60040 0.75966 0.67953-0.61555 0.42160 0.20977
   0  -1 -1012443.93  718.64   1 0.61517-0.79310 0.53285-0.59694-0.58106-0.12099
   0   1 -1011171.38  722.34   1 0.71954-0.89786 0.46377-0.39969-0.51688-0.18458
   0  -1 -1013769.28  925.70   1 0.61891-0.79565 0.52914-0.59325-0.58047-0.12237
   0   1 -1013170.71  922.57   1 0.66097-0.83772 0.56745-0.50334-0.49102-0.21181
   0  -1  1013872.53  810.91   1-0.54445 0.72140 0.61582-0.67980 0.56950 0.13202
   0   1  1012791.95  714.92   1-0.58677 0.76372 0.66401-0.60003 0.46344 0.23807
   0  -1 -11 1315.02  429.65   1 0.56888-0.76461 0.55806-0.62216-0.60409-0.16816
   0   1 -11  898.77  475.04   1 0.67801-0.87417 0.49345-0.42938-0.54479-0.22683
   0  -1 -11 2152.24  624.18   1 0.60461-0.79814 0.51517-0.57923-0.60747-0.16566
   0   1 -11  775.35  524.70   1 0.64394-0.83836 0.55190-0.48779-0.52984-0.24329
   0  -1  11 1128.59  494.11   1-0.53219 0.72702 0.60016-0.66416 0.59712 0.17412
   0   1 -12 1267.15  383.82   1 0.63294-0.84646 0.52237-0.45827-0.57140-0.27106
   0  -1 -12 2235.86  494.19   1 0.58795-0.79908 0.50015-0.56420-0.63573-0.20769
   0   1 -12 1819.62  573.83   1 0.62566-0.83776 0.53527-0.47117-0.56746-0.27595
   0  -1  12 1446.90  448.73   1-0.51787 0.73041 0.58389-0.64788 0.62519 0.21616
   0   1  12 1698.53  424.72   1-0.55631 0.76866 0.62933-0.56535 0.54262 0.29920
   0   2   0822353.1 5742.06   1 0.09776-0.09776 0.06396 0.06396-0.99315 0.99315
   0  -2   0826865.0 5792.69   1 0.05070-0.05070-0.06382-0.06382 0.99667-0.99667
   0   2   0820793.3 5745.06   1-0.06151 0.06151 0.06382 0.06382 0.99606-0.99606
   0  -2   1 6112.58  232.13   1-0.97621 0.99386-0.12003-0.00795 0.18054-0.11034
   0   2  -1 5417.28  175.61   1-0.99729 0.97964-0.01339 0.14137 0.07230-0.14249
   0  -2  -1 5418.99  102.63   1-0.99843 0.98047 0.05596-0.18391-0.00064-0.06957
   0   2   1 5020.94  114.80   1-0.84277 0.86042 0.39892-0.27099-0.36137 0.43153
   0  -2  -1 5606.91  197.94   1 0.39869-0.41628 0.33015-0.45825-0.85559 0.78531
   0   2   1 5103.99  183.81   1 0.50582-0.48823 0.42645-0.29833-0.74985 0.82013
   0   2  -1 4741.07  168.05   1 0.57272-0.59051 0.51433-0.38627 0.63831-0.70857
   0  -2   1 4988.83  192.79   1 0.45368-0.43589 0.41204-0.54010 0.79018-0.71991
   0  -2   1 5081.63  186.27   1-0.31625 0.33402 0.35371-0.48165 0.88026-0.81020
   0   2  -1 5213.02  183.39   1-0.40916 0.39139 0.45930-0.33135 0.78843-0.85849
   0   2   1 4422.16  190.02   1-0.46656 0.48418 0.53477-0.40667-0.70451 0.77471
   0  -2  -3112519.4  883.49   1-0.98393 0.93099-0.09249-0.03549 0.15272-0.36331
   0  -2  -3105779.1  851.22   1 0.48927-0.54265 0.59526-0.72345-0.63739 0.42677
   0   2   3105285.7 1081.11   1 0.69757-0.64455 0.60115-0.47293-0.38987 0.60073
   0  -2   3104250.4 1031.34   1 0.70076-0.64747 0.62107-0.74908 0.35098-0.14019
   0  -2   3111051.3 1113.32   1-0.51370 0.56684 0.57915-0.70714 0.63299-0.42265
   0   2  -3103107.2 1030.94   1-0.60224 0.54915 0.68163-0.55366 0.41554-0.62600
   0   2   3106510.8 1118.03   1-0.65375 0.70685 0.74426-0.61624-0.13667 0.34728
   0  -2  -3105070.9 1083.30   1-0.59908 0.54610 0.68392-0.81207-0.41633 0.20567
   0  -2  -472388.63 1386.80   1-0.99628 0.92569-0.02370-0.10428 0.08283-0.36360
   0  -2  -472152.36 1417.25   1 0.62133-0.69250 0.52927-0.65746-0.57776 0.29694
   0  -2  -473141.20 1555.07   1 0.62079-0.69149 0.53085-0.65906-0.57689 0.29575
   0  -2   466615.55 1403.14   1 0.71763-0.64657 0.63482-0.76282 0.28635-0.00530
   0  -2  -468820.37 1465.50   1-0.61861 0.54797 0.70588-0.83402-0.34502 0.06414
   0  -2  -548285.16 1045.61   1-0.99909 0.90931 0.01781-0.14575 0.03865-0.38974
   0  -2  -551895.57 1091.14   1 0.64970-0.73866 0.51205-0.64024-0.56185 0.21082
   0   2  -551091.37 1225.97   1 0.89733-0.98835 0.27976-0.15193-0.34135-0.00826
   0  -2  -552654.69 1267.81   1 0.62748-0.71585 0.53692-0.66513-0.56389 0.21247
   0   2  -549640.37 1235.07   1 0.74438-0.83307 0.64787-0.51967-0.16171-0.18954
   0  -2   552146.58 1219.82   1-0.54361 0.63209 0.61487-0.74283 0.57132-0.22056
   0  -2  -6 2071.60  284.40   1-0.99799 0.89025 0.06284-0.19079-0.00774-0.41357
   0  -2  -6 2226.50  237.09   1 0.64614-0.75290 0.51428-0.64247-0.56392 0.14269
   0   2  -6 1639.39  357.69   1 0.87232-0.98155 0.31375-0.18592-0.37497-0.04456
   0  -2  -6 2560.47  407.59   1 0.62715-0.73320 0.53662-0.66483-0.56453 0.14283
   0   2  -6 1849.00  341.38   1 0.73382-0.84024 0.63735-0.50915-0.23512-0.18639
   0  -2   6 2342.91  269.38   1-0.54504 0.65121 0.61649-0.74446 0.56821-0.14729
   0   2   6 1849.76  336.89   1-0.64984 0.75577 0.73779-0.60980 0.18261 0.23862
   0  -2  -722091.29  689.35   1-0.99304 0.86735 0.10561-0.23355-0.05204-0.43948
   0  -2  -725314.20  893.31   1 0.62756-0.75212 0.52559-0.65378-0.57437 0.08293
   0   2  -725872.63 1026.30   1 0.84485-0.97229 0.34673-0.21890-0.40741-0.08204
   0  -2  -725945.83 1024.27   1 0.62253-0.74625 0.53243-0.66064-0.57355 0.08156
   0   2  -727850.09 1105.48   1 0.72141-0.84557 0.62540-0.49720-0.29737-0.19439
   0  -2   726068.88  939.75   1-0.54295 0.66693 0.61239-0.74038 0.57460-0.08380
   0   2   725313.28  951.58   1-0.64010 0.76368 0.72659-0.59860 0.24965 0.24179
   0  -2  -834240.55 1002.30   1 0.59968-0.74203 0.54161-0.66980-0.58909 0.02745
   0   2  -834709.84 1272.34   1 0.81737-0.96003 0.37789-0.24975-0.43485-0.12632
   0  -2  -834153.02 1216.80   1 0.61490-0.75629 0.52551-0.65372-0.58799 0.02571
   0   2  -832296.11 1260.40   1 0.70762-0.84952 0.61236-0.48416-0.35252-0.20949
   0  -2   834206.28 1109.01   1-0.53716 0.67886 0.60581-0.73380 0.58688-0.02597
   0   2   831327.74 1044.55   1-0.62882 0.77005 0.71366-0.58566 0.30865 0.25299
   0  -2  -9  360.95  226.03   1 0.56475-0.72489 0.56018-0.68837-0.60600-0.02584
   0   2  -9  106.33  369.72   1 0.78460-0.94510 0.40964-0.28150-0.46538-0.16594
   0  -2  -9  503.54  400.47   1 0.60585-0.76419 0.51629-0.64441-0.60529-0.02727
   0   2  -9 1026.80  610.00   1 0.69354-0.85262 0.59741-0.46920-0.40259-0.22996
   0  -2   9 1684.42  425.06   1-0.52913 0.68853 0.59668-0.72467 0.60331 0.02770
   0   2   9  417.85  285.32   1-0.61695 0.77621 0.69837-0.57041 0.36281 0.26855
   0  -2 -10 9857.50  559.65   1 0.52366-0.70159 0.58008-0.70827-0.62391-0.07813
   0   2 -1010971.07  772.88   1 0.74887-0.92719 0.44065-0.31251-0.49498-0.20649
   0  -2 -1011293.48  747.27   1 0.59388-0.76981 0.50549-0.63360-0.62592-0.07693
   0   2 -1013318.29  891.30   1 0.67732-0.85407 0.58244-0.45423-0.44941-0.25342
   0  -2  1011016.49  640.82   1-0.51922 0.69633 0.58542-0.71340 0.62264 0.07848
   0   2  1011910.52  713.94   1-0.60319 0.78015 0.68271-0.55474 0.41237 0.28915
   0   2 -11 1771.12  576.60   1 0.70993-0.90609 0.47093-0.34279-0.52365-0.24797
   0  -2 -11 4229.87  630.49   1 0.58011-0.77364 0.49308-0.62120-0.64832-0.12481
   0   2 -11 4634.25  575.90   1 0.65988-0.85430 0.56645-0.43823-0.49364-0.27948
   0  -2  11 3478.92  781.78   1-0.50764 0.70247 0.57226-0.70025 0.64405 0.12719
   0   2  11 4296.74  536.43   1-0.58829 0.78295 0.66575-0.53778 0.45899 0.31268
   0   2 -12 7918.36  705.58   1 0.66767-0.88119 0.50049-0.37230-0.55110-0.29135
   0  -2 -1210659.16  910.75   1 0.56464-0.77576 0.47916-0.60728-0.67199-0.17143
   0   2 -12 9130.65  816.38   1 0.64115-0.85324 0.54935-0.42114-0.53584-0.30757
   0  -2  1211084.44  885.12   1-0.49450 0.70704 0.55733-0.68532 0.66696 0.17440
   0   2  1210758.75  852.02   1-0.57222 0.78457 0.64745-0.51948 0.50334 0.33848
   0  -3   0  303.65   92.00   1-0.98303 0.98303-0.09598-0.09598 0.15626-0.15626
   0   3   0  477.85  148.37   1-0.99449 0.99449 0.09596 0.09596-0.04202 0.04202
   0  -3   0  197.32   84.82   1-0.08707 0.08707-0.09590-0.09590-0.99157 0.99157
   0   3   0  173.59   67.06   1 0.13380-0.13380 0.09608 0.09608-0.98633 0.98633
   0  -3   0  147.35  114.90   1 0.07852-0.07852-0.09553-0.09553 0.99232-0.99232
   0  -3   1170602.8 1433.73   1-0.97317 0.99081-0.12956-0.06241 0.19014-0.11994
   0  -3  -1172623.0 1338.39   1-0.99026 0.97262-0.06383-0.12814 0.12367-0.19387
   0   3  -1168695.5 1451.82   1-0.99920 0.98125 0.02688 0.16503 0.02932-0.09953
   0   3   1168413.2 1276.11   1-0.92951 0.94740 0.28288-0.09087-0.23660 0.30686
   0  -3  -1172199.0 1566.05   1 0.26398-0.28154 0.21056-0.40272-0.94126 0.87094
   0   3  -1176629.0 1451.61   1 0.47842-0.49620 0.43339-0.24130 0.76372-0.83399
   0  -3   1170260.1 1372.04   1 0.27170-0.25397 0.25468-0.44672 0.92806-0.85786
   0   3  -286836.57  876.43   1-0.99855 0.96263 0.00315 0.18877 0.05370-0.19413
   0  -3  -293885.64  964.40   1 0.44086-0.47603 0.36760-0.55975-0.81884 0.67827
   0  -3   294935.86  915.12   1 0.51912-0.48354 0.46842-0.66051 0.71490-0.57437
   0   3  -291800.64  918.14   1-0.49020 0.45478 0.55244-0.36046 0.67416-0.81439
   0   3   291043.68  984.82   1-0.55910 0.59441 0.63933-0.44720-0.52787 0.66833
   0  -3  -290272.45  911.64   1-0.42346 0.38821 0.48579-0.67794-0.76464 0.62424
   0  -3   374782.93  821.43   1 0.62322-0.56978 0.55698-0.74898 0.54896-0.33816
   0  -3   376056.49  888.38   1-0.43472 0.48786 0.48939-0.68137 0.75598-0.54564
   0   3   375721.87  946.14   1-0.62942 0.68240 0.71799-0.52578-0.29716 0.50782
   0  -3  -375759.79  870.77   1-0.52045 0.46749 0.59559-0.78771-0.61187 0.40118
   0  -3  -443506.55  847.88   1-0.99879 0.92697 0.04845-0.24037 0.00710-0.28798
   0  -3  -443274.43  845.97   1 0.10010-0.17093 0.69292-0.88517-0.71402 0.43271
   0   3  -443051.84 1047.11   1 0.75086-0.82193 0.65889-0.46678 0.04536-0.32638
   0  -3   440020.27  911.71   1 0.66640-0.59515 0.59331-0.78532 0.45153-0.17047
   0   3   442790.24 1060.12   1-0.65439 0.72519 0.74498-0.55295-0.12946 0.41028
   0  -3  -5 1104.52  145.64   1-0.99575 0.90597 0.08633-0.27825-0.03204-0.31904
   0  -3  -5  887.00  134.55   1 0.34690-0.43544 0.64579-0.83811-0.68015 0.32856
   0   3  -5 1693.36  333.48   1 0.90592-0.99694 0.26698-0.07524-0.32866-0.02094
   0  -3  -5 1041.66  222.77   1 0.57761-0.66557 0.49083-0.68300-0.65226 0.30083
   0   3  -5 1236.15  335.64   1 0.75077-0.83960 0.65683-0.46473-0.07005-0.28122
   0  -3   5  974.91  190.46   1-0.49364 0.58220 0.55635-0.74833 0.66841-0.31784
   0   3   5  883.89  269.49   1-0.66006 0.74856 0.75118-0.55915-0.00534 0.35636
   0  -3  -610067.38  565.32   1-0.98958 0.88184 0.12470-0.31663-0.07190-0.34941
   0  -3  -610778.05  405.77   1 0.42731-0.53356 0.61974-0.81206-0.65827 0.23636
   0   3  -612969.22  652.98   1 0.88321-0.99244 0.29948-0.10773-0.36087-0.05866
   0   3  -610800.18  592.45   1 0.74453-0.85096 0.64802-0.45572-0.16041-0.26111
   0  -3   611922.46  588.70   1-0.50257 0.60885 0.56650-0.75848 0.65305-0.23237
   0   3   612764.26  685.68   1-0.65804 0.76396 0.74726-0.55528 0.09257 0.32866
   0  -3  -734076.41 1029.71   1-0.98005 0.85436 0.16371-0.35563-0.11261-0.37891
   0  -3  -740089.59 1229.64   1 0.44760-0.57215 0.61198-0.80426-0.65201 0.16057
   0   3  -743108.54 1519.14   1 0.85799-0.98542 0.33145-0.13971-0.39241-0.09705
   0  -3  -739828.67 1408.28   1 0.58537-0.70853 0.49782-0.69000-0.63992 0.14792
   0   3  -742064.40 1501.86   1 0.73380-0.85796 0.63734-0.44504-0.23521-0.25656
   0  -3   742519.05 1408.24   1-0.50497 0.62895 0.56923-0.76120 0.64882-0.15803
   0   3   739881.38 1375.95   1-0.65090 0.77448 0.73901-0.54702 0.17373 0.31770
   0  -3  -828904.32  936.87   1 0.44267-0.58433 0.61408-0.80640-0.65339 0.09085
   0   3  -834402.57 1320.47   1 0.83258-0.97524 0.36186-0.16964-0.41935-0.14182
   0  -3  -832619.39 1203.51   1 0.58151-0.72226 0.49434-0.68652-0.64611 0.08383
   0   3  -831112.92 1236.54   1 0.72081-0.86271 0.62483-0.43253-0.30002-0.26200
   0  -3   832875.86 1198.80   1-0.50299 0.64468 0.56698-0.75895 0.65232-0.09141
   0   3   832622.98 1240.61   1-0.64107 0.78230 0.72771-0.53572 0.24384 0.31780
   0  -3  -9 3092.84  339.15   1 0.41977-0.57914 0.62243-0.81475-0.66057 0.02771
   0   3  -9 3490.64  494.85   1 0.80209-0.96259 0.39313-0.20092-0.44953-0.18179
   0  -3  -9 3264.96  467.38   1 0.57436-0.73271 0.48791-0.68009-0.65729 0.02472
   0   3  -9 2731.86  525.81   1 0.70610-0.86574 0.61093-0.41863-0.35800-0.27427
   0  -3   9 3935.95  466.39   1-0.49782 0.65722 0.56110-0.75308 0.66131-0.03029
   0   3   9 3754.44  430.89   1-0.62932 0.78820 0.71423-0.52224 0.30630 0.32555
   0   3 -10 9063.57  822.33   1 0.76868-0.94701 0.42388-0.23166-0.47900-0.22247
   0  -3 -10 9082.37  818.05   1 0.56460-0.74053 0.47913-0.67130-0.67205-0.03080
   0   3 -10 8077.10  807.37   1 0.69083-0.86757 0.59490-0.40258-0.41090-0.29194
   0  -3  1011166.16  891.18   1-0.49013 0.66725 0.55236-0.74434 0.67428 0.02685
   0   3  10 8573.15  756.20   1-0.61667 0.79363 0.69806-0.50611 0.36389 0.33763
   0   3 -11 2093.99  598.54   1 0.73216-0.92832 0.45406-0.26184-0.50770-0.26391
   0  -3 -11 2941.49  665.44   1 0.55259-0.74612 0.46834-0.66052-0.68941-0.08372
   0   3 -11 4422.17  600.39   1 0.67324-0.86766 0.57869-0.38637-0.46028-0.31285
   0  -3  11 3851.78  606.67   1-0.48033 0.67516 0.54122-0.73320 0.69018 0.08106
   0   3  11 3675.66  595.66   1-0.60191 0.79656 0.68125-0.48930 0.41663 0.35504
   0   3 -12  426.36  357.74   1 0.69228-0.90627 0.48362-0.29140-0.53558-0.30618
   0  -3 -12 1108.26  540.45   1 0.53856-0.74968 0.45575-0.64793-0.70868-0.13474
   0   3 -12 1761.15  580.62   1 0.65425-0.86635 0.56130-0.36898-0.50683-0.33657
   0  -3  12 1844.32  607.22   1-0.46863 0.68118 0.52793-0.71991 0.70827 0.13308
   0   3  12 1406.48  510.67   1-0.58582 0.79816 0.66293-0.47098 0.46619 0.37563
   0  -4   0295492.0 2276.97   1-0.97368 0.97368-0.12798-0.12798 0.18855-0.18855
   0   4   0299516.7 2345.84   1-0.98892 0.98892 0.12794 0.12794-0.07527 0.07527
   0  -4   0300686.2 2302.78   1-0.12384 0.12384-0.12787-0.12787-0.98402 0.98402
   0   4   0297027.7 2275.00   1 0.17028-0.17028 0.12811 0.12811-0.97703 0.97703
   0  -4   0297805.0 2315.27   1 0.10645-0.10645-0.12738-0.12738 0.98612-0.98612
   0   4   0295582.5 2294.16   1-0.11831 0.11831 0.12787 0.12787 0.98470-0.98470
   0  -4  -1103660.9  885.37   1-0.97604 0.95839-0.12059-0.13537 0.18110-0.25130
   0  -4   1109769.2 1062.43   1-0.96682 0.98446-0.14772-0.10825 0.20840-0.13820
   0   4  -1103206.7 1173.09   1-0.99780 0.97985 0.06535 0.19053-0.01034-0.05987
   0   4  -1105615.9  950.69   1-0.13816 0.12061-0.14031 0.39606-0.98041 0.91026
   0  -4  -1105968.3 1065.34   1 0.16052-0.17808 0.11953-0.37575-0.97976 0.90944
   0   4   1106708.2 1003.50   1 0.41182-0.39424 0.34180-0.08560-0.84472 0.91501
   0   4  -1107234.0 1019.42   1 0.42872-0.44645 0.39122-0.13516 0.81433-0.88453
   0   4   1103693.3  957.25   1 0.11700-0.09923-0.13942 0.39419 0.98329-0.91365
   0  -4   1112444.2 1522.33   1-0.11415 0.13202 0.12365-0.37893 0.98573-0.91595
   0   4  -1100093.7  957.15   1-0.31869 0.30093 0.35648-0.10059 0.87826-0.94832
   0  -4  -2181117.1 1339.77   1-0.96475 0.92946-0.15323-0.10273 0.21393-0.35432
   0  -4   2182854.2 1622.66   1-0.95687 0.99217-0.17277-0.08319 0.23351-0.09313
   0   4   2181895.6 1356.62   1-0.65662 0.69193 0.54532-0.28942-0.52102 0.66141
   0   4   2187269.2 1625.05   1 0.55429-0.51910 0.46987-0.21363-0.68701 0.82758
   0  -4   2189602.4 1688.05   1-0.26667 0.30217 0.29622-0.55198 0.91713-0.77717
   0   4  -2189774.0 1638.31   1-0.45129 0.41587 0.50822-0.25225 0.73351-0.87373
   0   4  -352362.19 1210.61   1 0.94248-0.99709 0.20343 0.05222-0.26522 0.05545
   0  -4  -347407.54 1084.61   1 0.43829-0.49104 0.36531-0.62151-0.82124 0.61039
   0   4  -350402.76 1137.96   1 0.71020-0.76349 0.62880-0.37280 0.31655-0.52734
   0  -4   347194.14 1020.22   1 0.52364-0.47027 0.47230-0.72842 0.70903-0.49823
   0  -4   349409.58 1111.55   1-0.35659 0.40988 0.39956-0.65545 0.84450-0.63432
   0   4   353250.08 1240.05   1-0.59972 0.65270 0.68464-0.42836-0.41422 0.62488
   0  -4  -347843.18 1062.59   1-0.42850 0.37562 0.49152-0.74772-0.75814 0.54754
   0   4  -484603.22 1919.84   1 0.92680-0.99962 0.23283 0.02282-0.29464 0.01494
   0  -4  -473847.03 1597.02   1 0.49158-0.56196 0.41372-0.66996-0.76627 0.48513
   0   4  -483848.82 1775.41   1 0.74325-0.81432 0.65382-0.39768 0.14173-0.42276
   0   4   479842.96 1753.38   1-0.64024 0.71088 0.73007-0.47378-0.23889 0.51977
   0  -4  -517365.56  708.15   1 0.52100-0.60897 0.44002-0.69626-0.73139 0.37996
   0   4  -516925.36  685.23   1 0.75189-0.84073 0.65919-0.40305 0.01025-0.36153
   0  -4   515140.84  586.09   1-0.43843 0.52699 0.49360-0.74957 0.75108-0.40051
   0   4   516805.18  721.43   1-0.65669 0.74519 0.74754-0.49150-0.09966 0.45067
   0  -4  -625653.46  729.86   1-0.92824 0.82088 0.28508-0.54110-0.23893-0.18262
   0  -4  -626080.67  748.94   1-0.06280-0.04345 0.69983-0.95617-0.71153 0.28956
   0   4  -628151.76 1117.69   1 0.88795-0.99718 0.29303-0.03737-0.35449-0.06504
   0  -4  -626698.71 1011.12   1 0.53622-0.64178 0.45366-0.70990-0.71179 0.29007
   0   4  -625678.18  968.70   1 0.74953-0.85613 0.65534-0.39920-0.09340-0.32812
   0  -4   625754.70  908.71   1-0.45495 0.56122 0.51238-0.76835 0.72833-0.30765
   0   4   628754.73 1065.85   1-0.66004 0.76624 0.75113-0.49509 0.01164 0.40957
   0  -4  -7  204.97   56.05   1-0.92588 0.80063 0.28911-0.54512-0.24319-0.24862
   0  -4  -7 1076.80  196.57   1 0.09814-0.22211 0.69312-0.94945-0.71410 0.22180
   0   4  -7 1733.15  735.52   1 0.86472-0.99216 0.32328-0.06761-0.38436-0.10510
   0  -4  -7  293.54  321.14   1 0.54261-0.66577 0.45939-0.71563-0.70322 0.21122
   0   4  -7  154.68  410.14   1 0.74226-0.86642 0.64571-0.38931-0.17915-0.31262
   0   4   7 1249.14  386.55   1-0.65727 0.78085 0.74637-0.49039 0.10443 0.38701
   0  -4  -8 6744.13  323.97   1 0.15960-0.30127 0.68572-0.94205-0.71014 0.14752
   0   4  -8 4795.06  595.85   1 0.83889-0.98452 0.35340-0.09774-0.41395-0.14542
   0  -4  -8 6504.06  503.19   1 0.54306-0.68381 0.45979-0.71603-0.70261 0.14032
   0   4  -8 5763.43  536.59   1 0.73067-0.87257 0.63430-0.37790-0.25252-0.30950
   0  -4   8 6680.72  441.36   1-0.46520 0.60690 0.52403-0.78000 0.71342-0.15251
   0   4   8 6455.91  525.95   1-0.64966 0.79089 0.73758-0.48160 0.18411 0.37753
   0   4  -9 1498.84  515.97   1 0.81274-0.97324 0.38259-0.12630-0.43938-0.19194
   0  -4  -9 3958.81  692.77   1 0.53920-0.69755 0.45633-0.71257-0.70782 0.07525
   0   4  -9 3234.87  776.24   1 0.71670-0.87634 0.62093-0.36453-0.31743-0.31484
   0  -4   9 2583.56  508.78   1-0.46327 0.62268 0.52184-0.77781 0.71627-0.08525
   0   4   9 3837.84  743.67   1-0.63926 0.79815 0.72563-0.46965 0.25453 0.37732
   0   4 -10 2996.11  764.23   1 0.78143-0.95976 0.41253-0.15624-0.46815-0.23332
   0   4 -10 2958.26  625.12   1 0.70174-0.87849 0.60502-0.34860-0.37615-0.32669
   0  -4  10 2350.93  500.37   1-0.45813 0.63525 0.51599-0.77197 0.72377-0.02264
   0   4  10 2460.41  556.66   1-0.62676 0.80330 0.71130-0.45531 0.31814 0.38391
   0   4 -11 1346.51  627.57   1 0.74708-0.94324 0.44212-0.18583-0.49637-0.27524
   0  -4 -11  737.73  322.24   1 0.52204-0.71557 0.44096-0.69720-0.73007-0.04306
   0   4 -11  441.81  299.43   1 0.68421-0.87863 0.58879-0.33237-0.43031-0.34282
   0  -4  11 1447.83  416.00   1-0.45036 0.64519 0.50717-0.76314 0.73480 0.03644
   0   4  11 1555.63  472.55   1-0.61314 0.80779 0.69403-0.43810 0.37730 0.39437
   0   4 -12 3677.35  808.25   1 0.70947-0.92346 0.47127-0.21498-0.52397-0.31779
   0  -4 -12 2558.88  603.59   1 0.50968-0.72081 0.42990-0.68614-0.74524-0.09817
   0   4 -12 2786.77  584.26   1 0.66511-0.87721 0.57124-0.31481-0.48093-0.36247
   0  -4  12 1560.72  487.20   1-0.44034 0.65288 0.49577-0.75174 0.74853 0.09282
   0   4  12 2880.11  550.54   1-0.59724 0.80958 0.67593-0.42000 0.43175 0.41007
   0  -5   0  345.69  182.38   1-0.96213 0.96213-0.15998-0.15998 0.22070-0.22070
   0   5   0  139.48   77.32   1-0.98112 0.98112 0.15993 0.15993-0.10865 0.10865
   0  -5   0  171.14  121.79   1-0.16064 0.16064-0.15984-0.15984-0.97398 0.97398
   0   5   0  103.46   87.94   1 0.20672-0.20672 0.16013 0.16013-0.96520 0.96520
   0  -5   0  212.53  124.54   1 0.13437-0.13437-0.15923-0.15923 0.97805-0.97805
   0   5   0  340.42  120.60   1-0.14648 0.14648 0.15984 0.15984 0.97621-0.97621
   0  -5  -1125299.1 2382.94   1-0.96025 0.94260-0.16465-0.15530 0.22538-0.29558
   0  -5   1124435.9 2433.45   1-0.95791 0.97556-0.17030-0.14965 0.23105-0.16085
   0   5  -1115761.0 2249.17   1-0.99364 0.97568 0.10180 0.21806-0.04809-0.02212
   0   5   1123776.1 2379.56   1-0.93699 0.95488 0.26943 0.05058-0.22237 0.29263
   0   5  -1126286.0 2434.88   1-0.03615 0.01865-0.05295 0.37276-0.99794 0.92773
   0  -5  -1128042.7 2500.05   1 0.07754-0.09505 0.04628-0.36609-0.99591 0.92571
   0   5   1129784.1 2502.47   1 0.40230-0.38471 0.33335-0.01310-0.85266 0.92294
   0   5  -1127577.8 2471.64   1 0.40831-0.42603 0.37353-0.05346 0.83291-0.90312
   0   5   1127094.0 2514.84   1 0.04102-0.02315-0.05280 0.37190 0.99776-0.92798
   0  -5   1128489.7 2556.55   1-0.04745 0.06532 0.04784-0.36694 0.99772-0.92794
   0   5  -1125150.7 2422.06   1-0.30867 0.29091 0.34509-0.02522 0.88635-0.95641
   0   5   294149.03 1787.39   1-0.76683 0.80214 0.46938-0.14954-0.43777 0.57809
   0   5   295360.79 1812.76   1 0.94471-0.90830 0.19890 0.12067-0.26067 0.40052
   0  -5  -299563.62 2004.58   1 0.24795-0.28307 0.19643-0.51671-0.94864 0.80800
   0   5  -297000.31 1948.11   1 0.58844-0.62407 0.52745-0.20744 0.61279-0.75332
   0  -5   292370.23 1828.39   1 0.26136-0.22590 0.24565-0.56572 0.93345-0.79304
   0  -5   299018.36 2203.34   1-0.18802 0.22352 0.20698-0.52668 0.96010-0.82014
   0   5   321819.25  557.31   1 0.04758 0.00554 0.69719-0.37677-0.71530 0.92628
   0   5   324318.40  617.98   1 0.79140-0.73790 0.40334-0.08298-0.45933 0.66978
   0   5  -324525.51  878.80   1 0.93756-0.99217 0.21308 0.10649-0.27489 0.06512
   0  -5  -325254.27  841.34   1 0.35569-0.40844 0.29204-0.61228-0.88780 0.67696
   0   5  -323253.38  780.07   1 0.68660-0.73989 0.60938-0.28938 0.39651-0.60730
   0  -5   322622.16  701.18   1 0.41503-0.36185 0.37936-0.69943 0.82693-0.61631
   0  -5   322333.94  713.38   1-0.28291 0.33617 0.31465-0.63434 0.90606-0.69612
   0   5   324966.70  850.86   1-0.57213 0.62509 0.65404-0.33383-0.49486 0.70555
   0   5  -419051.72  763.92   1 0.92366-0.99648 0.23829 0.08127-0.30009 0.02040
   0  -5  -416255.42  612.26   1 0.42150-0.49184 0.35039-0.67064-0.83639 0.55527
   0   5  -417616.05  671.52   1 0.73146-0.80251 0.64584-0.32583 0.21875-0.49980
   0  -5   417661.67  627.25   1-0.34305 0.41410 0.38417-0.70404 0.85715-0.57692
   0   5   416691.46  684.91   1-0.62383 0.69447 0.71174-0.39138-0.32288 0.60376
   0   5  -536391.28 1212.01   1 0.90722-0.99824 0.26499 0.05458-0.32668-0.02293
   0  -5  -534879.17 1099.99   1 0.46098-0.54890 0.38550-0.70575-0.79929 0.44789
   0   5  -536050.48 1136.53   1 0.74911-0.83795 0.65789-0.33772 0.07741-0.42869
   0  -5   535423.55 1094.10   1-0.38129 0.47010 0.42763-0.74749 0.81960-0.46930
   0   5   535021.44 1141.29   1-0.64883 0.73713 0.73960-0.41924-0.17886 0.52996
   0  -5  -624939.60  954.53   1 0.48337-0.58894 0.40639-0.72669-0.77536 0.35364
   0   5  -623125.43  957.42   1 0.75184-0.85844 0.65836-0.33818-0.03591-0.38561
   0  -5   625945.49  947.31   1-0.40470 0.51128 0.45424-0.77410 0.79364-0.37329
   0   5   623452.30  978.54   1-0.65890 0.76510 0.74997-0.42992-0.05813 0.47935
   0   5  -7 6403.43  576.43   1 0.86676-0.99419 0.32076-0.00118-0.38188-0.10758
   0  -5  -7 5174.21  453.22   1 0.49576-0.61892 0.41746-0.73775-0.76153 0.26953
   0   5  -7 7330.57  625.48   1 0.74760-0.87176 0.65122-0.33072-0.13033-0.36143
   0  -5   7 6188.63  439.26   1-0.41818 0.54252 0.46956-0.78942 0.77757-0.28716
   0   5   7 5339.46  430.57   1-0.65951 0.78341 0.75045-0.43040 0.04307 0.44834
   0   5  -872358.52 2588.36   1 0.84267-0.98830 0.34919-0.02962-0.40983-0.14955
   0  -5  -874794.90 2620.87   1 0.50082-0.64157 0.42197-0.74227-0.75571 0.19343
   0   5  -877923.84 2725.31   1 0.73778-0.87968 0.64124-0.32074-0.21091-0.35111
   0  -5   870476.02 2426.26   1-0.42474 0.56684 0.47701-0.79687 0.76944-0.20897
   0   5   871079.61 2448.16   1-0.65525 0.79648 0.74403-0.42405 0.13061 0.43103
   0   5  -9 4338.71  677.92   1 0.81820-0.97870 0.37703-0.05667-0.43402-0.19730
   0  -5  -9 5443.52  773.90   1 0.50055-0.65889 0.42173-0.74203-0.75603 0.12346
   0   5  -9 5185.91  776.38   1 0.72480-0.88444 0.62865-0.30815-0.28186-0.35041
   0  -5   9 6945.76  555.72   1-0.42623 0.58609 0.47870-0.79856 0.76757-0.13704
   0   5   9 5728.98 1010.95   1-0.64656 0.80544 0.73401-0.41403 0.20779 0.42406
   0   5 -10  912.43  558.97   1 0.78873-0.96706 0.40583-0.08547-0.46172-0.23974
   0  -5 -10  430.89  324.52   1 0.49619-0.67213 0.41784-0.73814-0.76104 0.05819
   0   5 -10  904.53  482.79   1 0.70946-0.88684 0.61409-0.29360-0.34573-0.35679
   0   5  10 2013.99  565.69   1-0.63514 0.81168 0.72090-0.40092 0.27729 0.42476
   0   5 -11 3972.33  659.18   1 0.75629-0.95245 0.43449-0.11413-0.48911-0.28250
   0  -5 -11 5641.96  884.47   1 0.48852-0.68205 0.41099-0.73129-0.76969-0.00345
   0   5 -11 6924.08  872.35   1 0.69301-0.88743 0.59692-0.27639-0.40425-0.36887
   0   5  11 3373.46  481.07   1-0.62221 0.81686 0.70436-0.38444 0.34164 0.43003
   0   6   059514.36 1242.70   1-0.97120 0.97120 0.19201 0.19201-0.14100 0.14100
   0   6   059893.50 1292.57   1 0.94814-0.94814 0.19174 0.19174-0.25349 0.25349
   0  -6   058621.77 1232.78   1-0.19749 0.19749-0.19181-0.19181-0.96135 0.96135
   0   6   057532.43 1219.92   1 0.24310-0.24310 0.19216 0.19216-0.95077 0.95077
   0  -6   060487.76 1278.42   1 0.16228-0.16228-0.19107-0.19107 0.96806-0.96806
   0   6   054575.59 1232.37   1-0.17465 0.17465 0.19181 0.19181 0.96576-0.96576
   0   6   1 6844.98  603.04   1-0.92773 0.94562 0.28596 0.09805-0.23986 0.31012
   0   6   1 7850.47  367.09   1 0.94327-0.92506 0.20184 0.18164-0.26362 0.33355
   0   6  -1 7258.97  392.98   1 0.94593-0.96413 0.19638 0.18710-0.25815 0.18823
   0  -6  -1 8475.86  914.54   1 0.00612-0.02363-0.01608-0.36769-0.99985 0.92964
   0   6  -1 5873.28  707.09   1 0.04525-0.06275 0.01806 0.36571-0.99881 0.92860
   0   6   1 7535.16  329.00   1 0.40521-0.38762 0.33593 0.04836-0.85026 0.92054
   0   6  -1 7109.68  356.32   1 0.40466-0.42239 0.37037 0.01370 0.83610-0.90631
   0   6   1 5698.20  536.43   1-0.02035 0.03822 0.01701 0.36590 0.99964-0.92986
   0  -6   1 7763.36  655.45   1 0.00836 0.00950-0.01564-0.36727 0.99984-0.93006
   0   6   2127999.7 3188.74   1-0.79916 0.83447 0.44175-0.05795-0.40767 0.54798
   0   6   2132368.3 3301.06   1 0.92121-0.88481 0.24246 0.14103-0.30424 0.44409
   0   6  -2135742.9 3533.67   1 0.93951-0.97592 0.20930 0.17418-0.27110 0.13126
   0   6  -2122614.5 3093.55   1-0.15162 0.11652-0.15200 0.53563-0.97668 0.83637
   0  -6  -2130761.0 3397.96   1 0.16502-0.20015 0.12349-0.50782-0.97852 0.83788
   0   6  -2134018.8 3407.81   1 0.56645-0.60203 0.50897-0.12480 0.64812-0.78865
   0  -6   2129977.5 3494.71   1-0.11939 0.15489 0.12909-0.51273 0.98441-0.84445
   0   6   2131209.3 3386.11   1-0.45701 0.49226 0.52393-0.13962-0.71876 0.85917
   0   6   3 5627.82  198.01   1-0.35223 0.40528 0.66404-0.27969-0.65952 0.87035
   0   6   3 5897.93  221.55   1 0.81755-0.76405 0.37770 0.00672-0.43466 0.64511
   0   6  -3 7023.49  633.23   1 0.92992-0.98453 0.22729 0.15619-0.28910 0.07933
   0  -6  -3 7245.08  757.11   1 0.27658-0.32926 0.22167-0.60600-0.93507 0.72411
   0   6  -3 6429.67  408.35   1 0.66681-0.72024 0.59365-0.20963 0.45048-0.66128
   0  -6   3 5139.12  281.09   1 0.30832-0.25513 0.28662-0.67071 0.90707-0.69645
   0  -6   3 5800.96  678.38   1-0.21369 0.26695 0.23612-0.61975 0.94793-0.73799
   0   6   3 7288.88  565.14   1-0.55068 0.60365 0.62980-0.24555-0.54779 0.75848
   0   6  -450346.31 1541.83   1 0.91756-0.99038 0.24855 0.13493-0.31032 0.03062
   0  -6  -449611.51 1420.69   1 0.34989-0.42022 0.28690-0.67120-0.89177 0.61065
   0   6  -449027.26 1389.34   1 0.71997-0.79103 0.63671-0.25270 0.27609-0.55714
   0  -6   450679.63 1414.41   1-0.27940 0.35041 0.31067-0.69431 0.90852-0.62860
   0   6   448686.78 1439.55   1-0.60824 0.67887 0.69423-0.30980-0.38481 0.66569
   0   6  -510845.37  710.48   1 0.90261-0.99363 0.27198 0.11150-0.33363-0.01598
   0  -6  -510979.18  573.38   1 0.39768-0.48560 0.32925-0.71355-0.85640 0.50500
   0   6  -510624.69  572.04   1 0.74447-0.83330 0.65471-0.27049 0.13082-0.48210
   0  -6   510877.73  513.71   1-0.32304 0.41186 0.36142-0.74526 0.87464-0.52435
   0   6   513966.57  785.93   1-0.63990 0.72820 0.72970-0.34527-0.24093 0.59203
   0   6  -6 7212.53  654.39   1 0.88513-0.99436 0.29689 0.08659-0.35831-0.06122
   0  -6  -6 7398.43  541.06   1 0.42790-0.53340 0.35608-0.74037-0.83072 0.40904
   0   6  -6 7600.20  548.27   1 0.75188-0.85848 0.65920-0.27499 0.01134-0.43288
   0  -6   6 8713.99  543.63   1-0.35227 0.45885 0.39464-0.77848 0.84861-0.42826
   0   6   6 6072.58  532.13   1-0.65550 0.76170 0.74622-0.36216-0.11603 0.53725
   0  -6  -720889.39  998.07   1 0.44610-0.56919 0.37226-0.75656-0.81388 0.32191
   0   6  -721348.25 1029.62   1 0.74979-0.87416 0.65564-0.27143-0.08909-0.40269
   0  -6   718401.92  886.36   1-0.37076 0.49510 0.41566-0.79950 0.83051-0.34010
   0   6   718900.52  917.18   1-0.66004 0.78394 0.75117-0.36711-0.00924 0.50066
   0   6  -8 4246.01  866.89   1 0.84254-0.98818 0.34933 0.03415-0.40997-0.14941
   0  -6  -8 4644.69  813.24   1 0.45581-0.59649 0.38090-0.76520-0.80444 0.24220
   0   6  -8 4378.61  798.83   1 0.74268-0.88458 0.64613-0.26153-0.17587-0.38615
   0  -6   8 5563.17  890.06   1-0.38147 0.52357 0.42783-0.81167 0.81940-0.25893
   0   6   8 5436.92  964.59   1-0.65783 0.79943 0.74846-0.36440 0.08401 0.47761
   0   6  -9 1424.46  520.28   1 0.81954-0.98003 0.37566 0.00876-0.43269-0.19863
   0  -6  -9 1170.51  449.00   1 0.45928-0.61753 0.38398-0.76828-0.80100 0.16848
   0   6  -9 1452.32  395.51   1 0.73080-0.89043 0.63441-0.24982-0.25187-0.38040
   0  -6   9 1103.62  321.63   1-0.38637 0.54624 0.43341-0.81724 0.81416-0.18363
   0   6   9  905.38  417.30   1-0.65168 0.81057 0.73991-0.35594 0.16680 0.46505
   0   6 -10 9577.05 1066.08   1 0.79167-0.97000 0.40309-0.01865-0.45909-0.24238
   0  -6 -1012054.84 1179.83   1 0.45793-0.63377 0.38279-0.76708-0.80235 0.09954
   0   6 -1012523.83 1239.24   1 0.71604-0.89342 0.62031-0.23571-0.32013-0.38240
   0  -6  1011387.29 1059.54   1-0.38677 0.56440 0.43386-0.81770 0.81373-0.11314
   0   6  1011706.30 1071.70   1-0.64149 0.81803 0.72819-0.34422 0.24127 0.46078
   0   6 -11 9934.79 1495.50   1 0.76089-0.95705 0.43060-0.04616-0.48541-0.28621
   0  -6 -11 4318.23  774.16   1 0.45271-0.64613 0.37814-0.76244-0.80749 0.03441
   0   6 -11 6723.46 1048.25   1 0.69982-0.89424 0.60323-0.21860-0.38256-0.39056
   0  -6  11 7614.37 1096.46   1-0.38355 0.57894 0.43019-0.81403 0.81719-0.04655
   0   6  11 6870.22  975.02   1-0.62867 0.82287 0.71349-0.32951 0.30934 0.46292
   0   7   0  543.17  237.05   1 0.93189-0.93189 0.22370 0.22370-0.28551 0.28551
   0  -7   0  381.11  196.12   1-0.23439 0.23439-0.22378-0.22378-0.94603 0.94603
   0   7   0  210.17   65.83   1 0.27944-0.27944 0.22419 0.22419-0.93362 0.93362
   0  -7   0  671.04  233.31   1 0.19018-0.19018-0.22292-0.22292 0.95610-0.95610
   0   7   186337.45 2174.22   1-0.91448 0.93237 0.30762 0.14040-0.26285 0.33311
   0   7   191155.57 2290.84   1 0.92326-0.90506 0.23897 0.20842-0.30077 0.37069
   0   7  -190782.84 2363.97   1 0.93230-0.95050 0.22296 0.22444-0.28477 0.21485
   0  -7  -191529.57 2425.17   1-0.05726 0.03976-0.07133-0.37640-0.99580 0.92560
   0   7  -180697.97 2045.46   1 0.11488-0.13238 0.07894 0.36879-0.99023 0.92003
   0   7  -192934.64 2354.99   1 0.41143-0.42915 0.37624 0.07185 0.83016-0.90036
   0  -7   188825.68 2512.97   1 0.05691-0.03914-0.07089-0.37495 0.99585-0.92621
   0   7   2 6086.46  652.54   1-0.80460 0.83992 0.43678 0.01098-0.40227 0.54259
   0   7   2 8108.08  357.79   1 0.89630-0.85989 0.28126 0.16614-0.34283 0.48268
   0   7  -2 8600.94  521.16   1 0.92783-0.96424 0.23101 0.21638-0.29282 0.15298
   0  -7  -2 8686.94  755.51   1 0.09034-0.12535 0.05747-0.50521-0.99425 0.85384
   0   7  -2 7685.27  431.17   1 0.55584-0.59142 0.49991-0.05170 0.66416-0.80469
   0  -7   2 8668.84  683.42   1-0.05819 0.09392 0.06004-0.50679 0.99649-0.85693
   0   7   2 8356.49  576.44   1-0.44681 0.48206 0.51233-0.06398-0.73339 0.87379
   0   7   321122.30  623.30   1-0.49554 0.54860 0.62104-0.17262-0.60723 0.81806
   0   7   321672.82  651.89   1 0.80467-0.75117 0.39062 0.05788-0.44711 0.65755
   0   7  -323224.75  998.19   1 0.91984-0.97445 0.24476 0.20263-0.30654 0.09677
   0  -7  -322429.83 1184.01   1 0.20051-0.25319 0.15467-0.60306-0.96740 0.75644
   0   7  -322220.93  810.11   1 0.65330-0.70674 0.58234-0.13432 0.48379-0.69459
   0  -7   325271.14 1835.77   1-0.14961 0.20287 0.16340-0.61098 0.97514-0.76520
   0   7   321432.33  892.43   1-0.53581 0.58878 0.61298-0.16468-0.58064 0.79133
   0   7  -455728.93 1835.33   1 0.90891-0.98173 0.26238 0.18502-0.32408 0.04439
   0  -7  -452903.39 1876.38   1 0.27928-0.34952 0.22405-0.67243-0.93370 0.65242
   0   7  -449749.15 1622.40   1 0.71027-0.78133 0.62886-0.18085 0.31628-0.59733
   0  -7   449869.42 2089.10   1-0.21733 0.28834 0.24024-0.68782 0.94606-0.66614
   0   7   447018.06 1552.06   1-0.59508 0.66570 0.67994-0.23164-0.42842 0.70934
   0   7  -5 7575.47  614.79   1 0.89530-0.98632 0.28269 0.16471-0.34425-0.00535
   0  -7  -5 9868.02  582.92   1 0.33291-0.42083 0.27188-0.72023-0.90290 0.55150
   0   7  -510020.88  678.10   1 0.73890-0.82772 0.65159-0.20358 0.17158-0.52289
   0  -7   510662.92  942.59   1-0.26586 0.35462 0.29531-0.74288 0.91766-0.56776
   0   7   5 9999.07  599.89   1-0.63129 0.71959 0.72009-0.27158-0.28798 0.63908
   0   7  -660097.48 2058.74   1 0.87913-0.98836 0.30492 0.14248-0.36625-0.05328
   0  -7  -656859.30 1797.18   1 0.36932-0.47482 0.30411-0.75245-0.87813 0.45644
   0   7  -660039.55 1861.68   1 0.75074-0.85735 0.65883-0.21058 0.04814-0.46968
   0  -7   663683.25 1952.12   1-0.29896 0.40553 0.33404-0.78185 0.89388-0.47353
   0   7   658020.80 1879.84   1-0.65118 0.75738 0.74139-0.29332-0.16215 0.58337
   0   7  -7 2252.28  541.33   1 0.86043-0.98786 0.32852 0.11888-0.38952-0.09994
   0  -7  -7 1712.16  345.78   1 0.39293-0.51601 0.32503-0.77338-0.86020 0.36824
   0   7  -7 3080.47  459.30   1 0.75129-0.87566 0.65753-0.20928-0.05658-0.43520
   0  -7   7 2807.10  384.79   1-0.32177 0.44611 0.35997-0.80779 0.87571-0.38530
   0   7   7 2074.82  375.12   1-0.65912 0.78302 0.75021-0.30214-0.05225 0.54367
   0   7  -8 3081.98  678.16   1 0.83918-0.98481 0.35308 0.09431-0.41364-0.14573
   0  -7  -8 3193.34  539.33   1 0.40718-0.54785 0.33768-0.78602-0.84863 0.28638
   0   7  -8 4652.38  744.41   1 0.74590-0.88780 0.64943-0.20073-0.14788-0.41414
   0  -7   8 3530.18  572.88   1-0.33629 0.47839 0.37648-0.82430 0.86322-0.30275
   0   7   8 4269.92  671.10   1-0.65945 0.80105 0.75039-0.30232 0.04499 0.51663
   0   7  -912729.18  932.30   1 0.81744-0.97794 0.37782 0.07068-0.43477-0.19655
   0  -7  -914998.77  945.83   1 0.41440-0.57265 0.34409-0.79243-0.84253 0.21001
   0   7  -916502.97 1248.74   1 0.73504-0.89468 0.63855-0.18985-0.22793-0.40434
   0  -7   915918.86  941.77   1-0.34446 0.50433 0.38577-0.83358 0.85587-0.22534
   0   7   914219.54  836.72   1-0.65512 0.81401 0.74388-0.29592 0.13204 0.49981
   0   7 -10 1336.53  670.72   1 0.79097-0.96930 0.40374 0.04476-0.45972-0.24175
   0  -7 -10  561.02  291.07   1 0.41615-0.59199 0.34565-0.79399-0.84103 0.13822
   0   7 -10 1017.94  506.58   1 0.72085-0.89822 0.62487-0.17617-0.29985-0.40268
   0  -7  10 1087.09  415.64   1-0.34763 0.52526 0.38937-0.83718 0.85295-0.15236
   0   7  10  466.93  358.75   1-0.64617 0.82271 0.73356-0.28560 0.21055 0.49150
   0   7 -11 3868.96  791.99   1 0.76164-0.95780 0.42996 0.01854-0.48480-0.28682
   0  -7 -11 2223.07  514.34   1 0.41351-0.60693 0.34329-0.79164-0.84330 0.07021
   0   7 -11 3408.86  701.39   1 0.70482-0.89924 0.60788-0.15914-0.36565-0.40747
   0  -7  11 4616.83  827.76   1-0.34674 0.54213 0.38835-0.83617 0.85378-0.08313
   0   7  11 2087.20  490.55   1-0.63415 0.82835 0.71977-0.27180 0.28242 0.48984
   0   8   035199.69 1160.75   1 0.91317-0.91317 0.25566 0.25566-0.31740 0.31740
   0   8   035196.01 1182.51   1 0.27327-0.27327 0.25605 0.25605 0.92723-0.92723
   0   8   1  584.58  314.31   1 0.90080-0.88259 0.27468 0.23663-0.33631 0.40623
   0   8  -1  601.69  426.66   1 0.91627-0.93447 0.25066 0.26065-0.31242 0.24250
   0  -8  -1  373.22  175.71   1-0.11669 0.09915-0.12166-0.38983-0.98568 0.91553
   0   8  -1 1166.51  341.38   1 0.42500-0.44273 0.38800 0.12410 0.81781-0.88802
   0  -8   1  771.76  279.46   1 0.10116-0.08339-0.12135-0.38818 0.98744-0.91779
   0   8   2 7570.90  931.13   1-0.79701 0.83233 0.44368 0.06804-0.40976 0.55008
   0   8   210756.98  457.53   1 0.86908-0.83267 0.31785 0.19346-0.37902 0.51886
   0   8  -210232.80  701.12   1 0.91382-0.95023 0.25462 0.25669-0.31636 0.17652
   0  -8  -210205.50 1005.48   1 0.02067-0.05568-0.00339-0.50830-0.99978 0.85937
   0   8  -212023.79  608.73   1 0.55378-0.58936 0.49814 0.01409 0.66721-0.80774
   0  -8   211252.02 1295.10   1-0.00320 0.03893-0.00248-0.50807 0.99999-0.86043
   0   8   210215.40  622.06   1-0.44406 0.47931 0.50920 0.00320-0.73723 0.87763
   0   8   371270.96 2011.04   1-0.55174 0.60480 0.59845-0.08597-0.58089 0.79172
   0   8   374842.12 2125.13   1 0.78057-0.72707 0.41332 0.09925-0.46890 0.67934
   0   8  -376656.96 2388.20   1 0.90744-0.96206 0.26464 0.24667-0.32634 0.11657
   0  -8  -384166.68 2532.86   1 0.12806-0.18074 0.09104-0.60348-0.98757 0.77661
   0   8  -372426.68 2184.08   1 0.64572-0.69915 0.57596-0.06394 0.50130-0.71210
   0  -8   376455.28 2378.16   1-0.08983 0.14343 0.09601-0.60658 0.99131-0.78197
   0   8   377867.88 2391.34   1-0.52699 0.57995 0.60299-0.09065-0.59889 0.80958
   0   8  -4 5217.87  754.81   1 0.89790-0.97072 0.27894 0.23237-0.34053 0.06084
   0  -8  -4 4671.98  651.85   1 0.20926-0.27951 0.16237-0.67481-0.96428 0.68300
   0   8  -4 3960.32  436.51   1 0.70341-0.77446 0.62325-0.11124 0.34170-0.62275
   0  -8   4 3839.59  605.91   1-0.15792 0.22893 0.17282-0.68434 0.97220-0.69229
   0   8   4 3394.68  478.33   1-0.58571 0.65633 0.66937-0.15704-0.45702 0.73794
   0   8  -5100244.3 3076.92   1 0.88555-0.97657 0.29631 0.21500-0.35774 0.00813
   0  -8  -596205.03 3204.33   1 0.26807-0.35588 0.21417-0.72661-0.93928 0.58769
   0   8  -5104158.8 2981.58   1 0.73475-0.82357 0.64840-0.13639 0.19925-0.55056
   0  -8   5104773.8 3131.81   1-0.20891 0.29767 0.23068-0.74220 0.95033-0.60043
   0   8   597872.27 2875.88   1-0.62409 0.71239 0.71202-0.19945-0.32174 0.67284
   0   8  -6 3404.87  627.11   1 0.87058-0.97981 0.31596 0.19535-0.37715-0.04238
   0  -8  -6 3994.39  614.30   1 0.30956-0.41493 0.25078-0.76322-0.91721 0.49529
   0   8  -6 3824.86  450.25   1 0.74930-0.85590 0.65800-0.14572 0.07464-0.49617
   0  -8   6 3986.98  484.04   1-0.24616 0.35267 0.27295-0.78447 0.92999-0.51012
   0   8   6 4418.58  598.59   1-0.64635 0.75231 0.73686-0.22428-0.19813 0.61945
   0   8  -7 1277.34  618.91   1 0.85306-0.98049 0.33728 0.17403-0.39814-0.09132
   0  -8  -7  957.14  428.13   1 0.33745-0.46054 0.27589-0.78829-0.90000 0.40803
   0   8  -7  839.78  289.57   1 0.75189-0.87626 0.65846-0.14618-0.03268-0.45910
   0  -8   7  444.63  196.63   1-0.27256 0.39683 0.30291-0.81443 0.91320-0.42334
   0   8   7 1127.17  471.90   1-0.65754 0.78144 0.74848-0.23640-0.08603 0.57745
   0   8  -810326.63  925.57   1 0.83493-0.97759 0.35930 0.15326-0.41687-0.14430
   0  -8  -8 8394.46  680.67   1 0.35595-0.49662 0.29227-0.80466-0.88762 0.32537
   0   8  -8 9272.71  714.03   1 0.74788-0.88978 0.65152-0.13872-0.12724-0.43478
   0  -8   8 9750.12  659.49   1-0.28970 0.43180 0.32352-0.83530 0.90078-0.34031
   0   8   8 8033.33  630.19   1-0.66003 0.80163 0.75111-0.23903 0.01367 0.54795
   0   8  -9 2099.75  699.04   1 0.81238-0.97287 0.38296 0.12961-0.43973-0.19159
   0  -8  -9 1442.77  379.85   1 0.36682-0.52508 0.30189-0.81429-0.87994 0.24741
   0   8  -9 1366.76  432.37   1 0.73786-0.89749 0.64131-0.12852-0.21040-0.42187
   0  -8   9 1988.37  494.30   1-0.30087 0.46074 0.33622-0.84801 0.89242-0.26189
   0   8   9 1315.95  346.90   1-0.65731 0.81620 0.74642-0.23446 0.10380 0.52804
   0   8 -10 1050.15  589.49   1 0.78713-0.96546 0.40731 0.10526-0.46314-0.23832
   0  -8 -10 2334.03  511.16   1 0.37167-0.54751 0.30619-0.81858-0.87641 0.17360
   0   8 -10 1650.11  479.59   1 0.72408-0.90145 0.62795-0.11516-0.28526-0.41726
   0  -8  10 2588.55  566.68   1-0.30667 0.48430 0.34282-0.85460 0.88793-0.18734
   0   8  10 3482.31  630.74   1-0.64949 0.82603 0.73739-0.22542 0.18549 0.51657
   0   9   0  233.14  286.21   1 0.89184-0.89184 0.28761 0.28761-0.34913 0.34913
   0   9   0  344.22  236.87   1 0.30997-0.30997 0.28806 0.28806 0.90605-0.90605
   0   9   1 7907.10  478.24   1 0.87562-0.85741 0.30951 0.26571-0.37079 0.44071
   0   9  -1 9099.37  601.34   1 0.89775-0.91596 0.27914 0.29608-0.34074 0.27081
   0  -9  -1 8760.23  449.15   1-0.17085 0.15331-0.16870-0.40673-0.97074 0.90059
   0   9  -1 8174.52  455.14   1 0.44426-0.46205 0.40391 0.17235 0.79967-0.86994
   0  -9   1 8646.03  424.71   1 0.14224-0.12447-0.16820-0.40502 0.97543-0.90579
   0   9   2 8883.26  461.18   1 0.83901-0.80260 0.35327 0.22196-0.41382 0.55367
   0   9  -2 9894.40  672.02   1 0.89743-0.93384 0.27962 0.29561-0.34120 0.20136
   0  -9  -210666.61 1028.18   1-0.04436 0.00935-0.06009-0.51556-0.99720 0.85679
   0   9  -2 9231.19  490.21   1 0.55821-0.59379 0.50193 0.07432 0.66064-0.80117
   0  -9   210378.90  872.49   1 0.04739-0.01165-0.06004-0.51433 0.99706-0.85750
   0   9   2 9168.21  548.03   1-0.44682 0.48207 0.51235 0.06410-0.73337 0.87378
   0   9   3 3777.12  261.26   1 0.74951-0.69601 0.44012 0.13652-0.49448 0.70492
   0   9  -3 4469.77  560.34   1 0.89273-0.94734 0.28635 0.28888-0.34788 0.13811
   0  -9  -3 4557.90  558.78   1 0.05984-0.11236 0.03081-0.60647-0.99773 0.78712
   0   9  -3 4435.07  428.25   1 0.64346-0.69689 0.57406 0.00196 0.50636-0.71716
   0  -9   3 3962.44  442.45   1-0.03440 0.08800 0.03299-0.60738 0.99886-0.78952
   0   9   3 3672.92  430.16   1-0.52331 0.57628 0.59883-0.02245-0.60625 0.81694
   0   9  -460125.83 2183.97   1 0.88459-0.95741 0.29762 0.27760-0.35904 0.07935
   0  -9  -460329.93 2438.34   1 0.14075-0.21099 0.10217-0.67867-0.98475 0.70347
   0   9  -459437.92 2029.57   1 0.69974-0.77079 0.62023-0.04422 0.35449-0.63554
   0  -9   460651.55 3174.48   1-0.10088 0.17235 0.10857-0.68295 0.98895-0.70983
   0   9   458764.69 2073.13   1-0.57993 0.65055 0.66285-0.08647-0.47359 0.75451
   0   9  -5 2097.23  715.59   1 0.87348-0.96450 0.31227 0.26296-0.37350 0.02389
   0  -9  -5 2225.61  300.10   1 0.20263-0.29043 0.15654-0.73303-0.96666 0.61506
   0   9  -5 1761.76  406.37   1 0.73203-0.82084 0.64629-0.07027 0.21548-0.56680
   0  -9   5 1539.74  345.37   1-0.15328 0.24204 0.16756-0.74301 0.97387-0.62397
   0   9   5 2496.81  408.31   1-0.61886 0.70716 0.70616-0.12952-0.34398 0.69508
   0   9  -621426.28 1114.87   1 0.85966-0.96888 0.32945 0.24578-0.39044-0.02909
   0  -9  -622882.19 1508.10   1 0.24813-0.35350 0.19659-0.77309-0.94856 0.52664
   0   9  -623913.38 1022.39   1 0.74812-0.85473 0.65725-0.08094 0.09118-0.51271
   0  -9   622475.35 1886.48   1-0.19287 0.29938 0.21249-0.78794 0.95793-0.53806
   0   9   625444.93 1119.06   1-0.64279 0.74874 0.73290-0.15626-0.22285 0.64417
   0   9  -7 3996.67  849.72   1 0.84322-0.97066 0.34857 0.22666-0.40921-0.08024
   0  -9  -7 3944.68  931.49   1 0.28067-0.40360 0.22527-0.80177-0.93299 0.44075
   0   9  -7 4913.45  611.29   1 0.75205-0.87642 0.65886-0.08255-0.01738-0.47440
   0  -9   7 4227.34 1137.24   1-0.22207 0.34634 0.24563-0.82108 0.94358-0.45372
   0   9   7 5420.32  608.47   1-0.65589 0.77979 0.74665-0.17056-0.11092 0.60235
   0   9  -8  381.67  478.63   1 0.82611-0.96877 0.36879 0.20786-0.42605-0.13512
   0  -9  -8  619.10  295.80   1 0.30301-0.44350 0.24499-0.82149-0.92095 0.35839
   0   9  -8 1405.19  436.90   1 0.74897-0.89087 0.65269-0.07580-0.11414-0.44788
   0  -9   8 1182.48  377.42   1-0.24283 0.38485 0.26917-0.84463 0.93197-0.37213
   0   9   8  605.45  290.81   1-0.66003 0.80163 0.75116-0.17507-0.00997 0.57160
   0   9  -9 3621.57  735.48   1 0.80464-0.96513 0.39065 0.18599-0.44714-0.18418
   0  -9  -9 1415.97  417.29   1 0.31682-0.47508 0.25766-0.83410-0.91281 0.28028
   0   9  -9 2724.03  478.28   1 0.73947-0.89911 0.64292-0.06602-0.19957-0.43270
   0  -9   9 1236.54  525.04   1-0.25671 0.41649 0.28493-0.86038 0.92352-0.29371
   0   9   9 1445.32  346.31   1-0.65794 0.81724 0.74859-0.17250 0.08196 0.54986
   0  10   014640.43  722.58   1 0.86771-0.86771 0.31957 0.31957-0.38071 0.38071
   0  10   012727.51  624.47   1 0.34673-0.34673 0.32006 0.32006 0.88166-0.88166
   0  10   1 9074.77  501.52   1 0.84745-0.82925 0.34377 0.29537-0.40451 0.47443
   0  10  -1 7940.52  600.38   1 0.87663-0.89483 0.30820 0.33094-0.36949 0.29957
   0 -10  -110864.39  530.20   1-0.22228 0.20473-0.21328-0.42608-0.95136 0.88121
   0  10  -1 9108.64  540.60   1 0.46580-0.48359 0.42251 0.21778 0.77749-0.84776
   0 -10   110158.37  533.97   1 0.18102-0.16325-0.21247-0.42445 0.96025-0.89061
   0  10   2 8078.78  441.46   1 0.80578-0.77012 0.38953 0.25119-0.44606 0.58635
   0  10  -2 8680.79  692.53   1 0.87857-0.91498 0.30566 0.33348-0.36698 0.22713
   0 -10  -2 9237.62  956.47   1-0.10719 0.07209-0.11340-0.52596-0.98774 0.84744
   0  10  -2 8549.20  553.18   1 0.56759-0.60317 0.50995 0.13034 0.64635-0.78688
   0 -10   2 9520.55  535.65   1 0.09396-0.05842-0.11313-0.52378 0.98912-0.84984
   0  10   2 7817.75  543.44   1-0.45372 0.48897 0.52019 0.12031-0.72355 0.86395
   0  10   316537.47  834.05   1 0.71243-0.65894 0.46908 0.17163-0.52190 0.73235
   0  10  -318525.69 1125.32   1 0.87565-0.93026 0.30947 0.32967-0.37074 0.16097
   0 -10  -318875.71 1900.69   1-0.00635-0.04616-0.02697-0.61265-0.99961 0.78900
   0  10  -318192.57  996.80   1 0.64573-0.69916 0.57597 0.06405 0.50128-0.71208
   0 -10   318927.94 1711.91   1 0.01776 0.03583-0.02634-0.61186 0.99949-0.79015
   0  10   319236.93 1115.16   1-0.52387 0.57684 0.59946 0.04095-0.60513 0.81582
   0  10  -4 2382.99  695.69   1 0.86897-0.94178 0.31800 0.32115-0.37916 0.09946
   0 -10  -4 1065.74  277.52   1 0.07481-0.14483 0.04389-0.68352-0.99623 0.71541
   0  10  -4  942.20  372.71   1 0.69918-0.77024 0.61978 0.02023 0.35638-0.63743
   0 -10   4  753.84  306.99   1-0.04673 0.11820 0.04701-0.68522 0.99780-0.71867
   0  10   4 1285.06  532.12   1-0.57750 0.64812 0.66010-0.01968-0.48036 0.76128
   0  10  -515339.44  896.18   1 0.85911-0.95014 0.33010 0.30904-0.39108 0.04146
   0 -10  -514073.90 1621.71   1 0.13748-0.22529 0.09931-0.73986-0.98551 0.63391
   0  10  -516045.41  911.43   1 0.73101-0.81983 0.64549-0.00547 0.22126-0.57258
   0 -10   513736.67 1604.28   1-0.09890 0.18824 0.10632-0.74453 0.98939-0.64049
   0  10   512938.89  745.63   1-0.61581 0.70410 0.70273-0.06201-0.35628 0.70738
   0  10  -6 1347.46  506.72   1 0.84641-0.95564 0.34496 0.29418-0.40567-0.01386
   0 -10  -6 1305.62  450.04   1 0.18599-0.29135 0.14190-0.78246-0.97224 0.55033
   0  10  -6 1525.45  480.26   1 0.74756-0.85417 0.65688-0.01653 0.09819-0.51972
   0 -10   6 1458.21  535.60   1-0.14014 0.24665 0.15265-0.79204 0.97829-0.55841
   0  10   6 1263.75  458.85   1-0.64035 0.74630 0.73019-0.08947-0.23823 0.65955
   0  10  -7  752.58  489.32   1 0.83275-0.95758 0.36167 0.27904-0.41917-0.07186
   0 -10  -7  808.91  243.76   1 0.22194-0.34487 0.17353-0.81408-0.95949 0.46725
   0  10  -7 1185.39  402.14   1 0.75207-0.87644 0.65899-0.01864-0.01064-0.48114
   0 -10   7  973.62  422.82   1-0.17143 0.29569 0.18815-0.82755 0.96706-0.47720
   0  10   7 1111.62  427.34   1-0.65457 0.77847 0.74518-0.10508-0.12739 0.61881
   0  10  -8 1975.68  734.13   1 0.81488-0.95754 0.38043 0.26029-0.43729-0.12388
   0 -10  -8  962.58  453.05   1 0.24769-0.38818 0.19620-0.83675-0.94876 0.38620
   0  10  -8   -4.95  212.65   1 0.74856-0.89070 0.65425-0.01390-0.10768-0.45436
   0 -10   8 1330.90  432.14   1-0.19450 0.33652 0.21433-0.85373 0.95719-0.39735
   0  10   8  495.49  249.68   1-0.65982 0.80142 0.75096-0.11086-0.02610 0.58772
   0  10  -9  119.80  501.82   1 0.79438-0.95487 0.40053 0.24018-0.45664-0.17468
   0 -10  -9   -5.65  209.47   1 0.26514-0.42320 0.21158-0.85214-0.94070 0.30782
   0 -10   9  301.65  234.91   1-0.21070 0.37047 0.23272-0.87211 0.94944-0.31962
   0  10   9   63.06  222.50   1-0.65866 0.81796 0.74944-0.10934 0.06704 0.56478
   0  11   0  483.00  277.89   1 0.84058-0.84058 0.35153 0.35153-0.41212 0.41212
   0  11   0  237.68  333.28   1 0.38356-0.38356 0.35207 0.35207 0.85376-0.85376
   0  11   1 5618.83  901.20   1 0.81646-0.79863 0.37882 0.32597-0.43574 0.50589
   0  11  -1 5809.47  963.07   1 0.85272-0.87092 0.33768 0.36537-0.39853 0.32861
   0  11  -1 6279.90  999.46   1 0.48976-0.50755 0.44316 0.26116 0.75082-0.82108
   0  11   1 5541.15  900.88   1 0.27376-0.25603 0.25648 0.44766 0.92696-0.85676
   0  11   1 3565.36  650.29   1-0.38852 0.40615 0.44605 0.25850-0.80627 0.87647
   0  11   215364.19  662.11   1 0.76894-0.73327 0.42365 0.28113-0.47878 0.61908
   0  11  -215804.68  878.07   1 0.85710-0.89351 0.33251 0.37055-0.39344 0.25360
   0 -11  -216057.83  703.12   1-0.16574 0.13064-0.16426-0.53904-0.97239 0.83208
   0  11  -215636.78  749.05   1 0.58102-0.61664 0.52113 0.18289 0.62516-0.76569
   0 -11   217165.36  731.53   1 0.13842-0.10288-0.16385-0.53675 0.97672-0.83744
   0  11   214857.62  751.42   1-0.46376 0.49901 0.53159 0.17296-0.70875 0.84915
   0  11  -3 1589.77  405.46   1 0.85610-0.91071 0.33370 0.36935-0.39462 0.18485
   0 -11  -3 2302.53  501.40   1-0.07005 0.01753-0.08246-0.62112-0.99412 0.78351
   0  11  -3 1591.55  371.86   1 0.65174-0.70517 0.58102 0.12300 0.48747-0.69827
   0 -11   3 1678.71  456.70   1 0.06655-0.01324-0.08188-0.61872 0.99441-0.78549
   0  11   3 2363.45  451.98   1-0.52788 0.58084 0.60399 0.10046-0.59709 0.80779
   0  11  -4 7512.09  787.91   1 0.85096-0.92378 0.33973 0.36333-0.40054 0.12084
   0 -11  -4 5774.22  841.76   1 0.00944-0.07946-0.01319-0.69039-0.99986 0.71905
   0  11  -4 6543.09  604.32   1 0.70145-0.77251 0.62164 0.08236 0.34858-0.62963
   0 -11   4 5126.89  714.66   1 0.00520 0.06626-0.01204-0.68997 0.99991-0.72079
   0  11   4 6142.07  644.37   1-0.57802 0.64864 0.66070 0.04375-0.47890 0.75982
   0  11  -5 2743.45  749.46   1 0.84242-0.93344 0.34948 0.35358-0.41011 0.06049
   0 -11  -5 2864.71  656.30   1 0.07388-0.16140 0.04307-0.74666-0.99633 0.64531
   0  11  -5 3405.54  753.09   1 0.73170-0.82052 0.64603 0.05797 0.21734-0.56866
   0 -11   5 3151.62  870.95   1-0.04638 0.13571 0.04661-0.74864 0.99783-0.64893
   0  11   5 2731.68  659.19   1-0.61488 0.70318 0.70170 0.00309-0.35990 0.71100
   0  11  -6 3323.59  617.85   1 0.83242-0.93942 0.36203 0.34275-0.41951-0.00136
   0 -11  -6 2730.49  662.95   1 0.12453-0.22957 0.08739-0.79098-0.98835 0.56713
   0 -11   6 3816.29  744.56   1-0.08801 0.19521 0.09394-0.79596 0.99167-0.57299
   0  11   6 4354.05  606.00   1-0.63920 0.74516 0.72892-0.02413-0.24512 0.66644
   0  11  -7 1557.75  456.27   1 0.81821-0.94303 0.37703 0.32775-0.43402-0.05701
   0 -11  -7 1784.19  559.98   1 0.16210-0.28503 0.12091-0.82552-0.97933 0.48709
   0 -11   7 1692.50  485.77   1-0.12085 0.24512 0.13076-0.83409 0.98401-0.49416
   0  11   7 1073.53  425.68   1-0.65382 0.77772 0.74434-0.04023-0.13589 0.62731
   0  11  -8 2084.93  798.56   1 0.80129-0.94395 0.39391 0.31087-0.45028-0.11089
   0 -11  -8  595.64  244.53   1 0.19075-0.33124 0.14609-0.85070-0.97070 0.40814
   0 -11   8 1217.44  483.31   1-0.14573 0.28775 0.15900-0.86233 0.97646-0.41662
   0  11   8  662.92  287.66   1-0.65964 0.80124 0.75076-0.04665-0.03489 0.59651
   0  12   0 2566.49  564.70   1 0.81092-0.81092 0.38443 0.38443-0.44115 0.44115
   0  12   0 2074.92  470.52   1 0.42048-0.42048 0.38408 0.38408 0.82199-0.82199
   0  12   1 4427.73  907.38   1 0.78157-0.76374 0.41241 0.35645-0.46803 0.53818
   0  12  -1 6592.69  561.70   1 0.82668-0.84451 0.36819 0.40067-0.42547 0.35533
   0  12  -1 6158.10  468.01   1 0.51552-0.53331 0.46533 0.30302 0.71951-0.78977
   0  12   1 6807.16  551.02   1 0.32129-0.30356 0.29792 0.47023 0.89889-0.82868
   0  12   1 5184.11  538.32   1-0.40836 0.42599 0.46862 0.29998-0.78334 0.85354
   0  12  -2 7232.45  700.88   1 0.83386-0.86953 0.36046 0.40839-0.41800 0.27770
   0 -12  -2 5494.10  442.87   1-0.22206 0.18696-0.21310-0.55414-0.95145 0.81115
   0  12  -2 5065.50  440.47   1 0.59707-0.63269 0.53479 0.23323 0.59790-0.73844
   0 -12   2 6616.49  468.59   1 0.18083-0.14529-0.21225-0.55205 0.96033-0.82105
   0  12  -3 1508.99  596.17   1 0.83508-0.88858 0.35914 0.40972-0.41671 0.20627
   0 -12  -3 1646.03  434.91   1-0.13303 0.08039-0.13586-0.63138-0.98175 0.77129
   0 -12   3 1879.59  442.87   1 0.11366-0.06034-0.13560-0.62870 0.98422-0.77529
   0  12   3 2167.30  561.20   1-0.53465 0.58761 0.61166 0.15683-0.58310 0.79379
   0  12  -4 1775.46  499.20   1 0.83176-0.90309 0.36275 0.40611-0.42021 0.13962
   0 -12  -4 1413.46  339.17   1-0.05449-0.01552-0.06892-0.69862-0.99613 0.71531
   0 -12   4  518.27  217.88   1 0.05519 0.01627-0.06893-0.69691 0.99609-0.71697
   0  12   4 1192.36  438.05   1-0.58109 0.65171 0.66416 0.10434-0.47033 0.75125
   0  12  -5 2555.69  618.25   1 0.82473-0.91390 0.37024 0.39862-0.42746 0.07672
   0 -12  -5 2198.06  600.41   1 0.00979-0.09732-0.01288-0.75466-0.99986 0.64884
   0 -12   5 1654.59  511.23   1 0.00473 0.08460-0.01151-0.75433 0.99992-0.65101
   0  12   5 1530.49  469.37   1-0.61593 0.70422 0.70287 0.06598-0.35580 0.70690
   0  12  -6  912.13  583.91   1 0.81449-0.92149 0.38083 0.38803-0.43768 0.01679
   0 -12  -6  468.60  241.85   1 0.06173-0.16676 0.03245-0.80001-0.99756 0.57634
   0 -12   6  771.34  279.76   1-0.03697 0.14417 0.03591-0.80176 0.99867-0.57998
   0  12   6  651.73  343.53   1-0.63936 0.74531 0.72909 0.03976-0.24420 0.66552
   0 -12  -7  662.92  251.63   1 0.10253-0.22507 0.06813-0.83568-0.99239 0.50096
   0 -12   7 1286.86  477.91   1-0.07050 0.19557 0.07404-0.83988 0.99475-0.50629
   0  13   0  710.11  283.40   1 0.77707-0.77707 0.41647 0.41647-0.47191 0.47191
   0  13  -1 1006.06  328.85   1 0.79664-0.81447 0.39838 0.43455-0.45457 0.38443
   0  13   1 1450.83  411.39   1-0.42927 0.44689 0.49239 0.34026-0.75714 0.82734
   0  13  -2  979.72  374.49   1 0.80672-0.84238 0.38860 0.44433-0.44517 0.30488
   0  13   2 1214.42  436.32   1-0.49052 0.52577 0.56198 0.27067-0.66600 0.80640
   0  13  -3 6518.78  855.78   1 0.81018-0.86368 0.38517 0.44776-0.44186 0.23142
   0 -13  -3 6013.75  636.15   1-0.19290 0.14026-0.18783-0.64335-0.96307 0.75261
   0 -13   3 5030.37  563.82   1 0.15892-0.10561-0.18724-0.64075 0.96937-0.76044
   0  13   3 4730.04  612.97   1-0.54365 0.59661 0.62185 0.21069-0.56368 0.77437
   0  13  -4 1508.67  535.87   1 0.80865-0.87998 0.38669 0.44624-0.44332 0.16273
   0 -13  -4  244.36  174.56   1-0.11855 0.04836-0.12328-0.70790-0.98526 0.70465
   0 -13   4  658.23  254.72   1 0.10262-0.03154-0.12301-0.70498 0.98708-0.70851
   0  13  -5  848.88  402.17   1 0.80310-0.89226 0.39216 0.44077-0.44859 0.09785
   0 -13  -5  405.10  217.82   1-0.05372-0.03380-0.06825-0.76326-0.99622 0.64520
   0 -13   5  446.35  480.24   1 0.05455 0.03477-0.06820-0.76146 0.99617-0.64727
   0  14  -2 1011.80  371.86   1 0.77632-0.81198 0.41714 0.47986-0.47256 0.33226
   0  14  -3 1435.38  433.99   1 0.78227-0.83576 0.41178 0.48523-0.46742 0.25698
   0 -14   3 2383.11  455.47   1 0.20268-0.14937-0.23719-0.65449 0.95008-0.74116
  -1   0  13  676.98  326.60   1-0.55458 0.68772 0.62736-0.62736 0.54667 0.36531
   1   0 -1211255.99 1117.67   1 0.70478-0.82201 0.47469-0.47470-0.52719-0.31457
   1   0 -1211426.15 1199.72   1 0.64927-0.76434 0.55675-0.55675-0.51813-0.32527
  -1   0  1213062.72 1279.05   1-0.57077 0.68621 0.64580-0.64580 0.50710 0.33472
   1   0 -11  312.54  288.69   1 0.75574-0.85513 0.43495-0.43495-0.48955-0.28206
   1   0 -11 1218.10  436.71   1 0.66682-0.76421 0.57280-0.57280-0.47670-0.29642
  -1   0  11  455.21  283.75   1-0.58580 0.68355 0.66291-0.66291 0.46623 0.30544
   1   0 -10 7099.19  620.51   1 0.80285-0.88441 0.39240-0.39240-0.44882-0.25265
   1   0 -10 6111.56 1049.75   1 0.68311-0.76284 0.58778-0.58778-0.43342-0.26942
  -1   0  10 5504.82  904.81   1-0.59973 0.67978 0.67877-0.67877 0.42376 0.27776
   1   0  -9 1632.26  550.89   1 0.84403-0.91120 0.34766-0.34766-0.40832-0.22098
   1   0  -9 1600.98  628.74   1 0.69821-0.76026 0.60174-0.60174-0.38780-0.24475
  -1   0   9  650.16  340.22   1-0.61261 0.67497 0.69343-0.69343 0.37926 0.25210
   1   0  -8  798.12  453.03   1 0.88443-0.93340 0.29783-0.29783-0.35925-0.20013
   1   0  -8  676.58  362.69   1 0.71112-0.75593 0.61566-0.61566-0.33949-0.22253
  -1   0   8  767.17  468.48   1-0.62370 0.66794 0.70779-0.70779 0.33170 0.22994
   1   0  -710899.45  533.05   1 0.92159-0.95235 0.24182-0.24182-0.30361-0.18585
   1   0  -713196.83  660.31   1 0.72382-0.75089 0.62770-0.62770-0.28647-0.20529
  -1   0   713668.47  629.10   1-0.63447 0.66107 0.72014-0.72014 0.28077 0.21066
  -1   0   6  604.50  131.33   1-0.95788 0.96687-0.17040 0.17040 0.23114 0.19001
   1   0  -6 1317.23  395.22   1 0.73518-0.74451 0.63868-0.63868-0.22714-0.19437
  -1   0   6 1194.44  423.71   1-0.64415 0.65309 0.73124-0.73124 0.22438 0.19685
  -1   0   5233614.0 4436.78   1-0.98427 0.97562-0.09112 0.09112 0.15134 0.19962
   1   0  -5214160.3 4044.46   1-0.94965 0.95715 0.24441-0.24441-0.19598-0.15531
   1   0  -5192133.5 3770.40   1 0.74481-0.73641 0.64831-0.64831-0.15791-0.19335
  -1   0   4149063.4 1294.04   1-0.99864 0.97341 0.00491-0.00491 0.05189 0.22898
   1   0  -4150000.9 1396.88   1-0.93506 0.96044 0.27298-0.27298-0.22612-0.05491
   1   0  -4152280.4 1488.81   1-0.64578 0.67215 0.73623-0.73623-0.20229-0.07858
   1   0  -3843975.5 6037.54   1-0.89478 0.93806 0.33643-0.33643-0.29355 0.08277
  -1   0   3831806.3 6006.98   1 0.72332-0.76725 0.63940-0.63940 0.26068-0.04990
   1   0  -3839786.5 6100.28   1-0.63947 0.68349 0.72921-0.72921-0.24356 0.03290
  -1   0   2 8055.75  206.75   1-0.88720 0.82574 0.34622-0.34622-0.30496 0.44528
   1   0  -2 7331.51  335.33   1 0.72831-0.66662 0.64336-0.64336 0.23589-0.37642
  -1   0   2 6804.44  227.78   1 0.68984-0.75153 0.61207-0.61207 0.38661-0.24609
  -1   0   2 7015.49  260.86   1-0.64610 0.58441 0.73657-0.73657-0.20001 0.34045
   1   0  -2 6654.72  318.85   1-0.61627 0.67795 0.70325-0.70325-0.35444 0.21400
  -1   0   0110191.7  872.45   1-0.04845-0.04845-0.06366 0.06366-0.99679 0.99679
   1   0   197494.82  855.09   1 0.47268-0.35799 0.60213-0.60213-0.64343 0.71363
  -1   0  -198751.96  839.30   1 0.42951-0.54416 0.35751-0.35751-0.82927 0.75899
   1   0   197576.35  820.31   1 0.52453-0.40989 0.44319-0.44319-0.72693 0.79722
   1   0   1103127.9  855.72   1-0.40562 0.52026 0.45528-0.45528 0.79257-0.72251
   1   0   2563573.0 4111.76   1 0.70143-0.56900 0.47712-0.47712-0.52947 0.66976
  -1   0  -2574556.8 4198.84   1 0.56807-0.70031 0.48225-0.48225-0.66687 0.52630
   1   0   2576329.5 4188.49   1-0.51926 0.65159 0.58547-0.58547 0.62256-0.48234
  -1   0  -3621104.3 4604.05   1 0.60155-0.75183 0.54057-0.54057-0.58814 0.37753
   1   0   3594050.9 4366.13   1 0.82325-0.67298 0.37180-0.37180-0.42896 0.63941
  -1   0  -3627831.4 4671.53   1 0.61228-0.76211 0.52210-0.52210-0.59373 0.38287
   1   0   3627815.0 4646.55   1-0.55218 0.70217 0.62462-0.62462 0.55221-0.34175
  -1   0  -3607215.3 4495.44   1-0.63236 0.48242 0.71772-0.71772 0.29152-0.50213
  -1   0  -4185020.9 3556.46   1 0.63456-0.80264 0.52139-0.52139-0.57050 0.28967
   1   0   4180462.6 3442.34   1 0.89178-0.72229 0.28769-0.28769-0.34921 0.62890
  -1   0  -4185230.3 3589.58   1 0.62707-0.79479 0.53655-0.53655-0.56470 0.28356
  -1   0  -5253001.6 6330.08   1 0.64349-0.82935 0.51593-0.51593-0.56544 0.21442
  -1   0  -5260383.9 6302.24   1 0.63075-0.81614 0.53989-0.53989-0.55737 0.20595
  -1   0  -6243856.3 5933.42   1 0.63824-0.84190 0.51915-0.51915-0.56843 0.14720
  -1   0  -6250392.6 6105.80   1 0.62828-0.83136 0.53765-0.53765-0.56229 0.14059
   1   0   6260617.2 7084.90   1-0.56147 0.76455 0.63520-0.63520 0.53033-0.10942
  -1   0  -761424.68 1938.13   1 0.62351-0.84497 0.52798-0.52798-0.57658 0.08514
  -1   0  -758734.05 1901.68   1 0.62199-0.84274 0.53194-0.53194-0.57459 0.08260
   1   0   757031.80 1790.94   1-0.55536 0.77614 0.62825-0.62825 0.54484-0.05377
  -1   0  -8 1594.59  548.69   1 0.60168-0.84092 0.54050-0.54050-0.58808 0.02643
  -1   0  -8   62.12  383.73   1 0.61377-0.85157 0.52345-0.52345-0.59100 0.02871
   1   0   8  697.99  403.99   1-0.54706 0.78553 0.61880-0.61880 0.56373-0.00250
  -1   0  -913194.72  894.90   1 0.57397-0.83101 0.55543-0.55543-0.60170-0.03014
  -1   0  -910977.33  837.61   1 0.60254-0.85793 0.51330-0.51330-0.61111-0.02146
   1   0   911212.88  804.54   1-0.53761 0.79393 0.60633-0.60633 0.58594 0.04508
  -1   0 -10  780.49  342.66   1 0.54100-0.81583 0.57193-0.57193-0.61660-0.08544
  -1   0 -10 1633.86  666.64   1 0.58940-0.86238 0.50145-0.50145-0.63336-0.06949
   1   0  10 1295.28  435.38   1-0.52593 0.79995 0.59304-0.59304 0.60966 0.09147
  -1   0 -1113141.32 1192.66   1 0.50300-0.79563 0.58935-0.58935-0.63217-0.14008
  -1   0 -1118162.09 1637.56   1 0.57449-0.86507 0.48803-0.48803-0.65709-0.11604
   1   0  1114469.97 1347.62   1-0.51275 0.80448 0.57807-0.57807 0.63475 0.13649
  -1   0 -12 1012.98  399.15   1 0.55789-0.86606 0.47310-0.47310-0.68185-0.16156
   1   0  12 1973.78  659.88   1-0.49812 0.80757 0.56144-0.56144 0.66079 0.18056
   1   1 -12 2711.28  499.14   1 0.74142-0.85865 0.44670-0.38263-0.50073-0.34103
   1  -1 -12  997.47  410.92   1 0.62997-0.74504 0.53919-0.60329-0.55892-0.28449
   1   1 -12 1023.10  429.27   1 0.66575-0.78082 0.57182-0.50771-0.47936-0.36405
  -1  -1  12 4147.28  636.67   1-0.55128 0.66672 0.62360-0.68758 0.55425 0.28757
  -1   1  12 2578.81  437.40   1-0.58751 0.70295 0.66485-0.60087 0.46129 0.38053
   1  -1 -11 4939.14  485.61   1 0.70760-0.80699 0.47264-0.53672-0.52526-0.24635
   1   1 -11 4310.59  919.81   1 0.78778-0.88717 0.40671-0.34264-0.46257-0.30904
   1  -1 -11 4869.85  634.42   1 0.64713-0.74452 0.55480-0.61891-0.52288-0.25024
   1   1 -11 4090.80  904.24   1 0.68338-0.78077 0.58802-0.52391-0.43268-0.34044
  -1  -1  11 3990.34  876.26   1-0.56590 0.66365 0.64025-0.70423 0.51945 0.25222
  -1   1  11 5634.88  492.66   1-0.60257 0.70031 0.68200-0.61801 0.41446 0.35721
   1  -1 -10   64.36  236.16   1 0.75996-0.84151 0.43139-0.49546-0.48616-0.21530
   1   1 -10 1575.36  534.35   1 0.83036-0.91191 0.36426-0.30019-0.42167-0.27979
   1  -1 -10  542.30  393.24   1 0.66305-0.74277 0.56935-0.63345-0.48600-0.21684
   1   1 -10  435.50  604.05   1 0.69962-0.77934 0.60305-0.53894-0.38321-0.31962
  -1  -1  10  943.28  391.57   1-0.57941 0.65946 0.65563-0.71962 0.48416 0.21736
  -1   1  10  584.36  482.67   1-0.61640 0.69645 0.69775-0.63376 0.36494 0.33657
   1  -1  -917904.57  830.13   1 0.80899-0.87272 0.38635-0.45042-0.44300-0.18832
   1   1  -916521.70  823.36   1 0.86708-0.93424 0.32036-0.25645-0.38149-0.24781
   1  -1  -916648.73  902.77   1 0.67780-0.73985 0.58288-0.64699-0.44812-0.18443
   1   1  -918759.92 1075.86   1 0.71347-0.77602 0.61787-0.55377-0.33042-0.30185
  -1  -1   917369.85  847.40   1-0.59187 0.65423 0.66982-0.73381 0.44834 0.18303
  -1   1   921122.37 1089.00   1-0.62820 0.69010 0.71295-0.64895 0.31153 0.32032
   1  -1  -810135.37  525.16   1 0.85256-0.90152 0.33787-0.40178-0.39871-0.16067
   1   1  -811789.75  721.94   1 0.90273-0.95170 0.27180-0.20788-0.33344-0.22593
   1  -1  -812311.67  682.37   1 0.69146-0.73583 0.59548-0.65958-0.40900-0.15327
   1   1  -811780.93  759.32   1 0.72676-0.77157 0.63052-0.56642-0.27248-0.28954
  -1  -1   810905.55  619.78   1-0.60333 0.64799 0.68287-0.74685 0.41189 0.14932
  -1   1   811207.00  682.40   1-0.63937 0.68362 0.72576-0.66176 0.25388 0.30776
   1  -1  -711824.43  552.91   1 0.89623-0.92699 0.28135-0.34527-0.34293-0.14653
   1   1  -710404.61  558.02   1 0.93481-0.96557 0.21829-0.15438-0.28010-0.20935
   1  -1  -7 9804.83  585.50   1 0.70407-0.73077 0.60719-0.67130-0.36821-0.12377
   1   1  -7 9165.19  684.79   1 0.73825-0.76532 0.64171-0.57761-0.20780-0.28396
  -1  -1   710116.87  532.45   1-0.61384 0.64081 0.69484-0.75882 0.37468 0.11638
  -1   1   7 9464.32  565.40   1-0.64895 0.67555 0.73677-0.67277 0.18978 0.30166
  -1  -1   620844.66  703.47   1-0.96510 0.97410-0.15231 0.08832 0.21301 0.20814
   1  -1  -617596.49  661.27   1-0.93003 0.91963 0.28196-0.34597-0.23563-0.18592
   1  -1  -619823.68  701.71   1 0.93729-0.94984 0.21360-0.27751-0.27541-0.14412
   1  -1  -619467.61  847.86   1 0.71467-0.72400 0.61900-0.68310-0.32569-0.09582
   1   1  -617635.35  750.19   1 0.74733-0.75666 0.65093-0.58683-0.13330-0.28822
  -1  -1   619750.66  764.05   1-0.62266 0.63160 0.70660-0.77060 0.33613 0.08509
  -1   1   618633.78  780.57   1-0.65641 0.66535 0.74538-0.68138 0.11626 0.30497
  -1   1   5 6061.24  252.93   1-0.97669 0.96805-0.11846 0.18245 0.17896 0.17200
  -1  -1   5 6245.19  458.42   1-0.98643 0.97778-0.08205 0.01806 0.14215 0.20880
   1   1  -5 4960.69  718.11   1-0.96325 0.97075 0.21326-0.14925-0.16325-0.18804
   1  -1  -5 6092.56  382.50   1-0.91854 0.92603 0.30120-0.36520-0.25602-0.09527
   1  -1  -5 5051.67  350.08   1 0.72540-0.71700 0.62922-0.69332-0.27904-0.07221
   1   1  -5 6416.84  460.28   1 0.75167-0.74335 0.65807-0.59404-0.04380-0.30747
  -1  -1   5 6461.05  418.84   1-0.63137 0.62266 0.71658-0.78058 0.29642 0.05461
  -1   1   5 5029.93  346.54   1-0.65984 0.65134 0.75086-0.68685 0.02854 0.32247
   1   1  -4169579.8 1561.97   1-0.65952 0.68572 0.75064-0.68663-0.03935-0.24146
  -1  -1   398957.35  959.33   1-0.99304 0.94987 0.10558-0.16955-0.05201 0.26267
  -1   1   398564.03  929.19   1-0.97241 0.92913 0.18852-0.12451-0.13735 0.34813
   1  -1  -397898.58  919.48   1-0.78536 0.82916 0.45391-0.51788-0.42089 0.21042
   1  -1  -396767.53 1026.39   1 0.74438-0.70050 0.64786-0.71196-0.16175-0.04900
  -1   1   394702.42  974.76   1 0.74923-0.79308 0.65796-0.59393 0.07566 0.13510
   1   1  -399627.72 1101.06   1 0.72977-0.68585 0.64452-0.58051 0.22807-0.43885
  -1  -1   399637.24 1027.53   1-0.64659 0.60257 0.73405-0.79805 0.20752 0.00309
   1   1  -394409.99  974.62   1-0.65977 0.70367 0.75090-0.68689-0.02890-0.18170
  -1   1   398521.25 1137.21   1-0.64065 0.59663 0.73053-0.66645-0.23640 0.44706
  -1  -1   2238088.8 1873.51   1-0.94743 0.88626 0.24904-0.31304-0.20085 0.34137
   1  -1  -2222626.2 1660.34   1-0.50764 0.56925 0.61648-0.68054-0.60187 0.46131
   1  -1  -2232976.2 1844.34   1 0.75084-0.68921 0.65692-0.72096-0.06845-0.07205
  -1   1   2228641.2 1799.15   1 0.74492-0.80654 0.65503-0.59100 0.12653 0.01397
   1   1  -2230802.7 1863.39   1 0.66271-0.60112 0.59022-0.52622 0.46091-0.60144
  -1  -1   2229831.5 1807.23   1-0.65350 0.59183 0.74201-0.80601 0.14946-0.00905
   1   1  -2228203.8 1805.16   1-0.65935 0.72095 0.75045-0.68644-0.04545-0.09495
  -1   1   2229725.7 1892.57   1-0.58388 0.52217 0.66730-0.60326-0.46236 0.60282
  -1  -1   1155542.2 1246.60   1 0.37987-0.45924 0.34887-0.41288 0.85672-0.78652
   1   1   028951.32  356.98   1-0.36667 0.46366 0.66057-0.59651-0.65512 0.65512
  -1   1   027532.64  347.88   1 0.35520-0.45227 0.64337-0.57926-0.67816 0.67816
   1  -1   028554.74  356.47   1 0.46893-0.37203 0.60364-0.66774-0.64475 0.64475
  -1   1   028566.16  246.02   1-0.19426 0.09737-0.18901 0.25294-0.96256 0.96256
  -1  -1   030278.37  402.44   1-0.03518-0.06173-0.05210-0.01186-0.99802 0.99802
   1  -1   029693.70  372.52   1 0.03732 0.05934-0.04859-0.01522 0.99812-0.99812
   1   1   1602430.1 4294.43   1 0.14881-0.03405 0.68721-0.62313-0.71104 0.78137
   1  -1   1596815.3 4300.67   1 0.69374-0.57914 0.48259-0.54667-0.53462 0.60476
  -1  -1  -1619133.6 4456.78   1 0.31793-0.43257 0.25863-0.32268-0.91215 0.84187
   1  -1   1587020.6 4132.83   1 0.68659-0.57189 0.59098-0.65509-0.42347 0.49375
   1  -1   1622753.9 4471.79   1-0.28208 0.39669 0.31371-0.37765 0.90664-0.83666
  -1  -1  -1597714.1 4198.59   1-0.64372 0.52909 0.73076-0.79475 0.22715-0.29736
  -1  -1  -2219723.6 1749.50   1 0.26083-0.39331 0.66758-0.73169-0.69734 0.55671
   1   1   2214835.0 1708.14   1 0.53441-0.40192 0.57507-0.51097-0.61942 0.75983
   1  -1   2213901.2 1763.68   1 0.81030-0.67786 0.38505-0.44912-0.44175 0.58204
  -1  -1  -2218749.5 1811.86   1 0.47897-0.61120 0.40153-0.46558-0.78060 0.64004
   1  -1   2218122.1 1724.13   1 0.73066-0.59809 0.63428-0.69838-0.25259 0.39310
   1  -1   2223328.8 1815.26   1-0.42587 0.55827 0.47829-0.54227 0.76802-0.62790
  -1  -1  -2216578.7 1713.94   1-0.65520 0.52291 0.74398-0.80797 0.13112-0.27153
  -1  -1  -343808.26  622.23   1 0.42405-0.57424 0.62091-0.68502-0.65927 0.44832
   1   1   341761.88  540.96   1 0.74461-0.59435 0.44413-0.38006-0.49828 0.70873
  -1  -1  -342704.62  652.52   1 0.54673-0.69656 0.46309-0.52715-0.69758 0.48672
   1  -1   342773.71  587.91   1 0.74401-0.59370 0.64748-0.71158-0.16494 0.37570
   1  -1   346568.75  648.20   1-0.48576 0.63580 0.54739-0.61139 0.68146-0.47112
  -1   1  -343794.38  601.58   1-0.58972 0.43973 0.66737-0.60339 0.45478-0.66524
   1   1   346084.96  635.05   1-0.60887 0.75886 0.68917-0.62519 0.39281-0.18236
  -1  -1  -345103.10  599.06   1-0.65839 0.50829 0.74912-0.81313 0.07303-0.28364
  -1  -1  -4115804.7 2288.82   1 0.50140-0.66947 0.59005-0.65415-0.63279 0.35197
  -1   1  -4115883.3 2351.94   1 0.71532-0.88342 0.46693-0.40286-0.51988 0.23929
   1   1   4115041.9 2248.15   1 0.85481-0.68532 0.33522-0.27130-0.39611 0.67580
  -1  -1  -4117731.0 2382.12   1 0.57707-0.74449 0.49034-0.55440-0.65310 0.37196
  -1   1  -4115278.6 2320.02   1 0.67078-0.83851 0.57643-0.51233-0.46664 0.18551
   1  -1   4111048.5 2208.07   1 0.74903-0.58081 0.65477-0.71881-0.10102 0.38205
   1  -1   4111906.4 2243.83   1-0.51218 0.67993 0.57742-0.64141 0.63581-0.35535
   1   1   4118462.0 2355.89   1-0.60584 0.77353 0.68573-0.62174 0.40338-0.12277
  -1  -1  -4106085.2 2120.89   1-0.65989 0.49209 0.75093-0.81494 0.02530-0.30612
  -1  -1  -5133234.6 3408.40   1 0.53543-0.72129 0.57459-0.63868-0.61899 0.26797
  -1   1  -5133325.9 3456.67   1 0.71201-0.89794 0.46940-0.40532-0.52220 0.17146
   1   1   5128787.7 3264.16   1 0.91931-0.73162 0.24564-0.18173-0.30742 0.65704
  -1  -1  -5135743.8 3522.25   1 0.59000-0.77501 0.50199-0.56605-0.63237 0.28095
  -1   1  -5133759.4 3453.87   1 0.66645-0.85184 0.57246-0.50835-0.47763 0.12620
   1   1   5129940.5 3343.34   1-0.59985 0.78523 0.67890-0.61492 0.42339-0.07263
  -1  -1  -650150.74 1443.33   1 0.54490-0.74856 0.57005-0.63414-0.61491 0.19368
  -1   1  -653057.94 1537.58   1 0.69976-0.90352 0.47832-0.41425-0.53060 0.10971
  -1  -1  -651017.50 1477.62   1 0.59362-0.79623 0.50526-0.56932-0.62635 0.20463
  -1   1  -654292.37 1598.80   1 0.65891-0.86198 0.56556-0.50146-0.49594 0.07423
   1  -1   650337.19 1410.07   1-0.52637 0.72955 0.59355-0.65754 0.60878-0.18810
   1   1   653659.27 1520.00   1-0.59196 0.79504 0.66992-0.60594 0.44807-0.02716
  -1  -1  -7105573.8 3109.33   1 0.53908-0.76054 0.57284-0.63694-0.61743 0.12599
  -1   1  -7109809.3 3302.10   1 0.68099-0.90259 0.49142-0.42735-0.54289 0.05186
  -1  -1  -7108039.7 3254.32   1 0.59157-0.81178 0.50341-0.56747-0.62976 0.13776
  -1   1  -7110049.0 3293.14   1 0.64914-0.86989 0.55664-0.49253-0.51842 0.02643
   1  -1   7108462.0 3227.70   1-0.52450 0.74539 0.59143-0.65542 0.61245-0.12165
   1   1   7107859.3 3195.01   1-0.58259 0.80336 0.65925-0.59527 0.47535 0.01571
  -1  -1  -841577.16 1418.17   1 0.52266-0.76190 0.58054-0.64464-0.62433 0.06268
  -1   1  -843651.01 1497.95   1 0.65714-0.89639 0.50733-0.44323-0.55746-0.00417
  -1  -1  -842620.44 1535.43   1 0.58564-0.82344 0.49806-0.56212-0.63949 0.07721
  -1   1  -842226.43 1486.95   1 0.63755-0.87598 0.54608-0.48197-0.54342-0.01885
   1  -1   841312.35 1394.41   1-0.51927 0.75787 0.58548-0.64947 0.62254-0.06163
   1   1   842399.70 1429.33   1-0.57191 0.81038 0.64709-0.58311 0.50416 0.05705
  -1  -1  -9 2519.98  405.80   1 0.49806-0.75510 0.59150-0.65560-0.63407 0.00222
  -1   1  -9 2725.00  423.41   1 0.62849-0.88553 0.52504-0.46094-0.57387-0.05797
  -1  -1  -9 3667.94  572.73   1 0.57677-0.83216 0.49007-0.55413-0.65357 0.02100
  -1   1  -9 2731.09  427.62   1 0.62436-0.88045 0.53408-0.46998-0.57001-0.06254
   1  -1   9 2708.82  345.89   1-0.51150 0.76781 0.57665-0.64064 0.63705-0.00603
   1   1   9 2784.53  408.84   1-0.55999 0.81616 0.63352-0.56954 0.53389 0.09747
  -1  -1 -10 7562.03  656.82   1 0.46655-0.74139 0.60459-0.66869-0.64558-0.05646
  -1   1 -1010279.52  958.93   1 0.59549-0.87033 0.54392-0.47982-0.59121-0.11084
  -1  -1 -10 7345.28  700.79   1 0.56549-0.83847 0.47993-0.54399-0.67073-0.03212
  -1   1 -10 9256.87  865.87   1 0.61046-0.88345 0.52046-0.45640-0.59702-0.10582
   1  -1  10 7805.24  709.08   1-0.50164 0.77566 0.56544-0.62943 0.65470 0.04643
   1   1  10 7968.11  712.91   1-0.54685 0.82071 0.61856-0.55458 0.56420 0.13732
  -1  -1 -11 4054.25  548.25   1 0.42915-0.72100 0.61907-0.68318-0.65769-0.11579
  -1   1 -11 5258.96  682.11   1 0.55823-0.85085 0.56347-0.49938-0.60899-0.16326
  -1  -1 -11 4214.12  570.47   1 0.55210-0.84268 0.46790-0.53196-0.69010-0.08303
  -1   1 -11 4715.34  606.97   1 0.59427-0.88485 0.50584-0.44178-0.62527-0.14787
   1  -1  11 6864.08  751.04   1-0.48994 0.78168 0.55215-0.61614 0.67459 0.09665
   1   1  11 4023.95  484.25   1-0.53312 0.82486 0.60122-0.53723 0.59523 0.17601
  -1   1 -12 6727.87  976.64   1 0.51655-0.82697 0.58333-0.51923-0.62681-0.21565
  -1  -1 -12 8305.13 1243.98   1 0.53677-0.84494 0.45415-0.51821-0.71106-0.13235
  -1   1 -12 9226.73 1360.07   1 0.57655-0.88473 0.48988-0.42582-0.65390-0.18952
   1  -1  12 8012.20 1104.97   1-0.47655 0.78600 0.53693-0.60092 0.69613 0.14523
   1   1  12 9327.21 1298.19   1-0.51746 0.82691 0.58343-0.51943 0.62596 0.21539
   1   2 -12 8987.60 1052.40   1 0.76658-0.88380 0.42571-0.29756-0.48074-0.36102
   1  -2 -12 9962.34 1113.56   1 0.60865-0.72273 0.51882-0.64694-0.60029-0.24313
   1   2 -1212164.82 1327.15   1 0.67962-0.79469 0.58456-0.45635-0.44316-0.40025
  -1  -2  12 9109.88  945.59   1-0.52976 0.64539 0.59740-0.72538 0.60204 0.23931
  -1   2  1210056.99 1058.89   1-0.60163 0.71708 0.68094-0.55297 0.41755 0.42427
   1   2 -11 1720.48  580.20   1 0.80908-0.90847 0.38626-0.25812-0.44292-0.32870
   1   2 -11 2938.77  885.02   1 0.69706-0.79445 0.60067-0.47246-0.39153-0.38160
  -1  -2  11 1244.23  374.29   1-0.54359 0.64151 0.61312-0.74110 0.57322 0.19802
  -1   2  11 1610.01  465.04   1-0.61638 0.71413 0.69773-0.56976 0.36501 0.40666
   1  -2 -10 1950.43  332.60   1 0.69160-0.77316 0.48409-0.61224-0.53603-0.16544
   1   2 -10 1134.14  388.10   1 0.84565-0.93102 0.34583-0.21800-0.40653-0.29269
   1  -2 -10 2857.51  618.44   1 0.63918-0.71890 0.54756-0.67577-0.54002-0.16282
   1   2 -10  710.66  442.05   1 0.71193-0.79221 0.61641-0.48821-0.33642-0.36611
  -1  -2  10 2473.74  436.89   1-0.55532 0.63537 0.62820-0.75616 0.54496 0.15656
  -1   2  10 1512.25  398.04   1-0.62888 0.70844 0.71373-0.58574 0.30834 0.39371
   1  -2  -9 4206.67  369.14   1 0.74615-0.80988 0.44287-0.57102-0.49709-0.13423
   1   2  -9 6250.38  513.21   1 0.88099-0.94816 0.30245-0.17462-0.36381-0.26549
   1  -2  -9 3173.51  432.51   1 0.65292-0.71497 0.56009-0.68830-0.50988-0.12267
   1   2  -9 5260.93  578.61   1 0.72596-0.78851 0.62976-0.50156-0.27635-0.35592
  -1  -2   9 5119.91  515.89   1-0.56663 0.62898 0.64108-0.76904 0.51763 0.11374
  -1   2   9 4038.71  439.20   1-0.64048 0.70238 0.72703-0.59904 0.24739 0.38445
   1  -2  -8 2600.41  314.05   1 0.79838-0.84427 0.39672-0.52486-0.45298-0.10819
   1   2  -8 2859.74  486.81   1 0.91290-0.96187 0.25608-0.12825-0.31782-0.24156
   1  -2  -8 1673.24  340.48   1 0.66536-0.70973 0.57147-0.69968-0.48032-0.08195
   1   2  -8 1156.85  475.91   1 0.73793-0.78273 0.64138-0.51318-0.20995-0.35207
  -1  -2   8 1175.01  384.41   1-0.57665 0.62131 0.65249-0.78046 0.49164 0.06957
  -1   2   8 1578.36  375.55   1-0.65014 0.69439 0.73814-0.61015 0.18015 0.38149
   1  -2  -724405.02  797.46   1-0.88749 0.86065 0.34583-0.47377-0.30455-0.18655
   1  -2  -728895.71  957.68   1 0.84642-0.87718 0.34495-0.47278-0.40566-0.08379
   1   2  -728575.79 1176.55   1 0.94121-0.97197 0.20595-0.07812-0.26774-0.22171
   1   2  -727443.03 1131.49   1 0.74719-0.77426 0.65078-0.52258-0.13482-0.35695
  -1   2   727092.99 1006.30   1-0.65728 0.68387 0.74639-0.61839 0.10428 0.38715
  -1  -2   613439.84  539.60   1-0.96752 0.97652-0.14581 0.01782 0.20648 0.21467
   1  -2  -612172.35  752.36   1-0.87576 0.86659 0.36089-0.48882-0.32060-0.10034
   1  -2  -612698.10  469.89   1 0.89716-0.90972 0.28000-0.40783-0.34159-0.07794
   1  -2  -612079.39  585.62   1 0.68617-0.69519 0.59060-0.71881-0.42468 0.00297
   1   2  -613926.22  672.24   1 0.75158-0.76103 0.65794-0.52987-0.04727-0.37425
  -1   2   612958.36  614.03   1-0.66000 0.66920 0.75108-0.62306 0.01630 0.40491
   1  -2  -5217319.7 4047.85   1-0.83851 0.84699 0.40344-0.53137-0.36623 0.01544
   1  -2  -5219812.2 4101.06   1 0.94850-0.94285 0.19096-0.31879-0.25271-0.09690
  -1  -2   5224572.7 4322.67   1-0.59743 0.58900 0.67615-0.80411 0.43114-0.08038
  -1   2   5227384.0 4439.60   1-0.65732 0.64882 0.74823-0.62021-0.08985 0.44086
  -1  -2   442304.00  970.24   1-0.99735 0.97105-0.01270-0.11528 0.07159 0.20917
  -1   2   441876.99  834.03   1-0.99510 0.96881-0.03358 0.16157 0.09291 0.18786
   1   2  -437185.87  844.43   1-0.96391 0.98930 0.21159-0.08359-0.16150-0.11953
   1  -2  -439037.54  783.56   1-0.73436 0.76058 0.49466-0.62261-0.46476 0.18399
   1   2  -440523.76 1013.91   1 0.73571-0.70955 0.64914-0.52114 0.19323-0.47428
  -1   2   438946.73 1001.75   1-0.64265 0.61629 0.73276-0.60461-0.22371 0.50459
  -1  -2   3248432.1 2204.99   1-0.99752 0.95434 0.06890-0.19685-0.01400 0.22465
  -1   2   3252307.4 1862.15   1-0.95075 0.90747 0.24209-0.11408-0.19353 0.40431
   1  -2  -3234644.6 1725.50   1-0.44085 0.48478 0.63977-0.76789-0.62955 0.41872
   1  -2  -3245750.7 2037.09   1 0.70327-0.65926 0.60644-0.73465-0.37099 0.16013
   1   2  -3239636.8 2052.78   1 0.69500-0.65108 0.61633-0.48833 0.37025-0.58104
  -1  -2   3229405.0 1913.29   1 0.59721-0.64099 0.53491-0.66292 0.59766-0.38686
  -1   2   3244113.5 2156.28   1-0.60470 0.56068 0.69025-0.56210-0.39734 0.60800
   1   2  -2370093.2 2822.65   1-0.91536 0.97653 0.30624-0.17823-0.26138 0.12086
  -1   2   2388775.5 2774.22   1-0.43200 0.37039 0.64252-0.51440-0.63287 0.77343
   1  -2  -2390440.5 2784.61   1 0.13258-0.07095 0.68930-0.81747-0.71223 0.57157
   1  -2  -2402263.7 2995.17   1 0.69904-0.63736 0.60251-0.73072-0.38511 0.24454
   1   2  -2391913.9 3004.47   1 0.59408-0.53249 0.53226-0.40425 0.60312-0.74365
  -1  -2   2392337.8 2910.42   1-0.57888 0.51736 0.65503-0.78299 0.48562-0.34531
  -1   2   2408140.9 3176.52   1-0.51525 0.45355 0.58969-0.46161-0.62190 0.76236
   1  -2  -2390556.4 2986.97   1-0.42088 0.48264 0.48286-0.61096-0.76792 0.62751
  -1  -2   1315925.1 2519.94   1-0.91277 0.83371 0.31026-0.43827-0.26565 0.33591
   1   2  -1302165.1 2296.67   1-0.82880 0.90791 0.41344-0.28551-0.37702 0.30686
   1  -2  -1299431.7 2201.05   1 0.55039-0.47128 0.56736-0.69555-0.61250 0.54229
   1  -2  -1299860.7 2171.46   1 0.66275-0.58340 0.56907-0.69728-0.48672 0.41644
  -1   2   1291110.5 2108.07   1 0.74611-0.82546 0.64965-0.52145-0.14581 0.21607
   1   2  -1320251.3 2453.36   1 0.37638-0.29701 0.34583-0.21781 0.85949-0.92969
  -1  -2   1299596.2 2169.99   1-0.49886 0.41966 0.56228-0.69026 0.65952-0.58941
   1   2   0530396.2 3824.28   1-0.61664 0.71347 0.56730-0.43935-0.54581 0.54581
  -1   2   0540927.8 3913.30   1 0.59016-0.68706 0.54683-0.41864-0.59386 0.59386
   1   2   0529396.1 3846.88   1 0.07487 0.02204 0.04394 0.08397-0.99622 0.99622
  -1   2   0532460.9 3864.88   1-0.05624-0.04042 0.05783 0.06981 0.99674-0.99674
   1   2   0520128.4 3601.11   1-0.28043 0.37731 0.31298-0.18504 0.90740-0.90740
  -1  -2  -1116129.7  994.37   1-0.47507 0.36040 0.62841-0.75653-0.61595 0.54568
   1   2   1118673.5 1026.62   1-0.19527 0.30990 0.69098-0.56282-0.69599 0.76628
  -1   2  -1122670.6 1161.48   1 0.70402-0.81862 0.47525-0.34710-0.52771 0.45756
   1  -2   1119728.3 1098.19   1 0.82521-0.71061 0.36974-0.49788-0.42697 0.49712
   1   2   1122005.8 1106.49   1 0.36093-0.24629 0.29668-0.16858-0.88413 0.95441
  -1   2  -1120485.4  941.39   1 0.72445-0.83928 0.62831-0.50011-0.28351 0.21325
   1  -2   1121014.7  941.10   1 0.73021-0.61523 0.64486-0.77286 0.22570-0.15543
   1   2   1121926.3  969.60   1-0.65934 0.77404 0.75045-0.62243-0.04572 0.11592
  -1  -2  -1120137.1  959.69   1-0.56906 0.45439 0.65058-0.77866-0.50290 0.43267
  -1  -2  -239546.58  507.85   1-0.12784-0.00440 0.69674-0.82490-0.70583 0.56525
   1   2   239058.28  503.25   1 0.29844-0.16595 0.65880-0.53059-0.69058 0.83122
   1  -2   240189.25  587.42   1 0.87914-0.74606 0.30491-0.43274-0.36624 0.50609
  -1  -2  -239967.82  609.92   1 0.39431-0.52653 0.32626-0.45436-0.85910 0.71854
   1   2   240337.51  589.87   1 0.53125-0.39902 0.44921-0.32109-0.71831 0.85888
  -1   2  -242127.60  555.31   1 0.72053-0.85310 0.62457-0.49637-0.30123 0.16072
   1  -2   241176.82  511.50   1 0.74868-0.61599 0.65762-0.78569 0.08365 0.05686
   1  -2   239853.46  572.65   1-0.33999 0.47239 0.38069-0.50863 0.85992-0.71981
   1   2   240595.55  504.92   1-0.65530 0.78759 0.74409-0.61610 0.13000 0.01040
  -1  -2  -239491.04  503.55   1-0.63772 0.50540 0.72726-0.85541-0.25375 0.11331
  -1  -2  -3 3191.20  221.30   1 0.13436-0.28454 0.68908-0.81725-0.71211 0.50112
   1   2   3 3820.13  226.52   1 0.63269-0.48241 0.52252-0.39433-0.57154 0.78216
   1  -2   3 3911.16  241.37   1 0.91709-0.76580 0.24932-0.37715-0.31109 0.52086
  -1  -2  -3 3238.88  292.44   1 0.47844-0.62825 0.40106-0.52915-0.78117 0.57033
   1   2   3 5021.76  298.10   1 0.62397-0.47392 0.53373-0.40552-0.57077 0.78163
  -1   2  -3 4194.14  273.69   1 0.71334-0.86365 0.61775-0.48955-0.33092 0.12016
   1  -2   3 3381.70  258.51   1 0.75001-0.59956 0.65843-0.78650 0.06268 0.14808
   1  -2   3 4570.63  324.84   1-0.41638 0.56655 0.46751-0.59546 0.77977-0.56960
  -1   2  -3 2735.07  191.62   1-0.54573 0.39574 0.61728-0.48931 0.56668-0.77714
   1   2   3 3572.13  233.89   1-0.64599 0.79594 0.73336-0.60537 0.21182-0.00120
  -1  -2  -3 3305.01  241.05   1-0.64799 0.49801 0.73866-0.86681-0.18568-0.02497
  -1  -2  -462239.09 1292.50   1 0.28685-0.45475 0.66162-0.78984-0.69279 0.41151
   1   2   461596.07 1247.56   1 0.81063-0.64253 0.38472-0.25657-0.44143 0.72202
  -1  -2  -463428.05 1402.18   1 0.52144-0.68886 0.44042-0.56853-0.73084 0.44969
  -1   2  -464486.97 1393.73   1 0.70551-0.87324 0.60853-0.48032-0.36321 0.08207
   1  -2   460242.26 1286.46   1 0.74951-0.58128 0.65813-0.78620 0.07130 0.20971
   1  -2   465279.39 1401.01   1-0.45604 0.62380 0.51362-0.64161 0.72677-0.44632
   1   2   464611.42 1381.21   1-0.63647 0.80407 0.72242-0.59443 0.27018 0.01063
  -1  -2  -463384.48 1364.39   1-0.65046 0.48266 0.74057-0.86859-0.16866-0.11214
  -1  -2  -555777.32 1525.67   1 0.36701-0.55261 0.63981-0.76803-0.67522 0.32363
  -1   2  -560012.44 1708.69   1 0.75561-0.94154 0.43506-0.30692-0.48966 0.13892
   1   2   554379.09 1441.22   1 0.90136-0.71367 0.27384-0.14601-0.33547 0.68509
  -1  -2  -560597.70 1727.20   1 0.54365-0.72867 0.46032-0.58844-0.70180 0.35038
  -1   2  -553534.57 1525.79   1 0.69555-0.88095 0.59927-0.47106-0.39631 0.04489
   1  -2   558266.40 1640.24   1-0.47666 0.66213 0.53706-0.66504 0.69595-0.34538
   1   2   554303.20 1516.58   1-0.62654 0.81180 0.71105-0.58306 0.31913 0.03190
  -1  -2  -6 5791.15  424.29   1 0.40447-0.60778 0.62773-0.75595-0.66509 0.24318
  -1   2  -6 5303.81  494.13   1 0.74043-0.94419 0.44750-0.31936-0.50149 0.08060
  -1  -2  -6 5379.67  419.18   1 0.55381-0.75642 0.46944-0.59756-0.68768 0.26597
  -1   2  -6 6474.74  491.32   1 0.68441-0.88748 0.58897-0.46076-0.42975 0.00804
   1  -2   6 6332.49  474.51   1-0.48634 0.68952 0.54806-0.67605 0.68050-0.25982
   1   2   6 7208.73  429.99   1-0.61660 0.81967 0.69797-0.57000 0.36419 0.05672
  -1  -2  -763349.43 1925.78   1 0.41601-0.63703 0.62375-0.75197-0.66170 0.16948
  -1   2  -764388.17 2105.21   1 0.72024-0.94184 0.46323-0.33509-0.51638 0.02535
  -1  -2  -767616.00 2145.07   1 0.55647-0.77668 0.47183-0.59995-0.68388 0.19189
  -1   2  -767982.97 2154.02   1 0.67210-0.89284 0.57764-0.44943-0.46325-0.02874
   1  -2   766463.56 2064.71   1-0.48924 0.71013 0.55135-0.67933 0.67575-0.18496
   1   2   766309.37 2055.55   1-0.60525 0.82602 0.68505-0.55708 0.40542 0.08564
  -1  -2  -8 8501.92  483.65   1 0.41049-0.64922 0.62567-0.75388-0.66334 0.10079
  -1   2  -810424.72  779.92   1 0.69577-0.93519 0.48116-0.35302-0.53327-0.02790
  -1  -2  -811436.52  836.22   1 0.55405-0.79184 0.46965-0.59777-0.68735 0.12506
  -1   2  -8 9580.99  664.30   1 0.65860-0.89703 0.56528-0.43707-0.49667-0.06560
   1  -2   810699.31  666.69   1-0.48754 0.72614 0.54941-0.67740 0.67855-0.11765
   1   2   8 9773.49  564.68   1-0.59303 0.83150 0.67114-0.54318 0.44482 0.11640
  -1  -2  -9 2556.19  473.15   1 0.39262-0.64905 0.63169-0.75990-0.66843 0.03557
  -1   2  -9 2567.41  557.16   1 0.66751-0.92455 0.50059-0.37240-0.55120-0.08064
  -1  -2  -9 4234.93  813.36   1 0.54787-0.80326 0.46411-0.59223-0.69601 0.06344
  -1   2  -9 2915.40  685.26   1 0.64390-0.89999 0.55185-0.42364-0.52994-0.10261
   1  -2   9 2330.69  522.91   1-0.48246 0.73877 0.54365-0.67163 0.68678-0.05575
   1   2   9 2328.10  465.86   1-0.57987 0.83604 0.65616-0.52819 0.48290 0.14847
  -1  -2 -1013689.93  984.66   1 0.36491-0.63905 0.64045-0.76867-0.67575-0.02742
  -1   2 -1015120.65 1242.03   1 0.63528-0.91012 0.52095-0.39276-0.57009-0.13195
  -1  -2 -1015929.33 1205.59   1 0.53872-0.81171 0.45590-0.58402-0.70846 0.00560
  -1   2 -1014479.95 1128.32   1 0.62793-0.90170 0.53733-0.40911-0.56300-0.13983
   1  -2  1016042.14 1189.14   1-0.47472 0.74875 0.53485-0.66284 0.69896 0.00216
   1   2  1012829.07  972.34   1-0.56569 0.83955 0.64001-0.51204 0.51997 0.18154
  -1   2 -1119623.86 1749.23   1 0.59923-0.89185 0.54186-0.41367-0.58932-0.18293
  -1  -2 -1120560.09 1808.81   1 0.52707-0.81765 0.44546-0.57358-0.72370-0.04943
  -1   2 -1118120.23 1627.07   1 0.61147-0.90204 0.52137-0.39325-0.59521-0.17792
   1  -2  1115691.07 1385.58   1-0.46475 0.75648 0.52351-0.65150 0.71409 0.05715
   1   2  1117314.83 1496.21   1-0.55041 0.84196 0.62261-0.49464 0.55623 0.21544
  -1   2 -12  963.43  506.96   1 0.55919-0.86961 0.56299-0.43480-0.60855-0.23391
  -1  -2 -12 2169.33  534.09   1 0.51318-0.82135 0.43303-0.56114-0.74103-0.10239
  -1   2 -12 1343.64  532.81   1 0.59281-0.90098 0.50452-0.37641-0.62770-0.21571
   1  -2  12 1853.42  480.76   1-0.45278 0.76222 0.50991-0.63790 0.73141 0.10994
   1   2  12  980.75  449.26   1-0.53459 0.84403 0.60288-0.47490 0.59223 0.24913
   1   3 -1210571.36  899.95   1 0.78351-0.90074 0.41064-0.21842-0.46633-0.37543
   1   3 -1213515.85 1141.48   1 0.69110-0.80617 0.59515-0.40284-0.41006-0.43335
  -1  -3  1211214.16  854.61   1-0.50451 0.62015 0.56871-0.76069 0.64963 0.19172
  -1   3  1213705.10  981.46   1-0.61335 0.72879 0.69428-0.50233 0.37652 0.46531
   1   3 -1113699.53 1024.76   1 0.82281-0.92221 0.37226-0.18004-0.42940-0.34221
   1   3 -1110823.76  965.97   1 0.70723-0.80525 0.61199-0.41969-0.35395-0.41883
  -1  -3  1112946.41  980.56   1-0.51716 0.61508 0.58308-0.77506 0.62654 0.14470
   1   3 -10 6810.65  721.66   1 0.85640-0.94177 0.33334-0.14160-0.39426-0.30496
   1  -3 -10 6614.74  640.45   1 0.61234-0.69122 0.52215-0.71433-0.59362-0.10923
   1   3 -10 5108.23  871.11   1 0.72232-0.80261 0.62627-0.43397-0.29329-0.40924
  -1   3  10 4725.09  703.60   1-0.63904 0.71859 0.72537-0.53339 0.25583 0.44622
   1  -3  -9  165.60  133.39   1 0.63450-0.69774 0.52143-0.71371-0.57053-0.06131
   1   3  -9 1756.67  593.42   1 0.88877-0.95594 0.29189-0.10015-0.35337-0.27593
   1  -3  -9 1577.13  453.95   1 0.62342-0.68547 0.53324-0.72556-0.57183-0.06073
   1   3  -9 1592.14  606.56   1 0.73521-0.79775 0.63871-0.44641-0.22695-0.40533
  -1  -3   9 1666.37  430.52   1-0.53778 0.60028 0.60651-0.79849 0.58559 0.04542
  -1   3   9 1918.04  504.43   1-0.64921 0.71111 0.73706-0.54507 0.18777 0.44408
   1  -3  -8 8027.29  596.82   1-0.80709 0.76260 0.43448-0.62638-0.39977-0.16149
   1  -3  -812349.50  482.94   1 0.68812-0.73401 0.48652-0.67874-0.53830-0.02287
   1   3  -814146.07  755.64   1 0.91778-0.96674 0.24818-0.05644-0.30995-0.24942
   1  -3  -813297.83  727.37   1 0.63371-0.67808 0.54258-0.73490-0.55136-0.01090
   1   3  -811850.61  770.90   1 0.74534-0.79015 0.64885-0.45655-0.15311-0.40891
  -1  -3   813688.47  722.22   1-0.54457 0.58923 0.61596-0.80791 0.56922-0.00800
  -1   3   811852.05  650.14   1-0.65672 0.70097 0.74573-0.55375 0.11220 0.44944
   1  -3  -740946.76 1189.32   1-0.79019 0.76336 0.44972-0.64162-0.41633-0.07477
   1  -3  -742996.93 1242.25   1 0.74055-0.76861 0.44741-0.63962-0.50140 0.01036
   1   3  -746287.46 1506.05   1 0.94332-0.97408 0.20172-0.00997-0.26350-0.22595
   1  -3  -744102.75 1458.61   1 0.64194-0.66863 0.55007-0.74239-0.53416 0.04216
   1   3  -744653.43 1523.32   1 0.75081-0.77802 0.65688-0.46478-0.06911-0.42267
  -1  -3   749890.98 1601.03   1-0.54999 0.57696 0.62214-0.81409 0.55717-0.06610
  -1   3   746585.29 1560.09   1-0.65987 0.68677 0.75090-0.55887 0.02666 0.46476
  -1  -3   672377.89 1919.78   1-0.96698 0.97598-0.14728-0.04469 0.20795 0.21320
   1  -3  -667739.82 1652.60   1-0.73610 0.72701 0.49339-0.68532-0.46336 0.04221
   1  -3  -672059.69 1768.24   1 0.79429-0.80452 0.40062-0.59283-0.45672 0.03583
   1  -3  -672107.03 1996.06   1 0.64759-0.65661 0.55522-0.74754-0.52186 0.10015
   1   3  -671233.98 1974.08   1 0.75146-0.76091 0.65913-0.46703 0.02889-0.45043
  -1  -3   672121.23 1928.69   1-0.55249 0.56175 0.62497-0.81692 0.55150-0.13058
  -1   3   673020.99 2033.31   1-0.65825 0.66745 0.74927-0.55724-0.07272 0.49394
  -1  -3   5 9424.28  668.75   1-0.98384 0.97519-0.09283-0.09914 0.15307 0.19789
   1  -3  -5 8513.49  269.51   1-0.59324 0.60180 0.57908-0.77101-0.55921 0.20825
   1  -3  -5 9255.84  314.07   1 0.85207-0.84642 0.33844-0.53019-0.39928 0.04966
   1  -3  -5 8162.50  441.47   1 0.64963-0.64098 0.55709-0.74940-0.51731 0.16589
   1   3  -5 7220.55  454.17   1 0.74267-0.73435 0.65339-0.46129 0.14665-0.49793
  -1  -3   5 8009.42  430.53   1-0.55067 0.54224 0.62290-0.81485 0.55565-0.20488
  -1   3   5 8371.63  486.23   1-0.64721 0.63850 0.73780-0.54559-0.19170 0.54280
  -1  -3   4205861.5 3961.43   1-0.99524 0.96895-0.03251-0.15946 0.09181 0.18895
   1  -3  -4192829.0 3549.43   1-0.18251 0.20899 0.69233-0.88457-0.69811 0.41695
   1  -3  -4192962.5 3549.31   1 0.94166-0.91781 0.20505-0.39680-0.26685-0.01284
   1  -3  -4201902.7 3887.25   1 0.64580-0.61947 0.55359-0.74591-0.52580 0.24466
  -1  -3   4204024.9 3911.97   1-0.54249 0.51644 0.61187-0.80385 0.57558-0.29513
  -1   3   4202723.7 3953.10   1-0.62087 0.59451 0.70842-0.51620-0.33563 0.61651
  -1  -3   336214.78  602.83   1-0.99918 0.95600 0.03330-0.22522 0.02271 0.18793
   1   3  -332351.35  516.76   1-0.95553 0.99881 0.23160-0.03959-0.18250-0.02827
  -1   3   332300.09  290.99   1-0.89192 0.84812 0.33990-0.14800-0.29823 0.50870
   1  -3  -333201.50  312.47   1 0.50087-0.45735 0.59028-0.78257-0.63299 0.42237
   1  -3  -333487.20  547.38   1 0.63031-0.58631 0.53949-0.73181-0.55825 0.34740
  -1   3   330355.48  508.61   1 0.73444-0.77832 0.63796-0.44566-0.23149 0.44225
   1   3  -331023.39  597.81   1 0.65778-0.61400 0.58610-0.39409 0.47307-0.68387
  -1  -3   332064.11  537.67   1 0.51145-0.55527 0.46183-0.65392 0.72464-0.51385
  -1  -3   333670.04  524.69   1-0.51886 0.47509 0.58502-0.77700 0.62331-0.41297
   1   3  -330134.15  481.14   1-0.62642 0.67044 0.71091-0.51892 0.31967-0.53029
  -1   3   331779.78  665.52   1-0.56596 0.52192 0.64708-0.45495-0.51084 0.72153
  -1  -3   2  409.97   89.87   1-0.99158 0.93045 0.11418-0.30610-0.06094 0.20138
   1   3  -2  183.17  101.92   1-0.93031 0.99148 0.28148-0.08946-0.23511 0.09459
  -1   3   2  275.65  149.53   1 0.05058-0.11221 0.69700-0.50474-0.71528 0.85594
   1  -3  -2  264.79  109.96   1 0.74596-0.68485 0.44304-0.63525-0.49725 0.35695
   1  -3  -2  674.21  300.57   1 0.58607-0.52421 0.49845-0.69063-0.63878 0.49821
  -1   3   2   26.00  179.61   1 0.71615-0.77777 0.62041-0.42811-0.31969 0.46019
   1   3  -2  261.36  332.53   1 0.54015-0.47854 0.48647-0.29438 0.68671-0.82724
  -1  -3   2 1089.70  245.27   1-0.45938 0.39790 0.51742-0.70939 0.72197-0.58174
   1   3  -2   50.91  111.95   1-0.59341 0.65492 0.67157-0.47962 0.44366-0.58397
  -1   3   2  242.07  378.16   1-0.46161 0.39985 0.52915-0.33700-0.71197 0.85237
   1   3  -1338837.7 2617.77   1-0.87199 0.95110 0.36554-0.17364-0.32558 0.25542
  -1   3   1337923.5 2523.14   1 0.53963-0.61874 0.57258-0.38030-0.61719 0.68740
   1  -3  -1337485.5 2490.70   1 0.82536-0.74642 0.36958-0.56180-0.42682 0.35667
   1   3  -1336419.7 2573.98   1-0.16407 0.24342-0.16282 0.35463-0.97291 0.90276
   1  -3  -1332029.6 2414.84   1 0.42713-0.34766 0.35540-0.54755-0.83140 0.76112
  -1   3   1321985.3 2346.36   1 0.66817-0.74752 0.57403-0.38172-0.47331 0.54359
   1   3  -1319291.0 2491.96   1 0.33645-0.25708 0.31112-0.11908 0.88881-0.95902
  -1   3   1324583.6 2493.74   1 0.14484-0.22347-0.17117 0.36225 0.97453-0.90489
  -1  -3   1342267.2 2509.66   1-0.28937 0.21025 0.32314-0.51506 0.90102-0.83096
   1   3  -1325501.8 2388.78   1-0.50582 0.58501 0.57019-0.37821 0.64731-0.71743
  -1  -3   0292960.8 2283.16   1-0.89747 0.80052 0.33269-0.52470-0.28955 0.28955
   1   3   0281214.0 2164.35   1-0.73740 0.83423 0.49244-0.30051-0.46231 0.46231
   1  -3   0280109.3 2172.33   1 0.86904-0.77236 0.31791-0.50965-0.37907 0.37907
  -1  -3   0279763.2 2220.57   1-0.07192-0.02499-0.08409-0.10779-0.99385 0.99385
   1   3   0280651.4 2200.09   1 0.10289-0.00597 0.06845 0.12343-0.99233 0.99233
  -1   3   0277131.8 1967.70   1 0.37727-0.47433 0.31115-0.11900-0.87226 0.87226
  -1   3   0287621.5 2052.23   1 0.28058-0.37768 0.26243-0.07039 0.92325-0.92325
  -1  -3   0277522.6 2005.27   1 0.17900-0.27540-0.21016 0.01908 0.96113-0.96113
  -1   3   0282500.7 2233.79   1-0.07689-0.01977 0.08130 0.11015 0.99371-0.99371
   1   3   0274262.4 1985.98   1-0.20121 0.29807 0.22196-0.03014 0.95406-0.95406
  -1  -3  -1179039.8 1438.48   1-0.76215 0.64772 0.47313-0.66503-0.44188 0.37172
   1   3   1171326.8 1397.78   1-0.44519 0.55986 0.63839-0.44621-0.62789 0.69817
  -1   3  -1174721.5 1571.77   1 0.76717-0.88177 0.42519-0.23298-0.48025 0.41010
   1   3   1173151.2 1499.66   1 0.33458-0.21994 0.27336-0.08121-0.90184 0.97212
  -1   3  -1174897.8 1325.31   1 0.73779-0.85276 0.65074-0.45874 0.17942-0.24968
   1  -3   1182196.9 1367.22   1 0.46182-0.34684 0.41907-0.61116 0.78172-0.71146
   1  -3   1182652.4 1655.74   1-0.12800 0.24260 0.13887-0.33068 0.98200-0.91202
  -1   3  -1172194.7 1552.21   1-0.27776 0.16316 0.30881-0.11699 0.90965-0.97963
   1   3   1172066.9 1359.17   1-0.57962 0.69429 0.66250-0.47037-0.47448 0.54471
  -1  -3  -2450637.9 3278.68   1-0.53407 0.40171 0.60594-0.79812-0.58957 0.44902
   1   3   2437732.6 3203.01   1 0.02635 0.10611 0.69836-0.50611-0.71525 0.85591
  -1   3  -2448663.1 3527.16   1 0.79158-0.92402 0.40317-0.21095-0.45917 0.31887
  -1   3  -2456527.2 3354.62   1 0.75052-0.88321 0.65652-0.46442-0.07538-0.06512
   1  -3   2447228.8 3258.92   1 0.66876-0.53592 0.59528-0.78729 0.44539-0.30486
  -1   3  -2428815.1 3298.43   1-0.41907 0.28667 0.47057-0.27865 0.77649-0.91660
   1   3   2448583.8 3331.67   1-0.65367 0.78607 0.74418-0.55215-0.13745 0.27786
  -1  -3  -2446872.7 3288.79   1-0.52949 0.39717 0.60582-0.79795-0.59380 0.45334
  -1  -3  -366197.50 1312.75   1-0.26036 0.11048 0.68221-0.87446-0.68321 0.47234
   1   3   363489.86 1258.69   1 0.47716-0.32688 0.60030-0.40802-0.64183 0.85244
  -1  -3  -365592.99 1431.07   1 0.40946-0.55927 0.33970-0.53185-0.84672 0.63588
  -1   3  -365616.72 1366.35   1 0.74121-0.89152 0.64465-0.45236-0.18711-0.02364
   1  -3   364662.89 1322.83   1 0.71130-0.56080 0.62969-0.82170 0.31228-0.10149
   1   3   363413.77 1316.24   1-0.65977 0.80987 0.75078-0.55875 0.03199 0.17861
  -1  -3  -367395.74 1390.79   1-0.59091 0.44094 0.67524-0.86736-0.44143 0.23074
  -1  -3  -4120944.9 2328.34   1-0.03614-0.13174 0.69998-0.89223-0.71324 0.43193
   1   3   4116804.6 2237.58   1 0.75004-0.58195 0.43968-0.24747-0.49406 0.77465
  -1  -3  -4127373.3 2587.35   1 0.46335-0.63074 0.38761-0.57976-0.79690 0.51578
  -1   3  -4129005.1 2580.99   1 0.72934-0.89738 0.63301-0.44071-0.25950-0.02150
   1  -3   4118157.4 2321.53   1 0.72342-0.55515 0.63947-0.83148 0.26023 0.02081
   1  -3   4105845.7 2181.69   1-0.39832 0.56625 0.44698-0.63890 0.80096-0.52072
   1   3   4124984.2 2492.59   1-0.65454 0.82214 0.74321-0.55122 0.13859 0.14222
  -1  -3  -4119051.8 2363.98   1-0.61250 0.44487 0.69902-0.89124-0.36903 0.08816
  -1  -3  -5 3063.98  272.01   1 0.10974-0.29533 0.69193-0.88418-0.71357 0.36192
  -1   3  -5 1535.93  427.58   1 0.78284-0.96877 0.41126-0.21904-0.46693 0.11619
   1   3   5 2054.55  193.08   1 0.88342-0.69572 0.29920-0.10746-0.36060 0.71022
  -1  -3  -5 2487.78  398.08   1 0.49357-0.67859 0.41550-0.60767-0.76403 0.41260
  -1   3  -5 1357.84  269.94   1 0.71692-0.90270 0.62114-0.42884-0.31652-0.03473
   1  -3   5 1942.39  234.92   1-0.42723 0.61292 0.47983-0.67175 0.76630-0.41601
   1   3   5 1851.22  222.19   1-0.64527 0.83053 0.73253-0.54055 0.21680 0.13423
  -1  -3  -616636.49  660.07   1 0.19303-0.39634 0.68054-0.87279-0.70682 0.28484
  -1   3  -615850.13  877.62   1 0.76680-0.97057 0.42551-0.23330-0.48056 0.05967
  -1  -3  -614478.86  648.90   1 0.51023-0.71284 0.43039-0.62257-0.74459 0.32287
  -1   3  -617494.24  737.82   1 0.70478-0.90785 0.60785-0.41553-0.36578-0.05592
   1  -3   616950.34  699.47   1-0.44306 0.64624 0.49887-0.69085 0.74485-0.32417
   1   3   615946.70  653.25   1-0.63450 0.83741 0.72016-0.52818 0.28064 0.14059
  -1  -3  -756537.53 1378.26   1-0.98651 0.76611-0.08171-0.11025 0.14182-0.63317
  -1  -3  -761193.81 1546.29   1 0.23416-0.45518 0.67314-0.86546-0.70145 0.20923
  -1   3  -770093.92 2029.87   1 0.74654-0.96813 0.44256-0.25034-0.49679 0.00576
  -1  -3  -766225.84 1843.59   1 0.51782-0.73802 0.43718-0.62936-0.73534 0.24334
  -1   3  -762301.68 1699.73   1 0.69095-0.91170 0.59501-0.40269-0.41053-0.08145
   1  -3   768571.13 1838.83   1-0.45083 0.67172 0.50770-0.69968 0.73415-0.24335
   1   3   763065.44 1687.03   1-0.62266 0.84323 0.70661-0.51462 0.33613 0.15531
  -1  -3  -810171.55  535.79   1 0.24835-0.48708 0.67025-0.86257-0.69933 0.13679
  -1   3  -811497.95  824.98   1 0.72250-0.96193 0.46152-0.26930-0.51476-0.04641
  -1  -3  -813776.83  869.85   1 0.51917-0.75697 0.43839-0.63057-0.73366 0.17138
  -1   3  -812074.36  895.88   1 0.67620-0.91462 0.58141-0.38909-0.45244-0.10983
   1  -3   812606.07  679.18   1-0.45288 0.69148 0.51003-0.70201 0.73127-0.17036
   1   3   812377.83  695.50   1-0.61045 0.84892 0.69097-0.49902 0.38716 0.17406
  -1  -3  -912971.68  677.13   1 0.24313-0.49956 0.67133-0.86365-0.70013 0.06727
  -1   3  -914538.66  921.60   1 0.69492-0.95218 0.48176-0.28954-0.53383-0.09749
  -1  -3  -913099.35  837.62   1 0.51595-0.77134 0.43550-0.62768-0.73764 0.10507
  -1   3  -914476.43  917.91   1 0.66041-0.91651 0.56694-0.37462-0.49236-0.14019
   1  -3   915491.89  902.07   1-0.45074 0.70705 0.50759-0.69957 0.73428-0.10326
   1   3   914575.77  832.76   1-0.59665 0.85281 0.67526-0.48331 0.43361 0.19775
  -1   3 -10 4407.00 1056.90   1 0.66399-0.93883 0.50290-0.31061-0.55334-0.14870
  -1  -3 -10 6105.70  637.45   1 0.50915-0.78214 0.42943-0.62160-0.74588 0.04302
  -1   3 -10 4209.90  909.49   1 0.64350-0.91727 0.55149-0.35917-0.53080-0.17204
   1  -3  10 4425.90  922.58   1-0.44534 0.71936 0.50146-0.69344 0.74175-0.04062
   1   3  10 4917.26  434.56   1-0.58183 0.85570 0.65839-0.46644 0.47746 0.22405
  -1   3 -11  717.18  418.15   1 0.62936-0.92199 0.52452-0.33223-0.57339-0.19886
  -1  -3 -11 1281.78  595.16   1 0.49942-0.79000 0.42072-0.61290-0.75734-0.01579
  -1   3 -11  657.40  327.06   1 0.62535-0.91680 0.53499-0.34267-0.56807-0.20505
   1  -3  11  694.27  278.02   1-0.43726 0.72900 0.49228-0.68425 0.75263 0.01861
   1   3  11  903.13  394.59   1-0.56594 0.85750 0.64030-0.44835 0.51934 0.25233
  -1   3 -12 4932.85  862.21   1 0.59103-0.90145 0.54636-0.35407-0.59343-0.24902
  -1  -3 -12 5780.91  980.99   1 0.48711-0.79529 0.40973-0.60191-0.77125-0.07217
  -1   3 -12 8217.23 1311.63   1 0.60671-0.91488 0.51706-0.32489-0.60377-0.23965
   1  -3  12 6153.70  979.43   1-0.42712 0.73715 0.47971-0.67163 0.76644 0.07425
   1   3  12 5875.70  921.10   1-0.54888 0.85814 0.62087-0.42892 0.55967 0.28216
   1   4 -12 4309.72  841.64   1 0.79431-0.91153 0.40060-0.14431-0.45670-0.38506
   1  -4 -12 4561.25  763.52   1 0.55480-0.66888 0.47033-0.72656-0.68627-0.15715
   1   4 -12 5887.60  992.58   1 0.70043-0.81550 0.60380-0.34738-0.38052-0.46289
  -1  -4  12 3888.89  637.92   1-0.47641 0.59205 0.53677-0.79274 0.69634 0.14501
  -1   4  12 4795.81  804.37   1-0.62216 0.73703 0.70603-0.45005 0.33825 0.50421
   1   4 -11 1586.41  519.14   1 0.83097-0.93036 0.36360-0.10731-0.42104-0.35058
   1  -4 -11  963.40  455.78   1 0.56864-0.66512 0.48276-0.73900-0.66601-0.10712
   1   4 -11 1363.54  458.96   1 0.71604-0.81406 0.62030-0.36390-0.32016-0.45262
  -1  -4  11 1941.62  497.65   1-0.48753 0.58546 0.54941-0.80538 0.67856 0.09268
  -1   4  11 1693.79  530.82   1-0.63546 0.73267 0.72127-0.46529 0.27558 0.49668
   1   4 -10 8935.60  978.09   1 0.86214-0.94752 0.32643-0.07077-0.38747-0.31175
   1  -4 -10 6146.96  764.98   1 0.58055-0.65944 0.49348-0.74972-0.64762-0.05522
   1   4 -10 6527.31  774.90   1 0.73025-0.81054 0.63389-0.37749-0.25474-0.44778
  -1  -4  10 6242.81  582.69   1-0.49676 0.57697 0.55990-0.81587 0.66312 0.03801
  -1   4  10 6945.98  704.51   1-0.64655 0.72610 0.73400-0.47802 0.20784 0.49422
   1   4  -9 1732.44  401.64   1 0.89214-0.95930 0.28719-0.03153-0.34871-0.28059
   1  -4  -9 4740.48  569.18   1 0.59034-0.65163 0.50229-0.75853-0.63181-0.00075
   1   4  -9 3874.41  699.19   1 0.74177-0.80431 0.64521-0.38881-0.18295-0.44932
  -1  -4   9 3675.27  421.12   1-0.50385 0.56635 0.56795-0.82392 0.65081-0.01979
  -1   4   9 5296.70  657.72   1-0.65498 0.71688 0.74372-0.48774 0.13367 0.49817
   1  -4  -824983.74  743.44   1 0.42915-0.47375 0.61907-0.87550-0.65769 0.09515
   1   4  -825059.40 1057.12   1 0.91890-0.96786 0.24633 0.00932-0.30810-0.25127
   1  -4  -827063.06 1054.79   1 0.59764-0.64133 0.50888-0.76511-0.61957 0.05728
   1   4  -826319.11 1157.04   1 0.74891-0.79389 0.65464-0.39850-0.10278-0.45926
  -1  -4   826311.52 1010.65   1-0.50835 0.55314 0.57307-0.82905 0.64276-0.08185
  -1   4   825283.83 1081.02   1-0.65926 0.70386 0.75015-0.49411 0.05130 0.51031
   1  -4  -726708.78  770.06   1-0.48116 0.45434 0.62626-0.88250-0.61341 0.12147
   1  -4  -726854.62  789.80   1 0.41832-0.44520 0.62294-0.87937-0.66101 0.16878
   1   4  -730902.35 1332.34   1 0.94241-0.97317 0.20356 0.05209-0.26535-0.22410
   1  -4  -730002.35 1160.73   1 0.60183-0.62793 0.51266-0.76890-0.61234 0.12034
   1   4  -729276.08 1122.59   1 0.75207-0.77928 0.65897-0.40283-0.01175-0.48003
  -1  -4   730633.14 1112.74   1-0.50955 0.53663 0.57443-0.83041 0.64060-0.14980
  -1   4   731387.61 1188.67   1-0.65945 0.68635 0.75057-0.49453-0.04181 0.53324
  -1  -4   6 8486.99  449.91   1-0.96427 0.97327-0.15447-0.10149 0.21518 0.20598
   1  -4  -6 8436.28  530.26   1 0.60179-0.61030 0.51263-0.76886-0.61241 0.19069
   1   4  -6 8740.83  573.82   1 0.74792-0.75736 0.65712-0.40098 0.09383-0.51537
  -1  -4   6 9738.23  513.88   1-0.50613 0.51550 0.57055-0.82652 0.64675-0.22607
  -1   4   6 8961.06  594.99   1-0.65258 0.66178 0.74295-0.48691-0.14882 0.57004
  -1  -4   513283.75  546.28   1-0.98017 0.97152-0.10662-0.14934 0.16701 0.18395
   1  -4  -514040.05  589.10   1 0.59537-0.58629 0.50683-0.76307-0.62340 0.27198
   1   4  -514268.47  739.55   1 0.73140-0.72301 0.64580-0.38979 0.21904-0.57035
  -1  -4   513559.64  521.75   1-0.49568 0.48734 0.55867-0.81465 0.66495-0.31439
  -1   4   513297.10  652.18   1-0.63396 0.62525 0.72307-0.46678-0.27433 0.62543
  -1  -4   422340.74  664.63   1-0.99182 0.96553-0.05529-0.20067 0.11500 0.16576
   1  -4  -420245.42  621.18   1 0.57809-0.55142 0.49127-0.74750-0.65150 0.37035
   1   4  -418441.85  634.87   1 0.69561-0.66945 0.61684-0.36083 0.36827-0.64932
  -1  -4   421864.80  618.37   1-0.47338 0.44732 0.53333-0.78930 0.70104-0.42058
  -1  -4   349002.92 1163.36   1-0.99828 0.95510-0.00161-0.25427 0.05859 0.15206
  -1   4   345978.24  860.55   1-0.57572 0.53180 0.58767-0.33143-0.56848 0.77931
   1  -4  -345458.55 1008.98   1 0.53952-0.49526 0.45662-0.71286-0.70739 0.49653
  -1   4   344845.34  991.50   1 0.71206-0.75594 0.61654-0.36015-0.33589 0.54665
   1   4  -345715.17 1084.31   1 0.62584-0.58206 0.55919-0.30318 0.54370-0.75450
  -1  -4   344672.33 1014.68   1 0.42132-0.46523 0.38481-0.64087 0.82121-0.61060
  -1  -4   348588.63 1060.12   1-0.42881 0.38504 0.48267-0.73865 0.76363-0.55329
   1   4  -346138.76  990.06   1-0.59713 0.64095 0.67580-0.41987 0.43210-0.64256
  -1  -4   2119089.8 1207.19   1-0.99810 0.93696 0.06129-0.31718-0.00614 0.14657
  -1   4   2117968.1 1000.78   1 0.38421-0.44586 0.63442-0.37799-0.67073 0.81136
   1  -4  -2114944.0 1065.87   1 0.45281-0.39092 0.37823-0.63442-0.80740 0.66684
  -1   4   2119086.2 1097.36   1 0.67778-0.73946 0.58287-0.32644-0.44817 0.58874
   1   4  -2118889.5 1242.11   1 0.50402-0.44241 0.45544-0.19932 0.73385-0.87438
  -1  -4   2116513.1 1157.16   1 0.28224-0.34388 0.26388-0.51993 0.92233-0.78192
  -1  -4   2115505.6 1074.05   1-0.33857 0.27722 0.37907-0.63496 0.86120-0.72108
   1   4  -2116285.6 1065.50   1-0.54495 0.60646 0.61639-0.36046 0.56839-0.70870
  -1   4   2119405.9 1299.05   1-0.42595 0.36419 0.48862-0.23241-0.76145 0.90185
  -1  -4   1118723.3 1145.03   1-0.98777 0.90868 0.13330-0.38919-0.08085 0.15107
   1   4  -1114133.0 1271.80   1-0.89033 0.96940 0.34248-0.08646-0.30001 0.22975
  -1   4   1121838.1 1111.90   1 0.65956-0.73867 0.50577-0.24939-0.55602 0.62622
   1  -4  -1117065.7 1033.06   1 0.93731-0.85884 0.21356-0.46923-0.27537 0.20545
   1   4  -1116625.8 1219.88   1-0.08648 0.16582-0.09538 0.35113-0.99167 0.92152
   1  -4  -1116606.4 1140.84   1 0.23454-0.15503 0.18462-0.44084-0.95441 0.88409
  -1   4   1118928.0 1007.23   1 0.59429-0.67375 0.50586-0.24962-0.62523 0.69551
  -1  -4   1118714.4 1109.97   1-0.14962 0.07051 0.16340-0.41916 0.97514-0.90516
   1   4  -1119221.0 1028.60   1-0.43642 0.51561 0.49132-0.23534 0.75375-0.82386
  -1  -4   0167330.3 1484.32   1-0.96144 0.86449 0.21774-0.47376-0.16794 0.16794
   1   4   0162595.8 1670.41   1-0.79387 0.89064 0.44648-0.19062-0.41281 0.41281
  -1   4   0169510.2 1501.65   1 0.75836-0.85512 0.43274-0.17645-0.48745 0.48745
   1  -4   0162778.9 1407.33   1 0.93958-0.84290 0.20917-0.46484-0.27098 0.27098
  -1  -4   0163325.7 1548.64   1-0.10095 0.00406-0.10798-0.14776-0.98901 0.98901
   1   4   0164091.5 1510.57   1 0.13358-0.03651 0.09588 0.16033-0.98638 0.98638
  -1   4   0165133.7 1263.47   1 0.33434-0.43139 0.27314-0.01694-0.90200 0.90200
  -1  -4   0164372.6 1298.49   1 0.18318-0.27958-0.21493-0.03983 0.95929-0.95929
  -1   4   0163006.5 1476.11   1-0.10033 0.00366 0.10794 0.14733 0.98908-0.98908
   1   4   0162894.8 1288.42   1-0.20182 0.29867 0.22264 0.03311 0.95377-0.95377
  -1  -4  -113233.01  281.52   1-0.90704 0.79219 0.31892-0.57494-0.27487 0.20461
   1   4   114595.80  296.31   1-0.58951 0.70400 0.58089-0.32499-0.56128 0.63147
  -1   4  -115190.86  460.24   1 0.79859-0.91319 0.39652-0.14023-0.45279 0.38264
   1  -4   115433.54  446.88   1 0.94758-0.83270 0.19292-0.44859-0.25468 0.32460
  -1   4  -114340.30  229.65   1-0.19207 0.07763-0.18710 0.44285-0.96337 0.89322
  -1   4  -114658.26  274.29   1 0.66040-0.77543 0.58829-0.33228 0.46665-0.53692
   1   4   114228.09  244.63   1 0.14184-0.02767-0.16775 0.42252 0.97557-0.90593
   1  -4   114258.95  674.79   1-0.07257 0.18711 0.07639-0.33167 0.99443-0.92465
  -1   4  -112386.99  847.86   1-0.26573 0.15113 0.29516-0.03940 0.91774-0.98772
   1   4   114173.56  334.71   1-0.49342 0.60806 0.56527-0.30907-0.66105 0.73125
  -1  -4  -2 1699.34  188.63   1-0.80607 0.67398 0.43542-0.69129-0.40080 0.26048
   1   4   2 1740.93  140.86   1-0.20963 0.34188 0.68932-0.43300-0.69345 0.83403
  -1   4  -2 1530.37  293.13   1 0.81390-0.94634 0.38142-0.12513-0.43825 0.29795
  -1   4  -2 1360.91  139.92   1 0.74515-0.87784 0.65520-0.39906 0.12432-0.26483
   1  -4   2 1525.84  150.80   1 0.51133-0.37857 0.46173-0.71785 0.72480-0.58427
   1   4   2 1534.53  179.33   1-0.61978 0.75210 0.70719-0.45090-0.34020 0.48064
  -1  -4  -2 1668.11  181.75   1-0.38498 0.25272 0.44202-0.69822-0.81018 0.66978
  -1  -4  -3148632.4 2792.93   1-0.64172 0.49192 0.55380-0.80970-0.53056 0.31998
   1   4   3140372.9 2652.55   1 0.28538-0.13519 0.66198-0.40555-0.69306 0.90401
  -1   4  -3148534.9 2987.43   1 0.81618-0.96645 0.37911-0.12282-0.43602 0.22557
  -1  -4  -3152850.6 3019.91   1 0.34183-0.49164 0.27977-0.53597-0.89714 0.68630
  -1   4  -3149730.7 2884.64   1 0.75145-0.90191 0.65774-0.40160-0.05181-0.15895
   1  -4   3142526.7 2728.97   1 0.62462-0.47396 0.55816-0.81417 0.54617-0.33537
   1   4   3147029.4 2863.64   1-0.65476 0.80486 0.74540-0.48936-0.12511 0.33572
  -1  -4  -3146290.9 2820.98   1-0.49761 0.34773 0.57003-0.82624-0.65378 0.44318
  -1  -4  -453111.02 1374.87   1-0.43680 0.26907 0.64104-0.89728-0.63108 0.34997
   1   4   451839.63 1343.20   1 0.67080-0.50271 0.49827-0.24198-0.54930 0.82989
  -1   4  -452607.56 1582.04   1 0.81043-0.97852 0.38492-0.12863-0.44162 0.16103
  -1   4  -455725.91 1543.10   1 0.74438-0.91242 0.64786-0.39147-0.16173-0.11928
   1  -4   450502.80 1374.87   1 0.66746-0.49900 0.59420-0.85021 0.44878-0.16771
   1  -4   453677.60 1521.53   1-0.34050 0.50843 0.38127-0.63716 0.85946-0.57923
   1   4   453923.88 1493.68   1-0.66000 0.82780 0.75107-0.49503 0.01683 0.26398
  -1  -4  -450342.32 1387.43   1-0.54878 0.38115 0.62766-0.88382-0.55215 0.27123
  -1  -4  -531021.10  838.91   1-0.24889 0.06374 0.68399-0.94032-0.68570 0.33425
   1   4   531786.55  835.49   1 0.86753-0.67983 0.31980-0.06414-0.38093 0.73055
  -1   4  -533237.57 1024.99   1 0.73271-0.91849 0.63627-0.37987-0.24142-0.10984
   1  -4   534201.01 1074.16   1-0.37600 0.56169 0.42161-0.67750 0.82514-0.47484
   1   4   530024.90  913.70   1-0.65607 0.84132 0.74498-0.48900 0.12071 0.23032
  -1  -4  -619179.64  660.09   1-0.11198-0.09078 0.69761-0.95394-0.70766 0.28591
  -1   4  -616944.41  863.44   1 0.78313-0.98689 0.41099-0.15470-0.46667 0.04578
  -1  -4  -617789.26  794.80   1 0.46409-0.66665 0.38827-0.64447-0.79615 0.37446
  -1   4  -619869.51  844.47   1 0.71944-0.92296 0.62353-0.36713-0.30595-0.11556
   1  -4   620912.77  822.83   1-0.39778 0.60124 0.44637-0.70227 0.80156-0.38121
   1   4   619846.42  821.15   1-0.64728 0.85019 0.73485-0.47887 0.20250 0.21873
  -1  -4  -717007.95  620.13   1-0.99273 0.77233-0.04987-0.20609 0.10949-0.60085
  -1  -4  -722331.94  669.69   1-0.02977-0.19123 0.69994-0.95627-0.71357 0.22127
  -1   4  -723056.00 1173.06   1 0.76344-0.98504 0.42841-0.17212-0.48332-0.00770
  -1  -4  -724099.15  965.49   1 0.47656-0.69670 0.39938-0.65558-0.78318 0.29122
  -1   4  -725019.33 1013.84   1 0.70506-0.92632 0.60996-0.35356-0.36169-0.13007
   1  -4   719114.60  736.36   1-0.41021 0.63143 0.46050-0.71639 0.78718-0.29677
   1   4   722305.10  799.07   1-0.63627 0.85683 0.72219-0.46621 0.27126 0.22017
  -1  -4  -817771.02  676.92   1 0.01494-0.25366 0.69886-0.95519-0.71509 0.15247
  -1   4  -820014.17 1292.97   1 0.74028-0.97971 0.44762-0.19133-0.50160-0.05957
  -1  -4  -817996.76  883.60   1 0.48125-0.71905 0.40450-0.66073-0.77767 0.21538
  -1   4  -820641.77 1001.19   1 0.69053-0.92896 0.59463-0.33820-0.41178-0.15049
   1  -4   820138.03  961.88   1-0.41600 0.65498 0.46708-0.72297 0.78023-0.21976
   1   4   819903.43  903.50   1-0.62372 0.86193 0.70781-0.45183 0.33162 0.23002
  -1   4  -9 2599.51  724.68   1 0.71380-0.97106 0.46807-0.21178-0.52095-0.11037
  -1  -4  -9  806.02  338.06   1 0.48113-0.73652 0.40439-0.66063-0.77779 0.14522
  -1   4  -9 2240.24  472.21   1 0.67407-0.93016 0.57945-0.32303-0.45810-0.17446
   1  -4   9 1483.50  329.84   1-0.41688 0.67362 0.46807-0.72397 0.77917-0.14864
   1   4   9 2346.55  485.53   1-0.61046 0.86663 0.69099-0.43506 0.38710 0.24426
  -1   4 -10  992.71  552.42   1 0.68402-0.95912 0.48935-0.23306-0.54095-0.16051
  -1  -4 -10  230.02  294.97   1 0.47738-0.75028 0.40011-0.65631-0.78230 0.07950
  -1   4 -10  415.24  297.33   1 0.65647-0.93024 0.56333-0.30690-0.50170-0.20114
   1  -4  10  870.54  321.91   1-0.41393 0.68844 0.46473-0.72062 0.78273-0.08215
   1   4  10  811.22  373.54   1-0.59541 0.86927 0.67385-0.41791 0.43750 0.26402
  -1   4 -11 4963.11  688.38   1 0.65101-0.94364 0.51123-0.25485-0.56109-0.21116
  -1  -4 -11 9464.47  906.67   1 0.46970-0.76018 0.39327-0.64947-0.79038 0.01729
  -1   4 -11 6220.39  680.47   1 0.63764-0.92908 0.54616-0.28973-0.54324-0.22988
   1  -4  11 7610.72  736.42   1-0.40787 0.70014 0.45784-0.71373 0.78994-0.01929
   1   4  11 5416.53  493.18   1-0.57917 0.87073 0.65536-0.39942 0.48482 0.28685
   1   5 -12 2789.86  691.94   1 0.80032-0.91754 0.39485-0.07449-0.45118-0.39058
   1  -5 -12 1944.62  542.74   1 0.52306-0.63714 0.44187-0.76217-0.72879-0.11463
   1   5 -12 2810.87  658.30   1 0.70697-0.82273 0.61175-0.29125-0.35489-0.48814
  -1  -5  12 2252.28  499.09   1-0.44553 0.56117 0.50168-0.82164 0.74149 0.09987
  -1   5  12 2249.67  581.91   1-0.62976 0.74462 0.71473-0.39475 0.30423 0.53824
   1   5 -11 3260.68  620.80   1 0.83480-0.93419 0.35944-0.03908-0.41701-0.35461
   1  -5 -11 3797.72  596.58   1 0.53512-0.63160 0.45267-0.77297-0.71324-0.05989
   1   5 -11 3746.35  598.83   1 0.72287-0.82089 0.62680-0.30630-0.29080-0.48198
  -1  -5  11 5916.63  761.42   1-0.45485 0.55277 0.51226-0.83223 0.72848 0.04276
  -1   5  11 4857.02  655.26   1-0.64213 0.73934 0.72892-0.40894 0.23734 0.53491
   1   5 -10 1102.21  586.71   1 0.86403-0.94940 0.32413-0.00456-0.38520-0.31402
   1  -5 -10  315.44  280.71   1 0.54481-0.62369 0.46136-0.78165-0.70022-0.00262
   1   5 -10  485.26  368.50   1 0.73614-0.81642 0.63962-0.31913-0.22128-0.48124
  -1  -5  10 1349.29  441.45   1-0.46183 0.54204 0.52020-0.84016 0.71839-0.01726
  -1   5  10 1105.57  387.81   1-0.65188 0.73144 0.74014-0.42017 0.16498 0.53707
   1   5  -9 2346.40  545.49   1 0.89212-0.95928 0.28722 0.03235-0.34874-0.28056
   1  -5  -9 2628.22  604.52   1 0.55177-0.61306 0.46760-0.78790-0.69057 0.05800
   1   5  -9 2095.92  527.56   1 0.74620-0.80875 0.64974-0.32925-0.14492-0.48735
  -1  -5   9 3716.60  755.60   1-0.46608 0.52858 0.52503-0.84499 0.71211-0.08109
  -1   5   9 2763.67  594.23   1-0.65843 0.72033 0.74772-0.42774 0.08582 0.54602
   1   5  -816498.76  920.18   1 0.91714-0.96610 0.24924 0.07033-0.31100-0.24837
   1  -5  -816966.21  846.05   1 0.55539-0.59909 0.47085-0.79115-0.68544 0.12315
   1   5  -817683.21  986.92   1 0.75119-0.79617 0.65738-0.33720-0.05965-0.50239
  -1  -5   817623.86  838.83   1-0.46693 0.51172 0.52600-0.84596 0.71084-0.14993
  -1   5   817040.66  888.66   1-0.66007 0.70467 0.75119-0.43114-0.00188 0.56351
   1   5  -728415.63 1219.40   1 0.93912-0.96987 0.21007 0.10950-0.27187-0.21758
   1  -5  -728074.95  985.19   1 0.55466-0.58076 0.47020-0.79049-0.68648 0.19448
   1   5  -731122.80 1149.70   1 0.75121-0.77842 0.65904-0.33886 0.03662-0.52841
  -1  -5   728209.35  949.10   1-0.46330 0.49038 0.52187-0.84184 0.71623-0.22543
  -1   5   726223.89 1013.32   1-0.65665 0.68355 0.74750-0.42745-0.10021 0.59163
  -1  -5   653892.54 1690.91   1-0.95973 0.96873-0.16592-0.15403 0.22666 0.19449
   1  -5  -651004.59 1635.16   1 0.54781-0.55633 0.46406-0.78435-0.69609 0.27437
   1   5  -654158.97 1773.54   1 0.74261-0.75206 0.65335-0.33317 0.14714-0.56867
  -1  -5   649675.01 1544.18   1-0.45338 0.46274 0.51059-0.83056 0.73057-0.30989
  -1   5   650140.01 1669.60   1-0.64435 0.65331 0.73464-0.41428-0.21236 0.63368
  -1  -5   540245.81 1194.23   1-0.97499 0.96635-0.12391-0.19605 0.18445 0.16651
   1  -5  -540504.02 1201.34   1 0.53165-0.52257 0.44957-0.76986-0.71779 0.36636
   1   5  -542578.59 1323.65   1 0.72005-0.71166 0.63677-0.31677 0.27573-0.62705
  -1  -5   542274.69 1229.48   1-0.43397 0.42562 0.48854-0.80850 0.75696-0.40639
  -1   5   540264.08 1264.89   1-0.62004 0.61134 0.70749-0.38713-0.33911 0.69021
  -1  -5   422113.59  760.24   1-0.98687 0.96058-0.08012-0.23984 0.14020 0.14056
   1  -5  -421293.36  724.03   1 0.49996-0.47328 0.42120-0.74150-0.75671 0.47557
   1   5  -423780.23  870.84   1 0.67672-0.65075 0.60192-0.28190 0.42394-0.70500
  -1  -5   421628.00  717.89   1-0.39986 0.37404 0.44874-0.76860 0.79920-0.51897
  -1   5   422232.00  857.25   1-0.57698 0.55059 0.65952-0.33931-0.48177 0.76270
  -1   5   3127369.6 2356.65   1-0.96866 0.92538 0.19912 0.12090-0.14844 0.35922
  -1   5   3121484.7 2258.03   1-0.02158-0.02234 0.69984-0.37942-0.71396 0.92495
   1  -5  -3137248.1 2697.02   1 0.44079-0.39648 0.36753-0.68778-0.81891 0.60807
  -1   5   3115399.8 2257.83   1 0.69186-0.73586 0.59585-0.27532-0.40776 0.61862
   1   5  -3133113.4 2681.92   1 0.60161-0.55783 0.53866-0.21864 0.58983-0.80063
  -1  -5   3138790.7 2717.50   1-0.33919 0.29560 0.37978-0.69964 0.86064-0.65047
  -1   5   3131351.8 2676.68   1-0.50768 0.46363 0.58111-0.26090-0.63605 0.84674
  -1  -5   2147196.6 2884.35   1-0.99897 0.93784 0.01331-0.33318 0.04326 0.09716
  -1   5   2143980.7 2710.17   1-0.99464 0.93306-0.03705 0.35702 0.09644 0.04394
  -1   5   2150387.3 2848.64   1 0.54391-0.60522 0.57052-0.25005-0.61534 0.75575
   1   5  -2141974.7 2742.66   1-0.19369 0.25548-0.18850 0.50819-0.96278 0.82247
   1  -5  -2143388.3 2750.48   1 0.32442-0.26253 0.26437-0.58462-0.90821 0.76765
  -1   5   2145856.6 2788.66   1 0.64478-0.70645 0.55266-0.23213-0.52803 0.66860
   1   5  -2148962.6 2926.18   1 0.48270-0.42109 0.43708-0.11693 0.75891-0.89944
  -1  -5   2145633.8 2852.50   1-0.23367 0.17232 0.25878-0.57848 0.93724-0.79728
  -1   5   2151103.0 3010.24   1-0.40453 0.34277 0.46427-0.14401-0.78790 0.92831
  -1   5   1218625.9 4087.12   1-0.98171 0.90248-0.10100 0.42096 0.16133-0.09113
  -1  -5   1222041.0 4219.88   1-0.99770 0.91861 0.06669-0.38656-0.01172 0.08194
   1   5  -1210385.8 3992.93   1-0.89597 0.97504 0.33478-0.01476-0.29179 0.22153
  -1   5   1221147.8 4169.32   1 0.71445-0.79338 0.46759-0.14722-0.52049 0.59064
   1   5  -1192815.5 3688.86   1-0.01822 0.09764-0.03732 0.35714-0.99913 0.92893
   1  -5  -1204947.4 3855.49   1 0.09905-0.01964 0.06509-0.38490-0.99295 0.92274
  -1   5   1205978.7 3845.75   1 0.55022-0.62968 0.46622-0.14593-0.69273 0.76302
   1   5  -1217131.3 4154.59   1 0.31902-0.23965 0.29595 0.02411 0.90035-0.97055
  -1  -5   1212539.4 3986.17   1-0.05309-0.02571 0.05424-0.37334 0.99711-0.92733
   1   5  -1217471.3 4071.51   1-0.40214 0.48126 0.45133-0.13146 0.79660-0.86666
  -1   5   0 1611.30  132.33   1-0.97596 0.87908-0.12085 0.44081 0.18136-0.18136
  -1  -5   0 1742.10  302.57   1-0.98941 0.89237 0.12552-0.44539-0.07275 0.07275
   1   5   0 1815.97  208.10   1-0.81962 0.91639 0.42255-0.10271-0.38686 0.38686
  -1   5   0 1661.99  229.22   1 0.78284-0.87961 0.41125-0.09089-0.46692 0.46692
  -1  -5   0 2110.90  307.91   1-0.13162 0.03473-0.13463-0.18505-0.98211 0.98211
   1   5   0 1154.23  151.30   1 0.16616-0.06909 0.12448 0.19578-0.97820 0.97820
  -1   5   0 1758.43  132.51   1 0.33952-0.43658 0.27773 0.04251-0.89865 0.89865
  -1   5   0 1522.79  147.96   1 0.27610-0.37320 0.25852 0.06154 0.92570-0.92570
  -1  -5   0 1949.86  149.77   1 0.20027-0.29667-0.23444-0.08401 0.95127-0.95127
   1  -5   0 1457.11  179.91   1 0.11630-0.01990-0.13861-0.17984 0.98349-0.98349
   1   5   0 1538.88  190.32   1-0.21747 0.31432 0.24040 0.07929 0.94599-0.94599
  -1  -5  -1 4220.41  562.48   1-0.97153 0.85668 0.19107-0.51109-0.14002 0.06976
   1   5   1 3399.65  180.46   1-0.66639 0.78088 0.53956-0.21968-0.51457 0.58476
  -1   5  -1 3939.56  362.61   1 0.81256-0.92716 0.38278-0.06242-0.43956 0.36941
  -1   5  -1 2876.96  254.50   1-0.01906-0.09536-0.03805 0.35786-0.99909 0.92889
  -1  -5  -1 4299.47  559.88   1 0.04277-0.15720 0.01589-0.33571-0.99895 0.92875
  -1   5  -1 3366.74  187.55   1 0.59649-0.71152 0.53430-0.21429 0.59891-0.66918
   1   5   1 3146.66  294.72   1 0.03147 0.08306-0.04193 0.36103 0.99862-0.92884
   1  -5   1 4427.90  459.71   1-0.02469 0.13923 0.02195-0.34105 0.99945-0.92967
   1   5   1 3542.90  256.71   1-0.44377 0.55840 0.50888-0.18862-0.73763 0.80783
  -1  -5  -2 8176.39  393.59   1-0.93807 0.80532 0.26741-0.58744-0.22024 0.07972
   1   5   2 8141.16  287.38   1-0.37284 0.50519 0.65903-0.33873-0.65319 0.79374
  -1   5  -2 8563.44  468.42   1 0.82381-0.95624 0.37121-0.05085-0.42840 0.28810
  -1  -5  -2 9575.30  911.87   1 0.17896-0.31115 0.13573-0.45600-0.97444 0.83380
  -1   5  -2 8107.01  334.91   1 0.72063-0.85337 0.63724-0.31723 0.27312-0.41364
   1  -5   2 7450.35  263.88   1 0.33625-0.20369 0.31095-0.63102 0.88895-0.74854
   1   5   2 8566.54  398.31   1-0.58136 0.71369 0.66447-0.34425-0.46956 0.61002
  -1  -5  -3 2902.68  248.47   1-0.88062 0.73087 0.35476-0.67459-0.31406 0.10359
   1   5   3 1602.21  153.94   1 0.08802 0.06215 0.69408-0.37366-0.71449 0.92548
  -1   5  -3 1848.75  387.06   1 0.82458-0.97484 0.37041-0.05004-0.42762 0.21717
  -1  -5  -3 2501.54  365.65   1 0.27675-0.42651 0.22182-0.54209-0.93498 0.72402
  -1   5  -3 1869.06  195.59   1 0.75002-0.90048 0.65844-0.33826 0.06254-0.27331
   1  -5   3 1163.98  160.33   1 0.50393-0.35338 0.45536-0.77551 0.73395-0.52315
   1  -5   3 2207.28  316.37   1-0.22499 0.37510 0.24894-0.56863 0.94202-0.73208
   1   5   3 2294.23  318.19   1-0.63833 0.78831 0.72794-0.40758-0.25024 0.46090
  -1  -5  -3 2245.42  234.36   1-0.38963 0.23974 0.44731-0.76756-0.80504 0.59444
  -1  -5  -4 8512.42  501.10   1-0.78604 0.61864 0.45333-0.77316-0.42026 0.13962
   1   5   4 9120.53  310.11   1 0.56953-0.40146 0.55773-0.23725-0.60378 0.88461
  -1   5  -411777.93  710.77   1 0.81849-0.98659 0.37674-0.05638-0.43373 0.15314
  -1  -5  -4 8855.46  521.06   1 0.34275-0.51015 0.28059-0.60083-0.89654 0.61541
  -1   5  -4 9268.22  454.27   1 0.75056-0.91879 0.65658-0.33640-0.07450-0.20652
   1  -5   4 8050.40  414.95   1 0.58441-0.41595 0.52402-0.84404 0.61955-0.33849
   1  -5   4 8706.30  456.78   1-0.28394 0.45187 0.31697-0.63684 0.90493-0.62469
   1   5   410193.86  520.01   1-0.65747 0.82527 0.74841-0.42836-0.08718 0.36799
  -1  -5  -517907.46  537.89   1-0.65598 0.47087 0.54569-0.86557-0.52144 0.17048
  -1   5  -521637.34  964.19   1 0.80735-0.99328 0.38798-0.06761-0.44457 0.09383
   1   5   520053.93  603.94   1 0.85808-0.67038 0.33134-0.01176-0.39229 0.74191
  -1  -5  -518907.12  781.28   1 0.38671-0.57169 0.31952-0.63977-0.86507 0.51367
  -1   5  -519724.22  825.62   1 0.74289-0.92867 0.64635-0.32585-0.17414-0.17712
   1   5   519246.90  738.99   1-0.65972 0.84521 0.75071-0.43066 0.03457 0.31643
  -1  -5  -6 3285.63  153.03   1-0.97645 0.77370-0.11925-0.20071 0.17975-0.60091
  -1  -5  -6 4433.69  227.57   1-0.51789 0.31479 0.61248-0.93278-0.59719 0.17553
  -1  -5  -6 4930.24  521.08   1 0.41492-0.61748 0.34455-0.66480-0.84208 0.42040
  -1   5  -6 5166.00  558.91   1 0.73073-0.93425 0.63435-0.31386-0.25222-0.16930
   1  -5   6 5826.36  429.35   1-0.35083 0.55428 0.39300-0.71287 0.84997-0.42962
   1   5   6 4110.31  335.01   1-0.65517 0.85808 0.74394-0.42396 0.13150 0.28973
  -1  -5  -723814.31  711.95   1-0.40142 0.18063 0.65145-0.97175-0.64378 0.15185
  -1   5  -729085.71 1315.04   1 0.77331-0.99491 0.41981-0.09945-0.47511-0.01591
  -1  -5  -728299.80 1108.43   1 0.43204-0.65218 0.35976-0.68000-0.82699 0.33502
  -1   5  -726446.10 1011.22   1 0.71659-0.93785 0.62083-0.30033-0.31789-0.17387
   1  -5   727314.35 1027.53   1-0.36746 0.58868 0.41191-0.73178 0.83384-0.34342
   1   5   723530.20  901.32   1-0.64599 0.86655 0.73336-0.41338 0.21182 0.27962
  -1   5  -8 4342.08  981.20   1 0.75120-0.99063 0.43873-0.11837-0.49315-0.06802
  -1   5  -8 4216.74  767.58   1 0.70188-0.94030 0.60515-0.28462-0.37569-0.18658
   1  -5   8 4038.83  696.15   1-0.37682 0.61580 0.42255-0.74241 0.82428-0.26381
   1   5   8 3331.76  613.43   1-0.63436 0.87258 0.72001-0.40003 0.28134 0.28029
  -1   5  -9 4681.02 1046.23   1 0.72591-0.98317 0.45891-0.13854-0.51229-0.11903
  -1   5  -9 6577.82  662.51   1 0.68504-0.94114 0.58955-0.26903-0.42793-0.20462
   1  -5   9 8289.55  745.77   1-0.38067 0.63741 0.42692-0.74679 0.82025-0.18972
   1   5   9 6138.38  574.44   1-0.62155 0.87772 0.70361-0.38370 0.34436 0.28700
  -1   5 -10 1814.35  500.07   1 0.69745-0.97255 0.47996-0.15960-0.53215-0.16932
  -1  -5 -10 2255.74  617.61   1 0.44248-0.71537 0.36904-0.68928-0.81732 0.11451
  -1   5 -10 2703.78  626.19   1 0.66696-0.94073 0.57293-0.25240-0.47634-0.22650
   1  -5  10 1851.45  450.27   1-0.38020 0.65471 0.42639-0.74626 0.82074-0.12015
   1   5  10 2241.80  520.93   1-0.60657 0.88043 0.68656-0.36664 0.40086 0.30066
  -1   5 -11 5552.42  951.06   1 0.66588-0.95851 0.50167-0.18119-0.55220-0.22005
  -1  -5 -11 5916.10 1019.40   1 0.43696-0.72744 0.36413-0.68438-0.82247 0.04938
  -1   5 -11 4611.32  777.79   1 0.64759-0.93903 0.55522-0.23469-0.52187-0.25125
   1  -5  11 5587.29  860.23   1-0.37622 0.66849 0.42187-0.74173 0.82491-0.05426
   1   5  11 5107.12  749.89   1-0.59021 0.88177 0.66793-0.34802 0.45332 0.31835
   1   6 -11 1773.21  611.17   1 0.83514-0.93453 0.35907 0.02535-0.41665-0.35496
   1  -6 -11 1185.98  476.10   1 0.49810-0.59458 0.41955-0.80390-0.75885-0.01428
   1   6 -11 1892.50  555.33   1 0.72802-0.82604 0.63173-0.24714-0.26625-0.50653
  -1  -6  11 1993.47  502.52   1-0.41976 0.51828 0.47135-0.85519 0.77563-0.00499
  -1   6  11 2493.99  436.62   1-0.64709 0.74430 0.73463-0.35066 0.20390 0.56836
   1   6 -10 7360.00  746.98   1 0.86277-0.94815 0.32567 0.05782-0.38671-0.31251
   1  -6 -10 9030.17  776.76   1 0.50522-0.58411 0.42591-0.81026-0.75056 0.04770
   1   6 -10 9483.54  948.34   1 0.74036-0.82065 0.64381-0.25921-0.19328-0.50924
  -1  -6  10 8783.14  745.70   1-0.42426 0.50501 0.47647-0.86030 0.77004-0.06945
  -1   6  1010234.65  840.56   1-0.65549 0.73505 0.74431-0.36034 0.12773 0.57432
   1   6  -9 1083.68  501.28   1 0.88933-0.95650 0.29111 0.09237-0.35260-0.27670
   1  -6  -9  989.97  317.33   1 0.50894-0.57023 0.42923-0.81359-0.74614 0.11357
   1   6  -9 1693.90  485.64   1 0.74904-0.81158 0.65277-0.26817-0.11323-0.51904
  -1  -6   9 1356.73  374.54   1-0.42542 0.48841 0.47778-0.86162 0.76859-0.13806
  -1   6   9 2344.44  640.73   1-0.65946 0.72176 0.75040-0.36634 0.04459 0.58723
   1   6  -846159.17 2410.73   1 0.91298-0.96194 0.25597 0.12751-0.31771-0.24167
   1  -6  -844234.42 2209.73   1 0.50839-0.55209 0.42875-0.81310-0.74679 0.18450
   1   6  -842638.66 2159.17   1 0.75201-0.79699 0.65871-0.27450-0.02403-0.53800
  -1  -6   848179.36 2363.55   1-0.42237 0.46759 0.47431-0.85815 0.77241-0.21194
  -1   6   846088.96 2338.53   1-0.65930 0.70390 0.75041-0.36635-0.04690 0.60852
   1  -6  -724399.46  977.03   1 0.50221-0.52832 0.42322-0.80757-0.75409 0.26209
   1   6  -723688.48 1035.34   1 0.74922-0.77643 0.65796-0.27374 0.07584-0.56763
  -1  -6   722372.55  856.91   1-0.41376 0.44122 0.46453-0.84837 0.78294-0.29253
  -1   6   723301.08 1051.24   1-0.65262 0.67952 0.74300-0.35894-0.14842 0.63985
   1   6  -626851.80 1035.46   1 0.95176-0.96431 0.18389 0.19959-0.24561-0.17392
   1  -6  -625664.23  911.88   1 0.48809-0.49660 0.41060-0.79495-0.77017 0.34846
   1   6  -625598.93 1043.71   1 0.73628-0.74564 0.64958-0.26557 0.18955-0.61112
  -1  -6   626955.51  872.39   1-0.39744 0.40714 0.44598-0.82982 0.80195-0.38160
  -1   6   626572.48 1098.73   1-0.63618 0.64514 0.72555-0.34112-0.26236 0.68368
  -1  -6   533859.46 1130.82   1-0.96825 0.95961-0.14379-0.24016 0.20445 0.14651
   1  -6  -535091.83 1161.64   1 0.46289-0.45375 0.38720-0.77150-0.79736 0.44596
   1   6  -536734.91 1266.11   1 0.70976-0.70137 0.62844-0.24443 0.31826-0.66957
  -1  -6   537220.75 1213.39   1-0.36988 0.36182 0.41467-0.79850 0.83140-0.48110
  -1   6   535909.91 1326.97   1-0.60735 0.59865 0.69323-0.30880-0.38799 0.73908
   1  -6  -419756.81  708.70   1 0.41796-0.39124 0.34725-0.73155-0.83947 0.55835
   1   6  -418856.92  770.62   1 0.66200-0.63603 0.58963-0.20561 0.46269-0.74376
  -1  -6   418521.41  636.37   1-0.32529 0.29947 0.36398-0.74782 0.87275-0.59251
  -1   6   415258.34  733.20   1-0.56041 0.53402 0.64081-0.25655-0.52468 0.80560
  -1  -6   3  243.91   89.51   1-0.98933 0.94540-0.06855-0.31539 0.12847 0.08210
  -1   6   3  427.16   65.97   1-0.93800 0.89472 0.26754 0.11648-0.22037 0.43115
  -1   6   3  572.77  194.34   1 0.27167-0.31562 0.66516-0.28052-0.69551 0.90646
   1  -6  -3  335.74  157.98   1 0.34122-0.29691 0.27923-0.66353-0.89754 0.68670
   1   6  -3 1198.73  531.66   1 0.58537-0.54159 0.52484-0.14082 0.61795-0.82875
  -1  -6   3  247.14  107.63   1-0.25517 0.21157 0.28317-0.66681 0.92449-0.71455
  -1   6   3  730.84  542.73   1-0.49008 0.44595 0.56149-0.17718-0.66674 0.87734
  -1  -6   250996.71 1518.95   1-0.99553 0.93394-0.03019-0.35376 0.08945 0.05093
  -1   6   247865.69 1250.62   1-0.99754 0.93641 0.06861 0.31522-0.01371 0.15414
  -1   6   250601.81 1345.36   1 0.61482-0.67614 0.53304-0.14847-0.58124 0.72165
   1  -6  -248461.31 1332.53   1 0.21082-0.14887 0.16374-0.54807-0.96371 0.82307
  -1   6   246872.09 1262.29   1 0.62250-0.68417 0.53240-0.14776-0.57361 0.71418
   1   6  -250070.54 1447.86   1 0.47280-0.41119 0.42854-0.04437 0.76993-0.91046
  -1  -6   251514.73 1694.78   1-0.14417 0.08282 0.15722-0.54086 0.97698-0.83702
   1   6  -248198.64 1294.69   1-0.48689 0.54837 0.54868-0.16472 0.67962-0.81984
  -1   6   250658.29 1492.02   1-0.39369 0.33193 0.45193-0.06763-0.80047 0.94087
  -1   6   1173690.6 4324.99   1-0.99739 0.91815-0.01225 0.39620 0.07113-0.00094
  -1  -6   1184533.9 4650.31   1-0.99878 0.91969 0.00818-0.39202 0.04853 0.02168
  -1   6   1187860.9 4705.71   1 0.73725-0.81618 0.45004-0.06561-0.50390 0.57404
   1  -6  -1176935.1 4516.04   1-0.00333 0.08274-0.02434-0.35943-0.99969 0.92949
  -1   6   1152689.1 3803.08   1 0.52994-0.60940 0.44803-0.06368-0.72001 0.79030
   1   6  -1179939.4 4553.77   1 0.32684-0.24747 0.30276 0.08132 0.89526-0.96547
  -1  -6   1190060.0 4780.63   1 0.01896-0.09776-0.02770-0.35522 0.99943-0.92965
   1   6  -1173650.3 4329.08   1-0.38752 0.46664 0.43471-0.05087 0.81292-0.88298
  -1   6   014574.59  481.05   1-0.99328 0.89640-0.04641 0.43037 0.10597-0.10597
  -1  -6   015915.85  588.82   1-0.99880 0.90175 0.04833-0.43217 0.00723-0.00723
   1   6   014838.76  549.02   1-0.82909 0.92586 0.41315-0.02935-0.37670 0.37670
  -1   6   015932.02  599.86   1 0.79118-0.88795 0.40354-0.01911-0.45953 0.45953
  -1  -6   018205.99  626.88   1-0.16388 0.06699-0.16265-0.22096-0.97297 0.97297
  -1   6   015965.83  477.52   1 0.35916-0.45622 0.29511 0.08918-0.88538 0.88538
  -1   6   016179.27  519.00   1 0.30127-0.39836 0.28047 0.10360 0.91135-0.91135
   1  -6   015529.33  561.30   1 0.14162-0.04523-0.16750-0.21464 0.97564-0.97564
   1   6   014922.08  929.62   1-0.23849 0.33534 0.26425 0.11938 0.93450-0.93450
  -1  -6  -116560.52  631.75   1-0.99541 0.88041 0.08903-0.47288-0.03484-0.03537
   1   6   116909.54  532.25   1-0.70541 0.81990 0.51489-0.13104-0.48710 0.55729
  -1   6  -118743.68  720.16   1 0.81596-0.93056 0.37933 0.00509-0.43623 0.36609
  -1  -6  -117113.39  748.25   1-0.00948-0.10494-0.02970-0.35407-0.99951 0.92931
  -1   6  -116001.16  837.49   1 0.09571-0.21014 0.06217 0.32160-0.99346 0.92326
  -1   6  -117088.37  533.35   1 0.56023-0.67521 0.50366-0.11948 0.65761-0.72788
   1  -6   118059.85 1299.41   1 0.01857 0.09596-0.02726-0.35566 0.99945-0.92967
   1   6   115873.24  951.66   1-0.04683 0.16137 0.04713 0.33579 0.99779-0.92800
   1   6   117185.86  584.49   1-0.41959 0.53423 0.48139-0.09709-0.76954 0.83974
  -1  -6  -213357.59  738.26   1-0.98846 0.85550 0.13011-0.51396-0.07753-0.06290
   1   6   212491.65  412.37   1-0.47305 0.60541 0.62911-0.24475-0.61678 0.75734
  -1   6  -213774.05  748.76   1 0.82558-0.95802 0.36935 0.01508-0.42659 0.28630
  -1   6  -212408.39  389.72   1-0.17851 0.04653-0.17534 0.55897-0.96818 0.82787
  -1  -6  -213977.95 1276.90   1 0.11767-0.24960 0.08138-0.46516-0.98971 0.84930
  -1   6  -213639.48  495.22   1 0.69503-0.82777 0.61636-0.23235 0.37015-0.51068
   1   6   212200.95  397.00   1 0.13917-0.00723-0.16470 0.54686 0.97647-0.83719
   1  -6   215986.84 1151.68   1-0.08625 0.21866 0.09194-0.47486 0.99202-0.85246
   1   6   212660.16  513.60   1-0.55108 0.68341 0.63026-0.24600-0.54687 0.68733
  -1  -6  -335070.72  922.23   1-0.97882 0.82818 0.16841-0.55244-0.11637-0.09440
   1   6   332475.30  861.93   1-0.07600 0.22589 0.69893-0.31444-0.71113 0.92200
  -1   6  -335784.56 1204.16   1 0.82608-0.97634 0.36883 0.01560-0.42609 0.21564
  -1  -6  -336315.05 1081.75   1 0.21343-0.36319 0.16604-0.55037-0.96274 0.75178
  -1   6  -334630.93  974.97   1 0.74145-0.89196 0.65350-0.26949 0.15222-0.36301
   1  -6   333225.20  899.75   1 0.36925-0.21896 0.33964-0.72372 0.86503-0.65442
   1  -6   338731.21 2009.53   1-0.16875 0.31886 0.18512-0.56876 0.96811-0.75817
   1   6   331988.68  958.56   1-0.61985 0.76983 0.70727-0.32284-0.33990 0.55056
  -1  -6  -4  680.35   92.79   1-0.96605 0.79752 0.20609-0.59012-0.15574-0.12529
   1   6   4  639.49  175.71   1 0.44778-0.27971 0.61191-0.22734-0.65195 0.93277
  -1   6  -4  666.17  454.52   1 0.82034-0.98844 0.37483 0.00959-0.43189 0.15130
  -1  -6  -4  915.23  231.00   1 0.28293-0.45025 0.22727-0.61160-0.93182 0.65054
  -1   6  -4  691.02  252.73   1 0.75204-0.92026 0.65910-0.27489-0.00256-0.27845
   1  -6   4  267.05  195.01   1-0.22971 0.39757 0.25429-0.63792 0.93945-0.65953
   1   6   4  966.09  392.90   1-0.65021 0.81801 0.74030-0.35624-0.17078 0.45159
  -1  -6  -5 4143.52  322.22   1-0.95333 0.76691 0.23651-0.62054-0.18766-0.16363
  -1   6  -5 6210.88  654.04   1 0.80988-0.99581 0.38547-0.00104-0.44215 0.09141
   1   6   5 5240.70  208.76   1 0.86732-0.67962 0.32006 0.06342-0.38119 0.73081
  -1  -6  -5 5182.16  501.91   1 0.33094-0.51592 0.27014-0.65443-0.90415 0.55275
  -1   6  -5 5441.49  516.56   1 0.74875-0.93452 0.65245-0.26785-0.11694-0.23432
   1  -6   5 5163.70  546.05   1-0.27338 0.45899 0.30384-0.68747 0.91265-0.56275
   1   6   5 6010.93  488.90   1-0.65955 0.84505 0.75068-0.36662-0.03816 0.38918
  -1   6  -6 2946.13  639.29   1 0.79552-0.99928 0.39945-0.01502-0.45560 0.03472
  -1  -6  -6 1732.62  358.48   1 0.36382-0.56639 0.29924-0.68354-0.88208 0.46040
  -1   6  -6  810.62  382.11   1 0.73850-0.94201 0.64195-0.25735-0.20618-0.21533
   1  -6   6 1152.46  254.12   1-0.30311 0.50656 0.33876-0.72260 0.89070-0.47035
   1   6   6 1703.39  389.77   1-0.65857 0.86176 0.74933-0.36527 0.06918 0.35203
  -1   6  -712647.75  858.84   1 0.77771-0.99931 0.41589-0.03146-0.47136-0.01966
  -1  -6  -711242.82  691.71   1 0.38519-0.60534 0.31817-0.70247-0.86624 0.37428
  -1   6  -710214.84  625.73   1 0.72511-0.94637 0.62894-0.24435-0.28041-0.21136
   1  -6   7 9959.85  562.94   1-0.32338 0.54459 0.36180-0.74564 0.87436-0.38395
   1   6   712070.57  658.57   1-0.65250 0.87307 0.74086-0.35689 0.15921 0.33222
  -1   6  -8 8438.59  855.94   1 0.75670-0.99613 0.43414-0.04970-0.48878-0.07239
  -1  -6  -8 6970.09  627.58   1 0.39795-0.63568 0.32949-0.71379-0.85619 0.29394
  -1   6  -8 8376.94  613.68   1 0.70971-0.94870 0.61432-0.22973-0.34482-0.21720
   1   6   8 6173.80  472.37   1-0.64225 0.88047 0.72906-0.34509 0.23657 0.32507
  -1   6  -9  336.91  454.45   1 0.73260-0.98986 0.45371-0.06928-0.50737-0.12395
  -1  -6  -9 2373.95  653.11   1 0.40412-0.65943 0.33496-0.71926-0.85116 0.21863
  -1   6  -9 1096.29  432.82   1 0.69355-0.94964 0.59742-0.21278-0.40258-0.22997
   1  -6   9 1559.06  457.10   1-0.34267 0.59941 0.38374-0.76757 0.85750-0.22697
   1   6   9 1069.72  384.01   1-0.62956 0.88543 0.71451-0.33054 0.30514 0.32671
  -1   6 -10 6257.97  795.85   1 0.70542-0.98051 0.47423-0.08980-0.52676-0.17471
  -1  -6 -10 8634.76  987.48   1 0.40508-0.67798 0.33581-0.72011-0.85037 0.14756
  -1   6 -10 8888.11  976.22   1 0.67512-0.94889 0.58042-0.19578-0.45532-0.24752
   1  -6  10 8410.77  898.24   1-0.34463 0.61913 0.38596-0.76980 0.85571-0.15513
   1   6  10 7138.27  787.62   1-0.61554 0.88940 0.69677-0.31287 0.36825 0.33326
  -1   6 -11 1331.58  538.64   1 0.67509-0.96801 0.49542-0.11098-0.54663-0.22499
  -1  -6 -11 2889.90  683.81   1 0.40178-0.69226 0.33289-0.71719-0.85308 0.07999
  -1   6 -11  274.60  253.07   1 0.65527-0.94672 0.56223-0.17760-0.50447-0.26865
   1  -6  11 1695.34  542.80   1-0.34271 0.63498 0.38378-0.76762 0.85746-0.08682
   1   6  11 1437.22  466.67   1-0.59922 0.89078 0.67819-0.29429 0.42541 0.34626
   1   7 -11 6153.75 1038.89   1 0.83251-0.93191 0.36193 0.08657-0.41942-0.35220
   1  -7 -11 4057.92  809.19   1 0.45837-0.55473 0.38317-0.83152-0.80191 0.02882
   1   7 -11 6368.27  984.10   1 0.73174-0.82976 0.63533-0.18663-0.24680-0.52598
  -1  -7  11 5265.65  778.76   1-0.38164 0.48015 0.42802-0.87583 0.81923-0.04858
  -1   7  11 4493.53  799.92   1-0.65069 0.74790 0.73877-0.29080 0.17554 0.59672
   1   7 -10 2447.46  658.64   1 0.85885-0.94422 0.33042 0.11697-0.39139-0.30783
   1  -7 -10 2350.23  610.22   1 0.46268-0.54146 0.38701-0.83536-0.79758 0.09477
   1   7 -10 2726.93  708.21   1 0.74328-0.82356 0.64674-0.19805-0.17101-0.53151
  -1  -7  10 3591.36  520.29   1-0.38352 0.46427 0.43016-0.87797 0.81723-0.11664
  -1   7  10 2323.21  628.00   1-0.65780 0.73736 0.74699-0.29902 0.09635 0.60570
   1   7  -914293.96 1035.12   1 0.88415-0.95132 0.29821 0.14918-0.35962-0.26968
   1  -7  -914543.41  895.18   1 0.46289-0.52409 0.38720-0.83555-0.79736 0.16484
   1   7  -914921.80 1007.55   1 0.74987-0.81262 0.65574-0.20749-0.08770-0.54460
  -1  -7   913469.38  796.99   1-0.38148 0.44446 0.42784-0.87565 0.81940-0.18887
  -1   7   915034.28  938.60   1-0.66005 0.72235 0.75114-0.30307 0.01026 0.62156
   1  -7  -813323.89  780.61   1 0.45794-0.50155 0.38279-0.83114-0.80234 0.24010
   1   7  -813356.37  853.42   1 0.75198-0.79696 0.65916-0.21092 0.00395-0.56600
  -1  -7   813952.93  717.73   1-0.37450 0.41972 0.41991-0.86772 0.82668-0.26621
  -1   7   814516.74  922.96   1-0.65767 0.70227 0.74863-0.30056-0.08371 0.64534
   1   7  -710384.81 1013.14   1 0.92653-0.95728 0.23332 0.21408-0.29512-0.19433
   1  -7  -713379.63  884.36   1 0.44613-0.47216 0.37229-0.82063-0.81385 0.32189
   1   7  -714540.66 1028.57   1 0.74689-0.77411 0.65642-0.20818 0.10604-0.59783
  -1  -7   712412.69  785.90   1-0.36108 0.38854 0.40466-0.85247 0.84016-0.34974
  -1   7   713481.08 1006.99   1-0.64774 0.67436 0.73840-0.28989-0.18757 0.67911
   1   7  -645550.52 1603.77   1 0.94377-0.95632 0.20081 0.24658-0.26260-0.15693
   1  -7  -646013.04 1491.08   1 0.42482-0.43326 0.35334-0.80169-0.83346 0.41178
   1   7  -648846.03 1626.00   1 0.73108-0.74045 0.64555-0.19754 0.22083-0.64241
  -1  -7   648783.38 1548.45   1-0.33891 0.34861 0.37946-0.82727 0.86089-0.44054
  -1   7   646097.16 1622.65   1-0.62870 0.63765 0.71718-0.26868-0.30062 0.72194
   1  -7  -5 1228.83  333.57   1 0.38969-0.38056 0.32217-0.77051-0.86275 0.51134
   1   7  -5  874.73  374.53   1 0.70156-0.69317 0.62173-0.17372 0.34821-0.69952
  -1  -7   5  781.06  203.22   1-0.30453 0.29646 0.34038-0.78819 0.88960-0.53931
  -1   7   5 2489.13  666.65   1-0.59695 0.58824 0.68152-0.23302-0.42328 0.77437
  -1  -7   4 3631.04  322.17   1-0.97174 0.94544-0.13383-0.31411 0.19443 0.08633
   1  -7  -4 4187.92  359.84   1 0.33373-0.30700 0.27260-0.72095-0.90239 0.62126
   1   7  -4 4016.16  516.71   1 0.65171-0.62575 0.58100-0.13298 0.48753-0.76860
  -1  -7   4 4293.32  359.16   1-0.25358 0.22774 0.28138-0.72895 0.92548-0.64556
  -1   7   4 3284.32  447.80   1-0.54839 0.52200 0.62721-0.17892-0.55304 0.83396
  -1  -7   347513.57 1481.31   1-0.98125 0.93731-0.10271-0.34523 0.16306 0.04751
  -1   7   344637.94 1233.68   1-0.90941 0.86613 0.31538 0.13264-0.27110 0.48188
  -1   7   345974.23 1306.95   1 0.40235-0.44629 0.62845-0.17970-0.66570 0.87665
   1  -7  -347537.94 1491.03   1 0.24635-0.20196 0.19502-0.64341-0.94935 0.73839
   1   7  -346889.32 1490.34   1 0.57606-0.53224 0.51718-0.06898 0.63297-0.84377
  -1  -7   346345.54 1573.87   1-0.17713 0.13353 0.19463-0.64220 0.96474-0.75481
  -1   7   348366.97 1583.88   1-0.47977 0.43563 0.54977-0.10142-0.68378 0.89439
  -1  -7   2 3012.78  539.05   1-0.98848 0.92689-0.07271-0.37523 0.13269 0.00768
  -1   7   2 1627.71  239.45   1-0.98511 0.92398 0.14470 0.30311-0.09274 0.23318
  -1   7   2 2069.53  229.71   1 0.64443-0.70574 0.51534-0.06668-0.56490 0.70531
   1  -7  -2 2012.18  262.15   1 0.11149-0.04958 0.07597-0.52371-0.99085 0.85044
  -1   7   2 1756.98  188.80   1 0.61153-0.67339 0.52142-0.07301-0.59509 0.73566
   1   7  -2 1914.14  450.86   1 0.47148-0.40987 0.42741 0.02079 0.77137-0.91190
  -1  -7   2 2359.38  344.80   1-0.06764 0.00671 0.07079-0.51753 0.99519-0.85563
  -1   7   2 1454.63  364.97   1-0.39057 0.32881 0.44838-0.00002-0.80399 0.94439
  -1  -7   146032.37 1265.76   1-0.99358 0.91435-0.04444-0.40350 0.10397-0.03377
  -1   7   139503.40 1036.31   1-0.99811 0.91902 0.06103 0.38677-0.00587 0.07609
  -1   7   145641.16 1274.84   1 0.74284-0.82177 0.44556 0.00293-0.49965 0.56979
   1  -7  -145709.80 1238.49   1-0.08769 0.16704-0.09644-0.35111-0.99146 0.92131
  -1   7   141918.01 1097.08   1 0.52502-0.60448 0.44363 0.00478-0.72631 0.79660
   1   7  -143486.61 1267.91   1 0.34088-0.26151 0.31497 0.13312 0.88577-0.95597
  -1  -7   144826.75 1808.63   1 0.07703-0.15566-0.09383-0.35200 0.99260-0.92296
   1   7  -140597.97 1078.89   1-0.38513 0.46425 0.43199 0.01581 0.81550-0.88556
  -1  -7   034396.07 1157.38   1-0.99678 0.89990-0.01887-0.42907 0.07790-0.07790
  -1   7   033246.25 1037.98   1 0.78958-0.88634 0.40504 0.04345-0.46097 0.46097
  -1  -7   034601.79 1013.06   1-0.19722 0.10033-0.19157-0.25598-0.96145 0.96145
  -1   7   032357.21  856.41   1 0.38502-0.48208 0.31802 0.13031-0.86637 0.86637
  -1   7   033492.59  931.35   1 0.33087-0.42797 0.30626 0.14183 0.89259-0.89259
   1  -7   034546.00 1033.30   1 0.16757-0.07117-0.19711-0.24873 0.96595-0.96595
   1   7   029885.46  870.15   1-0.26204 0.35889 0.29097 0.15660 0.92014-0.92014
  -1  -7  -177116.67 2138.43   1-0.99859 0.88359 0.00397-0.45179 0.05285-0.12307
   1   7   174154.19 1871.24   1-0.72261 0.83710 0.50309-0.05526-0.47405 0.54424
  -1   7  -182342.07 2193.63   1 0.81223-0.92683 0.38311 0.06538-0.43988 0.36973
  -1  -7  -179442.46 2188.43   1-0.05896-0.05545-0.07281-0.37492-0.99560 0.92539
  -1   7  -168889.86 1702.55   1 0.18167-0.29630 0.13811 0.31026-0.97361 0.90329
  -1   7  -179657.50 1991.75   1 0.54515-0.66013 0.49075-0.04254 0.67967-0.74994
   1  -7   184818.85 2247.71   1 0.05833 0.05582-0.07251-0.37332 0.99565-0.92601
   1   7   172721.11 1827.38   1-0.10838 0.22292 0.11709 0.32964 0.98718-0.91740
   1   7   180290.11 2056.46   1-0.41095 0.52558 0.47156-0.02320-0.78022 0.85042
  -1  -7  -230473.78  888.68   1-0.99912 0.86616 0.01935-0.46716 0.03707-0.17750
   1   7   227200.73  762.53   1-0.53001 0.66237 0.60761-0.15919-0.59151 0.73206
  -1   7  -230991.04 1107.79   1 0.82153-0.95396 0.37360 0.07490-0.43070 0.29040
  -1   7  -225595.29 1073.74   1-0.04496-0.08696-0.06062 0.50836-0.99714 0.85673
  -1  -7  -231065.17  957.01   1 0.05910-0.19103 0.03016-0.47790-0.99779 0.85738
  -1   7  -229474.15  851.94   1 0.67491-0.80774 0.60041-0.15239 0.42895-0.56948
   1   7   222311.64 1131.86   1 0.04817 0.08423-0.06093 0.50768 0.99697-0.85741
   1  -7   232775.70 1333.13   1-0.03718 0.16959 0.03616-0.48290 0.99865-0.85909
   1   7   228739.04  897.48   1-0.53097 0.66330 0.60750-0.15921-0.59075 0.73121
   1   7   3 3014.38  198.12   1-0.19432 0.34421 0.69109-0.24251-0.69615 0.90703
  -1   7  -3 3486.56  527.57   1 0.82242-0.97269 0.37267 0.07583-0.42980 0.21936
  -1   7  -3 3585.40  215.84   1-0.23593 0.08640-0.22511 0.67267-0.94533 0.73487
  -1  -7  -3 4188.76  621.11   1 0.15228-0.30203 0.11229-0.56068-0.98193 0.77097
  -1   7  -3 4506.36  391.50   1 0.73199-0.88249 0.64626-0.19825 0.21570-0.42648
   1  -7   3 4630.76  494.60   1-0.11551 0.26578 0.12519-0.57193 0.98538-0.77604
   1   7   3 2926.40  355.72   1-0.60362 0.75360 0.68903-0.24053-0.40108 0.61173
   1   7   410373.48  368.95   1 0.32435-0.15645 0.65209-0.20334-0.68525 0.96652
  -1   7  -413264.09  816.37   1 0.81740-0.98550 0.37786 0.07064-0.43481 0.15422
  -1  -7  -413552.29 1397.45   1 0.22322-0.39053 0.17465-0.62304-0.95899 0.67771
  -1   7  -412347.72  565.21   1 0.75051-0.91874 0.65871-0.21046 0.05305-0.33408
   1  -7   414797.48 1189.69   1-0.17685 0.34471 0.19431-0.64188 0.96486-0.68494
   1   7   411914.53  613.24   1-0.64076 0.80840 0.73065-0.28215-0.23572 0.51659
  -1   7  -5 3453.87  611.37   1 0.80782-0.99376 0.38751 0.06099-0.44412 0.09338
  -1  -7  -5 4196.54  578.64   1 0.27501-0.45989 0.22029-0.66867-0.93586 0.58426
  -1   7  -5 2989.22  341.91   1 0.75076-0.93675 0.65682-0.20857-0.07024-0.28103
   1  -7   5 3271.07  576.09   1-0.22252 0.40814 0.24614-0.69371 0.94334-0.59344
   1   7   5 2972.96  347.97   1-0.65687 0.84237 0.74774-0.29967-0.09685 0.44787
  -1   7  -616385.10 1139.47   1 0.79444-0.99820 0.40047 0.04802-0.45658 0.03570
  -1  -7  -613126.43  926.89   1 0.31175-0.51419 0.25271-0.70110-0.91593 0.49401
  -1   7  -614471.48  735.22   1 0.74353-0.94704 0.64699-0.19830-0.16898-0.25253
   1  -7   616206.06 1673.11   1-0.25573 0.45910 0.28381-0.73139 0.92414-0.50426
   1   7   613566.93  656.19   1-0.65999 0.86319 0.75106-0.30299 0.01738 0.40383
  -1   7  -7 6091.39 1133.62   1 0.77768-0.99927 0.41592 0.03257-0.47139-0.01963
  -1  -7  -7 4513.47  847.65   1 0.33641-0.55655 0.27497-0.72332-0.90067 0.40870
  -1   7  -7 5187.24  893.71   1 0.73111-0.95237 0.63472-0.18603-0.25016-0.24160
   1  -7   7 5848.25  971.01   1-0.27905 0.50017 0.31027-0.75785 0.90876-0.41890
   1   7   7 3960.67  673.47   1-0.65655 0.87711 0.74554-0.29757 0.11446 0.37697
  -1   7  -8 5115.83  840.87   1 0.75776-0.99719 0.43325 0.01525-0.48793-0.07324
  -1  -7  -8 6898.35  741.71   1 0.35260-0.59033 0.28930-0.73765-0.88992 0.32768
  -1   7  -8 4277.82  929.09   1 0.71603-0.95502 0.62029-0.17160-0.32020-0.24182
   1  -7   8 4937.54  536.46   1-0.29389 0.53287 0.32828-0.77609 0.89769-0.33722
   1   7   8 4765.67  459.74   1-0.64787 0.88609 0.73552-0.28755 0.19812 0.36352
  -1   7  -9 4292.89  766.18   1 0.73481-0.99207 0.45197-0.00347-0.50573-0.12559
  -1  -7  -9 3676.69  536.03   1 0.36178-0.61709 0.29743-0.74577-0.88354 0.25101
  -1   7  -9 3242.49  561.41   1 0.69978-0.95587 0.60320-0.15445-0.38269-0.24987
   1  -7   9 3852.60  477.42   1-0.30317 0.55991 0.33884-0.78665 0.89065-0.26012
   1   7   9 4335.62  548.84   1-0.63608 0.89196 0.72199-0.27402 0.27224 0.35960
  -1   7 -10 1755.10  792.42   1 0.70883-0.98392 0.47174-0.02324-0.52441-0.17706
  -1  -7 -10 1292.78  447.29   1 0.36534-0.63823 0.30058-0.74892-0.88100 0.17820
  -1   7 -10  710.06  261.99   1 0.68105-0.95482 0.58587-0.13713-0.43921-0.26363
   1  -7  10 1473.06  432.26   1-0.30743 0.58194 0.34368-0.79149 0.88733-0.18674
   1   7  10  611.49  228.22   1-0.62194 0.89546 0.70578-0.25781 0.33920 0.36285
   1   8 -10 6966.21  875.39   1 0.85252-0.93789 0.33791 0.17340-0.39876-0.30047
   1  -8 -10 9520.47  762.68   1 0.41602-0.49480 0.34552-0.85792-0.84115 0.13834
   1   8 -10 8419.59  831.49   1 0.74517-0.82545 0.64868-0.13588-0.15467-0.54786
  -1  -8  10 8587.77  742.51   1-0.34040 0.42115 0.38116-0.89294 0.85955-0.15896
  -1   8  10 6932.17  678.35   1-0.65849 0.73849 0.74924-0.23716 0.07085 0.63117
   1   8  -9  848.81  448.63   1 0.87678-0.94395 0.30800 0.20332-0.36929-0.26001
   1  -8  -9 1815.81  500.46   1 0.41256-0.47376 0.34246-0.85485-0.84410 0.21157
   1   8  -9 1307.40  491.65   1 0.75081-0.81356 0.65689-0.14460-0.06909-0.56320
  -1  -8   9 2734.97  612.53   1-0.33521 0.39819 0.37525-0.88704 0.86418-0.23365
  -1   8   9  640.11  354.40   1-0.65996 0.72226 0.75110-0.23901-0.01717 0.64900
   1   8  -814621.79 1309.70   1 0.89838-0.94734 0.27823 0.23308-0.33983-0.21955
   1  -8  -815507.85 1149.38   1 0.40310-0.44671 0.33405-0.84645-0.85200 0.28976
   1   8  -817076.66 1296.52   1 0.75159-0.79657 0.65917-0.14689 0.02437-0.58642
  -1  -8   815155.12 1101.00   1-0.32448 0.36971 0.36306-0.87485 0.87343-0.31296
  -1   8   814463.45 1118.65   1-0.65577 0.70037 0.74652-0.23443-0.11255 0.67417
   1   8  -7 6117.14 1075.71   1 0.91742-0.94818 0.24877 0.26254-0.31054-0.17892
   1  -8  -7 4286.26  727.40   1 0.38574-0.41177 0.31866-0.83106-0.86582 0.37385
   1   8  -7 4731.43  796.75   1 0.74481-0.77203 0.65496-0.14267 0.12757-0.61936
  -1  -8   7 6067.79  973.60   1-0.30666 0.33412 0.34280-0.85459 0.88794-0.39752
  -1   8   7 5525.80  951.60   1-0.64371 0.67032 0.73393-0.22135-0.21674 0.70828
   1   8  -6 1719.71  706.47   1 0.93401-0.94656 0.21979 0.29152-0.28161-0.13792
   1  -8  -6 1168.56  274.54   1 0.35769-0.36613 0.29381-0.80620-0.88641 0.46473
   1   8  -6 1364.65  404.89   1 0.72708-0.73645 0.64239-0.13038 0.24222-0.66380
  -1  -8   6 1134.42  217.67   1-0.28035 0.29001 0.31174-0.82326 0.90786-0.48798
  -1   8   6 1024.17  419.36   1-0.62257 0.63152 0.71032-0.19774-0.32839 0.74971
   1   8  -511822.53  806.30   1 0.94823-0.94258 0.19154 0.31977-0.25329-0.09632
   1  -8  -5 8945.93  525.59   1 0.31464-0.30551 0.25573-0.76813-0.91410 0.56270
   1   8  -510870.11  716.38   1 0.69595-0.68755 0.61711-0.10510 0.36716-0.71848
  -1  -8   511379.05 1171.30   1-0.24064 0.23255 0.26669-0.77821 0.93325-0.58335
  -1   8   5 9856.56  689.57   1-0.58900 0.58026 0.67308-0.16074-0.44725 0.79840
  -1  -8   4 4170.09  368.09   1-0.96129 0.93500-0.16207-0.34986 0.22280 0.05797
   1  -8  -4 3592.51  417.27   1 0.25087-0.22404 0.19900-0.71145-0.94734 0.66606
   1   8  -4 3416.54  448.47   1 0.64585-0.61988 0.57607-0.06405 0.50100-0.78207
  -1  -8   4 3332.97  553.38   1-0.18417 0.15833 0.20262-0.71414 0.96178-0.68186
  -1   8   4 3671.64  616.23   1-0.54075 0.51436 0.61857-0.10623-0.57004 0.85096
  -1  -8   313597.00  597.21   1-0.97076 0.92682-0.13668-0.37525 0.19731 0.01327
  -1   8   312026.71  786.73   1-0.88052 0.83672 0.35489 0.15683-0.31420 0.52468
  -1   8   314593.50  547.92   1 0.46166-0.50518 0.60653-0.09377-0.64728 0.85789
   1  -8  -316042.75 1441.71   1 0.15625-0.11186 0.11578-0.62822-0.98090 0.76994
   1   8  -314128.85  689.77   1 0.57317-0.52935 0.51471-0.00248 0.63760-0.84839
  -1  -8   315811.69 1378.00   1-0.10560 0.06253 0.11393-0.62449 0.98785-0.77851
  -1   8   315104.10  801.49   1-0.47515 0.43101 0.54453-0.03212-0.69116 0.90177
  -1  -8   224161.91  865.28   1-0.97817 0.91659-0.11353-0.39840 0.17399-0.03360
  -1   8   221229.78  711.01   1-0.96595 0.90477 0.20637 0.30566-0.15603 0.29655
  -1   8   224333.66  856.35   1 0.65181-0.71312 0.51072 0.00203-0.56062 0.70103
   1  -8  -227498.50 1203.21   1 0.02248 0.03942-0.00181-0.50988-0.99974 0.85933
   1   8  -225965.26 1001.52   1 0.47662-0.41501 0.43184 0.08039 0.76572-0.90625
  -1  -8   225085.70 1127.42   1-0.00145-0.05948-0.00447-0.50608 0.99998-0.86042
  -1   8   225126.21 1007.07   1-0.39312 0.33136 0.45128 0.06111-0.80111 0.94152
  -1  -8   1 9611.03 1344.40   1-0.98365 0.90442-0.09358-0.41835 0.15383-0.08364
  -1   8   1 9431.80  545.22   1 0.73770-0.81664 0.44968 0.06289-0.50355 0.57370
   1  -8  -1 9079.01  413.80   1-0.15797 0.23731-0.15752-0.35397-0.97479 0.90464
  -1   8   1 7895.50  338.83   1 0.53004-0.60950 0.44812 0.06434-0.71988 0.79016
   1   8  -1 8850.65  547.94   1 0.35926-0.27989 0.33096 0.18115 0.87258-0.94278
  -1  -8   1 9696.30  425.99   1 0.12740-0.20603-0.15127-0.35825 0.98024-0.91060
  -1  -8   033460.62 2053.31   1-0.98728 0.89040-0.07830-0.43363 0.13836-0.13836
  -1   8   032896.67 1124.28   1 0.78106-0.87783 0.41287 0.09970-0.46847 0.46847
  -1  -8   033004.98 1068.81   1-0.23130 0.13441-0.22111-0.29038-0.94742 0.94742
  -1   8   029888.58  898.30   1 0.41410-0.51116 0.34383 0.16856-0.84278 0.84278
  -1   8   031477.95  980.79   1 0.36281-0.45991 0.33405 0.17805 0.86992-0.86992
   1  -8   036425.35 1189.23   1 0.19392-0.09752-0.22719-0.28233 0.95434-0.95434
  -1  -8  -155484.52 1750.06   1-0.98900 0.87448-0.07019-0.44175 0.13013-0.20032
  -1   8  -158987.76 1848.19   1 0.80317-0.91777 0.39208 0.12048-0.44852 0.37837
  -1  -8  -156183.33 1856.48   1-0.10766-0.00677-0.11381-0.39768-0.98765 0.91749
  -1   8  -151814.12 1515.32   1 0.25252-0.36715 0.20045 0.31198-0.94659 0.87627
  -1   8  -156833.55 1684.45   1 0.54356-0.65854 0.48939 0.02284 0.68193-0.75219
   1  -8   157872.60 1792.90   1 0.09616 0.01800-0.11565-0.39388 0.98862-0.91898
   1   8   157701.73 1775.77   1-0.41197 0.52660 0.47272 0.03968-0.77898 0.84918
  -1  -8  -222612.49  745.25   1-0.98824 0.85607-0.07384-0.43809 0.13384-0.27422
   1   8   217564.05  603.32   1-0.55911 0.69125 0.59495-0.08315-0.57742 0.71780
  -1   8  -222387.62  960.34   1 0.81292-0.94536 0.38241 0.13016-0.43920 0.29891
  -1  -8  -222581.50 1442.43   1 0.00323-0.13516-0.01861-0.49309-0.99982 0.85941
  -1   8  -216978.61  889.92   1 0.06487-0.19680 0.03520 0.47649-0.99727 0.85686
  -1   8  -222257.78  767.20   1 0.66329-0.79613 0.59071-0.07869 0.45944-0.59997
   1  -8   224529.03 1265.03   1 0.00865 0.12374-0.01597-0.49458 0.99983-0.86027
   1   8   221051.82  830.09   1-0.51981 0.65213 0.59485-0.08252-0.61313 0.75359
  -1  -8  -3 4787.93  458.97   1-0.98210 0.83228-0.09956-0.41238 0.15987-0.37045
   1   8   3 3531.54  211.50   1-0.26987 0.41975 0.68066-0.16801-0.68107 0.89195
  -1   8  -3 6291.11  777.93   1 0.81463-0.96489 0.38069 0.13188-0.43754 0.22710
  -1   8  -3 2901.97  401.27   1-0.11237-0.03715-0.11791 0.62940-0.98664 0.77618
  -1  -8  -3 5631.94  559.14   1 0.09389-0.24333 0.06057-0.57228-0.99373 0.78312
  -1   8  -3 5524.59  382.00   1 0.72416-0.87466 0.64006-0.12805 0.25672-0.46751
   1  -8   3 7177.66  603.49   1-0.06565 0.21593 0.06852-0.57909 0.99548-0.78614
   1   8   3 3623.71  379.67   1-0.59125 0.74123 0.67562-0.16328-0.44038 0.65108
  -1   8  -4 3089.27  518.41   1 0.81056-0.97866 0.38479 0.12778-0.44149 0.16090
  -1  -8  -4 4453.03  702.33   1 0.16429-0.33161 0.12284-0.63528-0.97873 0.69745
  -1   8  -4 3686.64  338.53   1 0.74803-0.91625 0.65719-0.14491 0.09243-0.37346
   1  -8   4 5061.57  496.29   1-0.12591 0.29377 0.13650-0.64801 0.98260-0.70268
   1   8   4 3755.52  388.39   1-0.63265 0.80029 0.72161-0.20903-0.28111 0.56199
  -1   8  -5 1837.73  902.86   1 0.80198-0.98791 0.39324 0.11933-0.44963 0.09890
  -1  -8  -5 1099.78  248.73   1 0.21831-0.40319 0.17033-0.68278-0.96089 0.60929
  -1   8  -5  868.34  316.72   1 0.75183-0.93782 0.65834-0.14606-0.03640-0.31487
   1  -8   5  752.73  382.15   1-0.17258 0.35819 0.18946-0.70098 0.96660-0.61670
   1   8   5 1107.06  368.43   1-0.65327 0.83877 0.74373-0.23165-0.14171 0.49273
  -1   8  -620335.77 1268.67   1 0.78962-0.99339 0.40500 0.10757-0.46093 0.04004
  -1  -8  -620176.73 1891.79   1 0.25811-0.46056 0.20539-0.71783-0.94402 0.52210
  -1   8  -621521.31 1060.84   1 0.74656-0.95007 0.65012-0.13732-0.14136-0.28016
   1  -8   621868.00 2432.12   1-0.20778 0.41115 0.22941-0.74093 0.95089-0.53101
   1   8   620587.43 1003.28   1-0.65986 0.86306 0.75100-0.23892-0.02378 0.44500
  -1   8  -7 2121.08  578.28   1 0.77390-0.99550 0.41929 0.09328-0.47461-0.01641
  -1  -8  -7 2455.52  492.22   1 0.28650-0.50650 0.23042-0.74286-0.92995 0.43771
  -1   8  -7 2838.00  570.95   1 0.73505-0.95631 0.63856-0.12576-0.22786-0.26390
   1  -8   7 2357.69  623.92   1-0.23350 0.45462 0.25860-0.77011 0.93733-0.44747
   1   8   7 1769.31  405.19   1-0.65816 0.87906 0.74885-0.23677 0.07768 0.41374
  -1   8  -8 2175.05  610.32   1 0.75506-0.99449 0.43552 0.07705-0.49010-0.07107
  -1  -8  -8 1956.35  624.34   1 0.30579-0.54336 0.24745-0.75989-0.91937 0.35681
  -1   8  -8 1741.96  473.06   1 0.72026-0.95925 0.62431-0.11151-0.30242-0.25960
   1  -8   8 2200.51  497.17   1-0.25148 0.49035 0.27899-0.79051 0.92677-0.36693
   1   8   8 2697.99  594.56   1-0.65170 0.88992 0.73994-0.22797 0.16661 0.39503
  -1   8  -9 9486.60 1334.12   1 0.73319-0.99045 0.45325 0.05932-0.50693-0.12439
  -1  -8  -9 8826.57  967.82   1 0.31733-0.57265 0.25811-0.77050-0.91251 0.27998
  -1   8  -9 7231.17  813.41   1 0.70389-0.95999 0.60702-0.09417-0.36884-0.26371
   1  -8   9 8509.36 1088.48   1-0.26313 0.51975 0.29220-0.80372 0.91944-0.28962
   1   8   9 6526.00  729.17   1-0.64084 0.89671 0.72744-0.21548 0.24524 0.38661
  -1   8 -10 4689.89  985.52   1 0.70833-0.98342 0.47211 0.04046-0.52475-0.17671
  -1  -8 -10 3247.34  687.00   1 0.32340-0.59630 0.26347-0.77586-0.90884 0.20603
  -1   8 -10 2981.34  628.14   1 0.68482-0.95859 0.58935-0.07651-0.42856-0.27428
   1  -8  1010199.02 1516.85   1-0.26955 0.54392 0.29949-0.81100 0.91523-0.21543
   1   8  10 3994.72  661.63   1-0.62717 0.90069 0.71176-0.19980 0.31628 0.38577
   1   9 -10  647.88  481.89   1 0.84396-0.92933 0.34774 0.22749-0.40840-0.29082
   1  -9 -10  941.83  325.83   1 0.36617-0.44495 0.30132-0.87776-0.88041 0.17760
   1   9 -10  542.00  291.94   1 0.74625-0.82654 0.64980-0.07291-0.14440-0.55813
  -1  -9  10  548.56  338.45   1-0.29528 0.37603 0.32986-0.90562 0.89665-0.19607
  -1   9  10 1635.13  504.98   1-0.65925 0.73925 0.75015-0.17406 0.05149 0.65053
   1   9  -9 5193.27  776.71   1 0.86734-0.93450 0.32004 0.25519-0.38117-0.24813
   1  -9  -9 9438.36 1040.29   1 0.35903-0.42023 0.29500-0.87144-0.88547 0.25294
   1   9  -9 6285.62  783.10   1 0.75127-0.81402 0.65750-0.08118-0.05717-0.57512
  -1  -9   9 6952.81  749.05   1-0.28709 0.35008 0.32055-0.89631 0.90267-0.27214
  -1   9   9 8052.60  970.66   1-0.65956 0.72186 0.75069-0.17460-0.03781 0.66964
   1   9  -8 1959.56  593.97   1 0.88813-0.93709 0.29278 0.28244-0.35425-0.20513
   1  -9  -8 1915.66  539.12   1 0.34516-0.38877 0.28271-0.85916-0.89494 0.33270
   1   9  -8 2136.79  607.59   1 0.75118-0.79616 0.65903-0.08271 0.03734-0.59939
  -1  -9   8 1271.24  380.13   1-0.27379 0.31895 0.30430-0.87976 0.91237-0.35253
  -1   9   8 1429.01  437.72   1-0.65401 0.69861 0.74456-0.16846-0.13375 0.69537
   1   9  -7 6817.64  747.77   1 0.90645-0.93721 0.26617 0.30906-0.32785-0.16160
   1  -9  -710384.03  825.12   1 0.32259-0.34862 0.26275-0.83920-0.90933 0.41737
   1   9  -7 8508.89  816.27   1 0.74335-0.77057 0.65390-0.07758 0.14082-0.63261
  -1  -9   7 8824.08 1024.19   1-0.25211 0.27952 0.27970-0.85516 0.92639-0.43653
  -1   9   7 9712.29  914.78   1-0.64049 0.66710 0.73035-0.15370-0.23739 0.72893
   1   9  -628417.80 1495.46   1 0.92240-0.93496 0.24044 0.33479-0.30223-0.11730
   1  -9  -624301.81 2187.02   1 0.28911-0.29741 0.23272-0.80922-0.92857 0.50665
   1   9  -632625.14 1581.76   1 0.72461-0.73398 0.64042-0.06441 0.25452-0.67610
  -1  -9   624911.83 2464.74   1-0.22086 0.23052 0.24425-0.81970 0.94422-0.52434
  -1   9   628208.20 1417.14   1-0.61815 0.62710 0.70536-0.12872-0.34690 0.76822
   1   9  -5 7100.23  734.56   1 0.93608-0.93043 0.21590 0.35933-0.27771-0.07190
   1  -9  -5 7894.28  877.67   1 0.23961-0.23035 0.18909-0.76558-0.95227 0.60067
   1   9  -5 8292.33  662.46   1 0.69306-0.68467 0.61473-0.03872 0.37650-0.72782
  -1  -9   5 6704.19  814.64   1-0.17735 0.16926 0.19488-0.77033 0.96465-0.61475
  -1   9   5 8235.67  711.64   1-0.58414 0.57540 0.66759-0.09122-0.46161 0.81276
   1   9  -417731.63 1117.95   1 0.94756-0.92371 0.19296 0.38227-0.25471-0.02497
   1  -9  -418164.04 1427.54   1 0.16928-0.14246 0.12723-0.70372-0.97732 0.69604
   1   9  -418037.94  846.16   1 0.64405-0.61808 0.57456 0.00145 0.50504-0.78610
  -1  -9   415151.34 1222.95   1-0.11834 0.09250 0.12791-0.70336 0.98469-0.70477
  -1   9   415372.12  870.99   1-0.53705 0.51065 0.61438-0.03800-0.57802 0.85894
  -1  -9   313942.20  629.82   1-0.95783 0.91389-0.17051-0.40542 0.23125-0.02067
  -1   9   314185.70  532.51   1 0.48124-0.52476 0.59862-0.02176-0.64035 0.85097
   1  -9  -314157.04 1368.14   1 0.07276-0.02836 0.04210-0.61776-0.99645 0.78584
   1   9  -313418.29  655.57   1 0.57534-0.53152 0.51657 0.05969 0.63414-0.84493
  -1  -9   314423.34 1320.18   1-0.04052-0.00254 0.03995-0.61433 0.99837-0.78903
  -1   9   314726.38  812.47   1-0.47514 0.43101 0.54452 0.03193-0.69117 0.90178
  -1  -9   2 6852.73  391.83   1-0.96480 0.90322-0.15308-0.42284 0.21379-0.07340
  -1   9   2 7555.68  529.41   1 0.64541-0.70672 0.51474 0.06211-0.56434 0.70475
   1  -9  -2 7415.90  725.40   1-0.05757 0.11947-0.07160-0.50406-0.99577 0.85536
   1   9  -2 5699.32  460.33   1 0.48666-0.42505 0.44050 0.13576 0.75439-0.89492
  -1  -9   2 6033.24  628.63   1 0.05747-0.11841-0.07152-0.50285 0.99578-0.85621
  -1   9   2 6964.94  567.91   1-0.39991 0.33815 0.45901 0.11744-0.79333 0.93373
  -1  -9   149566.23 1347.59   1-0.96965 0.89042-0.13986-0.43607 0.20050-0.13031
  -1   9   148456.58 1329.91   1 0.72497-0.80390 0.45963 0.11701-0.51298 0.58312
   1  -9  -149574.10 1269.14   1-0.22056 0.29990-0.21180-0.36363-0.95209 0.88194
   1   9  -152669.46 1522.23   1 0.38078-0.30141 0.34965 0.22646 0.85600-0.92620
  -1  -9   150627.65 1314.86   1 0.17255-0.25118-0.20280-0.37042 0.96389-0.89425
  -1  -9   037486.88 1043.02   1-0.97216 0.87528-0.13258-0.44334 0.19318-0.19318
  -1   9   036750.06 1108.66   1 0.76719-0.86395 0.42518 0.15146-0.48024 0.48024
  -1   9   029964.86  798.43   1 0.44505-0.54211 0.37132 0.20511-0.81488 0.81488
  -1   9   036485.40 1019.53   1 0.39617-0.49327 0.36301 0.21310 0.84336-0.84336
   1   9   036952.71 1132.64   1 0.26764-0.17054 0.25113 0.32498 0.93021-0.93021
  -1  -9  -128660.09  812.95   1-0.97162 0.85710-0.13416-0.44177 0.19477-0.26496
  -1   9  -129961.38 1028.58   1 0.78976-0.90436 0.40487 0.17177-0.46080 0.39066
  -1  -9  -128660.59  900.29   1-0.15369 0.03926-0.15381-0.42162-0.97607 0.90591
  -1   9  -122732.73  703.81   1 0.31350-0.42814 0.25472 0.32172-0.91478 0.84450
  -1   9  -127861.30  837.25   1 0.55089-0.66587 0.49567 0.08059 0.67143-0.74170
   1  -9   129416.43  938.16   1 0.13237-0.01820-0.15695-0.41628 0.97869-0.90905
   1   9   128725.01  942.51   1-0.41928 0.53392 0.48104 0.09541-0.76993 0.84013
  -1  -9  -216696.02  572.79   1-0.96602 0.83385-0.14988-0.42605 0.21057-0.35095
  -1   9  -216296.76  924.41   1 0.80048-0.93291 0.39470 0.18194-0.45103 0.31074
  -1  -9  -219706.14 1864.95   1-0.05048-0.08144-0.06543-0.51023-0.99657 0.85617
  -1   9  -216718.49  651.93   1 0.65902-0.79186 0.58713-0.01111 0.47006-0.61060
   1  -9   216565.18 1600.37   1 0.05200 0.08040-0.06529-0.50909 0.99651-0.85694
   1   9   214305.05  638.68   1-0.51572 0.64804 0.59022-0.01385-0.62101 0.76147
  -1   9  -318749.00  942.10   1 0.80328-0.95355 0.39198 0.18467-0.44841 0.23797
  -1  -9  -317742.48 1809.85   1 0.03645-0.18588 0.01037-0.58604-0.99928 0.78866
  -1   9  -317766.96  689.13   1 0.71936-0.86986 0.63622-0.06021 0.27880-0.48959
   1  -9   318999.28 1511.97   1-0.01822 0.16849 0.01459-0.58898 0.99972-0.79038
   1   9   316371.40  739.86   1-0.58380 0.73378 0.66721-0.09083-0.46259 0.67328
  -1   9  -4 4344.52  642.41   1 0.80032-0.96842 0.39485 0.18179-0.45118 0.17059
  -1  -9  -4 3928.36  625.07   1 0.10710-0.27404 0.07213-0.64780-0.99162 0.71081
  -1   9  -4 4070.07  398.04   1 0.74593-0.91416 0.65575-0.07943 0.11646-0.39749
   1  -9   4 3963.59  582.89   1-0.07653 0.24467 0.08089-0.65528 0.99377-0.71465
   1   9   4 5429.57  504.50   1-0.62648 0.79412 0.71470-0.13805-0.31099 0.59187
  -1   9  -514705.75 1010.88   1 0.79283-0.97876 0.40200 0.17465-0.45804 0.10731
  -1  -9  -511190.61 1326.07   1 0.16156-0.34644 0.12045-0.69694-0.97948 0.62788
  -1   9  -511827.75  673.15   1 0.75206-0.93805 0.65892-0.08260-0.01479-0.33648
   1  -9   511453.82 1289.17   1-0.12364 0.30926 0.13393-0.70938 0.98324-0.63334
   1   9   513003.81  800.13   1-0.64931 0.83461 0.74012-0.16348-0.17491 0.52601
  -1   9  -611907.20 1060.03   1 0.78153-0.98529 0.41245 0.16420-0.46806 0.04718
  -1  -9  -611999.55 1735.32   1 0.20369-0.40613 0.15747-0.73397-0.96628 0.54436
  -1   9  -610958.44  824.57   1 0.74818-0.95170 0.65184-0.07494-0.12378-0.29773
   1  -9   611429.04 1339.69   1-0.16013 0.36350 0.17534-0.75079 0.97139-0.55151
   1   9   612796.68  938.67   1-0.65904 0.86224 0.75013-0.17403-0.05443 0.47565
  -1   9  -7 4945.48  683.07   1 0.76685-0.98845 0.42547 0.15117-0.48052-0.01051
  -1  -9  -7 4817.18  914.31   1 0.23479-0.45480 0.18485-0.76134-0.95430 0.46206
  -1   9  -7 4053.27  840.36   1 0.73729-0.95854 0.64075-0.06386-0.21408-0.27769
   1  -9   7 4898.26  667.08   1-0.18768 0.40880 0.20659-0.78205 0.96025-0.47039
   1   9   7 4576.91  464.66   1-0.65930 0.88020 0.75021-0.17412 0.04992 0.44149
  -1   9  -8 2443.32  681.42   1 0.74903-0.98846 0.44052 0.13613-0.49485-0.06632
  -1  -9  -8 1738.60  479.45   1 0.25684-0.49440 0.20426-0.78076-0.94462 0.38206
  -1   9  -8 2393.86  511.04   1 0.72259-0.96159 0.62653-0.04964-0.29206-0.26996
   1  -9   8 2392.44  638.46   1-0.20768 0.44655 0.22929-0.80475 0.95094-0.39110
   1   9   8 2392.02  543.28   1-0.65418 0.89240 0.74280-0.16684 0.14239 0.41925
  -1   9  -9 3555.12  831.29   1 0.72820-0.98546 0.45714 0.11950-0.51062-0.12070
  -1  -9  -9 1331.44  531.83   1 0.27143-0.52656 0.21713-0.79363-0.93764 0.30476
   1  -9   9 1343.95  411.01   1-0.22136 0.47798 0.24481-0.82027 0.94396-0.31414
   1   9   9 1597.77  420.76   1-0.64412 0.89999 0.73121-0.15525 0.22454 0.40730
   1  10  -9  648.71  497.57   1 0.85584-0.92301 0.33401 0.30514-0.39492-0.23438
   1 -10  -9 1039.32  398.91   1 0.30317-0.36416 0.24514-0.88569-0.92086 0.28798
   1  10  -9 1211.13  504.29   1 0.75144-0.81419 0.65774-0.01738-0.05197-0.58032
  -1 -10   9  800.37  296.88   1-0.23838 0.30129 0.26412-0.90352 0.93456-0.30474
  -1  10   9  175.03  299.88   1-0.65913 0.72143 0.75023-0.11013-0.05183 0.68366
   1  10  -8 1939.07  604.97   1 0.87590-0.92487 0.30914 0.33000-0.37042-0.18896
   1 -10  -8 2836.80  588.73   1 0.28516-0.32858 0.22923-0.86978-0.93066 0.36810
   1  10  -8 3012.32  518.43   1 0.75096-0.79594 0.65893-0.01858 0.04303-0.60508
  -1 -10   8 3337.93  687.88   1-0.22116 0.26633 0.24459-0.88398 0.94406-0.38422
  -1  10   8 4221.16  606.44   1-0.65269 0.69729 0.74308-0.10297-0.14772 0.70934
   1  10  -7 5429.68  731.05   1 0.89355-0.92430 0.28519 0.35395-0.34673-0.14272
   1 -10  -7 5321.32  940.46   1 0.25788-0.28374 0.20518-0.84574-0.94413 0.45189
   1  10  -7 5742.46  627.36   1 0.74272-0.76994 0.65343-0.01308 0.14618-0.63797
  -1 -10   7 6153.10  907.71   1-0.19628 0.22369 0.21636-0.85575 0.95637-0.46651
  -1  10   7 5663.81  618.18   1-0.63833 0.66494 0.72794-0.08722-0.25024 0.74177
   1  10  -6 2772.84  739.07   1 0.90886-0.92141 0.26246 0.37669-0.32416-0.09537
   1 -10  -6 3159.80  682.33   1 0.21872-0.22702 0.17070-0.81125-0.96073 0.53881
   1  10  -6 1650.46  477.22   1 0.72379-0.73316 0.63977 0.00023 0.25847-0.68005
  -1 -10   6 2115.89  509.94   1-0.16193 0.17159 0.17738-0.81677 0.97072-0.55084
  -1  10   6 3182.58  693.46   1-0.61556 0.62451 0.70246-0.06174-0.35724 0.77856
   1  10  -513182.96  849.56   1 0.92191-0.91626 0.24128 0.39786-0.30307-0.04653
   1 -10  -512157.74 1518.27   1 0.16421-0.15494 0.12277-0.76332-0.97875 0.62715
   1  10  -514968.50  867.48   1 0.69280-0.68441 0.61452 0.02549 0.37733-0.72865
  -1 -10   512745.16 1348.04   1-0.11576 0.10842 0.12548-0.76368 0.98531-0.63641
  -1  10   513964.08  855.37   1-0.58196 0.57322 0.66514-0.02471-0.46787 0.81902
   1  10  -4 1023.89  575.57   1 0.93274-0.90889 0.22214 0.41700-0.28395 0.00426
   1 -10  -4  295.09  183.99   1 0.09124-0.06435 0.05826-0.69789-0.99412 0.71330
   1  10  -4  719.50  421.85   1 0.64584-0.61987 0.57607 0.06395 0.50101-0.78208
  -1 -10   4  519.86  176.50   1-0.05596 0.03076 0.05751-0.69572 0.99677-0.71765
  -1  10   4 1229.36  522.91   1-0.53676 0.51037 0.61406 0.02636-0.57862 0.85954
  -1  10   3 8061.22  488.24   1 0.47839-0.52191 0.59979 0.04115-0.64138 0.85200
   1  10  -3 7845.19  760.45   1 0.94136-0.89930 0.20565 0.43349-0.26745 0.05768
   1 -10  -3 7122.43  912.27   1-0.00679 0.05119-0.02735-0.61226-0.99960 0.78899
   1  10  -3 9359.59  666.24   1 0.58188-0.53810 0.52186 0.11816 0.62375-0.83455
  -1 -10   3 6470.88  952.38   1 0.01956-0.06263-0.02838-0.60981 0.99940-0.79006
  -1  10   3 6691.73  691.78   1-0.47884 0.43471 0.54872 0.09178-0.68527 0.89588
  -1  10   216124.49  680.80   1 0.62922-0.69053 0.52460 0.11634-0.57346 0.71388
   1  10  -216062.82  882.65   1 0.94769-0.88743 0.19268 0.44646-0.25444 0.11459
   1 -10  -215476.96 1478.39   1-0.13250 0.19429-0.13540-0.50396-0.98189 0.84158
   1  10  -215187.37  740.26   1 0.50047-0.43886 0.45238 0.18791 0.73815-0.87868
  -1 -10   216178.04  681.33   1 0.11023-0.17109-0.13170-0.50522 0.98514-0.84585
  -1  10   216630.49  880.53   1-0.40992 0.34816 0.47039 0.17011-0.78146 0.92186
  -1  10   1 2394.29  341.45   1 0.70619-0.78512 0.47367 0.16704-0.52623 0.59638
   1  10  -1 1923.98  314.52   1 0.95150-0.87303 0.18446 0.45468-0.24618 0.17625
   1  10  -1 1249.59  263.17   1 0.40465-0.32528 0.37036 0.26977 0.83611-0.90631
  -1  10   1 2658.48  278.25   1 0.28049-0.35986 0.26235 0.37778 0.92330-0.85309
  -1  10   020339.42  926.20   1 0.74875-0.84552 0.44075 0.19997-0.49507 0.49507
  -1  10   018835.96  738.04   1 0.43046-0.52756 0.39272 0.24741 0.81268-0.81268
   1  10   020904.80  951.92   1 0.30249-0.20540 0.28154 0.35858 0.91061-0.91061
  -1  10  -132591.95 1283.32   1 0.77250-0.88710 0.42053 0.22019-0.47579 0.40565
   1  10   134882.25 1288.63   1 0.94855-0.83367 0.19087 0.44828-0.25261 0.32254
  -1 -10  -138618.73 1414.00   1-0.19862 0.08418-0.19279-0.44658-0.96092 0.89077
  -1  10  -132136.38 1135.66   1 0.56430-0.67928 0.50714 0.13315 0.65142-0.72169
   1 -10   138205.12 1403.54   1 0.16736-0.05319-0.19687-0.44004 0.96603-0.89639
   1  10   136193.70 1339.82   1-0.43088 0.54552 0.49423 0.14627-0.75503 0.82523
  -1  10  -230433.53 1622.00   1 0.78458-0.91701 0.40966 0.23105-0.46540 0.32510
   1  10   228368.37 1395.66   1 0.93711-0.80403 0.21393 0.42521-0.27574 0.41559
  -1 -10  -228883.98 1730.17   1-0.10371-0.02826-0.11038-0.52899-0.98846 0.84815
  -1  10  -231414.16 1521.37   1 0.66080-0.79364 0.58862 0.05139 0.46567-0.60620
   1 -10   231248.86 1571.32   1 0.09277 0.03916-0.11177-0.52514 0.98939-0.85011
   1  10   233705.43 1695.51   1-0.51707 0.64939 0.59175 0.04866-0.61843 0.75889
  -1  10  -320717.15 1276.48   1 0.78871-0.93897 0.40585 0.23486-0.46174 0.25130
  -1 -10  -319325.14 2269.19   1-0.01948-0.12994-0.03842-0.60120-0.99907 0.78845
  -1  10  -319541.74  930.37   1 0.71796-0.86846 0.63509 0.00492 0.28494-0.49572
   1 -10   320576.61 2065.86   1 0.02718 0.12308-0.03705-0.60114 0.99894-0.78960
   1  10   321471.24 1035.32   1-0.58059 0.73057 0.66359-0.02317-0.47175 0.68244
  -1  10  -4 2524.40  604.80   1 0.78699-0.95509 0.40744 0.23327-0.46327 0.18268
  -1 -10  -4 2365.76  593.53   1 0.04988-0.21682 0.02211-0.66173-0.99851 0.71769
  -1  10  -4 1721.25  299.56   1 0.74495-0.91317 0.65505-0.01470 0.12627-0.40729
   1 -10   4 2383.05  594.08   1-0.02916 0.19730 0.02703-0.66524 0.99920-0.72008
   1  10   4 2066.64  499.88   1-0.62271 0.79035 0.71048-0.06976-0.32779 0.60867
  -1  10  -515220.04 1265.27   1 0.78066-0.96659 0.41323 0.22748-0.46882 0.11808
  -1 -10  -512499.11 1647.54   1 0.10586-0.29031 0.07105-0.71068-0.99183 0.64081
   1 -10   514939.35 2187.08   1-0.07555 0.26156 0.07978-0.71798 0.99394-0.64504
   1  10   516021.37 1144.94   1-0.64676 0.83206 0.73731-0.09659-0.19510 0.54620
  -1  10  -6 4927.78  653.05   1 0.77045-0.97421 0.42233 0.21838-0.47752 0.05664
  -1 -10  -6 5365.65  808.00   1 0.14870-0.35114 0.10915-0.74970-0.98283 0.56091
   1 -10   6 4865.33  809.31   1-0.11264 0.31652 0.12193-0.76014 0.98612-0.56744
   1  10   6 5677.02  586.77   1-0.65814 0.86134 0.74914-0.10904-0.07495 0.49617
  -1  10  -7 2025.37  725.76   1 0.75681-0.97840 0.43405 0.20666-0.48870-0.00233
  -1 -10  -7 2503.43  634.40   1 0.18200-0.40200 0.13840-0.77895-0.97350 0.48127
   1 -10   7 1381.34  414.89   1-0.14176 0.36288 0.15449-0.79388 0.97776-0.48791
   1  10   7 2131.02  488.64   1-0.65979 0.88069 0.75080-0.11070 0.03085 0.46056
  -1  10  -8 4155.12  879.54   1 0.73999-0.97942 0.44785 0.19286-0.50182-0.05935
  -1 -10  -8 2000.56  433.92   1 0.20641-0.44397 0.15986-0.80041-0.96531 0.40275
   1 -10   8 3271.69  652.41   1-0.16338 0.40225 0.17902-0.81841 0.97018-0.41034
   1  11  -8 2334.46  672.45   1 0.86166-0.91062 0.32702 0.37603-0.38805-0.17133
   1 -11  -8  867.12  333.69   1 0.22245-0.26587 0.17397-0.87858-0.95929 0.39673
   1  11  -8 1592.11  489.44   1 0.75102-0.79600 0.65896 0.04542 0.04153-0.60358
  -1 -11   8  487.71  254.52   1-0.16790 0.21306 0.18415-0.88749 0.96844-0.40861
  -1  11   8  737.25  334.37   1-0.65196 0.69656 0.74226-0.03815-0.15484 0.71647
   1  11  -7 2777.90  736.52   1 0.87863-0.90938 0.30558 0.39748-0.36691-0.12255
   1 -11  -7  677.94  303.80   1 0.19103-0.21689 0.14634-0.85094-0.97061 0.47837
   1  11  -7 1053.31  354.22   1 0.74299-0.77020 0.65363 0.05075 0.14398-0.63577
  -1 -11   7 1626.64  416.61   1-0.14047 0.16788 0.15302-0.85635 0.97818-0.48832
  -1  11   7 1560.58  573.75   1-0.63734 0.66395 0.72684-0.02205-0.25590 0.74744
   1  11  -6 1523.75  525.72   1 0.89325-0.90581 0.28561 0.41745-0.34715-0.07238
   1 -11  -6 2471.73  620.07   1 0.14768-0.15598 0.10826-0.81286-0.98309 0.56117
   1  11  -6 2680.96  617.39   1 0.72459-0.73396 0.64041 0.06360 0.25462-0.67620
  -1 -11   6 2263.57  495.90   1-0.10381 0.11434 0.11190-0.81393 0.98828-0.56959
  -1  11   6 1800.74  592.05   1-0.61478 0.62373 0.70158 0.00320-0.36030 0.78162
   1  11  -5 1572.63  622.48   1 0.90558-0.89992 0.26750 0.43555-0.32918-0.02043
   1 -11  -5  167.92  165.48   1 0.09071-0.08132 0.05779-0.76138-0.99419 0.64317
   1  11  -5  934.18  321.46   1 0.69494-0.68655 0.61628 0.08772 0.37045-0.72176
  -1 -11   5  499.86  309.24   1-0.05656 0.04922 0.05819-0.76021 0.99670-0.64779
  -1  11   5 1045.17  542.26   1-0.58222 0.57348 0.66543 0.03902-0.46713 0.81828
   1  11  -4  698.47  379.52   1 0.91559-0.89173 0.25177 0.45129-0.31353 0.03383
   1 -11  -4 2171.76  425.64   1 0.01455 0.01233-0.00873-0.69485-0.99985 0.71904
   1  11  -4 1332.80  432.89   1 0.65071-0.62474 0.58016 0.12386 0.48987-0.77093
  -1 -11   4 1718.15  404.00   1 0.00294-0.02815-0.00948-0.69254 0.99995-0.72082
  -1  11   4 2690.65  597.75   1-0.53939 0.51299 0.61702 0.08743-0.57300 0.85392
   1  11  -3 1532.89  401.53   1 0.92320-0.88114 0.23908 0.46398-0.30088 0.09111
   1 -11  -3 1303.40  320.91   1-0.08362 0.12786-0.09290-0.61040-0.99215 0.78169
   1  11  -3 2563.37  472.80   1 0.59151-0.54773 0.53006 0.17396 0.60756-0.81836
  -1 -11   3 1911.74  360.85   1 0.07478-0.11786-0.09126-0.60935 0.99301-0.78409
  -1  11   3 1463.31  403.95   1-0.48552 0.44138 0.55630 0.14825-0.67438 0.88498
  -1  11   2 1464.08  355.14   1 0.60514-0.66646 0.53856 0.16648-0.58630 0.72671
   1  11  -2  853.47  324.74   1 0.92821-0.86795 0.23034 0.47271-0.29215 0.15231
   1 -11  -2 1295.05  236.85   1-0.20051 0.26230-0.19442-0.50888-0.96020 0.81989
   1  11  -2 2308.77  567.59   1 0.51719-0.45559 0.46677 0.23755 0.71737-0.85790
  -1 -11   2 1770.26  323.79   1 0.15958-0.22044-0.18799-0.51261 0.96911-0.82983
  -1  11   2  734.22  347.41   1-0.42240 0.36064 0.48459 0.21996-0.76599 0.90639
  -1  11   114375.92  789.53   1 0.68211-0.76104 0.49066 0.21412-0.54218 0.61233
   1  11  -114476.91  811.24   1 0.93016-0.85169 0.22686 0.47620-0.28867 0.21875
   1  11  -118759.13 1021.31   1 0.43030-0.35093 0.39258 0.31156 0.81284-0.88304
  -1  11   113022.84  675.30   1 0.33389-0.41325 0.30889 0.39525 0.89056-0.82035
  -1  11   0 1788.88  442.42   1 0.72613-0.82290 0.45873 0.24605-0.51213 0.51213
   1  11   0 3325.22  674.46   1 0.92809-0.83141 0.23056 0.47250-0.29237 0.29237
  -1  11   0 1492.30  357.26   1 0.46667-0.56386 0.42326 0.28106 0.77656-0.77656
   1  11   0 1471.05  437.82   1 0.33769-0.24059 0.31220 0.39194 0.88796-0.88796
  -1  11  -1 9386.39  667.06   1 0.75164-0.86624 0.43837 0.26642-0.49281 0.42266
   1  11   1 8838.43  529.81   1 0.91998-0.80510 0.24453 0.45852-0.30632 0.37624
  -1  11  -1 7789.97  449.96   1 0.58199-0.69697 0.52224 0.18208 0.62333-0.69359
   1 -11   1 8972.46  620.10   1 0.20141-0.08724-0.23574-0.46486 0.95071-0.88107
   1  11   1 6667.84  494.68   1-0.44550 0.56013 0.51084 0.19371-0.73523 0.80543
  -1  11  -223345.26 1053.90   1 0.76540-0.89783 0.42673 0.27806-0.48172 0.34142
   1  11   221660.19  821.69   1 0.90106-0.76798 0.27429 0.42877-0.33592 0.47576
  -1 -11  -221918.27  897.08   1-0.15436 0.02237-0.15438-0.54892-0.97587 0.83557
   1 -11   224207.33  975.66   1 0.13247-0.00054-0.15706-0.54354 0.97866-0.83937
   1  11   222160.99  959.20   1-0.52257 0.65489 0.59799 0.10647-0.60771 0.74817
  -1  11  -3 3975.44  779.32   1 0.77106-0.92133 0.42179 0.28299-0.47701 0.26656
   1 -11   3 3081.03  767.52   1 0.07024 0.07946-0.08608-0.61452 0.99380-0.78488
   1  11   3 4142.80  905.18   1-0.58105 0.73102 0.66411 0.04035-0.47046 0.68115
  -1  11  -412147.02  848.33   1 0.77072-0.93882 0.42210 0.28269-0.47729 0.19670
  -1 -11  -410338.36 1370.04   1-0.00653-0.16041-0.02712-0.67646-0.99961 0.71879
   1 -11   411170.05 1611.38   1 0.01677 0.15137-0.02520-0.67681 0.99954-0.72041
   1  11   412993.66  751.67   1-0.62138 0.78902 0.70899-0.00420-0.33346 0.61434
  -1  11  -5 9852.04  904.78   1 0.76562-0.95155 0.42653 0.27825-0.48153 0.13079
  -1 -11  -5 7906.86 1133.83   1 0.04940-0.23384 0.02168-0.72527-0.99854 0.64752
   1 -11   5 7644.66  906.09   1-0.02879 0.21480 0.02662-0.72865 0.99923-0.65032
  -1 -11  -6  829.44  291.12   1 0.09432-0.29627 0.06094-0.76454-0.99367 0.57245
   1 -11   6 2103.67  639.26   1-0.06607 0.26995 0.06900-0.77103 0.99542-0.57674
  -1  11  -7 7258.82 1243.15   1 0.74394-0.96554 0.44467 0.26012-0.49880 0.00776
  -1 -11  -7 6085.74 1089.43   1 0.12829-0.34829 0.09124-0.79584-0.98753 0.49529
   1 -11   7 4586.19 1108.61   1-0.09571 0.31746 0.10269-0.80472 0.99009-0.50163
   1  12  -7 5629.15 1128.96   1 0.86158-0.89233 0.32713 0.43985-0.38815-0.10130
   1 -12  -7 1939.44  438.99   1 0.12427-0.14989 0.08716-0.85471-0.98841 0.49698
  -1 -12   7 3380.74  796.54   1-0.08498 0.11338 0.09049-0.85634 0.99226-0.50379
  -1  12   7 4676.40  895.84   1-0.63752 0.66413 0.72704 0.04182-0.25490 0.74644
   1  12  -6 1353.53  584.46   1 0.87545-0.88801 0.30972 0.45725-0.37100-0.04853
   1 -12  -6  173.88  153.28   1 0.07759-0.08570 0.04632-0.81387-0.99590 0.57468
  -1 -12   6  475.42  206.44   1-0.04705 0.05758 0.04738-0.81323 0.99776-0.57908
  -1  12   6  369.41  306.36   1-0.61568 0.62463 0.70259 0.06626-0.35677 0.77809
   1  12  -5 1416.78  590.26   1 0.88693-0.88128 0.29443 0.47254-0.35588 0.00626
   1 -12  -5  529.45  194.54   1 0.01695-0.00756-0.00664-0.76090-0.99983 0.64881
   1  12  -5 1926.26  559.69   1 0.69918-0.69079 0.61978 0.14823 0.35638-0.70769
  -1 -12   5  889.50  251.46   1 0.00065-0.00798-0.00687-0.75897 0.99997-0.65107
  -1  12   5  607.47  341.26   1-0.58463 0.57589 0.66815 0.10035-0.46019 0.81134
   1  12  -4 4152.85  630.64   1 0.89593-0.87208 0.28178 0.48519-0.34335 0.06365
   1 -12  -4 2678.51  629.29   1-0.05975 0.08664-0.07349-0.69405-0.99550 0.71468
   1  12  -4 4485.55  576.10   1 0.65816-0.63219 0.58641 0.18161 0.47215-0.75322
  -1 -12   4 2561.73  682.57   1 0.05821-0.08352-0.07237-0.69193 0.99567-0.71711
  -1  12   4 3962.88  663.59   1-0.54445 0.51805 0.62275 0.14575-0.56191 0.84283
   1  12  -3  601.71  346.90   1 0.90229-0.86023 0.27247 0.49451-0.33411 0.12434
   1 -12  -3  198.02  132.02   1-0.15517 0.19941-0.15509-0.61215-0.97563 0.76517
   1  12  -3  355.45  340.56   1 0.60384-0.56006 0.54055 0.22747 0.58580-0.79660
  -1 -12   3  788.56  281.98   1 0.12727-0.17036-0.15113-0.61317 0.98028-0.77136
  -1  12   3  437.13  355.27   1-0.49459 0.45046 0.56660 0.20200-0.65904 0.86964
   1  12  -2 8447.69  761.01   1 0.90562-0.84536 0.26744 0.49954-0.32911 0.18926
  -1  12   2 9054.08  764.91   1-0.43682 0.37506 0.50098 0.26762-0.74712 0.88752
  -1  12   1  805.74  251.51   1 0.65279-0.73190 0.51010 0.25903-0.56004 0.63024
   1  12  -1 1353.32  454.43   1 0.90524-0.82677 0.26802 0.49896-0.32969 0.25976
   1  12  -1  896.42  320.20   1 0.45823-0.37883 0.41597 0.35238 0.78548-0.85575
  -1  12   1  849.65  368.30   1-0.37290 0.29351 0.42827 0.34033-0.82311 0.89331
  -1  12   0 2129.69  621.31   1 0.69944-0.79620 0.47855 0.29031-0.53082 0.53082
   1  12   0 2010.49  550.01   1 0.89979-0.80312 0.27616 0.49081-0.33778 0.33778
   1  12   0 1194.18  398.49   1 0.37317-0.27607 0.34304 0.42511 0.86200-0.86200
   1  12   0 1854.55  530.83   1-0.38201 0.47902 0.43864 0.32996-0.81342 0.81342
  -1  12  -1 6717.24  600.76   1 0.72721-0.84181 0.45791 0.31095-0.51135 0.44120
   1  12   1 5877.17  446.47   1 0.88652-0.77164 0.29499 0.47198-0.35643 0.42636
   1  12   1 4078.92  850.31   1 0.28791-0.17308 0.26883 0.49933 0.91914-0.84894
   1  12   1 6010.09  523.96   1-0.46231 0.57694 0.52994 0.23866-0.71093 0.78113
  -1  12  -2 3293.18  775.03   1 0.74297-0.87541 0.44545 0.32340-0.49954 0.35925
  -1 -12  -2 2853.31  615.56   1-0.20391 0.07192-0.19737-0.56987-0.95888 0.81857
   1 -12   2 2278.00  509.66   1 0.17093-0.03899-0.20094-0.56335 0.96457-0.82529
   1  12   2 2260.67  524.49   1-0.53125 0.66358 0.60782 0.16068-0.59018 0.73064
  -1  12  -3 3500.52  882.36   1 0.75038-0.90064 0.43941 0.32945-0.49380 0.28335
  -1 -12  -3 2322.36  568.18   1-0.12898-0.02055-0.13234-0.63490-0.98277 0.77231
   1 -12   3 3237.74  679.95   1 0.11244 0.03726-0.13421-0.63009 0.98455-0.77562
  -1  12  -4 1129.40  572.02   1 0.75155-0.91964 0.43844 0.33041-0.49288 0.21229
  -1 -12  -4  721.73  218.04   1-0.06224-0.10470-0.07566-0.69188-0.99518 0.71437
   1 -12   4  861.26  306.83   1 0.06069 0.10678-0.07520-0.68910 0.99531-0.71675
  -1  12  -5 1331.92  487.75   1 0.74777-0.93370 0.44155 0.32731-0.49583 0.14510
  -1 -12  -5 2071.13  595.81   1-0.00685-0.17758-0.02741-0.74013-0.99960 0.64858
   1 -12   5  795.25  367.98   1 0.01701 0.16899-0.02549-0.74035 0.99953-0.65062
  -1  12  -6  586.98  406.69   1 0.73987-0.94363 0.44795 0.32091-0.50191 0.08103
   1 -12   6  614.91  273.99   1-0.02004 0.22391 0.01666-0.78251 0.99966-0.58097
   1  13  -5  130.92  355.91   1 0.86580-0.86015 0.32195 0.50894-0.38305 0.03344
  -1 -13   5  197.21  158.06   1 0.05603-0.06336-0.06988-0.75978 0.99598-0.64707
  -1  13   5 -206.14  307.02   1-0.58889 0.58015 0.67296 0.15958-0.44756 0.79871
   1  13  -4  297.87  444.69   1 0.87361-0.84975 0.31210 0.51878-0.37334 0.09365
  -1 -13   4  647.15  238.77   1 0.11169-0.13701-0.13335-0.69464 0.98475-0.70618
  -1  13   4  628.53  318.76   1-0.55154 0.52514 0.63077 0.20177-0.54582 0.82674
   1  13  -3 1212.02  503.84   1 0.87844-0.83638 0.30583 0.52506-0.36715 0.15738
  -1  13   3 3508.50  624.85   1-0.50591 0.46186 0.57911 0.25343-0.63928 0.84997
   1  13  -2 3237.70  525.81   1 0.87976-0.81950 0.30408 0.52680-0.36543 0.22558
   1  13  -2 2995.74  448.32   1 0.55704-0.49543 0.50093 0.33145 0.66239-0.80292
  -1  13   2 3790.35  596.73   1-0.45277 0.39101 0.51911 0.31355-0.72492 0.86532
   1  13  -1 1737.90  529.19   1 0.87662-0.79815 0.30821 0.52268-0.36950 0.29958
   1  13  -1  533.15  235.36   1 0.48638-0.40698 0.44025 0.39212 0.75471-0.82498
  -1  13   1 1784.48  620.74   1-0.39451 0.31513 0.45286 0.37979-0.79954 0.86974
  -1  13   0 1356.59  386.07   1 0.66856-0.76533 0.49976 0.33317-0.55068 0.55068
   1  13   0  608.28  216.11   1 0.86723-0.77056 0.32017 0.51072-0.38129 0.38129
   1  13   0 1095.17  359.51   1 0.40889-0.31179 0.37404 0.45813 0.83240-0.83240
  -1  13  -1  838.81  417.41   1 0.69912-0.81372 0.47877 0.35416-0.53102 0.46088
   1  13   1 1389.47  407.10   1 0.33061-0.21578 0.30603 0.52614 0.89276-0.82256
  -1  13  -2 3655.12  565.56   1 0.71723-0.84966 0.46551 0.36742-0.51853 0.37823
  -1  13  -3  805.84  473.61   1 0.72659-0.87686 0.45838 0.37455-0.51179 0.30135
  -1 -13  -3  426.04  222.53   1-0.18171 0.03218-0.17812-0.65305-0.96708 0.75662
   1 -13   3  907.02  341.47   1 0.15347-0.00376-0.18102-0.64697 0.97142-0.76250
  -1  13  -4 1550.59  489.25   1 0.72943-0.89752 0.45619 0.37674-0.50972 0.22913
  -1 -13  -4  789.88  241.88   1-0.11856-0.04851-0.12328-0.70789-0.98526 0.70464
   1 -13   4 2237.05  430.44   1 0.10416 0.06331-0.12477-0.70323 0.98670-0.70813
  -1  13  -5 1936.70  602.93   1 0.72708-0.91301 0.45800 0.37493-0.51144 0.16070
  -1 -13  -5  460.07  199.25   1-0.06293-0.12151-0.07627-0.75524-0.99509 0.64407
   1 -13   5  559.95  347.05   1 0.06114 0.12410-0.07571-0.75228 0.99525-0.64704
   1  14  -3 1098.64  519.62   1 0.85143-0.80937 0.33918 0.55562-0.40000 0.19023
  -1  14   3  558.72  300.57   1-0.51847 0.47442 0.59334 0.30324-0.61572 0.82641
   1  14  -2 2542.53  544.27   1 0.85040-0.79013 0.34038 0.55442-0.40118 0.26134
  -1  14   2 2508.15  552.00   1-0.46993 0.40817 0.53860 0.35810-0.69933 0.83973
  -1  14   1 1439.49  570.82   1-0.41681 0.33743 0.47823 0.41847-0.77301 0.84321
  -1  14  -2  805.22  355.90   1 0.68799-0.82042 0.48662 0.41039-0.53839 0.39809
   2   0 -13 3538.60  733.72   1 0.66407-0.69979 0.57028-0.57028-0.48350-0.43019
  -2   0  13 2473.90  598.34   1-0.58100 0.61723 0.65744-0.65744 0.47979 0.43218
   2   0 -12 4507.55  590.63   1 0.81123-0.83169 0.38411-0.38411-0.44084-0.40092
   2   0 -12 5339.82  778.18   1 0.68203-0.70007 0.58677-0.58677-0.43649-0.40692
  -2   0  12 6207.76  749.56   1-0.59645 0.61498 0.67503-0.67503 0.43425 0.40757
   2   0 -11 1183.79  531.09   1 0.85807-0.86498 0.33135-0.33135-0.39230-0.37684
   2   0 -11  799.05  395.93   1 0.69849-0.69886 0.60200-0.60200-0.38689-0.38623
  -2   0  11  555.12  266.72   1-0.61063 0.61147 0.69118-0.69118 0.38650 0.38517
   2   0 -1032644.88 1453.70   1 0.90160-0.89029 0.27350-0.27350-0.33513-0.36409
   2   0 -1033271.94 1686.45   1 0.71244-0.69564 0.61690-0.61690-0.33442-0.36811
  -2   0  1031993.47 1522.74   1-0.62275 0.60532 0.70670-0.70670 0.33578 0.36627
   2   0  -935620.68 1264.96   1 0.93941-0.90991 0.20949-0.20949-0.27129-0.35801
   2   0  -936840.24 1467.71   1 0.72574-0.69119 0.62954-0.62954-0.27743-0.35484
  -2   0   933562.93 1242.76   1-0.63430 0.59921 0.71994-0.71994 0.28168 0.35017
  -2   0   842673.77 1336.85   1-0.97250 0.91991-0.13157 0.13157 0.19216 0.36938
   2   0  -841422.99 1524.17   1 0.73716-0.68488 0.64063-0.64063-0.21487-0.34715
  -2   0   843374.80 1464.43   1-0.64439 0.59165 0.73152-0.73152 0.22279 0.33885
  -2   0   7 6971.05  822.04   1-0.99284 0.92261-0.04917 0.04917 0.10878 0.38257
   2   0  -7 5570.19  472.86   1 0.74623-0.67621 0.64978-0.64978-0.14462-0.34715
  -2   0   7 5994.83  462.54   1-0.65271 0.58232 0.74110-0.74110 0.15727 0.33417
  -2   0   625519.05  899.07   1-0.99904 0.91269 0.04106-0.04106 0.01473 0.40658
   2   0  -623933.49  896.45   1 0.75104-0.66333 0.65718-0.65718-0.06362-0.35791
   2   0  -5651086.515984.87   1-0.78054 0.88579 0.45803-0.45803-0.42538 0.07459
  -2   0   417041.60  554.55   1-0.92912 0.80678 0.28356-0.28356-0.23731 0.51835
   2   0  -417537.12  371.94   1-0.71432 0.83737 0.50885-0.50885-0.48042 0.19965
   2   0  -417845.03  516.50   1 0.74078-0.61741 0.65300-0.65300 0.15757-0.43862
  -2   0   415951.15  409.94   1 0.66370-0.78689 0.59105-0.59105 0.45841-0.17734
  -2   0   418257.27  511.98   1-0.65519 0.53199 0.74586-0.74586-0.12001 0.40082
   2   0  -415564.18  441.38   1-0.59493 0.71834 0.67976-0.67976-0.42891 0.14799
   2   0  -3 3610.82  237.08   1-0.60178 0.74249 0.57487-0.57487-0.55441 0.34383
   2   0  -3 2531.51  302.23   1 0.70880-0.56766 0.62765-0.62765 0.32193-0.53272
  -2   0   3 2863.51  217.34   1 0.61543-0.75643 0.55038-0.55038 0.56419-0.35339
   2   0  -3 2797.38  197.48   1-0.55942 0.70048 0.63968-0.63968-0.52711 0.31642
  -2   0   2614696.8 4514.25   1-0.62228 0.46392 0.56434-0.56434-0.54246 0.68285
  -2   0   2592718.3 4324.92   1 0.50586-0.66465 0.45702-0.45702 0.73159-0.59106
  -2   0   1615345.4 4509.69   1-0.36369 0.18741 0.66130-0.66130-0.65605 0.72632
  -2   0   1604029.6 4356.61   1-0.41211 0.23571 0.47288-0.47288-0.77880 0.84901
   2   0   0788594.8 5711.24   1 0.09705 0.09705 0.69322-0.69322-0.71415 0.71415
   2   0   0778860.9 5552.69   1 0.09691 0.09691 0.06322-0.06322-0.99328 0.99328
  -2   0   0783587.7 5555.79   1-0.09667-0.09667 0.10378-0.10378 0.98989-0.98989
   2   0   123107.33  469.84   1 0.34361-0.13177 0.64674-0.64674-0.68092 0.75124
   2   0   124297.35  422.11   1 0.40095-0.18925 0.33215-0.33215-0.85376 0.92404
   2   0   123502.88  597.47   1-0.19880 0.41026 0.21922-0.21922 0.95520-0.88522
  -2   0  -123459.67  361.91   1-0.38685 0.17533 0.43395-0.43395 0.81364-0.88370
   2   0   288919.30  916.73   1 0.56729-0.33801 0.48155-0.48155-0.66804 0.80861
   2   0   292566.01  920.28   1-0.35788 0.58716 0.40102-0.40102 0.84326-0.70315
  -2   0  -287515.43  864.38   1-0.52797 0.29874 0.59537-0.59537 0.60561-0.74584
  -2   0  -3150196.2 2963.33   1 0.36327-0.61053 0.64095-0.64095-0.67617 0.46521
   2   0   3135113.4 2627.64   1 0.67751-0.43048 0.49378-0.49378-0.54510 0.75554
  -2   0  -3143939.2 2801.84   1 0.46537-0.71224 0.38941-0.38941-0.79484 0.58400
   2   0   3121717.2 2374.22   1 0.65147-0.40439 0.55876-0.55876-0.51319 0.72404
   2   0   3145865.3 2819.43   1-0.43289 0.67984 0.48731-0.48731 0.75836-0.54802
  -2   0  -3141414.1 2729.54   1-0.59283 0.34594 0.67092-0.67092 0.44542-0.65588
  -2   0  -411404.42  575.86   1 0.41953-0.68450 0.62251-0.62251-0.66064 0.37937
  -2   0  -411678.31  484.01   1 0.51006-0.77454 0.43024-0.43024-0.74479 0.46365
   2   0   413440.09  471.62   1-0.46901 0.73367 0.52836-0.52836 0.70770-0.42725
  -2   0  -582213.74 2225.96   1 0.44980-0.73247 0.61138-0.61138-0.65106 0.29947
  -2   0  -579829.63 2119.75   1 0.53268-0.81474 0.45048-0.45048-0.71645 0.36502
   2   0   580228.60 2098.21   1-0.48625 0.76862 0.54795-0.54795 0.68066-0.33009
  -2   0  -6108635.7 3153.46   1 0.46169-0.76225 0.60652-0.60652-0.64727 0.22604
  -2   0  -6107807.5 3113.16   1 0.54277-0.84243 0.45953-0.45953-0.70300 0.28129
   2   0   6105931.4 3016.69   1-0.49319 0.79327 0.55584-0.55584 0.66917-0.24849
  -2   0  -7 1575.50  460.59   1 0.46104-0.77939 0.60678-0.60678-0.64749 0.15605
  -2   0  -7  924.44  407.24   1 0.54512-0.86238 0.46164-0.46164-0.69979 0.20779
   2   0   7 1742.56  358.61   1-0.49385 0.81165 0.55659-0.55659 0.66806-0.17726
  -2   0  -823059.54 1070.93   1 0.45095-0.78675 0.61094-0.61094-0.65067 0.08813
  -2   0  -823519.56 1027.74   1 0.54222-0.87707 0.45904-0.45904-0.70374 0.14146
   2   0   823861.32 1019.94   1-0.49027 0.82578 0.55252-0.55252 0.67405-0.11314
  -2   0  -988209.8513914.75   1 0.43239-0.78589 0.61789-0.61789-0.65668 0.02382
  -2   0  -986358.6413625.29   1 0.53546-0.88790 0.45298-0.45298-0.71280 0.08023
   2   0   983306.94 2740.40   1-0.48355 0.83676 0.54488-0.54488 0.68503-0.05401
  -2   0 -10 5105.66  652.13   1 0.40692-0.77813 0.62690-0.62690-0.66438-0.03879
  -2   0 -10 7177.24  730.02   1 0.52562-0.89565 0.44416-0.44416-0.72556 0.02270
   2   0  10 3163.27  700.26   1-0.47431 0.84524 0.53438-0.53438 0.69961 0.00152
  -2   0 -1111421.12  895.42   1 0.37513-0.76404 0.63730-0.63730-0.67313-0.10035
  -2   0 -1111970.06  926.54   1 0.51317-0.90080 0.43302-0.43302-0.74103-0.03210
   2   0  11 8837.43  748.94   1-0.46291 0.85155 0.52143-0.52143 0.71681 0.05443
   2  -1 -13 1345.68  607.86   1 0.64664-0.68235 0.55435-0.61846-0.52397-0.38973
   2   1 -13 4001.79  870.75   1 0.67881-0.71453 0.58382-0.51971-0.44537-0.46832
  -2  -1  13 2551.53  564.02   1-0.56323 0.59947 0.63721-0.70119 0.52604 0.38594
  -2   1  13 2815.24  669.93   1-0.59611 0.63234 0.67465-0.61066 0.43530 0.47667
   2   1 -12 1299.14  474.05   1 0.83524-0.85569 0.35896-0.29489-0.41654-0.42522
   2  -1 -12  653.29  333.65   1 0.66470-0.68275 0.57086-0.63497-0.48194-0.36146
   2   1 -12 1585.41  490.07   1 0.69640-0.71444 0.60006-0.53595-0.39362-0.44978
  -2  -1  12 1541.04  438.32   1-0.57871 0.59725 0.65484-0.71882 0.48606 0.35576
  -2   1  12 1658.55  532.11   1-0.61120 0.62974 0.69183-0.62785 0.38442 0.45740
   2   1 -11 8345.82  614.80   1 0.87661-0.88351 0.30822-0.24431-0.36951-0.39963
   2  -1 -11 8469.26  566.35   1 0.83049-0.83312 0.36411-0.42819-0.42153-0.35008
   2  -1 -11 6446.80  686.98   1 0.68143-0.68180 0.58622-0.65033-0.43815-0.33497
   2   1 -1110676.93  892.22   1 0.71130-0.71223 0.61582-0.55172-0.33882-0.43395
  -2  -1  11 6155.05  507.68   1-0.59304 0.59389 0.67116-0.73514 0.44478 0.32689
  -2   1  11 9058.06  725.82   1-0.62402 0.62425 0.70816-0.64417 0.33028 0.44198
   2   1 -10 2939.76  559.98   1 0.91485-0.90355 0.25296-0.18905-0.31471-0.38451
   2  -1 -10 3166.84  570.99   1 0.87910-0.86780 0.30496-0.36887-0.36629-0.33293
   2  -1 -10 3294.70  739.28   1 0.69686-0.67955 0.60048-0.66459-0.39217-0.31067
   2   1 -10 3811.11  828.75   1 0.72527-0.70847 0.62910-0.56500-0.27964-0.42289
  -2  -1  10 3115.38  602.57   1-0.60627 0.58942 0.68622-0.75020 0.40190 0.29962
  -2   1  10 2479.53  537.55   1-0.63603 0.61859 0.72192-0.65792 0.27256 0.42949
   2  -1  -914842.60  724.17   1 0.92407-0.89456 0.23759-0.30151-0.29939-0.32991
   2   1  -914401.41  867.42   1 0.94763-0.91812 0.19282-0.12890-0.25457-0.37473
   2   1  -913841.19  846.46   1 0.73712-0.70258 0.64059-0.57649-0.21511-0.41716
  -2   1   914912.83  810.76   1-0.64625 0.61117 0.73366-0.66967 0.20995 0.42190
  -2   1   825884.55  884.22   1-0.96472 0.91213-0.15330 0.21730 0.21401 0.34753
  -2  -1   826252.38  935.95   1-0.97586 0.92327-0.12117 0.05717 0.18168 0.37986
   2   1  -825078.81 1178.20   1 0.74634-0.69406 0.64989-0.58579-0.14355-0.41847
  -2   1   822901.18  949.58   1-0.65433 0.60159 0.74297-0.67897 0.14084 0.42079
  -2  -1   717742.96  646.00   1-0.99316 0.92293-0.04718-0.01680 0.10675 0.38459
  -2   1   718746.70  868.92   1-0.99071 0.92048-0.06144 0.12543 0.12125 0.37009
   2  -1  -719415.05  915.79   1 0.73407-0.66405 0.63760-0.70170-0.23363-0.25813
   2   1  -717185.56  793.64   1 0.75107-0.68113 0.65723-0.59319-0.06264-0.42914
  -2  -1   718258.71  749.88   1-0.63868 0.56829 0.72497-0.78896 0.25785 0.23359
  -2   1   717545.89  799.00   1-0.65882 0.58872 0.74963-0.68562 0.06325 0.42816
  -2   1   624762.80  794.34   1-0.99900 0.91264 0.04261 0.02135 0.01312 0.40818
  -2  -1   628652.07  917.40   1-0.99920 0.91284 0.03170-0.09567 0.02437 0.39694
   2  -1  -624139.43  707.91   1-0.74831 0.83591 0.48391-0.54788-0.45370 0.03275
   2  -1  -627846.67  971.19   1 0.74360-0.65584 0.64707-0.71117-0.16835-0.25316
   2   1  -624165.79  895.08   1 0.75137-0.66366 0.65910-0.59507 0.03170-0.45324
  -2  -1   625520.11  876.75   1-0.64748 0.55944 0.73508-0.79907 0.20102 0.22021
  -2   1   625433.36  936.40   1-0.65981 0.57201 0.75094-0.68693-0.02702 0.44824
  -2  -1   514688.52  631.91   1-0.98918 0.88487 0.12666-0.19064-0.07394 0.42503
  -2   1   514399.67  417.20   1-0.97614 0.87169 0.17716-0.11316-0.12550 0.47680
   2  -1  -513509.89  420.81   1-0.68803 0.79343 0.52622-0.59019-0.49969 0.14873
   2   1  -514815.31  619.56   1 0.74288-0.63740 0.65355-0.58951 0.14488-0.49616
  -2  -1   516165.01  620.80   1-0.65481 0.54911 0.74352-0.80751 0.13563 0.21539
  -2   1   513459.79  617.16   1-0.65389 0.54839 0.74442-0.68041-0.13508 0.48609
  -2   1   468672.22 1498.70   1-0.89594 0.77360 0.33483-0.27083-0.29184 0.57288
   2   1  -465089.45 1356.08   1-0.78907 0.91199 0.45070-0.38673-0.41739 0.13676
   2  -1  -464308.98 1299.87   1-0.58485 0.70790 0.58312-0.64710-0.56383 0.28306
   2  -1  -466645.32 1446.12   1 0.75197-0.62873 0.65917-0.72320 0.00474-0.28577
  -2   1   463453.14 1335.57   1 0.70340-0.82677 0.62324-0.55924 0.34173-0.06067
  -2  -1   466632.27 1442.08   1-0.65908 0.53588 0.74994-0.81395 0.05651 0.22429
   2   1  -461824.32 1323.66   1-0.63132 0.75468 0.72011-0.65604-0.28785 0.00697
  -2  -1   315357.48  368.79   1-0.87881 0.73824 0.35706-0.42103-0.31652 0.52699
  -2   1   313963.60  314.25   1-0.72291 0.58220 0.50288-0.43890-0.47381 0.68439
   2  -1  -315209.13  320.48   1-0.41787 0.55877 0.64676-0.71082-0.63803 0.42720
   2  -1  -315168.50  392.46   1 0.74383-0.60282 0.65425-0.71828 0.13660-0.34736
  -2   1   314482.25  373.69   1 0.67413-0.81513 0.59976-0.53576 0.43107-0.22027
   2   1  -314976.92  456.49   1 0.66292-0.52192 0.59040-0.52639 0.46038-0.67118
  -2  -1   315098.83  426.21   1 0.54670-0.68771 0.49208-0.55611 0.67746-0.46667
  -2  -1   315957.12  424.85   1-0.65917 0.51827 0.75027-0.81428-0.05079 0.26140
   2   1  -313026.80  362.91   1-0.61474 0.75577 0.70154-0.63747-0.36044 0.14978
   2  -1  -315655.66  400.52   1-0.49199 0.63314 0.56365-0.62770-0.66349 0.45289
  -2  -1   2196250.7 1682.10   1-0.75022 0.59199 0.48245-0.54642-0.45210 0.59242
   2  -1  -2190304.2 1577.57   1-0.18407 0.34280 0.69217-0.75625-0.69786 0.55728
   2  -1  -2200364.6 1642.35   1 0.70453-0.54563 0.62417-0.68817 0.33769-0.47822
  -2   1   2186720.7 1514.38   1 0.59393-0.75274 0.53212-0.46812 0.60338-0.46285
  -2  -1   2191047.0 1625.91   1 0.41924-0.57798 0.38301-0.44703 0.82312-0.68271
  -2  -1   2198688.2 1654.88   1-0.64353 0.48485 0.73373-0.79780-0.21791 0.35835
   2   1  -2190578.7 1557.25   1-0.56336 0.72208 0.64414-0.58009-0.51740 0.37693
  -2   1   2196730.1 1727.53   1-0.49926 0.34049 0.57190-0.50785-0.65089 0.79129
   2  -1  -2183115.9 1565.26   1-0.38447 0.54324 0.44144-0.50549-0.81074 0.67034
   2   1  -1896491.6 6438.19   1-0.38370 0.55998 0.65623-0.59217-0.64970 0.57943
  -2   1   1924529.6 6619.01   1-0.14162-0.03473 0.69583-0.63175-0.70409 0.77439
  -2   1   1864273.3 6065.81   1 0.35324-0.52971 0.32573-0.26172 0.87699-0.80678
   2   1   0960968.2 6888.69   1-0.12267 0.31666 0.69704-0.63296-0.70645 0.70645
  -2   1   0983346.118055.30   1 0.12042-0.31452 0.69075-0.62666-0.71299 0.71299
  -2   1   0981621.0 6867.00   1-0.15998-0.03379-0.15927 0.22320-0.97418 0.97418
  -2  -1   0999998.218371.45   1-0.07831-0.11547-0.08828 0.02434-0.99301 0.99301
   2   1   0937263.7 6707.68   1 0.08891 0.10491 0.05622 0.00773-0.99445 0.99445
   2  -1   0992229.118142.59   1 0.14159 0.05254 0.10291-0.16696-0.98456 0.98456
   2  -1   0997119.118271.58   1 0.07622 0.11657-0.09291 0.02921 0.99275-0.99275
   2   1   122455.15  454.94   1 0.15554 0.05626 0.68629-0.62221-0.71049 0.78082
  -2   1  -122978.62  537.69   1 0.30095-0.51279 0.65817-0.59407-0.69009 0.61977
   2  -1   123370.56  513.99   1 0.51282-0.30123 0.58500-0.64910-0.62830 0.69851
  -2  -1  -123423.95  519.99   1 0.16164-0.37335 0.12052-0.18457-0.97946 0.90914
  -2   1  -123631.22  375.69   1 0.24722-0.45893 0.19579-0.13174-0.94896 0.87864
   2  -1   123878.72  352.77   1 0.50528-0.29358 0.42596-0.49002-0.75049 0.82078
   2  -1   124907.97  873.31   1-0.14735 0.35881 0.16083-0.22477 0.97591-0.90593
   2   1   123499.86  318.07   1-0.26602 0.47748 0.29549-0.23155 0.91755-0.84757
  -2   1  -123308.38  387.57   1-0.31338 0.10186 0.35043-0.28646 0.88260-0.95266
  -2  -1  -122986.22  303.73   1-0.51243 0.30091 0.57771-0.64170 0.63533-0.70545
  -2  -1  -280885.09  977.95   1 0.07720-0.30672 0.69502-0.75911-0.71482 0.57416
   2   1   277793.59  889.11   1 0.39938-0.16983 0.62945-0.56534-0.66654 0.80718
   2  -1   278018.14  914.38   1 0.65225-0.42286 0.51044-0.57454-0.56036 0.70077
  -2  -1  -281662.94  949.49   1 0.31937-0.54866 0.25991-0.32396-0.91128 0.77072
  -2   1  -279361.39  828.94   1 0.43870-0.66798 0.36568-0.30163-0.82086 0.68030
   2   1   278388.00  877.89   1 0.50655-0.27726 0.42710-0.36304-0.74899 0.88956
   2  -1   278036.27  791.74   1 0.64475-0.41535 0.55264-0.61674-0.52808 0.66865
   2   1   278861.40  778.73   1-0.43331 0.66254 0.48778-0.42379 0.75782-0.61760
  -2   1  -276576.63  829.91   1-0.46131 0.23207 0.51960-0.45561 0.71916-0.85939
  -2  -1  -278289.43  777.94   1-0.60548 0.37628 0.68531-0.74930 0.40463-0.54493
  -2  -1  -3155316.2 3038.44   1 0.20423-0.45146 0.67862-0.74271-0.70551 0.49453
   2   1   3149841.4 2894.35   1 0.58679-0.33961 0.54865-0.48455-0.59552 0.80614
  -2  -1  -3158527.0 3095.90   1 0.41140-0.65826 0.34142-0.40547-0.84508 0.63424
  -2   1  -3157512.3 3032.18   1 0.51884-0.76572 0.43809-0.37403-0.73407 0.52322
   2  -1   3151671.0 2919.32   1 0.70121-0.45414 0.60453-0.66863-0.37794 0.58879
   2   1   3157507.5 3018.50   1-0.49295 0.73989 0.55556-0.49157 0.66958-0.45924
  -2  -1  -3154728.2 2964.81   1-0.63699 0.39006 0.72302-0.78702 0.26734-0.47796
  -2  -1  -4145153.9 3729.42   1 0.28595-0.55091 0.66184-0.72595-0.69295 0.41168
  -2   1  -4132971.2 3458.14   1 0.51642-0.78140 0.58338-0.51929-0.62686 0.34604
  -2  -1  -4148199.8 3812.03   1 0.46357-0.72802 0.38781-0.45185-0.79668 0.51555
  -2   1  -4144423.6 3677.31   1 0.55446-0.81893 0.47002-0.40596-0.68676 0.40561
   2  -1   4133300.6 3424.30   1-0.41929 0.68410 0.47081-0.53479 0.77622-0.49598
   2   1   4144358.2 3661.29   1-0.51683 0.78149 0.58270-0.51871 0.62716-0.34671
  -2  -1  -512235.07  615.04   1 0.33492-0.61759 0.64919-0.71329-0.68291 0.33132
  -2   1  -512931.71  802.22   1 0.53341-0.81618 0.57554-0.51144-0.61985 0.26882
  -2  -1  -512063.22  595.75   1 0.49232-0.77439 0.41438-0.47844-0.76544 0.41401
  -2   1  -513782.39  611.37   1 0.56997-0.85204 0.48396-0.41990-0.66401 0.31258
   2  -1   511825.64  501.51   1-0.44394 0.72631 0.49986-0.56386 0.74367-0.39310
   2   1   512799.27  528.58   1-0.52571 0.80808 0.59280-0.52881 0.61008-0.25951
  -2  -1  -621763.65  855.29   1 0.36042-0.66080 0.64181-0.70592-0.67687 0.25497
  -2   1  -620874.87  927.00   1 0.53680-0.83736 0.57394-0.50984-0.61841 0.19718
  -2  -1  -620906.84  846.01   1 0.50752-0.80718 0.42797-0.49203-0.74783 0.32612
  -2   1  -621254.45  881.73   1 0.57488-0.87454 0.48837-0.42431-0.65650 0.23478
   2  -1   620791.41  803.26   1-0.45652 0.75660 0.51416-0.57816 0.72609-0.30541
   2   1   620554.51  758.51   1-0.52691 0.82700 0.59417-0.53017 0.60771-0.18703
  -2  -1  -782206.53 2165.67   1 0.36894-0.68703 0.63922-0.70333-0.67473 0.18251
  -2   1  -781037.89 2223.95   1 0.53019-0.84854 0.57705-0.51296-0.62120 0.12977
  -2  -1  -781490.49 2180.37   1 0.51382-0.83108 0.43361-0.49766-0.74024 0.24824
  -2   1  -783313.60 2181.80   1 0.57340-0.89065 0.48704-0.42298-0.65878 0.16678
   2  -1   779166.59 2054.84   1-0.46142 0.77921 0.51973-0.58373 0.71899-0.22820
   2   1   782827.25 2120.86   1-0.52348 0.84127 0.59026-0.52627 0.61445-0.12365
  -2  -1  -8 6707.90  560.54   1 0.36467-0.70046 0.64053-0.70463-0.67581 0.11327
  -2   1  -8 6926.21  527.99   1 0.51574-0.85189 0.58369-0.51960-0.62713 0.06549
  -2  -1  -8 9166.56  671.90   1 0.51401-0.84886 0.43377-0.49783-0.74001 0.17773
  -2   1  -8 8982.20  671.85   1 0.56758-0.90243 0.48181-0.41775-0.66760 0.10532
   2  -1   8 8122.96  505.88   1-0.46108 0.79659 0.51935-0.58334 0.71949-0.15858
   2   1   8 7739.63  551.68   1-0.51685 0.85236 0.58273-0.51874 0.62711-0.06620
  -2  -1  -9 1946.98  576.32   1 0.35023-0.70373 0.64482-0.70893-0.67935 0.04649
  -2   1  -9  213.79  384.61   1 0.49478-0.84872 0.59291-0.52882-0.63532 0.00347
  -2  -1  -9 1351.27  481.52   1 0.50970-0.86214 0.42991-0.49397-0.74523 0.11266
  -2   1  -9 1455.31  434.38   1 0.55853-0.91097 0.47367-0.40961-0.68093 0.04836
   2  -1   9 1315.61  414.75   1-0.45690 0.81012 0.51459-0.57859 0.72555-0.09453
   2   1   9  684.09  271.11   1-0.50778 0.86100 0.57242-0.50843 0.64379-0.01277
  -2  -1 -1023409.10 1486.26   1 0.32724-0.69845 0.65130-0.71541-0.68462-0.01855
  -2   1 -1025395.42 1692.77   1 0.46806-0.83979 0.60399-0.53990-0.64506-0.05699
  -2   1 -1023136.27 1555.31   1 0.54684-0.91687 0.46318-0.39912-0.69743-0.00541
   2  -1  1023582.51 1535.31   1-0.44970 0.82063 0.50641-0.57040 0.73573-0.03460
   2   1  1022446.01 1450.12   1-0.49667 0.86760 0.55980-0.49580 0.66327 0.03786
  -2   1 -11 3963.20  561.14   1 0.43629-0.82520 0.61646-0.55236-0.65545-0.11804
  -2  -1 -11 4233.05  556.66   1 0.49107-0.87870 0.41326-0.47732-0.76684-0.00629
  -2   1 -11 4633.75  606.57   1 0.53286-0.92049 0.45065-0.38659-0.71621-0.05692
   2  -1  11 3565.08  442.96   1-0.43998 0.82862 0.49536-0.55936 0.74901 0.02223
   2   1  11 5123.65  525.26   1-0.48374 0.87238 0.54510-0.48110 0.68473 0.08651
   2   2 -13  352.24  454.57   1 0.80685-0.84513 0.38848-0.26033-0.44505-0.46686
  -2  -2  13  379.82  284.67   1-0.54357 0.58001 0.61309-0.74108 0.57327 0.33820
  -2   2  13  614.53  517.68   1-0.60876 0.64500 0.68905-0.56109 0.39319 0.51879
   2   2 -12 6306.25  789.88   1 0.84886-0.87397 0.34215-0.21432-0.40292-0.43615
   2   2 -12 9242.18 1140.84   1 0.70719-0.72586 0.61196-0.48376-0.35407-0.48896
  -2   2  12 7479.98  908.58   1-0.62245 0.64033 0.70636-0.57837 0.33704 0.50542
   2   2 -11 1584.58  541.98   1 0.88795-0.89485 0.29303-0.16520-0.35449-0.41465
   2  -2 -11 2416.11  731.00   1 0.66074-0.66111 0.56724-0.69545-0.49158-0.28155
   2   2 -11 3460.93  986.73   1 0.72216-0.72309 0.62612-0.49792-0.29403-0.47875
  -2  -2  11 2465.90  649.38   1-0.57183 0.57267 0.64700-0.77497 0.50436 0.26731
  -2   2  11 1767.13  499.38   1-0.63511 0.63533 0.72086-0.59287 0.27745 0.49481
   2  -2 -1019234.08  916.26   1 0.84064-0.82933 0.35146-0.47929-0.41205-0.28717
   2   2 -1018295.69 1071.14   1 0.92226-0.91096 0.24069-0.11286-0.30248-0.39675
   2  -2 -1018505.60 1050.34   1 0.67609-0.65879 0.58131-0.70952-0.45272-0.25012
   2   2 -1019906.95 1193.42   1 0.73485-0.71804 0.63836-0.51016-0.22909-0.47343
  -2  -2  1017667.91  931.30   1-0.58473 0.56788 0.66169-0.78966 0.46929 0.23223
  -2   2  1017180.34  966.03   1-0.64579 0.62836 0.73313-0.60514 0.21322 0.48883
   2  -2  -938844.99 1365.19   1 0.89574-0.86624 0.28205-0.40988-0.34362-0.28568
   2   2  -943965.98 1631.58   1 0.95148-0.92197 0.18451-0.05668-0.24623-0.38307
   2  -2  -946059.59 1740.86   1 0.69028-0.65530 0.59439-0.72261-0.41254-0.22001
   2   2  -943226.95 1785.53   1 0.74481-0.71026 0.64831-0.52011-0.15793-0.47434
  -2  -2   944822.02 1661.44   1-0.59659 0.56204 0.67519-0.80316 0.43380 0.19757
  -2   2   941979.64 1625.30   1-0.65412 0.61903 0.74272-0.61473 0.14309 0.48876
  -2  -2   8 2451.74  303.41   1-0.97659 0.92401-0.11879-0.00919 0.17929 0.38225
   2  -2  -8 2458.77  293.33   1 0.94436-0.89664 0.19962-0.32745-0.26140-0.29798
   2  -2  -8 2685.12  395.36   1 0.70336-0.65071 0.60653-0.73474-0.37065-0.19161
   2   2  -8 3063.51  554.99   1 0.75035-0.69817 0.65631-0.52824-0.07882-0.48321
  -2  -2   8 2296.93  305.04   1-0.60744 0.55519 0.68754-0.81551 0.39785 0.16336
  -2   2   8 3272.95  505.63   1-0.65872 0.60633 0.74951-0.62149 0.06553 0.49608
  -2  -2   7 8758.66  524.93   1-0.99234 0.92211-0.05225-0.07573 0.11191 0.37944
  -2   2   7 8350.95  455.49   1-0.98459 0.91435-0.08982 0.21780 0.15002 0.34132
   2  -2  -7 6961.74  320.22   1-0.68389 0.75398 0.52884-0.65679-0.50260 0.01126
   2  -2  -7 7486.81  611.40   1 0.71430-0.64428 0.61865-0.74685-0.32715-0.16462
   2   2  -7 9143.72  762.42   1 0.75188-0.68194 0.65920-0.53113 0.01105-0.50284
  -2  -2   7 8174.25  580.36   1-0.61732 0.54738 0.69880-0.82676 0.36136 0.12970
  -2   2   7 7584.33  695.80   1-0.65989 0.58979 0.75102-0.62300-0.02239 0.51381
  -2  -2   6 6425.37  445.05   1-0.99907 0.91272 0.01712-0.14507 0.03935 0.38195
  -2   2   6 6745.98  289.52   1-0.99920 0.91284 0.03152 0.09642 0.02455 0.39675
   2  -2  -6 5799.88  263.68   1-0.62569 0.71344 0.56253-0.69048-0.54041 0.11926
   2  -2  -6 6449.11  510.26   1 0.72526-0.63750 0.62908-0.75728-0.27972-0.14179
   2   2  -6 7564.97  772.77   1 0.74606-0.65835 0.65584-0.52777 0.11514-0.53668
  -2  -2   6 6669.76  382.45   1-0.62541 0.53736 0.70975-0.83774 0.32419 0.09703
  -2   2   6 7657.53  515.60   1-0.65487 0.56707 0.74551-0.61749-0.12387 0.54509
  -2   2   5103659.4 2713.77   1-0.96975 0.86530 0.19611-0.06810-0.14529 0.49659
   2  -2  -597410.84 2462.75   1-0.52343 0.62896 0.61028-0.73840-0.59462 0.24324
   2  -2  -598735.30 2626.64   1 0.73517-0.62968 0.63867-0.76687-0.22716-0.12409
   2   2  -5104454.8 2788.68   1 0.72786-0.62225 0.64300-0.51500 0.23823-0.58954
  -2  -2   5100792.8 2644.69   1-0.63342 0.52772 0.71894-0.84693 0.28616 0.06486
  -2   2   5101693.6 2749.11   1-0.63943 0.53372 0.72916-0.60102-0.24380 0.59490
  -2  -2   425310.05  669.43   1-0.97162 0.84928 0.19081-0.31882-0.13975 0.42079
  -2   2   423207.08  689.63   1-0.84889 0.72598 0.39228-0.26435-0.35424 0.63487
   2  -2  -422938.11  544.94   1-0.36128 0.48450 0.66189-0.79001-0.65679 0.37568
   2  -2  -422639.00  653.97   1 0.74390-0.62066 0.64737-0.77557-0.16588-0.11513
  -2   2   421469.61  595.17   1 0.73059-0.85396 0.64516-0.51715 0.22361 0.05743
   2   2  -422112.86  739.38   1 0.69030-0.56693 0.61245-0.48445 0.38520-0.66625
  -2  -2   423363.38  660.96   1-0.64059 0.51724 0.72716-0.85515 0.24670 0.03412
   2   2  -422652.72  611.01   1-0.65304 0.77624 0.74347-0.61545-0.14417-0.13663
  -2  -2   341635.57  633.43   1-0.92406 0.78383 0.29217-0.42018-0.24644 0.45722
  -2   2   342044.30  544.75   1-0.59551 0.45481 0.57797-0.45002-0.55794 0.76852
   2  -2  -341099.54  527.01   1-0.13478 0.27589 0.69630-0.82446-0.70497 0.49410
   2  -2  -340375.25  591.36   1 0.74984-0.60883 0.65570-0.78377-0.08822-0.12254
  -2   2   339423.21  574.03   1 0.71760-0.85873 0.63480-0.50679 0.28649-0.07570
   2   2  -338760.96  716.98   1 0.61856-0.47757 0.55303-0.42503 0.55814-0.76894
  -2  -2   338121.00  607.35   1 0.47361-0.61462 0.42925-0.55730 0.76904-0.55825
  -2  -2   340699.31  594.18   1-0.64700 0.50599 0.73452-0.86251 0.20459 0.00601
   2   2  -339089.79  565.28   1-0.64919 0.79021 0.73999-0.61184-0.17597-0.03468
   2  -2  -340083.96  636.02   1-0.42110 0.56225 0.48311-0.61121-0.76764 0.55703
  -2   2   285740.10  890.29   1-0.24842 0.08969 0.68406-0.55590-0.68580 0.82639
   2  -2  -285781.38  866.37   1 0.11940 0.03928 0.69086-0.81903-0.71305 0.57239
   2  -2  -284650.39  819.38   1 0.75143-0.59265 0.65912-0.78719 0.03002-0.17053
  -2   2   283758.60  809.56   1 0.67325-0.83206 0.59903-0.47102 0.43346-0.29292
   2   2  -281696.47  973.16   1 0.49361-0.33482 0.44648-0.31842 0.74631-0.88684
  -2  -2   276889.43  842.97   1 0.33892-0.49766 0.31327-0.44130 0.88712-0.74671
   2   2  -284871.49  822.57   1-0.63385 0.79254 0.72295-0.59481-0.27488 0.13444
  -2   2   284470.96 1003.53   1-0.44092 0.28215 0.50564-0.37754-0.74155 0.88195
   2   2  -1586207.7 4349.43   1-0.52914 0.70542 0.60796-0.47984-0.59192 0.52165
   2  -2  -1590087.5 4335.99   1 0.34702-0.17060 0.64575-0.77397-0.68012 0.60980
   2  -2  -1604004.9 4262.16   1 0.71991-0.54324 0.63666-0.76466 0.27639-0.34665
  -2   2   1603915.4 4259.19   1 0.46738-0.64397 0.42387-0.29581 0.77580-0.70554
  -2  -2   1600570.1 4219.28   1-0.65771 0.48142 0.74832-0.87634 0.08611-0.01590
   2   2  -1606698.4 4263.85   1-0.52771 0.70408 0.60381-0.47572-0.59743 0.52720
   2   2   0203762.2 1729.66   1-0.30601 0.50001 0.67410-0.54594-0.67225 0.67225
  -2   2   0209588.2 1821.83   1 0.29607-0.49021 0.65938-0.53117-0.69104 0.69104
  -2  -2   0219072.8 1882.65   1-0.07990-0.11387-0.08967-0.03820-0.99276 0.99276
   2  -2   0213754.7 1547.55   1 0.29891-0.10479 0.24183-0.36993-0.92313 0.92313
   2  -2   0213491.0 1786.30   1 0.07672 0.11607-0.09347-0.03390 0.99266-0.99266
  -2  -2  -119442.43  450.28   1-0.33977 0.12812 0.66690-0.79502-0.66316 0.59289
   2   2   118894.61  416.59   1-0.03025 0.24206 0.69994-0.57177-0.71355 0.78388
  -2   2  -118817.37  622.16   1 0.43478-0.64662 0.61702-0.48880-0.65593 0.58561
   2  -2   118557.17  460.42   1 0.65174-0.44014 0.51077-0.63896-0.56066 0.63086
  -2  -2  -118638.18  410.31   1 0.12129-0.33264 0.08455-0.21248-0.98900 0.91880
  -2   2  -119660.88  287.72   1 0.29509-0.50680 0.23800-0.10989-0.92534 0.85502
   2  -2   119739.47  287.19   1 0.66257-0.45085 0.56891-0.69712-0.48715 0.55744
   2  -2   120194.89  553.41   1-0.10345 0.31466 0.11149-0.23913 0.98836-0.91858
  -2   2  -119324.66 1265.43   1-0.27384 0.06238 0.30436-0.17648 0.91234-0.98232
   2   2   119399.60  245.32   1-0.37029 0.58180 0.41512-0.28718 0.83099-0.76093
  -2  -2  -120221.94  263.91   1-0.65378 0.44215 0.74233-0.87032 0.14665-0.21686
  -2  -2  -296933.69 1052.61   1-0.15118-0.07807 0.69512-0.82328-0.70281 0.56222
   2   2   291995.21  981.97   1 0.24773-0.01818 0.67038-0.54217-0.69943 0.84007
  -2  -2  -298354.79 1244.32   1 0.26521-0.49448 0.21164-0.33975-0.94067 0.80003
  -2   2  -296407.52  889.70   1 0.50472-0.73401 0.42546-0.29735-0.75114 0.61057
   2  -2   295554.25  885.98   1 0.72242-0.49276 0.62636-0.75456-0.29286 0.43337
   2  -2   297075.39 1113.16   1-0.23429 0.46350 0.25949-0.38737 0.93689-0.79693
   2   2   297262.29  875.29   1-0.51611 0.74535 0.58189-0.45390 0.62850-0.48827
  -2  -2  -298508.90  901.43   1-0.65822 0.42882 0.74891-0.87693 0.07659-0.21700
  -2  -2  -398785.63 2025.49   1 0.00055-0.24778 0.69936-0.82753-0.71476 0.50378
   2   2   388455.86 1779.87   1 0.48169-0.23451 0.59843-0.47024-0.64018 0.85080
  -2  -2  -3100740.9 2065.37   1 0.35779-0.60465 0.29389-0.42199-0.88634 0.67550
  -2   2  -393190.52 1855.91   1 0.57083-0.81771 0.48473-0.35661-0.66270 0.45185
   2  -2   392925.67 1840.21   1 0.74106-0.49366 0.64450-0.77270-0.18827 0.39903
   2  -2   3101497.2 2058.71   1-0.31774 0.56478 0.35539-0.48334 0.87905-0.66887
   2   2   393845.97 1841.62   1-0.55046 0.79736 0.62267-0.49470 0.55611-0.34565
  -2  -2  -396876.94 1916.82   1-0.65983 0.41274 0.75086-0.87888 0.02857-0.23918
  -2  -2  -413508.41  549.71   1 0.11012-0.37506 0.69189-0.82006-0.71355 0.43223
  -2   2  -413954.04  720.12   1 0.58537-0.85034 0.54941-0.42122-0.59622 0.31540
   2   2   413167.10  491.80   1 0.65754-0.39257 0.50707-0.37888-0.55723 0.83805
  -2  -2  -415279.12  656.26   1 0.41521-0.67966 0.34481-0.47291-0.84184 0.56072
  -2   2  -413556.54  571.76   1 0.59544-0.85991 0.50689-0.37877-0.62330 0.34215
   2  -2   416342.17  610.39   1-0.36912 0.63393 0.41380-0.54175 0.83217-0.55193
   2   2   413688.13  483.94   1-0.56019 0.82478 0.63374-0.50578 0.53343-0.25282
  -2  -2  -414438.77  529.33   1-0.65999 0.39519 0.75112-0.87914-0.01451-0.26629
  -2  -2  -512108.06  641.60   1 0.18228-0.46493 0.68229-0.81046-0.70798 0.35633
  -2   2  -512954.99  702.86   1 0.59372-0.87649 0.54489-0.41670-0.59209 0.24107
  -2  -2  -512563.90  629.59   1 0.44989-0.73192 0.37563-0.50373-0.81024 0.45884
  -2   2  -512289.27  560.16   1 0.60360-0.88567 0.51426-0.38614-0.60925 0.25782
   2  -2   511532.64  490.57   1-0.39997 0.68254 0.44886-0.57681 0.79908-0.44878
   2   2   512294.91  495.82   1-0.56072 0.84301 0.63435-0.50638 0.53214-0.18138
  -2  -2  -6 2000.08  382.27   1 0.22510-0.52548 0.67491-0.80312-0.70272 0.28081
  -2   2  -6 2219.76  636.79   1 0.59149-0.89205 0.54610-0.41791-0.59320 0.17197
  -2  -2  -6 1248.55  449.72   1 0.46992-0.76954 0.39346-0.52156-0.79016 0.36848
  -2   2  -6 1057.79  280.15   1 0.60351-0.90317 0.51418-0.38606-0.60941 0.18770
   2  -2   6 1039.46  227.61   1-0.41772 0.71805 0.46903-0.59697 0.77815-0.35779
   2   2   6 1002.61  226.37   1-0.55656 0.85654 0.62961-0.50165 0.54205-0.12113
  -2  -2  -734119.32 1181.71   1 0.24657-0.56466 0.67062-0.79884-0.69961 0.20738
  -2   2  -732786.09 1250.86   1 0.58126-0.89962 0.55160-0.42341-0.59821 0.10677
  -2  -2  -733738.14 1303.46   1 0.48015-0.79736 0.40258-0.53068-0.77933 0.28737
  -2   2  -736423.14 1307.47   1 0.59846-0.91571 0.50962-0.38150-0.61816 0.12616
   2  -2   735922.65 1286.21   1-0.42675 0.74485 0.47929-0.60724 0.76691-0.27649
   2   2   734656.60 1163.13   1-0.54943 0.86711 0.62149-0.49353 0.55844-0.06737
  -2  -2  -8 7022.84  591.81   1 0.25151-0.58730 0.66959-0.79780-0.69884 0.13630
  -2   2  -8 6880.39  748.88   1 0.56459-0.90074 0.56026-0.43207-0.60608 0.04443
  -2  -2  -8 8767.84  740.20   1 0.48309-0.81794 0.40614-0.53426-0.77567 0.21338
  -2   2  -8 5205.12  622.35   1 0.58998-0.92483 0.50197-0.37385-0.63240 0.07012
   2  -2   8 7177.64  602.49   1-0.42956 0.76507 0.48353-0.61151 0.76267-0.20176
   2   2   8 7130.76  555.75   1-0.54060 0.87611 0.60972-0.48174 0.57963-0.01872
  -2  -2  -9 8080.32  570.24   1 0.24339-0.59689 0.67128-0.79949-0.70009 0.06723
  -2   2  -910049.30  778.93   1 0.54240-0.89634 0.57125-0.44306-0.61600-0.01584
  -2  -2  -9 9244.63  655.29   1 0.48134-0.83378 0.40458-0.53270-0.77757 0.14500
  -2   2  -910018.50  649.52   1 0.57885-0.93129 0.49195-0.36383-0.65031 0.01774
   2  -2   911522.19  712.29   1-0.42802 0.78123 0.48177-0.60976 0.76465-0.13362
   2   2   911001.09  626.33   1-0.52947 0.88269 0.59707-0.46909 0.60262 0.02839
  -2  -2 -10  942.76  371.90   1 0.22443-0.59563 0.67503-0.80325-0.70281-0.00036
  -2   2 -10 2023.70  649.08   1 0.51524-0.88697 0.58392-0.45573-0.62734-0.07471
  -2  -2 -10  340.47  305.67   1 0.47603-0.84599 0.39891-0.52701-0.78374 0.08093
  -2   2 -10  697.05  404.64   1 0.56548-0.93552 0.47992-0.35180-0.67074-0.03211
   2  -2  10  289.44  346.68   1-0.42311 0.79450 0.47516-0.60311 0.77148-0.07089
   2   2  10  536.43  257.43   1-0.51671 0.88764 0.58257-0.45458 0.62738 0.07374
  -2   2 -11 3829.91  570.52   1 0.48334-0.87287 0.59775-0.46956-0.63958-0.13267
  -2  -2 -11 5703.15  624.86   1 0.46701-0.85455 0.39087-0.51897-0.79316 0.02008
  -2   2 -11 4605.64  602.68   1 0.55009-0.93772 0.46610-0.33798-0.69292-0.08022
   2  -2  11 4450.98  522.57   1-0.41518 0.80432 0.46614-0.59409 0.78123-0.01059
   2   2  11 4349.02  511.48   1-0.50240 0.89104 0.56631-0.43832 0.65335 0.11789
   2   3 -12  532.96  344.64   1 0.85843-0.88354 0.33092-0.13917-0.39188-0.44719
   2  -3 -12 1157.00  388.16   1 0.62020-0.63824 0.53031-0.72263-0.57802-0.26539
   2   3 -12 1978.12  529.16   1 0.71659-0.73526 0.62082-0.42852-0.31791-0.52512
  -2  -3  12 2218.48  378.11   1-0.53457 0.55330 0.60287-0.79485 0.59225 0.24910
  -2   3  12 2186.39  382.20   1-0.63202 0.64989 0.71732-0.52533 0.29324 0.54922
   2   3 -11 7527.98  828.87   1 0.89428-0.90119 0.28414-0.09240-0.34569-0.42345
   2  -3 -11 4506.70  549.49   1 0.63616-0.63653 0.54482-0.73713-0.54631-0.22681
   2   3 -11 5937.64  689.05   1 0.73051-0.73144 0.63414-0.44184-0.25340-0.51938
  -2  -3  11 4475.28  551.24   1-0.54686 0.54771 0.61857-0.81052 0.56417 0.20750
  -2   3  11 5873.26  688.23   1-0.64351 0.64373 0.73051-0.53852 0.22857 0.54368
   2   3 -10  659.73  373.37   1 0.92566-0.91436 0.23483-0.04308-0.29663-0.40259
   2  -3 -10 1102.31  389.57   1 0.65082-0.63351 0.55817-0.75049-0.51465-0.18819
   2   3 -10 2137.08  811.38   1 0.74170-0.72489 0.64514-0.45285-0.18345-0.51908
  -2  -3  10  930.90  378.29   1-0.55879 0.54194 0.63215-0.82410 0.53677 0.16475
  -2   3  10 1437.90  449.06   1-0.65256 0.63513 0.74093-0.54894 0.15868 0.54338
   2  -3  -915002.59  602.14   1 0.84039-0.81088 0.35174-0.54348-0.41232-0.21698
   2  -3  -915872.28  861.42   1 0.66420-0.62922 0.57041-0.76272-0.48317-0.14938
   2   3  -914693.20  846.23   1 0.74863-0.71422 0.65433-0.46222-0.10673-0.52557
  -2  -3   917652.00  892.81   1-0.56944 0.53489 0.64428-0.83623 0.51052 0.12084
  -2   3   915511.10  946.19   1-0.65792 0.62322 0.74856-0.55653 0.08240 0.54942
  -2  -3   835958.90 1096.62   1-0.97549 0.92290-0.12234-0.06963 0.18287 0.37867
   2  -3  -829188.16  767.62   1-0.57187 0.62430 0.58919-0.78112-0.57079 0.00926
   2  -3  -836919.44  994.83   1 0.90573-0.85801 0.26728-0.45902-0.32895-0.23043
   2  -3  -836960.14 1242.16   1 0.67634-0.62369 0.58154-0.77386-0.45206-0.11021
   2   3  -835298.25 1261.27   1 0.75203-0.69985 0.65878-0.46667-0.02129-0.54075
  -2  -3   834683.28 1090.45   1-0.57875 0.52650 0.65488-0.84683 0.48597 0.07524
  -2   3   834497.35 1246.57   1-0.66007 0.60767 0.75119-0.55916-0.00234 0.56397
  -2   3   7 9761.95  362.95   1-0.96726 0.89703-0.14651 0.33849 0.20718 0.28416
  -2  -3   712737.91 1327.68   1-0.99053 0.92030-0.06240-0.12957 0.12223 0.36912
   2  -3  -7 8276.13  348.06   1-0.50793 0.57809 0.61637-0.80854-0.60174 0.10980
   2  -3  -7 8642.66  618.83   1 0.68722-0.61689 0.59157-0.78388-0.42161-0.07037
   2   3  -710242.70  689.17   1 0.74926-0.67932 0.65798-0.46588 0.07519-0.56698
  -2  -3   7 9908.56  601.23   1-0.58659 0.51665 0.66381-0.85576 0.46395 0.02711
  -2   3   7 8960.71  639.02   1-0.65682 0.58672 0.74769-0.55566-0.09763 0.58905
  -2   3   662106.87 1557.34   1-0.99819 0.91183-0.00296 0.19488 0.05996 0.36134
  -2  -3   667160.60 2024.87   1-0.99831 0.91195-0.00112-0.19079 0.05808 0.36322
   2  -3  -660509.95 1511.98   1-0.40016 0.48801 0.65180-0.84398-0.64421 0.22256
   2  -3  -663962.58 1773.54   1 0.69681-0.60881 0.60044-0.79276-0.39230-0.02940
   2   3  -663929.50 1838.52   1 0.73683-0.64899 0.65001-0.45800 0.18591-0.60748
  -2  -3   668021.30 1835.06   1-0.59270 0.50506 0.67076-0.86271 0.44583-0.02491
  -2   3   665159.67 1866.38   1-0.64517 0.55712 0.73554-0.54333-0.20669 0.62801
  -2  -3   539947.60 1176.53   1-0.99746 0.89314 0.06965-0.26157-0.01477 0.36587
  -2   3   539822.58 1059.88   1-0.96575 0.86130 0.20688-0.01487-0.15657 0.50786
   2  -3  -538442.89 1024.89   1-0.23105 0.33690 0.68656-0.87881-0.68937 0.33791
   2  -3  -535250.06 1091.16   1 0.70501-0.59933 0.60806-0.80038-0.36498 0.01355
   2   3  -540711.98 1366.88   1 0.71094-0.60533 0.62940-0.43739 0.31370-0.66501
  -2  -3   539251.20 1156.76   1-0.59652 0.49118 0.67511-0.86706 0.43403-0.08326
  -2   3   545229.67 1514.55   1-0.62183 0.51612 0.70949-0.51728-0.33156 0.68266
  -2  -3   438950.09  928.41   1-0.98449 0.86222 0.14720-0.33912-0.09535 0.37623
  -2   3   440981.93  918.79   1-0.78457 0.66165 0.45460-0.26270-0.42164 0.70227
   2  -3  -439467.05  832.44   1-0.00703 0.13030 0.69956-0.89182-0.71453 0.43321
   2  -3  -439467.02  934.62   1 0.71030-0.58707 0.61488-0.80718-0.34260 0.06158
  -2   3   437299.25  870.35   1 0.74635-0.86959 0.65605-0.46394 0.11204 0.16897
   2   3  -434965.74  968.31   1 0.66281-0.53963 0.59031-0.39830 0.46065-0.74171
  -2  -3   441767.91  964.92   1-0.59675 0.47373 0.67538-0.86733 0.43328-0.15267
   2   3  -438729.75  906.80   1-0.66004 0.78324 0.75117-0.55914-0.00898-0.27182
  -2   3   437652.36 1048.99   1-0.57962 0.45622 0.66250-0.47038-0.47446 0.75538
  -2  -3   352123.87 1285.54   1-0.95499 0.81476 0.23282-0.42483-0.18378 0.39456
  -2   3   352914.40 1079.86   1-0.43010 0.28919 0.64310-0.45092-0.63358 0.84441
   2  -3  -352021.69 1067.16   1 0.22846-0.08745 0.67426-0.86658-0.70226 0.49130
   2  -3  -353710.79 1141.28   1 0.71435-0.57338 0.61870-0.81100-0.32695 0.11619
  -2   3   350522.91 1066.30   1 0.74328-0.88429 0.65384-0.46174 0.14143 0.06933
   2   3  -354819.97 1269.57   1 0.58162-0.44063 0.52164-0.32964 0.62417-0.83497
  -2  -3   354034.42 1130.19   1-0.58990 0.44918 0.66758-0.85953 0.45424-0.24378
   2   3  -351778.64 1093.95   1-0.66007 0.80097 0.75118-0.55915 0.00334-0.21395
  -2   3   354102.49 1298.83   1-0.50948 0.36842 0.58316-0.39103-0.63272 0.84341
  -2  -3   2134143.5 1496.99   1-0.90285 0.74472 0.32505-0.51706-0.28140 0.42192
  -2   3   2130391.7 1201.21   1-0.04200-0.11668 0.69999-0.50773-0.71291 0.85357
   2  -3  -2129516.9 1158.80   1 0.42605-0.26733 0.62019-0.81251-0.65865 0.51802
   2  -3  -2129957.6 1124.66   1 0.71328-0.55457 0.61769-0.80999-0.33117 0.19066
  -2   3   2127304.6 1092.36   1 0.72833-0.88723 0.64338-0.45138 0.23574-0.09522
   2   3  -2134480.8 1410.41   1 0.45535-0.29655 0.41348-0.22139 0.78846-0.92899
  -2  -3   2128809.9 1089.47   1-0.56300 0.40458 0.63695-0.82890 0.52660-0.38630
   2   3  -2127642.7 1102.22   1-0.66004 0.81863 0.75117-0.55914-0.00929-0.13110
  -2   3   2129099.5 1382.86   1-0.40104 0.24227 0.46029-0.26814-0.79201 0.93241
   2   3  -1381922.9 2980.56   1-0.62380 0.79982 0.56354-0.37162-0.54155 0.47136
  -2   3   1380305.8 2948.65   1 0.24535-0.42177 0.67088-0.47856-0.69980 0.77011
  -2   3   1379773.1 2699.84   1 0.61627-0.79289 0.55110-0.35909 0.56257-0.49230
  -2   3   1347971.0 2730.26   1 0.08126-0.25628-0.09865 0.28972 0.99179-0.92215
   2   3  -1380757.3 2716.97   1-0.65482 0.83112 0.74546-0.55343-0.12443 0.05423
  -2  -3   066939.60  804.42   1-0.70347 0.50980 0.51619-0.70811-0.48854 0.48854
   2   3   066370.38  798.84   1-0.44149 0.63546 0.63957-0.44739-0.62930 0.62930
   2  -3   063218.65  762.95   1 0.68058-0.48704 0.49171-0.68392-0.54316 0.54316
   2   3   065249.53  880.43   1 0.11427 0.07956 0.07841 0.11347-0.99034 0.99034
   2  -3   069382.83  869.50   1 0.08691 0.10587-0.10510-0.08597 0.99065-0.99065
  -2  -3  -158617.36  725.42   1-0.55416 0.34283 0.59713-0.78906-0.57994 0.50974
   2   3   157039.79  729.05   1-0.19187 0.40349 0.69135-0.49911-0.69657 0.76686
  -2   3  -158730.47  904.48   1 0.52731-0.73890 0.57839-0.38611-0.62240 0.55220
  -2  -3  -160116.55  921.36   1 0.08126-0.29260 0.04952-0.24141-0.99546 0.92525
   2   3   154981.01  876.37   1 0.29558-0.08388 0.23843-0.04627-0.92508 0.99540
   2  -3   157473.03  491.73   1 0.73963-0.52744 0.65213-0.84414 0.16631-0.09605
   2  -3   161061.19  899.97   1-0.06430 0.27552 0.06699-0.25846 0.99567-0.92589
   2   3   158346.81  483.11   1-0.54277 0.75427 0.61391-0.42196 0.57316-0.50300
  -2  -3  -156862.39  489.84   1-0.48456 0.27292 0.55522-0.74737-0.67595 0.60575
  -2  -3  -2 4079.28  260.20   1-0.38986 0.16052 0.65460-0.84678-0.64768 0.50712
   2   3   2 3795.24  294.34   1 0.09526 0.13425 0.69340-0.50114-0.71422 0.85488
  -2   3  -2 4531.27  370.01   1 0.58644-0.81583 0.54883-0.35655-0.59570 0.45528
  -2  -3  -2 5475.11  603.53   1 0.21326-0.44253 0.16589-0.35806-0.96280 0.82216
  -2   3  -2 4671.50  200.78   1 0.57376-0.80305 0.48737-0.29519-0.65822 0.51765
   2  -3   2 4792.32  231.18   1 0.75000-0.52015 0.65843-0.85053 0.06291 0.07759
   2  -3   2 4844.88  626.54   1-0.18233 0.41154 0.20053-0.39235 0.96256-0.82260
   2   3   2 4041.56  164.60   1-0.59480 0.82400 0.67316-0.48121 0.43938-0.29908
  -2  -3  -2 4178.52  208.77   1-0.61862 0.38930 0.70589-0.89811-0.34498 0.20454
  -2  -3  -365894.10 1389.94   1-0.23434-0.01253 0.68610-0.87835-0.68871 0.47784
   2   3   362717.08 1318.74   1 0.36683-0.11958 0.63987-0.44755-0.67527 0.88622
  -2   3  -365816.10 1522.53   1 0.61849-0.86568 0.53092-0.33863-0.57929 0.36867
  -2  -3  -369600.16 1544.91   1 0.30531-0.55214 0.24702-0.43919-0.91965 0.70869
  -2   3  -365267.91 1340.32   1 0.61890-0.86598 0.52914-0.33682-0.58048 0.36963
   2  -3   364436.71 1317.09   1 0.75031-0.50269 0.65860-0.85070 0.05718 0.15358
   2  -3   368265.48 1506.77   1-0.26489 0.51186 0.29421-0.48603 0.91829-0.70835
   2   3   365680.70 1326.58   1-0.60023 0.84713 0.67934-0.48739 0.42214-0.21168
  -2  -3  -364047.62 1319.67   1-0.63772 0.39074 0.72727-0.91948-0.25371 0.04306
  -2  -3  -427357.76  864.62   1-0.10586-0.15864 0.69790-0.89015-0.70831 0.42715
   2   3   423264.55  730.38   1 0.58437-0.31940 0.54994-0.35766-0.59670 0.87753
  -2  -3  -426482.08  903.53   1 0.36590-0.63035 0.30108-0.49322-0.88060 0.59948
  -2   3  -424250.78  802.39   1 0.63148-0.89623 0.54056-0.34824-0.55589 0.27475
   2  -3   423338.99  726.15   1 0.74936-0.48398 0.65804-0.85015 0.07365 0.20736
   2  -3   425906.79  885.25   1-0.31949 0.58429 0.35738-0.54930 0.87760-0.59737
   2   3   424728.47  745.81   1-0.59732 0.86191 0.67602-0.48407 0.43149-0.15088
  -2  -3  -423681.59  744.15   1-0.64216 0.37752 0.73221-0.92442-0.22692-0.05395
  -2  -3  -516662.93  654.41   1-0.01266-0.26998 0.69969-0.89194-0.71433 0.36268
  -2   3  -518328.64  897.16   1 0.63625-0.91902 0.52036-0.32808-0.56955 0.21852
   2   3   514719.32  549.79   1 0.74168-0.45898 0.44650-0.25428-0.50053 0.85127
  -2  -3  -516642.08  698.76   1 0.40518-0.68721 0.33590-0.52805-0.85029 0.49888
  -2   3  -516541.96  681.26   1 0.63251-0.91493 0.54149-0.34918-0.55380 0.20238
   2  -3   518795.01  762.61   1-0.35502 0.63759 0.39777-0.58969 0.84600-0.49571
   2   3   515113.41  579.73   1-0.59096 0.87324 0.66878-0.47683 0.45110-0.10034
  -2  -3  -6 4042.23  413.54   1 0.05064-0.35100 0.69699-0.88924-0.71528 0.29331
  -2   3  -6 4408.21  691.91   1 0.63067-0.93124 0.52373-0.33144-0.57266 0.15143
  -2  -3  -6 2551.96  347.82   1 0.42957-0.72919 0.35756-0.54971-0.82922 0.40753
  -2   3  -6 3009.08  396.20   1 0.62780-0.92790 0.53721-0.34490-0.56325 0.14154
   2  -3   6 3018.11  306.29   1-0.37720 0.67753 0.42298-0.61489 0.82389-0.40354
   2   3   6 2984.45  290.45   1-0.58248 0.88246 0.65912-0.46717 0.47567-0.05475
  -2  -3  -7 6896.23  491.74   1 0.08823-0.40630 0.69406-0.88631-0.71448 0.22218
  -2   3  -7 7798.22  836.29   1 0.61843-0.93678 0.53096-0.33867-0.57932 0.08788
  -2  -3  -7 8530.01  654.95   1 0.44357-0.76077 0.37001-0.56216-0.81629 0.32432
  -2   3  -7 7557.01  554.97   1 0.61953-0.93730 0.52971-0.33739-0.57929 0.08730
   2  -3   7 9982.66  620.88   1-0.39005 0.70814 0.43758-0.62950 0.81016-0.31975
   2   3   7 9605.51  533.09   1-0.57238 0.89006 0.64763-0.45568 0.50293-0.01187
  -2  -3  -8 1252.19  273.28   1 0.10529-0.44106 0.69240-0.88465-0.71378 0.15116
  -2   3  -8 1859.64  631.34   1 0.60066-0.93681 0.54106-0.34877-0.58859 0.02695
  -2  -3  -8 2223.63  477.83   1 0.45008-0.78486 0.37580-0.56795-0.81006 0.24781
  -2   3  -8 2001.15  407.98   1 0.60936-0.94420 0.51946-0.32728-0.59902 0.03674
   2  -3   8  788.44  257.86   1-0.39618 0.73204 0.44456-0.63648 0.80336-0.24289
   2   3   8 1871.04  301.78   1-0.56087 0.89624 0.63452-0.44257 0.53178 0.02943
  -2  -3  -9 1031.33  362.13   1 0.10581-0.45930 0.69234-0.88459-0.71376 0.08080
  -2   3  -9 2168.94  736.65   1 0.57807-0.93201 0.55329-0.36100-0.59975-0.03209
  -2  -3  -9  393.71  314.98   1 0.45095-0.80332 0.37657-0.56872-0.80921 0.17668
  -2   3  -9 1432.34  430.61   1 0.59639-0.94883 0.50775-0.31558-0.62168-0.01088
   2  -3   9 1242.05  465.48   1-0.39728 0.75090 0.44580-0.63772 0.80213-0.17160
   2   3   9 1166.94  357.50   1-0.54803 0.90110 0.61990-0.42795 0.56158 0.06978
  -2   3 -10 3019.14  758.37   1 0.55101-0.92275 0.56706-0.37477-0.61222-0.08982
  -2  -3 -10 4663.43  728.94   1 0.44740-0.81735 0.37341-0.56556-0.81264 0.10983
  -2   3 -10 2869.25  668.18   1 0.58152-0.95156 0.49435-0.30217-0.64609-0.05675
   2  -3  10 3929.75  559.36   1-0.39442 0.76580 0.44255-0.63447 0.80533-0.10475
   2   3  10 2044.56  490.32   1-0.53437 0.90530 0.60264-0.41067 0.59266 0.10847
  -2   3 -11 1326.76  580.67   1 0.51968-0.90921 0.58191-0.38962-0.62554-0.14671
  -2  -3 -11  309.25  324.30   1 0.44021-0.82775 0.36702-0.55917-0.81945 0.04636
  -2   3 -11 2755.93  574.73   1 0.56485-0.95248 0.47936-0.28718-0.67167-0.10146
   2  -3  11 1107.10  418.76   1-0.38833 0.77747 0.43562-0.62754 0.81205-0.04140
   2   3  11  829.91  297.58   1-0.51888 0.90752 0.58504-0.39306 0.62328 0.14796
   2   4 -12  838.19  374.54   1 0.86356-0.88867 0.32470-0.06904-0.38576-0.45331
   2  -4 -12 1550.83  512.05   1 0.59365-0.61068 0.50528-0.76152-0.62629-0.21712
   2   4 -12  947.42  452.57   1 0.72396-0.74263 0.62784-0.37144-0.28580-0.55724
  -2  -4  12 2193.68  369.26   1-0.50710 0.52583 0.57164-0.82761 0.64503 0.19633
  -2   4  12 1307.06  410.91   1-0.63947 0.65735 0.72587-0.46989 0.25333 0.58914
   2   4 -11  602.52  351.52   1 0.89691-0.90381 0.28037-0.02471-0.34195-0.42720
   2  -4 -11 1545.94  468.70   1 0.60854-0.60797 0.51872-0.77496-0.60050-0.17264
   2   4 -11 1105.78  484.91   1 0.73676-0.73769 0.64024-0.38384-0.21739-0.55539
  -2  -4  11 2273.25  559.51   1-0.51902 0.52004 0.58520-0.84117 0.62301 0.14823
  -2   4  11 1848.97  613.22   1-0.64964 0.64987 0.73756-0.48158 0.18426 0.58800
   2   4 -1013290.86 1173.94   1 0.92609-0.91479 0.23408 0.02157-0.29588-0.40334
   2  -4 -1013750.01 1115.77   1 0.62083-0.60353 0.53089-0.78731-0.57681-0.12603
   2   4 -1013874.82 1180.46   1 0.74637-0.72957 0.64993-0.39353-0.14320-0.55933
  -2  -4  1011112.15  926.16   1-0.52937 0.51268 0.59696-0.85293 0.60282 0.09830
  -2   4  1013364.81 1140.48   1-0.65691 0.63948 0.74595-0.48997 0.10961 0.59244
   2   4  -9 2399.64  588.74   1 0.95100-0.92149 0.18557 0.07008-0.24729-0.38201
   2  -4  -9 2450.33  459.43   1 0.63253-0.59756 0.54151-0.79794-0.55376-0.07880
   2   4  -9 1247.22  465.97   1 0.75111-0.71670 0.65727-0.40113-0.06183-0.57046
  -2  -4   9 1534.48  332.95   1-0.53799 0.50358 0.60675-0.86272 0.58516 0.04586
  -2   4   9 1537.45  419.74   1-0.65984 0.62514 0.75087-0.49483 0.02822 0.60360
  -2  -4   8 8539.88  567.26   1-0.97288 0.92029-0.13043-0.12554 0.19101 0.37053
   2  -4  -8 6755.82  297.10   1 0.80528-0.75440 0.39002-0.64631-0.44654-0.11463
   2  -4  -8 6418.07  549.42   1 0.64248-0.58983 0.55057-0.80699-0.53299-0.02928
   2   4  -8 8262.59  800.57   1 0.75148-0.69930 0.65914-0.40300 0.02834-0.59038
  -2  -4   8 7945.83  528.06   1-0.54366 0.49142 0.61493-0.87086 0.57121-0.00999
  -2   4   8 7730.02  679.01   1-0.65876 0.60636 0.74982-0.49377-0.06167 0.62330
  -2  -4   7132712.6 3240.80   1-0.98770 0.91747-0.07637-0.17959 0.13640 0.35495
   2  -4  -7114690.4 3180.29   1-0.15594 0.22652 0.69474-0.95107-0.70214 0.21010
   2  -4  -7124657.7 3454.40   1 0.89756-0.83165 0.27942-0.53508-0.34101-0.14844
   2  -4  -7126965.8 3719.84   1 0.65040-0.58008 0.55779-0.81421-0.51559 0.02359
   2   4  -7137444.2 3465.73   1 0.74462-0.67468 0.65482-0.39868 0.12938-0.62117
  -2  -4   7132100.4 3226.18   1-0.54779 0.47785 0.61962-0.87556 0.56212-0.07105
  -2   4   7130656.8 3333.41   1-0.65122 0.58112 0.74143-0.48539-0.16178 0.65320
  -2   4   6 1108.35  151.77   1-0.98680 0.89892-0.08042 0.33639 0.14051 0.28065
  -2  -4   6 1182.94  254.04   1-0.99677 0.90889-0.01898-0.23698 0.07801 0.34314
   2  -4  -6  945.97  156.50   1 0.03237 0.05547 0.69806-0.95439-0.71530 0.29333
   2  -4  -6 1174.26  219.50   1 0.65578-0.56778 0.56270-0.81912-0.50330 0.08159
   2   4  -6  843.48  601.47   1 0.72679-0.63894 0.64216-0.38615 0.24372-0.66530
  -2  -4   6 1141.71  335.96   1-0.54853 0.46090 0.62047-0.87641 0.56045-0.13954
  -2   4   6 1425.76  683.26   1-0.63393 0.54588 0.72303-0.46674-0.27449 0.69581
  -2  -4   575639.70 2058.86   1-0.99908 0.89477 0.03954-0.29544 0.01628 0.33480
  -2   4   572118.26 1738.86   1-0.96848 0.86403 0.19962 0.05639-0.14896 0.50026
   2  -4  -569605.92 1696.58   1 0.24860-0.14300 0.67020-0.92663-0.69930 0.34771
   2  -4  -573369.89 1940.69   1 0.65754-0.55186 0.56431-0.82073-0.49918 0.14775
   2   4  -573518.91 2020.74   1 0.69428-0.58867 0.61574-0.35973 0.37259-0.72391
  -2  -4   572380.89 1894.93   1-0.54411 0.43878 0.61544-0.87137 0.57023-0.21946
  -2   4   569993.24 1990.17   1-0.60392 0.49821 0.68937-0.43308-0.40004 0.75114
  -2  -4   468157.87 1856.52   1-0.99301 0.87074 0.10581-0.36170-0.05225 0.33312
  -2   4   467494.35 1706.41   1-0.69243 0.56937 0.52341-0.26751-0.49656 0.77733
   2  -4  -468599.08 1740.89   1 0.43596-0.31265 0.61658-0.87301-0.65555 0.37428
   2  -4  -467350.64 1802.44   1 0.65327-0.52992 0.56041-0.81683-0.50908 0.22794
   2   4  -468873.05 1942.32   1 0.63922-0.51604 0.57049-0.31448 0.51567-0.79674
  -2  -4   466635.91 1774.69   1-0.53169 0.40873 0.59960-0.85557 0.59813-0.31768
  -2   4   468762.37 1998.44   1-0.55487 0.43146 0.63454-0.37837-0.53802 0.81894
  -2  -4   387084.73 1831.69   1-0.97598 0.83575 0.17766-0.43368-0.12602 0.33680
  -2   4   389899.38 1755.77   1-0.24341 0.10231 0.68481-0.42848-0.68686 0.89773
   2  -4  -391451.51 1777.78   1 0.57386-0.43344 0.55549-0.81187-0.60175 0.39113
   2  -4  -390117.68 1796.72   1 0.63646-0.49543 0.54508-0.80150-0.54570 0.33485
  -2   4   386763.59 1723.75   1 0.75190-0.89291 0.65919-0.40305 0.01013 0.20062
   2   4  -389452.75 1914.45   1 0.55368-0.41267 0.49805-0.24193 0.66736-0.87816
  -2  -4   391374.82 1811.40   1-0.49924 0.35856 0.56271-0.81869 0.65886-0.44852
   2   4  -388948.80 1764.59   1-0.65286 0.79387 0.74127-0.48529 0.15577-0.36639
  -2   4   389339.28 1960.67   1-0.48028 0.33913 0.55035-0.29415-0.68296 0.89356
  -2  -4   217752.82  532.50   1-0.94468 0.78656 0.25461-0.51062-0.20672 0.34724
  -2   4   216115.55  503.15   1 0.13334-0.29203 0.68921-0.43288-0.71218 0.85283
   2  -4  -216133.08  440.80   1 0.67032-0.51245 0.49859-0.75488-0.54960 0.40930
   2  -4  -215723.13  410.56   1 0.58565-0.42674 0.49807-0.75431-0.63947 0.49890
  -2   4   214699.59  373.97   1 0.75105-0.90983 0.65897-0.40283 0.04086 0.09964
   2   4  -215485.68  586.08   1 0.43135-0.27261 0.39349-0.13744 0.81184-0.95225
  -2  -4   217057.10  425.19   1-0.41782 0.25959 0.46915-0.72504 0.77802-0.63790
   2   4  -215021.05  376.81   1-0.64574 0.80440 0.73307-0.47709 0.21359-0.35400
  -2   4   215394.99  565.72   1-0.37610 0.21733 0.43192-0.17571-0.81974 0.96014
  -2  -4   1163494.7 3327.18   1-0.89476 0.71874 0.33645-0.59247-0.29357 0.36383
  -2   4   1162387.2 3135.49   1 0.37089-0.54732 0.63862-0.38219-0.67423 0.74455
   2  -4  -1154417.1 2950.99   1 0.74090-0.56520 0.44712-0.70341-0.50113 0.43098
   2  -4  -1156901.0 2900.52   1 0.35057-0.17404 0.28751-0.54370-0.89130 0.82102
  -2   4   1156596.5 2896.85   1 0.73314-0.90980 0.64716-0.39115 0.20898-0.13871
  -2  -4   1153360.3 2851.84   1-0.16494-0.01101 0.18079-0.43655 0.96959-0.89961
   2   4  -1154713.4 2873.90   1-0.63022 0.80653 0.71526-0.45927 0.30203-0.37223
  -2  -4   039992.23  908.50   1-0.82175 0.62821 0.42046-0.67633-0.38460 0.38460
   2   4   035620.43  826.39   1-0.53418 0.72815 0.60589-0.34965-0.58951 0.58951
  -2   4   039705.35  978.49   1 0.50943-0.70323 0.58652-0.33014-0.62965 0.62965
   2  -4   038548.85  886.29   1 0.79548-0.60195 0.39948-0.65577-0.45563 0.45563
   2   4   035896.53  678.94   1-0.53873 0.73254 0.60931-0.35337 0.58181-0.58181
   2   4   037056.44  710.66   1-0.52092 0.71495 0.59612-0.33995-0.61095 0.61095
  -2  -4  -1 9069.10  343.52   1-0.72349 0.51216 0.50247-0.75837-0.47337 0.40317
   2   4   1 9079.17  330.04   1-0.31821 0.52986 0.67153-0.41529-0.66915 0.73943
  -2   4  -110620.42  502.04   1 0.58834-0.79993 0.54781-0.29143-0.59476 0.52456
  -2   4  -1 9647.18  206.00   1 0.45858-0.67028 0.38428-0.12805-0.80126 0.73097
   2   4   1 9506.91  219.08   1 0.12248 0.08808-0.14566 0.40043 0.98172-0.91208
   2  -4   112492.92 1035.75   1-0.02785 0.23906 0.02555-0.28083 0.99928-0.92950
   2   4   1 9259.72  228.42   1-0.65832 0.87002 0.74903-0.49299 0.07453-0.00433
  -2  -4  -212792.23  415.36   1-0.60285 0.37387 0.57434-0.83024-0.55380 0.41342
   2   4   213179.93  450.69   1-0.04393 0.27346 0.69998-0.44365-0.71280 0.85345
  -2   4  -216387.48  732.76   1 0.63280-0.86219 0.52245-0.26607-0.57148 0.43107
  -2  -4  -215961.00 1541.83   1 0.16330-0.39256 0.12197-0.37819-0.97900 0.83836
  -2   4  -213479.60  348.35   1 0.64129-0.87069 0.54948-0.29306-0.53553 0.39496
   2  -4   213416.01  348.53   1 0.65359-0.42354 0.58258-0.83859 0.48311-0.34258
   2  -4   213876.53  986.71   1-0.13479 0.36400 0.14658-0.40234 0.97997-0.84001
   2   4   213340.39  351.51   1-0.64648 0.87575 0.73392-0.47794 0.20837-0.06796
  -2  -4  -212802.81  346.50   1-0.46624 0.23697 0.53442-0.79062-0.70498 0.56458
  -2  -4  -310049.67  399.88   1-0.47255 0.22552 0.62929-0.88552-0.61699 0.40617
   2   4   3 9084.83  406.01   1 0.24811-0.00085 0.67030-0.41388-0.69937 0.91033
  -2   4  -310839.73  615.70   1 0.65612-0.90330 0.50798-0.25160-0.55807 0.34745
  -2  -4  -311266.03 1442.74   1 0.25333-0.50016 0.20117-0.45740-0.94622 0.73526
  -2   4  -310175.60  411.85   1 0.66117-0.90825 0.56763-0.31121-0.49054 0.27969
   2  -4   310345.45  433.88   1 0.70487-0.45716 0.62445-0.88045 0.33645-0.12567
   2  -4   311688.48 1119.38   1-0.21463 0.46160 0.23718-0.49294 0.94745-0.73751
   2   4   310042.02  378.48   1-0.63577 0.88270 0.72162-0.46564 0.27395-0.06333
  -2  -4  -3 9206.13  363.62   1-0.55916 0.31216 0.63938-0.89555-0.52775 0.31706
  -2  -4  -411663.18  442.21   1-0.34765 0.08294 0.66511-0.92135-0.66087 0.37977
   2   4   4 8699.62  357.29   1 0.50508-0.24011 0.58844-0.33206-0.63136 0.91218
  -2   4  -411187.41  873.53   1 0.66562-0.93060 0.50183-0.24545-0.55235 0.27153
  -2  -4  -412693.18  636.64   1 0.31608-0.58054 0.25700-0.51320-0.91325 0.63213
  -2   4  -410507.54  440.80   1 0.66255-0.92730 0.56889-0.31247-0.48721 0.20607
   2  -4   4 9500.20  396.96   1 0.71847-0.45299 0.63550-0.89151 0.28271-0.00166
   2  -4   412139.33 1082.33   1-0.27132 0.53604 0.30150-0.55726 0.91404-0.63412
   2   4   410364.23  400.69   1-0.62545 0.89004 0.70980-0.45382 0.32400-0.04317
  -2  -4  -410442.75  425.32   1-0.59106 0.32641 0.67540-0.93157-0.44099 0.16006
  -2  -4  -524928.53  843.28   1-0.24288-0.03925 0.68489-0.94121-0.68697 0.33551
   2   4   524068.80  796.82   1 0.69976-0.41707 0.47831-0.22202-0.53059 0.88133
  -2  -4  -522702.70  879.80   1 0.35901-0.64105 0.29498-0.55118-0.88548 0.53408
  -2   4  -527383.01  952.48   1 0.65744-0.93987 0.56422-0.30780-0.49941 0.14798
   2  -4   528875.47 1008.07   1-0.30978 0.59235 0.34634-0.60224 0.88548-0.53518
   2   4   525669.26  873.77   1-0.61526 0.89755 0.69645-0.44051 0.36933-0.01856
  -2  -4  -610516.95  449.23   1-0.16333-0.13643 0.69412-0.95045-0.70107 0.27932
  -2   4  -6 9143.69  875.18   1 0.65802-0.95858 0.50676-0.25038-0.55694 0.13571
   2   4   6 8299.65  388.72   1 0.83283-0.53229 0.36159-0.10530-0.41909 0.83998
  -2  -4  -611865.24  642.93   1 0.38723-0.68685 0.31998-0.57618-0.86467 0.44298
  -2   4  -611851.30  610.53   1 0.64887-0.94897 0.55639-0.29997-0.51902 0.09731
   2  -4   610305.74  545.89   1-0.33560 0.63593 0.37569-0.63159 0.86384-0.44348
   2   4   6 8574.35  420.99   1-0.60391 0.90390 0.68353-0.42760 0.40995 0.01096
  -2  -4  -7 4214.61  358.20   1-0.10963-0.20776 0.69773-0.95405-0.70791 0.21587
  -2   4  -7 6378.94  842.23   1 0.64481-0.96316 0.51511-0.25873-0.56468 0.07325
  -2  -4  -7 5034.91  603.72   1 0.40474-0.72195 0.33552-0.59171-0.85064 0.35868
  -2   4  -7 4475.69  439.56   1 0.63791-0.95568 0.54640-0.28998-0.54267 0.05068
   2  -4   7 5324.84  444.70   1-0.35184 0.66994 0.39416-0.65005 0.84902-0.35860
   2   4   7 5027.87  374.84   1-0.59173 0.90941 0.66966-0.41373 0.44877 0.04229
  -2  -4  -8 9803.78  563.18   1-0.07901-0.25601 0.69886-0.95519-0.71087 0.14854
  -2   4  -810829.13  870.36   1 0.62669-0.96284 0.52611-0.26972-0.57485 0.01321
  -2  -4  -813535.40  895.64   1 0.41430-0.74909 0.34400-0.60020-0.84261 0.28037
  -2   4  -810942.72  738.44   1 0.62503-0.96047 0.53469-0.27827-0.56870 0.00643
   2  -4   811050.84  769.57   1-0.36096 0.69681 0.40452-0.66041 0.84027-0.27980
   2   4   810718.92  630.64   1-0.57860 0.91398 0.65471-0.39878 0.48636 0.07485
  -2   4  -9 9771.43 1018.96   1 0.60420-0.95814 0.53908-0.28270-0.58678-0.04506
  -2  -4  -9 9124.51  659.60   1 0.41778-0.77015 0.34709-0.60329-0.83962 0.20710
  -2   4  -910759.12  783.29   1 0.61114-0.96358 0.52107-0.26484-0.59579-0.03677
   2  -4   9 9231.35  693.80   1-0.36460 0.71822 0.40867-0.66456 0.83668-0.20615
   2   4   910019.71  600.04   1-0.56444 0.91751 0.63859-0.38266 0.52306 0.10831
  -2   4 -10  684.80  426.08   1 0.57762-0.94935 0.55352-0.29714-0.59996-0.10208
  -2  -4 -10  882.48  446.66   1 0.41644-0.78640 0.34590-0.60210-0.84078 0.13797
  -2   4 -10  246.19  229.60   1 0.59494-0.96498 0.50645-0.25021-0.62413-0.07872
   2  -4  10 1546.18  458.27   1-0.36392 0.73530 0.40789-0.66378 0.83736-0.13677
   2   4  10  612.80  209.94   1-0.54916 0.91993 0.62119-0.36526 0.55904 0.14248
  -2   4 -11 8291.87 1317.61   1 0.54707-0.93659 0.56899-0.31261-0.61396-0.15829
  -2  -4 -11 4469.44  731.76   1 0.41114-0.79868 0.34120-0.59739-0.84530 0.07221
  -2   4 -11 6929.78 1028.52   1 0.57712-0.96475 0.49039-0.23415-0.65302-0.12011
   2  -4  11 7345.59 1127.69   1-0.35968 0.74882 0.40307-0.65896 0.84152-0.07087
   2   4  11 5858.31  828.72   1-0.53317 0.92181 0.60128-0.34530 0.59513 0.17611
   2   5 -12 1139.23  548.17   1 0.86521-0.89032 0.32267-0.00309-0.38376-0.45531
   2  -5 -12 1506.45  527.11   1 0.56242-0.57944 0.47717-0.79747-0.67526-0.16816
   2   5 -12 1921.74  760.47   1 0.72962-0.74829 0.63328-0.31278-0.25805-0.58499
  -2  -5  12 1700.42  524.45   1-0.47635 0.49508 0.53670-0.85667 0.69644 0.14492
  -2   5  12 1593.95  568.92   1-0.64514 0.66302 0.73238-0.41240 0.21771 0.62475
   2   5 -11 3238.70  610.01   1 0.89662-0.90352 0.28079 0.03877-0.34237-0.42678
   2  -5 -11 4176.49  671.96   1 0.57576-0.57519 0.48916-0.80946-0.65514-0.11799
   2   5 -11 2441.23  675.95   1 0.74132-0.74225 0.64476-0.32426-0.18634-0.58644
  -2  -5  11 3186.47  745.77   1-0.48658 0.48760 0.54833-0.86829 0.68012 0.09112
  -2   5  11 2090.70  533.21   1-0.65394 0.65417 0.74252-0.42254 0.14495 0.62730
   2   5 -10  571.93  377.55   1 0.92414-0.91284 0.23746 0.08210-0.29926-0.39996
   2  -5 -10 1291.55  397.13   1 0.58714-0.56898 0.49941-0.81971-0.63705-0.06579
   2   5 -10  801.97  577.91   1 0.74938-0.73257 0.65315-0.33265-0.10867-0.59385
  -2  -5  10 1033.79  382.69   1-0.49479 0.47809 0.55765-0.87762 0.66648 0.03465
  -2   5  10 1197.40  563.54   1-0.65868 0.64168 0.74946-0.42941 0.06655 0.63548
   2   5  -913800.22  988.77   1 0.94777-0.91826 0.19252 0.12704-0.25428-0.37502
   2  -5  -911342.43  801.62   1 0.59635-0.56059 0.50772-0.82801-0.62175-0.01081
   2   5  -912712.41  940.84   1 0.75201-0.71760 0.65872-0.33854-0.02367-0.60862
  -2  -5   913205.69  767.73   1-0.50065 0.46625 0.56432-0.88428 0.65641-0.02539
  -2   5   911756.33  822.80   1-0.65994 0.62524 0.75108-0.43102-0.01877 0.65060
  -2  -5   813724.91  697.07   1-0.96887 0.91629-0.14206-0.17790 0.20271 0.35883
   2  -5  -811357.48  602.60   1 0.60300-0.54965 0.51371-0.83401-0.61031 0.04802
   2   5  -812894.09  974.72   1 0.74959-0.69742 0.65819-0.33801 0.06989-0.63193
  -2  -5   815733.38  770.68   1-0.50363 0.45152 0.56771-0.88767 0.65118-0.09027
  -2   5   810491.87  722.29   1-0.65580 0.60340 0.74655-0.42650-0.11216 0.67379
  -2  -5   7  753.59  288.41   1-0.98373 0.91349-0.09327-0.22668 0.15352 0.33783
   2  -5  -7 1304.95  453.44   1 0.60638-0.53543 0.51677-0.83706-0.60435 0.11235
   2   5  -7 2762.94  900.00   1 0.73857-0.66849 0.65133-0.33132 0.17399-0.66583
  -2  -5   7 1355.87  364.88   1-0.50282 0.43299 0.56678-0.88675 0.65262-0.16183
  -2   5   7 1081.10  576.12   1-0.64390 0.57351 0.73413-0.41378-0.21547 0.70701
  -2  -5   687717.82 2687.12   1-0.99390 0.90602-0.04228-0.27767 0.10177 0.31938
   2  -5  -680256.78 2423.46   1 0.60522-0.51668 0.51572-0.83601-0.60641 0.18470
   2   5  -688593.73 2817.82   1 0.71691-0.62907 0.63424-0.31423 0.28942-0.71100
  -2  -5   678004.86 2343.43   1-0.49655 0.40901 0.55966-0.87963 0.66347-0.24279
  -2   5   676197.76 2475.25   1-0.62254 0.53449 0.71028-0.38993-0.32852 0.74984
  -2  -5   511546.73  504.61   1-0.99881 0.89449 0.00874-0.32861 0.04796 0.30312
  -2   5   510675.79  284.28   1-0.99065 0.88633 0.11925 0.20061-0.06622 0.41732
   2  -5  -510561.23  288.99   1 0.83616-0.73383 0.35640-0.67598-0.41689 0.06727
   2  -5  -511873.16  511.33   1 0.59699-0.49086 0.50829-0.82859-0.62067 0.26924
   2   5  -511418.73  738.80   1 0.67929-0.57392 0.60406-0.28404 0.41673-0.76806
  -2  -5   511734.95  478.41   1-0.48175 0.37650 0.54284-0.86280 0.68791-0.33735
  -2   5   511355.34  775.84   1-0.58752 0.48176 0.67141-0.35120-0.45169 0.80284
  -2  -5   4 7835.17 1088.07   1-0.99779 0.87552 0.06553-0.38540-0.01052 0.29140
  -2   5   4 4937.55  196.47   1-0.56838 0.44533 0.59079-0.27091-0.57262 0.85339
   2  -5  -4 4789.73  209.33   1 0.80174-0.67954 0.39347-0.71384-0.44986 0.16927
   2  -5  -4 4744.86  332.77   1 0.57622-0.45250 0.48958-0.80987-0.65442 0.37328
   2   5  -4 4940.02  534.67   1 0.62067-0.49748 0.55482-0.23480 0.55402-0.83508
  -2  -5   4 4247.79  287.12   1-0.45211 0.32914 0.50915-0.82911 0.73236-0.45190
  -2   5   4 4512.54  462.42   1-0.53493 0.41152 0.61198-0.29177-0.58250 0.86343
  -2  -5   3 8166.28 1213.31   1-0.98938 0.84916 0.12567-0.44554-0.07290 0.28356
  -2   5   3 5879.36  290.19   1-0.06813-0.07296 0.69910-0.37869-0.71176 0.92263
   2  -5  -3 5891.74  276.36   1 0.81101-0.67098 0.38433-0.70469-0.44105 0.23061
   2  -5  -3 6437.99  327.76   1 0.52922-0.38790 0.44738-0.76768-0.72095 0.51009
  -2   5   3 6066.56  307.78   1 0.74923-0.89025 0.65500-0.33483-0.09800 0.30877
   2   5  -3 6640.71  478.48   1 0.53485-0.39384 0.48192-0.16177 0.69403-0.90482
  -2  -5   3 7488.79  346.98   1-0.39442 0.25395 0.44255-0.76241 0.80534-0.59516
   2   5  -3 7294.46  320.61   1-0.63559 0.77660 0.72142-0.40144 0.27490-0.48552
  -2   5   3 7317.92  517.00   1-0.46008 0.31893 0.52741-0.20715-0.71425 0.92486
  -2  -5   274360.17 1572.24   1-0.97205 0.81392 0.18958-0.50960-0.13846 0.27898
  -2   5   276908.07 1581.77   1 0.26402-0.42274 0.66688-0.34635-0.69681 0.83745
   2  -5  -274047.10 1486.14   1 0.83054-0.67267 0.36406-0.68442-0.42148 0.28118
   2  -5  -272511.35 1426.17   1 0.41567-0.25672 0.34522-0.66546-0.84145 0.70088
  -2   5   273374.84 1442.42   1 0.74769-0.90647 0.65329-0.33311-0.11896 0.25947
  -2  -5   276831.14 1530.53   1-0.27484 0.11663 0.30549-0.62519 0.91166-0.77170
   2   5  -275302.96 1485.30   1-0.61532 0.77374 0.69652-0.37660 0.36909-0.50940
  -2  -5   1117449.5 2353.98   1-0.94352 0.76750 0.25691-0.57693-0.20915 0.27941
  -2   5   1116151.9 2340.15   1 0.45581-0.63181 0.60882-0.28835-0.64927 0.71948
   2  -5  -1113045.1 2220.56   1 0.85175-0.67661 0.33881-0.65839-0.39964 0.32972
   2  -5  -1110529.2 2077.84   1 0.07429 0.10203 0.04344-0.36325-0.99628 0.92608
  -2   5   1110796.2 2076.10   1 0.74817-0.92471 0.65381-0.33363-0.11300 0.18326
   2   5  -1108932.8 2262.24   1 0.28172-0.10525 0.26342 0.05664 0.92262-0.99283
  -2  -5   1114473.1 2165.62   1-0.01588-0.15958 0.01194-0.33104 0.99980-0.93002
   2   5  -1109183.3 2064.16   1-0.56705 0.74316 0.64156-0.32164 0.51656-0.58672
  -2  -5   034576.85  886.34   1-0.90126 0.70734 0.32734-0.64737-0.28385 0.28385
   2   5   029113.42  711.01   1-0.59446 0.78813 0.57848-0.25861-0.55853 0.55853
  -2   5   034056.61  914.95   1 0.56459-0.75839 0.56026-0.23978-0.60608 0.60608
   2   5   033178.71  660.93   1-0.42080 0.61461 0.47357-0.15360 0.77372-0.77372
   2   5   032649.68  680.07   1-0.40400 0.59802 0.46365-0.14340-0.78854 0.78854
  -2  -5  -144619.92 1570.63   1-0.84309 0.63188 0.39858-0.71841-0.36101 0.29085
   2   5   142145.59 1167.22   1-0.40968 0.62133 0.64912-0.32883-0.64092 0.71120
  -2   5  -143359.53 1338.67   1 0.62704-0.83864 0.52590-0.20542-0.57466 0.50445
  -2  -5  -144520.42 1358.58   1 0.00225-0.21360-0.01946-0.30035-0.99980 0.92960
  -2   5  -144454.94 1099.99   1 0.22446-0.43616 0.17574 0.14452-0.95850 0.88818
   2  -5   147995.72 1390.28   1 0.00683 0.20437-0.01390-0.30519 0.99987-0.93009
   2   5   143740.61 1123.65   1-0.05293 0.26414 0.05406 0.26503 0.99713-0.92735
   2   5   145978.86 1187.78   1-0.62994 0.84161 0.71858-0.39822-0.29462 0.36484
  -2  -5  -224631.31  730.57   1-0.76787 0.53900 0.46853-0.78837-0.43685 0.29654
   2   5   223618.53  721.85   1-0.15870 0.38796 0.69451-0.37411-0.70175 0.84233
  -2   5  -225298.65  921.33   1 0.66214-0.89153 0.50410-0.18363-0.55446 0.41405
  -2  -5  -225089.81  855.00   1 0.11547-0.34432 0.07945-0.39927-0.99012 0.84971
  -2   5  -226461.09  719.65   1 0.69733-0.92673 0.60092-0.28039-0.39066 0.25009
   2  -5   224737.44  672.27   1 0.42945-0.19980 0.39185-0.71192 0.81364-0.67323
   2  -5   229384.52 1672.95   1-0.09022 0.31930 0.09645-0.41555 0.99123-0.85167
   2   5   226280.70  741.21   1-0.66002 0.88942 0.75115-0.43110-0.01150 0.15190
  -2  -5  -3  407.01  134.39   1-0.67855 0.43192 0.53216-0.85204-0.50631 0.29573
   2   5   3  799.78  233.25   1 0.13608 0.11114 0.68887-0.36845-0.71199 0.92297
  -2   5  -3 1479.89  584.53   1 0.68013-0.92716 0.49201-0.17165-0.54344 0.33300
  -2   5  -3  414.06  177.08   1 0.69502-0.94210 0.59878-0.27825-0.39798 0.18713
   2  -5   3  342.89  180.98   1 0.59388-0.34601 0.53208-0.85210 0.60347-0.39267
   2  -5   3  590.93  182.73   1-0.16694 0.41391 0.18307-0.50276 0.96882-0.75888
   2   5   3  542.55  208.80   1-0.65521 0.90214 0.74399-0.42401 0.13101 0.07960
  -2  -5  -3  773.24  171.89   1-0.43886 0.19196 0.50329-0.82355-0.74437 0.53376
  -2  -5  -410966.36  448.11   1-0.58163 0.31734 0.58465-0.90452-0.56558 0.28481
   2   5   4 9500.11  416.84   1 0.42440-0.15944 0.62078-0.30025-0.65916 0.94043
  -2   5  -411855.95  688.28   1 0.68646-0.95133 0.48767-0.16731-0.53938 0.25879
  -2   5  -411623.18  512.62   1 0.68757-0.95231 0.59188-0.27135-0.42061 0.13947
   2  -5   4 8630.28  361.01   1 0.64904-0.38336 0.57876-0.89877 0.49372-0.21266
   2  -5   411595.47 1040.10   1-0.22400 0.48871 0.24781-0.56750 0.94255-0.66263
   2   5   411799.02  461.90   1-0.64467 0.90926 0.73185-0.41187 0.22086 0.05996
  -2  -5  -4 9140.94  401.90   1-0.50965 0.24500 0.58334-0.90355-0.63242 0.35150
  -2  -5  -5 2598.51  208.76   1-0.48953 0.20714 0.62325-0.94355-0.60984 0.25846
  -2   5  -5 2795.29  467.81   1 0.68450-0.96720 0.48902-0.16866-0.54065 0.18991
   2   5   5 1719.12  187.29   1 0.65791-0.37514 0.50684-0.18636-0.55701 0.90803
  -2  -5  -5 4062.61  460.34   1 0.31222-0.59417 0.25312-0.57340-0.91566 0.56406
  -2   5  -5 2465.07  289.27   1 0.67768-0.96010 0.58277-0.26224-0.44845 0.09702
   2  -5   5 1677.41  267.37   1-0.26514 0.54761 0.29449-0.61418 0.91813-0.56823
   2   5   5 1689.64  222.70   1-0.63288 0.91512 0.71832-0.39834 0.28890 0.06212
  -2  -5  -6 7123.59  342.94   1-0.40944 0.10936 0.64919-0.96949-0.64101 0.21935
   2   5   6 5515.42  272.05   1 0.82086-0.52033 0.37429-0.05393-0.43137 0.85225
  -2  -5  -6 7143.61  499.47   1 0.34325-0.64287 0.28103-0.60127-0.89621 0.47452
  -2   5  -6 9424.60  587.97   1 0.66606-0.96616 0.57211-0.25158-0.47858 0.05687
   2  -5   6 9817.81  622.83   1-0.29335 0.59368 0.32766-0.64753 0.89809-0.47774
   2   5   6 8507.63  422.31   1-0.62086 0.92084 0.70282-0.38290 0.34723 0.07368
  -2  -5  -7 1843.50  219.94   1-0.34861 0.03084 0.66489-0.98519-0.66059 0.16866
  -2   5  -7 1238.31  686.98   1 0.66270-0.98106 0.50374-0.18326-0.55413 0.06269
  -2  -5  -7 1346.40  407.67   1 0.36394-0.68115 0.29935-0.61959-0.88200 0.39003
   2  -5   7 1111.07  354.89   1-0.31250 0.63060 0.34944-0.66931 0.88330-0.39289
   2   5   7 1903.27  294.16   1-0.60753 0.92521 0.68765-0.36773 0.39753 0.09353
  -2   5  -8 4728.28  959.88   1 0.64470-0.98085 0.51517-0.19470-0.56474 0.00310
  -2  -5  -8 5844.57  705.97   1 0.37640-0.71118 0.31038-0.63062-0.87291 0.31067
  -2   5  -8 3699.17  568.33   1 0.63839-0.97383 0.54684-0.22631-0.54168-0.02059
   2  -5   8 4083.50  651.48   1-0.32431 0.66017 0.36287-0.68273 0.87357-0.31310
   2   5   8 3613.49  510.37   1-0.59337 0.92874 0.67153-0.35161 0.44379 0.11743
  -2   5  -9 1141.09  498.34   1 0.62264-0.97658 0.52850-0.20802-0.57705-0.05478
  -2  -5  -9 2270.17  612.75   1 0.38242-0.73479 0.31571-0.63596-0.86837 0.23584
  -2   5  -9 1187.04  458.86   1 0.62242-0.97554 0.53232-0.21180-0.57377-0.05878
   2  -5   9 1779.12  505.35   1-0.33036 0.68398 0.36975-0.68961 0.86841-0.23788
   2   5   9 1020.24  326.72   1-0.57827 0.93134 0.65433-0.33442 0.48728 0.14409
  -2   5 -10 2992.82  632.44   1 0.59674-0.96847 0.54323-0.22276-0.59058-0.11147
  -2  -5 -10 4935.70  713.29   1 0.38328-0.75324 0.31648-0.63673-0.86771 0.16490
  -2   5 -10 2994.89  505.07   1 0.60574-0.97577 0.51619-0.19590-0.60549-0.09736
   2  -5  10 1714.38  499.68   1-0.33178 0.70317 0.37136-0.69122 0.86718-0.16659
   2   5  10 3811.28  482.45   1-0.56212 0.93288 0.63594-0.31602 0.52876 0.17276
  -2   5 -11 1708.23  507.25   1 0.56708-0.95661 0.55899-0.23851-0.60493-0.16732
  -2  -5 -11 4369.37  853.77   1 0.37988-0.76742 0.31347-0.63372-0.87029 0.09721
  -2   5 -11  777.57  292.66   1 0.58685-0.97448 0.49915-0.17886-0.63753-0.13561
   2  -5  11 3049.30  574.11   1-0.32937 0.71851 0.36861-0.68848 0.86927-0.09862
   2   5  11 3194.09  607.58   1-0.54481 0.93327 0.61623-0.29631 0.56871 0.20296
   2   6 -11 1263.94  565.99   1 0.89388-0.90078 0.28472 0.09876-0.34627-0.42288
   2  -6 -11  863.92  301.16   1 0.53878-0.53821 0.45596-0.84031-0.70838-0.06475
   2   6 -11 2085.51  656.18   1 0.74452-0.74545 0.64801-0.26341-0.16049-0.61229
  -2  -6  11  648.80  312.27   1-0.45063 0.45165 0.50747-0.89143 0.73443 0.03681
  -2   6  11 1175.56  494.55   1-0.65681 0.65703 0.74584-0.36187 0.11094 0.66132
   2   6 -10 3237.75  880.29   1 0.92015-0.90885 0.24425 0.13923-0.30603-0.39319
   2  -6 -10 3185.31  714.97   1 0.54766-0.52950 0.46392-0.84828-0.69629-0.00655
   2   6 -10 3595.47  856.54   1 0.75030-0.73365 0.65625-0.27204-0.07987-0.62268
  -2  -6  10 2586.96  602.39   1-0.45627 0.43958 0.51388-0.89784 0.72645-0.02531
  -2   6  10 3470.46  829.07   1-0.65982 0.64282 0.75084-0.36678 0.02953 0.67249
   2   6  -910781.26  796.63   1 0.94285-0.91334 0.20268 0.18080-0.26447-0.36483
   2  -6  -912994.97  794.40   1 0.55365-0.51789 0.46929-0.85365-0.68791 0.05534
   2   6  -911113.43  789.31   1 0.75193-0.71752 0.65919-0.27497 0.00764-0.63995
  -2  -6   912086.25  683.81   1-0.45886 0.42446 0.51683-0.90078 0.72272-0.09169
  -2   6   913683.45  963.75   1-0.65889 0.62419 0.74996-0.36590-0.05845 0.69028
  -2  -6   8 1365.98  436.27   1-0.96348 0.91089-0.15653-0.22742 0.21724 0.34430
   2  -6  -8 1301.78  413.38   1 0.55603-0.50268 0.47143-0.85578-0.68453 0.12224
   2   6  -8  159.07  510.68   1 0.74712-0.69495 0.65658-0.27237 0.10342-0.66547
  -2  -6   8 1197.88  272.44   1-0.45758 0.40547 0.51537-0.89933 0.72456-0.16365
  -2   6   8  915.46  452.22   1-0.65206 0.59966 0.74237-0.35831-0.15392 0.71555
  -2  -6   718133.34  789.99   1-0.97848 0.90825-0.11249-0.27145 0.17294 0.31841
   2  -6  -717778.79  782.00   1 0.55359-0.48265 0.46924-0.85359-0.68799 0.19599
   2   6  -721487.50 1091.48   1 0.73315-0.66307 0.64716-0.26316 0.20892-0.70076
  -2  -6   720107.11  796.92   1-0.45109 0.38126 0.50799-0.89195 0.73379-0.24299
  -2   6   719329.71 1020.98   1-0.63694 0.56655 0.72639-0.34196-0.25818 0.74972
  -2  -6   627393.11  970.52   1-0.98961 0.90174-0.06715-0.31680 0.12705 0.29410
   2  -6  -624399.60  837.41   1 0.54421-0.45567 0.46082-0.84518-0.70104 0.27933
   2   6  -624248.41 1087.44   1 0.70824-0.62039 0.62720-0.24319 0.32405-0.74562
  -2  -6   626589.11  862.25   1-0.43710 0.34956 0.49209-0.87605 0.75285-0.33216
  -2   6   626186.78 1223.62   1-0.61220 0.52415 0.69868-0.31425-0.37020 0.79152
  -2  -6   525424.54 2059.54   1-0.99663 0.89110-0.02037-0.36358 0.07943 0.27153
   2  -6  -520175.15  758.24   1 0.52387-0.41774 0.44259-0.82695-0.72777 0.37635
   2   6  -520758.98  905.36   1 0.66758-0.56221 0.59430-0.21028 0.44847-0.79980
  -2  -6   520707.48  768.52   1-0.41223 0.30729 0.46279-0.84663 0.78478-0.43448
  -2   6   517884.38  940.50   1-0.57417 0.46842 0.65635-0.27210-0.48940 0.84055
  -2  -6   439625.26 1278.34   1-0.99920 0.87693 0.02614-0.40998 0.03008 0.25078
  -2   6   436467.64 1026.00   1-0.42006 0.29684 0.64611-0.26175-0.63724 0.91835
   2  -6  -437266.61 1154.29   1 0.48443-0.36070 0.40733-0.79169-0.77421 0.49306
   2   6  -439431.91 1393.69   1 0.60748-0.48430 0.54364-0.15962 0.57914-0.86021
  -2  -6   436017.34 1103.54   1-0.36778 0.24508 0.41228-0.79612 0.83351-0.55328
  -2   6   438621.53 1391.72   1-0.52018 0.39678 0.59528-0.21103-0.61240 0.89332
  -2  -6   3 3733.60  562.76   1-0.99680 0.85658 0.07670-0.46054-0.02206 0.23272
  -2   6   3 3261.62  263.68   1 0.07374-0.21472 0.69531-0.31080-0.71491 0.92590
   2  -6  -3 2758.31  215.00   1 0.93572-0.79699 0.21658-0.60007-0.27839 0.06862
   2  -6  -3 3927.28  289.06   1 0.40892-0.26756 0.33923-0.72352-0.84717 0.63632
  -2   6   3 2752.17  204.86   1 0.74235-0.88332 0.64579-0.26120-0.17849 0.38925
   2   6  -3 4726.70  566.92   1 0.52381-0.38280 0.47245-0.08827 0.70880-0.91960
  -2  -6   3 2179.29  176.14   1-0.29018 0.14971 0.32407-0.70791 0.90042-0.69025
   2   6  -3 2950.63  200.78   1-0.61767 0.75839 0.69919-0.31529 0.35999-0.57045
  -2   6   3 2595.81  371.47   1-0.44736 0.30621 0.51295-0.12865-0.73262 0.94322
  -2  -6   228834.03  890.71   1-0.98865 0.83047 0.12919-0.51304-0.07657 0.21701
  -2   6   231552.45  950.91   1 0.35207-0.51079 0.64429-0.25965-0.67891 0.81955
   2  -6  -227172.22  785.67   1 0.92381-0.76687 0.23804-0.62153-0.29984 0.15999
   2  -6  -229463.94  838.14   1 0.25191-0.09289 0.19992-0.58426-0.94687 0.80623
  -2   6   228731.05  792.08   1 0.73459-0.89329 0.63810-0.25351-0.23063 0.37114
   2   6  -229918.31 1054.44   1 0.41622-0.25748 0.38039 0.00368 0.82586-0.96627
  -2  -6   230698.95 1533.42   1-0.15442-0.00378 0.16885-0.55249 0.97346-0.83350
   2   6  -229362.36  810.61   1-0.58552 0.74393 0.66258-0.27868 0.46705-0.60736
  -2  -6   138967.98 1156.33   1-0.97409 0.79807 0.18352-0.56755-0.13213 0.20239
  -2   6   139926.89 1181.29   1 0.50877-0.68478 0.58681-0.20224-0.62991 0.70012
   2  -6  -134992.66  994.29   1 0.92358-0.74844 0.23843-0.62192-0.30023 0.23031
   2  -6  -139368.75 1028.38   1-0.08756 0.26390-0.09770-0.28607-0.99135 0.92115
  -2   6   137948.42  987.25   1 0.72069-0.89714 0.62472-0.24013-0.30051 0.37076
   2   6  -140066.74 1258.26   1 0.29201-0.11554 0.27240 0.11167 0.91679-0.98700
  -2  -6   139481.39 1345.64   1 0.07405-0.24908-0.09043-0.29171 0.99314-0.92350
   2   6  -136804.19  970.43   1-0.52424 0.70034 0.59113-0.20717 0.61296-0.68307
  -2  -6   015984.12 1321.04   1-0.95187 0.75796 0.23967-0.62370-0.19099 0.19099
  -2   6   014459.24  639.14   1 0.59806-0.79186 0.54250-0.15793-0.58991 0.58991
  -2  -6   013481.60  560.54   1-0.16047-0.03330-0.15969-0.22393-0.97403 0.97403
  -2   6   012820.57  346.86   1 0.67861-0.87266 0.58363-0.19899-0.44593 0.44593
  -2   6   013397.06  369.87   1 0.62261-0.81704 0.55646-0.17244 0.55018-0.55018
   2  -6   013055.37  533.63   1 0.14208 0.05071-0.16802-0.21412 0.97548-0.97548
   2   6   013226.56  392.96   1-0.39025 0.58400 0.43781-0.05397 0.80995-0.80995
  -2  -6  -156709.63 1505.42   1-0.92102 0.70921 0.29719-0.68122-0.25177 0.18151
  -2   6  -158178.07 1687.62   1 0.64989-0.86149 0.51193-0.12736-0.56174 0.49153
  -2  -6  -156919.79 1601.43   1-0.03692-0.17441-0.05362-0.33015-0.99787 0.92767
  -2   6  -153055.11 1271.49   1 0.34817-0.55987 0.28538 0.09890-0.89293 0.82265
  -2   6  -156477.31 1358.83   1 0.75017-0.96225 0.65609-0.27188-0.08230 0.01205
   2  -6   156084.92 1598.14   1 0.04031 0.17089-0.05199-0.33092 0.99783-0.92805
   2   6   154436.04 1374.69   1-0.57997 0.79165 0.66289-0.27864-0.47350 0.54373
  -2  -6  -2 8104.48  884.87   1-0.88106 0.65220 0.35420-0.73800-0.31346 0.17314
   2   6   2 7380.20  333.71   1-0.24677 0.47602 0.68431-0.29982-0.68615 0.82674
  -2   6  -2 8641.48  656.44   1 0.67927-0.90847 0.49260-0.10816-0.54399 0.40370
  -2   6  -2 7590.48  241.88   1-0.17729-0.05158-0.17428 0.55791-0.96860 0.82829
  -2  -6  -210173.15 1094.97   1 0.06830-0.29715 0.03820-0.42197-0.99693 0.85652
  -2   6  -2 8653.25  295.26   1 0.73295-0.96261 0.63651-0.25191-0.24004 0.09954
   2   6   2 7610.02  256.64   1 0.12347 0.10485-0.14680 0.52895 0.98142-0.84214
   2   6   2 8313.16  351.00   1-0.64856 0.87788 0.73930-0.35487-0.18108 0.32152
  -2  -6  -3  538.98  130.77   1-0.83175 0.58523 0.41044-0.79424-0.37378 0.16331
   2   6   3 1070.15  283.66   1 0.03790 0.20933 0.69776-0.31326-0.71532 0.92630
  -2   6  -3 1224.88  608.94   1 0.69390-0.94093 0.48248-0.09805-0.53451 0.32407
  -2  -6  -3 1455.15  351.46   1 0.15202-0.39884 0.11206-0.49639-0.98200 0.77104
  -2   6  -3  932.87  215.41   1 0.71884-0.96624 0.62296-0.23836-0.30849 0.09773
   2  -6   3  575.29  203.76   1 0.43143-0.18404 0.39356-0.77765 0.81176-0.60115
   2   6   3  284.58  159.67   1-0.66007 0.90717 0.75118-0.36712 0.00504 0.20556
  -2  -6  -429159.03  918.03   1-0.77488 0.51071 0.46277-0.84657-0.43056 0.14992
   2   6   423543.04  777.48   1 0.34520-0.08023 0.64628-0.26164-0.68055 0.96182
  -2   6  -428802.53 1176.03   1 0.69850-0.96337 0.47921-0.09478-0.53144 0.25085
  -2  -6  -428631.26 1920.47   1 0.21652-0.48091 0.16876-0.55309-0.96158 0.68030
  -2   6  -428649.82  956.45   1 0.70585-0.97098 0.61069-0.22610-0.35892 0.07790
   2  -6   422407.62  731.93   1 0.54233-0.27680 0.48834-0.87252 0.68366-0.40259
   2  -6   432153.36 2500.92   1-0.17798 0.44269 0.19559-0.57922 0.96439-0.68448
   2   6   427296.94  895.20   1-0.65552 0.92010 0.74434-0.36037 0.12742 0.15339
  -2  -6  -424458.24  808.55   1-0.40765 0.14313 0.46781-0.85211-0.78419 0.50339
  -2  -6  -510541.20  371.59   1-0.71547 0.43353 0.50806-0.89191-0.47954 0.12858
   2   6   511255.67  406.07   1 0.61774-0.33497 0.53136-0.14679-0.57969 0.93072
  -2   6  -512591.95 1009.64   1 0.69572-0.97841 0.48120-0.09676-0.53330 0.18257
  -2  -6  -510927.59 1435.62   1 0.26420-0.54615 0.21075-0.59509-0.94115 0.58955
  -2   6  -510949.16  498.20   1 0.69334-0.97576 0.59722-0.21259-0.40323 0.05180
   2  -6   511966.88 1103.30   1-0.22041 0.50288 0.24374-0.62737 0.94446-0.59456
   2   6   510900.73  496.69   1-0.64532 0.92756 0.73258-0.34861 0.21650 0.13452
  -2  -6  -6 8579.73  373.12   1-0.65824 0.35864 0.54437-0.92822-0.51996 0.09881
  -2   6  -6 7790.63  677.91   1 0.68714-0.98767 0.48720-0.10277-0.53894 0.11806
  -2  -6  -6 9403.28  934.95   1 0.29836-0.59787 0.24089-0.62522-0.92355 0.50163
  -2   6  -6 8285.61  513.28   1 0.67949-0.97959 0.58444-0.19980-0.44352 0.02181
   2  -6   610083.61  964.49   1-0.25127 0.55150 0.27876-0.66239 0.92690-0.50702
   2   6   6 7642.68  409.55   1-0.63304 0.93293 0.71849-0.33452 0.28812 0.13311
  -2   6  -7 1994.24  544.30   1 0.67375-0.99211 0.49631-0.11188-0.54747 0.05643
  -2   6  -7 1486.77  362.96   1 0.66468-0.98245 0.57084-0.18621-0.48200-0.00999
   2  -6   7 3049.96  631.57   1-0.27288 0.59085 0.30327-0.68690 0.91299-0.42313
   2   6   7 3642.90  608.24   1-0.61999 0.93767 0.70183-0.31793 0.35076 0.14030
  -2   6  -8 4388.56 1058.78   1 0.65620-0.99235 0.50793-0.12336-0.55802-0.00361
  -2   6  -8 3959.81  738.49   1 0.64876-0.98421 0.55629-0.17166-0.51925-0.04301
   2  -6   8 3429.55  635.42   1-0.28652 0.62237 0.31990-0.70374 0.90308-0.34261
   2   6   8 3777.66  682.05   1-0.60532 0.94069 0.68513-0.30123 0.40518 0.15603
  -2   6  -9 1346.77  511.38   1 0.63476-0.98870 0.52127-0.13670-0.57039-0.06145
  -2  -6  -9 3758.13  555.46   1 0.34501-0.69738 0.28258-0.66688-0.89504 0.26252
  -2   6  -9 3906.06  540.57   1 0.63162-0.98474 0.54068-0.15605-0.55561-0.07694
   2  -6   9 4647.21  661.91   1-0.29477 0.64839 0.32929-0.71313 0.89703-0.26650
   2   6   9 3446.90  403.50   1-0.58961 0.94268 0.66724-0.28334 0.45512 0.17625
  -2   6 -10 2514.32  746.30   1 0.60965-0.98138 0.53601-0.15144-0.58396-0.11808
  -2  -6 -10 3157.11  653.41   1 0.34803-0.71798 0.28526-0.66955-0.89302 0.19022
  -2   6 -10 1880.60  508.79   1 0.61387-0.98390 0.52354-0.13918-0.59081-0.11203
   2  -6  10  824.64  351.10   1-0.29818 0.66956 0.33316-0.71700 0.89447-0.19389
   2   6  10  892.51  256.26   1-0.57280 0.94356 0.64810-0.26420 0.50184 0.19967
   2   7 -11 4771.61  886.01   1 0.88898-0.89588 0.29160 0.15579-0.35308-0.41606
   2  -7 -11 4497.99  770.98   1 0.49767-0.49710 0.41916-0.86757-0.75935-0.01378
   2   7 -11 4501.95  778.22   1 0.74669-0.74762 0.65026-0.20156-0.13999-0.63279
  -2  -7  11 5425.30  835.41   1-0.41199 0.41362 0.46252-0.91033 0.78507-0.01442
  -2   7  11 3714.05  738.82   1-0.65792 0.65862 0.74856-0.30049 0.08236 0.68986
   2   7 -10 1840.80  537.81   1 0.91429-0.90298 0.25387 0.19353-0.31562-0.38361
   2  -7 -10 3245.37  564.32   1 0.50359-0.48542 0.42445-0.87286-0.75248 0.04962
   2   7 -10  773.40  374.59   1 0.75127-0.73463 0.65750-0.20925-0.05717-0.64538
  -2  -7  10 1800.72  453.92   1-0.41478 0.39865 0.46569-0.91350 0.78171-0.08113
  -2   7  10 1528.30  493.18   1-0.66007 0.64307 0.75119-0.30312-0.00122 0.70325
   2   7  -913079.10 1090.25   1 0.93631-0.90680 0.21548 0.23192-0.27729-0.35201
   2  -7  -911076.69  786.47   1 0.50577-0.47002 0.42640-0.87482-0.74990 0.11733
   2   7  -912386.57  836.45   1 0.75136-0.71695 0.65910-0.21085 0.03216-0.66446
  -2  -7   911980.90  772.78   1-0.41380 0.37990 0.46457-0.91238 0.78290-0.15237
  -2   7   911965.38  950.02   1-0.65725 0.62255 0.74816-0.30009-0.09092 0.72275
  -2  -7   822645.85  993.62   1-0.95664 0.90406-0.17331-0.27463 0.23406 0.32748
   2  -7  -826215.39 1085.51   1 0.50319-0.44984 0.42410-0.87251-0.75294 0.19066
   2   7  -827847.19 1223.88   1 0.74464-0.69247 0.65483-0.20659 0.12918-0.69123
  -2  -7   828465.48 1115.42   1-0.40798 0.35632 0.45796-0.90577 0.78982-0.22935
  -2   7   828732.35 1327.39   1-0.64770 0.59497 0.73835-0.28985-0.18789 0.74965
  -2  -7   7 4884.57  494.64   1-0.97182 0.90159-0.13358-0.31436 0.19419 0.29716
   2  -7  -7 4904.12  475.29   1 0.49415-0.42321 0.41602-0.86443-0.76336 0.27137
   2   7  -7 4676.43  696.78   1 0.72848-0.65840 0.64349-0.19548 0.23499-0.72683
  -2  -7   7 5196.65  465.82   1-0.39565 0.32624 0.44395-0.89176 0.80396-0.31355
  -2   7   7 4888.54  649.16   1-0.63063 0.56024 0.71935-0.27085-0.29125 0.78279
  -2  -7   6101723.5 3052.58   1-0.98373 0.89585-0.09326-0.35468 0.15350 0.26765
   2  -7  -698301.12 2857.95   1 0.47667-0.38806 0.39947-0.84782-0.78306 0.36138
   2   7  -6101644.8 3064.99   1 0.70141-0.61356 0.62160-0.17360 0.34874-0.77032
  -2  -7   6100007.0 2881.86   1-0.37414 0.28696 0.41950-0.86731 0.82706-0.40670
  -2   7   695372.40 2965.21   1-0.60362 0.51558 0.68904-0.24053-0.40106 0.82238
   2  -7  -538920.41 1139.63   1 0.44384-0.33765 0.37025-0.81860-0.81603 0.46462
   2   7  -536908.95 1266.28   1 0.65923-0.55386 0.58731-0.13929 0.46953-0.82087
  -2  -7   538550.36 1090.75   1-0.33902 0.23408 0.37958-0.82739 0.86080-0.51050
  -2   7   538593.97 1379.27   1-0.56408 0.45833 0.64495-0.19665-0.51559 0.86675
  -2  -7   430985.16 1797.81   1-0.99750 0.87433-0.01090-0.43704 0.06975 0.21101
  -2   7   428478.52  837.16   1-0.99834 0.87607 0.05749 0.39032-0.00221 0.28309
  -2   7   432412.94  959.17   1-0.27523 0.15175 0.67975-0.23118-0.67983 0.96100
   2  -7  -431457.65 1027.04   1 0.38695-0.26317 0.31974-0.76808-0.86488 0.58376
   2   7  -433919.39 1269.90   1 0.59942-0.47623 0.53679-0.08877 0.59375-0.87482
  -2  -7   433217.25 1126.79   1-0.28296 0.16026 0.31586-0.76367 0.90562-0.62539
  -2   7   433981.23 1351.20   1-0.51035 0.38694 0.58414-0.13585-0.63111 0.91203
  -2   7   387456.42 2401.30   1-0.98671 0.84590-0.08082 0.52877 0.14091 0.06966
  -2  -7   3102110.9 3206.25   1-0.99920 0.85898 0.02983-0.47765 0.02628 0.18436
  -2   7   399803.04 2752.44   1 0.17272-0.31370 0.68378-0.23519-0.70894 0.91992
   2  -7  -398615.87 2892.89   1 0.28817-0.14671 0.23189-0.68028-0.92907 0.71811
  -2   7   384064.88 2333.72   1 0.73371-0.87468 0.63724-0.18855-0.23575 0.44651
   2   7  -3104244.4 3035.79   1 0.51931-0.37830 0.46858-0.02037 0.71466-0.92545
  -2   7   399836.00 2939.03   1-0.44079 0.29965 0.50549-0.05714-0.74173 0.95233
  -2   7   234088.44  999.02   1-0.97305 0.81458-0.12992 0.57787 0.19050-0.05011
  -2  -7   239179.39 1371.62   1-0.99718 0.83900 0.07273-0.52055-0.01796 0.15840
  -2   7   239309.15 1262.12   1 0.40738-0.56610 0.62674-0.17799-0.66425 0.80488
   2  -7  -238084.74 1108.45   1 0.11191 0.04690 0.07634-0.52408-0.99078 0.85037
  -2   7   237603.83 1097.50   1 0.72004-0.87875 0.62410-0.17540-0.30337 0.44388
   2   7  -240352.37 1364.99   1 0.41961-0.26087 0.38333 0.06476 0.82278-0.96319
  -2  -7   240994.77 1695.94   1-0.05675-0.10085 0.05840-0.50515 0.99667-0.85711
   2   7  -236908.39 1083.07   1-0.56370 0.72212 0.63774-0.18986 0.52489-0.66519
  -2  -7   167516.69 1791.45   1-0.99126 0.81512 0.11598-0.56379-0.06282 0.13303
  -2   7   169730.43 1883.16   1 0.53959-0.71560 0.57260-0.12394-0.61721 0.68742
   2  -7  -165505.66 1603.86   1-0.19566 0.37190-0.19022-0.25733-0.96204 0.89188
  -2   7   165774.81 1615.43   1 0.69625-0.87263 0.59992-0.15118-0.39410 0.46439
   2   7  -165853.50 1833.10   1 0.30712-0.13065 0.28557 0.16251 0.90781-0.97801
  -2  -7   169147.72 1727.26   1 0.13934-0.31437-0.16490-0.28094 0.97641-0.90677
   2   7  -162796.35 1564.53   1-0.49998 0.67607 0.56355-0.11560 0.65759-0.72770
  -2  -7   043150.29 1209.16   1-0.98129 0.78720 0.15934-0.60715-0.10803 0.10803
  -2   7   047348.70 1410.58   1 0.61610-0.80990 0.53231-0.08364-0.58056 0.58056
  -2  -7   041440.26 1203.54   1-0.18858-0.00519-0.18408-0.26348-0.96465 0.96465
  -2   7   039595.94  978.26   1 0.62905-0.82310 0.53835-0.08961-0.56077 0.56077
  -2   7   041281.78 1029.53   1 0.57341-0.76779 0.51492-0.06671 0.63721-0.63721
   2  -7   044271.97 1298.67   1 0.16441 0.02838-0.19351-0.25233 0.96722-0.96722
   2   7   040416.42 1031.57   1-0.38578 0.57954 0.43274 0.01506 0.81480-0.81480
  -2  -7  -111981.74 1032.94   1-0.96775 0.75594 0.20159-0.64963-0.15103 0.08077
  -2   7  -113071.33  724.47   1 0.66122-0.87281 0.50470-0.05604-0.55502 0.48482
  -2  -7  -113484.03 1389.28   1-0.07699-0.13433-0.08713-0.36042-0.99321 0.92306
  -2   7  -110668.28  332.89   1 0.41146-0.62316 0.34148 0.10686-0.84503 0.77475
   2  -7   111888.49 1141.17   1 0.07250 0.13806-0.08867-0.35717 0.99341-0.92377
   2   7   1 8665.19  579.42   1-0.20657 0.41803 0.22804 0.21953 0.95148-0.88150
   2   7   110826.14  467.67   1-0.54642 0.75810 0.62498-0.17668-0.55751 0.62774
  -2  -7  -216844.33  705.16   1-0.95018 0.72048 0.24331-0.69134-0.19482 0.05430
  -2   7  -218194.81  840.77   1 0.68705-0.91625 0.48726-0.03875-0.53899 0.39870
  -2   7  -217526.42  710.51   1 0.03431-0.26316 0.00851 0.43922-0.99937 0.85896
  -2  -7  -220441.41 1525.21   1 0.02210-0.25094-0.00215-0.44558-0.99975 0.85934
  -2   7  -218269.56  571.26   1 0.74831-0.97816 0.65397-0.20572-0.11107-0.02943
   2   7   213299.40 1005.36   1 0.00374 0.22533-0.01039 0.45713 0.99993-0.86037
   2  -7   220692.03 1707.93   1-0.00885 0.23793 0.00393-0.45068 0.99995-0.86039
   2   7   218558.52  639.31   1-0.63024 0.85956 0.71891-0.27041-0.29317 0.43361
  -2  -7  -334214.33 1049.52   1-0.92945 0.68185 0.28299-0.73102-0.23671 0.02593
   2   7   331122.86  992.62   1-0.04103 0.28826 0.69999-0.25140-0.71297 0.92395
  -2   7  -336893.67 1431.09   1 0.69989-0.94692 0.47822-0.02972-0.53051 0.32007
  -2  -7  -339170.02 2576.19   1 0.10325-0.34960 0.06876-0.51650-0.99227 0.78166
  -2   7  -337717.21 1152.86   1 0.73431-0.98171 0.63784-0.18914-0.23223 0.02147
   2   7   327637.36  842.62   1 0.17804 0.06806-0.20906 0.65491 0.96155-0.75263
   2  -7   336690.01 1296.98   1-0.07755 0.32450 0.08205-0.52879 0.99360-0.78426
   2   7   335236.76 1106.76   1-0.65709 0.90419 0.74798-0.29991-0.09350 0.30411
  -2  -7  -415638.84  575.16   1-0.90690 0.64141 0.31913-0.76717-0.27510-0.00593
   2   7   412605.14  443.11   1 0.27403-0.00906 0.66463-0.21588-0.69510 0.97637
  -2   7  -419661.70 1146.24   1 0.70368-0.96854 0.47550-0.02699-0.52794 0.24735
  -2  -7  -416777.57 1982.11   1 0.16665-0.43104 0.12492-0.57330-0.97806 0.69678
  -2   7  -417172.60  598.63   1 0.71916-0.98429 0.62326-0.17457-0.30714 0.02613
   2  -7   414149.94  456.91   1 0.40776-0.14265 0.37306-0.82116 0.83339-0.55257
   2  -7   417718.15 1992.61   1-0.13321 0.39793 0.14479-0.59236 0.98045-0.70053
   2   7   416970.63  582.00   1-0.65939 0.92418 0.75031-0.30224 0.04730 0.23351
  -2  -7  -526788.55  961.83   1-0.88587 0.60403 0.34797-0.79574-0.30682-0.04396
  -2   7  -528728.87 1398.66   1 0.70067-0.98337 0.47766-0.02916-0.52999 0.17925
  -2  -7  -528305.71 2811.99   1 0.21564-0.49759 0.16798-0.61637-0.96191 0.61031
  -2   7  -527911.90 1021.43   1 0.70409-0.98696 0.60904-0.16035-0.36512 0.01385
   2  -7   531692.55 1642.67   1-0.17622 0.45869 0.19359-0.64117 0.96512-0.61522
  -2   7  -6 2226.59  571.52   1 0.69224-0.99277 0.48365-0.03514-0.53561 0.11472
  -2  -7  -6 2710.99  379.43   1 0.25193-0.55145 0.19994-0.64833-0.94686 0.52494
  -2   7  -6 3334.61  362.69   1 0.68934-0.98944 0.59352-0.14478-0.41536-0.00634
   2   7   6 3105.83  314.63   1-0.64209 0.94199 0.72888-0.28091 0.23756 0.18367
  -2   7  -7 5093.02  840.42   1 0.67925-0.99762 0.49261-0.04410-0.54400 0.05297
  -2  -7  -7 6172.43  915.27   1 0.27787-0.59495 0.22281-0.67119-0.93441 0.44217
  -2   7  -7 6476.38  550.37   1 0.67324-0.99101 0.57869-0.12995-0.46028-0.03170
   2  -7   7 5687.66 1176.31   1-0.23212 0.55009 0.25702-0.70460 0.93811-0.44825
   2   7   7 6447.92  461.54   1-0.62891 0.94646 0.71376-0.26579 0.30823 0.18320
  -2   7  -8 1826.76  814.83   1 0.66229-0.99844 0.50401-0.05534-0.55438-0.00726
  -2  -7  -8  412.48  264.98   1 0.29542-0.63006 0.23829-0.68668-0.92516 0.36260
  -2   7  -8  697.16  304.98   1 0.65618-0.99163 0.56307-0.11433-0.50236-0.05991
   2  -7   8  964.59  297.32   1-0.24837 0.58410 0.27546-0.72304 0.92866-0.36883
   2   7   8 1257.03  345.89   1-0.61467 0.95004 0.69577-0.24789 0.37158 0.18963
  -2   7  -9 1933.13  664.18   1 0.64157-0.99551 0.51711-0.06844-0.56654-0.06530
  -2  -7  -9 1715.57  518.64   1 0.30614-0.65834 0.24775-0.69614-0.91917 0.28630
  -2   7  -9 1452.67  400.01   1 0.63800-0.99112 0.54649-0.09775-0.54249-0.09007
   2  -7   9 2184.91  679.90   1-0.25863 0.61211 0.28710-0.73468 0.92232-0.29250
   2   7   9 1416.30  373.51   1-0.59860 0.95167 0.67748-0.22960 0.42741 0.20395
  -2   7 -10 2831.07  769.71   1 0.61730-0.98904 0.53161-0.08295-0.57992-0.12212
  -2  -7 -10 1759.91  462.01   1 0.31121-0.68097 0.25224-0.70062-0.91625 0.21305
   2  -7  10 1819.90  558.11   1-0.26390 0.63513 0.29308-0.74066 0.91894-0.21914
   2   7  10  387.21  197.68   1-0.58129 0.95206 0.65777-0.20989 0.47898 0.22254
   2   8 -10 5107.91  701.98   1 0.90664-0.89533 0.26588 0.24543-0.32757-0.37165
   2   8 -10 4539.50  617.14   1 0.75175-0.73510 0.65820-0.14592-0.04050-0.66205
  -2  -8  10 6144.59  591.53   1-0.36966 0.35353 0.41441-0.92619 0.83163-0.13104
  -2   8  10 5532.92  644.36   1-0.65983 0.64283 0.75096-0.23888-0.02576 0.72780
   2  -8  -9 6379.88  640.64   1 0.45394-0.41808 0.37923-0.89163-0.80629 0.17377
   2   8  -9 4443.61  557.96   1 0.75066-0.71625 0.65879-0.14650 0.04998-0.68228
  -2  -8   9 4675.13  549.28   1-0.36498 0.33109 0.40909-0.92088 0.83631-0.20578
  -2   8   9 3792.07  932.70   1-0.65547 0.62077 0.74619-0.23411-0.11638 0.74821
   2   8  -812284.60  996.55   1 0.94668-0.89896 0.19482 0.31649-0.25658-0.30279
   2  -8  -813815.56 1014.46   1 0.44603-0.39259 0.37220-0.88459-0.81395 0.25170
   2   8  -814687.11 1178.49   1 0.74257-0.69039 0.65332-0.14104 0.14750-0.70954
  -2  -8   814234.17 1025.55   1-0.35461 0.30296 0.39731-0.90909 0.84639-0.28592
  -2   8   816036.23 1309.67   1-0.64420 0.59147 0.73447-0.22189-0.21343 0.77519
  -2  -8   720063.91 1081.90   1-0.96361 0.89338-0.15620-0.35574 0.21691 0.27444
   2  -8  -718179.57  971.16   1 0.43009-0.35906 0.35803-0.87042-0.82875 0.33678
   2   8  -717193.96 1066.14   1 0.72495-0.65487 0.64070-0.12869 0.25285-0.74469
  -2  -8   717084.57  901.46   1-0.33669 0.26727 0.37694-0.88872 0.86287-0.37246
  -2   8   717426.16 1171.31   1-0.62546 0.55507 0.71356-0.20099-0.31560 0.80714
   2  -8  -611929.22  736.14   1 0.40270-0.31409 0.33370-0.84610-0.85233 0.43064
   2   8  -612361.90  944.62   1 0.69673-0.60889 0.61776-0.10575 0.36459-0.78617
  -2  -8   612168.97  766.19   1-0.30839 0.22121 0.34477-0.85656 0.88657-0.46622
  -2   8   6 9242.25  793.03   1-0.59717 0.50912 0.68177-0.16919-0.42258 0.84389
  -2  -8   555610.80 1874.68   1-0.98583 0.88030-0.08467-0.42727 0.14481 0.20615
   2  -8  -555204.19 1664.80   1 0.35815-0.25195 0.29421-0.80661-0.88609 0.53469
   2   8  -556097.73 1865.52   1 0.65427-0.54889 0.58315-0.07112 0.48152-0.83285
  -2  -8   558165.77 1752.64   1-0.26641 0.16147 0.29593-0.80745 0.91730-0.56740
  -2   8   558198.03 1998.93   1-0.55726 0.45151 0.63724-0.12490-0.53232 0.88347
  -2  -8   417861.16  713.70   1-0.99284 0.86966-0.04922-0.46272 0.10883 0.17194
  -2   8   414150.50  576.06   1-0.97008 0.84774 0.19519 0.31684-0.14432 0.42536
  -2   8   415691.60  459.03   1-0.16053 0.03706 0.69436-0.18171-0.70148 0.98265
   2  -8  -417772.94  713.44   1 0.28747-0.16358 0.23128-0.74372-0.92944 0.64816
   2   8  -417285.72  831.74   1 0.59597-0.47279 0.53386-0.02184 0.59983-0.88090
  -2  -8   417834.16 1040.80   1-0.20237 0.07968 0.22327-0.73479 0.95351-0.67359
  -2   8   418988.28 1074.67   1-0.50490 0.38149 0.57796-0.06562-0.64111 0.92203
  -2  -8   321806.24 1631.91   1-0.99721 0.85639-0.01424-0.49769 0.07317 0.13740
  -2   8   316901.59  511.95   1-0.99913 0.85891 0.03686 0.47492 0.01905 0.19160
  -2   8   320375.11  667.96   1 0.23664-0.37765 0.67265-0.15979-0.70109 0.91205
   2  -8  -320055.86  725.25   1 0.17298-0.03152 0.13047-0.64292-0.97624 0.76528
   2   8  -320379.68  904.51   1 0.52018-0.37917 0.46933 0.04290 0.71353-0.92432
  -2  -8   316710.52 1110.06   1-0.10839-0.03134 0.11711-0.62767 0.98718-0.77784
  -2   8   319854.13  903.04   1-0.43920 0.29806 0.50369 0.00871-0.74390 0.95450
  -2  -8   226322.71 1483.66   1-0.99912 0.84094 0.01936-0.53115 0.03705 0.10337
  -2   8   226945.41  951.79   1 0.43870-0.59742 0.61557-0.10271-0.65468 0.79531
   2  -8  -228364.45 1081.11   1-0.00720 0.16603-0.02771-0.48398-0.99958 0.85918
  -2   8   225252.88  816.03   1 0.70972-0.86843 0.61433-0.10154-0.34479 0.48530
   2   8  -226182.51 1031.87   1 0.42807-0.26933 0.39065 0.12145 0.81494-0.95535
  -2  -8   228251.74 1533.06   1 0.02343-0.18104-0.03279-0.47777 0.99918-0.85962
  -2  -8   137589.16 1243.03   1-0.99859 0.82245 0.05298-0.56477 0.00243 0.06778
  -2   8   138386.37 1292.22   1 0.55449-0.73050 0.56534-0.05257-0.61067 0.68087
  -2   8   137868.58 1121.45   1 0.68116-0.85754 0.58598-0.07313-0.43890 0.50918
   2   8  -136368.13 1303.30   1 0.32578-0.14931 0.30183 0.21027 0.89596-0.96617
  -2   8   137279.54 1122.48   1 0.27827-0.45474 0.26041 0.25169 0.92452-0.85431
  -2  -8   137402.60 1125.74   1 0.19197-0.36700-0.22497-0.28456 0.95526-0.88562
   2   8  -130321.80  921.91   1-0.48977 0.66587 0.55196-0.04001 0.67487-0.74498
  -2  -8   032551.30 1144.58   1-0.99591 0.80181 0.08499-0.59678-0.03065 0.03065
  -2   8   031192.75 1160.97   1 0.62281-0.81661 0.52840-0.01563-0.57696 0.57696
  -2  -8   032617.68 1140.09   1-0.21822 0.02444-0.20977-0.30171-0.95308 0.95308
  -2   8   030302.35  887.42   1 0.61545-0.80950 0.52601-0.01316-0.58696 0.58696
  -2   8   030331.35  907.56   1 0.56427-0.75865 0.50712 0.00511 0.65147-0.65147
   2  -8   031097.28 1081.69   1 0.18778 0.00500-0.22018-0.28934 0.95721-0.95721
   2   8   027993.35  853.18   1-0.39355 0.58730 0.44156 0.07022 0.80631-0.80631
   2   8   029889.09  972.66   1-0.38062 0.57464 0.43705 0.07534-0.81492 0.81492
  -2  -8  -163684.25 2005.19   1-0.99151 0.77946 0.11459-0.62638-0.06137-0.00884
  -2   8  -170329.75 2233.66   1 0.66383-0.87543 0.50300 0.00975-0.55344 0.48323
  -2  -8  -165768.14 2500.98   1-0.11601-0.09531-0.12107-0.39042-0.98584 0.91568
  -2   8  -153766.38 1510.12   1 0.46119-0.67289 0.38569 0.12670-0.79908 0.72880
  -2   8  -164382.53 1818.52   1 0.72422-0.93640 0.64011-0.12810 0.25643-0.32669
   2  -8   170972.77 2181.90   1 0.10440 0.10616-0.12504-0.38449 0.98664-0.91700
   2   8   153487.06 1557.73   1-0.25530 0.46676 0.28332 0.22818 0.92441-0.85443
   2   8   169522.16 2032.33   1-0.52854 0.74023 0.60475-0.09241-0.59574 0.66597
  -2  -8  -2  582.22  142.20   1-0.98610 0.75610 0.14059-0.65238-0.08845-0.05198
  -2   8  -2  934.10  754.41   1 0.68769-0.91689 0.48682 0.02575-0.53858 0.39829
  -2  -8  -2 1121.09  309.52   1-0.02333-0.20551-0.04177-0.46992-0.99885 0.85844
  -2   8  -2  262.09   61.91   1 0.18971-0.41897 0.14517 0.36726-0.97104 0.83040
  -2   8  -2  636.04  179.37   1 0.75204-0.98188 0.65880-0.14651-0.02039-0.12011
   2  -8   2 1242.56  378.40   1 0.02937 0.19970-0.03955-0.47101 0.99878-0.85922
   2   8   2  559.18  117.29   1-0.08836 0.31744 0.09434 0.41622 0.99161-0.85204
   2   8   2 1866.66  361.31   1-0.61421 0.84353 0.70094-0.18836-0.36251 0.50295
  -2  -8  -356427.28 1684.77   1-0.98080 0.73284 0.16110-0.67289-0.10988-0.10077
  -2   8  -359309.48 1972.24   1 0.69969-0.94673 0.47836 0.03420-0.53064 0.32020
  -2  -8  -354233.95 2060.55   1 0.05447-0.30082 0.02611-0.53781-0.99817 0.78756
  -2   8  -359542.96 1682.11   1 0.74294-0.99034 0.64640-0.13360-0.17375-0.03700
   2  -8   361433.19 2501.52   1-0.03561 0.28255 0.03437-0.54493 0.99877-0.78943
   2   8   358460.36 1718.15   1-0.65084 0.89793 0.74100-0.22892-0.16529 0.37590
  -2  -8  -436234.70 1211.34   1-0.97831 0.71282 0.17012-0.68216-0.11815-0.16288
  -2   8  -436300.05 1507.28   1 0.70329-0.96815 0.47578 0.03679-0.52821 0.24762
  -2  -8  -440005.87 3370.84   1 0.11776-0.38162 0.08146-0.59317-0.98969 0.70887
   2  -8   440063.35 2325.68   1-0.08931 0.35412 0.09542-0.60598 0.99142-0.71229
   2   8   436541.22 1273.28   1-0.65998 0.92478 0.75112-0.23904-0.01521 0.29602
  -2   8  -5 1813.60  539.82   1 0.70046-0.98316 0.47781 0.03475-0.53013 0.17939
  -2  -8  -5 1609.69  272.83   1 0.16669-0.44864 0.12494-0.63739-0.97806 0.62646
  -2   8  -5 2574.45  323.38   1 0.71167-0.99454 0.61617-0.10338-0.33741-0.01385
   2  -8   5 2460.95  446.41   1-0.13263 0.41510 0.14412-0.65564 0.98062-0.63073
   2   8   5 1310.88  257.83   1-0.65743 0.93967 0.74656-0.23459 0.10208 0.24894
  -2   8  -623993.23 1364.37   1 0.69245-0.99298 0.48350 0.02907-0.53547 0.11458
  -2  -8  -623277.22 2172.80   1 0.20461-0.50412 0.15828-0.67072-0.96595 0.54404
  -2   8  -626684.58 1008.63   1 0.69579-0.99589 0.59950-0.08665-0.39555-0.02615
   2  -8   627756.16 2201.61   1-0.16597 0.46619 0.18196-0.69347 0.96919-0.54931
   2   8   623050.08  895.17   1-0.64821 0.94810 0.73591-0.22395 0.19555 0.22568
  -2   8  -7  607.67  479.86   1 0.68004-0.99841 0.49207 0.02050-0.54350 0.05247
  -2  -8  -7 1245.26  465.95   1 0.23259-0.54966 0.18290-0.69535-0.95521 0.46298
  -2   8  -7  847.63  268.45   1 0.67864-0.99642 0.58366-0.07081-0.44583-0.04615
   2  -8   7  690.62  279.43   1-0.19097 0.50894 0.21033-0.72185 0.95879-0.46893
   2   8   7 1348.84  363.21   1-0.63575 0.95330 0.72160-0.20964 0.27404 0.21740
  -2   8  -8 4575.71  800.95   1 0.66377-0.99991 0.50305 0.00971-0.55348-0.00815
  -2  -8  -8 3762.70  901.94   1 0.25229-0.58693 0.20026-0.71270-0.94670 0.38414
   2  -8   8 4070.63  534.36   1-0.20891 0.54464 0.23069-0.74221 0.95033-0.39049
   2   8   8 5471.99  539.84   1-0.62167 0.95704 0.70375-0.19188 0.34388 0.21733
  -2   8  -9 3274.03  719.24   1 0.64383-0.99777 0.51572-0.00295-0.56525-0.06659
  -2  -8  -9 1919.04  565.11   1 0.26510-0.61730 0.21155-0.72399-0.94072 0.30784
   2   9 -10  712.40  479.61   1 0.89721-0.88591 0.27993 0.29529-0.34152-0.35771
   2  -9 -10 1463.47  453.56   1 0.40339-0.38511 0.33432-0.91076-0.85176 0.14895
   2   9 -10 1164.94  494.03   1 0.75194-0.73530 0.65855-0.08223-0.02982-0.67273
  -2  -9  10  906.92  358.71   1-0.32189 0.30577 0.36012-0.93588 0.87561-0.17502
  -2   9  10  389.38  384.15   1-0.65938 0.64238 0.75049-0.17440-0.04423 0.74626
   2   9  -9  979.68  653.00   1 0.91830-0.88879 0.24733 0.32789-0.30910-0.32020
   2  -9  -9  747.89  275.29   1 0.39700-0.36114 0.32865-0.90509-0.85695 0.22442
   2   9  -9  529.86  371.88   1 0.75009-0.71568 0.65848-0.08216 0.06126-0.69356
  -2  -9   9  682.63  297.28   1-0.31360 0.27971 0.35069-0.92645 0.88242-0.25189
  -2   9   9 1152.59  465.52   1-0.65389 0.61919 0.74441-0.16832-0.13515 0.76698
   2   9  -8  -22.97  459.24   1 0.93663-0.88892 0.21485 0.36038-0.27666-0.28272
   2  -9  -8  580.14  276.36   1 0.38360-0.33016 0.31676-0.89321-0.86746 0.30522
   2   9  -8  455.45  335.98   1 0.74056-0.68824 0.65283-0.07682 0.15929-0.72140
  -2  -9   8  480.36  211.06   1-0.29892 0.24727 0.33400-0.90976 0.89391-0.33344
  -2   9   8 1060.14  496.11   1-0.64141 0.58868 0.73138-0.15473-0.23165 0.79341
   2   9  -7 3819.67  832.17   1 0.95234-0.88642 0.18261 0.39262-0.24432-0.24514
   2  -9  -7 4308.26  938.20   1 0.36080-0.28978 0.29656-0.87301-0.88423 0.39226
   2   9  -7 2753.21  613.95   1 0.72281-0.65273 0.63898-0.06297 0.26312-0.75496
  -2   9   7 3117.01  716.84   1-0.62170 0.55131 0.70934-0.13269-0.33214 0.82367
  -2  -9   6 1333.66  360.79   1-0.96659 0.87871-0.14833-0.42760 0.20901 0.21214
   2  -9  -6 1773.26  314.89   1 0.32493-0.23632 0.26483-0.84127-0.90789 0.48621
   2   9  -6 1461.53  411.88   1 0.69430-0.60645 0.61575-0.03974 0.37254-0.79412
  -2  -9   6 2645.66  495.66   1-0.24291 0.15571 0.26927-0.84472 0.93192-0.51204
  -2   9   6  865.38  464.16   1-0.59264 0.50455 0.67719-0.10081-0.43609 0.85747
  -2  -9   5  339.24  236.36   1-0.97707 0.87154-0.11724-0.45869 0.17772 0.17323
   2  -9  -5  535.52  144.02   1 0.27095-0.16461 0.21670-0.79320-0.93788 0.58628
   2   9  -5  280.90  332.17   1 0.65250-0.54713 0.58166-0.00564 0.48569-0.83702
  -2  -9   5  548.67  201.47   1-0.19407 0.08912 0.21385-0.78930 0.95739-0.60749
  -2   9   5  891.01  452.57   1-0.55352 0.44777 0.63301-0.05663-0.54119 0.89235
  -2  -9   4 3020.29  481.57   1-0.98525 0.86208-0.08708-0.48885 0.14725 0.13352
  -2   9   4 1680.32  168.13   1-0.08296-0.04051 0.69875-0.12201-0.71053 0.99170
   2  -9  -4 2138.04  245.78   1 0.18873-0.06483 0.14432-0.72081-0.97136 0.69008
   2   9  -4 1281.65  391.43   1 0.59656-0.47337 0.53436 0.04166 0.59880-0.87987
  -2  -9   4 1552.11  248.63   1-0.12537 0.00267 0.13588-0.71134 0.98275-0.70284
  -2   9   4 1908.15  449.42   1-0.50322 0.37981 0.57606 0.00031-0.64414 0.92506
  -2  -9   3 3561.26  341.24   1-0.99131 0.85049-0.05818-0.51775 0.11793 0.09264
   2  -9  -3 3156.10  437.72   1 0.06769 0.07362 0.03767-0.61333-0.99699 0.78638
   2   9  -3 3531.64  473.50   1 0.52545-0.38444 0.47385 0.10241 0.70665-0.91745
  -2  -9   3 3529.19  469.80   1-0.03122-0.10851 0.02938-0.60376 0.99908-0.78973
  -2   9   3 4187.67  604.70   1-0.44161 0.30046 0.50642 0.07003-0.74061 0.95121
  -2  -9   225654.36  978.96   1-0.99543 0.83697-0.03099-0.54494 0.09026 0.05012
  -2   9   226764.66  958.83   1 0.45332-0.61154 0.60979-0.03293-0.65011 0.79052
   2  -9  -227467.77  988.98   1-0.11091 0.26960-0.11664-0.45879-0.98696 0.84665
   2   9  -226741.95 1110.33   1 0.44124-0.28244 0.40129 0.17497 0.80266-0.94319
  -2  -9   225658.88 1569.62   1 0.09077-0.24803-0.10950-0.46372 0.98983-0.85055
  -2   9   225063.93 1117.95   1-0.37091 0.21214 0.42601 0.15044-0.82518 0.96558
  -2  -9   138384.24 1453.27   1-0.99798 0.82184-0.00609-0.56966 0.06318 0.00703
  -2   9   136770.20 1251.43   1 0.55754-0.73355 0.56382 0.01303-0.60930 0.67950
  -2   9   133516.25 1003.64   1 0.34268-0.51915 0.31654 0.25957 0.88451-0.81430
   2   9  -134743.94 1288.81   1 0.34715-0.17068 0.32043 0.25569 0.88136-0.95157
  -2  -9   0 7487.06 1129.32   1-0.99905 0.80496 0.01618-0.59195 0.04032-0.04032
  -2   9   0 9563.46  645.64   1 0.62083-0.81464 0.52956 0.04729-0.57803 0.57803
  -2   9   0 8631.78  347.34   1 0.57226-0.76663 0.51393 0.06232 0.63904-0.63904
   2   9   0 8817.72  471.53   1-0.39551 0.58953 0.45399 0.12245-0.79840 0.79840
  -2  -9  -144569.71 1491.72   1-0.99917 0.78712 0.03410-0.60987 0.02189-0.09211
  -2   9  -147976.69 1658.46   1 0.65957-0.87116 0.50577 0.07108-0.55601 0.48581
  -2  -9  -145191.06 1476.39   1-0.15498-0.05633-0.15492-0.42050-0.97569 0.90553
  -2   9  -143538.05 1225.81   1 0.71323-0.92542 0.63126-0.05525 0.30461-0.37488
   2  -9   143253.27 1405.31   1 0.13580 0.07475-0.16086-0.41236 0.97758-0.90794
   2   9   145842.83 1386.21   1-0.52189 0.73358 0.59722-0.02084-0.60905 0.67928
  -2  -9  -238625.79 1328.96   1-0.99890 0.76890 0.04564-0.62141 0.01000-0.15043
  -2   9  -239857.43 1690.81   1 0.68253-0.91173 0.49038 0.08626-0.54191 0.40162
  -2  -9  -242788.62 1796.49   1-0.06815-0.16069-0.08081-0.49485-0.99439 0.85398
  -2   9  -239669.18 1283.90   1 0.75129-0.98114 0.65907-0.08276 0.03413-0.17464
   2  -9   244541.28 2088.38   1 0.06588 0.16245-0.08112-0.49210 0.99452-0.85524
   2   9   241676.66 1419.54   1-0.60344 0.83276 0.68883-0.11218-0.40170 0.54214
  -2  -9  -3 5257.31  787.85   1-0.99884 0.75088 0.04732-0.62309 0.00827-0.21893
  -2   9  -3 6509.51  617.09   1 0.69437-0.94140 0.48215 0.09449-0.53420 0.32375
  -2  -9  -310143.59 1119.56   1 0.00627-0.25263-0.01595-0.55970-0.99985 0.78924
  -2   9  -3 7595.55  369.70   1 0.74707-0.99447 0.65066-0.07377-0.13605-0.07470
   2  -9   3 9167.31  812.24   1 0.00501 0.24193-0.01183-0.56254 0.99991-0.79057
   2   9   3 8065.62  431.52   1-0.64391 0.89090 0.73415-0.15751-0.21535 0.42601
  -2   9  -424506.60 1429.25   1 0.69821-0.96307 0.47942 0.09722-0.53164 0.25105
  -2  -9  -424210.57 2579.41   1 0.06831-0.33216 0.03820-0.61387-0.99693 0.71611
   2  -9   422589.33 2084.01   1-0.04689 0.31170 0.04719-0.62158 0.99778-0.71866
   2   9   422908.58 1027.33   1-0.65879 0.92358 0.74985-0.17376-0.06093 0.34174
  -2   9  -525168.52 1390.30   1 0.69585-0.97855 0.48110 0.09554-0.53321 0.18247
  -2  -9  -520193.61 2155.28   1 0.11833-0.39969 0.08196-0.65762-0.98958 0.63856
   2  -9   522280.54 2309.72   1-0.08938 0.37206 0.09550-0.66989 0.99140-0.64250
   2   9   524045.73  891.46   1-0.65888 0.94138 0.74970-0.17361 0.06177 0.28923
  -2   9  -6 1764.44  574.75   1 0.68845-0.98898 0.48629 0.09035-0.53809 0.11720
  -2  -9  -6 1549.35  448.65   1 0.15655-0.45607 0.11605-0.69254-0.98082 0.55890
   2  -9   6  580.00  279.00   1-0.12351 0.42374 0.13378-0.70923 0.98328-0.56340
   2   9   6  919.87  259.52   1-0.65210 0.95199 0.74039-0.16443 0.16303 0.25819
  -2   9  -710668.93 1191.43   1 0.67674-0.99510 0.49430 0.08234-0.54559 0.05456
  -2  -9  -7 7879.18 1194.37   1 0.18619-0.50327 0.14209-0.71858-0.97218 0.47994
   2  -9   7 8187.88 1242.21   1-0.14959 0.46756 0.16337-0.73882 0.97515-0.48529
  -2   9  -8 1505.16  788.89   1 0.66122-0.99737 0.50470 0.07215-0.55502-0.00661
  -2  -9  -8  864.63  342.27   1 0.20776-0.54239 0.16105-0.73755-0.96482 0.40227
   2  -9   8 1178.64  329.13   1-0.16889 0.50461 0.18527-0.76073 0.96806-0.40822
   2  10  -9 1937.81  827.81   1 0.90671-0.87720 0.26578 0.37336-0.32746-0.30184
   2 -10  -9  751.38  350.40   1 0.33623-0.30037 0.27482-0.91531-0.90078 0.26825
   2  10  -9  671.42  327.79   1 0.74982-0.71541 0.65832-0.01797 0.06616-0.69847
  -2 -10   9  267.85  177.59   1-0.26117 0.22723 0.28998-0.92938 0.92070-0.29088
  -2  10   9 1170.60  444.77   1-0.65270 0.61801 0.74309-0.10299-0.14756 0.77939
   2  10  -8  884.16  613.80   1 0.92485-0.87713 0.23625 0.40290-0.29805-0.26133
   2 -10  -8  245.99  181.47   1 0.31744-0.26400 0.25820-0.89870-0.91244 0.35020
   2  10  -8  375.92  311.17   1 0.73996-0.68764 0.65238-0.01237 0.16383-0.72593
  -2 -10   8  453.58  337.34   1-0.24257 0.19088 0.26888-0.90827 0.93212-0.37228
  -2  10   8  974.88  443.47   1-0.63954 0.58681 0.72930-0.08858-0.24309 0.80485
   2  10  -7 1315.45  496.26   1 0.94053-0.87461 0.20730 0.43184-0.26910-0.22035
   2 -10  -7  154.98  126.57   1 0.28879-0.21758 0.23244-0.87299-0.92874 0.43650
   2  10  -7 1247.28  525.54   1 0.72212-0.65204 0.63843 0.00157 0.26634-0.75818
  -2 -10   7  485.83  187.21   1-0.21525 0.14581 0.23789-0.87728 0.94713-0.45727
  -2  10   7  602.43  428.03   1-0.61944 0.54905 0.70681-0.06609-0.34163 0.83317
   2 -10  -6 1569.89  414.26   1 0.24543-0.15666 0.19421-0.83477-0.94975 0.52783
   2  10  -6 2510.32  763.42   1 0.69405-0.60620 0.61554 0.02446 0.37335-0.79493
  -2 -10   6 1730.90  486.53   1-0.17678 0.08958 0.19423-0.83362 0.96489-0.54501
  -2  10   6 2455.55  753.37   1-0.59055 0.50246 0.67483-0.03441-0.44253 0.86391
  -2 -10   5 6984.45  499.76   1-0.96595 0.86043-0.15004-0.48988 0.21073 0.14023
   2 -10  -5 4228.35  821.15   1 0.18264-0.07631 0.13897-0.77952-0.97330 0.62170
   2  10  -5 5615.12 1017.33   1 0.65365-0.54828 0.58263 0.05739 0.48298-0.83432
  -2 -10   5 4509.57  791.01   1-0.12398 0.01904 0.13431-0.77371 0.98315-0.63325
  -2  10   5 6555.94  621.32   1-0.55257 0.44681 0.63193 0.00848-0.54343 0.89458
  -2 -10   411414.14  649.65   1-0.97478 0.85161-0.12457-0.51535 0.18511 0.09566
   2 -10  -4 8178.76 1110.36   1 0.09448 0.02933 0.06109-0.70071-0.99365 0.71283
   2  10  -4 9945.03  700.57   1 0.60060-0.47742 0.53780 0.10222 0.59163-0.87270
  -2 -10   4 9010.20 1136.29   1-0.05329-0.06857 0.05448-0.69268 0.99709-0.71796
  -2  10   412163.82  938.92   1-0.50475 0.38134 0.57779 0.06262-0.64138 0.92230
  -2 -10   311555.83  720.28   1-0.98172 0.84090-0.10099-0.53893 0.16132 0.04926
  -2  10   3 9895.68  537.25   1 0.28636-0.42737 0.66174-0.02067-0.69288 0.90383
   2 -10  -3 9124.66 1029.49   1-0.03062 0.17194-0.04812-0.59149-0.99837 0.78775
   2  10  -311980.06  832.25   1 0.53429-0.39328 0.48144 0.15885 0.69479-0.90558
  -2 -10   3 9136.16 1177.25   1 0.03835-0.17809-0.04976-0.58844 0.99802-0.78868
  -2  10   310714.96  877.49   1-0.44724 0.30609 0.51282 0.12768-0.73279 0.94339
  -2 -10   2 3772.86  815.24   1-0.98692 0.82846-0.07988-0.56004 0.13996 0.00042
  -2  10   2 6065.06  520.83   1 0.45348-0.61170 0.60972 0.03122-0.65006 0.79047
   2 -10  -2 4951.27  331.54   1-0.19939 0.35807-0.19345-0.44591-0.96063 0.82032
   2  10  -2 3614.71  475.63   1 0.45676-0.29797 0.41471 0.22558 0.78700-0.92753
  -2 -10   2 5781.60  390.20   1 0.15045-0.30770-0.17757-0.45934 0.97253-0.83325
  -2  10   2 4107.18  650.66   1-0.38219 0.22342 0.43884 0.20166-0.81323 0.95363
  -2 -10   1 5800.74  993.23   1-0.99060 0.81449-0.06206-0.57786 0.12188-0.05168
  -2  10   1 6959.09  631.09   1 0.55130-0.72730 0.56692 0.07403-0.61209 0.68230
  -2  10   1 5839.63  367.17   1 0.40008-0.57654 0.36640 0.27373 0.84004-0.76984
   2  10  -1 5613.93  524.98   1 0.37061-0.19414 0.34082 0.29930 0.86398-0.93419
  -2 -10   011670.82 1464.43   1-0.99293 0.79917-0.04866-0.59126 0.10826-0.10826
  -2  10   015086.26  927.99   1 0.61182-0.80563 0.53477 0.10618-0.58282 0.58282
   2  10   013887.98  931.20   1 0.28226-0.08806 0.26389 0.37624 0.92232-0.92232
   2  10   014743.28  838.24   1-0.41402 0.60804 0.47505 0.16545-0.77647 0.77647
  -2 -10  -114222.01  790.81   1-0.99403 0.78263-0.04141-0.59851 0.10088-0.17108
  -2  10  -116710.01 1086.62   1 0.64957-0.86116 0.51213 0.12881-0.56193 0.49172
  -2 -10  -116885.02  991.73   1-0.19394-0.01738-0.18872-0.45064-0.96268 0.89253
   2 -10   114371.01  859.98   1 0.16683 0.04373-0.19627-0.44065 0.96625-0.89661
   2  10   116091.32  873.05   1-0.52299 0.73467 0.59846 0.04195-0.60688 0.67711
  -2 -10  -2 7892.86 1226.17   1-0.99377 0.76472-0.04318-0.59674 0.10268-0.24307
  -2  10  -214502.37 1050.17   1 0.67242-0.90162 0.49720 0.14352-0.54829 0.40800
  -2 -10  -212400.59 1561.90   1-0.11356-0.11531-0.11893-0.52043-0.98638 0.84607
   2 -10   212939.76  742.22   1 0.10190 0.12643-0.12219-0.51473 0.98726-0.84797
   2  10   211750.11  627.09   1-0.59766 0.82700 0.68284-0.04242-0.42013 0.56059
  -2 -10  -3 3332.82  733.67   1-0.99112 0.74442-0.05925-0.58067 0.11902-0.32960
  -2  10  -3 5281.16  842.97   1 0.68461-0.93165 0.48894 0.15177-0.54057 0.33013
  -2 -10  -3 5883.50  759.59   1-0.04141-0.20493-0.05753-0.58209-0.99748 0.78687
   2 -10   3 6858.29  703.58   1 0.04454 0.20239-0.05681-0.58139 0.99739-0.78804
   2  10   3 5644.21  949.65   1-0.63945 0.88643 0.72919-0.08847-0.24365 0.45431
  -2  10  -411520.90 1033.36   1 0.68902-0.95389 0.48589 0.15482-0.53771 0.25712
  -2 -10  -4 9854.54 1276.02   1 0.01906-0.28292-0.00480-0.63482-0.99980 0.71899
   2 -10   4 9299.32 1200.79   1-0.00540 0.27022 0.00002-0.63822 0.99998-0.72086
  -2  10  -5 4003.18  917.27   1 0.68736-0.97006 0.48705 0.15366-0.53880 0.18806
  -2 -10  -5 3235.68  882.34   1 0.06891-0.35028 0.03873-0.67836-0.99687 0.64585
   2 -10   5 3685.92  977.90   1-0.04715 0.32984 0.04749-0.68570 0.99775-0.64885
  -2  10  -6 9871.49 1142.93   1 0.68071-0.98124 0.49162 0.14909-0.54308 0.12219
  -2 -10  -6 8366.12 1322.57   1 0.10883-0.40770 0.07364-0.71327-0.99132 0.57010
  -2  10  -7  318.02  645.64   1 0.66980-0.98816 0.49908 0.14186-0.54978 0.05835
  -2 -10  -7  103.19  228.53   1 0.13882-0.45590 0.10048-0.74103-0.98520 0.49296
   2 -10   7  840.40  344.48   1-0.10779 0.42621 0.11642-0.75463 0.98733-0.49886
  -2  10  -8 3702.49  849.18   1 0.65505-0.99120 0.50866 0.13228-0.55870-0.00293
  -2 -10  -8 3979.48 1261.03   1 0.16196-0.49659 0.12079-0.76135-0.97937 0.41681
   2 -10   8 2929.98  888.65   1-0.12842 0.46415 0.13935-0.77874 0.98187-0.42204
   2  11  -8 1532.42  662.37   1 0.91118-0.86347 0.25881 0.44425-0.32054-0.23884
   2 -11  -8  530.31  236.17   1 0.24875-0.19510 0.19713-0.90174-0.94829 0.38573
   2  11  -8 1059.06  466.30   1 0.74022-0.68790 0.65258 0.05143 0.16187-0.72397
  -2 -11   8 1095.57  351.53   1-0.18424 0.13255 0.20269-0.90603 0.96175-0.40191
  -2  11   8 1952.00  793.28   1-0.63867 0.58594 0.72832-0.02353-0.24824 0.81000
   2  11  -7  938.97  417.46   1 0.92675-0.86084 0.23292 0.47014-0.29473-0.19473
   2 -11  -7  490.29  155.05   1 0.21368-0.14247 0.16626-0.87087-0.96265 0.47041
   2  11  -7 1074.24  366.89   1 0.72285-0.65277 0.63902 0.06499 0.26291-0.75475
  -2 -11   7  272.39  186.61   1-0.15341 0.08397 0.16771-0.87104 0.97382-0.48396
  -2  11   7  261.90  385.86   1-0.61868 0.54829 0.70596-0.00117-0.34474 0.83628
   2  11  -6 1187.42  460.53   1 0.94009-0.85597 0.20816 0.49490-0.26996-0.14957
   2 -11  -6 1479.66  387.20   1 0.16396-0.07519 0.12255-0.82716-0.97882 0.55690
   2  11  -6 1118.07  445.20   1 0.69582-0.60797 0.61701 0.08700 0.36759-0.78917
  -2 -11   6 1362.03  404.40   1-0.11166 0.02552 0.12081-0.82284 0.98637-0.56769
  -2  11   6 3931.46  775.59   1-0.59048 0.50239 0.67475 0.02970-0.44274 0.86413
   2 -11  -5 2836.18  725.96   1 0.09639 0.00991 0.06276-0.76635-0.99336 0.64234
   2  11  -5 3800.20  830.02   1 0.65737-0.55200 0.58575 0.11827 0.47407-0.82541
  -2 -11   5 2785.37  760.43   1-0.05667-0.04732 0.05832-0.76035 0.99668-0.64778
  -2  11   5 4424.01  714.32   1-0.55407 0.44832 0.63363 0.07082-0.53991 0.89106
  -2 -11   4  326.54  222.62   1-0.96142 0.83825-0.16176-0.54216 0.22248 0.05828
   2 -11  -4  140.74  106.65   1 0.00250 0.12130-0.01924-0.68434-0.99981 0.71899
   2  11  -4  629.11  461.89   1 0.60758-0.48439 0.54372 0.16030 0.57896-0.86003
  -2 -11   4  321.18  152.73   1 0.01399-0.13587-0.02205-0.67997 0.99965-0.72053
  -2  11   4  249.78  367.81   1-0.50897 0.38556 0.58258 0.12188-0.63367 0.91459
  -2 -11   3 7700.55  619.41   1-0.96858 0.82776-0.14289-0.56103 0.20354 0.00703
   2  11  -3 5437.35  602.84   1 0.54606-0.40505 0.49153 0.21279 0.67838-0.88918
  -2 -11   3 7741.32  585.49   1 0.10079-0.24028-0.12092-0.57968 0.98753-0.77860
  -2  11   3 9601.03  958.85   1-0.45547 0.31432 0.52217 0.18238-0.72102 0.93163
  -2 -11   2  748.95  256.64   1-0.97397 0.81550-0.12711-0.57681 0.18767-0.04728
  -2  11   2  632.05  347.25   1 0.44205-0.60077 0.61432 0.09085-0.65360 0.79423
   2  11  -2  674.08  315.57   1 0.47476-0.31596 0.43023 0.27408 0.76778-0.90831
  -2  11   2 1122.04  536.89   1-0.39559 0.23682 0.45409 0.25046-0.79831 0.93871
  -2 -11   1 3517.40  522.75   1-0.97763 0.80152-0.11536-0.58855 0.17583-0.10564
  -2  11   1 2570.19  526.62   1 0.53733-0.71334 0.57368 0.13136-0.61818 0.68839
   2  11  -1 2227.61  471.38   1 0.39573-0.21926 0.36263 0.34151 0.84373-0.91394
  -2 -11   0 1976.75  354.63   1-0.97949 0.78573-0.10901-0.59490 0.16943-0.16943
  -2  11   0 2368.18  475.08   1 0.59680-0.79060 0.54320 0.16184-0.59055 0.59055
   2  11   0 2246.80  509.23   1 0.31459-0.12040 0.29209 0.41205 0.90316-0.90316
   2  11   0 1975.45  337.82   1-0.43485 0.62887 0.49874 0.20581-0.74976 0.74976
  -2 -11  -1 8198.84  444.84   1-0.97916 0.76776-0.11014-0.59377 0.17057-0.24076
  -2  11  -110134.94  710.43   1 0.63455-0.84615 0.52140 0.18364-0.57050 0.50030
  -2 -11  -1 8532.37  539.24   1-0.23290 0.02157-0.22249-0.48082-0.94670 0.87655
   2 -11   1 8811.79  580.41   1 0.19756 0.01300-0.23134-0.46926 0.95260-0.88295
  -2 -11  -2 5711.34  458.96   1-0.97552 0.74647-0.12225-0.58166 0.18277-0.32316
  -2  11  -2 7299.95  817.62   1 0.65781-0.88720 0.50690 0.19814-0.55706 0.41665
  -2 -11  -2 8140.85  678.24   1-0.15752-0.07134-0.15713-0.54617-0.97493 0.83462
   2 -11   2 8442.24  724.78   1 0.13715 0.09118-0.16240-0.53821 0.97714-0.83786
  -2  11  -3 2735.87  781.08   1 0.67086-0.91789 0.49824 0.20655-0.54926 0.33882
  -2 -11  -3 1596.57  531.62   1-0.08979-0.15662-0.09827-0.60503-0.99109 0.78063
   2 -11   3 1870.47  522.80   1 0.08246 0.16363-0.10003-0.60058 0.99156-0.78263
  -2  11  -4 1053.06  467.94   1 0.67611-0.94097 0.49473 0.21005-0.54599 0.26540
  -2 -11  -4  510.72  222.33   1-0.02999-0.23386-0.04757-0.65601-0.99841 0.71760
   2 -11   4 1185.67  363.96   1 0.03524 0.22956-0.04623-0.65579 0.99830-0.71918
  -2  11  -5 5183.77  727.15   1 0.67531-0.95800 0.49527 0.20952-0.54649 0.19575
  -2 -11  -5 6936.24 1063.97   1 0.01934-0.30071-0.00455-0.69903-0.99980 0.64878
   2 -11   5 6650.55 1215.42   1-0.00551 0.28819 0.00013-0.70216 0.99998-0.65108
  -2  11  -6 1352.65  528.90   1 0.66953-0.97009 0.49926 0.20578-0.54996 0.12872
  -2 -11  -6 1313.69  491.79   1 0.05964-0.35851 0.03063-0.73422-0.99774 0.57652
   2 -11   6  573.24  195.27   1-0.03923 0.33978 0.03849-0.74052 0.99848-0.57980
  -2  11  -7 2074.07  752.81   1 0.65946-0.97782 0.50584 0.19920-0.55608 0.06464
  -2 -11  -7 1355.80  489.38   1 0.09160-0.40798 0.05857-0.76216-0.99407 0.50264
   2 -11   7 1725.65  559.76   1-0.06635 0.38477 0.06932-0.77135 0.99538-0.50692
   2  12  -7 2292.94  569.79   1 0.91086-0.84494 0.25933 0.50764-0.32105-0.16840
   2  12  -7 3808.96  732.65   1 0.72490-0.65482 0.64065 0.12736 0.25313-0.74497
  -2 -12   7 2043.47  433.91   1-0.09198 0.02370 0.09845-0.86430 0.99088-0.50241
  -2  12   7 3560.35  746.25   1-0.61935 0.54896 0.70671 0.06214-0.34199 0.83353
   2  12  -6  955.43  540.31   1 0.92402-0.83989 0.23768 0.52929-0.29948-0.12005
   2  12  -6  388.27  375.88   1 0.69940-0.61156 0.61996 0.14805 0.35564-0.77722
  -2 -12   6  218.55  185.91   1-0.04813-0.03800 0.04861-0.81446 0.99765-0.57897
  -2  12   6  156.91  377.31   1-0.59224 0.50414 0.67673 0.09176-0.43734 0.85872
   2  12  -5  506.88  372.34   1 0.93508-0.83276 0.21779 0.54918-0.27960-0.07001
   2  12  -5  734.43  324.59   1 0.66332-0.55795 0.59073 0.17729 0.45937-0.81071
  -2 -12   5  153.54  150.13   1 0.00780-0.11181-0.01501-0.75083 0.99985-0.65095
  -2  12   5 1322.77  616.03   1-0.55771 0.45196 0.63775 0.13075-0.53125 0.88240
   2  12  -4 3229.63  588.72   1 0.94413-0.82360 0.20009 0.56688-0.26187-0.01781
   2  12  -4 2756.68  621.64   1 0.61701-0.49382 0.55172 0.21631 0.56115-0.84222
  -2 -12   4 1794.76  588.09   1 0.07623-0.19795-0.09292-0.67138 0.99275-0.71418
  -2  12   4 3419.82  561.75   1-0.51545 0.39204 0.58992 0.17857-0.62152 0.90244
   2  12  -3 1091.98  502.66   1 0.95119-0.81246 0.18514 0.58183-0.24686 0.03709
   2  12  -3 1038.54  356.87   1 0.56021-0.41920 0.50364 0.26471 0.65764-0.86844
  -2  12   3  882.20  588.29   1-0.46581 0.32467 0.53392 0.23468-0.70564 0.91624
   2  12  -2 5879.08  621.46   1 0.49473-0.33593 0.44745 0.32090 0.74499-0.88553
  -2  12   2 6775.55  835.72   1-0.41069 0.25192 0.47127 0.29733-0.78053 0.92093
  -2 -12   1 2487.42  546.65   1-0.95948 0.78337-0.16654-0.60137 0.22727-0.15708
  -2  12   1 1423.50  371.73   1 0.51655-0.69255 0.58333 0.18580-0.62681 0.69702
   2  12  -1 2673.38  662.06   1 0.42218-0.24571 0.38555 0.38260 0.82043-0.89063
  -2 -12   0 1999.86  450.40   1-0.95958 0.76583-0.16628-0.60163 0.22701-0.22701
  -2  12   0 1626.69  480.34   1 0.57632-0.77012 0.55420 0.21493-0.60058 0.60058
   2  12   0 2061.09  545.34   1 0.34754-0.15334 0.32076 0.44739 0.88109-0.88109
  -2  12  -1 2786.83  678.49   1 0.61491-0.82651 0.53299 0.23614-0.58119 0.51099
   2  12   1 2937.34  769.72   1 0.27357-0.06165 0.25632 0.51184 0.92706-0.85686
  -2  12  -2 1271.27  448.52   1 0.63921-0.86860 0.51856 0.25057-0.56788 0.42747
  -2 -12  -2  765.98  293.77   1-0.20120-0.02767-0.19502-0.57222-0.95993 0.81963
   2 -12   2  238.57  204.35   1 0.17178 0.05655-0.20191-0.56238 0.96421-0.82493
  -2  12  -3 1432.49  442.35   1 0.65328-0.90046 0.50979 0.25934-0.55975 0.34914
  -2 -12  -3 1316.69  346.87   1-0.13676-0.10966-0.13910-0.62814-0.98078 0.77032
   2 -12   3 1503.15  400.26   1 0.12022 0.12588-0.14308-0.62122 0.98238-0.77345
  -2  12  -4 3516.38  737.74   1 0.65963-0.92460 0.50573 0.26340-0.55598 0.27515
  -2 -12  -4 2748.25  523.72   1-0.07998-0.18398-0.08974-0.67750-0.99274 0.71213
   2 -12   4  693.04  346.84   1 0.07440 0.18947-0.09083-0.67347 0.99308-0.71451
  -2  12  -5 1082.56  463.26   1 0.65988-0.94264 0.50557 0.26356-0.55583 0.20480
  -2 -12  -5  831.81  404.10   1-0.03035-0.25100-0.04789-0.71965-0.99839 0.64737
   2 -12   5  787.29  258.58   1 0.03560 0.24707-0.04663-0.71921 0.99827-0.64937
   2  13  -5  924.42  398.54   1 0.91611-0.81379 0.25091 0.57997-0.31267-0.03693
   2  13  -5  722.33  405.88   1 0.67115-0.56578 0.59728 0.23475 0.43909-0.79042
  -2  13   5 2238.30  708.97   1-0.56317 0.45742 0.64393 0.18861-0.51786 0.86901
   2  13  -4 1056.67  405.49   1 0.92460-0.80407 0.23667 0.59422-0.29847 0.01877
   2  13  -4 1904.44  546.80   1 0.62847-0.50529 0.56142 0.27061 0.53835-0.81941
  -2  13   4 1867.80  640.61   1-0.52381 0.40041 0.59939 0.23314-0.60525 0.88617
   2  13  -3 2119.43  574.98   1 0.57631-0.43530 0.51739 0.31498 0.63258-0.84338
  -2  13   3  761.52  395.77   1-0.47788 0.33674 0.54763 0.28502-0.68681 0.89742
   2  13  -2  900.13  332.95   1 0.93480-0.77786 0.21832 0.61257-0.28013 0.14029
   2  13  -2 1237.53  424.15   1 0.51631-0.35751 0.46600 0.36637 0.71850-0.85903
  -2  13   2 1975.21  647.48   1-0.42715 0.26838 0.48998 0.34267-0.75990 0.90030
   2  13  -1 2631.33  482.63   1 0.93594-0.76080 0.21616 0.61472-0.27798 0.20805
   2  13  -1 3211.37  512.18   1 0.45049-0.27391 0.40929 0.42309 0.79342-0.86369
  -2  13   1 2702.56  576.93   1-0.37297 0.19657 0.42835 0.40430-0.82304 0.89324
  -2  13   0  192.32  248.91   1 0.55066-0.74446 0.56723 0.26600-0.61238 0.61238
   2  13   0  483.90  387.73   1 0.38099-0.18679 0.34984 0.48233 0.85583-0.85583
  -2  13  -1 1390.59  559.76   1 0.59083-0.80242 0.54647 0.28676-0.59353 0.52333
   2  13   1 1013.32  433.48   1 0.31239-0.10046 0.29017 0.54200 0.90455-0.83434
  -2  13  -2 1180.98  561.49   1 0.61664-0.84603 0.53200 0.30123-0.58027 0.43986
  -2  13  -3  579.40  372.42   1 0.63212-0.87930 0.52287 0.31036-0.57186 0.36124
  -2 -13  -3  853.85  295.23   1-0.18348-0.06294-0.17965-0.65152-0.96646 0.75600
   2 -13   3 1195.45  377.70   1 0.15732 0.08878-0.18542-0.64257 0.96998-0.76105
  -2  13  -4  320.36  393.53   1 0.63975-0.90473 0.51823 0.31500-0.56757 0.28675
  -2 -13  -4  534.41  302.01   1-0.12878-0.13518-0.13216-0.69901-0.98282 0.70221
   2 -13   4  195.93  271.61   1 0.11363 0.15024-0.13556-0.69243 0.98423-0.70566
   2  14  -2 3776.76  701.97   1 0.90912-0.75218 0.26204 0.63276-0.32375 0.18390
   2  14  -2 1508.17  468.74   1 0.53918-0.38038 0.48564 0.41077 0.68806-0.82859
  -2  14   2 3763.92  711.75   1-0.44471 0.28594 0.50995 0.38675-0.73632 0.87672
   2  14  -1  847.65  392.50   1 0.47892-0.30234 0.43383 0.46258 0.76316-0.83342
  -2  14   1  439.59  371.90   1-0.39491 0.21852 0.45332 0.44338-0.79908 0.86928
   2  14   0 1616.96  509.80   1 0.41488-0.22068 0.37923 0.51695 0.82707-0.82707
   3   0 -13 1360.78  583.80   1 0.69027-0.62896 0.59438-0.59438-0.41259-0.50110
  -3   0  13 1415.51  523.78   1-0.60150 0.54083 0.68078-0.68078 0.41799 0.49399
   3   0 -12 3862.52  538.30   1 0.89382-0.82225 0.28481-0.28481-0.34635-0.49272
   3   0 -12 5731.22  772.63   1 0.70568-0.62725 0.61053-0.61053-0.35952-0.48351
   3   0 -11 1849.75  470.83   1 0.93447-0.84470 0.21893-0.21893-0.28074-0.48840
   3   0 -11 1763.39  583.38   1 0.72018-0.62402 0.62423-0.62423-0.30276-0.47002
  -3   0  10 1853.27  350.67   1-0.96889 0.85472-0.14200 0.14200 0.20265 0.49927
  -3   0  10  909.01  334.50   1-0.63897 0.52455 0.72530-0.72530 0.25622 0.44584
  -3   0   9  579.48  143.22   1-0.99040 0.85858-0.06313 0.06313 0.12296 0.50877
  -3   0   9 1745.42  468.61   1-0.64839 0.51632 0.73612-0.73612 0.19420 0.43765
  -3   0   830562.77  999.07   1-0.99910 0.85161 0.01852-0.01852 0.03791 0.52383
   3   0  -835141.15 1250.72   1 0.74898-0.59964 0.65471-0.65471-0.10186-0.46018
  -3   0   830543.67 1055.48   1-0.65564 0.50591 0.74448-0.74448 0.12600 0.43564
  -3   0   743306.62 1491.10   1-0.99171 0.82627 0.11345-0.11345-0.06019 0.55172
   3   0  -743776.49 1486.66   1 0.75205-0.58495 0.65883-0.65883-0.01875-0.47303
  -3   0   744848.64 1511.78   1-0.65930 0.49221 0.75021-0.75021 0.04993 0.44148
  -3   0   646078.88 1302.91   1-0.96149 0.77797 0.21763-0.21763-0.16783 0.58939
   3   0  -651316.54 1551.46   1 0.74913-0.56426 0.65790-0.65790 0.07723-0.49876
  -3   0   647057.96 1461.77   1-0.65955 0.47476 0.75068-0.75068-0.03821 0.45943
  -3   0   5  563.08  194.50   1-0.90151 0.70010 0.32698-0.32698-0.28346 0.63476
   3   0  -5  195.80  315.05   1 0.73609-0.53327 0.64944-0.64944 0.19075-0.54207
  -3   0   5  153.33  314.13   1-0.65316 0.45066 0.74360-0.74360-0.14288 0.49390
  -3   0   425307.64  665.21   1-0.80388 0.58420 0.43744-0.43744-0.40299 0.68362
   3   0  -424507.53  731.63   1 0.70719-0.48661 0.62635-0.62635 0.32795-0.60900
  -3   0   424840.08  822.53   1-0.63459 0.41422 0.72377-0.72377-0.27099 0.55187
   3   0  -349784.75 1098.85   1-0.36790 0.60579 0.66026-0.66026-0.65474 0.44391
   3   0  -351592.72 1159.78   1 0.64912-0.41091 0.57883-0.57883 0.49354-0.70434
  -3   0   351934.62 1133.55   1 0.47086-0.70906 0.42687-0.42687 0.77204-0.56125
  -3   0   351141.67 1156.97   1-0.59412 0.35604 0.67885-0.67885-0.43148 0.64217
   3   0  -351042.96 1130.65   1-0.44211 0.68027 0.50700-0.50700-0.73991 0.52931
  -3   0   225954.91  530.48   1-0.49944 0.24386 0.61959-0.61959-0.60552 0.74607
   3   0  -225800.10  545.90   1 0.54208-0.28609 0.48812-0.48812 0.68402-0.82455
  -3   0   223693.66  428.03   1 0.32541-0.58125 0.30151-0.30151 0.89621-0.75580
  -3   0   226081.30  570.08   1-0.51170 0.25597 0.58567-0.58567-0.62860 0.76906
  -3   0   122983.27  516.75   1-0.31778 0.04452 0.67162-0.67162-0.66927 0.73955
   3   0  -121721.94  520.70   1-0.03764 0.31109 0.69998-0.69998-0.71316 0.64283
   3   0  -122635.21  409.75   1-0.10809 0.38121-0.11418 0.11418-0.98756 0.91740
   3   0  -120875.46  462.12   1 0.36802-0.09446 0.33857-0.33857 0.86597-0.93618
  -3   0   122175.47  364.21   1 0.10825-0.37967-0.12943 0.12943 0.98566-0.91602
  -3   0   0140884.6 1279.53   1-0.14533-0.14533-0.14654 0.14654-0.97846 0.97846
   3   0   0137896.1 1328.78   1 0.14560 0.14560 0.10643-0.10643-0.98360 0.98360
   3   0   0137556.0 1199.04   1 0.14459 0.14459-0.17089 0.17089 0.97462-0.97462
  -3   0   0139342.6 1328.77   1-0.14528-0.14528 0.15848-0.15848 0.97661-0.97661
  -3   0  -1126009.5 2456.60   1 0.06499-0.37325 0.03530-0.03530-0.99726 0.92705
   3   0   1119370.6 2311.67   1 0.36325-0.05449 0.29873-0.29873-0.88249 0.95277
   3   0   1124384.7 2392.16   1-0.06383 0.37171 0.06645-0.06645 0.99574-0.92596
  -3   0  -1120298.9 2306.43   1-0.35446 0.04606 0.39714-0.39714 0.84654-0.91660
  -3   0  -228732.44  739.80   1 0.22030-0.54664 0.17209-0.17209-0.96013 0.81949
   3   0   225102.40  619.92   1 0.51283-0.18649 0.43271-0.43271-0.74145 0.88202
   3   0   228635.45  811.99   1-0.21379 0.53986 0.23623-0.23623 0.94788-0.80792
  -3   0  -227668.08  662.98   1-0.48603 0.15989 0.54770-0.54770 0.68102-0.82125
  -3   0  -3 4180.74  444.35   1 0.19614-0.54043 0.68002-0.68002-0.70646 0.49548
  -3   0  -3 4328.23  381.06   1 0.32134-0.66526 0.26164-0.26164-0.91009 0.69925
   3   0   3 3272.86  231.67   1-0.30652 0.65044 0.34264-0.34264 0.88805-0.67787
  -3   0  -447387.97 1475.25   1 0.25254-0.61457 0.66937-0.66937-0.69868 0.41741
  -3   0  -446597.07 1351.25   1 0.38417-0.74568 0.31727-0.31727-0.86703 0.58591
   3   0   444657.98 1251.75   1-0.36135 0.72303 0.40496-0.40496 0.83989-0.55966
  -3   0  -5 5120.82  493.49   1 0.28851-0.66825 0.66123-0.66123-0.69248 0.34089
  -3   0  -5 5527.76  426.82   1 0.42226-0.80136 0.35107-0.35107-0.83572 0.48432
   3   0   5 5782.89  368.60   1-0.39325 0.77270 0.44122-0.44122 0.80664-0.45634
  -3   0  -686126.04 2267.85   1 0.30833-0.70578 0.65630-0.65630-0.68861 0.26670
  -3   0  -690010.75 2369.70   1 0.44442-0.84110 0.37076-0.37076-0.81548 0.39380
   3   0   694930.76 2368.40   1-0.41101 0.80822 0.46141-0.46141 0.78623-0.36588
  -3   0  -7 -208.05  407.57   1 0.31536-0.73051 0.65448-0.65448-0.68716 0.19494
  -3   0  -7  561.33  308.59   1 0.45594-0.87020 0.38101-0.38101-0.80432 0.31236
   3   0   7 1388.97  401.81   1-0.41960 0.83458 0.47117-0.47117 0.77583-0.28542
  -3   0  -8 1389.57  619.43   1 0.31198-0.74484 0.65536-0.65536-0.68786 0.12532
  -3   0  -8  330.74  313.43   1 0.46000-0.89184 0.38463-0.38463-0.80028 0.23803
   3   0   8  460.42  227.74   1-0.42188 0.85461 0.47376-0.47376 0.77302-0.21255
  -3   0  -9 9083.27  698.42   1 0.29986-0.75042 0.65845-0.65845-0.69030 0.05744
  -3   0  -9 7797.18  650.30   1 0.45854-0.90797 0.38333-0.38333-0.80174 0.16921
   3   0   9 7787.79  547.28   1-0.41952 0.87002 0.47108-0.47108 0.77593-0.14541
  -3   0 -10 1815.85  648.51   1 0.28008-0.74835 0.66323-0.66323-0.69402-0.00915
  -3   0 -10 1121.40  488.44   1 0.45277-0.91979 0.37820-0.37820-0.80743 0.10463
   3   0  10  472.16  312.58   1-0.41355 0.88181 0.46429-0.46429 0.78319-0.08260
  -3   0 -11 4231.60  706.57   1 0.25330-0.73928 0.66921-0.66921-0.69856-0.07493
  -3   0 -11 2446.05  528.72   1 0.44345-0.92805 0.36991-0.36991-0.81640 0.04331
   3   0  11 2142.64  448.13   1-0.40461 0.89063 0.45413-0.45413 0.79375-0.02311
   3  -1 -13 3014.26  685.34   1 0.67464-0.61334 0.57998-0.64409-0.45658-0.45712
   3   1 -13 2670.84  677.73   1 0.70314-0.64183 0.60632-0.54221-0.37143-0.54226
  -3  -1  13 3642.36  662.33   1-0.58526 0.52459 0.66229-0.72628 0.46778 0.44419
  -3   1  13 4721.23  931.72   1-0.61495 0.55428 0.69610-0.63211 0.37050 0.54147
   3   1 -12 1049.59  407.94   1 0.90672-0.83515 0.26575-0.20184-0.32744-0.51163
   3  -1 -12  337.54  324.97   1 0.69167-0.61269 0.59568-0.65978-0.40834-0.43506
   3   1 -12 1630.81  633.01   1 0.71764-0.63921 0.62182-0.55772-0.31356-0.52947
  -3  -1  12  420.20  276.01   1-0.60004 0.52168 0.67913-0.74311 0.42275 0.41907
  -3   1  12  942.24  364.71   1-0.62759 0.54848 0.71225-0.64825 0.31434 0.52812
   3  -1 -11 7953.63  572.79   1 0.92062-0.83084 0.24346-0.30738-0.30525-0.46390
   3   1 -11 9849.07  717.43   1 0.94231-0.85254 0.20376-0.13985-0.26555-0.50359
   3  -1 -11 7495.80  810.34   1 0.70615-0.60999 0.61098-0.67507-0.35784-0.41494
   3   1 -11 8230.36  753.79   1 0.73087-0.63471 0.63449-0.57039-0.25146-0.52132
  -3  -1  11 6080.69  567.66   1-0.61358 0.51752 0.69453-0.75852 0.37567 0.39600
  -3   1  1112040.83  899.20   1-0.63925 0.54249 0.72561-0.66162 0.25462 0.51764
  -3  -1  10 4955.14  773.68   1-0.97223 0.85806-0.13236 0.06837 0.19296 0.50897
  -3   1  10 5882.94  899.46   1-0.96186 0.84769-0.16064 0.22463 0.22136 0.48057
   3  -1 -10 3979.96  728.84   1 0.71998-0.60608 0.62404-0.68814-0.30363-0.39890
   3   1 -10 6226.77 1093.87   1 0.74158-0.62768 0.64503-0.58093-0.18434-0.51819
  -3  -1  10 5586.83  913.35   1-0.62499 0.51057 0.70927-0.77326 0.32606 0.37599
  -3   1  10 5436.17  926.77   1-0.64888 0.53446 0.73668-0.67269 0.19037 0.51169
  -3  -1   9 1554.19  308.47   1-0.99094 0.85912-0.06020-0.00378 0.11999 0.51174
  -3   1   9 1172.32  225.20   1-0.98817 0.85635-0.07418 0.13818 0.13418 0.49755
   3  -1  -9 1264.51  391.61   1 0.73204-0.60040 0.63562-0.69972-0.24512-0.38715
   3   1  -9  516.15  470.82   1 0.74921-0.61758 0.65296-0.58886-0.11091-0.52136
  -3  -1   9 1003.77  339.73   1-0.63592 0.50385 0.72179-0.78579 0.27315 0.35869
  -3   1   9 1023.64  341.86   1-0.65609 0.52402 0.74501-0.68101 0.12037 0.51147
  -3   1   822235.36 1204.47   1-0.99907 0.85158 0.01684 0.04713 0.03964 0.52210
  -3  -1   821230.70  749.88   1-0.99897 0.85148 0.01345-0.07743 0.04312 0.51862
   3  -1  -824959.63 1044.94   1 0.74203-0.59266 0.64548-0.70958-0.18092-0.38110
   3   1  -820441.20  884.29   1 0.75194-0.60261 0.65855-0.59452-0.02969-0.53235
  -3  -1   821788.15  846.58   1-0.64541 0.49569 0.73269-0.79669 0.21585 0.34579
  -3   1   725932.91  879.01   1-0.98965 0.82421 0.12434-0.06037-0.07152 0.56305
  -3  -1   727870.49  929.95   1-0.99420 0.82876 0.09798-0.16195-0.04412 0.53565
   3  -1  -728500.55 1192.45   1 0.74936-0.58225 0.65313-0.71723-0.10894-0.38283
   3   1  -728677.80 1138.58   1 0.75005-0.58295 0.65845-0.59442 0.06213-0.55392
  -3  -1   727167.75 1025.54   1-0.65320 0.48582 0.74166-0.80566 0.15250 0.33894
  -3  -1   6 6316.42  515.49   1-0.97196 0.78845 0.18982-0.25382-0.13871 0.56027
  -3   1   6 6918.86  484.07   1-0.95010 0.76659 0.24346-0.17946-0.19498 0.61654
   3  -1  -6 7230.25  525.22   1 0.75198-0.56711 0.65865-0.72268-0.02643-0.39509
  -3  -1   6 7199.94  506.57   1-0.65799 0.47319 0.74864-0.81265 0.08110 0.34011
  -3   1   6 6568.34  646.35   1-0.65310 0.46830 0.74354-0.67953-0.14351 0.56473
  -3  -1   5132658.9 3436.94   1-0.92747 0.72606 0.28641-0.35041-0.24033 0.59163
  -3   1   5137093.5 3621.75   1-0.86965 0.66762 0.36838-0.30442-0.32862 0.67941
   3  -1  -5132914.0 3457.26   1 0.74944-0.54680 0.65809-0.72213 0.07242-0.42370
  -3  -1   5127935.1 3335.81   1-0.66006 0.45757 0.75119-0.81520-0.00404 0.35506
  -3   1   5132010.1 3471.11   1-0.63659 0.43388 0.72600-0.66193-0.26011 0.61121
  -3   1   4 3679.14  233.56   1-0.74220 0.52252 0.48852-0.42455-0.45877 0.73940
   3  -1  -4 3398.83  237.18   1-0.35045 0.57066 0.66446-0.72852-0.66005 0.37894
   3  -1  -4 3232.74  364.19   1 0.73542-0.51484 0.64892-0.71292 0.19504-0.47609
   3   1  -4 3089.69  373.63   1 0.67416-0.45376 0.59978-0.53578 0.43099-0.71206
  -3  -1   4 4065.90  352.05   1-0.65595 0.43575 0.74672-0.81073-0.11011 0.39092
  -3   1   4 4675.19  399.66   1-0.60462 0.38426 0.69016-0.62609-0.39761 0.67849
   3   1  -4 3107.47  276.95   1-0.55934 0.77976 0.63959-0.57555-0.52730 0.24638
  -3  -1   3102752.1 2080.95   1-0.75091 0.51356 0.48192-0.54589-0.45152 0.66200
  -3   1   3103552.9 2079.51   1-0.56901 0.33147 0.59050-0.52653-0.57229 0.78287
   3  -1  -398619.30 1967.25   1-0.20781 0.44591 0.68954-0.75362-0.69378 0.48291
   3  -1  -3101323.4 2032.63   1 0.70008-0.46173 0.62051-0.68451 0.35333-0.56412
  -3   1   3102964.9 2036.17   1 0.52870-0.76689 0.47664-0.41261 0.70234-0.49154
  -3  -1   3108972.5 2184.83   1-0.63832 0.40029 0.72793-0.79200-0.25030 0.46096
  -3   1   3110648.3 2268.46   1-0.54633 0.30826 0.62488-0.56084-0.55770 0.76839
   3   1  -3102135.6 2023.50   1-0.50361 0.74169 0.57651-0.51247-0.64342 0.43273
  -3  -1   219045.23  512.14   1-0.61668 0.36148 0.56728-0.63126-0.54579 0.68617
   3  -1  -218044.24  464.87   1-0.04211 0.29785 0.69999-0.76407-0.71290 0.57225
   3  -1  -219077.10  409.81   1 0.61891-0.36288 0.55332-0.61733 0.55747-0.69800
   3   1  -219875.53  483.15   1 0.48225-0.22626 0.43669-0.37266 0.75942-0.89995
  -3   1   220750.43  401.78   1 0.38245-0.63829 0.35111-0.28709 0.85466-0.71425
  -3  -1   218660.20  422.52   1-0.58886 0.33313 0.67292-0.73696-0.44767 0.58813
  -3   1   220694.75  492.86   1-0.44774 0.19195 0.51339-0.44933-0.73209 0.87249
   3   1  -220149.07  427.50   1-0.38192 0.63770 0.43854-0.37448-0.81352 0.67311
  -3  -1   161266.59  846.64   1-0.46142 0.18816 0.63308-0.69714-0.62152 0.69179
   3   1  -154419.48  732.68   1-0.18820 0.46156 0.69174-0.62766-0.69718 0.62689
  -3   1   158279.54  871.66   1-0.17065-0.10270 0.69347-0.62939-0.69998 0.77027
   3  -1  -158411.07  630.28   1-0.13058 0.40370-0.13373 0.06979-0.98237 0.91222
   3   1  -160361.50  938.61   1-0.08074 0.35386-0.09040 0.15433-0.99262 0.92247
   3  -1  -158532.88  675.09   1 0.45262-0.17885 0.41113-0.47516 0.79126-0.86152
   3   1  -158550.88  755.07   1 0.31614-0.04257 0.29344-0.22942 0.90218-0.97239
  -3  -1   156025.20  564.17   1 0.13660-0.40802-0.16177 0.09808 0.97732-0.90768
  -3   1   158486.35  793.40   1 0.07969-0.35112-0.09687 0.16056 0.99210-0.92245
  -3  -1   158149.30  642.75   1-0.46016 0.18675 0.52750-0.59155-0.71413 0.78433
   3   1   028064.28  544.77   1-0.00130 0.29246 0.69941-0.63533-0.71471 0.71471
  -3   1   028227.10  600.03   1 0.00129-0.29245 0.69934-0.63525-0.71478 0.71478
   3  -1   027010.09  555.01   1 0.29772-0.00652 0.65898-0.72308-0.69072 0.69072
  -3   1   029110.56  446.56   1-0.19386-0.09680-0.18866 0.25259-0.96271 0.96271
   3   1   029710.68  528.37   1 0.13188 0.15932 0.09439-0.03034-0.98675 0.98675
   3  -1   027831.73  431.69   1 0.18335 0.10785 0.13959-0.20365-0.97308 0.97308
   3  -1   027729.11  469.29   1 0.12012 0.16907-0.14297 0.07928 0.98240-0.98240
  -3   1   029170.13 1148.67   1-0.12300-0.16755 0.13320-0.06926 0.98342-0.98342
  -3  -1   028203.67  444.11   1-0.20113-0.08942 0.22187-0.28581 0.95410-0.95410
  -3  -1  -190998.04 1977.78   1 0.05336-0.36162 0.02514-0.08911-0.99825 0.92805
  -3   1  -190751.01 1783.80   1 0.06581-0.37407 0.03602 0.02793-0.99718 0.92697
   3   1   180772.79 1622.19   1 0.32176-0.01300 0.26202-0.19797-0.90983 0.98012
   3  -1   187868.26 1715.58   1 0.43189-0.12313 0.35963-0.42368-0.82712 0.89740
   3   1   190557.75 1757.38   1-0.07279 0.38068 0.07665-0.01283 0.99439-0.92461
   3  -1   191489.64 2078.00   1-0.04768 0.35557 0.04810-0.11192 0.99770-0.92792
  -3   1  -186498.60 1711.59   1-0.30151-0.00687 0.33695-0.27298 0.89193-0.96199
  -3  -1  -186846.96 1673.72   1-0.44174 0.13332 0.49737-0.56136 0.74664-0.81675
  -3  -1  -2164773.6 3271.85   1-0.02987-0.29669 0.69994-0.76402-0.71357 0.57291
  -3  -1  -2161952.2 3317.48   1 0.19010-0.51644 0.14552-0.20958-0.97091 0.83027
  -3   1  -2162143.0 3145.30   1 0.24763-0.57397 0.19615-0.13209-0.94878 0.80814
   3  -1   2159990.9 3057.53   1 0.57723-0.25089 0.49049-0.55455-0.65285 0.79342
   3  -1   2169141.2 3258.02   1-0.17675 0.50281 0.19419-0.25813 0.96490-0.82494
   3   1   2168746.7 3256.58   1-0.25310 0.57917 0.28083-0.21689 0.92577-0.78581
  -3  -1  -2157373.7 2988.49   1-0.55639 0.23028 0.62942-0.69340 0.54244-0.68275
  -3  -1  -317224.61  723.56   1 0.06592-0.41021 0.69592-0.76000-0.71508 0.50409
  -3   1  -318390.76  748.21   1 0.30234-0.64667 0.65782-0.59371-0.68981 0.47886
  -3  -1  -320485.84  735.80   1 0.28544-0.62934 0.22948-0.29354-0.93051 0.71955
  -3   1  -320318.53  698.22   1 0.35601-0.69993 0.29232-0.22827-0.88758 0.67674
   3  -1   318582.35  724.74   1-0.26437 0.60819 0.29362-0.35756 0.91863-0.70869
   3   1   319573.14  611.83   1-0.35052 0.69444 0.39265-0.32868 0.85026-0.64009
  -3  -1  -318086.38  576.56   1-0.60958 0.26578 0.68999-0.75397 0.39027-0.60073
  -3  -1  -4 3966.46  633.76   1 0.13539-0.49739 0.68896-0.75304-0.71203 0.43072
  -3   1  -4 3562.37  547.84   1 0.34684-0.70887 0.64581-0.58170-0.68016 0.39889
  -3  -1  -4 1999.62  331.35   1 0.34811-0.70962 0.28533-0.34938-0.89297 0.61184
  -3   1  -4 2911.72  293.74   1 0.41838-0.77989 0.34762-0.28357-0.83911 0.55799
   3  -1   4 2164.19  224.90   1-0.32069 0.68237 0.35874-0.42272 0.87661-0.59638
   3   1   4 2333.64  231.37   1-0.40204 0.76373 0.45121-0.38724 0.79671-0.51648
  -3  -1  -575380.78 2284.67   1 0.18241-0.56211 0.68227-0.74636-0.70796 0.35632
  -3   1  -575106.53 2277.82   1 0.37331-0.75305 0.63787-0.57376-0.67361 0.32202
  -3  -1  -580252.62 2369.97   1 0.38851-0.76760 0.32111-0.38516-0.86367 0.51227
  -3   1  -573892.04 2159.67   1 0.45377-0.83287 0.37908-0.31504-0.80646 0.45505
   3  -1   578947.24 2292.99   1-0.35604 0.73549 0.39893-0.46290 0.84503-0.49474
   3   1   577735.64 2241.82   1-0.42952 0.80879 0.48348-0.41948 0.76273-0.41216
  -3  -1  -642838.80 1356.21   1 0.21084-0.60828 0.67756-0.74166-0.70459 0.28268
  -3   1  -645298.09 1460.68   1 0.38593-0.78337 0.63387-0.56976-0.67026 0.24836
  -3  -1  -643375.62 1341.31   1 0.41345-0.81012 0.34324-0.40729-0.84335 0.42166
  -3   1  -641439.42 1241.86   1 0.47294-0.86962 0.39615-0.33210-0.78700 0.36532
   3  -1   643217.18 1270.84   1-0.37737 0.77458 0.42317-0.48715 0.82371-0.40336
   3   1   643058.35 1232.07   1-0.44312 0.84010 0.49893-0.43494 0.74478-0.32410
  -3  -1  -793613.33 3110.96   1 0.22469-0.63984 0.67498-0.73909-0.70278 0.21055
  -3   1  -7102842.8 4833.94   1 0.38762-0.80277 0.63332-0.56921-0.66980 0.17758
  -3  -1  -7100719.6 4708.85   1 0.42762-0.84188 0.35583-0.41988-0.83097 0.33901
  -3   1  -797871.91 3225.92   1 0.48151-0.89581 0.40473-0.34067-0.77738 0.28538
   3  -1   799641.80 4637.92   1-0.38913 0.80410 0.43654-0.50052 0.81117-0.32075
   3   1   795943.59 3148.59   1-0.44827 0.86297 0.50479-0.44079 0.73772-0.24692
  -3  -1  -8 1965.73  545.27   1 0.22639-0.65925 0.67466-0.73876-0.70254 0.14000
  -3   1  -8 3301.44  751.12   1 0.38042-0.81328 0.63563-0.57153-0.67174 0.10920
  -3  -1  -8 1419.60  379.09   1 0.43403-0.86588 0.36153-0.42558-0.82517 0.26292
  -3   1  -8 1327.77  368.13   1 0.48321-0.91510 0.40625-0.34219-0.77554 0.21325
   3  -1   8 3372.45  616.69   1-0.39410 0.82683 0.44219-0.50616 0.80569-0.24522
   3   1   8 3120.16  562.31   1-0.44775 0.88016 0.50420-0.44021 0.73843-0.17752
  -3  -1  -9  719.80  443.51   1 0.21787-0.66844 0.67627-0.74037-0.70369 0.07083
  -3   1  -9  119.20  375.03   1 0.36568-0.81625 0.64022-0.57611-0.67556 0.04270
  -3  -1  -9  219.61  277.10   1 0.43461-0.88404 0.36204-0.42609-0.82464 0.19211
  -3   1  -9  580.52  365.15   1 0.48002-0.92945 0.40246-0.33841-0.77948 0.14696
   3  -1   9 1069.07  415.54   1-0.39400 0.84450 0.44208-0.50605 0.80580-0.17527
   3   1   9  352.27  228.43   1-0.44312 0.89324 0.49893-0.43494 0.74478-0.11376
  -3  -1 -10 2852.64  511.93   1 0.20067-0.66891 0.67924-0.74333-0.70594 0.00265
  -3   1 -10 3195.41  578.14   1 0.34428-0.81256 0.64654-0.58244-0.68076-0.02241
  -3  -1 -10 3546.28  501.32   1 0.43060-0.89761 0.35848-0.42253-0.82829 0.12548
  -3   1 -10 4906.95  703.16   1 0.47254-0.93956 0.39580-0.33175-0.78742 0.08461
   3  -1  10 5695.95  695.89   1-0.38994 0.85820 0.43746-0.50144 0.81028-0.10969
   3   1  10 6285.06  721.80   1-0.43526 0.90309 0.49000-0.42601 0.75527-0.05414
  -3   1 -11 2756.01  636.59   1 0.31675-0.80273 0.65411-0.59000-0.68687-0.08662
  -3  -1 -11 4250.89  767.95   1 0.42281-0.90741 0.35156-0.41561-0.83524 0.06215
  -3   1 -11 4951.17  871.88   1 0.46175-0.94635 0.38618-0.32213-0.79852 0.02543
   3  -1  11 4630.98  827.96   1-0.38263 0.86865 0.42915-0.49312 0.81817-0.04753
   3   1  11 4630.29  801.51   1-0.42470 0.91073 0.47697-0.41299 0.76949 0.00115
   3   2 -12 7699.60  819.19   1 0.91426-0.84269 0.25391-0.12608-0.31566-0.52341
   3  -2 -12 9929.47 1180.43   1 0.67331-0.59433 0.57876-0.70697-0.46007-0.38333
   3   2 -12 7920.85  937.59   1 0.72699-0.64856 0.63074-0.50254-0.27137-0.57167
  -3  -2  12 8877.83 1017.01   1-0.58088 0.50251 0.65730-0.78527 0.48013 0.36170
  -3   2  12 8657.97  947.81   1-0.63743 0.55832 0.72353-0.59554 0.26489 0.57757
   3   2 -11 1180.49  492.95   1 0.94625-0.85648 0.19570-0.06787-0.25747-0.51168
   3  -2 -11 1011.90  395.46   1 0.68930-0.59264 0.59349-0.72170-0.41548-0.35764
   3   2 -11 1156.71  635.67   1 0.73874-0.64258 0.64219-0.51399-0.20455-0.56823
  -3  -2  11 1751.41  513.56   1-0.59460 0.49854 0.67293-0.80090 0.44000 0.33167
  -3   2  11  824.96  362.25   1-0.64765 0.55089 0.73527-0.60728 0.19979 0.57247
  -3  -2  10 6057.66  460.03   1-0.97320 0.85903-0.12944 0.00146 0.19002 0.51191
   3  -2 -10 4450.16  582.24   1 0.94508-0.83710 0.19814-0.32597-0.25992-0.43931
   3  -2 -10 4717.00  721.48   1 0.70395-0.58962 0.60708-0.73529-0.36864-0.33419
   3   2 -10 5811.48 1128.18   1 0.74743-0.63353 0.65104-0.52284-0.13221-0.57031
  -3  -2  10 4135.92  635.77   1-0.60724 0.49348 0.68731-0.81528 0.39856 0.30296
  -3   2  10 4815.33  725.40   1-0.65534 0.54092 0.74413-0.61614 0.12955 0.57250
  -3   2   9 8523.37  433.91   1-0.98281 0.85099-0.09685 0.22483 0.15713 0.47460
  -3  -2   9 7821.80  972.49   1-0.99037 0.85855-0.06327-0.06470 0.12311 0.50862
   3  -2  -9 7263.31  669.81   1 0.71619-0.58456 0.62045-0.74864-0.31953-0.31274
   3   2  -9 7086.23  688.07   1 0.75140-0.61984 0.65768-0.52961-0.05325-0.57905
  -3  -2   9 6734.09  588.60   1-0.61881 0.48736 0.70049-0.82846 0.35547 0.27589
  -3   2   9 6739.27  591.55   1-0.65919 0.52750 0.75008-0.62206 0.05322 0.57860
  -3  -2   812611.07 1174.13   1-0.99856 0.85107 0.00343-0.13138 0.05341 0.50833
  -3   2   810057.51  604.49   1-0.99866 0.85117 0.00542 0.12252 0.05136 0.51038
   3  -2  -812473.30  857.47   1 0.72805-0.57868 0.63176-0.75996-0.26609-0.29593
   3   2  -814436.85  898.54   1 0.75129-0.60195 0.65907-0.53100 0.03434-0.59638
  -3  -2   811402.68  626.43   1-0.62845 0.47873 0.71324-0.84123 0.31036 0.25128
  -3   2   810898.05  762.09   1-0.65972 0.51032 0.75085-0.62283-0.03137 0.59299
  -3  -2   728849.11 1069.38   1-0.99656 0.83111 0.07912-0.20707-0.02457 0.51610
  -3   2   728017.87  940.79   1-0.98876 0.82331 0.12869-0.00074-0.07604 0.56758
   3  -2  -725179.56 1008.85   1 0.73831-0.57120 0.64177-0.76997-0.20740-0.28437
   3   2  -727622.20 1113.79   1 0.74430-0.57720 0.65458-0.52651 0.13240-0.62419
  -3  -2   727078.73  997.45   1-0.63791 0.47054 0.72408-0.85208 0.26220 0.22923
  -3   2   728212.38 1211.36   1-0.65469 0.48759 0.74531-0.61729-0.12598 0.61740
  -3  -2   6136861.0 3442.68   1-0.98115 0.79775 0.15984-0.28779-0.10856 0.52987
  -3   2   6138227.9 3403.20   1-0.93852 0.75501 0.26656-0.13856-0.21934 0.64090
   3  -2  -6116027.4 2851.57   1-0.40010 0.58493 0.65182-0.77994-0.64423 0.22258
   3  -2  -6134881.4 3435.83   1 0.74658-0.56173 0.65014-0.77834-0.14111-0.28040
   3   2  -6137897.9 3547.24   1 0.72688-0.54183 0.64223-0.51423 0.24323-0.66481
  -3  -2   6140771.3 3558.23   1-0.64628 0.46125 0.73370-0.86169 0.20974 0.21149
  -3   2   6140996.6 3664.39   1-0.64117 0.45612 0.73110-0.60296-0.23319 0.65451
  -3  -2   525482.89 2025.47   1-0.94889 0.74748 0.24601-0.37402-0.19766 0.54896
  -3   2   521305.20  709.94   1-0.83326 0.63123 0.40889-0.28096-0.37211 0.72290
   3  -2  -520269.70  639.70   1-0.29576 0.49860 0.67607-0.80423-0.67486 0.32341
   3  -2  -520652.27  742.64   1 0.75103-0.54839 0.65717-0.78524-0.06379-0.28748
   3   2  -522509.41  914.44   1 0.69548-0.49266 0.61673-0.48873 0.36870-0.72001
  -3  -2   519175.71  687.22   1-0.65339 0.45070 0.74188-0.86987 0.15059 0.20043
  -3   2   424774.15  633.11   1-0.66845 0.44856 0.53832-0.41037-0.51319 0.79396
   3  -2  -425186.09  642.60   1-0.16374 0.38421 0.69409-0.82225-0.70101 0.41985
   3  -2  -426221.29  711.17   1 0.75134-0.53094 0.65909-0.78716 0.03277-0.31379
   3   2  -426757.13  819.23   1 0.64241-0.42201 0.57318-0.44517 0.50869-0.78976
  -3   2   422702.72  597.90   1 0.64616-0.86656 0.57633-0.44833 0.50030-0.21923
  -3  -2   428301.26  748.05   1-0.65798 0.43778 0.74863-0.87665 0.08126 0.19954
   3   2  -424006.74  682.94   1-0.59970 0.82007 0.68462-0.55648-0.41428 0.13340
  -3  -2   3144499.5 2854.52   1-0.81868 0.58133 0.42347-0.55140-0.38785 0.59833
   3  -2  -3142546.5 2777.53   1-0.00952 0.24755 0.69962-0.82779-0.71444 0.50345
   3  -2  -3142797.9 2769.73   1 0.74024-0.50189 0.65259-0.78060 0.16171-0.37250
  -3   2   3139480.0 2687.22   1 0.58375-0.82196 0.52346-0.39545 0.62065-0.40985
  -3  -2   3146691.5 2838.85   1-0.66003 0.42213 0.75116-0.87918-0.01037 0.22098
   3   2  -3143729.4 2768.71   1-0.56117 0.79925 0.64166-0.51358-0.52281 0.31212
  -3  -2   276273.70 1607.41   1-0.71623 0.46103 0.50754-0.63549-0.47896 0.61935
  -3   2   276792.17 1585.78   1-0.23341-0.02231 0.68623-0.55807-0.68890 0.82948
   3  -2  -278608.27 1617.16   1 0.15192 0.10381 0.68679-0.81496-0.71079 0.57013
   3  -2  -279187.00 1581.21   1 0.70109-0.44498 0.62135-0.74935 0.34983-0.49035
  -3   2   278070.03 1533.54   1 0.44264-0.69863 0.40251-0.27445 0.80127-0.66074
  -3  -2   279038.71 1559.60   1-0.65253 0.39693 0.74290-0.87092-0.14930 0.28971
   3   2  -275634.50 1489.04   1-0.45816 0.71394 0.52523-0.39713-0.71708 0.57668
  -3   2   138795.46  967.75   1-0.03123-0.24221 0.69995-0.57178-0.71350 0.78383
   3  -2  -137443.65  906.38   1 0.30658-0.03308 0.65675-0.78496-0.68897 0.61865
   3  -2  -140709.78  560.33   1-0.14397 0.41710-0.14536 0.01749-0.97884 0.90869
   3  -2  -139597.32  818.81   1 0.58015-0.30638 0.52067-0.64873 0.62634-0.69660
   3   2  -140486.97 1009.61   1 0.28656-0.01299 0.26765-0.13962 0.91991-0.99011
  -3  -2   138971.90  769.80   1 0.16447-0.43589-0.19357 0.06619 0.96720-0.89755
  -3   2   135390.58 1812.70   1 0.05068-0.32282-0.06379 0.19143 0.99667-0.92689
  -3  -2   139928.44  812.04   1-0.60225 0.32891 0.68750-0.81564-0.40574 0.47596
  -3   2   0129429.9 2590.90   1 0.12979-0.42095 0.68965-0.56148-0.71241 0.71241
  -3  -2   0136369.3 2682.77   1-0.11904-0.17162-0.12370-0.00417-0.98515 0.98515
   3  -2   0129251.8 2430.31   1 0.26795 0.02325 0.21406-0.34217-0.93934 0.93934
   3  -2   0131082.8 2470.32   1 0.29443-0.00314 0.27451-0.40254 0.91539-0.91539
  -3   2   0127317.5 2483.00   1-0.11716-0.17284 0.12707 0.00056 0.98494-0.98494
  -3  -2   0128397.3 2385.53   1-0.34215 0.05151 0.38314-0.51109 0.85798-0.85798
  -3  -2  -1 7420.84  441.98   1-0.31537 0.00674 0.67211-0.80023-0.66992 0.59964
  -3   2  -1 8507.82  476.65   1 0.24832-0.55723 0.67026-0.54204-0.69934 0.62902
  -3  -2  -1 9825.68  954.54   1 0.03510-0.34336 0.00920-0.13712-0.99934 0.92913
  -3   2  -1 7306.35  446.23   1 0.04685-0.35511 0.01946 0.10846-0.99871 0.92850
   3  -2   1 6885.84  254.39   1 0.53947-0.23073 0.45657-0.58469-0.70746 0.77775
   3   2   1 7029.68  425.15   1-0.06577 0.37366 0.06866 0.05897 0.99546-0.92568
  -3  -2  -1 7053.69  207.78   1-0.57190 0.26349 0.64709-0.77505 0.50417-0.57433
  -3  -2  -234689.43  887.27   1-0.18996-0.13628 0.69156-0.81972-0.69689 0.55630
  -3   2  -234809.46 1064.46   1 0.33095-0.65757 0.65029-0.52207-0.68380 0.54316
  -3  -2  -231993.46  841.88   1 0.15790-0.48424 0.11723-0.24534-0.98047 0.83983
  -3   2  -234236.83  966.52   1 0.27059-0.59693 0.21639-0.08828-0.93805 0.79741
   3  -2   232331.40  721.19   1 0.65616-0.32974 0.56305-0.69126-0.50241 0.64298
   3  -2   234536.71  835.53   1-0.14125 0.46732 0.15391-0.28179 0.97793-0.83797
   3   2   234502.13  738.16   1-0.29648 0.62263 0.33122-0.20328 0.89576-0.75564
  -3  -2  -235502.52  759.66   1-0.62976 0.30349 0.71473-0.84272 0.30421-0.44463
  -3  -2  -3 5232.91  427.58   1-0.08529-0.25858 0.69868-0.82684-0.71032 0.49945
  -3  -2  -3 6751.03  918.03   1 0.24813-0.59203 0.19659-0.32470-0.94856 0.73760
  -3   2  -3 5518.00  332.03   1 0.38861-0.73254 0.32121-0.19311-0.86359 0.65275
   3  -2   3 4498.27  254.98   1 0.70640-0.36191 0.61121-0.73941-0.35693 0.56769
   3  -2   3 5162.19  791.83   1-0.22375 0.56757 0.24753-0.37541 0.94268-0.73274
   3   2   3 4929.75  256.29   1-0.39632 0.74024 0.44471-0.31676 0.80321-0.59304
  -3  -2  -3 5183.01  257.62   1-0.64927 0.30535 0.73713-0.86513 0.18725-0.39787
  -3  -2  -424370.32  858.06   1-0.00534-0.35664 0.69952-0.82769-0.71458 0.43327
  -3   2  -425583.01 1101.70   1 0.42043-0.78246 0.62220-0.49398-0.66037 0.37910
  -3  -2  -426863.78  897.12   1 0.31094-0.67240 0.25199-0.38010-0.91641 0.63513
  -3   2  -424512.84  804.57   1 0.45026-0.81177 0.37596-0.24786-0.80988 0.52876
   3  -2   426551.75  873.57   1-0.28060 0.64217 0.31202-0.43990 0.90768-0.62777
   3   2   423422.12  698.57   1-0.44251 0.80407 0.49824-0.37025 0.74561-0.46515
  -3  -2  -5 4973.39  461.45   1 0.05287-0.43257 0.69685-0.82501-0.71526 0.36362
  -3   2  -5 5774.24  587.30   1 0.43941-0.81915 0.61530-0.48709-0.65445 0.30286
  -3  -2  -5 5829.79  540.15   1 0.35286-0.73195 0.28953-0.41763-0.88975 0.53834
  -3   2  -5 7017.38  417.55   1 0.48256-0.86167 0.40566-0.27755-0.77625 0.42482
   3  -2   5 6720.01  411.34   1-0.31818 0.69763 0.35590-0.48384 0.87868-0.52839
   3   2   5 5329.95  318.13   1-0.46410 0.84337 0.52277-0.39479 0.71506-0.36449
  -3  -2  -6102258.6 2576.40   1 0.09138-0.48879 0.69377-0.82193-0.71437 0.29240
  -3   2  -6105866.9 2797.63   1 0.44655-0.84400 0.61262-0.48441-0.65213 0.23022
  -3  -2  -6103507.4 2627.46   1 0.38031-0.77699 0.31384-0.44194-0.86997 0.44829
  -3   2  -6105652.6 2616.45   1 0.49856-0.89527 0.41996-0.29184-0.75833 0.33661
   3  -2   6103770.3 2599.23   1-0.34248 0.73969 0.38352-0.51146 0.85768-0.43732
   3   2   699974.37 2427.89   1-0.47313 0.87011 0.53304-0.40505 0.70143-0.28075
  -3  -2  -715103.05  852.09   1 0.11325-0.52836 0.69155-0.81972-0.71339 0.22109
  -3   2  -714766.01  972.73   1 0.44434-0.85949 0.61346-0.48524-0.65285 0.16063
  -3  -2  -715365.14  887.68   1 0.39700-0.81127 0.32865-0.45675-0.85695 0.36498
  -3   2  -718333.04  893.89   1 0.50461-0.91892 0.42537-0.29725-0.75128 0.25928
   3  -2   714045.76  747.80   1-0.35709 0.77206 0.40013-0.52807 0.84402-0.35361
   3   2   713725.38  638.93   1-0.47474 0.88944 0.53487-0.40689 0.69894-0.20814
  -3  -2  -8 1301.27  553.34   1 0.12116-0.55399 0.69066-0.81883-0.71294 0.15032
  -3   2  -8 1505.70  663.40   1 0.43443-0.86729 0.61715-0.48893-0.65604 0.09349
  -3  -2  -8 1447.48  449.05   1 0.40573-0.83757 0.33639-0.46449-0.84983 0.28758
  -3   2  -8  418.68  235.45   1 0.50403-0.93593 0.42485-0.29673-0.75196 0.18967
   3  -2   8  562.25  252.20   1-0.36460 0.79733 0.40866-0.53661 0.83669-0.27622
   3   2   8 1337.97  367.57   1-0.47146 0.90387 0.53114-0.40316 0.70399-0.14308
  -3  -2  -9 6876.03  591.15   1 0.11721-0.56774 0.69111-0.81928-0.71317 0.08021
  -3   2  -9 7435.15  839.29   1 0.41793-0.86850 0.62308-0.49486-0.66113 0.02826
  -3  -2  -9 6077.69  580.00   1 0.40835-0.85778 0.33872-0.46682-0.84765 0.21512
  -3   2  -9 7253.85  575.46   1 0.49865-0.94815 0.42004-0.29192-0.75822 0.12565
   3  -2   9 4590.62  447.12   1-0.36671 0.81720 0.41105-0.53900 0.83459-0.20406
   3   2   9 6091.11  506.56   1-0.46461 0.91473 0.52336-0.39537 0.71430-0.08327
  -3  -2 -10 3686.08  613.60   1 0.40613-0.87315 0.33675-0.46485-0.84949 0.14669
  -3   2 -10 1895.62  546.77   1 0.48954-0.95663 0.41190-0.28378-0.76855 0.06569
   3  -2  10 2594.52  410.14   1-0.36455 0.83281 0.40860-0.53654 0.83674-0.13615
   3   2  10 2133.38  521.71   1-0.45493 0.92277 0.51236-0.38438 0.72836-0.02722
  -3   2 -11  445.88  355.18   1 0.36770-0.85368 0.63960-0.51139-0.67505-0.09844
  -3  -2 -11  675.93  392.79   1 0.39991-0.88451 0.33123-0.45933-0.85460 0.08151
  -3   2 -11  439.07  241.17   1 0.47759-0.96219 0.40030-0.27220-0.78208 0.00899
   3  -2  11  848.91  359.54   1-0.35887 0.84490 0.40215-0.53010 0.84230-0.07165
   3   2  11 1030.32  415.57   1-0.44285 0.92840 0.49863-0.37065 0.74514 0.02610
   3   3 -12  591.64  475.97   1 0.91801-0.84645 0.24780-0.05605-0.30957-0.52950
   3  -3 -12 1798.88  618.71   1 0.65124-0.57226 0.55855-0.75087-0.51371-0.32970
   3   3 -12 1899.04  661.35   1 0.73412-0.65570 0.63765-0.44535-0.23336-0.60968
  -3  -3  12  803.43  299.69   1-0.55808 0.47972 0.63135-0.82330 0.53845 0.30338
  -3   3  12 1724.87  561.48   1-0.64489 0.56578 0.73209-0.54010 0.21943 0.62303
   3   3 -11 6221.43  767.48   1 0.94744-0.85767 0.19321-0.00146-0.25496-0.51418
   3  -3 -11 5601.50  678.11   1 0.66722-0.57057 0.57317-0.76549-0.47568-0.29744
   3   3 -11 5916.59  797.58   1 0.74429-0.64813 0.64777-0.45548-0.16249-0.61029
  -3  -3  11 7648.88  700.84   1-0.57144 0.47538 0.64656-0.83851 0.50538 0.26629
  -3   3  11 7205.31  741.20   1-0.65348 0.55672 0.74198-0.55000 0.14972 0.62254
  -3  -3  10 2934.85  456.18   1-0.97245 0.85828-0.13171-0.06026 0.19230 0.50962
   3  -3 -10 1805.51  435.37   1 0.68197-0.56764 0.58672-0.77904-0.43664-0.26620
   3   3 -10 4002.75  820.65   1 0.74997-0.63617 0.65586-0.46375-0.08594-0.61661
  -3  -3  10 2843.82  460.99   1-0.58367 0.46991 0.66048-0.85243 0.47232 0.22920
  -3   3  10 1593.76  432.61   1-0.65831 0.54431 0.74902-0.55699 0.07475 0.62728
  -3   3   917286.18  882.45   1-0.97051 0.83869-0.13742 0.32940 0.19804 0.43369
  -3  -3   915206.60 1625.67   1-0.98885 0.85703-0.07094-0.12103 0.13090 0.50084
   3  -3  -916196.71 1002.13   1 0.69555-0.56354 0.59927-0.79158-0.39633-0.23622
   3   3  -917664.64 1154.22   1 0.75204-0.62047 0.65911-0.46700-0.00229-0.63001
  -3  -3   915930.32  933.77   1-0.59481 0.46335 0.67316-0.86511 0.43936 0.19200
  -3   3   915837.93 1036.74   1-0.66005 0.52835 0.75118-0.55915-0.00706 0.63889
  -3  -3   810615.48  864.23   1-0.99766 0.85017-0.01035-0.18156 0.06754 0.49420
  -3   3   8 8908.96  732.30   1-0.99725 0.84778-0.01387 0.20585 0.07279 0.48875
   3  -3  -8 8838.60  667.34   1 0.70689-0.55752 0.61167-0.80397-0.35517-0.20685
   3   3  -8 7917.75  751.17   1 0.74823-0.59890 0.65732-0.46522 0.08978-0.65182
  -3  -3   8 7869.53  471.14   1-0.60488 0.45574 0.68464-0.87659 0.40666 0.15455
  -3   3   8 8124.60  625.80   1-0.65687 0.50747 0.74774-0.55571-0.09689 0.65851
  -3  -3   727125.14  973.71   1-0.99833 0.83288 0.05769-0.24961-0.00242 0.49395
  -3   3   724881.39  935.15   1-0.98991 0.82447 0.12304 0.06888-0.07016 0.56169
   3  -3  -723334.27  770.45   1-0.29164 0.45922 0.67684-0.86908-0.67589 0.18385
   3  -3  -727436.96 1083.28   1 0.71821-0.55110 0.62236-0.81466-0.31118-0.18059
   3   3  -728142.22 1205.38   1 0.73591-0.56862 0.64930-0.45729 0.19193-0.68377
  -3  -3   727814.20 1043.24   1-0.61391 0.44706 0.69491-0.88686 0.37444 0.11662
  -3   3   728042.40 1241.34   1-0.64656 0.47917 0.73709-0.54487-0.19657 0.68810
  -3  -3   697345.90 2819.84   1-0.98857 0.80516 0.12961-0.32153-0.07700 0.49831
  -3   3   692541.37 2561.12   1-0.92787 0.74435 0.28572-0.09371-0.23961 0.66117
   3  -3  -687734.86 2435.76   1-0.19511 0.38032 0.69100-0.88324-0.69602 0.27427
   3  -3  -696574.26 2807.17   1 0.72845-0.54360 0.63214-0.82444-0.26409-0.15742
   3   3  -697197.17 2910.51   1 0.71306-0.52800 0.63112-0.43912 0.30532-0.72689
  -3  -3   698837.67 2839.54   1-0.62187 0.43733 0.70397-0.89592 0.34306 0.07784
  -3   3   699376.99 2967.18   1-0.62736 0.44231 0.71569-0.52347-0.30691 0.72823
  -3  -3   5101962.5 2767.46   1-0.96614 0.76473 0.20588-0.39789-0.15551 0.50681
  -3   3   597484.72 2522.40   1-0.79142 0.58939 0.44865-0.25675-0.41516 0.76595
   3  -3  -593955.33 2337.17   1-0.07308 0.27592 0.69900-0.89125-0.71137 0.35991
   3  -3  -592059.39 2383.68   1 0.73757-0.53499 0.64104-0.83333-0.21223-0.13903
   3   3  -5108303.8 2850.83   1 0.67443-0.47184 0.60001-0.40800 0.43026-0.78159
  -3  -3   594404.69 2408.73   1-0.62773 0.42505 0.71241-0.90440 0.31371 0.03731
  -3   3   599536.18 2676.02   1-0.59496 0.39219 0.67980-0.48767-0.42881 0.77996
  -3  -3   474332.88 2022.51   1-0.92852 0.70922 0.28460-0.47661-0.23842 0.51945
  -3   3   472332.51 1898.05   1-0.58412 0.36423 0.58347-0.39154-0.56423 0.84499
   3  -3  -466169.87 1742.03   1 0.06777 0.15254 0.69578-0.88803-0.71504 0.43373
   3  -3  -469026.63 1855.28   1 0.74543-0.52510 0.64894-0.84124-0.15230-0.12870
  -3   3   464258.62 1706.61   1 0.68066-0.90106 0.60519-0.41318 0.41283-0.13177
   3   3  -464624.67 1885.71   1 0.61486-0.39446 0.54990-0.35789 0.56528-0.84634
  -3  -3   470138.14 1860.87   1-0.63326 0.41292 0.71875-0.91074 0.28698-0.00616
   3   3  -466639.50 1768.44   1-0.62984 0.85021 0.71846-0.52625-0.29513 0.01425
  -3   3   471036.32 2016.55   1-0.54483 0.32441 0.62318-0.43105-0.56106 0.84198
  -3   3   3213238.7 4071.05   1-0.33902 0.10113 0.66707-0.47489-0.66338 0.87421
   3  -3  -3208585.8 3968.87   1 0.21311 0.02496 0.67714-0.86947-0.70430 0.49335
   3  -3  -3218945.7 4143.82   1 0.75040-0.51223 0.65638-0.84848-0.07779-0.13296
  -3   3   3209520.7 3950.76   1 0.63343-0.87164 0.56561-0.37360 0.52805-0.31725
   3   3  -3224605.3 4373.68   1 0.52810-0.28990 0.47613-0.28404 0.70313-0.91393
  -3  -3   3221580.1 4175.51   1-0.63713 0.39914 0.72319-0.91518 0.26654-0.05592
   3   3  -3209488.1 3958.68   1-0.60918 0.84720 0.69528-0.50307-0.38140 0.17074
   3  -3  -2331532.4 6200.33   1 0.35017-0.09438 0.64484-0.83716-0.67937 0.53873
   3  -3  -2352220.3 6513.41   1 0.75134-0.49540 0.65909-0.85120 0.03276-0.17328
  -3   3   2346328.5 6400.58   1 0.50593-0.76192 0.45709-0.26500 0.73150-0.59097
  -3  -3   2360226.1 6648.89   1-0.63781 0.38216 0.72396-0.91595 0.26281-0.12239
   3   3  -2355636.5 6568.37   1-0.53960 0.79533 0.61727-0.42514-0.57254 0.43207
  -3   3   1173924.2 3402.93   1 0.09071-0.36416 0.69383-0.50158-0.71439 0.78472
   3  -3  -1171466.4 3178.36   1-0.13659 0.40972-0.13895-0.05285-0.98083 0.91067
   3  -3  -1173074.1 3216.28   1 0.72632-0.45245 0.64179-0.83379 0.24607-0.31633
   3   3  -1172723.6 3381.45   1 0.27220 0.00136 0.25512-0.06307 0.92780-0.99800
  -3  -3   1167701.3 3090.23   1-0.62215 0.34885 0.70602-0.89800 0.33830-0.26810
  -3  -3   045441.53 1064.91   1-0.59171 0.30121 0.57982-0.77175-0.56006 0.56006
  -3   3   047490.89 1140.63   1 0.23531-0.52651 0.67291-0.48059-0.70129 0.70129
  -3  -3   047130.19 1441.13   1-0.12409-0.16657-0.12809-0.06371-0.98396 0.98396
   3  -3   046889.65  901.22   1 0.46846-0.17731 0.39309-0.58526-0.79121 0.79121
   3  -3   048590.02  940.83   1 0.51576-0.22420 0.46554-0.65763 0.71920-0.71920
   3  -3   046813.70 1079.11   1 0.11620 0.17298-0.13850-0.05256 0.98352-0.98352
  -3  -3  -137963.50  932.30   1-0.47340 0.16476 0.62899-0.82117-0.61664 0.54637
  -3   3  -138288.00 1105.20   1 0.33686-0.64577 0.64865-0.45633-0.68247 0.61215
  -3   3  -137327.78  755.19   1-0.01668-0.29157-0.03597 0.22786-0.99921 0.92900
  -3  -3  -139273.90 1674.04   1 0.01244-0.32070-0.01057-0.18131-0.99986 0.92966
   3  -3   137159.64  753.06   1 0.68677-0.37802 0.59115-0.78347-0.42294 0.49322
   3   3   137767.96  733.41   1-0.00495 0.31283-0.00050 0.19196 0.99998-0.93020
   3  -3   138724.43 1293.95   1-0.00531 0.31319-0.00008-0.19137 0.99998-0.93020
  -3  -3  -137762.72  737.84   1-0.65365 0.34495 0.74415-0.93618-0.13771 0.06751
  -3  -3  -280618.04 2153.12   1-0.35698 0.03066 0.66292-0.85510-0.65809 0.51754
  -3   3  -282359.80 2287.42   1 0.40547-0.73209 0.62739-0.43507-0.66480 0.52416
  -3  -3  -282525.57 2224.84   1 0.12473-0.45050 0.08756-0.27945-0.98831 0.84791
  -3   3  -281553.32 2089.81   1 0.28637-0.61270 0.23030-0.03813-0.93002 0.78938
   3  -3   281100.19 2059.55   1 0.73118-0.40443 0.63479-0.82708-0.24982 0.39032
   3  -3   286850.79 2311.32   1-0.10651 0.43227 0.11497-0.30643 0.98764-0.84807
   3   3   281111.61 2036.41   1-0.34525 0.67141 0.38667-0.19475 0.85514-0.71503
  -3  -3  -280798.74 2042.40   1-0.65811 0.33172 0.74911-0.94114-0.07554-0.06485
  -3  -3  -373781.07 1958.43   1-0.25239-0.09149 0.68346-0.87571-0.68496 0.47408
  -3   3  -373586.46 2094.93   1 0.44985-0.79417 0.61136-0.41904-0.65104 0.44009
  -3  -3  -371667.18 1962.40   1 0.20995-0.55385 0.16298-0.35514-0.96403 0.75307
  -3   3  -370678.50 1769.71   1 0.41836-0.76228 0.34760-0.15546-0.83913 0.62828
   3  -3   370742.90 1778.00   1 0.74549-0.40100 0.64901-0.84131-0.15171 0.36247
   3  -3   372425.61 1986.21   1-0.18446 0.52828 0.20294-0.39476 0.96165-0.75171
   3   3   370983.71 1761.95   1-0.44411 0.78796 0.50006-0.30808 0.74343-0.53309
  -3  -3  -373105.15 1831.27   1-0.65777 0.31368 0.74874-0.94077-0.08194-0.12866
  -3  -3  -4 4260.68  361.81   1-0.16519-0.19631 0.69396-0.88620-0.70080 0.41963
  -3  -3  -4 5824.68  751.19   1 0.27225-0.63371 0.21785-0.41002-0.93723 0.65595
  -3   3  -4 5608.89  328.25   1 0.47933-0.84085 0.40278-0.21061-0.77974 0.49860
   3  -3   4 5509.47  815.48   1-0.24081 0.60238 0.26689-0.45870 0.93315-0.65323
   3   3   4 4751.70  263.58   1-0.48148 0.84304 0.54253-0.35055 0.68835-0.40789
  -3  -3  -4 4010.97  289.80   1-0.65636 0.29457 0.74717-0.93921-0.10442-0.17638
  -3  -3  -529690.58 1053.99   1-0.09789-0.28124 0.69824-0.89048-0.70913 0.35767
  -3   3  -529237.55 1299.90   1 0.48973-0.86939 0.59507-0.40278-0.63722 0.28619
  -3  -3  -530938.67 1166.20   1 0.31562-0.69472 0.25660-0.44874-0.91352 0.56212
  -3   3  -531875.22 1068.47   1 0.50842-0.88754 0.42877-0.23659-0.74676 0.39533
   3  -3   529381.24 1071.08   1-0.28030 0.65963 0.31169-0.50351 0.90789-0.55799
   3   3   530207.97  991.22   1-0.49643 0.87570 0.55952-0.36754 0.66369-0.31312
  -3  -3  -632937.42 1177.20   1-0.05149-0.34591 0.69995-0.89220-0.71232 0.29035
  -3   3  -633501.47 1355.68   1 0.49287-0.89033 0.59373-0.40145-0.63604 0.21481
  -3  -3  -633878.19 1295.33   1 0.34527-0.74195 0.28282-0.47496-0.89487 0.47318
  -3   3  -633153.58 1109.90   1 0.52131-0.91802 0.44031-0.24813-0.73099 0.30928
   3  -3   636415.01 1290.23   1-0.30665 0.70386 0.34279-0.53471 0.88794-0.46759
   3   3   633207.39 1080.18   1-0.50066 0.89765 0.56433-0.37236 0.65639-0.23571
  -3  -3  -714449.45  851.09   1-0.02138-0.39372 0.69984-0.89209-0.71397 0.22167
  -3   3  -717537.50 1214.42   1 0.48789-0.90315 0.59584-0.40355-0.63790 0.14646
  -3  -3  -716764.85 1029.90   1 0.36431-0.77857 0.29967-0.49182-0.88174 0.38977
  -3   3  -718068.53 1049.74   1 0.52475-0.93905 0.44338-0.25120-0.72666 0.23466
   3  -3   715287.43  916.77   1-0.32376 0.73873 0.36224-0.55416 0.87404-0.38363
   3   3   716245.01  878.55   1-0.49877 0.91347 0.56218-0.37020 0.65968-0.16888
  -3  -3  -813448.56  695.06   1-0.00668-0.42613 0.69955-0.89181-0.71454 0.15191
  -3   3  -815048.03  904.88   1 0.47618-0.90923 0.60070-0.40842-0.64218 0.08053
  -3  -3  -814312.91  818.15   1 0.37526-0.80711 0.30937-0.50152-0.87376 0.31151
  -3   3  -811766.57  632.23   1 0.52201-0.95391 0.44093-0.24875-0.73011 0.16783
   3  -3   811403.16  635.92   1-0.33360 0.76634 0.37343-0.56534 0.86559-0.30512
   3   3   811479.79  576.06   1-0.49282 0.92523 0.55541-0.36343 0.66980-0.10889
  -3  -3  -9 1187.24  396.24   1-0.00549-0.44504 0.69952-0.89178-0.71458 0.08162
  -3   3  -9  667.86  395.96   1 0.45862-0.90946 0.60773-0.41544-0.64832 0.01647
  -3  -3  -9  166.46  285.06   1 0.37990-0.82933 0.31349-0.50563-0.87028 0.23775
  -3   3  -9  887.13  364.00   1 0.51484-0.96433 0.43451-0.24234-0.73900 0.10643
   3  -3   9  792.89  356.34   1-0.33780 0.78830 0.37820-0.57012 0.86188-0.23135
   3   3   9 1220.38  381.02   1-0.48386 0.93399 0.54524-0.35326 0.68452-0.05350
  -3   3 -10 2276.11  632.66   1 0.43601-0.90429 0.61656-0.42424-0.65554-0.04763
  -3  -3 -10 1318.61  434.53   1 0.37948-0.84649 0.31311-0.50526-0.87060 0.16779
  -3   3 -10 1604.64  422.61   1 0.50420-0.97128 0.42500-0.23282-0.75176 0.04891
   3  -3  10 1855.98  479.51   1-0.33750 0.80576 0.37785-0.56977 0.86215-0.16157
   3   3  10  544.46  215.84   1-0.47247 0.94030 0.53229-0.34031 0.70244-0.00130
   3   4 -12 3844.45  717.06   1 0.91890-0.84733 0.24633 0.00932-0.30810-0.53097
   3  -4 -12 3921.61  714.56   1 0.62516-0.54618 0.53482-0.79124-0.56844-0.27497
   3   4 -12 5986.33 1064.27   1 0.73943-0.66101 0.64288-0.38648-0.19985-0.64319
  -3  -4  12 3016.36  589.74   1-0.53251 0.45434 0.60053-0.85650 0.59647 0.24488
  -3   4  12 5118.79  885.39   1-0.65035 0.57124 0.73838-0.48239 0.17841 0.66405
   3   4 -11 7092.22  786.83   1 0.94650-0.85673 0.19519 0.06046-0.25695-0.51220
   3  -4 -11 6018.84  762.97   1 0.64057-0.54391 0.54882-0.80525-0.53707-0.23605
   3   4 -11 6045.32  854.38   1 0.74802-0.65186 0.65167-0.39527-0.12561-0.64717
  -3  -4  11 7232.95  832.72   1-0.54394 0.44788 0.61525-0.87118 0.57060 0.20107
  -3   4  11 8646.22  912.01   1-0.65724 0.56048 0.74634-0.49036 0.10488 0.66738
  -3  -4  10 4041.54  753.53   1-0.97027 0.85609-0.13811-0.11785 0.19874 0.50319
   3  -4 -10 3170.63  657.60   1 0.65465-0.54032 0.56166-0.81809-0.50592-0.19692
   3   4 -10 4339.35  978.49   1 0.75162-0.63783 0.65801-0.40187-0.04554-0.65701
  -3  -4  10 2361.53  488.07   1-0.55499 0.44123 0.62782-0.88376 0.54572 0.15580
  -3   4  10 2104.51  541.95   1-0.65988 0.54588 0.75091-0.49487 0.02593 0.67609
  -3  -4   9 5419.31  960.44   1-0.98639 0.85457-0.08223-0.17373 0.14234 0.48940
   3  -4  -9 2482.40  510.88   1 0.66743-0.53542 0.57336-0.82978-0.47517-0.15739
   3   4  -9 4166.88  827.66   1 0.75102-0.61946 0.65896-0.40282 0.04149-0.67379
  -3  -4   9 4194.84  703.53   1-0.56462 0.43316 0.63879-0.89472 0.52262 0.10874
  -3   4   9 6216.21 1120.12   1-0.65884 0.52714 0.74990-0.49386-0.05970 0.69153
  -3   4   8 4443.09  462.22   1-0.98994 0.84047-0.06550 0.32147 0.12537 0.43617
  -3  -4   8 6878.50 1142.66   1-0.99626 0.84680-0.02383-0.23213 0.08296 0.47858
   3  -4  -8 4947.87  531.32   1 0.67892-0.52924 0.58391-0.84033-0.44509-0.11718
   3   4  -8 5398.75  587.89   1 0.74384-0.59450 0.65425-0.39811 0.13656-0.69861
  -3  -4   8 5283.34  435.13   1-0.57270 0.42356 0.64800-0.90393 0.50209 0.05912
  -3   4   8 4715.12  719.64   1-0.65216 0.50276 0.74248-0.48644-0.15293 0.71455
  -3  -4   712604.07 1143.96   1-0.99917 0.83372 0.03425-0.29015 0.02173 0.46979
  -3   4   710126.73  385.73   1-0.99386 0.82842 0.10029 0.15559-0.04652 0.53805
   3  -4  -7 9885.49  376.69   1-0.02401 0.19121 0.69988-0.95621-0.71385 0.22155
   3  -4  -712051.32  703.09   1 0.68909-0.52174 0.59329-0.84972-0.41610-0.07588
   3   4  -712463.25  836.63   1 0.72735-0.56005 0.64260-0.38659 0.24087-0.73271
  -3  -4   711346.90  523.61   1-0.57899 0.41215 0.65516-0.91109 0.48530 0.00576
  -3   4   714708.58 1091.81   1-0.63749 0.47010 0.72700-0.47072-0.25507 0.74660
  -3  -4   6131186.3 3711.08   1-0.99413 0.81073 0.09849-0.35438-0.04465 0.46596
  -3   4   6128480.4 3511.87   1-0.92000 0.73649 0.29884-0.04283-0.25352 0.67508
   3  -4  -6118215.3 3220.74   1 0.08350 0.10139 0.69448-0.95082-0.71464 0.29267
   3  -4  -6130021.8 3675.50   1 0.69787-0.51284 0.60142-0.85785-0.38890-0.03279
   3   4  -6128488.5 3767.87   1 0.69970-0.51464 0.62020-0.36420 0.35463-0.77620
  -3  -4   6128479.7 3601.18   1-0.58298 0.39844 0.65970-0.91563 0.47425-0.05333
  -3   4   6122799.0 3589.52   1-0.61333 0.42828 0.69995-0.44366-0.36591 0.78723
  -3  -4   533894.37 1039.08   1-0.97952 0.77816 0.16557-0.42146-0.11455 0.46564
  -3   4   533570.26  901.94   1-0.74371 0.54148 0.48774-0.23184-0.45715 0.80811
   3  -4  -530218.86  841.43   1 0.20356-0.00090 0.67885-0.93528-0.70548 0.35389
   3  -4  -532646.11 1007.09   1 0.70507-0.50237 0.60812-0.86454-0.36476 0.01333
   3   4  -534237.05 1194.58   1 0.65613-0.45354 0.58471-0.32870 0.47706-0.82839
  -3  -4   530735.77  915.73   1-0.58362 0.38139 0.66043-0.91636 0.47244-0.12167
  -3   4   534158.01 1200.56   1-0.57578 0.37301 0.65816-0.40200-0.48506 0.83621
  -3  -4   4136841.7 3662.84   1-0.95370 0.73440 0.23568-0.49170-0.18679 0.46783
  -3   4   4138414.1 3499.33   1-0.49161 0.27141 0.62249-0.36625-0.60894 0.89005
   3  -4  -4130142.8 3290.57   1 0.32308-0.10270 0.65243-0.90886-0.68552 0.40425
   3  -4  -4136053.6 3471.69   1 0.70889-0.48857 0.61356-0.86995-0.34786 0.06684
  -3   4   4122443.0 3110.48   1 0.70713-0.92771 0.62629-0.37029 0.32818-0.04713
   3   4  -4134782.8 3536.58   1 0.59287-0.37247 0.53122-0.27521 0.60522-0.88629
  -3  -4   4132987.5 3377.54   1-0.57844 0.35851 0.65453-0.91046 0.48681-0.20620
   3   4  -4111479.6 2846.72   1-0.64894 0.86931 0.73972-0.48343-0.17799-0.10288
  -3   4   4126488.3 3385.88   1-0.52155 0.30113 0.59683-0.34066-0.60973 0.89065
  -3  -4   337834.80 1336.19   1-0.91485 0.67766 0.30703-0.56305-0.26222 0.47300
  -3   4   335355.21 1028.17   1-0.22209-0.01600 0.68776-0.43143-0.69112 0.90200
   3  -4  -334276.32  985.53   1 0.43405-0.19597 0.61729-0.87371-0.65616 0.44520
   3  -4  -337631.73 1059.80   1 0.71059-0.47253 0.61516-0.87155-0.34150 0.13074
  -3   4   336298.70 1002.20   1 0.67491-0.91312 0.60041-0.34440 0.42894-0.21814
   3   4  -337219.45 1222.44   1 0.50593-0.26774 0.45709-0.20097 0.73150-0.94229
  -3  -4   336433.03  995.45   1-0.56028 0.32266 0.63385-0.88979 0.53320-0.32274
   3   4  -334929.09  972.51   1-0.64158 0.87961 0.73156-0.47527-0.23062 0.01996
  -3   4   335882.23 1204.86   1-0.44698 0.20882 0.51252-0.25632-0.73316 0.94376
  -3  -4   239764.09 1157.23   1-0.86108 0.60608 0.37852-0.63439-0.33947 0.47979
  -3   4   239592.32 1164.69   1 0.01229-0.26803 0.69896-0.44263-0.71504 0.85570
   3  -4  -237188.13 1062.07   1 0.53249-0.27737 0.57597-0.83236-0.62024 0.47983
   3  -4  -238348.53 1011.46   1 0.70365-0.44785 0.60863-0.86503-0.36664 0.22613
  -3   4   238560.51 1013.97   1 0.57036-0.82634 0.51231-0.25619 0.64204-0.50151
   3   4  -243876.67 1331.44   1 0.39529-0.13945 0.36225-0.10619 0.84410-0.98451
  -3  -4   237081.96  967.00   1-0.50147 0.24618 0.56525-0.82123 0.65498-0.51475
   3   4  -240315.28 1062.06   1-0.61043 0.86612 0.69670-0.44041-0.37678 0.23634
  -3  -4   1478476.5 8944.25   1-0.79230 0.51964 0.44787-0.70373-0.41431 0.48447
  -3   4   1505151.212474.42   1 0.19056-0.46401 0.68095-0.42462-0.70709 0.77742
   3  -4  -1483021.311780.94   1-0.05702 0.33027-0.07112-0.18472-0.99583 0.92563
   3   4  -1479947.7 8980.15   1 0.26848 0.00508 0.25187 0.00418 0.92977-0.99997
  -3  -4   027737.93  872.74   1-0.70924 0.41874 0.51231-0.76821-0.48425 0.48425
  -3   4   035288.53 1124.19   1 0.31736-0.60856 0.65395-0.39752-0.68674 0.68674
  -3  -4   025891.03  965.71   1-0.13602-0.15464-0.13845-0.11729-0.98098 0.98098
   3  -4   029396.84  921.24   1 0.12547 0.16371-0.14908-0.10568 0.98083-0.98083
  -3  -4  -158353.05 1597.21   1-0.61545 0.30729 0.56792-0.82382-0.54651 0.47632
  -3   4  -156120.71 1712.13   1 0.40382-0.71273 0.62795-0.37153-0.66527 0.59496
  -3  -4  -155997.75 1590.95   1-0.01329-0.29496-0.03302-0.22282-0.99936 0.92916
   3  -4   153600.06 1325.25   1 0.69432-0.38486 0.61650-0.87251 0.37126-0.30100
   3  -4   156190.71 1653.01   1 0.01856 0.28931-0.02725-0.22803 0.99945-0.92967
  -3  -4  -2116596.6 3020.95   1-0.51777 0.19145 0.61253-0.86877-0.59725 0.45670
  -3   4  -2112613.1 3031.94   1 0.46124-0.78753 0.60670-0.35032-0.64742 0.50701
  -3  -4  -2118028.0 3258.27   1 0.09002-0.41578 0.05719-0.31304-0.99429 0.85388
  -3   4  -2116611.1 2900.10   1 0.28861-0.61495 0.23228 0.02393-0.92884 0.78820
   3  -4   2113543.5 2831.44   1 0.74196-0.41479 0.65387-0.90988 0.14812-0.00759
   3  -4   2121583.3 3202.49   1-0.07298 0.39873 0.07685-0.33214 0.99436-0.85480
   3   4   2114391.6 2834.42   1-0.40316 0.72932 0.45248-0.19659 0.79543-0.65531
  -3  -4  -2113501.1 2824.45   1-0.54856 0.22222 0.62741-0.88358-0.55265 0.41219
  -3  -4  -311153.51  511.10   1-0.42276 0.07876 0.64531-0.90155-0.63626 0.42543
  -3   4  -310386.05  628.85   1 0.49728-0.84136 0.59184-0.33546-0.63437 0.42375
  -3  -4  -314931.70 1552.14   1 0.17110-0.51500 0.12883-0.38505-0.97679 0.76583
  -3   4  -312203.35  418.32   1 0.44408-0.78800 0.37046-0.11426-0.81581 0.60496
   3  -4   311959.75  418.34   1 0.74558-0.40081 0.65551-0.91165 0.12001 0.09075
   3  -4   314963.99 1352.60   1-0.14627 0.49009 0.15960-0.41536 0.97628-0.76634
   3   4   311814.32  377.99   1-0.49183 0.83569 0.55430-0.29833 0.67144-0.46110
  -3  -4  -311192.26  414.47   1-0.60561 0.26163 0.69127-0.94756-0.39417 0.18351
  -3  -4  -430620.57 1017.32   1-0.33777-0.02391 0.66735-0.92358-0.66374 0.38263
  -3   4  -433373.99 1350.34   1 0.51803-0.87991 0.58265-0.32627-0.62621 0.34539
  -3  -4  -430817.80 1491.75   1 0.23264-0.59410 0.18295-0.43917-0.95519 0.67392
  -3   4  -432816.55 1001.60   1 0.50479-0.86631 0.42553-0.16929-0.75106 0.46992
   3  -4   429394.60  918.70   1 0.74485-0.38231 0.65499-0.91113 0.12717 0.15385
   3  -4   435794.93 1962.70   1-0.20158 0.56315 0.22237-0.47813 0.95389-0.67397
   3   4   433284.65 1005.84   1-0.51804 0.87961 0.58408-0.32811 0.62487-0.34441
  -3  -4  -428237.96  910.87   1-0.62048 0.25884 0.70798-0.96427-0.33727 0.05639
  -3  -4  -5 7285.83  459.04   1-0.26773-0.11140 0.68102-0.93734-0.68156 0.33010
  -3   4  -5 6009.17  611.09   1 0.52734-0.90701 0.57838-0.32200-0.62239 0.27137
  -3  -4  -5 7274.10  881.79   1 0.27744-0.65647 0.22243-0.47865-0.93463 0.58303
  -3   4  -5 5662.19  391.89   1 0.53074-0.90985 0.44875-0.19251-0.71898 0.36755
   3  -4   5 6498.38 1038.49   1-0.24200 0.62132 0.26824-0.52399 0.93245-0.58255
   3   4   5 5775.60  320.28   1-0.52583 0.90511 0.59293-0.33696 0.60985-0.25928
  -3  -4  -616806.38  691.15   1-0.21406-0.18270 0.68878-0.94511-0.69264 0.27089
  -3   4  -619601.93  975.23   1 0.52776-0.92522 0.57819-0.32180-0.62222 0.20099
  -3  -4  -617166.14 1358.01   1 0.30898-0.70556 0.25026-0.50648-0.91755 0.49563
  -3   4  -616310.91  641.86   1 0.54067-0.93738 0.45765-0.20142-0.70584 0.28413
   3  -4   617449.38 1799.50   1-0.27055 0.66762 0.30062-0.55638 0.91456-0.49468
   3   4   616371.74  633.38   1-0.52533 0.92232 0.59237-0.33639 0.61083-0.19015
  -3  -4  -716709.85  824.88   1-0.17723-0.23716 0.69285-0.94917-0.69895 0.20691
  -3   4  -718349.27 1104.15   1 0.52100-0.93625 0.58130-0.32492-0.62500 0.13357
  -3  -4  -723144.15 1184.89   1 0.32975-0.74401 0.26908-0.52528-0.90490 0.41294
  -3   4  -719208.86  911.08   1 0.54168-0.95598 0.45855-0.20232-0.70448 0.21248
   3  -4   721659.87 1128.85   1-0.28937 0.70434 0.32315-0.57904 0.90101-0.41060
   3   4   719497.67  920.21   1-0.52010 0.93480 0.58642-0.33045 0.62096-0.13016
  -3  -4  -8 1398.72  411.71   1-0.15636-0.27566 0.69471-0.95103-0.70208 0.13975
  -3   4  -8  477.10  409.67   1 0.50820-0.94125 0.58707-0.33069-0.63014 0.06849
  -3  -4  -8  219.25  292.71   1 0.34280-0.77464 0.28063-0.53682-0.89651 0.33426
  -3   4  -8  779.42  346.98   1 0.53696-0.96886 0.45432-0.19809-0.71080 0.14852
   3  -4   8  843.93  361.67   1-0.30131 0.73405 0.33672-0.59261 0.89208-0.33161
   3   4   8  676.54  239.39   1-0.51167 0.94408 0.57684-0.32087 0.63674-0.07583
  -3   4  -9 3049.60  796.48   1 0.49009-0.94093 0.59491-0.33853-0.63708 0.00523
  -3  -4  -9 5607.21  738.73   1 0.34940-0.79883 0.28647-0.54266-0.89210 0.25958
  -3   4  -9 3611.09  509.47   1 0.52814-0.97763 0.44642-0.19018-0.72233 0.08976
   3  -4   9 4081.32  493.33   1-0.30747 0.75797 0.34372-0.59961 0.88730-0.25677
   3   4   9 4454.05  506.41   1-0.50077 0.95089 0.56445-0.30848 0.65621-0.02518
  -3   4 -10  959.64  719.94   1 0.46715-0.93578 0.60435-0.34797-0.64538-0.05667
  -3  -4 -10  809.95  318.44   1 0.35074-0.81775 0.28765-0.54385-0.89119 0.18838
  -3   4 -10  597.85  236.91   1 0.51608-0.98316 0.43562-0.17939-0.73748 0.03463
   3  -4  10 1040.40  386.99   1-0.30893 0.77719 0.34538-0.60127 0.88615-0.18556
   3   4  10  639.47  227.30   1-0.48778 0.95561 0.54969-0.29371 0.67816 0.02297
   3   5 -12  481.53  507.59   1 0.91747-0.84590 0.24870 0.07087-0.31047-0.52860
   3  -5 -12  524.40  403.81   1 0.59594-0.51591 0.50735-0.82764-0.62245-0.22097
   3   5 -12 1616.07  614.70   1 0.74327-0.66485 0.64673-0.32624-0.17107-0.67196
  -3  -5  12  438.96  320.67   1-0.50217 0.42400 0.56605-0.88601 0.65376 0.18760
  -3   5  12  702.62  380.49   1-0.65421 0.57510 0.74283-0.42285 0.14215 0.70032
   3   5 -11 7062.17  851.00   1 0.94376-0.85399 0.20083 0.11874-0.26261-0.50654
   3  -5 -11 8271.94  966.20   1 0.61018-0.51256 0.52020-0.84050-0.59754-0.17559
   3   5 -11 9914.73 1211.65   1 0.74949-0.65345 0.65529-0.33512-0.09407-0.67873
  -3  -5  11 9030.67  940.52   1-0.51308 0.41719 0.57844-0.89841 0.63414 0.13710
  -3   5  11 7797.91  931.77   1-0.65872 0.56242 0.74951-0.42946 0.06566 0.70656
  -3  -5  1013714.49  810.27   1-0.96677 0.85260-0.14785-0.17211 0.20853 0.49340
   3  -5 -1013021.23  865.26   1 0.62170-0.50737 0.53168-0.85221-0.57514-0.12769
   3   5 -1011891.52  850.74   1 0.75207-0.63827 0.65898-0.33880-0.01131-0.69124
  -3  -5  1011741.01  754.61   1-0.52222 0.40862 0.58883-0.90880 0.61688 0.08425
  -3   5  1013820.38  944.64   1-0.65997 0.54597 0.75110-0.43105-0.01636 0.71840
  -3  -5   9 3532.02 1010.82   1-0.98292 0.85110-0.09643-0.22353 0.15671 0.47502
   3  -5  -9 4961.37  722.08   1 0.63258-0.50057 0.54155-0.86208-0.55367-0.07889
   3   5  -9 4027.94  810.67   1 0.74907-0.61750 0.65786-0.33769 0.07808-0.71038
  -3  -5   9 3218.21  480.12   1-0.52937 0.39806 0.59695-0.91692 0.60283 0.02819
  -3   5   9 4373.63  852.19   1-0.65635 0.52465 0.74716-0.42711-0.10458 0.73641
  -3  -5   841565.76 3283.50   1-0.99377 0.84430-0.04319-0.27676 0.10270 0.45884
   3  -5  -834435.05 1748.84   1 0.64154-0.49186 0.54971-0.87024-0.53500-0.02727
   3   5  -837830.47 2005.19   1 0.73840-0.58888 0.65121-0.33120 0.17513-0.73723
  -3  -5   838986.16 1952.15   1-0.53411 0.38509 0.60234-0.92231 0.59321-0.03230
  -3   5   834159.23 1869.44   1-0.64609 0.49636 0.73656-0.41620-0.20007 0.76183
  -3  -5   733330.04 1164.21   1-0.99882 0.83338 0.00921-0.32908 0.04748 0.44404
  -3   5   729580.76  892.50   1-0.99904 0.83359 0.04115 0.27871 0.01463 0.47689
   3  -5  -731146.93 1116.22   1 0.64822-0.48086 0.55580-0.87632-0.52047 0.02847
   3   5  -734530.87 1497.09   1 0.71911-0.55181 0.63601-0.31601 0.27993-0.77177
  -3  -5   731765.82 1096.42   1-0.53571 0.36898 0.60417-0.92413 0.58990-0.09910
  -3   5   733179.46 1364.78   1-0.62831 0.46092 0.71675-0.39639-0.30244 0.79398
  -3  -5   633426.31 1770.67   1-0.99770 0.81430 0.06667-0.38653-0.01169 0.43300
  -3   5   632784.39  972.33   1-0.91822 0.73471 0.30171 0.01830-0.25657 0.67813
   3  -5  -630209.11  925.79   1 0.42356-0.23861 0.62108-0.94162-0.65942 0.23751
   3  -5  -632938.05 1143.09   1 0.65189-0.46686 0.55915-0.87968-0.51222 0.09052
   3   5  -631137.17 1225.45   1 0.68792-0.50287 0.61048-0.29047 0.39251-0.81409
  -3  -5   633139.00 1107.84   1-0.53281 0.34837 0.60087-0.92084 0.59586-0.17518
  -3   5   636852.83 1499.70   1-0.60044 0.41539 0.68545-0.36510-0.41183 0.83315
  -3  -5   511615.85  927.62   1-0.98928 0.78792 0.12617-0.44604-0.07342 0.42451
  -3   5   512898.96  446.58   1-0.69246 0.49023 0.52339-0.20351-0.49653 0.84749
   3  -5  -511886.10  441.12   1 0.49719-0.29545 0.59188-0.91235-0.63440 0.28338
   3  -5  -514002.09  607.78   1 0.65106-0.44836 0.55839-0.87892-0.51411 0.16268
   3   5  -511886.32  686.14   1 0.64128-0.43869 0.57223-0.25221 0.51118-0.86251
  -3  -5   512502.24  543.60   1-0.52264 0.32049 0.58931-0.90928 0.61607-0.26550
  -3   5   514271.75 1098.43   1-0.55964 0.35687 0.63993-0.31972-0.52658 0.87773
  -3  -5   4 8667.35  897.57   1-0.97262 0.75332 0.18789-0.50792-0.13670 0.41774
  -3   5   4 7683.09  332.25   1-0.39688 0.17667 0.65270-0.33241-0.64533 0.92643
   3  -5  -4 7299.85  323.32   1 0.56572-0.34619 0.55969-0.88016-0.60556 0.32474
   3  -5  -4 7573.98  394.90   1 0.64217-0.42179 0.55028-0.87081-0.53366 0.25252
  -3   5   4 6590.00  338.35   1 0.72581-0.94639 0.64138-0.32137 0.24863 0.03241
   3   5  -4 7335.12  553.64   1 0.57648-0.35607 0.51754-0.19739 0.63230-0.91336
  -3  -5   4 8715.00  354.68   1-0.49894 0.27907 0.56237-0.88234 0.65938-0.37892
   3   5  -4 6897.66  335.67   1-0.65832 0.87852 0.74934-0.42929-0.07129-0.20951
  -3   5   4 8294.37  594.86   1-0.50376 0.28334 0.57667-0.25646-0.64316 0.92408
  -3  -5   330238.91  952.30   1-0.94659 0.70939 0.25077-0.57079-0.20267 0.41345
  -3   5   330275.90  910.95   1-0.11587-0.12222 0.69742-0.37701-0.70723 0.91810
   3  -5  -329143.79  842.73   1 0.62828-0.39096 0.52516-0.84564-0.57398 0.36336
   3  -5  -329660.11  822.30   1 0.61486-0.37681 0.52547-0.84600-0.58805 0.37720
  -3   5   329027.39  804.43   1 0.70612-0.94446 0.62546-0.30546 0.33193-0.12114
   3   5  -331351.56 1078.42   1 0.49182-0.25362 0.44494-0.12479 0.74842-0.95921
  -3  -5   328377.87  773.41   1-0.44496 0.20738 0.50103-0.82099 0.74227-0.53193
   3   5  -328541.27  793.67   1-0.65741 0.89531 0.74834-0.42829-0.08823-0.12237
  -3   5   332125.95 1101.74   1-0.43080 0.19265 0.49414-0.17388-0.75513 0.96573
  -3  -5   252888.66 1536.67   1-0.91010 0.65501 0.31434-0.63437-0.27000 0.41052
  -3   5   252054.70 1481.49   1 0.10742-0.36316 0.69217-0.37175-0.71368 0.85434
   3  -5  -251919.68 1327.76   1 0.52721-0.27125 0.44559-0.76588-0.72352 0.58295
  -3   5   250272.66 1287.44   1 0.63051-0.88654 0.56314-0.24313 0.53414-0.39360
   3   5  -254563.78 1657.97   1 0.38798-0.13215 0.35591-0.03584 0.85017-0.99058
  -3  -5   250515.26 1292.29   1-0.30429 0.04918 0.34011-0.65997 0.88979-0.74967
   3   5  -249133.78 1272.32   1-0.65107 0.90667 0.74126-0.42121-0.16315 0.02275
  -3  -5   120081.19  792.33   1-0.86228 0.58962 0.37713-0.69696-0.33798 0.40813
  -3   5   121341.10  829.38   1 0.26795-0.54144 0.66601-0.34547-0.69615 0.76647
   3   5  -120864.76  843.93   1 0.27240 0.00115 0.25529 0.06477 0.92769-0.99789
  -3  -5   038816.53 1192.63   1-0.80357 0.51325 0.43773-0.75756-0.40330 0.40330
  -3   5   043345.53 1376.45   1 0.37836-0.66957 0.63628-0.31575-0.67229 0.67229
  -3  -5   041249.21 1243.35   1-0.15281-0.13785-0.15304-0.16664-0.97633 0.97633
   3  -5   037234.69 1137.76   1 0.13890 0.15029-0.16440-0.15406 0.97656-0.97656
  -3  -5  -123176.13  754.21   1-0.73521 0.42705 0.49404-0.81392-0.46408 0.39389
  -3   5  -122634.12  880.03   1 0.45254-0.76145 0.61033-0.28980-0.65014 0.57983
  -3  -5  -124063.57  955.17   1-0.04128-0.26697-0.05741-0.26239-0.99749 0.92729
   3  -5   122889.78  986.34   1 0.04349 0.26439-0.05561-0.26348 0.99750-0.92772
  -3  -5  -2 6182.06  367.88   1-0.66005 0.33424 0.54331-0.86319-0.51877 0.37839
  -3   5  -2 5977.33  492.35   1 0.50122-0.82751 0.59013-0.26966-0.63286 0.49245
  -3  -5  -2 7091.75  732.68   1 0.05446-0.38022 0.02610-0.34592-0.99817 0.85776
  -3   5  -2 5294.48  399.85   1 0.25711-0.58344 0.20450 0.11577-0.94449 0.80385
   3  -5   2 5330.17  187.04   1 0.55903-0.23189 0.50264-0.82278 0.65941-0.51888
   3  -5   2 6003.77  530.55   1-0.04005 0.36581 0.03942-0.35853 0.99841-0.85885
   3   5   2 5639.57  184.84   1-0.47538 0.80152 0.53560-0.21563 0.69795-0.55772
  -3  -5  -336356.07 1144.46   1-0.58284 0.23937 0.58407-0.90395-0.56492 0.35435
  -3   5  -335829.41 1316.22   1 0.53124-0.87532 0.57656-0.25608-0.62076 0.41015
  -3  -5  -337192.26 1375.27   1 0.13174-0.47564 0.09427-0.41454-0.98679 0.77583
  -3   5  -337452.51 1084.72   1 0.46388-0.80781 0.38808-0.06784-0.79636 0.58552
   3  -5   334823.49 1013.24   1 0.67128-0.32620 0.59739-0.91740 0.43874-0.22794
   3  -5   337506.91 1424.18   1-0.10863 0.45225 0.11737-0.43648 0.98712-0.77778
   3   5   335954.65 1026.89   1-0.53753 0.88138 0.60623-0.28626 0.58612-0.37578
  -3  -5  -335192.56 1028.73   1-0.48071 0.13681 0.55085-0.87110-0.68225 0.47164
  -3  -5  -4  959.70  235.20   1-0.51008 0.14839 0.61553-0.93583-0.60076 0.31966
  -3   5  -4 2144.69  724.80   1 0.54790-0.90977 0.56858-0.24811-0.61360 0.33278
  -3  -5  -4 1775.65  475.47   1 0.19228-0.55374 0.14743-0.46771-0.97020 0.68892
  -3   5  -4  954.29  197.97   1 0.52576-0.88728 0.44429-0.12399-0.72538 0.44423
   3  -5   4  780.92  147.36   1 0.69794-0.33525 0.61875-0.93876 0.36057-0.07952
   3  -5   4 1000.83  288.84   1-0.16292 0.52449 0.17850-0.49819 0.97035-0.69043
   3   5   4  825.19  126.37   1-0.55106 0.91256 0.62335-0.30343 0.55475-0.27414
  -3  -5  -4  260.42  239.28   1-0.54320 0.18154 0.62134-0.94155-0.56467 0.28375
  -3  -5  -529235.68  959.48   1-0.44503 0.06565 0.63844-0.95874-0.62795 0.27657
  -3   5  -533833.28 1414.84   1 0.55446-0.93413 0.56535-0.24487-0.61068 0.25965
  -3  -5  -540174.22 3247.00   1 0.23777-0.61679 0.18747-0.50774-0.95305 0.60145
  -3   5  -534627.12 1089.17   1 0.54896-0.92808 0.46509-0.14479-0.69449 0.34306
   3  -5   536549.04 2841.56   1-0.20372 0.58304 0.22480-0.54450 0.95286-0.60296
   3   5   533702.13 1034.96   1-0.55163 0.93083 0.62400-0.30409 0.55345-0.20268
  -3  -5  -6 7533.65  428.64   1-0.39217-0.00488 0.65398-0.97428-0.64691 0.22525
  -3   5  -6 5589.36  635.20   1 0.55310-0.95056 0.56603-0.24555-0.61129 0.19006
  -3  -5  -6 8693.64 1053.82   1 0.27085-0.66743 0.21662-0.53689-0.93793 0.51601
  -3   5  -6 7935.20  485.18   1 0.55629-0.95300 0.47166-0.15137-0.68415 0.26244
   3  -5   6 8429.00  879.93   1-0.23359 0.63067 0.25869-0.57839 0.93728-0.51740
   3   5   6 7968.40  421.64   1-0.54666 0.94355 0.61834-0.29842 0.56463-0.14371
  -3  -5  -7 2059.74  347.39   1-0.35359-0.06115 0.66372-0.98402-0.65911 0.16718
  -3   5  -7 2087.84  574.87   1 0.54526-0.96051 0.56987-0.24939-0.61476 0.12332
  -3  -5  -7 1362.73  339.87   1 0.29391-0.70805 0.23695-0.55723-0.92599 0.43375
  -3   5  -7 2955.93  434.08   1 0.55515-0.96945 0.47064-0.15034-0.68578 0.19378
   3  -5   7 1999.11  453.48   1-0.25458 0.66941 0.28251-0.60221 0.92486-0.43500
   3   5   7 2126.00  335.47   1-0.53855 0.95325 0.60739-0.28743 0.58397-0.09317
  -3   5  -813164.86 1217.21   1 0.53189-0.96494 0.57626-0.25578-0.62049 0.05885
  -3  -5  -810349.40 1023.71   1 0.30890-0.74061 0.25019-0.57047-0.91759 0.35503
  -3   5  -810153.22  638.62   1 0.54867-0.98057 0.46482-0.14453-0.69490 0.13261
   3  -5   812308.89 1607.40   1-0.26840 0.70097 0.29818-0.61788 0.91599-0.35615
   3   5   810861.87  610.28   1-0.52789 0.96030 0.59528-0.27531 0.60577-0.04486
  -3   5  -9 1190.89  504.80   1 0.51362-0.96446 0.58465-0.26417-0.62798-0.00385
  -3  -5  -9  824.07  329.73   1 0.31696-0.76639 0.25778-0.57803-0.91273 0.28020
  -3   5  -9  940.73  328.62   1 0.53836-0.98785 0.45558-0.13529-0.70894 0.07637
   3  -5   9 1252.86  437.01   1-0.27637 0.72670 0.30723-0.62693 0.91061-0.28079
   3   5   9  471.82  178.20   1-0.51523 0.96535 0.58089-0.26092 0.63015 0.00086
  -3   5 -10 2750.76  780.29   1 0.49084-0.95947 0.59459-0.27412-0.63680-0.06524
  -3  -5 -10 2607.44  554.59   1 0.32003-0.78704 0.26049-0.58074-0.91089 0.20808
  -3   5 -10 1252.33  374.22   1 0.52500-0.99208 0.44361-0.12331-0.72634 0.02348
   3  -5  10 2156.71  540.99   1-0.27952 0.74761 0.31081-0.63051 0.90843-0.20863
   3   5  10 1630.70  437.45   1-0.50077 0.96860 0.56445-0.24449 0.65620 0.04492
   3   6 -11 4251.49  696.95   1 0.93941-0.84963 0.20951 0.17397-0.27131-0.49784
   3  -6 -11 4319.10  553.33   1 0.57382-0.47620 0.48742-0.87177-0.65813-0.11500
   3   6 -11 5327.88  753.53   1 0.75086-0.65483 0.65695-0.27274-0.06796-0.70484
  -3  -6  11 3706.13  499.04   1-0.47701 0.38112 0.53745-0.92140 0.69541 0.07583
  -3   6  11 5935.37  719.77   1-0.65977 0.56347 0.75078-0.36672 0.03195 0.74027
  -3  -6  10 4688.58  541.83   1-0.96198 0.84780-0.16035-0.22360 0.22108 0.48085
   3  -6 -10 5244.90  600.29   1 0.58418-0.46897 0.49675-0.88110-0.64184-0.06100
   3   6 -10 4061.36  619.53   1 0.75177-0.63797 0.65920-0.27499 0.01671-0.71927
  -3  -6  10 7171.47  655.70   1-0.48359 0.36999 0.54493-0.92889 0.68496 0.01616
  -3   6  10 5198.32  652.45   1-0.65912 0.54513 0.75022-0.36615-0.05212 0.75416
  -3  -6   9 8227.26  743.46   1-0.97833 0.84651-0.11302-0.27093 0.17347 0.45827
   3  -6  -9 6450.22  615.18   1 0.59212-0.45932 0.50390-0.88826-0.62885-0.00371
   3   6  -9 7809.32  922.44   1 0.74675-0.61519 0.65633-0.27211 0.10762-0.73992
  -3  -6   9 7157.20  616.20   1-0.48740 0.35610 0.54926-0.93322 0.67877-0.04775
  -3   6   9 7047.70  776.81   1-0.65326 0.52156 0.74371-0.35965-0.14187 0.77370
  -3  -6   8 4993.44  871.10   1-0.99014 0.84068-0.06445-0.31949 0.12431 0.43723
   3  -6  -8 5804.94  948.16   1 0.59713-0.44673 0.50842-0.89277-0.62043 0.05815
   3   6  -8 5904.53 1057.11   1 0.73373-0.58420 0.64761-0.26360 0.20550-0.76760
  -3  -6   8 5472.01  879.76   1-0.48769 0.33867 0.54959-0.93355 0.67830-0.11739
  -3   6   8 6602.72 1040.85   1-0.64038 0.49065 0.73023-0.34580-0.23803 0.79979
  -3  -6   7 9114.43  989.41   1-0.99718 0.83007-0.01461-0.36934 0.07354 0.41780
   3  -6  -7 8752.49  566.88   1 0.59825-0.43026 0.50943-0.89379-0.61851 0.12651
   3   6  -7 7895.60  832.13   1 0.71191-0.54462 0.63019-0.24618 0.30989-0.80173
  -3  -6   7 7779.41  476.50   1-0.48314 0.31641 0.54442-0.92838 0.68568-0.19489
  -3   6   7 8407.99  825.07   1-0.61990 0.45251 0.70733-0.32290-0.33970 0.83124
  -3  -6   638841.67 1339.39   1-0.99917 0.81577 0.03428-0.41812 0.02171 0.39960
  -3   6   632075.88  897.86   1-0.92938 0.74586 0.28311 0.10091-0.23684 0.65840
   3  -6  -630531.45  867.49   1 0.76697-0.58367 0.42537-0.80980-0.48042 0.05953
   3  -6  -636007.75 1188.22   1 0.59374-0.40816 0.50537-0.88972-0.62614 0.20443
   3   6  -637270.42 1440.70   1 0.67804-0.49327 0.60302-0.21900 0.42025-0.84185
  -3  -6   634016.82 1112.02   1-0.47142 0.28698 0.53110-0.91506 0.70404-0.28336
  -3   6   636180.88 1496.77   1-0.58928 0.40417 0.67340-0.28915-0.44639 0.86777
  -3  -6   5 2127.69  307.59   1-0.99566 0.79430 0.08703-0.47087-0.03276 0.38386
  -3   6   5 1035.19  126.84   1-0.63959 0.43735 0.55498-0.17113-0.53189 0.88285
   3  -6  -5 1035.53  139.90   1 0.75215-0.55101 0.43794-0.82238-0.49240 0.14167
   3  -6  -5 1412.35  232.90   1 0.58002-0.37684 0.49300-0.87735-0.64847 0.29705
   3   6  -5 1438.91  519.65   1 0.63023-0.42764 0.56290-0.17889 0.53473-0.88606
  -3  -6   5 1966.48  259.27   1-0.44803 0.24588 0.50452-0.88848 0.73804-0.38748
  -3   6   5 1820.94  521.19   1-0.54702 0.34425 0.62566-0.24141-0.55615 0.90730
  -3  -6   4 5964.21  713.01   1-0.98601 0.76669 0.14099-0.52484-0.08887 0.36975
  -3   6   4 4508.83  274.99   1-0.30651 0.08604 0.67400-0.28951-0.67213 0.95329
   3  -6  -4 4652.83  272.11   1 0.76075-0.54178 0.43071-0.81515-0.48552 0.20493
   3  -6  -4 5097.54  311.71   1 0.54884-0.32806 0.46497-0.84933-0.69466 0.41352
  -3   6   4 3941.47  249.01   1 0.73780-0.95838 0.65075-0.26674 0.17934 0.10170
   3   6  -4 5782.05  605.26   1 0.56580-0.34539 0.50842-0.12424 0.64913-0.93019
  -3  -6   4 5500.09  294.34   1-0.40448 0.18490 0.45398-0.83782 0.79390-0.51367
  -3   6   4 4876.29  629.92   1-0.49092 0.27039 0.56244-0.17813-0.66532 0.94612
  -3  -6   3 9374.68  977.74   1-0.96975 0.73256 0.19611-0.58013-0.14529 0.35607
  -3   6   3 9692.06  498.54   1-0.02520-0.21283 0.69989-0.31539-0.71380 0.92478
   3  -6  -3 8183.08  368.27   1 0.77920-0.54240 0.41455-0.79899-0.47008 0.25964
   3  -6  -3 8569.99  345.57   1 0.47738-0.23901 0.40104-0.78540-0.78183 0.57097
  -3   6   3 9181.45  365.24   1 0.72718-0.96552 0.64246-0.25846 0.24175-0.03096
   3   6  -3 9200.89  678.61   1 0.48451-0.24631 0.43864-0.05446 0.75686-0.96765
  -3  -6   310056.10  379.64   1-0.31729 0.07995 0.35489-0.73873 0.87941-0.66923
   3   6  -310296.86  392.25   1-0.65973 0.89763 0.75073-0.36667 0.03394-0.24455
  -3   6   3 9175.61  643.08   1-0.42120 0.18305 0.48322-0.09892-0.76751 0.97811
  -3  -6   2 7681.99  884.67   1-0.94619 0.69110 0.25158-0.63560-0.20353 0.34405
  -3   6   2 7081.36  491.53   1 0.18106-0.43680 0.68249-0.29799-0.70810 0.84876
   3  -6  -2 6960.75  377.36   1 0.28051-0.02442 0.22513-0.60947-0.93307 0.79243
  -3   6   2 6006.84  241.29   1 0.67999-0.93602 0.60464-0.22062 0.41474-0.27420
   3   6  -2 5651.63  449.02   1 0.38764-0.13180 0.35561 0.02847 0.85045-0.99086
  -3  -6   2 5922.54  550.07   1-0.13207-0.12298 0.14349-0.52712 0.98079-0.84083
   3   6  -2 5629.07  235.26   1-0.65990 0.91550 0.75094-0.36688 0.02467-0.16508
  -3  -6   139533.00 1160.20   1-0.91492 0.64194 0.30693-0.69096-0.26212 0.33238
  -3   6   138662.23 1224.97   1 0.32457-0.59806 0.65203-0.26739-0.68520 0.75552
   3   6  -136604.49 1195.25   1 0.28198-0.00841 0.26365 0.12042 0.92248-0.99268
   3   6  -135373.80  870.47   1-0.65776 0.93106 0.74872-0.36466-0.08219 0.01199
  -3  -6   035576.30 1053.37   1-0.87583 0.58551 0.36080-0.74460-0.32051 0.32051
  -3   6   036708.70 1286.47   1 0.42164-0.71285 0.62177-0.23713-0.66000 0.66000
  -3  -6   032751.73 1035.11   1-0.17317-0.11749-0.17071-0.21290-0.96998 0.96998
   3  -6   035463.19 1145.23   1 0.15523 0.13396-0.18303-0.19912 0.97077-0.97077
  -3  -6  -181236.21 2353.38   1-0.82963 0.52165 0.41260-0.79640-0.37611 0.30595
  -3   6  -178030.51 2360.04   1 0.48672-0.79522 0.59633-0.21176-0.63834 0.56813
  -3  -6  -178710.93 2318.42   1-0.07097-0.23728-0.08326-0.30050-0.99399 0.92379
   3  -6   184594.65 2527.18   1 0.06872 0.23824-0.08435-0.29779 0.99406-0.92442
  -3  -6  -259486.57 1756.92   1-0.77755 0.45192 0.46055-0.84435-0.42813 0.28781
  -3   6  -259827.95 1909.70   1 0.52861-0.85490 0.57779-0.19322-0.62186 0.48145
   3   6   259785.42 1609.24   1 0.00978 0.31596-0.01726 0.40018 0.99980-0.86024
   3  -6   268353.08 2183.56   1-0.00760 0.33336 0.00252-0.38544 0.99996-0.86040
   3   6   262417.75 1681.34   1-0.55452 0.88063 0.62730-0.24340 0.54679-0.40649
  -3  -6  -314623.77  571.30   1-0.72243 0.37896 0.50321-0.88706-0.47419 0.26361
  -3   6  -317277.16 1078.32   1 0.55436-0.89844 0.56540-0.18083-0.61073 0.40011
  -3  -6  -317316.89 1815.00   1 0.09259-0.43586 0.05943-0.44321-0.99392 0.78331
  -3   6  -314476.49  474.30   1 0.47550-0.81942 0.39936-0.01501-0.78384 0.57298
   3  -6   313009.04  439.17   1 0.49596-0.15103 0.44850-0.83268 0.74354-0.53275
   3  -6   316931.12 1405.59   1-0.07223 0.41585 0.07600-0.45892 0.99448-0.78514
   3   6   313960.12  460.36   1-0.57828 0.92208 0.65435-0.27045 0.48724-0.27678
  -3  -6  -416847.95  573.48   1-0.66707 0.30595 0.53915-0.92300-0.51411 0.23335
  -3   6  -415303.47 1019.22   1 0.56821-0.93009 0.55841-0.17383-0.60440 0.32358
  -3  -6  -415954.37 1521.48   1 0.15131-0.51277 0.11144-0.49577-0.98218 0.70090
  -3   6  -414726.32  477.21   1 0.54104-0.90256 0.45798-0.07362-0.70535 0.42421
   3  -6   412994.16  437.14   1 0.59767-0.23477 0.53530-0.91932 0.59685-0.31578
   3  -6   415849.59 1599.27   1-0.12480 0.48637 0.13523-0.51887 0.98292-0.70300
   3   6   415168.09  461.41   1-0.57898 0.94048 0.65515-0.27125 0.48533-0.20472
  -3  -6  -412672.35  428.54   1-0.42916 0.06762 0.49227-0.87657-0.75729 0.47648
  -3  -6  -5 1451.75  297.98   1-0.61563 0.23685 0.56783-0.95168-0.54641 0.19545
  -3   6  -5  802.42  580.63   1 0.57299-0.95265 0.55594-0.17137-0.60216 0.25113
  -3  -6  -5  751.79  414.95   1 0.19716-0.57619 0.15173-0.53606-0.96855 0.61695
  -3   6  -5  286.58  122.63   1 0.56243-0.94155 0.47718-0.09283-0.67524 0.32381
   3  -6   5  649.71  273.05   1-0.16556 0.54488 0.18149-0.56513 0.96935-0.61945
   3   6   5  546.88  151.65   1-0.57342 0.95261 0.64881-0.26491 0.50021-0.14945
  -3  -6  -616522.56  751.08   1-0.57186 0.17543 0.58920-0.97305-0.57079 0.14964
  -3   6  -617917.76 1192.52   1 0.57054-0.96800 0.55721-0.17264-0.60331 0.18208
  -3  -6  -617421.53 1783.09   1 0.23147-0.62805 0.18192-0.56625-0.95568 0.53376
  -3   6  -617365.99  857.33   1 0.56771-0.96442 0.48192-0.09757-0.66742 0.24570
   3  -6   617579.43 2085.84   1-0.19633 0.59340 0.21641-0.60005 0.95635-0.53647
   3   6   618412.11  839.71   1-0.56471 0.96160 0.63889-0.25499 0.52240-0.10149
  -3   6  -7 5824.15  795.81   1 0.56213-0.97738 0.56151-0.17694-0.60721 0.11577
  -3  -6  -7 7387.54  780.53   1 0.25616-0.67031 0.20367-0.58800-0.94493 0.45269
  -3   6  -7 7398.92  643.86   1 0.56481-0.97911 0.47932-0.09497-0.67173 0.17973
   3  -6   7 5640.86  944.29   1-0.21869 0.63352 0.24179-0.62543 0.94536-0.45550
   3   6   7 7242.12  554.83   1-0.55384 0.96842 0.62651-0.24261 0.54838-0.05732
  -3   6  -8 2519.74  906.29   1 0.54857-0.98162 0.56825-0.18368-0.61330 0.05166
  -3  -6  -8  859.32  327.07   1 0.27293-0.70464 0.21845-0.60278-0.93690 0.37434
   3  -6   8  496.38  344.69   1-0.23408 0.66666 0.25924-0.64288 0.93701-0.37717
   3   6   8  335.65  143.98   1-0.54140 0.97382 0.61063-0.22668 0.57792-0.01701
  -3   6  -9 1856.70  593.29   1 0.53042-0.98126 0.57695-0.19237-0.62111-0.01073
  -3  -6  -9 3054.58  601.21   1 0.28313-0.73240 0.22745-0.61178-0.93171 0.29884
   3  -6   9 1713.27  580.94   1-0.24365 0.69398 0.27010-0.65374 0.93149-0.30167
   3   7 -11 1907.97  576.64   1 0.93349-0.84372 0.22076 0.22664-0.28257-0.48658
   3  -7 -11 3333.56  625.14   1 0.53248-0.43486 0.45031-0.89872-0.71671-0.05642
   3   7 -11 2418.63  550.72   1 0.75158-0.65555 0.65793-0.20969-0.04736-0.72545
  -3  -7  11 3099.04  554.23   1-0.43694 0.34105 0.49191-0.93986 0.75306 0.01818
  -3   7  11 3752.67  726.12   1-0.66007 0.56377 0.75118-0.30311 0.00394 0.76829
   3  -7 -10 2208.56  620.60   1 0.53987-0.42465 0.45693-0.90534-0.70693 0.00407
   3   7 -10 1080.41  591.39   1 0.75113-0.63733 0.65901-0.21076 0.03863-0.74119
  -3  -7  10  741.07  264.99   1-0.44047 0.32688 0.49593-0.94388 0.74834-0.04721
  -3   7  10 2369.63  706.78   1-0.65780 0.54380 0.74877-0.30070-0.08145 0.78348
  -3  -7   9 3122.35  727.77   1-0.97249 0.84067-0.13160-0.31634 0.19220 0.43954
   3  -7  -9 2711.58  629.48   1 0.54392-0.41111 0.46056-0.90897-0.70144 0.06887
   3   7  -9 2293.07  676.18   1 0.74452-0.61295 0.65474-0.20650 0.13035-0.76265
  -3  -7   9 1477.45  378.82   1-0.44036 0.30905 0.49580-0.94375 0.74849-0.11747
  -3   7   9 3401.92  936.32   1-0.65009 0.51839 0.74016-0.29209-0.17188 0.80371
  -3  -7   832072.25 2551.80   1-0.98520 0.83574-0.08729-0.36065 0.14746 0.41408
   3  -7  -831311.14 1211.53   1 0.54369-0.39329 0.46036-0.90877-0.70175 0.13947
   3   7  -829206.32 1400.80   1 0.72973-0.58020 0.64448-0.19647 0.22831-0.79041
  -3  -7   831277.69 1176.40   1-0.43550 0.28648 0.49027-0.93822 0.75496-0.19405
  -3   7   830729.54 1402.16   1-0.63518 0.48545 0.72443-0.27593-0.26781 0.82957
  -3  -7   717204.18 2627.05   1-0.99391 0.82680-0.04224-0.40570 0.10173 0.38962
   3  -7  -716698.36  938.25   1 0.53755-0.36955 0.45485-0.90326-0.71003 0.21803
   3   7  -719264.84 1301.39   1 0.70621-0.53892 0.62554-0.17753 0.33159-0.82343
  -3  -7   718663.10 1025.53   1-0.42476 0.25847 0.47703-0.92484 0.76942-0.27900
  -3   7   718254.22 1258.21   1-0.61280 0.44541 0.69935-0.25085-0.36792 0.85946
  -3  -7   628320.90 2076.67   1-0.99845 0.81505 0.00143-0.44925 0.05545 0.36585
   3  -7  -624620.37  948.62   1 0.52252-0.33693 0.44139-0.88980-0.72947 0.30776
   3   7  -625425.50 1181.47   1 0.67104-0.48627 0.59719-0.14917 0.43937-0.86097
  -3  -7   625416.94  963.34   1-0.40363 0.21958 0.45302-0.90083 0.79488-0.37453
  -3   7   627013.67 1309.39   1-0.58071 0.39560 0.66373-0.21543-0.47141 0.89279
  -3   7   5 4282.13  216.13   1-0.58916 0.38693 0.58106-0.13323-0.56147 0.91243
   3  -7  -5 4819.00  362.70   1 0.49280-0.28962 0.41481-0.86322-0.76490 0.41347
   3   7  -5 5289.12  615.55   1 0.62296-0.42038 0.55676-0.10874 0.54947-0.90080
  -3  -7   5 4643.06  322.98   1-0.36716 0.16534 0.41157-0.85939 0.83414-0.48384
  -3   7   5 5594.16  637.62   1-0.53797 0.33520 0.61542-0.16713-0.57604 0.92720
  -3  -7   4 7391.88 1066.48   1-0.99457 0.77526 0.09539-0.54321-0.04144 0.32231
  -3   7   4 6730.56  349.11   1-0.22805 0.00757 0.68697-0.23840-0.68997 0.97113
   3  -7  -4 6568.35  302.44   1 0.89207-0.67487 0.28728-0.73468-0.34880 0.06910
   3  -7  -4 8686.82  416.05   1 0.43707-0.21623 0.36423-0.81258-0.82237 0.54124
   3   7  -4 8686.93  761.15   1 0.56007-0.33966 0.50352-0.05531 0.65785-0.93891
  -3  -7   4 7664.21  359.82   1-0.30473 0.08514 0.34060-0.78841 0.88945-0.60921
  -3   7   4 8301.33  910.45   1-0.48311 0.26258 0.55357-0.10521-0.67835 0.95915
  -3  -7   355031.60 1752.30   1-0.98552 0.74825 0.14304-0.59086-0.09101 0.30166
  -3   7   353033.33 1640.42   1 0.04495-0.28298 0.69735-0.24876-0.71531 0.92630
   3  -7  -352792.85 1533.01   1 0.32146-0.08304 0.26175-0.71010-0.91002 0.69918
  -3   7   346800.22 1373.99   1 0.73960-0.97794 0.65211-0.20410 0.16653 0.04425
   3   7  -354870.60 1869.10   1 0.48284-0.24465 0.43720 0.01099 0.75875-0.96954
  -3  -7   353355.38 1614.32   1-0.19673-0.04056 0.21687-0.66445 0.95616-0.74622
   3   7  -342712.86 1271.83   1-0.65561 0.89360 0.74444-0.29647 0.12638-0.33700
  -3   7   354729.83 1878.93   1-0.41697 0.17881 0.47841-0.03005-0.77281 0.98342
  -3  -7   245334.87 1452.07   1-0.97165 0.71656 0.19073-0.63876-0.13966 0.28018
  -3   7   240215.65 1330.88   1 0.23489-0.49068 0.67300-0.22425-0.70135 0.84198
   3  -7  -242610.37 1305.10   1 0.05169 0.20405 0.02368-0.47142-0.99838 0.85797
  -3   7   242579.39 1222.52   1 0.71308-0.96919 0.63114-0.18313 0.30524-0.16471
   3   7  -243509.87 1520.22   1 0.39273-0.13689 0.36002 0.08807 0.84625-0.98666
  -3  -7   244835.50 1382.68   1-0.00173-0.25254-0.00415-0.44258 0.99998-0.86042
   3   7  -242737.56 1249.81   1-0.65260 0.90825 0.74097-0.29301 0.15827-0.29869
  -3  -7   1 9072.60  783.54   1-0.95262 0.67965 0.23805-0.68608-0.18928 0.25954
  -3   7   1 7730.90  555.43   1 0.36370-0.63719 0.64082-0.19207-0.67606 0.74638
   3   7  -1 9666.82  766.17   1 0.29583-0.02226 0.27573 0.17235 0.91457-0.98478
   3   7  -1 8495.29  282.44   1-0.64992 0.92322 0.73788-0.28992 0.18197-0.25218
  -3  -7   037043.91 1558.20   1-0.92861 0.63774 0.28444-0.73247-0.23825 0.23825
  -3   7   034763.04 1249.94   1 0.45042-0.74162 0.61114-0.16240-0.65085 0.65085
  -3  -7   036165.47 1289.01   1-0.19623-0.09443-0.19072-0.25684-0.96182 0.96182
  -3  -7  -152562.48 1614.40   1-0.90000 0.59124 0.32913-0.77717-0.28576 0.21550
  -3   7  -152534.08 1848.64   1 0.50850-0.81699 0.58693-0.13827-0.63002 0.55981
  -3  -7  -150458.55 1753.87   1-0.10284-0.20537-0.10961-0.33794-0.98863 0.91848
  -3  -7  -228004.49  821.54   1-0.86784 0.54221 0.37056-0.81833-0.33095 0.19063
  -3   7  -225713.36 1145.03   1 0.54584-0.87212 0.56959-0.12092-0.61450 0.47409
  -3  -7  -229903.65 2316.14   1-0.01853-0.30723-0.03759-0.41014-0.99912 0.85871
   3  -7   230566.87 1756.53   1 0.02447 0.30128-0.03396-0.41277 0.99912-0.85956
   3   7   223933.17  569.79   1-0.16708 0.49315 0.18322 0.26434 0.96876-0.82880
   3   7   227105.35  651.27   1-0.61466 0.94077 0.69577-0.24789 0.37158-0.23128
  -3  -7  -3 3983.78  512.06   1-0.83333 0.49003 0.40882-0.85659-0.37204 0.16156
  -3   7  -3 4542.97  777.89   1 0.56866-0.91274 0.55818-0.10951-0.60419 0.39358
  -3  -7  -3 3479.06  355.74   1 0.05247-0.39574 0.02437-0.47211-0.99832 0.78771
  -3   7  -3 3353.95  163.22   1 0.46889-0.81282 0.39347 0.05493-0.79076 0.57990
   3   7   3 2512.82  140.94   1 0.13223 0.21027-0.15678 0.60263 0.97874-0.76981
   3  -7   3 4075.61  633.69   1-0.03648 0.38010 0.03535-0.48210 0.99870-0.78936
   3   7   3 3110.69  165.63   1-0.60967 0.95347 0.69008-0.24220 0.38997-0.17951
  -3  -7  -4 2725.42  355.15   1-0.79856 0.43761 0.44229-0.89006-0.40825 0.12762
  -3   7  -4 1493.39  587.38   1 0.58068-0.94256 0.55190-0.10324-0.59849 0.31767
  -3  -7  -4 3019.50  442.95   1 0.11057-0.47135 0.07517-0.52291-0.99102 0.71020
  -3   7  -4 2504.18  184.05   1 0.54877-0.91030 0.46492-0.01651-0.69475 0.41361
   3  -7   4 2981.37  436.24   1-0.08685 0.44834 0.09263-0.53937 0.99190-0.71278
   3   7   4 2251.67  167.81   1-0.60118 0.96268 0.68042-0.23254 0.41903-0.13842
  -3  -7  -523705.84 1546.76   1-0.76618 0.38757 0.46990-0.91766-0.43834 0.08755
  -3   7  -528396.86 1756.11   1 0.58437-0.96404 0.54994-0.10128-0.59670 0.24568
  -3  -7  -522755.96 2080.05   1 0.15576-0.53479 0.11535-0.56374-0.98103 0.62943
  -3   7  -525504.53 1238.78   1 0.57022-0.94934 0.48418-0.03577-0.66363 0.31220
   3  -7   526776.13 1792.81   1-0.12756 0.50689 0.13838-0.58595 0.98212-0.63222
   3   7   526826.68 1297.90   1-0.59092 0.97011 0.66874-0.22086 0.45120-0.10044
  -3   7  -6 1159.90  488.63   1 0.58136-0.97883 0.55154-0.10288-0.59816 0.17693
  -3   7  -6 1374.16  235.80   1 0.57432-0.97103 0.48787-0.03946-0.65736 0.23564
   3  -7   6 1635.33  355.33   1-0.15887 0.55594 0.17390-0.62148 0.97186-0.55198
   3   7   6 1000.44  188.67   1-0.57925 0.97614 0.65545-0.20757 0.48460-0.06368
  -3   7  -7  890.68  626.30   1 0.57276-0.98801 0.55606-0.10739-0.60227 0.11083
  -3  -7  -7 2013.47  546.94   1 0.21707-0.63122 0.16924-0.61763-0.96137 0.46913
   3  -7   7 1969.95  505.35   1-0.18228 0.59711 0.20048-0.64805 0.96258-0.47273
  -3   7  -8  981.08  675.74   1 0.55929-0.99234 0.56294-0.11427-0.60850 0.04686
  -3  -7  -8 1655.62  506.21   1 0.23541-0.66712 0.18539-0.63378-0.95404 0.39148
   3  -7   8 1510.26  547.83   1-0.19897 0.63155 0.21942-0.66699 0.95512-0.39528
  -3   7  -9 1370.96  825.43   1 0.54143-0.99227 0.57172-0.12305-0.61642-0.01542
  -3  -7  -9  485.06  315.59   1 0.24723-0.69650 0.19579-0.64418-0.94896 0.31608
   3  -7   9  847.04  266.24   1-0.20994 0.66027 0.23186-0.67943 0.94982-0.32000
   3   8 -10 5947.45  739.70   1 0.94677-0.83880 0.19462 0.31669-0.25638-0.44284
   3  -8 -10 4685.82  531.24   1 0.49002-0.37481 0.41233-0.92480-0.76801 0.06516
   3   8 -10 3153.90  603.22   1 0.75044-0.63664 0.65867-0.14639 0.05457-0.75713
  -3  -8  10 4428.04  508.66   1-0.39404 0.28104 0.44213-0.95391 0.80575-0.10517
  -3   8  10 4452.74  618.00   1-0.65635 0.54235 0.74716-0.23508-0.10455 0.80658
  -3  -8   9 8155.68  814.07   1-0.96527 0.83345-0.15187-0.36006 0.21256 0.41917
   3  -8  -9 7034.07  719.55   1 0.48943-0.35663 0.41180-0.92427-0.76867 0.13610
   3   8  -9 6797.84  791.08   1 0.74268-0.61112 0.65340-0.14112 0.14655-0.77885
  -3  -8   9 8040.79  784.19   1-0.38969 0.25893 0.43718-0.94897 0.81055-0.18002
  -3   8   9 8618.65 1103.14   1-0.64671 0.51464 0.73725-0.22468-0.19546 0.82744
  -3  -8   8  -12.95  244.81   1-0.97878 0.82932-0.11145-0.40048 0.17189 0.38965
   3  -8  -8   78.97  180.99   1 0.48305-0.33265 0.40610-0.91857-0.77571 0.21343
   3   8  -8 1346.60  728.31   1 0.72672-0.57719 0.64210-0.13009 0.24407-0.80617
  -3  -8   8  140.95  188.91   1-0.37942 0.23089 0.42550-0.93729 0.82157-0.26110
  -3   8   8  615.23  440.17   1-0.63087 0.48114 0.71961-0.20704-0.29008 0.85184
  -3  -8   7 5280.96 1107.31   1-0.98888 0.82177-0.07077-0.44116 0.13072 0.36062
   3  -8  -7 6706.43  466.40   1 0.46954-0.30145 0.39312-0.90552-0.79056 0.29859
   3   8  -7 6423.98  725.58   1 0.70225-0.53496 0.62230-0.11028 0.34580-0.83764
  -3  -8   7 5922.79  401.21   1-0.36100 0.19471 0.40457-0.91635 0.84023-0.34982
  -3   8   7 6731.64  867.72   1-0.60731 0.43992 0.69318-0.18061-0.38814 0.87968
   3  -8  -6  514.06  205.99   1 0.44291-0.25724 0.36943-0.88182-0.81691 0.39522
   3   8  -6  722.17  733.45   1 0.66668-0.48190 0.59354-0.08152 0.45082-0.87242
  -3  -8   6  313.41  212.92   1-0.33084 0.14679 0.37029-0.88208 0.86799-0.44764
  -3   8   6  548.92  497.09   1-0.57461 0.38950 0.65684-0.14450-0.48823 0.90961
  -3  -8   520526.95  897.00   1-0.99883 0.79748 0.00945-0.52124 0.04723 0.30385
   3  -8  -517759.78  713.21   1 0.39655-0.19329 0.32824-0.84064-0.85732 0.50591
   3   8  -519415.81  985.26   1 0.61927-0.41668 0.55363-0.04161 0.55676-0.90809
  -3  -8   519388.90  812.69   1-0.28297 0.08115 0.31588-0.82766 0.90561-0.55532
  -3   8   520242.51 1087.07   1-0.53229 0.32953 0.60899-0.09666-0.58803 0.93918
  -3  -8   443987.01 2619.48   1-0.99870 0.77938 0.05066-0.56245 0.00483 0.27604
   3  -8  -439366.14 1242.54   1 0.31527-0.09444 0.25629-0.76868-0.91373 0.63261
   3   8  -439365.83 1443.32   1 0.55869-0.33828 0.50234 0.00989 0.65992-0.94099
  -3  -8   442596.79 1314.45   1-0.20847-0.01108 0.23019-0.74170 0.95055-0.67063
  -3   8   441650.72 1575.80   1-0.47938 0.25885 0.54934-0.03693-0.68440 0.96520
  -3  -8   3 1350.83  255.86   1-0.99508 0.75781 0.09163-0.60342-0.03753 0.24819
  -3   8   3  908.04  336.07   1 0.09568-0.33371 0.69336-0.18069-0.71420 0.92519
   3  -8  -3 1166.12  170.28   1 0.16692 0.07160 0.12515-0.63759-0.97799 0.76703
  -3   8   3 1135.16  161.87   1 0.74642-0.98459 0.65609-0.14381 0.11129 0.09947
   3   8  -3 1247.75  666.89   1 0.48584-0.24764 0.43979 0.07244 0.75534-0.96613
  -3  -8   3  936.33  176.13   1-0.08865-0.14775 0.09467-0.60523 0.99155-0.78221
  -3   8   3 3250.58  767.68   1-0.41709 0.17893 0.47854 0.03385-0.77267 0.98327
  -3  -8   231140.96 1013.64   1-0.98803 0.73281 0.13208-0.64387-0.07958 0.22002
  -3   8   230131.54  947.40   1 0.27086-0.52664 0.66535-0.15249-0.69565 0.83629
   3  -8  -228011.25  846.59   1-0.13353 0.38911-0.13629-0.37519-0.98162 0.84131
  -3   8   230233.12  750.55   1 0.73197-0.98808 0.64624-0.13423 0.21581-0.07528
   3   8  -230929.05 1152.36   1 0.40211-0.14627 0.36816 0.14394 0.83830-0.97871
  -3  -8   229698.04  864.93   1 0.09431-0.34796-0.11353-0.39600 0.98904-0.84976
  -3  -8   122496.58 1593.66   1-0.97770 0.70452 0.17166-0.68345-0.12093 0.19115
  -3   8   122202.45  848.36   1 0.38836-0.66185 0.63308-0.12023-0.66960 0.73992
   3   8  -124308.64 1058.37   1 0.31299-0.03942 0.29069 0.22141 0.90417-0.97438
   3   8  -119847.30  516.69   1-0.62729 0.90059 0.71190-0.19994 0.31573-0.38593
  -3  -8   010119.09  970.71   1-0.96477 0.67390 0.20942-0.72145-0.15922 0.15922
  -3   8   012524.92  735.51   1 0.46790-0.75860 0.60405-0.09129-0.64511 0.64511
  -3  -8   0 9301.96  521.91   1-0.22139-0.06927-0.21252-0.29897-0.95174 0.95174
   3  -8   011859.51  615.64   1 0.19367 0.09551-0.22691-0.28262 0.95446-0.95446
   3   8   0 9393.15  258.20   1-0.60032 0.89103 0.67944-0.16757 0.42186-0.42186
   3   8   010082.60  325.46   1-0.58961 0.88065 0.67377-0.16143-0.44541 0.44541
  -3  -8  -153949.35 1618.55   1-0.94915 0.64039 0.24546-0.75750-0.19708 0.12682
  -3   8  -152829.14 1832.16   1 0.52050-0.82899 0.58153-0.06877-0.62521 0.55500
  -3  -8  -150695.67 1920.73   1-0.13494-0.17327-0.13752-0.37397-0.98126 0.91110
   3  -8   154954.91 1716.36   1 0.12152 0.18544-0.14456-0.36497 0.98200-0.91236
   3   8   149721.05 1348.24   1-0.66007 0.96877 0.75118-0.23910 0.00458 0.06561
  -3  -8  -2 7953.78 1041.96   1-0.93187 0.60522 0.27872-0.79076-0.23219 0.09167
  -3   8  -2 9272.65  927.90   1 0.55473-0.88102 0.56522-0.05246-0.61056 0.47015
  -3  -8  -2 9289.65 1143.55   1-0.05575-0.27000-0.07002-0.44168-0.99598 0.85557
   3  -8   211228.94 1049.41   1 0.05570 0.26902-0.06951-0.44002 0.99602-0.85674
   3   8   2 8080.09  280.26   1-0.64640 0.97266 0.73383-0.22186 0.20892-0.06851
  -3  -8  -3 2282.56  326.84   1-0.91408 0.56953 0.30823-0.82027-0.26350 0.05272
  -3   8  -3 2193.00  659.10   1 0.57566-0.91974 0.55455-0.04179-0.60090 0.39028
  -3  -8  -3 2413.24  425.45   1 0.01207-0.35534-0.01089-0.50080-0.99986 0.78925
   3  -8   3 3363.01  492.13   1-0.00127 0.34489-0.00467-0.50588 0.99998-0.79064
   3   8   3 1993.17  138.84   1-0.63110 0.97501 0.71627-0.20430 0.29776-0.08714
  -3  -8  -426048.03 1511.02   1-0.89741 0.53496 0.33279-0.84482-0.28966 0.00862
  -3   8  -432372.45 1801.48   1 0.58659-0.94847 0.54875-0.03599-0.59562 0.31480
  -3  -8  -427937.22 2458.29   1 0.06870-0.42948 0.03855-0.55025-0.99689 0.71607
  -3   8  -511264.61 1017.17   1 0.58973-0.96940 0.54706-0.03430-0.59407 0.24305
  -3  -8  -5 8497.98 1107.01   1 0.11450-0.49278 0.07861-0.59031-0.99030 0.63928
   3  -8   5 9991.30 1142.26   1-0.08945 0.46881 0.09558-0.60615 0.99139-0.64248
  -3   8  -611368.32  890.89   1 0.58655-0.98401 0.54878-0.03601-0.59564 0.17441
  -3  -8  -6 8169.14 1263.32   1 0.14956-0.54615 0.10991-0.62235-0.98262 0.56070
   3  -8   6 9795.74 1142.55   1-0.12130 0.51837 0.13126-0.64278 0.98389-0.56401
  -3   8  -7 2574.25  694.29   1 0.57803-0.99328 0.55331-0.04054-0.59977 0.10833
  -3  -8  -7 2740.52  781.25   1 0.17677-0.59092 0.13381-0.64625-0.97511 0.48287
   3  -8   7 2587.77  616.36   1-0.14547 0.56030 0.15870-0.67021 0.97655-0.48669
  -3   8  -8 1936.91  790.34   1 0.56484-0.99789 0.56013-0.04737-0.60596 0.04432
  -3  -8  -8 1704.27  455.72   1 0.19649-0.62820 0.15114-0.66358-0.96878 0.40622
   3  -8   8 1578.48  560.39   1-0.16321 0.59579 0.17884-0.69035 0.97024-0.41040
   3   9 -1010052.08 1588.69   1 0.93768-0.82970 0.21285 0.36238-0.27466-0.42457
   3  -9 -10 9226.37 1386.52   1 0.43578-0.32045 0.36309-0.93953-0.82356 0.12075
   3   9 -1010582.94 1687.62   1 0.74990-0.63610 0.65837-0.08205 0.06466-0.76722
  -3  -9  10 9671.00 1462.80   1-0.34352 0.23051 0.38470-0.96045 0.85673-0.15614
  -3   9  1012897.06 1969.52   1-0.65505 0.54105 0.74572-0.16962-0.12166 0.82370
   3  -9  -9 5113.00  556.53   1 0.43006-0.29714 0.35800-0.93444-0.82878 0.19625
   3   9  -9 5304.69  734.21   1 0.74085-0.60909 0.65305-0.07704 0.15698-0.78934
  -3  -9   9 5091.56  495.46   1-0.33483 0.20406 0.37482-0.95058 0.86451-0.23399
  -3   9   9 7941.46  927.50   1-0.64438 0.51231 0.73467-0.15803-0.21215 0.84413
  -3  -9   8 9836.66  971.93   1-0.97074 0.82127-0.13675-0.43918 0.19737 0.36417
   3  -9  -8 9080.93  892.02   1 0.41701-0.26650 0.34640-0.92285-0.84029 0.27805
   3   9  -812172.76 1253.17   1 0.72487-0.57534 0.64063-0.06462 0.25324-0.81535
  -3  -9   810280.07  927.56   1-0.31920 0.17066 0.35705-0.93281 0.87785-0.31738
  -3   9   810856.04 1306.08   1-0.62766 0.47793 0.71603-0.13938-0.30550 0.86726
   3  -9  -7  939.00  315.82   1 0.39373-0.22564 0.32574-0.90219-0.85957 0.36760
   3   9  -7  873.84  406.22   1 0.70011-0.53282 0.62054-0.04453 0.35321-0.84505
  -3  -9   7  857.91  284.56   1-0.29421 0.12791 0.32864-0.90440 0.89745-0.40704
  -3   9   7  925.41  464.30   1-0.60356 0.43617 0.68896-0.11232-0.40128 0.89282
  -3  -9   6 8463.76 1012.77   1-0.99030 0.80555-0.06362-0.51231 0.12346 0.29769
   3  -9  -6 7248.82  441.78   1 0.35533-0.16966 0.29172-0.86816-0.88805 0.46636
   3   9  -6 9123.89  842.26   1 0.66486-0.48009 0.59202-0.01600 0.45547-0.87707
  -3  -9   6 4903.07  935.96   1-0.25725 0.07320 0.28554-0.86099 0.92319-0.50331
  -3   9   6 7162.49  785.62   1-0.57093 0.38582 0.65268-0.07630-0.49803 0.91941
  -3  -9   5 4137.62  845.00   1-0.99584 0.79343-0.02760-0.54833 0.08680 0.26416
   3  -9  -5 4239.51  875.18   1 0.29408-0.09067 0.23710-0.81360-0.92590 0.57430
   3   9  -5 4285.52  802.39   1 0.61882-0.41623 0.55325 0.02276 0.55763-0.90897
  -3  -9   5 3981.64  850.17   1-0.20049-0.00130 0.22114-0.79659 0.95440-0.60451
  -3   9   5 4445.35  911.59   1-0.52967 0.32691 0.60603-0.02965-0.59343 0.94459
  -3  -9   4 3392.74  493.15   1-0.99872 0.77940 0.00668-0.58245 0.05007 0.23080
  -3   9   4 3537.13  286.93   1-0.12138-0.09908 0.69712-0.12038-0.70660 0.98776
   3  -9  -4 3119.41  445.32   1 0.19291 0.02805 0.14799-0.72449-0.96999 0.68871
   3   9  -4 3477.99  537.25   1 0.56105-0.34065 0.50436 0.07190 0.65637-0.93743
  -3  -9   4 3069.96  441.29   1-0.11668-0.10286 0.12603-0.70148 0.98513-0.70521
  -3   9   4 3947.56  648.00   1-0.47915 0.25862 0.54907 0.02738-0.68478 0.96559
  -3  -9   3 9924.82 1076.09   1-0.99903 0.76176 0.04158-0.61734 0.01419 0.19646
  -3   9   3 9038.81  499.09   1 0.12858-0.36661 0.68979-0.11304-0.71249 0.92347
   3  -9  -3 6282.99  774.19   1 0.02511 0.21312 0.00047-0.57614-0.99968 0.78907
   3   9  -3 9794.50  692.08   1 0.49267-0.25448 0.44567 0.13059 0.74742-0.95822
  -3  -9   3 7507.83  547.88   1 0.00472-0.24114-0.01150-0.56287 0.99992-0.79058
  -3   9   3 9708.51  831.80   1-0.42073 0.18258 0.48269 0.09376-0.76810 0.97870
  -3  -9   2  836.77  159.07   1-0.99694 0.74171 0.07531-0.65108-0.02063 0.16107
  -3   9   2 1494.18  399.75   1 0.29196-0.54775 0.66039-0.08343-0.69183 0.83246
   3   9  -2 1420.80  592.77   1 0.41493-0.15909 0.37927 0.19684 0.82702-0.96743
  -3   9   2 1002.60  143.06   1 0.27762-0.53346 0.25985 0.31627 0.92487-0.78446
  -3  -9   2  777.10  122.25   1 0.17089-0.42454-0.20090-0.37232 0.96459-0.82530
  -3  -9   1 1312.63  235.66   1-0.99274 0.71955 0.10747-0.68323-0.05397 0.12419
  -3   9   1  854.69  523.20   1 0.40107-0.67456 0.62888-0.05192-0.66606 0.73638
   3   9  -1 1607.85  387.36   1 0.33275-0.05918 0.30790 0.26822 0.89133-0.96153
   3   9  -1 1046.07  193.03   1-0.38356 0.65697 0.44040 0.13605-0.81173 0.74153
  -3  -9   0 8303.20 1025.77   1-0.98682 0.69568 0.13750-0.71326-0.08523 0.08523
  -3   9   0 9355.13  724.42   1 0.47515-0.76585 0.60112-0.02426-0.64255 0.64255
   3   9   0 7588.90  341.00   1-0.56656 0.85760 0.64775-0.07137-0.50933 0.50933
  -3  -9  -1 1881.87  357.37   1-0.97977 0.67067 0.16471-0.74047-0.11365 0.04343
  -3   9  -1 3188.75  571.83   1 0.52441-0.83290 0.57974-0.00288-0.62361 0.55340
  -3  -9  -1 1974.50  336.52   1-0.16790-0.14031-0.16614-0.40929-0.97170 0.90154
   3  -9   1 2057.89  358.33   1 0.14845 0.15850-0.17529-0.39793 0.97325-0.90361
  -3  -9  -2 8943.77 1208.90   1-0.97291 0.64625 0.18706-0.76310-0.13583-0.00468
  -3   9  -211226.71  936.77   1 0.55666-0.88295 0.56426 0.01259-0.60969 0.46928
  -3  -9  -210898.18 1114.51   1-0.09429-0.23146-0.10219-0.47324-0.99028 0.84997
   3  -9   211993.74 1331.34   1 0.08720 0.23753-0.10542-0.46780 0.99059-0.85131
  -3  -9  -3 2877.41  625.35   1-0.96646 0.62191 0.20502-0.78106-0.15462-0.05615
  -3   9  -3 4414.86 1001.38   1 0.57650-0.92058 0.55411 0.02274-0.60050 0.38988
  -3  -9  -3 3633.11  801.82   1-0.02858-0.31469-0.04634-0.52931-0.99851 0.78790
   3  -9   3 4688.03  988.33   1 0.03346 0.31015-0.04420-0.53018 0.99846-0.78911
  -3   9  -420306.73 1093.75   1 0.58691-0.94878 0.54858 0.02826-0.59547 0.31464
  -3  -9  -421267.52 1946.36   1 0.02647-0.38725 0.00166-0.57733-0.99964 0.71883
   3  -9   419763.29 1975.37   1-0.01316 0.37465 0.00884-0.58322 0.99987-0.72075
  -3   9  -5 6048.63  726.18   1 0.58990-0.96957 0.54697 0.02988-0.59399 0.24297
  -3  -9  -5 5482.64  818.96   1 0.07185-0.45013 0.04130-0.61697-0.99655 0.64554
   3  -9   5 7220.03  882.47   1-0.05198 0.43134 0.05299-0.62737 0.99724-0.64833
  -3   9  -6 6220.14  915.51   1 0.58683-0.98429 0.54863 0.02822-0.59551 0.17427
  -3  -9  -6 4144.71  924.62   1 0.10818-0.50396 0.07307-0.64874-0.99144 0.57021
   3  -9   6 4242.19  986.77   1-0.08339 0.48061 0.08869-0.66307 0.99256-0.57387
  -3   9  -7 4595.17  900.10   1 0.57860-0.99385 0.55301 0.02384-0.59949 0.10806
  -3  -9  -7 3037.44  587.95   1 0.13538-0.54953 0.09746-0.67396-0.98598 0.49374
  -3   9  -8 3843.27  971.86   1 0.56584-0.99888 0.55962 0.01722-0.60550 0.04386
  -3  -9  -8 2724.59  679.39   1 0.15626-0.58797 0.11579-0.69229-0.98090 0.41834
   3  -9   8 2921.83  676.64   1-0.12690 0.55948 0.13762-0.71308 0.98232-0.42248
   3  10  -9 5165.39 1020.04   1 0.94477-0.81859 0.19878 0.44037-0.26055-0.36875
   3 -10  -9 4887.12  796.70   1 0.36455-0.23163 0.29988-0.94038-0.88156 0.24904
   3  10  -9 7857.61 1318.34   1 0.74033-0.60856 0.65266-0.01265 0.16103-0.79339
  -3 -10   9 5762.67 1056.34   1-0.27824 0.14745 0.30935-0.94875 0.90932-0.27950
  -3  10   9 5676.97 1041.55   1-0.64279 0.51072 0.73291-0.09219-0.22280 0.85478
   3 -10  -811664.63  816.45   1 0.34458-0.19408 0.28221-0.92270-0.89533 0.33308
   3  10  -812000.98 1026.14   1 0.72426-0.57473 0.64014-0.00013 0.25623-0.81834
  -3 -10   8 8054.57 1456.62   1-0.25760 0.10906 0.28593-0.92533 0.92297-0.36313
  -3  10   812899.23 1103.05   1-0.62567 0.47594 0.71380-0.07308-0.31467 0.87643
  -3 -10   7 7338.31  735.12   1-0.97302 0.80591-0.12999-0.50993 0.19057 0.30077
   3 -10  -7 4987.17  631.14   1 0.31253-0.14444 0.25386-0.89435-0.91535 0.42339
   3  10  -7 5791.51  770.60   1 0.69977-0.53248 0.62026 0.01974 0.35436-0.84620
  -3 -10   7 4698.95  886.78   1-0.22679 0.06049 0.25098-0.89037 0.94104-0.45119
  -3  10   7 6565.38  845.23   1-0.60155 0.43416 0.68670-0.04599-0.40811 0.89965
  -3 -10   6 6050.19  567.93   1-0.98261 0.79786-0.09760-0.54232 0.15790 0.26325
   3 -10  -6 3498.23  826.24   1 0.26379-0.07794 0.21039-0.85094-0.94135 0.51943
   3  10  -6 5552.11  660.07   1 0.66543-0.48066 0.59250 0.04752 0.45401-0.87561
  -3 -10   6 2812.46  771.08   1-0.18234-0.00170 0.20053-0.83993 0.96256-0.54268
  -3  10   6 3354.69  856.41   1-0.56952 0.38440 0.65109-0.01067-0.50171 0.92310
   3 -10  -5 1128.77  253.26   1 0.18836 0.01504 0.14399-0.78454-0.97148 0.61988
   3  10  -5 1557.56  421.93   1 0.62127-0.41868 0.55532 0.08469 0.55284-0.90417
  -3 -10   5 1603.34  370.38   1-0.11940-0.08239 0.12911-0.76850 0.98441-0.63451
  -3  10   5 2193.29  704.28   1-0.52976 0.32700 0.60613 0.03428-0.59324 0.94440
  -3 -10   4 2977.46  508.04   1-0.99484 0.77479-0.03562-0.60430 0.09498 0.18578
   3  10  -4 2919.58  559.79   1 0.56661-0.34620 0.50911 0.13118 0.64788-0.92894
  -3 -10   4 2213.40  476.88   1-0.03207-0.18646 0.03035-0.66855 0.99902-0.71990
  -3  10   4 2333.76  619.50   1-0.48186 0.26133 0.55215 0.08835-0.68039 0.96119
  -3 -10   3 5252.12 1137.72   1-0.99790 0.76062-0.00725-0.63248 0.06436 0.14629
  -3  10   3 2404.13  450.97   1 0.14565-0.38368 0.68764-0.04680-0.71129 0.92227
   3  10  -3 3214.69  650.36   1 0.50267-0.26448 0.45428 0.18601 0.73548-0.94628
  -3 -10   3 2357.83  469.55   1 0.08483-0.32072-0.10273-0.53419 0.99108-0.78216
  -3  10   3 3388.67  816.79   1-0.42725 0.18910 0.49010 0.15040-0.75976 0.97037
  -3 -10   2 1167.47  338.51   1-0.99914 0.74391 0.02033-0.66007 0.03606 0.10437
  -3  10   2 1539.31  529.18   1 0.30048-0.55627 0.65829-0.01722-0.69018 0.83082
   3  10  -2  744.19  411.73   1 0.43052-0.17468 0.39277 0.24736 0.81263-0.95304
  -3 -10   1 4034.34  992.13   1-0.99890 0.72572 0.04560-0.68534 0.01004 0.06017
  -3  10   1 7801.05  683.01   1 0.40378-0.67728 0.62796 0.01309-0.66528 0.73560
   3  10  -1 6369.08 1107.61   1 0.35459-0.08103 0.32690 0.31323 0.87600-0.94621
  -3 -10   0 6977.14  933.34   1-0.99760 0.70647 0.06788-0.70762-0.01295 0.01295
  -3  10   0 7252.58  603.20   1 0.47425-0.76495 0.60149 0.03945-0.64287 0.64287
   3  10   0 7632.90  726.97   1 0.27774 0.01354 0.25995 0.38018 0.92481-0.92481
  -3 -10  -113207.01 1707.55   1-0.99576 0.68666 0.08622-0.72596-0.03192-0.03828
  -3  10  -116342.70  992.39   1 0.52145-0.82994 0.58110 0.05985-0.62482 0.55461
  -3 -10  -118567.39 1010.17   1-0.20157-0.10664-0.19534-0.44402-0.95979 0.88964
   3 -10   116021.16  863.12   1 0.17565 0.13131-0.20633-0.43058 0.96258-0.89294
  -3 -10  -2 1589.25  283.61   1-0.99402 0.66697 0.09926-0.73900-0.04545-0.09498
  -3  10  -2 1213.62  419.63   1 0.55262-0.87891 0.56626 0.07468-0.61151 0.47110
  -3 -10  -2 2096.31  582.01   1-0.13226-0.19349-0.13519-0.50417-0.98195 0.84164
   3 -10   2 1383.27  420.56   1 0.11849 0.20623-0.14112-0.49580 0.98287-0.84359
  -3  10  -320141.37 1586.07   1 0.57198-0.91606 0.55646 0.08448-0.60264 0.39202
  -3 -10  -314701.85 1705.53   1-0.06946-0.27380-0.08195-0.55767-0.99421 0.78360
   3 -10   317346.77 2082.20   1 0.06714 0.27536-0.08255-0.55436 0.99432-0.78539
  -3  10  -4  725.23  461.41   1 0.58231-0.94419 0.55104 0.08990-0.59770 0.31688
  -3 -10  -4 1150.11  451.19   1-0.01606-0.34470-0.03544-0.60418-0.99924 0.71842
   3 -10   4 1835.46  579.98   1 0.02310 0.33837-0.03241-0.60578 0.99920-0.72008
  -3  10  -5 2748.35  648.48   1 0.58548-0.96515 0.54935 0.09159-0.59617 0.24514
  -3 -10  -5  388.55  304.14   1 0.02868-0.40697 0.00359-0.64322-0.99958 0.64856
   3 -10   5 3296.50  531.07   1-0.01473 0.39408 0.01062-0.64883 0.99983-0.65093
  -3  10  -6 6116.47  955.67   1 0.58274-0.98020 0.55081 0.09013-0.59750 0.17626
  -3 -10  -6 5113.48  659.62   1 0.06515-0.46094 0.03544-0.67507-0.99724 0.57602
   3 -10   6 6381.99 1142.47   1-0.04587 0.44309 0.04603-0.68424 0.99788-0.57920
  -3  10  -7  649.77  480.50   1 0.57496-0.99022 0.55491 0.08603-0.60123 0.10979
  -3 -10  -7 1300.66  436.33   1 0.09396-0.50726 0.06064-0.70027-0.99372 0.50229
   3 -10   7 2000.47  519.58   1-0.07073 0.48582 0.07430-0.71251 0.99472-0.50625
   3  11  -8 2471.96  689.40   1 0.94793-0.80355 0.19218 0.51088-0.25393-0.30545
   3  11  -8 2072.11  553.95   1 0.72485-0.57532 0.64061 0.06339 0.25336-0.81546
  -3 -11   8  710.31  229.76   1-0.19332 0.04478 0.21300-0.91633 0.95773-0.39789
  -3  11   8 2050.83  631.47   1-0.62491 0.47518 0.71295-0.00816-0.31808 0.87984
  -3 -11   7 6286.80  606.05   1-0.96192 0.79481-0.16050-0.54341 0.22122 0.27012
   3  11  -7 5464.53  692.97   1 0.70113-0.53384 0.62138 0.08263 0.34969-0.84153
  -3 -11   7 2642.91  679.34   1-0.15768-0.00861 0.17255-0.87588 0.97229-0.48243
  -3  11   7 5096.15  736.97   1-0.60121 0.43382 0.68632 0.01846-0.40927 0.90080
  -3 -11   6 8687.62  921.09   1-0.97241 0.78765-0.13183-0.57208 0.19243 0.22873
   3  11  -6 9228.12 1067.15   1 0.66817-0.48339 0.59479 0.10924 0.44695-0.86855
  -3  11   6 6702.17  837.15   1-0.57017 0.38506 0.65183 0.05262-0.50000 0.92138
  -3 -11   5 2310.14  539.34   1-0.98079 0.77839-0.10439-0.59952 0.16475 0.18620
   3  11  -5 4786.04  658.72   1 0.62624-0.42366 0.55953 0.14449 0.54288-0.89422
  -3  11   5 4943.87  714.28   1-0.53223 0.32946 0.60892 0.09554-0.58817 0.93932
  -3 -11   4 2596.25  638.01   1-0.98724 0.76719-0.07847-0.62544 0.13853 0.14223
   3  11  -4 2917.21  779.31   1 0.57488-0.35447 0.51617 0.18815 0.63487-0.91594
  -3  11   4 3503.36  950.30   1-0.48706 0.26653 0.55805 0.14650-0.67182 0.95262
  -3 -11   312183.55 1672.38   1-0.99196 0.75427-0.05447-0.64944 0.11417 0.09640
   3  11  -314536.90  927.47   1 0.51530-0.27710 0.46514 0.23918 0.71979-0.93059
  -3  11   315578.58 1098.35   1-0.43612 0.19797 0.50019 0.20436-0.74806 0.95866
  -3 -11   2 3424.01 1085.78   1-0.99519 0.73985-0.03288-0.67103 0.09219 0.04819
  -3  11   2 4706.93  498.70   1 0.29813-0.55391 0.65888 0.04629-0.69064 0.83128
   3  11  -2 4124.65  849.52   1 0.44908-0.19310 0.40807 0.29625 0.79485-0.93538
  -3  11   2 3231.55  715.70   1-0.38053 0.12475 0.43696 0.26759-0.81501 0.95542
  -3 -11   1 1656.03  602.44   1-0.99720 0.72421-0.01435-0.68956 0.07329-0.00309
  -3  11   1 1082.39  449.74   1 0.39788-0.67137 0.62995 0.07522-0.66696 0.73728
   3  11  -1 1460.87  394.80   1 0.37813-0.10457 0.34736 0.35678 0.85810-0.92831
  -3 -11   0 9032.73 1533.19   1-0.99843 0.70729 0.00098-0.70470 0.05591-0.05591
  -3  11   015539.57 1205.83   1 0.46628-0.75698 0.60470 0.10033-0.64568 0.64568
   3  11   012632.84  996.36   1 0.30688-0.01559 0.28537 0.41877 0.90795-0.90795
  -3 -11  -1 3458.68 1096.05   1-0.99889 0.68980 0.01094-0.71465 0.04570-0.11592
  -3  11  -1 4839.08  611.05   1 0.51247-0.82097 0.58516 0.11988-0.62844 0.55824
  -3 -11  -1 5620.31  494.89   1-0.23584-0.07237-0.22503-0.47827-0.94537 0.87522
   3 -11   1 6423.72  511.04   1 0.20306 0.10390-0.23762-0.46298 0.94989-0.88025
  -3  11  -211150.58  820.94   1 0.54328-0.86957 0.57083 0.13421-0.61562 0.47521
  -3 -11  -211345.01  752.81   1-0.17053-0.15522-0.16842-0.53488-0.97085 0.83054
   3 -11   212834.12  824.26   1 0.14964 0.17509-0.17665-0.52396 0.97283-0.83354
  -3  11  -311440.08 1035.07   1 0.56268-0.90676 0.56123 0.14381-0.60696 0.39634
  -3 -11  -3 8716.48 1289.02   1-0.11154-0.23176-0.11718-0.58612-0.98682 0.77636
   3 -11   3 9030.61  703.97   1 0.10111 0.24139-0.12128-0.57932 0.98745-0.77853
  -3  11  -4  404.93  403.30   1 0.57329-0.93517 0.55578 0.14926-0.60202 0.32119
  -3 -11  -4  530.73  219.36   1-0.05890-0.30187-0.07276-0.63082-0.99560 0.71479
   3 -11   4  616.40  286.39   1 0.05829 0.30198-0.07246-0.62815 0.99566-0.71710
  -3  11  -5 2253.03  681.81   1 0.57689-0.95656 0.55390 0.15113-0.60031 0.24928
  -3 -11  -5 2941.10  698.33   1-0.01494-0.36333-0.03446-0.66912-0.99929 0.64827
   3 -11   5 2804.85  616.87   1 0.02232 0.35703-0.03152-0.67050 0.99925-0.65035
  -3  11  -6 1137.67  675.10   1 0.57467-0.97214 0.55506 0.14998-0.60136 0.18013
  -3 -11  -6 1009.91  479.60   1 0.02143-0.41722-0.00272-0.70086-0.99976 0.57854
   3 -11   6  651.24  252.56   1-0.00837 0.40559 0.00339-0.70541 0.99995-0.58127
  -3 -12   6 2380.75  491.43   1-0.95958 0.77482-0.16629-0.60162 0.22702 0.19413
   3  12  -6 3207.69  602.40   1 0.67282-0.48804 0.59867 0.16936 0.43462-0.85622
  -3  12   6 1761.42  571.41   1-0.57268 0.38757 0.65466 0.11383-0.49340 0.91478
  -3 -12   5  594.02  290.14   1-0.96868 0.76627-0.14261-0.62530 0.20326 0.14769
   3  12  -5  769.86  348.62   1 0.63341-0.43082 0.56559 0.20244 0.52810-0.87943
  -3  12   5  566.24  410.23   1-0.53674 0.33397 0.61402 0.15447-0.57868 0.92983
  -3 -12   4 2635.26  432.41   1-0.97596 0.75591-0.12083-0.64707 0.18135 0.09942
   3  12  -4 4085.60  636.28   1 0.58559-0.36520 0.52503 0.24300 0.61758-0.89865
  -3  12   4 4662.69  834.34   1-0.49434 0.27381 0.56632 0.20228-0.65946 0.94026
  -3 -12   3  630.00  275.88   1-0.98160 0.74390-0.10142-0.66649 0.16175 0.04882
   3  12  -3 1236.29  523.70   1 0.53010-0.29190 0.47784 0.29050 0.70046-0.91126
  -3  12   3  652.75  419.15   1-0.44693 0.20878 0.51247 0.25613-0.73322 0.94382
  -3 -12   2 1131.09  294.08   1-0.98576 0.73042-0.08493-0.68297 0.14508-0.00469
   3  12  -2 1264.09  501.94   1 0.46880-0.21281 0.42509 0.34325 0.77428-0.91481
  -3  12   2  911.05  580.71   1-0.39546 0.13967 0.45394 0.31466-0.79846 0.93886
  -3 -12   1 2900.71  748.34   1-0.98860 0.71561-0.07216-0.69574 0.13214-0.06194
  -3  12   1 3276.34  483.64   1 0.38429-0.65778 0.63440 0.13487-0.67071 0.74103
   3  12  -1 2325.39  574.28   1 0.40307-0.12950 0.36899 0.39916 0.83748-0.90768
  -3 -12   0  322.97  180.71   1-0.99019 0.69956-0.06419-0.70372 0.12404-0.12404
  -3  12   0  630.97  335.09   1 0.45159-0.74279 0.61070 0.15858-0.65046 0.65046
   3  12   0  797.09  331.94   1 0.33693-0.04564 0.31154 0.45662 0.88848-0.88848
  -3  12  -1  727.89  521.47   1 0.49803-0.80652 0.59152 0.17762-0.63408 0.56388
   3  12   1  810.85  335.92   1 0.27222 0.03679 0.25514 0.51302 0.92778-0.85758
  -3  12  -2 4671.01  718.39   1 0.52910-0.85539 0.57756 0.19157-0.62166 0.48125
  -3 -12  -2 5533.93  674.15   1-0.20908-0.11667-0.20185-0.56538-0.95683 0.81652
   3 -12   2 5627.84  669.18   1 0.18066 0.14407-0.21205-0.55225 0.96041-0.82113
  -3  12  -3 1837.05  625.17   1 0.54897-0.89305 0.56806 0.20107-0.61313 0.40251
  -3 -12  -3  741.72  249.88   1-0.15286-0.19044-0.15308-0.61415-0.97631 0.76585
   3 -12   3  882.25  288.62   1 0.13480 0.20769-0.15972-0.60458 0.97791-0.76898
  -3  12  -4 3876.84  840.78   1 0.56017-0.92205 0.56250 0.20664-0.60810 0.32728
  -3 -12  -4 2242.38  592.54   1-0.10302-0.25784-0.10977-0.65747-0.98860 0.70798
   3 -12   4 4105.41  740.95   1 0.09389 0.26637-0.11306-0.65124 0.98914-0.71057
  -3 -13   4  317.18  267.08   1-0.96100 0.74095-0.16279-0.66910 0.22352 0.05724
   3  13  -4  430.58  305.72   1 0.59806-0.37766 0.53564 0.29639 0.59615-0.87722
  -3  13   4  409.90  409.54   1-0.50367 0.28325 0.57657 0.25597-0.64333 0.92425
  -3 -13   3  730.47  282.56   1-0.96687 0.72917-0.14758-0.68432 0.20826 0.00231
   3  13  -3  133.70  314.95   1 0.54670-0.30851 0.49208 0.34030 0.67746-0.88826
  -3  13   3  784.70  430.17   1-0.45934 0.22118 0.52657 0.30608-0.71534 0.92595
  -3 -13   2  455.51  178.31   1-0.97107 0.71573-0.13578-0.69612 0.19640-0.05601
   3  13  -2 1373.36  486.45   1 0.49005-0.23406 0.44341 0.38897 0.75048-0.89101
  -3  13   2  706.97  557.57   1-0.41168 0.15590 0.47239 0.36026-0.77932 0.91973
  -3 -13   1  545.11  229.91   1-0.97358 0.70060-0.12829-0.70361 0.18886-0.11866
   3  13  -1 1666.00  534.81   1 0.42916-0.15559 0.39160 0.44057 0.81392-0.88412
  -3  13   0 1552.25  566.86   1 0.43133-0.72253 0.61828 0.21510-0.65701 0.65701
   3  13   0 2320.40  458.48   1 0.36775-0.07646 0.33834 0.49383 0.86618-0.86618
  -3  13  -1  985.60  482.24   1 0.47844-0.78693 0.59978 0.23345-0.64137 0.57116
   3  13   1 1356.86  540.57   1 0.30730 0.00172 0.28573 0.54644 0.90769-0.83749
  -3  13  -2   52.89  319.90   1 0.51032-0.83661 0.58612 0.24711-0.62930 0.48889
   4   0 -12 2105.13  674.06   1 0.72322-0.54770 0.62713-0.62713-0.28922-0.55382
  -4   0  12 3138.84  522.42   1-0.62892 0.45283 0.71377-0.71377 0.30818 0.53429
  -4   0  11 4419.49  451.66   1-0.98083 0.78743-0.10424 0.10424 0.16460 0.60752
   4   0 -11 6723.71  807.98   1 0.73525-0.54200 0.63875-0.63875-0.22669-0.54609
  -4   0  11 7625.18  691.58   1-0.64006 0.44632 0.72655-0.72655 0.24985 0.52241
  -4   0  10 2130.95  507.87   1-0.99624 0.78519-0.02402 0.02402 0.08315 0.61878
   4   0 -10 1161.68  409.51   1 0.74466-0.53367 0.64815-0.64815-0.15930-0.54322
  -4   0  10 2396.40  557.83   1-0.64926 0.43786 0.73712-0.73712 0.18735 0.51470
  -4   0   927270.21 2035.88   1-0.99839 0.77181 0.05665-0.05665-0.00135 0.63332
   4   0  -927556.39 1603.31   1 0.74995-0.52123 0.65584-0.65584-0.08623-0.54606
  -4   0   924490.36 1347.28   1-0.65616 0.42710 0.74508-0.74508 0.11957 0.51227
  -4   0   8 7761.82  894.00   1-0.98469 0.74015 0.14643-0.14643-0.09454 0.65629
   4   0  -8 8290.92  725.27   1 0.75205-0.50556 0.65907-0.65907-0.00525-0.55679
  -4   0   8 7723.72  620.57   1-0.65944 0.41304 0.75037-0.75037 0.04555 0.51607
  -4   0   740890.75 1376.48   1-0.95145 0.68887 0.24060-0.24060-0.19196 0.68378
   4   0  -742903.03 1582.88   1 0.74856-0.48431 0.65754-0.65754 0.08533-0.57712
  -4   0   741543.39 1547.94   1-0.65956 0.39547 0.75069-0.75069-0.03778 0.52920
  -4   0   623664.19 1855.40   1-0.89586 0.61539 0.33494-0.33494-0.29195 0.71351
   4   0  -618477.78  826.42   1 0.73653-0.45427 0.64978-0.64978 0.18786-0.60944
  -4   0   618533.80  800.43   1-0.65410 0.37231 0.74466-0.74466-0.13272 0.55394
  -4   0   527044.53  882.11   1-0.81507 0.51627 0.42694-0.42694-0.39161 0.74241
   4   0  -526453.55  981.22   1 0.71308-0.41305 0.63114-0.63114 0.30522-0.65653
  -4   0   526481.68  935.22   1-0.63964 0.33993 0.72940-0.72940-0.24254 0.59364
  -4   0   4 7764.84  454.53   1-0.71095 0.39422 0.51116-0.51116-0.48297 0.76374
   4   0  -4 7764.64  556.45   1 0.67132-0.35371 0.59742-0.59742 0.43863-0.71969
  -4   0   4 8229.94  600.68   1-0.61183 0.29446 0.69827-0.69827-0.37158 0.65246
  -4   0   3 3046.10  282.81   1-0.58761 0.25324 0.58180-0.58180-0.56232 0.77289
   4   0  -3 3815.05  383.25   1 0.60303-0.26760 0.53986-0.53986 0.58728-0.79808
  -4   0   3 3581.46  368.12   1-0.56170 0.22661 0.64225-0.64225-0.52153 0.73222
  -4   0   234903.88  935.32   1-0.45335 0.10079 0.63575-0.63575-0.62472 0.76527
   4   0  -233052.04  845.82   1 0.49897-0.14580 0.45110-0.45110 0.73995-0.88048
  -4   0   230412.25  694.83   1 0.17959-0.52964-0.21083 0.21083 0.96088-0.82160
  -4   0   234724.44  878.91   1-0.47775 0.12496 0.54748-0.54748-0.68702 0.82743
  -4   0   1  303.59  316.39   1-0.31877-0.05146 0.67142-0.67142-0.66900 0.73928
   4   0  -1   -3.53  102.66   1 0.00212 0.36804-0.01958 0.01958-0.99980 0.92960
   4   0  -1  216.56  273.09   1 0.35749 0.01316 0.32942-0.32942 0.87388-0.94408
  -4   0   1  242.36   98.97   1-0.00181-0.36700-0.00406 0.00406 0.99999-0.93020
  -4   0   0    2.34  367.57   1-0.19399-0.19399 0.69112-0.69112-0.69621 0.69621
  -4   0   0  394.76  150.07   1-0.19378-0.19378-0.18858 0.18858-0.96274 0.96274
   4   0   0  320.73  130.44   1 0.19414 0.19414 0.14907-0.14907-0.96957 0.96957
   4   0   0  420.62  158.59   1 0.19279 0.19279-0.22590 0.22590 0.95487-0.95487
  -4   0   0  518.65   84.40   1-0.19370-0.19370 0.21343-0.21343 0.95756-0.95756
  -4   0  -149509.28 1390.92   1-0.03575-0.36942-0.05260 0.05260-0.99797 0.92777
   4   0   149385.39 1375.20   1 0.03611 0.36844-0.04721 0.04721 0.99823-0.92845
  -4   0  -146411.69 1245.60   1-0.35495-0.05032 0.39769-0.39769 0.84607-0.91613
  -4   0  -2 4685.43  584.10   1 0.00217-0.42580 0.69931-0.69931-0.71481 0.57415
  -4   0  -2 5669.17  618.34   1 0.09536-0.51804 0.06186-0.06186-0.99351 0.85311
   4   0   2 5375.27  564.10   1-0.09303 0.51545 0.09964-0.09964 0.99066-0.85110
  -4   0  -3152870.2 3884.60   1 0.07070-0.51204 0.69555-0.69555-0.71498 0.50399
  -4   0  -3154671.2 3834.64   1 0.19306-0.63404 0.14813-0.14813-0.96993 0.75897
   4   0   3157709.3 3865.74   1-0.18722 0.62789 0.20608-0.20608 0.96045-0.75051
  -4   0  -4115939.9 3512.39   1 0.12119-0.58023 0.69066-0.69066-0.71294 0.43163
  -4   0  -4115302.2 3342.91   1 0.26234-0.72087 0.20911-0.20911-0.94204 0.66076
   4   0   4113813.6 3293.23   1-0.25129 0.70972 0.27878-0.27878 0.92689-0.64697
  -4   0  -518624.36  833.86   1 0.15596-0.63271 0.68623-0.68623-0.71046 0.35881
  -4   0  -517533.50 1315.73   1 0.30951-0.78560 0.25073-0.25073-0.91724 0.56564
   4   0   518550.37  659.16   1-0.29344 0.76977 0.32778-0.32778 0.89802-0.54773
  -4   0  -612074.14  895.35   1 0.17733-0.67179 0.68307-0.68307-0.70848 0.28651
  -4   0  -6 8568.97  575.79   1 0.34019-0.83393 0.27832-0.27832-0.89821 0.47653
   4   0   6 8565.67  506.04   1-0.32025 0.81433 0.35825-0.35825 0.87698-0.45662
  -4   0  -7 9357.37  822.20   1 0.18731-0.69948 0.68148-0.68148-0.70744 0.21514
  -4   0  -711091.84  757.85   1 0.35938-0.87070 0.29531-0.29531-0.88522 0.39326
   4   0   710434.33  647.86   1-0.33625 0.84810 0.37643-0.37643 0.86326-0.37285
  -4   0  -8  447.02  385.58   1 0.18750-0.71738 0.68145-0.68145-0.70742 0.14480
  -4   0  -8  766.63  363.26   1 0.36981-0.89871 0.30454-0.30454-0.87777 0.31553
   4   0   8  692.99  356.06   1-0.34441 0.87403 0.38572-0.38572 0.85591-0.29544
  -4   0  -9 2468.68  676.93   1 0.17911-0.72670 0.68279-0.68279-0.70830 0.07535
  -4   0  -9 1116.82  389.34   1 0.37352-0.92001 0.30783-0.30783-0.87505 0.24252
   4   0   9 2895.09  575.65   1-0.34669 0.89406 0.38830-0.38830 0.85382-0.22330
  -4   0 -10 5506.49  898.22   1 0.16299-0.72829 0.68523-0.68523-0.70985 0.00656
  -4   0 -10 7302.43 1065.56   1 0.37189-0.93597 0.30639-0.30639-0.87625 0.17344
   4   0  10 7686.30 1063.82   1-0.34433 0.90947 0.38562-0.38562 0.85599-0.15540
  -4  -1  12 3564.88  422.02   1-0.95873 0.78297-0.16835 0.10435 0.22909 0.61323
   4  -1 -12 4012.02  715.16   1 0.71072-0.53520 0.61527-0.67937-0.34104-0.50199
   4   1 -12 5117.48  783.32   1 0.73273-0.55721 0.63629-0.57219-0.24129-0.60174
  -4  -1  12 4375.55  487.55   1-0.61604 0.44077 0.69734-0.76132 0.36633 0.47549
  -4   1  12 4099.81  610.69   1-0.63948 0.46339 0.72588-0.66189 0.25326 0.58920
  -4   1  11 5931.97  486.54   1-0.97700 0.78359-0.11746 0.18146 0.17795 0.59417
  -4  -1  11 3158.12  883.85   1-0.98240 0.78900-0.09840 0.03441 0.15870 0.61342
   4  -1 -11 3429.12  804.97   1 0.72431-0.53106 0.62817-0.69227-0.28419-0.48859
  -4  -1  11 3300.91  729.88   1-0.62752 0.43378 0.71217-0.77616 0.31467 0.45759
  -4   1  11 3826.48  873.67   1-0.64903 0.45528 0.73685-0.67286 0.18919 0.58306
  -4  -1  1020609.00 1338.46   1-0.99617 0.78512-0.02469-0.03929 0.08384 0.61809
  -4   1  1018041.57 1425.08   1-0.99558 0.78453-0.02973 0.09372 0.08898 0.61295
   4  -1 -1019376.95 1116.35   1 0.73582-0.52483 0.63931-0.70341-0.22321-0.47931
  -4  -1  1017905.00  880.21   1-0.63838 0.42698 0.72462-0.78861 0.25960 0.44246
  -4   1  1017285.16  855.42   1-0.65610 0.44470 0.74501-0.68102 0.12030 0.58175
  -4   1   912537.78 1007.85   1-0.99823 0.77165 0.05927 0.00469-0.00405 0.63602
  -4  -1   911965.77 1297.52   1-0.99878 0.77220 0.04886-0.11283 0.00669 0.62527
   4  -1  -912798.42  938.98   1 0.74491-0.51618 0.64841-0.71251-0.15702-0.47525
   4   1  -913950.65  910.71   1 0.75202-0.52330 0.65876-0.59472-0.02201-0.61028
  -4  -1   913435.51  843.52   1-0.64757 0.41851 0.73518-0.79917 0.20039 0.43146
  -4   1   912889.88  872.50   1-0.65943 0.43073 0.75036-0.68635 0.04583 0.58599
  -4   1   8 8747.33  593.10   1-0.98141 0.73687 0.15890-0.09492-0.10757 0.66932
  -4  -1   8 9531.95  858.09   1-0.98842 0.74389 0.13027-0.19424-0.07769 0.63944
   4  -1  -8 8483.68  731.18   1 0.75005-0.50356 0.65595-0.71999-0.08451-0.47753
   4   1  -810325.15  763.52   1 0.74988-0.50339 0.65835-0.59432 0.06515-0.62719
  -4  -1   8 9637.53  582.15   1-0.65480 0.40809 0.74351-0.80750 0.13574 0.42590
  -4   1   810113.54  668.16   1-0.65960 0.41320 0.75072-0.68671-0.03643 0.59806
  -4  -1   729393.36 1420.86   1-0.96236 0.69978 0.21548-0.27949-0.16558 0.65740
  -4   1   730020.42 1067.91   1-0.94016 0.67758 0.26345-0.19945-0.21606 0.70788
   4  -1  -729012.13 1111.50   1 0.75204-0.48778 0.65910-0.72314-0.00278-0.48900
   4   1  -729836.83 1206.76   1 0.74023-0.47573 0.65259-0.58858 0.16179-0.65363
  -4  -1   731225.37 1167.75   1-0.65877 0.39467 0.74957-0.81358 0.06444 0.42697
  -4   1   731137.02 1357.48   1-0.65452 0.39042 0.74513-0.68112-0.12796 0.61938
  -4  -1   657016.80 1828.43   1-0.91838 0.63791 0.30146-0.36546-0.25630 0.67786
  -4   1   654804.66 1633.37   1-0.87024 0.58909 0.36767-0.30371-0.32786 0.74881
   4  -1  -657100.82 1821.39   1 0.74816-0.46613 0.65728-0.72131 0.09072-0.51226
   4   1  -651337.24 1721.65   1 0.72139-0.43912 0.63785-0.57384 0.26970-0.69127
  -4  -1   653948.37 1698.69   1-0.65995 0.37816 0.75109-0.81510-0.01764 0.43885
  -4   1   659993.73 1954.13   1-0.64155 0.35950 0.73153-0.66746-0.23079 0.65211
  -4  -1   565632.72 1871.62   1-0.85387 0.55507 0.38676-0.45072-0.34830 0.69909
  -4   1   563641.91 1690.72   1-0.77153 0.47273 0.46554-0.40158-0.43358 0.78438
   4  -1  -563288.88 1762.94   1 0.73467-0.43464 0.64835-0.71235 0.19971-0.55102
   4   1  -565170.01 1817.94   1 0.68876-0.38873 0.61117-0.54717 0.38995-0.74127
  -4  -1   567121.64 1837.83   1-0.65564 0.35615 0.74638-0.81039-0.11419 0.46521
  -4   1   565611.37 1875.91   1-0.61811 0.31840 0.70532-0.64125-0.34704 0.69814
  -4  -1   425495.70 1293.28   1-0.76959 0.45313 0.46713-0.53110-0.43532 0.71595
  -4   1   424050.62  795.10   1-0.64587 0.32915 0.55147-0.48749-0.52793 0.80870
   4  -1  -425067.12  862.70   1 0.70685-0.38906 0.62607-0.69007 0.32921-0.61026
   4   1  -422372.42  804.67   1 0.63655-0.31893 0.56824-0.50423 0.52144-0.80250
  -4  -1   424462.91  845.25   1-0.64152 0.32415 0.73150-0.79557-0.23096 0.51183
  -4   1   425994.93  972.05   1-0.57856 0.26113 0.66130-0.59726-0.47741 0.75834
  -4  -1   3134976.9 3488.89   1-0.66672 0.33234 0.53936-0.60334-0.51435 0.72493
  -4   1   3126272.4 3275.51   1-0.50208 0.16721 0.61859-0.55453-0.60435 0.81518
   4  -1  -3135728.3 3470.20   1 0.65413-0.31870 0.58303-0.64703 0.48185-0.69265
   4   1  -3130655.5 3376.29   1 0.55880-0.22342 0.50243-0.43840 0.65976-0.87056
  -4  -1   3137192.7 3499.70   1-0.61030 0.27527 0.69655-0.76062-0.37727 0.58793
  -4   1   3140831.4 3649.17   1-0.51648 0.18139 0.59109-0.52705-0.61955 0.83024
  -4  -1   252303.26 1229.85   1-0.55060 0.19857 0.59868-0.66266-0.58173 0.72211
   4  -1  -246192.76  986.07   1-0.20755 0.56001-0.20052 0.13659-0.95744 0.81714
   4  -1  -251057.19 1138.37   1 0.56237-0.20920 0.50549-0.56952 0.65437-0.79490
   4   1  -250215.74 1199.88   1 0.45136-0.09819 0.41004-0.34601 0.79254-0.93307
  -4  -1   249098.62 1084.80   1-0.54594 0.19320 0.62444-0.68848-0.55858 0.69904
  -4   1   249947.66 1192.62   1-0.42509 0.07230 0.48764-0.42359-0.76255 0.90296
  -4  -1   127524.11  787.43   1-0.42900 0.05875 0.64344-0.70749-0.63399 0.70426
  -4   1   128084.59  814.38   1-0.20973-0.16062 0.68931-0.62523-0.69343 0.76372
   4  -1  -126187.47 1398.11   1 0.00463 0.36552-0.01738-0.04657-0.99983 0.92963
   4  -1  -125900.03  680.07   1 0.41955-0.04888 0.38327-0.44729 0.82284-0.89305
   4   1  -126410.28  757.14   1 0.31737 0.05328 0.29451-0.23049 0.90140-0.97161
  -4  -1   127566.43  655.40   1-0.00782-0.36100 0.00276-0.06658 0.99996-0.93018
  -4  -1   127170.50  682.57   1-0.42618 0.05576 0.48888-0.55294-0.76115 0.83135
  -4  -1   0 6363.70  421.78   1-0.31040-0.07752 0.67312-0.73718-0.67123 0.67123
  -4   1   0 5066.53  453.03   1-0.08388-0.30410 0.69872-0.63464-0.71045 0.71045
  -4   1   0 5499.26  285.91   1-0.23623-0.15132-0.22537 0.28931-0.94519 0.94519
  -4  -1   0 6465.25  361.35   1-0.17117-0.21638-0.16898 0.10504-0.97064 0.97064
   4  -1   0 5730.49  451.58   1 0.22909 0.15919 0.17982-0.24388-0.95665 0.95665
   4  -1   0 5376.09  294.69   1 0.16582 0.21976-0.19512 0.13142 0.96665-0.96665
  -4  -1   0 4890.23  350.35   1-0.24354-0.14387 0.26998-0.33392 0.93155-0.93155
  -4  -1  -116224.97  690.98   1-0.20260-0.20301 0.69015-0.75423-0.69471 0.62442
  -4   1  -117091.89  829.96   1 0.02009-0.42601 0.69864-0.63456-0.71518 0.64485
  -4  -1  -116364.18  922.39   1-0.03285-0.37231-0.05007-0.01388-0.99820 0.92800
  -4   1  -118963.41 1078.65   1-0.05154-0.35363-0.06634 0.13031-0.99646 0.92626
   4  -1   116961.28  550.52   1 0.41427-0.00845 0.34397-0.40802-0.84265 0.91293
   4  -1   117570.51  871.23   1 0.03404 0.37051-0.04485-0.01896 0.99841-0.92863
   4   1   118137.17  562.69   1 0.05168 0.35287-0.06493 0.12875 0.99655-0.92676
  -4  -1  -116526.15  498.35   1-0.42214 0.01687 0.47406-0.53803 0.77269-0.84275
  -4  -1  -2215960.6 5307.63   1-0.11034-0.31290 0.69769-0.76177-0.70784 0.56725
  -4   1  -2213116.4 5195.21   1 0.10028-0.52296 0.06616-0.00220-0.99275 0.85234
  -4  -1  -2215775.7 5424.41   1 0.08331-0.50600 0.05132-0.11529-0.99520 0.85479
   4   1   2213275.7 5174.93   1-0.10438 0.52680 0.11254-0.04872 0.98814-0.84858
   4  -1   2209581.1 5092.86   1-0.07692 0.49935 0.08134-0.14516 0.99371-0.85415
  -4  -1  -2183870.2 4413.12   1-0.52960 0.10656 0.59722-0.66122 0.60235-0.74258
  -4  -1  -3 6169.05  594.48   1-0.03642-0.40491 0.69998-0.76406-0.71323 0.50224
  -4   1  -3 5248.36  582.11   1 0.16308-0.60442 0.68522-0.62113-0.70984 0.49885
  -4  -1  -3 6215.69  741.24   1 0.17258-0.61355 0.13012-0.19418-0.97636 0.76540
  -4   1  -3 5202.78  774.91   1 0.20929-0.65026 0.16240-0.09834-0.96427 0.75331
   4  -1   3 6526.00  708.88   1-0.16179 0.60246 0.17721-0.24115 0.97078-0.76084
   4   1   3 6411.37  575.82   1-0.21107 0.65175 0.23314-0.16921 0.94925-0.73931
  -4  -1  -412293.22  803.24   1 0.02055-0.47960 0.69862-0.76271-0.71518 0.43387
  -4   1  -410606.92  726.53   1 0.20666-0.66570 0.67819-0.61411-0.70522 0.42390
  -4  -1  -412100.44 1218.55   1 0.23825-0.69678 0.18789-0.25194-0.95285 0.67157
  -4   1  -412492.27 1266.29   1 0.28327-0.74181 0.22757-0.16352-0.93164 0.65036
   4  -1   410790.50  916.56   1-0.22254 0.68096 0.24616-0.31009 0.94333-0.66341
   4   1   410041.66  541.94   1-0.27904 0.73747 0.31026-0.24632 0.90877-0.62885
  -4  -1  -523003.77  931.25   1 0.06152-0.53828 0.69624-0.76033-0.71515 0.36351
  -4   1  -521731.21 1028.74   1 0.23526-0.71206 0.67292-0.60882-0.70129 0.34970
  -4  -1  -525150.17 1857.07   1 0.28457-0.76066 0.22871-0.29277-0.93097 0.57937
  -4   1  -526451.41  917.67   1 0.33140-0.80755 0.27054-0.20649-0.90386 0.55246
   4  -1   526901.24 1911.79   1-0.26455 0.74072 0.29381-0.35775 0.91852-0.56862
   4   1   522341.56  712.39   1-0.32130 0.79763 0.35945-0.29547 0.87610-0.52580
  -4  -1  -622514.79 1023.01   1 0.08834-0.58280 0.69405-0.75813-0.71448 0.29251
  -4   1  -623797.48 1073.96   1 0.25163-0.74614 0.66956-0.60546-0.69882 0.27692
  -4  -1  -624772.11 1096.09   1 0.31575-0.80949 0.25671-0.32076-0.91345 0.49177
  -4   1  -626687.57 1081.22   1 0.36199-0.85572 0.29761-0.23356-0.88339 0.46171
   4  -1   623900.47  984.57   1-0.29239 0.78647 0.32658-0.39055 0.89880-0.47845
   4   1   622600.40  895.34   1-0.34669 0.84077 0.38830-0.32433 0.85383-0.43347
  -4  -1  -717395.33  984.57   1 0.10284-0.61501 0.69265-0.75673-0.71390 0.22160
  -4   1  -717067.71 1021.46   1 0.25763-0.76985 0.66828-0.60417-0.69786 0.20564
  -4  -1  -717367.38  954.85   1 0.33605-0.84737 0.27466-0.33871-0.90090 0.40893
  -4   1  -717955.08  954.28   1 0.38012-0.89144 0.31368-0.24963-0.87011 0.37815
   4  -1   718686.99  933.32   1-0.31002 0.82187 0.34662-0.41060 0.88528-0.39487
   4   1   719281.35  938.59   1-0.36086 0.87271 0.40441-0.34043 0.84037-0.34996
  -4  -1  -8 1258.66  529.12   1 0.10659-0.63647 0.69226-0.75634-0.71372 0.15109
  -4   1  -8 2930.79  811.84   1 0.25479-0.78472 0.66889-0.60478-0.69832 0.13578
  -4  -1  -8 3335.66  770.60   1 0.34779-0.87670 0.28505-0.34910-0.89318 0.33094
  -4   1  -8 3002.90  709.84   1 0.38928-0.91818 0.32180-0.25775-0.86307 0.30083
   4  -1   8 3243.22  732.78   1-0.31991 0.84952 0.35786-0.42183 0.87726-0.31679
   4   1   8 1654.41  395.23   1-0.36719 0.89680 0.41161-0.34763 0.83411-0.27364
  -4  -1  -9 1328.27  417.21   1 0.10085-0.64844 0.69285-0.75693-0.71399 0.08103
  -4   1  -9 1865.03  660.84   1 0.24422-0.79185 0.67111-0.60700-0.69997 0.06711
  -4  -1  -9 2172.95  535.02   1 0.35285-0.89934 0.28952-0.35357-0.88975 0.25723
  -4   1  -9 3161.81  762.19   1 0.39168-0.93817 0.32393-0.25988-0.86118 0.22866
   4  -1   9 2485.01  574.51   1-0.32383 0.87120 0.36231-0.42629 0.87398-0.24346
   4   1   9 1482.12  388.31   1-0.36776 0.91514 0.41225-0.34828 0.83354-0.20301
  -4  -1 -10  524.48  284.42   1 0.08650-0.65180 0.69421-0.75830-0.71454 0.01126
  -4   1 -10 1261.12  537.17   1 0.22667-0.79201 0.67460-0.61050-0.70251-0.00066
  -4   1 -10 1543.91  453.86   1 0.38880-0.95287 0.32137-0.25732-0.86344 0.16064
   4  -1  10  436.34  309.36   1-0.32299 0.88812 0.36136-0.42533 0.87469-0.17410
   4   1  10 1304.93  415.95   1-0.36386 0.92900 0.40782-0.34384 0.83742-0.13684
  -4  -2  12  787.12  264.26   1-0.96084 0.78508-0.16320 0.03522 0.22393 0.61838
   4  -2 -12 1921.12  585.37   1 0.69573-0.51972 0.59944-0.72765-0.39575-0.44766
   4   2 -12 1454.03  607.83   1 0.73974-0.56422 0.64318-0.51498-0.19772-0.64531
  -4  -2  12 2251.51  433.25   1-0.59865 0.42338 0.67754-0.80551 0.42724 0.41459
  -4   2  12 2247.22  513.58   1-0.64730 0.47120 0.73486-0.60687 0.20242 0.64005
  -4  -2  11 3378.81  829.47   1-0.98245 0.78905-0.09822-0.02976 0.15852 0.61360
   4  -2 -11 5249.71  716.96   1 0.70949-0.51624 0.61412-0.74232-0.34564-0.42714
   4   2 -11 3702.73  860.28   1 0.74798-0.55473 0.65163-0.52343-0.12604-0.64674
  -4  -2  11 4202.83  535.72   1-0.61175 0.41878 0.69245-0.82042 0.38243 0.38924
  -4  -2  10  562.49  230.15   1-0.99552 0.78447-0.03026-0.09772 0.08952 0.61241
  -4   2  10  366.80  182.86   1-0.99363 0.78258-0.04413 0.17212 0.10365 0.59827
   4  -2 -10  447.31  475.10   1 0.72262-0.51163 0.62655-0.75475-0.29195-0.41057
   4   2 -10 1080.23  501.49   1 0.75153-0.54058 0.65786-0.52979-0.04903-0.65351
  -4  -2  10  833.55  382.38   1-0.62273 0.41133 0.70668-0.83467 0.33584 0.36621
  -4   2   936478.07 1742.86   1-0.99849 0.77190 0.05491 0.07303 0.00044 0.63152
  -4  -2   941934.96 3114.44   1-0.99913 0.77255 0.03707-0.16502 0.01883 0.61312
   4  -2  -941556.66 2132.17   1 0.73397-0.50524 0.63750-0.76570-0.23425-0.39803
   4   2  -940349.17 2192.10   1 0.75127-0.52255 0.65907-0.53100 0.03476-0.66706
  -4  -2   936102.62 1846.33   1-0.63337 0.40432 0.71888-0.84687 0.28642 0.34543
  -4   2   939076.26 2094.20   1-0.65991 0.43121 0.75105-0.62303-0.02076 0.65259
  -4  -2   822328.88 1489.08   1-0.99210 0.74757 0.11122-0.23917-0.05787 0.61962
  -4   2   823428.41  876.01   1-0.97924 0.73471 0.16650-0.03855-0.11553 0.67728
   4  -2  -824086.32  981.97   1 0.74325-0.49679 0.64671-0.77491-0.17125-0.39077
   4   2  -822291.98  992.79   1 0.74494-0.49846 0.65505-0.52698 0.12630-0.68834
  -4  -2   823372.10  927.02   1-0.64273 0.39603 0.72962-0.85761 0.23353 0.32811
  -4   2   822302.64 1092.34   1-0.65606 0.40966 0.74684-0.61882-0.10861 0.67024
  -4  -2   7 5070.89  626.18   1-0.97239 0.70981 0.18857-0.31658-0.13741 0.62923
  -4   2   7 5578.09  650.36   1-0.92918 0.66661 0.28344-0.15543-0.23719 0.72901
   4  -2  -7 5119.57  536.67   1 0.74899-0.48474 0.65473-0.78280-0.10160-0.39018
  -4  -2   7 5020.15  483.72   1-0.65065 0.38629 0.73872-0.86671 0.17587 0.31556
  -4   2   7 5815.31  753.08   1-0.64535 0.38096 0.73575-0.60761-0.20536 0.69690
  -4  -2   645185.68 1595.88   1-0.93833 0.65786 0.26692-0.39493-0.21972 0.64128
  -4   2   644056.51 1427.89   1-0.84349 0.56234 0.39815-0.27022-0.36055 0.78150
   4  -2  -642181.66 1391.27   1 0.75203-0.47000 0.65877-0.78684-0.02157-0.39996
   4   2  -647176.07 1650.67   1 0.70479-0.42252 0.62438-0.49638 0.33676-0.75833
  -4  -2   644660.24 1450.08   1-0.65678 0.37476 0.74580-0.87379 0.11136 0.30987
  -4   2   644639.83 1530.43   1-0.62626 0.34421 0.71445-0.58631-0.31199 0.73331
  -4  -2   550446.29 1531.34   1-0.88775 0.58894 0.34549-0.47343-0.30418 0.65498
  -4   2   545720.07 1268.11   1-0.72341 0.42434 0.50253-0.37458-0.47343 0.82439
   4  -2  -549982.20 1434.84   1 0.74942-0.44963 0.65808-0.78615 0.07273-0.42401
   4   2  -548580.79 1509.65   1 0.66468-0.36488 0.59187-0.46386 0.45593-0.80727
  -4  -2   550635.64 1421.77   1-0.65965 0.36015 0.75063-0.87865 0.03755 0.31346
  -4   2   551703.21 1585.98   1-0.59492 0.29514 0.67975-0.55167-0.42893 0.78009
  -4  -2   4 6532.78  736.53   1-0.82082 0.50436 0.42138-0.54931-0.38559 0.66623
  -4   2   4 5448.40  356.54   1-0.57557 0.25885 0.58748-0.45953-0.56883 0.84960
   4  -2  -4 6535.28  502.72   1 0.73658-0.41878 0.64981-0.77781 0.18757-0.46862
   4   2  -4 7483.12  605.11   1 0.60576-0.28814 0.54218-0.41417 0.58231-0.86338
  -4  -2   4 6110.22  391.38   1-0.65907 0.34187 0.75015-0.87817-0.05373 0.33455
  -4   2   4 7477.76  692.84   1-0.54747 0.23004 0.62617-0.49809-0.55513 0.83605
  -4  -2   3 4862.33  361.81   1-0.73748 0.40310 0.49238-0.62033-0.46224 0.67282
  -4   2   3 4443.54  320.24   1-0.41309 0.07822 0.64815-0.52003-0.63972 0.85055
   4  -2  -3 4471.52  343.49   1 0.70591-0.37035 0.62530-0.75330 0.33268-0.54347
   4   2  -3 3942.93  526.57   1 0.52366-0.18827 0.47232-0.34426 0.70900-0.91980
  -4   2   3 4378.02  276.21   1 0.40788-0.74308 0.37316-0.24513 0.83329-0.62268
  -4  -2   3 4723.99  334.08   1-0.64965 0.31462 0.74050-0.86864-0.17203 0.38269
  -4   2   3 4052.28  370.48   1-0.47895 0.14378 0.54884-0.42074-0.68510 0.89571
   4   2  -3 3858.07  257.23   1-0.41193 0.74710 0.47268-0.34457-0.77902 0.56842
  -4  -2   2112121.5 2949.93   1-0.64062 0.28858 0.55441-0.68236-0.53125 0.67163
  -4   2   2104722.2 2766.95   1-0.25232-0.10040 0.68347-0.55531-0.68497 0.82555
   4  -2  -299883.26 2520.03   1-0.22980 0.58226-0.21980 0.09192-0.94809 0.80778
   4  -2  -2111267.2 2831.16   1 0.63950-0.28626 0.57073-0.69873 0.51507-0.65560
   4   2  -2111674.1 2933.26   1 0.41739-0.06446 0.38141-0.25338 0.82480-0.96521
  -4  -2   2109358.7 2770.16   1-0.61988 0.26719 0.70730-0.83544-0.33980 0.48024
  -4   2   2103978.9 2747.86   1-0.38743 0.03464 0.44481-0.31670-0.80748 0.94788
  -4   2   1177149.4 4536.80   1-0.10694-0.26341 0.69785-0.56969-0.70820 0.77849
   4  -2  -1176974.0 4414.58   1 0.02410 0.34605-0.00039-0.12752-0.99970 0.92950
   4  -2  -1173203.1 4323.90   1 0.51089-0.13993 0.46135-0.58941 0.72535-0.79562
   4   2  -1169482.5 4320.56   1 0.29317 0.07749 0.27341-0.14538 0.91613-0.98633
  -4  -2   1174450.5 4311.24   1-0.03631-0.33250 0.03516-0.16281 0.99872-0.92894
  -4  -2   1180208.8 4467.46   1-0.53606 0.16566 0.61326-0.74134-0.58011 0.65035
  -4  -2   014402.64  646.63   1-0.42775 0.03982 0.64381-0.77193-0.63444 0.63444
  -4   2   014786.90  772.03   1 0.01545-0.40367 0.69884-0.57067-0.71510 0.71510
  -4  -2   013359.08  529.92   1-0.16180-0.22575-0.16084 0.03297-0.97362 0.97362
   4  -2   016389.95  631.80   1 0.29327 0.09501 0.23639-0.36450-0.92634 0.92634
   4  -2   013831.78  471.02   1 0.31036 0.07802 0.28840-0.41643 0.90581-0.90581
   4  -2   013403.09  535.70   1 0.15388 0.23171-0.18148 0.05410 0.97127-0.97127
  -4  -2   013812.87  402.81   1-0.34091-0.04659 0.38174-0.50969 0.85909-0.85909
  -4  -2  -136847.20 1146.20   1-0.32517-0.08043 0.67008-0.79820-0.66726 0.59699
  -4   2  -136720.20 1232.02   1 0.11269-0.51861 0.69161-0.56344-0.71342 0.64309
  -4   2  -135546.77 1044.63   1-0.08750-0.31760-0.09627 0.22415-0.99150 0.92134
  -4  -2  -140297.32 1283.66   1-0.03860-0.36657-0.05508-0.07284-0.99773 0.92753
   4  -2   135875.98  988.51   1 0.49264-0.08685 0.41467-0.54279-0.76507 0.83536
   4   2   135174.43  956.96   1 0.09196 0.31139-0.11086 0.23824 0.98957-0.91993
   4  -2   139648.65 1664.40   1 0.04001 0.36454-0.05165-0.07598 0.99786-0.92808
  -4  -2  -136225.16  960.24   1-0.52155 0.11622 0.58807-0.71606 0.61817-0.68829
  -4  -2  -2 9766.62  546.19   1-0.23335-0.18989 0.68624-0.81441-0.68891 0.54833
  -4   2  -2 8148.92  800.28   1 0.18658-0.61021 0.68160-0.55344-0.70752 0.56687
  -4  -2  -210501.41 1147.83   1 0.06620-0.48888 0.03636-0.16429-0.99714 0.85673
  -4   2  -2 9125.84  577.28   1 0.09455-0.51724 0.06115 0.06676-0.99363 0.85323
   4  -2   2 8565.75  350.86   1 0.61021-0.18682 0.52023-0.64835-0.59748 0.73806
   4   2   2 8861.99  492.06   1-0.10783 0.53026 0.11647 0.01117 0.98732-0.84776
   4  -2   210832.83 1191.45   1-0.05771 0.48013 0.05950-0.18714 0.99655-0.85699
  -4  -2  -2 8888.63  330.74   1-0.59990 0.17689 0.67896-0.80693 0.42322-0.56353
  -4  -2  -341467.56 1366.54   1-0.15560-0.28527 0.69477-0.82293-0.70219 0.49131
  -4  -2  -339127.05 1695.51   1 0.14886-0.58983 0.10929-0.23740-0.98279 0.77184
  -4   2  -340047.49 1551.12   1 0.21972-0.66069 0.17157-0.04346-0.96035 0.74939
   4  -2   339937.74 1276.19   1-0.13522 0.57589 0.14707-0.27494 0.97983-0.76989
   4   2   338179.61 1297.64   1-0.23264 0.67331 0.25762-0.12974 0.93782-0.72788
  -4  -2  -334546.53 1036.40   1-0.63385 0.19294 0.71942-0.84741 0.28401-0.49463
  -4  -2  -433650.48 1249.10   1-0.09347-0.36503 0.69841-0.82657-0.70956 0.42839
  -4   2  -437845.09 1417.06   1 0.27729-0.73639 0.66387-0.53566-0.69452 0.41325
  -4  -2  -436798.34 1311.45   1 0.21161-0.67014 0.16444-0.29255-0.96342 0.68214
  -4   2  -436594.53 1339.25   1 0.30022-0.75876 0.24253-0.11442-0.92251 0.64123
   4  -2   437567.91 1442.37   1-0.19304 0.65146 0.21268-0.34056 0.95786-0.67794
   4   2   436588.66 1150.80   1-0.30568 0.76424 0.34169-0.21374 0.88870-0.60847
  -4  -2  -527458.61 1093.67   1-0.04790-0.42885 0.69997-0.82814-0.71255 0.36091
  -4   2  -525648.07 1143.21   1 0.30064-0.77745 0.65825-0.53004-0.69015 0.33856
  -4  -2  -526529.52 1980.26   1 0.25727-0.73337 0.20465-0.33276-0.94441 0.59281
  -4   2  -525468.29  943.01   1 0.35025-0.82640 0.28722-0.15912-0.89153 0.54012
   4  -2   526968.40  959.64   1-0.23466 0.71084 0.25991-0.38779 0.93668-0.58678
   4   2   525963.33  861.38   1-0.34769 0.82401 0.38944-0.26149 0.85290-0.50261
  -4  -2  -6 2198.55  544.01   1-0.01577-0.47868 0.69975-0.82792-0.71420 0.29223
  -4   2  -6 1619.35  727.27   1 0.31274-0.80726 0.65516-0.52695-0.68771 0.26580
  -4  -2  -6 2328.22  364.68   1 0.28933-0.78299 0.23292-0.36103-0.92845 0.50653
  -4   2  -6 1234.57  253.75   1 0.38071-0.87445 0.31421-0.18611-0.86966 0.44798
   4  -2   6 1797.54  271.76   1-0.26358 0.75751 0.29272-0.42059 0.91915-0.49927
   4   2   6 1189.05  211.60   1-0.37141 0.86550 0.41640-0.28846 0.82985-0.40949
  -4  -2  -7 1025.58  447.11   1 0.00339-0.51556 0.69927-0.82744-0.71484 0.22254
  -4   2  -7 1387.55  491.47   1 0.31547-0.82769 0.65445-0.52623-0.68714 0.19491
  -4  -2  -7  109.39  277.86   1 0.31074-0.82196 0.25182-0.37993-0.91652 0.42428
  -4   2  -7   19.75  195.38   1 0.39795-0.90927 0.32949-0.20139-0.85619 0.36422
   4  -2   7  103.97  217.48   1-0.28269 0.79437 0.31440-0.44228 0.90622-0.41636
   4   2   7  232.52  146.40   1-0.38361 0.89546 0.43026-0.30232 0.81713-0.32672
  -4  -2  -8  442.45  286.55   1 0.01099-0.54087 0.69901-0.82718-0.71502 0.15239
  -4   2  -8  827.31  539.36   1 0.31020-0.84013 0.65582-0.52760-0.68823 0.12569
  -4  -2  -8 1178.26  376.34   1 0.32346-0.85236 0.26352-0.39162-0.90880 0.34656
  -4   2  -8 1239.98  419.51   1 0.40593-0.93484 0.33657-0.20847-0.84966 0.28742
   4  -2   8 1689.30  429.62   1-0.29387 0.82349 0.32827-0.45621 0.89770-0.33723
   4   2   8  813.61  271.36   1-0.38803 0.91765 0.43529-0.30735 0.81236-0.25189
  -4  -2  -9 5688.38  698.36   1 0.00817-0.55576 0.69911-0.82728-0.71496 0.08200
  -4   2  -9 4035.05  704.77   1 0.29794-0.84557 0.65892-0.53071-0.69068 0.05782
  -4  -2  -9 5553.18  651.01   1 0.32987-0.87636 0.26919-0.39729-0.90483 0.27230
  -4   2  -9 6405.92  722.06   1 0.40712-0.95361 0.33762-0.20953-0.84867 0.21615
   4  -2   9 5714.69  681.85   1-0.29935 0.84672 0.33449-0.46243 0.89358-0.26306
   4   2   9 7239.96  764.62   1-0.38687 0.93424 0.43397-0.30602 0.81363-0.18310
  -4   2 -10 1817.57  582.07   1 0.27934-0.84468 0.66340-0.53519-0.69416-0.00901
  -4  -2 -10 1503.70  484.97   1 0.33085-0.89493 0.27006-0.39816-0.90421 0.20140
  -4   2 -10  840.74  311.83   1 0.40305-0.96712 0.33401-0.20591-0.85204 0.14924
   4  -2  10  884.18  354.27   1-0.29997 0.86511 0.33520-0.46315 0.89311-0.19252
   4   2  10 1040.34  355.04   1-0.38141 0.94655 0.42777-0.29982 0.81946-0.11888
  -4  -3  12 1282.71  413.42   1-0.96092 0.78516-0.16299-0.02898 0.22372 0.61860
   4  -3 -12  611.08  348.12   1 0.67582-0.49981 0.58106-0.77338-0.45346-0.38995
   4   3 -12 2194.06  636.43   1 0.74471-0.56920 0.64820-0.45590-0.15882-0.68421
  -4  -3  12 1356.09  409.70   1-0.57734 0.40207 0.65327-0.84522 0.48979 0.35203
  -4   3  12 1128.69  430.47   1-0.65283 0.47673 0.74123-0.54924 0.15614 0.68632
  -4  -3  11 5454.98  612.73   1-0.98130 0.78790-0.10251-0.08946 0.16286 0.60926
   4  -3 -11 5905.59  779.50   1 0.69124-0.49756 0.59528-0.78760-0.40965-0.36347
   4   3 -11 4806.16  757.44   1 0.75008-0.55690 0.65599-0.46389-0.08385-0.68895
  -4  -3  11 4866.26  569.70   1-0.59052 0.39755 0.66828-0.86023 0.45240 0.31927
  -4   3  11 5358.75  778.36   1-0.65786 0.46457 0.74850-0.55647 0.08338 0.68884
  -4  -3  10 7819.14  978.88   1-0.99428 0.78323-0.03970-0.15227 0.09914 0.60279
   4  -3 -1010604.82  970.57   1 0.70532-0.49397 0.60836-0.80067-0.36387-0.33897
   4   3 -10 9741.01  900.49   1 0.75204-0.54109 0.65910-0.46699-0.00317-0.69938
  -4  -3  10 7851.46  691.82   1-0.60261 0.39195 0.68205-0.87400 0.41431 0.28721
  -4   3  1011276.52 1044.09   1-0.66007 0.44907 0.75118-0.55915 0.00512 0.69690
  -4  -3   9 8811.45  776.74   1-0.99916 0.77258 0.02211-0.21403 0.03422 0.59774
  -4   3   9 7490.61 1167.88   1-0.99906 0.77247 0.04058 0.15133 0.01522 0.61674
   4  -3  -9 8026.89  700.92   1 0.71698-0.48825 0.62119-0.81349-0.31631-0.31596
   4   3  -9 9095.89  767.17   1 0.74867-0.51994 0.65761-0.46550 0.08390-0.71621
  -4  -3   9 8219.18  550.51   1-0.61365 0.38530 0.69462-0.88657 0.37539 0.25598
  -4   3   910303.07  805.23   1-0.65792 0.42922 0.74890-0.55687-0.07926 0.71109
  -4  -3   8 4613.12  522.96   1-0.99531 0.75077 0.08985-0.28177-0.03569 0.59744
  -4   3   8 4210.37  608.43   1-0.97898 0.73444 0.16740 0.02451-0.11647 0.67822
   4  -3  -8 5668.12  634.15   1 0.72830-0.48184 0.63201-0.82431-0.26481-0.29721
   4   3  -8 5407.91  735.74   1 0.73796-0.49122 0.65087-0.45886 0.17826-0.74036
  -4  -3   8 4825.95  529.47   1-0.62273 0.37602 0.70668-0.89867 0.33584 0.22580
  -4   3   8 3910.96  580.15   1-0.65022 0.40382 0.74031-0.54828-0.17070 0.73232
  -4  -3   761769.34 1690.28   1-0.98121 0.71871 0.15963-0.35155-0.10834 0.59987
  -4   3   757782.16 1543.20   1-0.91948 0.65690 0.29969-0.10767-0.25442 0.74624
   4  -3  -762775.00 1758.18   1 0.73810-0.47390 0.64156-0.83386-0.20878-0.28299
   4   3  -768262.04 2025.70   1 0.71900-0.45449 0.63593-0.44392 0.28040-0.77224
  -4  -3   759812.96 1623.94   1-0.63174 0.36738 0.71701-0.90899 0.29459 0.19684
  -4  -3   627276.19 1007.10   1-0.95555 0.67508 0.23156-0.42357-0.18246 0.60402
  -4   3   629340.93 1591.63   1-0.81564 0.53449 0.42640-0.23450-0.39103 0.81198
   4  -3  -625922.84  965.07   1 0.74606-0.46412 0.64960-0.84190-0.14624-0.27527
   4   3  -627534.43 1115.49   1 0.68862-0.40636 0.61106-0.41906 0.39036-0.81194
  -4  -3   627962.19  997.00   1-0.63980 0.35778 0.72624-0.91823 0.25143 0.16980
  -4   3   627801.70 1167.09   1-0.61027 0.32822 0.69651-0.50430-0.37739 0.79871
  -4  -3   543048.75 1377.89   1-0.91718 0.61882 0.30337-0.49538-0.25833 0.60963
  -4   3   538872.60 1200.09   1-0.67226 0.37319 0.53602-0.34409-0.51061 0.86157
   4  -3  -539478.02 1275.28   1 0.75056-0.45077 0.65657-0.84868-0.07460-0.27667
   4   3  -542460.67 1469.61   1 0.64334-0.34354 0.57396-0.38196 0.50661-0.85795
  -4  -3   537358.83 1179.32   1-0.64690 0.34723 0.73440-0.92639 0.20534 0.14569
  -4   3   542161.76 1465.76   1-0.57326 0.27348 0.65532-0.46319-0.49185 0.84300
  -4  -3   4 1474.10  229.76   1-0.86475 0.54829 0.37423-0.56613-0.33488 0.61551
  -4   3   4  751.32  239.96   1-0.50217 0.18498 0.61856-0.42638-0.60431 0.88542
   4  -3  -4 1547.45  354.69   1 0.75184-0.43428 0.65920-0.85131 0.01336-0.29439
  -4  -3   4 1482.34  326.31   1-0.65301 0.33569 0.74145-0.93343 0.15432 0.12650
  -4   3   4  986.73  495.08   1-0.52096 0.20352 0.59616-0.40403-0.61089 0.89181
   4   3  -4 1038.03  198.50   1-0.53938 0.85682 0.61702-0.42489-0.57300 0.29208
  -4  -3   3 1982.67  306.70   1-0.79908 0.46496 0.44182-0.63372-0.40774 0.61822
  -4   3   3 2540.68  331.26   1-0.32452-0.01034 0.67022-0.47804-0.66744 0.87827
   4  -3  -3 2504.66  287.17   1 0.74474-0.40941 0.65490-0.84701 0.12826-0.33903
  -4   3   3 1588.98  183.67   1 0.44492-0.78030 0.40447-0.21238 0.79902-0.58823
  -4  -3   3 2134.13  200.64   1-0.65796 0.32298 0.74718-0.93916 0.09381 0.11680
   4   3  -3 1169.41  152.70   1-0.46184 0.79700 0.52941-0.33725-0.71163 0.50103
  -4   3   3 3088.88  425.25   1-0.45040 0.11523 0.51641-0.32426-0.72831 0.93892
  -4  -3   235833.05 1119.56   1-0.72086 0.36882 0.50432-0.69624-0.47541 0.61579
  -4   3   235173.52 1130.68   1-0.15793-0.19479 0.69458-0.50233-0.70186 0.84244
   4  -3  -236350.19 1016.11   1 0.71675-0.36343 0.63411-0.82612 0.29010-0.43062
   4   3  -236682.99 1175.22   1 0.39532-0.04239 0.36227-0.17023 0.84408-0.98449
  -4  -3   236673.87  984.92   1-0.66002 0.30743 0.75110-0.94313 0.01402 0.12638
  -4  -3   159498.30 1692.06   1-0.63306 0.26338 0.55856-0.75049-0.53593 0.60612
  -4   3   157212.77 1671.03   1-0.01430-0.35619 0.69972-0.50747-0.71426 0.78459
   4  -3  -157009.08 1460.44   1 0.07572 0.29444 0.04468-0.23657-0.99612 0.92592
   4  -3  -156533.49 1463.89   1 0.63458-0.26353 0.56658-0.75859 0.52562-0.59588
   4   3  -158637.12 1680.65   1 0.28061 0.09005 0.26246-0.07041 0.92323-0.99344
  -4  -3   156344.01 1437.70   1-0.12626-0.24339 0.13690-0.32871 0.98250-0.91252
  -4  -3   156497.50 1429.18   1-0.65363 0.28334 0.74413-0.93616-0.13790 0.20810
  -4  -3   0122780.3 3211.49   1-0.54043 0.15250 0.60328-0.79546-0.58649 0.58649
  -4   3   0119632.2 3176.70   1 0.10138-0.48959 0.69279-0.50054-0.71396 0.71396
  -4  -3   0128895.9 3367.02   1-0.16168-0.22587-0.16074-0.03106-0.97366 0.97366
   4  -3   0113170.5 2815.35   1 0.41005-0.02182 0.34023-0.53238-0.84622 0.84622
   4  -3   0118032.4 2946.06   1 0.43989-0.05149 0.40088-0.59292 0.80360-0.80360
   4  -3   0126029.4 3256.82   1 0.15153 0.23406-0.17880-0.01226 0.97214-0.97214
  -4  -3   0118298.3 2908.75   1-0.54867 0.16105 0.62063-0.81258 0.56014-0.56014
  -4  -3   0118304.5 2915.56   1-0.55686 0.16881 0.63679-0.82892-0.53327 0.53327
  -4  -3  -1 9641.44  570.04   1-0.44787 0.04226 0.63753-0.82971-0.62686 0.55658
  -4   3  -1 8394.91  566.98   1 0.19045-0.59637 0.68097-0.48872-0.70710 0.63677
  -4   3  -1 9264.20  333.71   1-0.16140-0.24370-0.16050 0.35231-0.97374 0.90359
  -4  -3  -110209.28 1136.45   1-0.05045-0.35471-0.06540-0.12648-0.99658 0.92637
   4  -3   1 8823.03  304.39   1 0.60355-0.19776 0.51422-0.70639-0.60934 0.67962
   4  -3   110777.17  999.81   1 0.05121 0.35333-0.06440-0.12705 0.99660-0.92682
  -4  -3  -1 8893.32  273.63   1-0.64101 0.23541 0.72763-0.91962 0.24422-0.31443
  -4  -3  -240416.22 1233.39   1-0.36103-0.06227 0.66195-0.85413-0.65686 0.51631
  -4   3  -239829.20 1368.83   1 0.25636-0.68004 0.66855-0.47623-0.69807 0.55743
  -4  -3  -237074.61 1221.71   1 0.04533-0.46801 0.01813-0.21002-0.99880 0.85839
  -4   3  -238642.43 1060.48   1 0.07141-0.49409 0.04091 0.15097-0.99660 0.85619
   4  -3   237975.80 1007.77   1 0.68731-0.26386 0.59165-0.78396-0.42136 0.56193
   4  -3   239603.66 1215.93   1-0.03634 0.45877 0.03520-0.22666 0.99871-0.85915
   4   3   237385.72 1032.59   1-0.09622 0.51865 0.10328 0.08818 0.98998-0.85042
  -4  -3  -236873.72  958.19   1-0.65614 0.23290 0.74507-0.93705 0.11974-0.26015
  -4  -3  -366939.94 2030.73   1-0.28436-0.15651 0.67816-0.87040-0.67766 0.46679
  -4   3  -367105.78 2160.46   1 0.30314-0.74453 0.65762-0.46530-0.68966 0.47870
  -4  -3  -366847.57 2107.99   1 0.12314-0.56333 0.08617-0.27806-0.98863 0.77802
  -4   3  -365833.39 1949.83   1 0.22179-0.66276 0.17340 0.01876-0.95955 0.74859
   4  -3   357653.11 1644.28   1 0.72354-0.28196 0.62743-0.81973-0.28776 0.49852
   4  -3   368515.42 2083.72   1-0.10746 0.54776 0.11605-0.30751 0.98741-0.77806
   4   3   364480.13 1833.63   1-0.25071 0.69139 0.27812-0.08631 0.92724-0.71730
  -4  -3  -363963.84 1804.84   1-0.65953 0.21843 0.75048-0.94251 0.04227-0.25288
  -4  -3  -4 6925.01  585.02   1-0.22020-0.23830 0.68800-0.88025-0.69148 0.41032
  -4  -3  -4 7067.45  862.76   1 0.18288-0.64141 0.13917-0.33134-0.97323 0.69195
  -4   3  -4 5376.24  319.41   1 0.31180-0.77037 0.25322-0.06107-0.91577 0.63465
   4  -3   4 6834.70  910.96   1-0.16297 0.62140 0.17856-0.37038 0.97033-0.69041
   4   3   4 7418.58  328.44   1-0.33038 0.78894 0.36976-0.17784 0.86840-0.58816
  -4  -3  -524747.14  953.49   1-0.16984-0.30629 0.69354-0.88579-0.70010 0.34864
  -4   3  -529614.72 1360.18   1 0.35331-0.83012 0.64392-0.45160-0.67861 0.32702
  -4  -3  -525460.38 2394.98   1 0.22797-0.70407 0.17884-0.37101-0.95709 0.60550
  -4   3  -528038.33  960.32   1 0.36502-0.84117 0.30030-0.10815-0.88123 0.52982
   4  -3   524823.09 1052.21   1-0.20406 0.68024 0.22519-0.41700 0.95270-0.60280
   4   3   526354.34  875.90   1-0.37219 0.84852 0.41729-0.22537 0.82905-0.47876
  -4  -3  -6 9882.89  715.86   1-0.13324-0.36052 0.69640-0.88864-0.70517 0.28342
  -4   3  -6 8193.88  896.95   1 0.36196-0.85647 0.64135-0.44903-0.67649 0.25458
  -4  -3  -610070.40 1137.66   1 0.26055-0.75420 0.20753-0.39970-0.94289 0.52097
  -4   3  -6 8666.73  572.62   1 0.39585-0.88959 0.32763-0.13548-0.85787 0.43619
   4  -3   6 9149.23 1431.14   1-0.23361 0.72754 0.25871-0.45053 0.93727-0.51739
   4   3   6 9573.69  579.93   1-0.39409 0.88818 0.44218-0.25026 0.80570-0.38535
  -4  -3  -7 7957.55  530.57   1-0.10971-0.40168 0.69772-0.88997-0.70791 0.21586
  -4   3  -7 7620.69  737.54   1 0.36212-0.87434 0.64130-0.44898-0.67645 0.18423
  -4  -3  -7 8912.84 1017.06   1 0.28301-0.79423 0.22734-0.41951-0.93177 0.43954
  -4   3  -7 9196.29  561.21   1 0.41246-0.92378 0.34236-0.15021-0.84419 0.35222
   4  -3   7 8341.70  957.38   1-0.25391 0.76559 0.28175-0.47357 0.92527-0.43542
   4   3   7 8733.53  477.49   1-0.40421 0.91606 0.45368-0.26176 0.79421-0.30380
  -4  -3  -8 2821.30  638.28   1-0.09830-0.43071 0.69822-0.89047-0.70909 0.14676
  -4   3  -8 1780.73  680.01   1 0.35501-0.88494 0.64342-0.45110-0.67820 0.11566
  -4  -3  -8 3463.72  870.13   1 0.29736-0.82614 0.24000-0.43217-0.92410 0.36154
  -4   3  -8 4336.71  483.37   1 0.41945-0.94836 0.34858-0.15643-0.83818 0.27593
   4  -3   8 2334.79  641.29   1-0.26683 0.79627 0.29641-0.48823 0.91702-0.35718
   4   3   8 4011.10  740.20   1-0.40670 0.93632 0.45651-0.26459 0.79131-0.23084
  -4   3  -9  464.11  448.12   1 0.34152-0.88915 0.64733-0.45501-0.68140 0.04854
  -4  -3  -9  752.42  306.02   1 0.30510-0.85144 0.24684-0.43900-0.91977 0.28689
  -4   3  -9 1011.22  361.50   1 0.41955-0.96604 0.34866-0.15652-0.83809 0.20556
   4  -3   9 1175.25  447.38   1-0.27379 0.82098 0.30431-0.49613 0.91237-0.28255
   4   3   9  343.27  174.29   1-0.40381 0.95119 0.45323-0.26131 0.79467-0.16414
  -4   3 -10  915.37  555.05   1 0.32222-0.88757 0.65266-0.46034-0.68571-0.01746
  -4  -3 -10  441.87  346.61   1 0.30739-0.87129 0.24886-0.44102-0.91846 0.21526
  -4   3 -10  208.96  215.67   1 0.41439-0.97846 0.34408-0.15193-0.84254 0.13974
   4  -3  10  237.33  232.47   1-0.27585 0.84079 0.30664-0.49846 0.91097-0.21117
   4   3  10  102.09  174.20   1-0.39683 0.96197 0.44529-0.25337 0.80264-0.10205
  -4  -4  12 1572.72  418.25   1-0.95938 0.78362-0.16678-0.08918 0.22752 0.61479
   4  -4 -12 3442.84  704.50   1 0.65156-0.47555 0.55884-0.81526-0.51298-0.33042
   4   4 -12 1268.65  494.07   1 0.74809-0.57257 0.65174-0.39535-0.12481-0.71822
  -4  -4  12 1748.31  492.52   1-0.55185 0.37658 0.62425-0.88018 0.55295 0.28887
  -4   4  12 1896.71  602.88   1-0.65653 0.48043 0.74551-0.48953 0.11478 0.72769
  -4  -4  11  959.04  266.43   1-0.97908 0.78568-0.11043-0.14553 0.17086 0.60126
   4  -4 -11  579.29  294.64   1 0.66698-0.47330 0.57295-0.82937-0.47629-0.29684
   4   4 -11 2470.06  746.99   1 0.75159-0.55840 0.65795-0.40180-0.04704-0.72576
  -4  -4  11 2356.86  566.90   1-0.56445 0.37148 0.63859-0.89453 0.52305 0.24862
  -4   4  11 1849.79  528.29   1-0.65962 0.46632 0.75059-0.49455 0.03878 0.73345
  -4  -4  10 1122.36  315.86   1-0.99233 0.78128-0.05227-0.20369 0.11193 0.58999
   4  -4 -10  958.26  379.95   1 0.68115-0.46980 0.58597-0.84239-0.43892-0.26391
   4   4 -10 1618.50  588.02   1 0.75122-0.54027 0.65905-0.40290 0.03620-0.73876
  -4  -4  10 1637.39  488.11   1-0.57582 0.36516 0.65155-0.90748 0.49386 0.20766
  -4   4  10 1941.20  656.63   1-0.65943 0.44844 0.75055-0.49451-0.04251 0.74455
  -4  -4   919629.59 1544.54   1-0.99862 0.77204 0.00458-0.26048 0.05222 0.57973
   4  -4  -917022.08  934.80   1 0.69413-0.46510 0.59795-0.85437-0.40078-0.23177
   4   4  -921886.28 1159.08   1 0.74503-0.51631 0.65511-0.39897 0.12548-0.75778
  -4  -4   918893.67  837.51   1-0.58598 0.35762 0.66312-0.91905 0.46571 0.16565
  -4   4   915891.30  927.52   1-0.65438 0.42569 0.74497-0.48893-0.12957 0.76140
  -4  -4   8 8638.18  944.30   1-0.99771 0.75317 0.06658-0.32247-0.01160 0.57335
  -4   4   8 8590.43  733.34   1-0.98155 0.73701 0.15840 0.09749-0.10705 0.66880
   4  -4  -8 9263.25  660.77   1 0.70595-0.45924 0.60894-0.86536-0.36169-0.20058
   4   4  -810856.73  985.74   1 0.73099-0.48425 0.64548-0.38947 0.22135-0.78345
  -4  -4   8 8832.22  558.03   1-0.59489 0.34883 0.67326-0.92919 0.43911 0.12210
  -4   4   8 9829.86  937.76   1-0.64275 0.39601 0.73286-0.47657-0.22312 0.78488
  -4  -4   7 3724.98  546.39   1-0.98844 0.72595 0.13019-0.38609-0.07761 0.56914
  -4   4   7 3702.51  534.64   1-0.91238 0.64980 0.31086-0.05484-0.26629 0.75811
   4  -4  -7 3531.90  462.05   1 0.71548-0.45127 0.61977-0.87617-0.32244-0.16933
   4   4  -7 2712.79  497.38   1 0.70832-0.44381 0.62726-0.37126 0.32375-0.81559
  -4  -4   7 3932.76  323.91   1-0.60245 0.33870 0.68186-0.93780 0.41485 0.07621
  -4   4   7 4222.12  651.49   1-0.62382 0.35942 0.71172-0.45543-0.32294 0.81448
  -4  -4   637222.06 2656.43   1-0.96995 0.68947 0.19557-0.45159-0.14472 0.56628
  -4   4   632758.91 1337.94   1-0.78775 0.50661 0.45185-0.19598-0.41865 0.83960
   4  -4  -636790.64 1264.98   1 0.72507-0.44313 0.62890-0.88530-0.28059-0.14092
   4   4  -641111.61 1580.77   1 0.67382-0.39183 0.59951-0.34349 0.43190-0.85350
  -4  -4   638821.63 1268.34   1-0.60846 0.32701 0.68870-0.94464 0.39427 0.02664
  -4   4   634173.90 1345.42   1-0.59501 0.31288 0.67985-0.42368-0.42867 0.85005
  -4  -4   5 8755.49 1144.22   1-0.94138 0.64301 0.26111-0.51713-0.21359 0.56488
  -4   4   5 8866.52  418.80   1-0.61936 0.32029 0.56588-0.30998-0.54420 0.89516
   4  -4  -5 9030.30  592.86   1 0.73362-0.43394 0.63716-0.89356-0.23624-0.11502
   4   4  -5 6938.85  631.65   1 0.62556-0.32576 0.55896-0.30295 0.54426-0.89559
  -4  -4   5 7978.54  411.80   1-0.61246 0.31332 0.69326-0.94920 0.37982-0.02905
  -4   4   5 7030.94  611.21   1-0.55447 0.25469 0.63409-0.37792-0.53896 0.89011
  -4  -4   431785.46 1096.06   1-0.90200 0.58574 0.32628-0.58230-0.28271 0.56375
  -4   4   439057.74 1241.28   1-0.42874 0.11156 0.64351-0.38727-0.63408 0.91518
   4  -4  -439276.32 1200.91   1 0.74113-0.42372 0.64457-0.90097-0.18771-0.09329
  -4   4   434149.51 1045.90   1 0.58435-0.90196 0.52397-0.26796 0.61966-0.33859
   4   4  -440592.02 1390.19   1 0.56089-0.24330 0.50422-0.24810 0.65662-0.93768
  -4  -4   439717.84 1181.64   1-0.61334 0.29650 0.69426-0.95019 0.37657-0.09596
   4   4  -435715.78 1093.67   1-0.57507 0.89251 0.65737-0.40120-0.48698 0.20605
  -4  -4   325502.65 1853.74   1-0.85120 0.51709 0.38973-0.64560-0.35149 0.56197
  -4   4   322778.25  813.10   1-0.24039-0.09470 0.68525-0.42892-0.68748 0.89836
   4  -4  -323137.46  696.51   1 0.74752-0.41237 0.65113-0.90753-0.13123-0.07952
  -4   4   320121.19  600.54   1 0.47922-0.81460 0.43408-0.17796 0.76283-0.55204
   4   4  -323296.64  923.01   1 0.47942-0.14403 0.43425-0.17813 0.76261-0.97340
  -4  -4   323715.97  666.69   1-0.60761 0.27308 0.68774-0.94368 0.39724-0.18678
   4   4  -321990.44  639.60   1-0.51137 0.84646 0.58530-0.32913-0.62921 0.41852
  -4   4   323223.89  903.45   1-0.42992 0.09476 0.49314-0.23693-0.75628 0.96689
  -4  -4   2 7748.97 1051.71   1-0.79015 0.43837 0.44976-0.70563-0.41637 0.55669
  -4   4   2 7946.76  542.74   1-0.07307-0.27965 0.69900-0.44267-0.71137 0.85195
   4  -4  -2 7337.17  293.75   1 0.75124-0.39815 0.65746-0.91360-0.05804-0.08247
   4   4  -2 8790.33  713.54   1 0.38251-0.02957 0.35115-0.09510 0.85461-0.99502
  -4  -4   2 7495.77  244.64   1-0.57814 0.22591 0.65419-0.91012 0.48762-0.34732
  -4  -4   1100790.8 2613.63   1-0.71998 0.35030 0.50493-0.76083-0.47608 0.54627
  -4   4   196542.39 2570.61   1 0.06518-0.43568 0.69598-0.43964-0.71509 0.78542
   4  -4  -194442.58 2256.24   1 0.21120 0.15952 0.16408-0.42030-0.96357 0.89325
   4  -4  -193105.28 2226.85   1 0.74925-0.37839 0.65798-0.91412 0.07533-0.14558
   4   4  -199280.84 2655.09   1 0.27672 0.09393 0.25906-0.00301 0.92536-0.99557
  -4  -4   0 1515.24  279.41   1-0.64344 0.25610 0.55284-0.80874-0.52947 0.52947
  -4   4   0 2683.99  403.11   1 0.17276-0.56097 0.68378-0.42744-0.70893 0.70893
  -4  -4   0 1900.97  248.42   1-0.16830-0.21925-0.16648-0.08926-0.97157 0.97157
   4  -4   0 1479.48   83.89   1 0.64259-0.25449 0.55067-0.80709-0.53275 0.53275
   4  -4   0 1513.02  116.13   1 0.67287-0.28401 0.59871-0.85472 0.43448-0.43448
   4  -4   0 1115.04  210.46   1 0.15568 0.22990-0.18355-0.07121 0.97060-0.97060
  -4  -4  -1100209.7 2591.88   1-0.56428 0.15928 0.59264-0.84854-0.57476 0.50457
  -4   4  -1103022.4 2734.79   1 0.25358-0.65956 0.66915-0.41272-0.69851 0.62820
  -4  -4  -1101425.9 3070.04   1-0.06682-0.33835-0.07965-0.17619-0.99458 0.92437
   4  -4   198801.09 2365.51   1 0.73332-0.32722 0.63687-0.89327-0.23794 0.30819
   4  -4   192785.53 2222.42   1 0.32426 0.08186 0.30051-0.55656 0.89696-0.82676
   4  -4   1100933.1 2654.84   1 0.06548 0.33787-0.08066-0.17410 0.99458-0.92494
  -4  -4  -244207.74 1414.08   1-0.48748 0.06418 0.62399-0.88023-0.61072 0.47017
  -4   4  -244796.14 1593.80   1 0.31215-0.73583 0.65531-0.39889-0.68783 0.54719
  -4  -4  -241823.31 1445.33   1 0.02158-0.44426-0.00260-0.25324-0.99976 0.85935
   4  -4   243674.78 1238.38   1 0.74744-0.32328 0.65302-0.90916-0.12199 0.26250
   4   4   243059.90 1213.75   1-0.04653 0.46895 0.04679 0.20849 0.99782-0.85825
   4  -4   247620.91 1535.42   1-0.01341 0.43584 0.00913-0.26441 0.99986-0.86030
  -4  -4  -241441.27 1156.21   1-0.61164 0.18832 0.69806-0.95434-0.37228 0.23184
  -4  -4  -3 5366.66  437.99   1-0.41610-0.02488 0.64727-0.90351-0.63866 0.42783
  -4   4  -3 4766.18  629.18   1 0.35294-0.79433 0.64403-0.38761-0.67871 0.46775
  -4  -4  -3 5011.69  789.31   1 0.09485-0.53504 0.06142-0.31727-0.99359 0.78298
  -4   4  -3 4876.25  582.93   1 0.21078-0.65175 0.16371 0.09250-0.96372 0.75276
   4  -4   3 4673.95  279.21   1 0.75144-0.30952 0.65774-0.91388-0.05193 0.26270
   4  -4   3 6696.16  753.58   1-0.07948 0.51978 0.08425-0.33953 0.99326-0.78392
   4   4   3 5425.77  441.02   1-0.26302 0.70369 0.29208-0.03632 0.91951-0.70957
  -4  -4  -3 3468.14  237.09   1-0.63373 0.19274 0.72281-0.97910-0.27554 0.06488
  -4  -4  -475306.51 1968.98   1-0.35391-0.10476 0.66365-0.91989-0.65902 0.37791
  -4   4  -476700.21 2204.11   1 0.37955-0.83865 0.63591-0.37948-0.67197 0.39070
  -4  -4  -475906.42 2185.19   1 0.15240-0.61093 0.11240-0.36862-0.98190 0.70062
  -4   4  -474156.53 1837.60   1 0.31648-0.77505 0.25735-0.00115-0.91302 0.63189
   4  -4   472673.37 2000.85   1-0.13248 0.59090 0.14395-0.39971 0.98067-0.70075
   4   4   473508.82 1753.99   1-0.35254 0.81110 0.39495-0.13906 0.84836-0.56813
  -4  -4  -462245.48 1527.96   1-0.63765 0.17901 0.72719-0.98348-0.25412-0.02675
  -4  -4  -529596.28 1142.28   1-0.30321-0.17291 0.67465-0.93097-0.67298 0.32152
  -4   4  -532043.28 1474.92   1 0.39480-0.87161 0.63097-0.37454-0.66783 0.31624
  -4  -4  -531311.65 2229.42   1 0.19695-0.67305 0.15155-0.40777-0.96862 0.61702
  -4   4  -527890.00 1034.47   1 0.37467-0.85082 0.30885-0.05265-0.87419 0.52279
   4  -4   533538.62 2102.60   1-0.17289 0.64907 0.18982-0.44557 0.96647-0.61657
   4   4   529911.29 1049.83   1-0.39432 0.87064 0.44244-0.18655 0.80545-0.45515
  -4  -4  -610923.65  671.56   1-0.26457-0.22919 0.68153-0.93786-0.68227 0.26052
  -4   4  -612409.40 1053.89   1 0.40077-0.89529 0.62898-0.37255-0.66614 0.24424
  -4  -4  -610704.59 1427.15   1 0.22996-0.72362 0.18059-0.43681-0.95629 0.53437
  -4   4  -610326.70  602.48   1 0.40671-0.90045 0.33726-0.08106-0.84901 0.42733
   4  -4   611449.74 1366.74   1-0.20284 0.69677 0.22380-0.47956 0.95329-0.53341
   4   4   610419.99  558.01   1-0.41432 0.90841 0.46517-0.20928 0.78226-0.36191
  -4  -4  -7  825.68  343.92   1-0.23839-0.27300 0.68553-0.94186-0.68789 0.19585
  -4   4  -7  825.90  520.89   1 0.39900-0.91122 0.62957-0.37315-0.66665 0.17442
  -4  -4  -7  353.56  338.16   1 0.25340-0.76462 0.20124-0.45746-0.94619 0.45395
  -4   4  -7  435.91  287.42   1 0.42313-0.93445 0.35184-0.09564-0.83496 0.34299
   4  -4   7  412.98  254.25   1-0.22412 0.73580 0.24794-0.50370 0.94249-0.45263
   4   4   7  130.83  191.37   1-0.42236 0.93421 0.47431-0.21841 0.77242-0.28200
  -4  -4  -8 4818.35  474.00   1-0.22440-0.30462 0.68745-0.94378-0.69068 0.12834
  -4   4  -8 5537.67  776.75   1 0.39058-0.92051 0.63236-0.37593-0.66900 0.10645
  -4  -4  -8 6004.22  953.83   1 0.26896-0.79774 0.21495-0.47117-0.93885 0.37629
  -4   4  -8 6155.18  570.78   1 0.42943-0.95833 0.35743-0.10124-0.82935 0.26710
   4  -4   8 4081.19  763.06   1-0.23827 0.76770 0.26400-0.51976 0.93462-0.37478
   4   4   8 6270.06  510.51   1-0.42295 0.95256 0.47498-0.21908 0.77168-0.21121
  -4   4  -9 4878.43  753.69   1 0.37627-0.92390 0.63694-0.38052-0.67284 0.03997
  -4  -4  -9 6738.43  857.09   1 0.27799-0.82433 0.22291-0.47914-0.93435 0.30147
  -4   4  -9 6753.03  615.10   1 0.42863-0.97512 0.35673-0.10053-0.83006 0.19753
   4  -4   9 5820.05 1011.40   1-0.24655 0.79373 0.27340-0.52915 0.92976-0.29994
   4   4   9 6231.72  530.39   1-0.41838 0.96576 0.46978-0.21389 0.77733-0.14680
   4  -5 -12 1744.64  479.65   1 0.62260-0.44659 0.53249-0.85302-0.57342-0.26999
   4   5 -12 2157.27  665.20   1 0.74937-0.57395 0.65516-0.33499-0.09584-0.74722
  -4  -5  12 2377.46  480.74   1-0.52310 0.34802 0.58983-0.90979 0.61519 0.22616
  -4   5  12 1256.98  464.65   1-0.65811 0.48251 0.74879-0.42874 0.07866 0.76377
  -4  -5  11 2943.24  450.68   1-0.97580 0.78240-0.12135-0.19860 0.18187 0.59025
   4  -5 -11 3268.67  509.08   1 0.63732-0.44364 0.54586-0.86639-0.54391-0.22921
   4   5 -11 4287.39  809.23   1 0.75206-0.55887 0.65889-0.33872-0.01589-0.75691
  -4  -5  11 2907.21  476.98   1-0.53443 0.34164 0.60271-0.92268 0.59254 0.17870
  -4   5  11 4353.83  663.46   1-0.66007 0.46678 0.75119-0.43114 0.00007 0.77215
  -4  -5  10 5792.90 1127.46   1-0.98956 0.77851-0.06744-0.25251 0.12734 0.57458
   4  -5 -10 3981.69  820.70   1 0.65062-0.43926 0.55799-0.87851-0.51510-0.18774
   4   5 -10 4179.96  568.30   1 0.74964-0.53868 0.65821-0.33804 0.06915-0.77171
  -4  -5  10 6421.32  593.72   1-0.54312 0.33246 0.61431-0.93423 0.57238 0.12913
  -4   5  10 6470.30  909.71   1-0.65770 0.44670 0.74865-0.42860-0.08330 0.78533
  -4  -5   9  887.97  302.12   1-0.99739 0.76870-0.01217-0.30778 0.07106 0.56068
   4  -5  -9 1491.32  492.44   1 0.66250-0.43347 0.56885-0.88938-0.48732-0.14523
   4   5  -9  656.25  503.07   1 0.74048-0.51151 0.65278-0.33277 0.15985-0.79222
  -4  -5   9  345.49  237.64   1-0.55113 0.32277 0.62343-0.94335 0.55459 0.07678
  -4   5   9 1066.42  475.73   1-0.65009 0.42139 0.74016-0.42011-0.17186 0.80369
  -4  -5   8 6726.82  990.48   1-0.99903 0.75449 0.04173-0.36160 0.01404 0.54770
   4  -5  -8 4896.81  787.41   1 0.67293-0.42622 0.57840-0.89893-0.46109-0.10118
   4   5  -8 4424.07  866.48   1 0.72429-0.47755 0.64017-0.32016 0.25609-0.81819
  -4  -5   8 4530.47  739.86   1-0.55711 0.31106 0.63025-0.95016 0.54074 0.02048
  -4   5   8 5375.57  992.93   1-0.63551 0.38877 0.72480-0.40444-0.26605 0.82781
  -4  -5   758664.16 2073.14   1-0.99395 0.73145 0.09974-0.41961-0.04595 0.53748
  -4   5   755455.81 1815.85   1-0.90982 0.64725 0.31475 0.00526-0.27043 0.76225
   4  -5  -754699.33 1915.70   1 0.68177-0.41739 0.58654-0.90707-0.43720-0.05478
   4   5  -757261.48 2226.48   1 0.69879-0.43429 0.61946-0.29945 0.35769-0.84953
  -4  -5   755218.00 1905.63   1-0.56052 0.29677 0.63412-0.95404 0.53263-0.04156
  -4   5   757477.69 2216.99   1-0.61354 0.34915 0.70019-0.37983-0.36509 0.85663
  -4  -5   611565.08 1393.97   1-0.98146 0.70101 0.15872-0.47859-0.10738 0.52870
  -4   5   6 9780.63  581.97   1-0.76134 0.48020 0.47377-0.15394-0.44259 0.86354
   4  -5  -613047.99  647.93   1 0.68878-0.40672 0.59300-0.91353-0.41703-0.00467
   4   5  -611893.89  947.39   1 0.66171-0.37972 0.58939-0.26937 0.46341-0.88501
  -4  -5   6 9982.74  467.90   1-0.56026 0.27882 0.63383-0.95375 0.53325-0.11233
  -4   5   611011.99  798.18   1-0.58186 0.29974 0.66503-0.34482-0.46813 0.88952
  -4  -5   518772.86 1441.21   1-0.96106 0.66270 0.21867-0.53869-0.16892 0.52022
  -4   5   517963.66  669.54   1-0.56681 0.26774 0.59150-0.27162-0.57344 0.92440
   4  -5  -518557.45  739.81   1 0.69339-0.39366 0.59727-0.91780-0.40307 0.05165
   4   5  -523200.19 1105.09   1 0.61175-0.31195 0.54726-0.22725 0.57118-0.92251
  -4  -5   518969.51  686.61   1-0.55403 0.25489 0.62673-0.94665 0.54795-0.19719
  -4   5   520451.90  988.11   1-0.53924 0.23946 0.61686-0.29664-0.57332 0.92447
  -4  -5   445152.32 1567.84   1-0.93219 0.61593 0.27815-0.59818-0.23159 0.51263
  -4   5   447433.74 1499.81   1-0.35863 0.04145 0.66252-0.34223-0.65759 0.93870
   4  -5  -444136.44 1361.77   1 0.69421-0.37681 0.59803-0.91856-0.40052 0.11938
  -4   5   439479.54 1205.00   1 0.61215-0.92976 0.54760-0.22758 0.57043-0.28937
   4   5  -444486.84 1553.21   1 0.54712-0.22953 0.49244-0.17229 0.67686-0.95792
  -4  -5   444348.03 1330.53   1-0.53752 0.22075 0.60622-0.92618 0.58614-0.30568
   4   5  -436625.97 1128.28   1-0.60437 0.92174 0.68988-0.36952-0.39847 0.11759
  -4   5   444019.38 1566.32   1-0.48391 0.16637 0.55448-0.23422-0.67703 0.95784
  -4  -5   3 4200.51  651.89   1-0.89459 0.56044 0.33668-0.65671-0.29382 0.50460
  -4   5   3 4660.64  449.31   1-0.16455-0.17054 0.69402-0.37361-0.70089 0.91177
   4  -5  -3 5259.69  268.65   1 0.68691-0.35183 0.59128-0.91181-0.42252 0.21167
  -4   5   3 4038.38  246.56   1 0.50950-0.84489 0.46015-0.14001 0.72708-0.51629
   4   5  -3 5014.50  457.74   1 0.46832-0.13294 0.42468-0.10453 0.77480-0.98559
  -4  -5   3 4821.49  232.25   1-0.48956 0.15507 0.55171-0.87168 0.67523-0.46489
   4   5  -3 4168.50  252.86   1-0.55699 0.89208 0.63694-0.31673-0.53297 0.32228
  -4   5   3 5739.68  684.93   1-0.41636 0.08119 0.47772-0.15746-0.77357 0.98418
  -4  -5   231897.56 2292.46   1-0.84822 0.49644 0.39302-0.71285-0.35503 0.49535
  -4   5   228551.16 1055.87   1 0.00027-0.35307 0.69937-0.37895-0.71475 0.85541
   4  -5  -229117.86  825.64   1 0.64904-0.29629 0.55655-0.87708-0.51863 0.37806
   4   5  -230327.63 1223.47   1 0.37707-0.02413 0.34643-0.02636 0.85895-0.99936
  -4  -5   227490.68  760.02   1-0.30489-0.04708 0.34079-0.66066 0.88932-0.74920
  -4  -5   120292.49 1742.08   1-0.79432 0.42489 0.44608-0.76591-0.41237 0.48253
  -4   5   119013.85  819.18   1 0.13063-0.50114 0.68954-0.36912-0.71236 0.78268
   4   5  -118375.15  817.44   1 0.27942 0.09124 0.26142 0.05864 0.92389-0.99410
  -4  -5   046225.16 1445.90   1-0.73430 0.34695 0.49471-0.81459-0.46481 0.46481
  -4   5   048758.41 1617.30   1 0.22995-0.61822 0.67397-0.35343-0.70205 0.70205
  -4  -5   045300.29 1427.58   1-0.17995-0.20760-0.17659-0.14308-0.96769 0.96769
   4  -5   043462.12 1386.43   1 0.16445 0.22114-0.19355-0.12490 0.96720-0.96720
  -4  -5  -1 8887.13  478.11   1-0.67043 0.26543 0.53713-0.85701-0.51186 0.44167
  -4   5  -1 9940.82  745.60   1 0.30307-0.70905 0.65764-0.33710-0.68967 0.61935
  -4  -5  -111442.89 1249.16   1-0.08725-0.31785-0.09606-0.22362-0.99154 0.92139
   4  -5   110681.13  877.88   1 0.08288 0.32048-0.10050-0.21796 0.99147-0.92183
  -4  -5  -2 1573.57  385.43   1-0.60584 0.18319 0.57283-0.89271-0.55209 0.41171
  -4   5  -2  -98.16  483.63   1 0.35536-0.77904 0.64332-0.32278-0.67812 0.53748
  -4   5  -2  336.16   61.48   1-0.13048-0.29217-0.13364 0.45333-0.98240 0.84209
  -4  -5  -2 1749.89  317.51   1-0.00443-0.41824-0.02530-0.29451-0.99967 0.85926
   4  -5   2 1067.04  100.82   1 0.68883-0.26434 0.61196-0.93197 0.38860-0.24806
   4  -5   2 1602.86  323.79   1 0.01067 0.41174-0.01827-0.30082 0.99977-0.86021
  -4  -5  -327217.52  918.36   1-0.54468 0.10370 0.60148-0.92178-0.58440 0.37357
  -4   5  -326670.93 1147.38   1 0.39122-0.83261 0.63215-0.31161-0.66882 0.45786
  -4  -5  -329482.94 2554.16   1 0.06489-0.50508 0.03522-0.35504-0.99726 0.78665
  -4   5  -324624.70  780.48   1 0.17607-0.61704 0.13319 0.18707-0.97532 0.76436
   4  -5   323193.57  633.90   1 0.72206-0.27992 0.63839-0.95839 0.26661-0.05582
   4  -5   325824.76 1376.19   1-0.05103 0.49132 0.05190-0.37100 0.99734-0.78800
   4   5   325190.14  697.32   1-0.26432 0.70499 0.29356 0.02613 0.91867-0.70873
  -4  -5  -323233.89  608.92   1-0.51126 0.07024 0.58517-0.90538-0.62942 0.41873
  -4  -5  -4 1038.79  316.46   1-0.48877 0.03010 0.62352-0.94382-0.61016 0.32906
  -4   5  -4 2174.67  878.06   1 0.41410-0.87320 0.62442-0.30389-0.66227 0.38100
  -4  -5  -4 1114.31  259.17   1 0.12111-0.57881 0.08439-0.40421-0.98904 0.70822
  -4   5  -4  579.58  129.53   1 0.31068-0.76925 0.25223 0.06801-0.91643 0.63531
   4  -5   4 1517.09  353.20   1-0.10127 0.55943 0.10902-0.42812 0.98886-0.70974
   4   5   4 1116.08  128.28   1-0.37106 0.82963 0.41601-0.09614 0.83020-0.54996
  -4  -5  -516513.46  918.75   1-0.44128-0.03507 0.63963-0.95993-0.62939 0.27800
  -4   5  -519253.14 1469.70   1 0.42659-0.90339 0.62000-0.29946-0.65849 0.30690
  -4  -5  -517630.76 1633.50   1 0.16444-0.64053 0.12297-0.44324-0.97869 0.62709
  -4   5  -517141.50  885.38   1 0.37758-0.85373 0.31143 0.00881-0.87203 0.52062
   4  -5   517143.64 1816.84   1-0.14127 0.61745 0.15393-0.47363 0.97792-0.62802
   4   5   517492.49  874.73   1-0.41341 0.88973 0.46413-0.14426 0.78337-0.43307
  -4  -5  -6 1059.62  304.87   1-0.40396-0.09008 0.65074-0.97104-0.64291 0.22125
  -4   5  -6 1074.51  682.80   1 0.43057-0.92508 0.61856-0.29802-0.65725 0.23534
  -4  -5  -6  739.82  185.15   1 0.19779-0.69145 0.15228-0.47256-0.96834 0.54642
  -4   5  -6  862.36  263.32   1 0.41228-0.90602 0.34221-0.02196-0.84433 0.42265
   4  -5   6  657.53  326.38   1-0.17141 0.66534 0.18814-0.50783 0.96706-0.54718
   4   5   6   84.56  111.29   1-0.43217 0.92606 0.48649-0.16653 0.75930-0.33862
  -4  -5  -7  364.07  197.01   1-0.37786-0.13386 0.65775-0.97805-0.65159 0.15966
  -4   5  -7 1739.43  860.97   1 0.42742-0.93964 0.61970-0.29916-0.65823 0.16601
  -4  -5  -7  954.16  347.15   1 0.22209-0.73331 0.17366-0.49394-0.95943 0.46719
  -4   5  -7  105.24  153.61   1 0.42926-0.94058 0.35729-0.03704-0.82950 0.33753
   4  -5   7  306.63  210.34   1-0.19345 0.70513 0.21315-0.53285 0.95767-0.46781
   4   5   7  364.58  163.70   1-0.43813 0.94974 0.49327-0.17330 0.75147-0.26068
  -4   5  -8 3846.41  751.38   1 0.41812-0.94804 0.62301-0.30248-0.66107 0.09853
  -4  -5  -8 3275.48  422.41   1 0.23877-0.76755 0.18835-0.50862-0.95263 0.39007
   4  -5   8 3332.54  653.30   1-0.20866 0.73810 0.23041-0.55011 0.95045-0.39061
  -4   5  -9 3178.04  804.38   1 0.40332-0.95096 0.62812-0.30759-0.66542 0.03255
  -4  -5  -9 2239.54  648.20   1 0.24903-0.79537 0.19738-0.51766-0.94816 0.31528
   4  -5   9 1059.45  327.35   1-0.21812 0.76531 0.24114-0.56084 0.94565-0.31584
  -4  -6  11 2806.75  519.87   1-0.97141 0.77801-0.13479-0.24916 0.19540 0.57672
   4  -6 -11 2439.27  475.86   1 0.60307-0.40840 0.51378-0.89813-0.61018-0.16295
   4   6 -11 2304.18  621.79   1 0.75190-0.55872 0.65919-0.27498 0.00962-0.78244
  -4  -6  11 1110.25  371.28   1-0.49837 0.30558 0.56172-0.94568 0.66036 0.11088
  -4   6  11 2708.49  659.02   1-0.65969 0.46639 0.75082-0.36676-0.03272 0.80496
  -4  -6  10 1219.45  497.67   1-0.98580 0.77475-0.08478-0.29916 0.14493 0.55700
   4  -6 -10 1143.18  329.73   1 0.61453-0.40226 0.52413-0.90849-0.58960-0.11325
   4   6 -10 3716.20  685.29   1 0.74776-0.53680 0.65701-0.27280 0.09582-0.79838
  -4  -6  10 1325.45  378.12   1-0.50564 0.29514 0.56999-0.95395 0.64763 0.05350
  -4   6  10 1829.18  681.56   1-0.65540 0.44440 0.74610-0.36204-0.11737 0.81940
  -4  -6   9 1716.29  448.82   1-0.99507 0.76637-0.03383-0.35012 0.09315 0.53858
   4  -6  -9 1066.94  377.07   1 0.62278-0.39375 0.53265-0.91729-0.57308-0.05948
   4   6  -9 3845.40 1012.58   1 0.73664-0.50767 0.64986-0.26585 0.18714-0.81950
  -4  -6   9 1345.04  395.95   1-0.51037 0.28216 0.57537-0.95933 0.63910-0.00808
  -4   6   9 2010.08  786.36   1-0.64515 0.41607 0.73552-0.35109-0.20683 0.83881
  -4  -6   8 8010.09 1248.22   1-0.99903 0.75450 0.01555-0.39939 0.04097 0.52077
   4  -6  -8 8286.38  525.72   1 0.62983-0.38312 0.53905-0.92369-0.55922-0.00305
   4   6  -8 7099.72  846.58   1 0.71839-0.47165 0.63543-0.25142 0.28307-0.84517
  -4  -6   8 7261.96  494.31   1-0.51187 0.26594 0.57707-0.96102 0.63637-0.07546
  -4   6   8 8194.03  797.85   1-0.62875 0.38201 0.71724-0.33281-0.30038 0.86214
  -4  -6   7  317.44  215.69   1-0.99756 0.73506 0.06845-0.45229-0.01354 0.50507
  -4   6   7  113.10   54.77   1-0.91483 0.65226 0.30706 0.07696-0.26225 0.75407
   4  -6  -7  861.33  326.96   1 0.63386-0.36948 0.54272-0.92735-0.55106 0.05906
   4   6  -7  454.58  471.61   1 0.69094-0.42643 0.61298-0.22897 0.38321-0.87505
  -4  -6   7  515.64  259.28   1-0.50887 0.24523 0.57366-0.95762 0.64183-0.15103
  -4   6   7   87.07  486.25   1-0.60459 0.34019 0.69012-0.30569-0.39773 0.88927
  -4  -6   654698.45 2277.76   1-0.99012 0.70967 0.12199-0.50584-0.06908 0.49039
   4  -6  -658760.96 1977.42   1 0.63359-0.35154 0.54248-0.92711-0.55160 0.12989
   4   6  -659257.61 2210.11   1 0.65235-0.37036 0.58154-0.19752 0.48604-0.90764
  -4  -6   654254.57 1822.72   1-0.49901 0.21766 0.56245-0.94641 0.65926-0.23858
  -4   6   659957.14 2259.32   1-0.57114 0.28902 0.65293-0.26867-0.49746 0.91884
  -4  -6   5 1132.30  300.39   1-0.97645 0.67809 0.17618-0.56020-0.12447 0.47577
  -4   6   5  578.59  214.47   1-0.51715 0.21765 0.61277-0.22842-0.59753 0.94892
   4   6  -5  427.92  472.52   1 0.60193-0.30213 0.53893-0.15491 0.58926-0.94059
  -4  -6   5  353.47  182.76   1-0.47731 0.17825 0.53779-0.92175 0.69494-0.34437
  -4   6   5 1296.87  551.77   1-0.52770 0.22792 0.60380-0.21954-0.59745 0.94860
  -4  -6   444227.33 2786.45   1-0.95622 0.63996 0.23004-0.61407-0.18086 0.46190
  -4   6   438602.96 1088.04   1-0.29496-0.02250 0.67622-0.29173-0.67506 0.95623
   4  -6  -438172.21  992.81   1 0.60660-0.28878 0.51697-0.90132-0.60395 0.32281
  -4   6   436818.76  955.97   1 0.63473-0.95234 0.56670-0.18269 0.52531-0.24424
   4   6  -440241.19 1371.35   1 0.53851-0.22091 0.48506-0.10088 0.68900-0.97006
  -4  -6   442078.62 1061.24   1-0.43185 0.11508 0.48613-0.87009 0.75971-0.47926
   4   6  -433828.16  911.74   1-0.62612 0.94349 0.71430-0.32987-0.31264 0.03176
  -4   6   445249.32 1520.07   1-0.47316 0.15562 0.54227-0.15797-0.69429 0.97510
  -4  -6   316242.36 1276.12   1-0.92929 0.59514 0.28327-0.66729-0.23701 0.44779
  -4   6   315835.78  685.46   1-0.09954-0.23555 0.69817-0.31368-0.70896 0.91984
   4  -6  -315744.03  529.34   1 0.54719-0.21178 0.46350-0.84785-0.69694 0.48609
  -4   6   314054.08  487.89   1 0.53420-0.86958 0.48136-0.09718 0.69492-0.48412
   4   6  -313675.29  784.68   1 0.46311-0.12773 0.42019-0.03601 0.78035-0.99115
  -4  -6   315837.69  509.21   1-0.32827-0.00595 0.36736-0.75120 0.87021-0.66004
   4   6  -314191.25  504.44   1-0.59502 0.93011 0.67987-0.29562-0.42862 0.21792
  -4   6   312550.50  783.11   1-0.40856 0.07339 0.46884-0.08453-0.78311 0.99371
  -4  -6   2 9519.51 1038.36   1-0.89572 0.54368 0.33513-0.71916-0.29216 0.43268
  -4   6   2 6972.87  516.10   1 0.05985-0.41264 0.69637-0.31186-0.71518 0.85584
   4  -6  -2 8561.36  279.57   1-0.09041 0.44307-0.10017-0.28359-0.99085 0.85044
   4   6  -2 8502.15  766.03   1 0.37752-0.02459 0.34683 0.03725 0.85859-0.99900
  -4  -6   2 8347.72  284.06   1 0.03498-0.38593-0.04592-0.33699 0.99833-0.85877
  -4  -6   166860.97 2120.70   1-0.85587 0.48644 0.38449-0.76829-0.34587 0.41603
  -4   6   165164.01 2080.89   1 0.18225-0.55275 0.68230-0.29780-0.70798 0.77831
   4   6  -162823.21 2032.31   1 0.28721 0.08345 0.26821 0.11586 0.91954-0.98975
  -4  -6   018370.44 1863.59   1-0.81098 0.42389 0.43083-0.81463-0.39582 0.39582
  -4   6   018320.76  951.71   1 0.27381-0.66208 0.66468-0.28004-0.69514 0.69514
  -4  -6   018666.21  773.99   1-0.19549-0.19206-0.19007-0.19354-0.96210 0.96210
   4  -6   019871.25  848.03   1 0.17660 0.20899-0.20741-0.17473 0.96217-0.96217
  -4  -6  -1 7019.30  920.16   1-0.76235 0.35760 0.47297-0.85677-0.44171 0.37155
  -4   6  -1 8525.87  906.01   1 0.34039-0.74637 0.64765-0.26301-0.68166 0.61134
  -4  -6  -1 7238.33 1054.42   1-0.10978-0.29532-0.11565-0.26796-0.98720 0.91704
   4  -6   1 8266.42  541.98   1 0.10219 0.30116-0.12252-0.25962 0.98718-0.91754
  -4  -6  -2 5340.67  446.11   1-0.71227 0.28962 0.51025-0.89411-0.48197 0.34159
  -4   6  -2 4187.18  602.19   1 0.38754-0.81123 0.63335-0.24871-0.66983 0.52919
  -4  -6  -2 3747.13  497.60   1-0.03227-0.39040-0.04957-0.33420-0.99824 0.85784
   4  -6   2 5164.07  586.20   1 0.03567 0.38675-0.04671-0.33621 0.99827-0.85870
  -4  -6  -3 3511.49  308.46   1-0.66282 0.22252 0.54168-0.92553-0.51695 0.30637
  -4   6  -3 2519.14  613.29   1 0.41953-0.86092 0.62252-0.23788-0.66065 0.44969
  -4  -6  -3 5341.02  855.33   1 0.03355-0.47374 0.00784-0.39162-0.99940 0.78879
  -4   6  -3 2483.38  366.25   1 0.08270-0.52289 0.05078 0.33298-0.99527 0.78466
   4  -6   3 4627.70  547.47   1-0.02220 0.46249 0.01911-0.40204 0.99957-0.79022
   4   6   3 2546.61  305.60   1-0.23648 0.67715 0.26197 0.12165 0.93564-0.72571
  -4  -6  -430073.58 1112.12   1-0.61677 0.15881 0.56723-0.95108-0.54573 0.26497
  -4   6  -429604.96 1349.34   1 0.43956-0.89865 0.61525-0.23061-0.65440 0.37313
  -4  -6  -433032.97 1469.11   1 0.08791-0.54561 0.05535-0.43912-0.99458 0.71377
  -4   6  -428902.61  968.41   1 0.28734-0.74587 0.23116 0.15316-0.92951 0.64823
   4  -6   431437.50 2625.77   1-0.07026 0.52842 0.07377-0.45669 0.99479-0.71567
   4   6   428890.20  953.16   1-0.38411 0.84267 0.43084-0.04700 0.81659-0.53636
  -4  -6  -5 9638.93  541.74   1-0.57660 0.10099 0.58701-0.97086-0.56828 0.21732
  -4   6  -510899.50  966.65   1 0.45000-0.92681 0.61131-0.22667-0.65099 0.29940
  -4  -6  -5 9558.85 1059.33   1 0.13062-0.60671 0.09328-0.47761-0.98703 0.63543
  -4   6  -5 9572.49  513.34   1 0.37097-0.84713 0.30557 0.07871-0.87692 0.52552
   4  -6   511177.07 1178.85   1-0.10890 0.58493 0.11768-0.50060 0.98706-0.63815
  -4  -6  -614150.65  968.77   1-0.54573 0.05168 0.60103-0.98539-0.58388 0.16222
  -4   6  -615990.73 1302.57   1 0.45257-0.94708 0.61032-0.22568-0.65013 0.22822
  -4  -6  -611695.50 1347.77   1 0.16420-0.65786 0.12276-0.50709-0.97875 0.55683
   4  -6   615298.27 1639.95   1-0.13944 0.63337 0.15186-0.53549 0.97851-0.55863
  -4   6  -7 5700.20  935.37   1 0.44850-0.96072 0.61188-0.22724-0.65149 0.15926
  -4  -6  -7 4913.36  803.23   1 0.18924-0.70046 0.14477-0.52910-0.97119 0.47896
   4  -6   7 3397.71  829.37   1-0.16205 0.67373 0.17751-0.56115 0.97068-0.48082
  -4   6  -8  478.31  491.45   1 0.43866-0.96859 0.61558-0.23094-0.65469 0.09215
  -4  -6  -8  987.81  464.92   1 0.20693-0.73571 0.16033-0.54466-0.96512 0.40256
   4  -6   8  211.77  257.19   1-0.17814 0.70757 0.19577-0.57941 0.96433-0.40449
  -4   6  -9 1333.56  523.42   1 0.42365-0.97128 0.62105-0.23641-0.65939 0.02653
  -4  -6  -9 1909.23  579.01   1 0.21833-0.76467 0.17035-0.55468-0.96088 0.32801
   4  -6   9 1373.15  449.04   1-0.18863 0.73582 0.20768-0.59131 0.95983-0.33001
  -4  -7  11 1357.57  487.67   1-0.96583 0.77243-0.15037-0.29757 0.21106 0.56106
   4  -7 -11 1375.52  452.26   1 0.56185-0.36718 0.47666-0.92507-0.67610-0.09703
   4   7 -11 2163.17  677.50   1 0.75144-0.55825 0.65913-0.21088 0.02960-0.80241
  -4  -7  11 2160.40  456.99   1-0.45748 0.26469 0.51525-0.96320 0.72471 0.04653
  -4   7  11  937.31  493.13   1-0.65884 0.46554 0.74990-0.30183-0.05972 0.83196
  -4  -7  10 1139.71  372.32   1-0.98090 0.76985-0.10398-0.34396 0.16434 0.53759
   4  -7 -10 1015.06  414.88   1 0.57045-0.35819 0.48439-0.93280-0.66327-0.03957
   4   7 -10 1302.36  685.02   1 0.74593-0.53498 0.65575-0.20751 0.11642-0.81898
  -4  -7  10 1132.10  351.10   1-0.46153 0.25103 0.51986-0.96781 0.71883-0.01769
  -4   7  10  811.67  622.01   1-0.65296 0.44196 0.74338-0.29531-0.14499 0.84702
  -4  -7   9 3905.71 1026.70   1-0.99152 0.76283-0.05698-0.39096 0.11672 0.51501
   4  -7  -9 3643.62  784.45   1 0.57610-0.34624 0.48947-0.93788-0.65461 0.02204
   4   7  -9 5927.62  787.54   1 0.73334-0.50437 0.64731-0.19930 0.20780-0.84017
  -4  -7   9 5430.12  520.75   1-0.46202 0.23381 0.52042-0.96837 0.71811-0.08709
  -4   7   9 6426.47  824.70   1-0.64098 0.41190 0.73089-0.28239-0.23438 0.86636
  -4  -7   8 6175.75  853.99   1-0.99762 0.75127-0.00946-0.43848 0.06828 0.49326
   4  -7  -8 7684.16  663.84   1 0.57795-0.33050 0.49114-0.93955-0.65172 0.08943
   4   7  -8 8063.54  974.86   1 0.71365-0.46691 0.63160-0.18359 0.30293-0.86503
  -4  -7   8 5815.09  514.65   1-0.45778 0.21185 0.51559-0.96354 0.72429-0.16338
  -4   7   8 6676.60  808.23   1-0.62291 0.37618 0.71070-0.26220-0.32691 0.88867
  -4  -7   7 1221.98  503.98   1-0.99914 0.73665 0.03644-0.48426 0.01948 0.47204
   4  -7  -7  830.88  286.07   1 0.57452-0.30948 0.48805-0.93647-0.65705 0.16505
   4   7  -7 2741.88  802.90   1 0.68503-0.42052 0.60808-0.16007 0.40120-0.89304
  -4  -7   7 1162.02  318.38   1-0.44676 0.18312 0.50307-0.95103 0.73980-0.24900
  -4   7   7 1938.79  817.68   1-0.59733 0.33294 0.68195-0.23345-0.42205 0.91359
  -4  -7   614194.54 1729.25   1-0.99591 0.71546 0.08496-0.53278-0.03062 0.45194
  -4   7   610274.33  540.83   1-0.72108 0.43966 0.50416-0.05634-0.47524 0.89639
   4  -7  -610430.77  664.53   1 0.56290-0.28027 0.47761-0.92602-0.67455 0.25283
   4   7  -610210.90  936.44   1 0.64585-0.36386 0.57607-0.12805 0.50100-0.92260
  -4  -7   610984.22  621.73   1-0.42525 0.14390 0.47862-0.92657 0.76816-0.34748
  -4   7   612018.57 1181.89   1-0.56302 0.28090 0.64376-0.19546-0.51823 0.93962
  -4  -7   519675.97 2239.14   1-0.98770 0.68930 0.13358-0.58140-0.08114 0.43224
  -4   7   519395.61  732.50   1-0.47328 0.17378 0.62903-0.18061-0.61669 0.96807
   4  -7  -517588.56  732.31   1 0.53684-0.23661 0.45421-0.90262-0.71097 0.35954
   4   7  -517591.19  928.88   1 0.59590-0.29609 0.53380-0.08578 0.59996-0.95129
  -4  -7   518463.19  700.54   1-0.38687 0.08817 0.43397-0.88178 0.81363-0.46333
  -4   7   519976.69 1239.21   1-0.51972 0.21994 0.59476-0.14646-0.61330 0.96445
  -4  -7   422975.72 1670.38   1-0.97454 0.65828 0.18214-0.63018-0.13069 0.41173
  -4   7   418048.06  692.37   1-0.24079-0.07667 0.68519-0.23662-0.68740 0.96857
   4  -7  -417118.77  573.48   1 0.48033-0.16250 0.40367-0.85209-0.77866 0.49752
   4   7  -417933.36 1108.12   1 0.53445-0.21686 0.48158-0.03337 0.69456-0.97563
  -4  -7   418027.78  609.66   1-0.31330-0.00315 0.35035-0.79817 0.88265-0.60242
  -4   7   420081.28 1136.09   1-0.46676 0.14922 0.53501-0.08665-0.70419 0.98499
  -4  -7   357825.90 1759.97   1-0.95626 0.62211 0.22995-0.67798-0.18076 0.39154
  -4   7   358338.55 1585.14   1-0.04588-0.28920 0.69998-0.25139-0.71268 0.92366
   4  -7  -354224.95 1269.23   1 0.33877-0.00329 0.27706-0.72541-0.89914 0.68830
   4   7  -359669.37 1814.10   1 0.46284-0.12746 0.41995 0.02824 0.78064-0.99144
  -4  -7   357114.02 1384.13   1-0.16384-0.17030 0.17955-0.62712 0.97000-0.76006
   4   7  -351730.14 1254.87   1-0.62296 0.95799 0.71076-0.26226-0.32668 0.11602
  -4   7   356325.30 1758.96   1-0.40549 0.07032 0.46535-0.01700-0.78677 0.99737
  -4  -7   226277.27  877.82   1-0.93304 0.58100 0.27664-0.72467-0.22999 0.37051
  -4   7   224890.51  900.25   1 0.10609-0.45889 0.69231-0.24372-0.71375 0.85440
   4   7  -226540.58 1211.72   1 0.38271-0.02978 0.35133 0.09675 0.85445-0.99486
  -4  -7   150630.04 1474.34   1-0.90521 0.53528 0.32162-0.76965-0.27774 0.34800
  -4   7   147808.45 1434.64   1 0.22111-0.59167 0.67566-0.22692-0.70326 0.77358
   4   7  -146894.40 1466.80   1 0.29901 0.07165 0.27850 0.16958 0.91270-0.98290
  -4  -7   029499.59 1907.14   1-0.87338 0.48629 0.36383-0.81160-0.32375 0.32375
  -4   7   028401.93 1087.73   1 0.30582-0.69408 0.65694-0.20820-0.68912 0.68912
   4  -7   027930.35  962.18   1 0.19130 0.19428-0.22420-0.22163 0.95557-0.95557
  -4  -7  -152253.12 2008.30   1-0.83874 0.43399 0.40319-0.85096-0.36597 0.29581
  -4   7  -151213.13 1807.17   1 0.36706-0.77304 0.63980-0.19105-0.67521 0.60489
   4  -7   154871.17 1778.97   1 0.12298 0.28037-0.14623-0.29960 0.98157-0.91193
  -4  -7  -2 7672.72  902.74   1-0.80253 0.38013 0.43868-0.88644-0.40433 0.26401
  -4   7  -2 8903.80  862.50   1 0.41018-0.83387 0.62578-0.17703-0.66343 0.52279
  -4  -7  -2 7410.81  905.57   1-0.06161-0.36106-0.07512-0.37261-0.99526 0.85486
   4  -7   2 9446.15  997.81   1 0.06074 0.36038-0.07526-0.37058 0.99531-0.85602
  -4  -7  -351206.74 2787.66   1-0.76651 0.32644 0.46964-0.91740-0.43806 0.22758
  -4   7  -355315.26 2785.16   1 0.43922-0.88061 0.61537-0.16663-0.65451 0.44356
  -4  -7  -359127.90 3129.02   1 0.00104-0.44123-0.02052-0.42721-0.99978 0.78917
   4  -7   357717.64 3524.18   1 0.00693 0.43335-0.01401-0.43272 0.99987-0.79053
  -4  -7  -4 3483.25  564.19   1-0.73307 0.27511 0.49561-0.94343-0.46580 0.18503
  -4   7  -4 4352.75 1008.45   1 0.45726-0.91604 0.60826-0.15959-0.64878 0.36796
  -4  -7  -4 4532.99  893.12   1 0.05363-0.51133 0.02538-0.47312-0.99823 0.71742
   4  -7   4 4959.10 1079.30   1-0.03906 0.49722 0.03829-0.48503 0.99850-0.71938
  -4  -7  -5 9152.04  662.66   1-0.70364 0.22802 0.51607-0.96390-0.48841 0.13745
  -4   7  -511492.05 1147.65   1 0.46619-0.94276 0.60474-0.15607-0.64571 0.29468
  -4  -7  -5 9905.20 1322.79   1 0.09642-0.57162 0.06279-0.51053-0.99335 0.64233
   4  -7   5 9690.26 1117.11   1-0.07672 0.55275 0.08111-0.52786 0.99374-0.64484
  -4   7  -613014.75  965.01   1 0.46776-0.96212 0.60411-0.15544-0.64516 0.22393
  -4  -7  -610996.81 1616.75   1 0.12934-0.62300 0.09217-0.54055-0.98730 0.56538
   4  -7   6 8295.10 1295.33   1-0.10663 0.60053 0.11511-0.56185 0.98761-0.56892
  -4   7  -7  352.43  476.01   1 0.46309-0.97525 0.60597-0.15730-0.64678 0.15535
  -4  -7  -7 1226.05  448.48   1 0.15499-0.66621 0.11467-0.56306-0.98123 0.48899
   4  -7   7  224.82  309.82   1-0.13001 0.64169 0.14115-0.58873 0.98141-0.49155
  -4   7  -8 3400.32  845.73   1 0.45308-0.98301 0.61012-0.16138-0.64996 0.08742
  -4  -7  -8 2294.70  519.06   1 0.17358-0.70236 0.13100-0.57939-0.97606 0.41350
   4  -7   8 2232.69  533.92   1-0.14681 0.67624 0.16022-0.60779 0.97610-0.41626
  -4  -8  10 5068.86  787.72   1-0.97472 0.76367-0.12477-0.38717 0.18531 0.51662
   4  -8 -10 4532.93  706.90   1 0.51949-0.30723 0.43867-0.95114-0.73327 0.03041
   4   8 -10 6957.20 1168.95   1 0.74443-0.53347 0.65468-0.14240 0.13118-0.83374
  -4  -8  10 7279.30 1031.25   1-0.41312 0.20324 0.46380-0.97559 0.78371-0.08312
  -4   8  10 5603.20  917.22   1-0.65070 0.43970 0.74085-0.22877-0.16648 0.86851
  -4  -8   9 5377.31  993.66   1-0.98657 0.75787-0.08144-0.43049 0.14154 0.49019
   4  -8  -9 5772.45  661.51   1 0.52012-0.29026 0.43924-0.95171-0.73248 0.09991
  -4  -8   9 6849.17  714.32   1-0.40875 0.18110 0.45884-0.97062 0.78891-0.15838
  -4   8   9 5161.22  888.68   1-0.63745 0.40837 0.72696-0.21438-0.25530 0.88727
  -4  -8   8 4429.50 1002.41   1-0.99453 0.74818-0.03791-0.47403 0.09731 0.46423
   4  -8  -8 6345.89  566.84   1 0.51511-0.26766 0.43475-0.94722-0.73867 0.17639
   4   8  -8 3462.29  874.66   1 0.71029-0.46355 0.62887-0.11686 0.31622-0.87832
  -4  -8   8 4969.88  456.60   1-0.39808 0.15267 0.44671-0.95850 0.80123-0.24076
  -4   8   8 4663.80  825.19   1-0.61828 0.37154 0.70551-0.19293-0.34638 0.90814
  -4  -8   7 8609.37 1497.61   1-0.99858 0.73609 0.00382-0.51561 0.05300 0.43852
   4  -8  -710652.36  777.37   1 0.50190-0.23686 0.42294-0.93542-0.75445 0.26245
   4   8  -712125.22 1029.18   1 0.68081-0.41663 0.60532-0.09329 0.41240-0.90427
  -4  -8   710170.75  733.35   1-0.37840 0.11523 0.42434-0.93613 0.82264-0.33223
  -4   8   710153.30 1002.35   1-0.59170 0.32723 0.67612-0.16378-0.43902 0.93064
  -4  -8   6 8085.07 1255.53   1-0.99883 0.71838 0.04768-0.55947 0.00790 0.41341
   4  -8  -6 7760.42  429.60   1 0.47688-0.19416 0.39967-0.91206-0.78284 0.36115
   4   8  -6 8916.23  805.67   1 0.64213-0.36014 0.57294-0.06092 0.50930-0.93090
  -4  -8   6 7442.42  412.10   1-0.34495 0.06402 0.38633-0.89811 0.85542-0.43507
  -4   8   6 8097.00  800.49   1-0.55749 0.27537 0.63750-0.12517-0.53177 0.95315
  -4  -8   5 8125.34 1026.96   1-0.99512 0.69671 0.09135-0.60314-0.03724 0.38833
  -4   8   5 6205.01  927.29   1-0.43794 0.13844 0.64068-0.12820-0.63065 0.98203
   4  -8  -5 6360.05  956.68   1 0.42760-0.12728 0.35581-0.86821-0.83099 0.47959
   4   8  -5 7027.60  691.27   1 0.59334-0.29354 0.53162-0.01960 0.60441-0.95574
  -4  -8   5 6935.24  812.13   1-0.28890-0.00978 0.32261-0.83440 0.90135-0.55106
  -4   8   5 7174.43  758.76   1-0.51501 0.21523 0.58942-0.07708-0.62236 0.97351
  -4  -8   415462.38 1820.44   1-0.98749 0.67113 0.13456-0.64635-0.08217 0.36304
  -4   8   414042.37  779.17   1-0.19782-0.11964 0.69070-0.17804-0.69555 0.97672
   4  -8  -414669.19  740.79   1 0.32981-0.01191 0.26914-0.78153-0.90486 0.62374
   4   8  -417740.98 1203.54   1 0.53438-0.21678 0.48152 0.03071 0.69467-0.97573
  -4  -8   411847.75 1106.38   1-0.19395-0.12245 0.21371-0.72522 0.95744-0.67752
  -4   8   415381.32 1056.94   1-0.46413 0.14658 0.53201-0.01960-0.70819 0.98900
  -4  -8   3 7763.56  748.17   1-0.97619 0.64204 0.17702-0.68905-0.12534 0.33612
  -4   8   3 6829.19  462.80   1-0.00580-0.32927 0.69953-0.18686-0.71457 0.92555
   4  -8  -3 4474.15  435.80   1 0.09373 0.24186 0.06094-0.57338-0.99373 0.78277
   4   8  -3 6048.60  600.64   1 0.46669-0.13131 0.42328 0.08895 0.77654-0.98734
  -4  -8   3 4604.56  653.50   1-0.01892-0.31416 0.01539-0.52595 0.99970-0.79036
  -4   8   3 5414.37  688.46   1-0.40631 0.07115 0.46629 0.04611-0.78579 0.99639
  -4  -8   240674.48 2612.72   1-0.96121 0.60917 0.21829-0.73033-0.16853 0.30905
  -4   8   241160.01 1531.61   1 0.13968-0.49248 0.68841-0.17574-0.71173 0.85239
   4   8  -236667.04 1477.63   1 0.39175-0.03881 0.35918 0.15293 0.84706-0.98747
  -4  -8   137977.60 2684.67   1-0.94299 0.57306 0.25796-0.77000-0.21026 0.28052
  -4   8   136027.78 1415.75   1 0.24813-0.61869 0.67030-0.15744-0.69937 0.76969
   4   8  -134630.66 1439.64   1 0.31401 0.05664 0.29158 0.22052 0.90353-0.97373
  -4  -8   0 3701.22  597.71   1-0.92206 0.53423 0.29549-0.80753-0.24997 0.24997
  -4   8   0 3223.21  586.05   1 0.32739-0.71566 0.65126-0.13841-0.68459 0.68459
  -4  -8   0 3727.44  402.31   1-0.23512-0.15243-0.22441-0.28707-0.94570 0.94570
  -4  -8  -182481.16 2728.50   1-0.89919 0.49346 0.33029-0.84232-0.28699 0.21673
  -4   8  -181802.79 2855.94   1 0.38448-0.79046 0.63433-0.12148-0.67065 0.60034
  -4  -8  -185178.81 2890.64   1-0.16084-0.24426-0.16001-0.35148-0.97392 0.90376
   4  -8   182742.35 2816.03   1 0.14492 0.25843-0.17126-0.33827 0.97450-0.90486
  -4  -8  -217273.91 1688.65   1-0.87548 0.45308 0.36123-0.87297-0.32097 0.18066
  -4   8  -220264.56 1383.50   1 0.42457-0.84825 0.62072-0.10787-0.65911 0.51847
  -4  -8  -219053.36 1802.71   1-0.09300-0.32965-0.10106-0.41043-0.99052 0.85021
   4  -8   221376.84 2277.44   1 0.08697 0.33416-0.10516-0.40437 0.99064-0.85136
  -4  -8  -3  450.59  247.37   1-0.85224 0.41218 0.38858-0.90031-0.35026 0.13978
  -4   8  -3  583.73  528.82   1 0.45147-0.89286 0.61074-0.09789-0.65050 0.43955
  -4  -8  -3   70.36  210.68   1-0.03246-0.40772-0.04973-0.46196-0.99823 0.78762
   4  -8   3 1078.27  324.88   1 0.03631 0.40397-0.04744-0.46312 0.99821-0.78887
  -4   8  -412199.55 1107.40   1 0.46804-0.92682 0.60400-0.09123-0.64506 0.36424
   4  -8   410717.98 1264.97   1-0.00769 0.46585 0.00262-0.51318 0.99996-0.72084
  -4   8  -5 6722.11  684.47   1 0.47603-0.95260 0.60076-0.08800-0.64223 0.29121
   4  -8   5 8135.74  975.23   1-0.04432 0.52035 0.04428-0.55484 0.99803-0.64913
  -4   8  -6 1565.70  603.50   1 0.47705-0.97141 0.60035-0.08758-0.64187 0.22063
  -4  -8  -6 1248.81  521.25   1 0.09420-0.58691 0.06084-0.57255-0.99369 0.57246
   4  -8   6 2577.28  587.57   1-0.07393 0.56782 0.07793-0.58850 0.99421-0.57552
  -4   8  -7 7641.02 1070.37   1 0.47212-0.98428 0.60235-0.08959-0.64363 0.15219
  -4  -8  -7 7336.51 1426.45   1 0.12038-0.63060 0.08376-0.59546-0.98918 0.49775
   4  -8   7 6888.96 1455.87   1-0.09706 0.60883 0.10423-0.61480 0.98980-0.50133
  -4  -9   9  212.74  284.70   1-0.98005 0.75136-0.10703-0.46890 0.16742 0.46431
   4  -9  -9  417.66  263.03   1 0.45742-0.22744 0.38233-0.95877-0.80286 0.17033
   4   9  -9  730.52  429.02   1 0.72927-0.50029 0.64412-0.06810 0.23080-0.86317
  -4  -9   9  525.07  238.84   1-0.34992 0.12227 0.39198-0.96773 0.85082-0.22029
  -4   9   9  325.47  509.03   1-0.63476 0.40569 0.72396-0.14732-0.27008 0.90205
  -4  -9   8 4550.58 1220.48   1-0.98961 0.74326-0.06720-0.50873 0.12710 0.43444
   4  -9  -8 5383.17  597.71   1 0.44436-0.19680 0.37071-0.94715-0.81554 0.25330
   4   9  -8 4690.63  741.28   1 0.70839-0.46165 0.62732-0.05131 0.32347-0.88557
  -4  -9   8 6345.37  688.66   1-0.33258 0.08717 0.37226-0.94802 0.86649-0.30602
  -4   9   8 4579.67  742.46   1-0.61499 0.36825 0.70181-0.12516-0.35950 0.92125
   4  -9  -7 5366.24  501.83   1 0.41993-0.15479 0.34900-0.92545-0.83776 0.34579
   4   9  -7 4158.30  631.83   1 0.67898-0.41480 0.60380-0.02777 0.41761-0.90948
  -4  -9   7 5161.37  459.35   1-0.30428 0.04111 0.34010-0.91586 0.88979-0.39938
  -4   9   7 3976.81 1035.89   1-0.58819 0.32372 0.67217-0.09579-0.44967 0.94128
  -4  -9   6 1561.01  582.38   1-0.99886 0.71841 0.01020-0.58597 0.04646 0.37484
   4  -9  -6  240.97  120.25   1 0.37745-0.09473 0.31132-0.88776-0.87212 0.45044
   4   9  -6 2007.51  625.49   1 0.64104-0.35905 0.57202 0.00399 0.51170-0.93330
  -4  -9   6 1056.54  222.92   1-0.26101-0.01988 0.28980-0.86526 0.92080-0.50092
  -4   9   6 1634.82  577.38   1-0.55441 0.27229 0.63402-0.05764-0.53910 0.96048
  -4  -9   5 2627.79  470.93   1-0.99876 0.70036 0.04922-0.62499 0.00631 0.34478
   4   9  -5 3350.35  621.39   1 0.59391-0.29411 0.53211 0.04391 0.60342-0.95476
  -4  -9   5 1606.75  329.33   1-0.19115-0.10749 0.21054-0.78599 0.95871-0.60881
  -4   9   5 3566.19  797.99   1-0.51323 0.21345 0.58740-0.01102-0.62573 0.97689
  -4  -9   426706.39 1815.93   1-0.99560 0.67924 0.08751-0.66327-0.03326 0.31414
  -4   9   424071.09 1073.78   1-0.16712-0.15033 0.69379-0.11705-0.70051 0.98167
   4   9  -425616.93 1393.10   1 0.53773-0.22014 0.48439 0.09187 0.69007-0.97113
  -4   9   422109.02 1337.90   1-0.46469 0.14715 0.53265 0.04379-0.70733 0.98814
  -4  -9   310377.22 1468.41   1-0.98957 0.65525 0.12477-0.70054-0.07197 0.28263
  -4   9   3 9470.91  616.03   1 0.02174-0.35683 0.69857-0.12182-0.71520 0.92619
   4   9  -3 8961.87  693.97   1 0.47399-0.13861 0.42957 0.14668 0.76862-0.97942
  -4   9   311631.16  955.89   1-0.41034 0.07517 0.47087 0.10558-0.78096 0.99156
  -4  -9   2 6397.66 1322.51   1-0.98091 0.62864 0.16068-0.73645-0.10944 0.24988
  -4   9   2 9242.90  671.66   1 0.16161-0.51440 0.68543-0.10867-0.70997 0.85063
   4   9  -2 7808.61  665.68   1 0.40393-0.05100 0.36974 0.20637 0.83673-0.97714
  -4  -9   1 3383.74  474.71   1-0.97032 0.60038 0.19453-0.77057-0.14363 0.21389
  -4   9   1 4301.24  561.90   1 0.26476-0.63532 0.66672-0.08976-0.69669 0.76701
   4   9  -1 4844.32  708.99   1 0.33162 0.03903 0.30692 0.26920 0.89208-0.96229
  -4  -9   0 1844.67  398.06   1-0.95784 0.57002 0.22630-0.80235-0.17694 0.17694
  -4   9   0 1990.97  583.43   1 0.33983-0.72810 0.64781-0.07085-0.68179 0.68179
   4   9   0 2405.21  636.46   1 0.25950 0.12888 0.24403 0.33209 0.93440-0.93440
  -4  -9  -1 4948.16 1179.28   1-0.94436 0.53864 0.25525-0.83129-0.20740 0.13714
  -4   9  -1 3642.12  750.82   1 0.39383-0.79981 0.63129-0.05433-0.66810 0.59778
  -4  -9  -1 6685.41  936.77   1-0.18867-0.21643-0.18416-0.39127-0.96461 0.89446
  -4  -9  -2  278.70  140.40   1-0.93075 0.50714 0.28070-0.85674-0.23429 0.09377
  -4   9  -2  427.86  461.99   1 0.43176-0.85544 0.61812-0.04116-0.65688 0.51624
  -4  -9  -2  -43.86  225.25   1-0.12466-0.29799-0.12859-0.44684-0.98383 0.84352
   4  -9   2  430.68  231.24   1 0.11365 0.30748-0.13559-0.43763 0.98422-0.84494
  -4  -9  -3  989.67  284.81   1-0.91813 0.47662 0.30186-0.87790-0.25672 0.04594
  -4   9  -3 3202.48  867.92   1 0.45738-0.89836 0.60821-0.03136-0.64874 0.43813
  -4  -9  -3 1242.09  349.80   1-0.06684-0.37334-0.07967-0.49599-0.99457 0.78396
   4  -9   3 1889.26  403.85   1 0.06516 0.37373-0.08030-0.49292 0.99463-0.78571
  -4   9  -4 5456.93  784.07   1 0.47284-0.93162 0.60206-0.02520-0.64337 0.36255
  -4  -9  -4 2485.26  666.51   1-0.01765-0.44003-0.03683-0.53883-0.99916 0.71834
   4  -9   4 2486.30  707.11   1 0.02380 0.43435-0.03320-0.54117 0.99916-0.72004
  -4   9  -5  454.00  476.17   1 0.48030-0.95687 0.59901-0.02215-0.64069 0.28966
  -4  -9  -5 1066.12  320.73   1 0.02358-0.49878-0.00085-0.57480-0.99972 0.64870
   4  -9   5  325.05  222.06   1-0.01174 0.48777 0.00722-0.58161 0.99990-0.65100
  -4   9  -6 2087.02  784.59   1 0.48107-0.97543 0.59869-0.02183-0.64041 0.21918
  -4  -9  -6  664.46  269.35   1 0.05718-0.54989 0.02848-0.60415-0.99795 0.57673
   4  -9   6  787.32  264.12   1-0.04091 0.53481 0.04040-0.61479 0.99834-0.57966
  -4   9  -7 5866.43 1117.84   1 0.47612-0.98828 0.60073-0.02387-0.64220 0.15076
  -4  -9  -7 4847.28 1212.98   1 0.08369-0.59390 0.05165-0.62732-0.99515 0.50372
   4  -9   7 5952.57 1403.90   1-0.06410 0.57586 0.06676-0.64115 0.99570-0.50724
   4  10  -8 4170.08  845.83   1 0.70796-0.46122 0.62697 0.01303 0.32508-0.88718
  -4  10   8 8724.17 1335.64   1-0.61308 0.36635 0.69967-0.05895-0.36684 0.92860
  -4 -10   7 2899.59  618.04   1-0.99073 0.72675-0.06133-0.57859 0.12114 0.37021
   4  10  -7 1887.02  546.34   1 0.67910-0.41492 0.60390 0.03612 0.41726-0.90913
  -4  10   7 3546.97  785.12   1-0.58652 0.32205 0.67029-0.02987-0.45463 0.94624
  -4 -10   6 4864.92 1141.48   1-0.99601 0.71438-0.02607-0.61385 0.08524 0.33591
   4  10  -6 6458.15  914.11   1 0.64236-0.36037 0.57313 0.06689 0.50880-0.93040
  -4  10   6 9400.41 1165.76   1-0.55359 0.27147 0.63309 0.00732-0.54103 0.96241
  -4 -10   5 3322.20  801.02   1-0.99874 0.70034 0.00723-0.64697 0.04951 0.30157
   4  10  -5 2395.19  740.88   1 0.59724-0.29744 0.53494 0.10508 0.59760-0.94893
  -4  10   5 2900.67  791.98   1-0.51402 0.21424 0.58830 0.05211-0.62423 0.97538
  -4 -10   4 6440.42 1302.62   1-0.99905 0.68269 0.04085-0.68059 0.01494 0.26593
   4  10  -4 6994.69  723.82   1 0.54403-0.22644 0.48979 0.15050 0.68126-0.96232
  -4  10   4 7533.62  816.01   1-0.46799 0.15045 0.53640 0.10410-0.70231 0.98312
  -4 -10   3 4403.37 1069.09   1-0.99715 0.66283 0.07313-0.71287-0.01838 0.22903
  -4  10   3 3204.16  594.20   1 0.03735-0.37243 0.69779-0.05695-0.71532 0.92630
   4  10  -3 2652.16  623.63   1 0.48418-0.14880 0.43836 0.20193 0.75723-0.96802
  -4  10   3 1778.40  540.28   1-0.41700 0.08184 0.47845 0.16205-0.77277 0.98338
  -4 -10   2 6788.22  999.94   1-0.99334 0.64107 0.10371-0.74345-0.05007 0.19051
  -4  10   2 8843.30  863.58   1 0.17291-0.52570 0.68375-0.04291-0.70892 0.84958
   4  10  -2 8397.74  804.24   1 0.41871-0.06578 0.38255 0.25758 0.82360-0.96401
  -4 -10   1 4970.28  823.71   1-0.98801 0.61778 0.13218-0.77192-0.07968 0.14990
  -4  10   1 5705.80  679.63   1 0.27212-0.64268 0.66506-0.02400-0.69543 0.76575
   4  10  -1 3606.83  709.45   1 0.35137 0.01929 0.32410 0.31603 0.87834-0.94855
  -4 -10   0 1531.43  383.29   1-0.98165 0.59347 0.15801-0.79775-0.10665 0.10665
  -4  10   0  964.86  385.98   1 0.34419-0.73245 0.64657-0.00550-0.68078 0.68078
   4  10   0 2434.57  667.99   1 0.28411 0.10428 0.26551 0.37462 0.92129-0.92129
  -4 -10  -1 1520.38  344.25   1-0.97529 0.56957 0.17984-0.81989-0.12829 0.05803
  -4  10  -1 2205.06  648.57   1 0.39607-0.80205 0.63055 0.01051-0.66747 0.59715
  -4 -10  -1 3262.22  633.71   1-0.21771-0.18739-0.20933-0.43004-0.95330 0.88314
   4 -10   1 2280.24  531.88   1 0.19139 0.21196-0.22430-0.41261 0.95553-0.88589
  -4 -10  -2  685.23  264.53   1-0.96904 0.54543 0.19808-0.83812-0.14735 0.00683
  -4  10  -2  564.84  447.97   1 0.43259-0.85628 0.61782 0.02324-0.65662 0.51598
  -4 -10  -2 1039.65  397.07   1-0.15723-0.26542-0.15687-0.48249-0.97502 0.83471
   4 -10   2 1193.65  431.89   1 0.14070 0.28042-0.16645-0.47046 0.97595-0.83667
  -4  10  -3  532.15  480.69   1 0.45732-0.89830 0.60824 0.03271-0.64876 0.43815
  -4 -10  -3  539.55  240.24   1-0.10284-0.33735-0.10962-0.52974-0.98863 0.77817
   4 -10   3 1447.98  500.17   1 0.09488 0.34402-0.11418-0.52274 0.98891-0.77999
  -4  10  -4 1229.24  490.10   1 0.47231-0.93108 0.60228 0.03866-0.64356 0.36274
  -4 -10  -4 2163.13  596.28   1-0.05447-0.40322-0.06890-0.57072-0.99613 0.71531
   4 -10   4 2265.31  535.93   1 0.05460 0.40207-0.06825-0.56866 0.99617-0.71760
  -4  10  -5 2511.14  677.11   1 0.47957-0.95614 0.59931 0.04163-0.64096 0.28993
  -4 -10  -5 1123.96  386.90   1-0.01411-0.46108-0.03374-0.60588-0.99933 0.64831
  -4  10  -6 2280.37  771.09   1 0.48036-0.97472 0.59899 0.04196-0.64067 0.21944
  -4 -10  -6 2809.00  840.88   1 0.01921-0.51192-0.00466-0.63496-0.99980 0.57858
   4 -10   6 3258.50  827.39   1-0.00763 0.50153 0.00255-0.64076 0.99996-0.58128
  -4 -11   7  589.80  265.03   1-0.98316 0.71917-0.09550-0.60841 0.15577 0.33558
   4  11  -7 1223.04  583.17   1 0.68104-0.41686 0.60551 0.09851 0.41174-0.90361
  -4  11   7 2095.35  694.71   1-0.58658 0.32211 0.67035 0.03410-0.45447 0.94608
  -4 -11   6  200.70  158.69   1-0.99023 0.70859-0.06400-0.63991 0.12385 0.29730
   4  11  -6  851.83  520.19   1 0.64584-0.36385 0.57607 0.12795 0.50102-0.92262
  -4  11   6  743.55  475.88   1-0.55481 0.27268 0.63447 0.06999-0.53817 0.95955
  -4 -11   5 1252.98  398.75   1-0.99510 0.69581-0.03364-0.67027 0.09296 0.25799
   4  11  -5 1440.60  459.38   1 0.60299-0.30319 0.53983 0.16419 0.58734-0.93867
  -4  11   5 1792.89  719.89   1-0.51707 0.21729 0.59176 0.11270-0.61842 0.96957
  -4 -11   4 2870.17  951.18   1-0.99803 0.68167-0.00540-0.69830 0.06247 0.21839
   4  11  -4 3628.07  588.05   1 0.55285-0.23526 0.49734 0.20697 0.66857-0.94963
  -4  11   4 4857.91  818.02   1-0.47360 0.15606 0.54277 0.16178-0.69360 0.97440
  -4 -11   310130.59 1885.64   1-0.99916 0.66485 0.02212-0.72583 0.03421 0.17643
   4  11  -313461.87 1056.34   1 0.49680-0.16141 0.44922 0.25509 0.74255-0.95334
  -4  11   317166.49 1292.69   1-0.42586 0.09070 0.48852 0.21603-0.76156 0.97216
  -4 -11   2 4983.29  927.98   1-0.99883 0.64656 0.04756-0.75128 0.00802 0.13241
  -4  11   2 7679.96  696.66   1 0.17447-0.52726 0.68352 0.02140-0.70877 0.84942
   4  11  -2 6883.93  711.40   1 0.43632-0.08315 0.39704 0.30728 0.80744-0.94797
  -4 -11   1 2354.11  727.81   1-0.99739 0.62716 0.07043-0.77414-0.01558 0.08580
  -4  11   1 2998.64  698.95   1 0.27112-0.64168 0.66529 0.03988-0.69561 0.76592
   4  11  -1 2139.48  734.72   1 0.37289-0.00223 0.34280 0.36134 0.86222-0.93242
  -4 -11   013001.26 2352.26   1-0.99528 0.60709 0.09010-0.79381-0.03594 0.03594
  -4  11   021434.95 1513.19   1 0.34130-0.72957 0.64739 0.05777-0.68145 0.68145
   4  11   017416.18 1263.88   1 0.31008 0.07831 0.28815 0.41599 0.90598-0.90598
  -4 -11  -1  241.81  160.00   1-0.99302 0.58687 0.10576-0.80947-0.05219-0.01802
  -4  11  -1 1177.03  447.79   1 0.39193-0.79790 0.63192 0.07325-0.66862 0.59831
  -4  11  -2   42.18  386.62   1 0.42770-0.85138 0.61960 0.08557-0.65815 0.51751
  -4 -11  -2 1025.87  450.06   1-0.19058-0.23207-0.18581-0.51749-0.96392 0.82361
   4 -11   2  514.65  264.25   1 0.16808 0.25304-0.19769-0.50291 0.96574-0.82646
  -4  11  -3 6437.51  908.00   1 0.45190-0.89329 0.61058 0.09459-0.65036 0.43940
  -4 -11  -3 4589.00  676.07   1-0.13867-0.30152-0.14076-0.56254-0.98028 0.76982
   4 -11   3 5745.04  686.98   1 0.12473 0.31416-0.14824-0.55237 0.98105-0.77212
  -4  11  -4 1793.61  834.00   1 0.46692-0.92569 0.60445 0.10059-0.64546 0.36464
  -4 -11  -4  445.70  360.83   1-0.09286-0.36489-0.10094-0.60236-0.99054 0.70993
   4 -11   4  898.47  397.87   1 0.08626 0.37041-0.10435-0.59626 0.99079-0.71222
  -4  11  -5 2081.75  812.94   1 0.47427-0.95084 0.60148 0.10356-0.64286 0.29183
  -4 -11  -5 1139.78  430.84   1-0.05257-0.42262-0.06724-0.63634-0.99635 0.64533
   4 -11   5 1434.38  427.18   1 0.05387 0.42214-0.06743-0.63459 0.99626-0.64736
  -4 -12   6  393.86  236.80   1-0.98142 0.69979-0.10207-0.66583 0.16241 0.25874
   4  12  -6  737.22  562.55   1 0.65124-0.36925 0.58061 0.18741 0.48863-0.91023
  -4  12   6  770.14  464.31   1-0.55784 0.27571 0.63789 0.13060-0.53094 0.95232
  -4 -12   5 1519.38  469.95   1-0.98788 0.68860-0.07552-0.69239 0.13554 0.21542
   4  12  -5 2057.82  574.39   1 0.61085-0.31105 0.54650 0.22153 0.57288-0.92421
  -4  12   5 1387.90  521.80   1-0.52207 0.22229 0.59742 0.17107-0.60870 0.95985
  -4 -12   4 2860.81  749.01   1-0.99260 0.67567-0.05069-0.71722 0.11032 0.17044
   4  12  -4 5029.41  698.63   1 0.56382-0.24622 0.50673 0.26162 0.65217-0.93323
  -4  12   4 3985.76  654.60   1-0.48118 0.16364 0.55137 0.21723-0.68150 0.96230
  -4 -12   3 3327.58  818.72   1-0.99580 0.66122-0.02795-0.73996 0.08716 0.12341
   4  12  -3 3035.33  479.69   1 0.51146-0.17608 0.46184 0.30651 0.72464-0.93543
  -4  12   3 2859.48  587.80   1-0.43655 0.10139 0.50068 0.26792-0.74748 0.95808
  -4 -12   2  734.17  342.80   1-0.99775 0.64553-0.00776-0.76015 0.06654 0.07384
   4  12  -2 1840.01  632.79   1 0.45509-0.10192 0.41326 0.35508 0.78872-0.92925
  -4  12   2 1371.59  653.58   1-0.38907 0.03628 0.44667 0.32193-0.80566 0.94606
  -4 -12   1 3862.41 1022.74   1-0.99884 0.62861 0.00968-0.77736 0.04700 0.02321
  -4  12   1 7193.09  821.16   1 0.26243-0.63299 0.66723 0.10204-0.69708 0.76740
   4  12  -1 6831.35  878.61   1 0.39590-0.02524 0.36278 0.40538 0.84359-0.91379
  -4 -12   0  553.59  257.59   1-0.99918 0.61099 0.02325-0.79094 0.03305-0.03305
  -4  12   0 1833.16  686.07   1 0.33176-0.72003 0.65006 0.11921-0.68362 0.68362
   4  12   0 1830.23  582.32   1 0.33720 0.05119 0.31177 0.45638 0.88830-0.88830
  -4  12  -1 1259.02  439.57   1 0.38191-0.78789 0.63516 0.13411-0.67134 0.60103
   4  12   1  319.52  355.15   1 0.28020 0.12591 0.26210 0.50605 0.92346-0.85325
  -4  12  -2 1376.00  612.21   1 0.41751-0.84120 0.62323 0.14605-0.66125 0.52062
  -4 -12  -2 2194.11  475.70   1-0.22463-0.19802-0.21533-0.55191-0.95035 0.81004
   4 -12   2  596.12  354.51   1 0.19573 0.22539-0.22926-0.53504 0.95348-0.81419
  -4  12  -3 1955.96  645.36   1 0.44178-0.88317 0.61442 0.15485-0.65368 0.44273
  -4 -12  -3  538.19  260.19   1-0.17512-0.26508-0.17240-0.59484-0.96933 0.75887
   4 -12   3  724.58  294.06   1 0.15473 0.28417-0.18246-0.58184 0.97096-0.76203
  -4 -13   3  684.48  233.93   1-0.98737 0.65280-0.07787-0.75403 0.13792 0.07265
   4  13  -3 2665.73  735.32   1 0.52785-0.19246 0.47591 0.35646 0.70347-0.91426
  -4  13   3  354.21  416.34   1-0.44877 0.11361 0.51457 0.31809-0.73062 0.94122
  -4 -13   2 1050.84  441.19   1-0.99054 0.63832-0.06235-0.76954 0.12218 0.01820
   4  13  -2 3012.94  629.63   1 0.47539-0.12221 0.43078 0.40160 0.76709-0.90762
  -4  13   2 3795.42  786.48   1-0.40459 0.05179 0.46432 0.36833-0.78784 0.92825
  -4 -13   1 1254.68  514.67   1-0.99263 0.62276-0.05051-0.78138 0.11015-0.03995
   4  13  -1 2818.82  637.31   1 0.42017-0.04951 0.38381 0.44836 0.82227-0.89247
   4  13   0  966.22  386.41   1 0.36531 0.02307 0.33622 0.49595 0.86804-0.86804
  -5   0  12 9028.58 2052.45   1-0.98547 0.71284-0.08615 0.08615 0.14631 0.69601
   5   0 -1218452.51 4142.89   1 0.73505-0.46244 0.63855-0.63855-0.22791-0.61513
  -5   0  1215746.99 3524.85   1-0.63857 0.36549 0.72484-0.72484 0.25850 0.58396
  -5   0  11 9555.09 1453.66   1-0.99761 0.70989-0.01098 0.01098 0.06818 0.70422
   5   0 -1112628.18 1277.46   1 0.74444-0.45409 0.64792-0.64792-0.16124-0.61154
  -5   0  1110789.19 1057.33   1-0.64803 0.35730 0.73571-0.73571 0.19689 0.57537
  -5   0  10 3530.31  757.71   1-0.99731 0.69164 0.07133-0.07133-0.01651 0.71870
   5   0 -10 2828.02  748.58   1 0.74973-0.44162 0.65558-0.65558-0.09004-0.61251
  -5   0  10 3140.35  641.67   1-0.65522 0.34683 0.74399-0.74399 0.13095 0.57111
  -5   0   921982.60 1098.18   1-0.98230 0.65867 0.15565-0.15565-0.10418 0.73615
   5   0  -921459.08 1149.96   1 0.75207-0.42619 0.65896-0.65896-0.01252-0.61978
  -5   0   922186.34 1170.87   1-0.65894 0.33324 0.74977-0.74977 0.06018 0.57164
  -5   0   8 6401.78  842.72   1-0.95093 0.60929 0.24170-0.24170-0.19312 0.75520
   5   0  -8 3416.59  619.84   1 0.74945-0.40581 0.65810-0.65810 0.07215-0.63420
  -5   0   8 5742.55  489.72   1-0.65995 0.31656 0.75109-0.75109-0.01772 0.57935
  -5   0   713275.89 1082.58   1-0.90229 0.54275 0.32587-0.32587-0.28227 0.77409
   5   0  -712253.34  751.64   1 0.73979-0.37807 0.65225-0.65225 0.16513-0.65697
  -5   0   710561.51  648.86   1-0.65640 0.29530 0.74721-0.74721-0.10394 0.59536
  -5   0   6 2428.15  295.49   1-0.83533 0.45741 0.40676-0.40676-0.36981 0.79076
   5   0  -6 2511.11  636.88   1 0.72174-0.34226 0.63813-0.63813 0.26809-0.68966
  -5   0   6 1107.74  451.02   1-0.64608 0.26703 0.73656-0.73656-0.20010 0.62142
  -5   0   5 7053.15  422.87   1-0.75252 0.35695 0.48068-0.48068-0.45016 0.80095
   5   0  -5 7297.03  613.23   1 0.69145-0.29421 0.61340-0.61340 0.38160-0.73292
  -5   0   5 5679.47  467.53   1-0.62696 0.23025 0.71525-0.71525-0.30874 0.65984
  -5   0   410809.88  542.08   1-0.65606 0.24250 0.54564-0.54564-0.52139 0.80216
   5   0  -4 9995.59  563.58   1 0.64436-0.22953 0.57482-0.57482 0.50436-0.78542
  -5   0   411122.04  582.65   1-0.59436 0.17992 0.67913-0.67913-0.43070 0.71162
  -5   0   318377.84  719.05   1-0.55100 0.11978 0.59851-0.59851-0.58153 0.79210
   5   0  -319941.04  839.19   1 0.57608-0.14351 0.51720-0.51720 0.63294-0.84374
  -5   0   317232.74  721.53   1-0.54298 0.11088 0.62109-0.62109-0.56515 0.77585
  -5   0   2 1589.63  339.66   1-0.44328-0.00625 0.63900-0.63900-0.62862 0.76917
   5   0  -2 1864.35  292.54   1 0.48360-0.03324 0.43785-0.43785 0.75789-0.89842
  -5   0   2 1699.76  296.13   1-0.46666 0.01686 0.53489-0.53489-0.70434 0.84474
  -5   0   148911.33 1464.77   1-0.33869-0.12853 0.66714-0.66714-0.66347 0.73375
   5   0  -144590.06 1251.49   1 0.36900 0.09875 0.33943-0.33943 0.86522-0.93543
  -5   0   0 2387.34  408.89   1-0.24249-0.24249 0.68494-0.68494-0.68705 0.68705
  -5   0  -1 3207.27  468.22   1-0.11820-0.38379-0.12297 0.12297-0.98534 0.91519
   5   0   1 3039.17  268.49   1 0.11773 0.38202-0.14025 0.14025 0.98308-0.91344
  -5   0  -2 8628.00  580.84   1-0.08721-0.43302 0.69862-0.69862-0.71015 0.56956
  -5   0  -2 8162.63 1027.78   1-0.00867-0.51092-0.02899 0.02899-0.99954 0.85913
   5   0   210186.99 1020.83   1 0.00950 0.50959-0.01694 0.01694 0.99981-0.86024
  -5   0  -319662.19 1007.35   1-0.03091-0.50747 0.69994-0.69994-0.71352 0.50253
  -5   0  -322160.66 1356.48   1 0.08053-0.61763 0.04889-0.04889-0.99555 0.78494
   5   0   321320.45  723.83   1-0.07804 0.61501 0.08261-0.08261 0.99352-0.78417
  -5   0  -4 1395.39  393.64   1 0.01252-0.56861 0.69895-0.69895-0.71505 0.43373
  -5   0  -4 1375.46  188.36   1 0.14858-0.70418 0.10904-0.10904-0.98286 0.70158
   5   0   4 2341.05  335.47   1-0.14429 0.69956 0.15735-0.15735 0.97694-0.69702
  -5   0  -5  645.36  392.25   1 0.04371-0.61752 0.69742-0.69742-0.71531 0.36367
  -5   0  -5 1060.54  311.32   1 0.19927-0.77244 0.15359-0.15359-0.96783 0.61623
   5   0   5 1041.03  247.73   1-0.19186 0.76489 0.21134-0.21134 0.95839-0.60849
  -5   0  -6  761.93  416.32   1 0.06387-0.65539 0.69607-0.69607-0.71511 0.29314
  -5   0  -6  275.35  215.38   1 0.23538-0.82611 0.18536-0.18536-0.95406 0.53214
  -5   0  -7 4407.01 1032.83   1 0.07417-0.68340 0.69527-0.69527-0.71490 0.22260
  -5   0  -7 3825.86 1005.78   1 0.25993-0.86822 0.20698-0.20698-0.94318 0.45094
   5   0   7 3243.99 1043.04   1-0.24686 0.85539 0.27375-0.27375 0.92957-0.43972
  -5   0  -8  569.30  414.25   1 0.07561-0.70255 0.69515-0.69515-0.71486 0.15223
  -5   0  -8  534.85  318.54   1 0.27532-0.90117 0.22055-0.22055-0.93570 0.37315
   5   0   8  641.54  326.45   1-0.26020 0.88649 0.28889-0.28889 0.92132-0.36148
  -5   0  -9 5962.79  973.73   1 0.06899-0.71364 0.69568-0.69568-0.71502 0.08206
  -5   0  -9 4228.87  934.56   1 0.28337-0.92678 0.22766-0.22766-0.93159 0.29871
   5   0   9 4074.80 1265.60   1-0.26681 0.91085 0.29638-0.29638 0.91704-0.28722
  -5  -1  12 2443.18  666.45   1-0.98642 0.71379-0.08209 0.01810 0.14220 0.70012
   5  -1 -12 3061.25  737.49   1 0.72490-0.45229 0.62873-0.69283-0.28143-0.56160
   5   1 -12 4412.77  827.07   1 0.74229-0.46969 0.64574-0.58164-0.17890-0.66413
  -5  -1  12 2189.74  508.37   1-0.62661 0.35353 0.71112-0.77512 0.31883 0.52363
  -5   1  12 4291.15  753.08   1-0.64731 0.37424 0.73488-0.67089 0.20228 0.64019
  -5   1  11 8935.37 1175.47   1-0.99755 0.70727-0.01026 0.07425 0.06910 0.70302
  -5  -1  11 9529.13 1541.92   1-0.99768 0.70740-0.00868-0.05531 0.06748 0.70464
   5  -1 -1112123.48 1272.53   1 0.73634-0.44600 0.63983-0.70393-0.22001-0.55277
   5   1 -1110952.70 1102.41   1 0.74944-0.45910 0.65322-0.58912-0.10783-0.66495
  -5  -1  1110819.26 1078.02   1-0.63770 0.34697 0.72384-0.78783 0.26342 0.50884
  -5   1  1111813.00 1210.70   1-0.65483 0.36410 0.74354-0.67955 0.13537 0.63689
  -5   1  1014867.81 1063.57   1-0.99697 0.69130 0.07498-0.01100-0.02028 0.72247
  -5  -1  1015583.87 1137.99   1-0.99796 0.69229 0.06321-0.12719-0.00812 0.71031
   5  -1 -1014296.13  976.50   1 0.74523-0.43715 0.64874-0.71284-0.15412-0.54840
   5   1 -1013010.99  930.54   1 0.75191-0.44379 0.65848-0.59445-0.03198-0.67057
  -5  -1  1013978.01  921.43   1-0.64702 0.33864 0.73455-0.79854 0.20442 0.49763
  -5   1  1013181.07  998.86   1-0.65878 0.35079 0.74959-0.68558 0.06412 0.63790
  -5  -1   9 1985.61  394.78   1-0.98606 0.66244 0.14075-0.20473-0.08862 0.72059
  -5   1   9 1813.96  456.53   1-0.97905 0.65543 0.16714-0.10317-0.11620 0.74817
   5  -1  -9 1981.38  478.83   1 0.75012-0.42424 0.65604-0.72007-0.08320-0.54909
   5   1  -9 1335.31  531.94   1 0.75065-0.42477 0.65878-0.59474 0.05022-0.68252
  -5  -1   9 2260.16  545.63   1-0.65433 0.32829 0.74296-0.80696 0.14090 0.49095
  -5   1   9 2181.75  547.59   1-0.66000 0.33431 0.75114-0.68713-0.01321 0.64504
  -5  -1   8 2177.09  336.08   1-0.96053 0.61889 0.21995-0.28396-0.17027 0.73235
  -5   1   8 2419.04  360.70   1-0.94145 0.59981 0.26097-0.19697-0.21343 0.77551
   5  -1  -8 2477.70  441.16   1 0.75205-0.40841 0.65907-0.72311-0.00499-0.55705
   5   1  -8 2277.36  472.24   1 0.74352-0.39987 0.65402-0.58998 0.13939-0.70143
  -5  -1   8 3481.69  491.88   1-0.65843 0.31503 0.74916-0.81317 0.07224 0.48938
  -5   1   8 1641.30  491.32   1-0.65684 0.31344 0.74770-0.68369-0.09739 0.65901
  -5   1   794847.07 2756.21   1-0.88255 0.52229 0.35229-0.28832-0.31143 0.80254
  -5  -1   795081.09 2809.58   1-0.92051 0.56098 0.29802-0.36202-0.25265 0.74447
   5  -1  -795422.00 2831.49   1 0.74881-0.38740 0.65770-0.72174 0.08179-0.57358
   5   1  -796120.89 2946.13   1 0.72825-0.36653 0.64331-0.57931 0.23620-0.72804
  -5  -1   792208.71 2765.11   1-0.66006 0.29897 0.75119-0.81520-0.00462 0.49604
  -5   1   797801.94 2971.93   1-0.64750 0.28611 0.73812-0.67405-0.18947 0.68101
  -5  -1   6 4265.96  559.90   1-0.86491 0.48700 0.37404-0.43801-0.33467 0.75562
  -5   1   6 4099.92  584.93   1-0.80377 0.42585 0.43755-0.37358-0.40311 0.82406
   5  -1  -6 3550.28  570.69   1 0.73786-0.35838 0.65079-0.71479 0.17894-0.60051
   5   1  -6 4255.65  557.22   1 0.70349-0.32401 0.62331-0.55931 0.34143-0.76300
  -5  -1   6 2857.39  427.72   1-0.65721 0.27842 0.74812-0.81213-0.09154 0.51276
  -5   1   6 2878.91  455.79   1-0.63072 0.25167 0.71945-0.65538-0.29081 0.71213
  -5  -1   5 6970.86  577.99   1-0.79532 0.39975 0.44519-0.50916-0.41140 0.76220
  -5   1   5 6934.26  407.06   1-0.70662 0.31071 0.51408-0.45011-0.48621 0.83717
   5  -1  -5 6585.54  611.83   1 0.71699-0.31974 0.63430-0.69830 0.28909-0.64040
   5   1  -5 7024.02  574.57   1 0.66541-0.26840 0.59249-0.52848 0.45406-0.80539
  -5  -1   5 6396.32  457.89   1-0.64728 0.25056 0.73788-0.80195-0.19119 0.54229
  -5   1   5 7585.04  564.70   1-0.60337 0.20666 0.68875-0.62468-0.40193 0.75303
  -5  -1   414695.84  659.37   1-0.71283 0.29927 0.50987-0.57385-0.48154 0.76231
  -5   1   416015.55  697.88   1-0.59620 0.18264 0.57763-0.51365-0.55756 0.83832
   5  -1  -417501.59  800.19   1 0.68066-0.26583 0.60519-0.66919 0.41284-0.69390
   5   1  -416745.27  781.76   1 0.61108-0.19625 0.54669-0.48269 0.57245-0.85351
  -5  -1   414621.29  679.03   1-0.62703 0.21266 0.71531-0.77939-0.30846 0.58934
  -5   1   417045.33  774.82   1-0.56167 0.14723 0.64223-0.57819-0.52158 0.80250
  -5  -1   314677.66  642.20   1-0.62090 0.18969 0.56507-0.62905-0.54328 0.75386
  -5   1   315217.17  702.83   1-0.47903 0.04717 0.62702-0.56296-0.61430 0.82513
   5  -1  -313216.25  634.98   1 0.62271-0.19007 0.55655-0.62055 0.54997-0.76077
   5   1  -315494.68  755.61   1 0.53730-0.10473 0.48402-0.41999 0.69066-0.90146
  -5  -1   314842.42  623.65   1-0.58943 0.15733 0.67357-0.73761-0.44594 0.65663
  -5   1   315667.42  694.49   1-0.50187 0.06969 0.57486-0.51081-0.64625 0.85685
  -5  -1   2127931.2 3273.24   1-0.52405 0.07451 0.61002-0.67408-0.59432 0.73488
  -5   1   2123927.2 3177.51   1-0.36227-0.08726 0.66165-0.59759-0.65648 0.79703
   5  -1  -2125058.6 3124.60   1 0.53629-0.08593 0.48316-0.54719 0.69205-0.83258
   5   1  -2122934.0 3116.84   1 0.44391 0.00644 0.40360-0.33957 0.80002-0.94055
  -5  -1   2107169.1 2619.45   1 0.07314-0.51959-0.08940 0.02571 0.99330-0.85402
  -5  -1   2125733.5 3114.98   1-0.52513 0.07537 0.60089-0.66493-0.60262 0.74308
  -5   1   2123064.0 3127.92   1-0.42180-0.02799 0.48390-0.41985-0.76675 0.90715
  -5  -1   1 5923.21  498.31   1-0.42705-0.04016 0.64402-0.70808-0.63470 0.70498
  -5   1   1 5528.05  552.78   1-0.25266-0.21469 0.68342-0.61934-0.68490 0.75519
   5  -1  -1 7085.94  508.25   1 0.41948 0.04828 0.38321-0.44723 0.82290-0.89311
   5   1  -1 5665.82  419.40   1 0.33473 0.13302 0.30962-0.24561 0.88999-0.96019
  -5  -1   1 4484.18  507.77   1-0.11090-0.35458 0.11996-0.18378 0.98656-0.91678
  -5  -1   1 5561.46  378.22   1-0.42473-0.04269 0.48723-0.55128-0.76302 0.83322
  -5   1   034575.51 1138.35   1-0.15491-0.33006 0.69482-0.63074-0.70229 0.70229
  -5  -1   032267.80 1039.28   1-0.21870-0.26574-0.21019 0.14625-0.95288 0.95288
   5  -1   034514.11 1036.48   1 0.28169 0.20379 0.26340-0.32742 0.92263-0.92263
  -5  -1   029670.90  816.24   1-0.28904-0.19534 0.32277-0.38675 0.90125-0.90125
  -5  -1  -154778.79 1761.92   1-0.25164-0.25096 0.68358-0.74766-0.68512 0.61482
  -5   1  -160120.18 1915.10   1-0.07168-0.43093 0.69903-0.63495-0.71148 0.64119
  -5   1  -158300.21 1774.65   1-0.14129-0.36070-0.14304 0.20697-0.97957 0.90942
  -5  -1  -155877.09 1680.14   1-0.10747-0.39452-0.11364 0.04970-0.98769 0.91753
   5  -1   158499.40 1711.92   1 0.10527 0.39448-0.12603 0.06234 0.98642-0.91678
   5   1   155365.07 1573.77   1 0.14479 0.35496-0.17112 0.23481 0.97455-0.90490
  -5  -1  -150741.69 1449.48   1-0.42821-0.07402 0.48199-0.54598 0.76440-0.83451
  -5  -1  -2  221.52  412.92   1-0.17960-0.34064 0.69262-0.75670-0.69858 0.55800
  -5   1  -2  483.11  236.74   1-0.01718-0.50241-0.03642 0.10038-0.99918 0.85878
  -5  -1  -2   30.61  146.00   1-0.00900-0.51059-0.02928-0.03467-0.99953 0.85912
   5   1   2  123.45  133.04   1 0.01657 0.50252-0.02498 0.08880 0.99955-0.85998
   5  -1   2  495.87  161.72   1 0.01113 0.50796-0.01879-0.04502 0.99976-0.86020
  -5  -1  -3 2511.29  400.74   1-0.12007-0.41780 0.69719-0.76127-0.70675 0.49588
  -5   1  -3 2080.29  471.12   1 0.04893-0.58732 0.69710-0.63302-0.71529 0.50430
  -5   1  -3 2077.00  388.27   1 0.08266-0.61976 0.05075 0.01320-0.99528 0.78467
  -5  -1  -3 3273.79  383.15   1 0.07215-0.60926 0.04156-0.10553-0.99652 0.78591
   5   1   3 2843.73  425.73   1-0.08448 0.62145 0.08993-0.02611 0.99235-0.78301
   5  -1   3 2917.63  348.07   1-0.06667 0.60364 0.06969-0.13351 0.99533-0.78599
  -5  -1  -4 9656.82  695.23   1-0.07318-0.48231 0.69900-0.76308-0.71136 0.43019
  -5   1  -4 8547.14  645.17   1 0.08851-0.64461 0.69403-0.62995-0.71447 0.43316
  -5  -1  -4 9843.87 1352.28   1 0.13525-0.69086 0.09735-0.16141-0.98601 0.70473
  -5   1  -410282.36  713.09   1 0.15721-0.71281 0.11662-0.05257-0.98065 0.69937
   5   1   4 9794.04  735.27   1-0.15811 0.71339 0.17304-0.10910 0.97213-0.69222
   5  -1   4 9231.14  940.20   1-0.12734 0.68262 0.13813-0.20207 0.98219-0.70227
  -5  -1  -5 7155.24  723.94   1-0.03942-0.53438 0.69998-0.76407-0.71306 0.36142
  -5   1  -5 5222.19  698.48   1 0.11605-0.68986 0.69124-0.62716-0.71324 0.36159
  -5  -1  -5 6371.39  866.30   1 0.18332-0.75649 0.13956-0.20362-0.97309 0.62149
  -5   1  -5 6730.25  933.87   1 0.21139-0.78456 0.16425-0.10019-0.96350 0.61190
   5  -1   5 7480.58  812.07   1-0.17228 0.74531 0.18912-0.25306 0.96672-0.61682
   5   1   5 5270.63  775.92   1-0.20908 0.78211 0.23089-0.16695 0.95024-0.60034
  -5  -1  -6 3168.84  549.32   1-0.01606-0.57545 0.69975-0.76384-0.71419 0.29222
  -5   1  -6 5032.91  867.83   1 0.13299-0.72451 0.68925-0.62517-0.71220 0.29023
  -5  -1  -6 6798.11  955.67   1 0.21832-0.80905 0.17034-0.23440-0.96089 0.53897
  -5   1  -6 5376.70 1153.97   1 0.24909-0.83982 0.19744-0.13338-0.94814 0.52622
   5  -1   6 6225.07  756.96   1-0.20447 0.79526 0.22566-0.28960 0.95250-0.53262
   5   1   6 5257.41  828.70   1-0.24330 0.83408 0.26971-0.20577 0.93169-0.51181
  -5  -1  -7 2210.43  632.75   1-0.00296-0.60625 0.69946-0.76354-0.71466 0.22236
  -5   1  -7 1809.62  638.33   1 0.14059-0.74981 0.68830-0.62421-0.71167 0.21937
  -5  -1  -7 1249.76  381.17   1 0.24266-0.85095 0.19177-0.25583-0.95096 0.45872
  -5   1  -7 2058.23  649.97   1 0.27411-0.88240 0.21949-0.15543-0.93631 0.44407
   5   1   7 1517.58  405.37   1-0.26520 0.87374 0.29456-0.23062 0.91809-0.42823
  -5  -1  -8 2178.95  628.09   1 0.00076-0.62770 0.69935-0.76344-0.71477 0.15214
  -5   1  -8  768.63  441.20   1 0.13988-0.76681 0.68839-0.62430-0.71172 0.14909
  -5  -1  -8 1000.25  410.25   1 0.25837-0.88422 0.20561-0.26967-0.94391 0.38135
  -5   1  -8 1150.55  366.86   1 0.28935-0.91520 0.23294-0.16888-0.92844 0.36588
   5   1   8  926.16  280.97   1-0.27795 0.90423 0.30902-0.24508 0.90953-0.34969
   5  -1   8  739.98  253.05   1-0.24048 0.86677 0.26651-0.33045 0.93334-0.37350
  -5  -1  -9 1677.62  450.66   1-0.00411-0.64053 0.69949-0.76357-0.71462 0.08166
  -5   1  -9 2294.95  621.76   1 0.13166-0.77631 0.68942-0.62533-0.71229 0.07933
  -5  -1  -9 2604.85  736.84   1 0.26702-0.91044 0.21324-0.27730-0.93979 0.30691
  -5   1  -9 1878.14  637.30   1 0.29691-0.94033 0.23961-0.17555-0.92435 0.29147
   5   1   9 4250.91  662.54   1-0.28352 0.92777 0.31649-0.25252 0.90523-0.27470
   5  -1   9 2481.92  629.83   1-0.24795 0.89199 0.27499-0.33893 0.92892-0.29910
  -5  -2  12 2101.72  548.81   1-0.98620 0.71356-0.08306-0.04492 0.14318 0.69914
   5  -2 -12 2554.44  599.62   1 0.71126-0.43865 0.61578-0.74398-0.33899-0.50405
  -5  -2  12 2049.00  444.66   1-0.61184 0.33967 0.69256-0.82052 0.38209 0.45973
  -5  -2  11 6571.21 1265.97   1-0.99715 0.70687-0.01493-0.11304 0.07388 0.69824
   5  -2 -11 9203.55 1015.94   1 0.72443-0.43409 0.62829-0.75649-0.28362-0.48916
   5   2 -11 8021.19 1035.25   1 0.75116-0.46081 0.65734-0.52927-0.06041-0.71239
  -5  -2  11 9196.91  923.00   1-0.62315 0.33241 0.70716-0.83515 0.33407 0.43819
  -5   2  11 8711.18  927.10   1-0.65805 0.36776 0.74872-0.62070 0.07979 0.69244
  -5   2  10 1811.67  472.88   1-0.99717 0.69150 0.07284 0.05510-0.01807 0.72026
  -5  -2  10 2300.20  696.88   1-0.99866 0.69299 0.05152-0.17947 0.00393 0.69824
   5  -2 -10 1318.89  453.61   1 0.73560-0.42752 0.63910-0.76730-0.22455-0.47798
   5   2 -10 3398.36  884.15   1 0.75172-0.44360 0.65919-0.53112 0.01932-0.72188
  -5  -2  10 2074.05  536.13   1-0.63402 0.32563 0.71962-0.84761 0.28312 0.41894
  -5   2  10 2211.99  674.51   1-0.66007 0.35208 0.75118-0.62316 0.00367 0.69835
  -5  -2   9 9348.87  765.43   1-0.98990 0.66628 0.12308-0.25102-0.07020 0.70217
  -5   2   9 7444.37  710.68   1-0.97673 0.65298 0.17530-0.04729-0.12355 0.75589
   5  -2  -910429.83  759.30   1 0.74448-0.41866 0.64797-0.77617-0.16082-0.47145
   5   2  -9 9599.73  915.02   1 0.74700-0.42112 0.65649-0.52842 0.10486-0.73716
  -5  -2   910006.11  619.51   1-0.64345 0.31741 0.73044-0.85843 0.22894 0.40290
  -5   2   9 8882.14  733.06   1-0.65798 0.33228 0.74896-0.62094-0.07810 0.70993
  -5  -2   8 9733.01 1471.41   1-0.96974 0.62810 0.19613-0.32414-0.14531 0.70739
  -5   2   8 9634.49  852.14   1-0.93271 0.59107 0.27722-0.14921-0.23061 0.79269
   5  -2  -8 7853.24  726.06   1 0.74963-0.40599 0.65546-0.78353-0.09168-0.47036
   5   2  -8 9645.36  781.53   1 0.73516-0.39120 0.64872-0.52072 0.19671-0.75881
  -5  -2   812715.62  861.45   1-0.65126 0.30757 0.73943-0.86742 0.17053 0.39111
  -5   2   8 9876.26  815.93   1-0.65072 0.30732 0.74086-0.61284-0.16636 0.72798
  -5  -2   7 9593.42  998.91   1-0.93746 0.57793 0.26854-0.39655-0.22143 0.71325
  -5   2   7 8727.40  832.73   1-0.86321 0.50295 0.37605-0.24811-0.33682 0.82793
   5  -2  -7 8817.15  625.05   1 0.75206-0.39065 0.65893-0.78700-0.01427-0.47751
   5   2  -7 8085.25  807.03   1 0.71549-0.35378 0.63309-0.50509 0.29538-0.78722
  -5  -2   7 9299.23  569.80   1-0.65714 0.29579 0.74622-0.87421 0.10639 0.38504
  -5   2   710037.04  776.95   1-0.63630 0.27491 0.72569-0.59754-0.26169 0.75323
  -5  -2   6 6751.66  837.61   1-0.89253 0.51510 0.33950-0.46751-0.29683 0.71839
  -5   2   6 7664.80 1089.53   1-0.77088 0.39297 0.46607-0.33814-0.43416 0.85512
   5  -2  -6 8452.57  588.40   1 0.74938-0.37020 0.65805-0.78612 0.07339-0.49492
   5   2  -6 7569.39  767.06   1 0.68526-0.30578 0.60827-0.48027 0.40051-0.82208
  -5  -2   6 8610.48  496.36   1-0.65970 0.28090 0.75069-0.87871 0.03528 0.38593
  -5   2   6 9565.33  815.09   1-0.61370 0.23464 0.70036-0.57222-0.36449 0.78581
  -5  -2   528935.85 2190.09   1-0.83455 0.43897 0.40756-0.53550-0.37068 0.72148
  -5   2   529315.83 1034.96   1-0.65892 0.26301 0.54397-0.41602-0.51952 0.87048
   5  -2  -524968.13  950.06   1 0.73853-0.34129 0.65131-0.77931 0.17421-0.52553
   5   2  -526257.25 1108.07   1 0.64164-0.24463 0.57253-0.44453 0.51037-0.86171
  -5  -2   526775.06  997.78   1-0.65926 0.26276 0.75036-0.87838-0.04822 0.39924
  -5   2   525676.63 1078.16   1-0.57984 0.18305 0.66275-0.53467-0.47384 0.82499
  -5  -2   472787.10 2181.89   1-0.76548 0.35224 0.47047-0.59840-0.43897 0.71960
  -5   2   470202.70 2086.46   1-0.53485 0.12068 0.60562-0.47750-0.58919 0.87030
   5  -2  -473200.52 2142.52   1 0.71611-0.30111 0.63360-0.76160 0.29278-0.57383
   5   2  -471337.11 2200.59   1 0.58275-0.16792 0.52261-0.39460 0.62230-0.90337
  -5  -2   474990.41 2176.68   1-0.65258 0.23839 0.74296-0.87098-0.14879 0.42960
  -5   2   471592.73 2187.67   1-0.53240 0.11795 0.60912-0.48103-0.58780 0.86872
  -5  -2   363991.76 1954.28   1-0.68681 0.25560 0.52700-0.65495-0.50055 0.71113
  -5   2   362550.46 1888.09   1-0.40694-0.02490 0.64990-0.52178-0.64188 0.85271
   5   2  -363663.60 1932.96   1 0.50691-0.07434 0.45793-0.32987 0.73029-0.94109
  -5  -2   365617.56 1902.74   1-0.63416 0.20213 0.72329-0.85143-0.27327 0.48393
  -5   2   366886.09 2033.40   1-0.46878 0.03660 0.53729-0.40919-0.70110 0.91171
  -5  -2   217396.82  699.90   1-0.60186 0.15299 0.57483-0.70278-0.55437 0.69475
  -5   2   216448.74  709.73   1-0.28368-0.16603 0.67828-0.55011-0.67783 0.81841
   5  -2  -215916.52  569.26   1-0.06876 0.51834-0.08134-0.04658-0.99431 0.85390
   5  -2  -217231.22  596.29   1 0.60222-0.15177 0.53918-0.66718 0.58873-0.72926
   5   2  -219379.95  772.19   1 0.41515 0.03488 0.37946-0.25143 0.82683-0.96724
  -5  -2   215673.21  624.91   1 0.07194-0.51839-0.08803-0.03934 0.99351-0.85423
  -5  -2   217562.22  599.13   1-0.59352 0.14376 0.67818-0.80626-0.43335 0.57381
  -5   2   220667.51  923.56   1-0.38922-0.06057 0.44684-0.31874-0.80550 0.94590
  -5   2   134992.03 1134.17   1-0.17164-0.29570 0.69338-0.56521-0.69982 0.77011
   5  -2  -131215.02  961.92   1 0.13513 0.33266 0.09724-0.22535-0.98604 0.91572
   5  -2  -134585.65  991.69   1 0.49084-0.02269 0.44410-0.57216 0.74956-0.81982
   5   2  -136407.17 1207.51   1 0.31285 0.15490 0.29057-0.16254 0.90425-0.97446
  -5  -2   134195.98  999.57   1-0.15737-0.30914 0.17220-0.30008 0.97240-0.90242
  -5  -2   132848.08  900.48   1-0.51146 0.04405 0.58540-0.71348-0.62904 0.69927
  -5  -2   031672.37 1129.46   1-0.42935-0.05555 0.64333-0.77145-0.63385 0.63385
  -5   2   033147.39 1284.47   1-0.07471-0.41026 0.69896-0.57080-0.71123 0.71123
  -5  -2   032243.29 1118.28   1-0.20642-0.27802-0.19955 0.07167-0.95789 0.95789
   5  -2   026769.75  821.00   1 0.33083 0.15445 0.27004-0.39814-0.90422 0.90422
   5  -2   030543.99  945.31   1 0.34322 0.14226 0.31701-0.44504 0.88413-0.88413
   5  -2   031246.97 1012.28   1 0.19688 0.28510-0.23057 0.10319 0.95292-0.95292
  -5  -2   028951.92  843.61   1-0.36807-0.11630 0.41261-0.54056 0.83322-0.83322
  -5  -2  -157067.94 1799.10   1-0.34964-0.15295 0.66465-0.79277-0.66029 0.59001
  -5   2  -161702.06 1955.89   1 0.00540-0.50837 0.69921-0.57104-0.71489 0.64456
  -5   2  -157167.52 1645.10   1-0.18267-0.31932-0.17895 0.30682-0.96675 0.89659
  -5  -2  -161497.97 2313.42   1-0.10557-0.39642-0.11199-0.01587-0.98808 0.91793
   5  -2   152077.06 1488.84   1 0.48467 0.01816 0.40755-0.53567-0.77394 0.84423
   5   2   155406.95 1548.33   1 0.19698 0.30277-0.23068 0.35807 0.95287-0.88323
   5  -2   161113.48 1802.32   1 0.10217 0.39758-0.12250-0.00487 0.98719-0.91755
  -5  -2  -156897.41 1589.85   1-0.50808 0.00584 0.57276-0.70074 0.64327-0.71338
  -5  -2  -227008.37 1066.84   1-0.27872-0.24151 0.67915-0.80731-0.67901 0.53843
  -5   2  -228205.51 1121.06   1 0.06928-0.58996 0.69566-0.56749-0.71501 0.57435
  -5   2  -231990.83 1795.27   1-0.03842-0.48117-0.05493 0.18285-0.99775 0.85734
  -5  -2  -227965.38 1032.83   1-0.01582-0.50377-0.03523-0.09269-0.99925 0.85884
   5   2   227944.51  894.71   1 0.03772 0.48137-0.04904 0.17669 0.99808-0.85852
   5  -2   229760.58 1047.78   1 0.01858 0.50050-0.02727-0.10036 0.99945-0.85989
  -5  -2  -224454.00  767.44   1-0.58434 0.06442 0.66124-0.78921 0.47042-0.61073
  -5  -2  -324571.80  965.43   1-0.21829-0.31957 0.68825-0.81641-0.69184 0.48097
  -5  -2  -320667.90 1985.47   1 0.05901-0.59612 0.03008-0.15800-0.99780 0.78719
  -5   2  -320529.15 1264.55   1 0.07625-0.61335 0.04514 0.08277-0.99606 0.78545
   5   2   321134.90  668.34   1-0.08363 0.62059 0.08896 0.03867 0.99251-0.78317
   5  -2   320350.28 1173.90   1-0.05179 0.58875 0.05276-0.18040 0.99726-0.78792
  -5  -2  -425225.11 1105.88   1-0.16932-0.38618 0.69359-0.82175-0.70018 0.41901
  -5   2  -424816.26 1268.86   1 0.15375-0.70985 0.68654-0.55837-0.71064 0.42933
  -5  -2  -427520.57 2375.69   1 0.11884-0.67345 0.08240-0.21033-0.98948 0.70867
  -5   2  -425125.30  955.48   1 0.15975-0.71535 0.11885 0.00925-0.97997 0.69869
   5  -2   428687.75 1206.80   1-0.10766 0.66249 0.11627-0.24391 0.98736-0.70824
   5   2   423541.38  965.29   1-0.16767 0.72295 0.18390-0.05602 0.96853-0.68861
  -5  -2  -513776.09  879.64   1-0.13187-0.44125 0.69649-0.82465-0.70534 0.35388
  -5   2  -514908.85 1224.06   1 0.17774-0.75155 0.68301-0.55484-0.70844 0.35680
  -5  -2  -514664.37 1571.48   1 0.16421-0.73738 0.12277-0.25088-0.97875 0.62715
  -5   2  -511841.17 1640.39   1 0.21876-0.79192 0.17073-0.04262-0.96072 0.60912
   5  -2   513662.54 1295.33   1-0.15080 0.72383 0.16475-0.29263 0.97473-0.62483
   5   2   513718.49 1251.88   1-0.22328 0.79631 0.24699-0.11911 0.94294-0.59304
  -5  -2  -634565.41 1375.87   1-0.10554-0.48522 0.69792-0.82608-0.70835 0.28660
  -5   2  -635847.22 1500.74   1 0.19168-0.78320 0.68077-0.55260-0.70697 0.28499
  -5  -2  -631617.97 2459.90   1 0.19840-0.78913 0.15282-0.28093-0.96813 0.54621
  -5   2  -632346.94 2510.20   1 0.25877-0.84950 0.20597-0.07786-0.94372 0.52180
   5  -2   631918.70 1787.87   1-0.18229 0.77307 0.20048-0.32836 0.96258-0.54270
   5   2   631915.69 1293.94   1-0.25911 0.84990 0.28765-0.15977 0.92201-0.50213
  -5  -2  -7 3003.12  719.93   1-0.08966-0.51872 0.69854-0.82670-0.70992 0.21788
  -5   2  -7 2857.51  795.58   1 0.19684-0.80607 0.67990-0.55173-0.70638 0.21408
  -5  -2  -7  866.43  352.33   1 0.22270-0.83099 0.17420-0.30231-0.95919 0.46695
  -5   2  -7 2971.44  784.79   1 0.28469-0.89298 0.22883-0.10072-0.93090 0.43866
   5  -2   7 2603.58  726.97   1-0.20446 0.81300 0.22564-0.35352 0.95251-0.46265
   5   2   7 2056.74  450.85   1-0.28118 0.88972 0.31269-0.18481 0.90728-0.41742
  -5  -2  -8 5314.14  685.45   1-0.08354-0.54248 0.69873-0.82690-0.71048 0.14815
  -5   2  -8 3808.05  836.23   1 0.19425-0.82119 0.68034-0.55217-0.70668 0.14405
  -5  -2  -8 4871.73  884.70   1 0.23883-0.86468 0.18840-0.31651-0.95260 0.39004
  -5   2  -8 4375.36  740.31   1 0.30005-0.92590 0.24238-0.11427-0.92261 0.36005
   5  -2   8 4355.38  632.13   1-0.21903 0.84532 0.24217-0.37005 0.94518-0.38534
   5   2   8 5137.17  587.20   1-0.29335 0.91984 0.32767-0.19973 0.89809-0.33762
  -5  -2  -9 1751.31  440.53   1-0.08654-0.55710 0.69864-0.82681-0.71021 0.07758
  -5   2  -9 1521.40  651.60   1 0.18467-0.82931 0.68191-0.55374-0.70773 0.07477
  -5   2  -9 1295.16  466.53   1 0.30729-0.95070 0.24877-0.12066-0.91851 0.28564
   5  -2   9 1421.04  475.50   1-0.22734 0.87138 0.25160-0.37948 0.94074-0.31092
   5   2   9 1724.54  403.52   1-0.29819 0.94245 0.33318-0.20523 0.89446-0.26393
  -5  -3  1210114.47 2374.15   1-0.98501 0.71238-0.08808-0.10389 0.14826 0.69405
   5  -3 -1212421.60 1871.18   1 0.69456-0.42153 0.59836-0.79067-0.39942-0.44399
   5   3 -1215800.96 2541.53   1 0.74937-0.47679 0.65516-0.46305-0.09591-0.74715
  -5  -3  1215100.45 2223.06   1-0.59193 0.31976 0.66989-0.86184 0.44816 0.39366
  -5   3  1212116.56 1835.84   1-0.65729 0.38421 0.74639-0.55440 0.10422 0.73824
  -5  -3  11 1612.07  493.38   1-0.99617 0.70589-0.02469-0.16728 0.08384 0.68828
   5  -3 -11  760.11  458.49   1 0.70795-0.41760 0.61267-0.80497-0.35133-0.42145
   5   3 -11 1389.54  486.50   1 0.75205-0.46170 0.65884-0.46673-0.01850-0.75430
  -5  -3  11 1913.04  537.42   1-0.60471 0.31484 0.68444-0.87639 0.40725 0.36442
  -5   3  11 2176.14  664.47   1-0.65981 0.36951 0.75083-0.55880 0.02981 0.74242
  -5  -3  10 8996.51 1160.25   1-0.99913 0.69346 0.03691-0.22883 0.01900 0.68318
   5  -3 -10 8212.63  763.95   1 0.72080-0.41271 0.62482-0.81712-0.30007-0.40246
   5   3 -10 7737.99  760.93   1 0.74995-0.44184 0.65840-0.46629 0.06382-0.76638
  -5  -3  10 7691.41  594.73   1-0.61636 0.30879 0.69770-0.88965 0.36512 0.33640
  -5   3  10 9698.11  936.83   1-0.65921 0.35121 0.75031-0.55828-0.04960 0.75164
  -5  -3   9  771.65  187.20   1-0.99344 0.66981 0.10310-0.29502-0.04943 0.68140
  -5   3   9  860.21  268.40   1-0.97619 0.65244 0.17702 0.01498-0.12535 0.75769
   5  -3  -9  988.26  474.80   1 0.73199-0.40617 0.63557-0.82787-0.24543-0.38685
  -5  -3   9 1320.52  393.97   1-0.62589 0.29985 0.71030-0.90228 0.32207 0.30978
  -5   3   9 1897.99  664.46   1-0.65396 0.32826 0.74450-0.55247-0.13433 0.76616
  -5  -3   8 6127.97  908.17   1-0.97820 0.63661 0.17002-0.36194-0.11921 0.68096
  -5   3   8 6442.04  942.69   1-0.92551 0.58387 0.28973-0.09772-0.24386 0.80593
   5  -3  -8 4855.56  514.83   1 0.74131-0.39776 0.64475-0.83705-0.18636-0.37565
  -5  -3   8 5338.77  449.28   1-0.63528 0.29159 0.72107-0.91305 0.27652 0.28512
  -5   3   8 7350.98  788.44   1-0.64248 0.29874 0.73256-0.54034-0.22486 0.78662
  -5  -3   749886.50 1791.82   1-0.95279 0.59325 0.23769-0.42971-0.18891 0.68073
  -5   3   748879.63 2954.75   1-0.84444 0.48418 0.39712-0.20522-0.35944 0.85055
   5  -3  -746128.54 1699.08   1 0.74838-0.38709 0.65206-0.84436-0.12135-0.37041
   5   3  -747584.88 1809.15   1 0.70286-0.34115 0.62280-0.43080 0.34363-0.83547
  -5  -3   748886.17 1725.26   1-0.64355 0.28221 0.73056-0.92255 0.22827 0.26316
  -5   3   749923.66 1925.71   1-0.62421 0.26281 0.71216-0.51994-0.32122 0.81276
  -5  -3   6 7536.53 1184.32   1-0.91682 0.53939 0.30394-0.49595-0.25893 0.68049
  -5   3   6 9539.96  472.58   1-0.73724 0.35899 0.49256-0.30063-0.46244 0.88359
   5  -3  -6 7075.26  499.16   1 0.75154-0.37235 0.65787-0.84998-0.04886-0.37266
   5   3  -6 9717.06  672.00   1 0.66821-0.28900 0.59482-0.40281 0.44685-0.86845
  -5  -3   6 8152.21  428.41   1-0.65062 0.27162 0.73868-0.93067 0.17615 0.24508
  -5   3   6 6833.62  616.93   1-0.59701 0.21796 0.68160-0.48938-0.42306 0.84438
  -5  -3   5 5583.25 1080.70   1-0.86978 0.47420 0.36823-0.56013-0.32845 0.67924
  -5   3   5 5575.96  385.64   1-0.61051 0.21460 0.57046-0.37853-0.54940 0.90036
   5  -3  -5 7253.81  510.81   1 0.75123-0.35428 0.65905-0.85115 0.03603-0.38731
   5   3  -5 6256.52  704.06   1 0.62119-0.22418 0.55526-0.36325 0.55298-0.90431
  -5  -3   5 5577.70  372.09   1-0.65627 0.25962 0.74521-0.93720 0.11812 0.23290
  -5   3   5 7667.82  772.95   1-0.55877 0.16198 0.63895-0.44682-0.52868 0.87983
  -5  -3   437114.37 1308.91   1-0.81303 0.39980 0.42889-0.62079-0.39372 0.67436
  -5   3   437064.89 1248.54   1-0.47370 0.05953 0.62889-0.43671-0.61652 0.89762
   5  -3  -435660.01 1172.90   1 0.74366-0.32895 0.65412-0.84623 0.13811-0.41914
   5   3  -435730.76 1373.72   1 0.55991-0.14512 0.50338-0.31129 0.65810-0.93916
  -5  -3   433495.96 1103.78   1-0.65923 0.24504 0.75012-0.94215 0.05213 0.22868
  -5   3   436942.97 1384.26   1-0.50805 0.09360 0.58153-0.38940-0.63537 0.91629
  -5  -3   370066.10 2100.49   1-0.74740 0.31651 0.48461-0.67651-0.45447 0.66494
  -5   3   368895.92 2080.98   1-0.33722-0.09462 0.66747-0.47529-0.66389 0.87472
   5  -3  -370211.30 2008.69   1 0.72252-0.28975 0.63875-0.83076 0.26447-0.47526
   5   3  -365711.78 2058.06   1 0.48442-0.05185 0.43856-0.24647 0.75696-0.96776
  -5  -3   370444.02 1993.89   1-0.65969 0.22780 0.75082-0.94285-0.03255 0.24316
  -5   3   370740.21 2170.10   1-0.44356 0.01138 0.50864-0.31649-0.73792 0.94852
  -5   3   2151990.0 4399.18   1-0.21002-0.23969 0.68927-0.49703-0.69338 0.83396
   5  -3  -2122940.7 3339.96   1-0.05201 0.50159-0.06676-0.12512-0.99641 0.85600
   5  -3  -2148529.7 4160.59   1 0.67684-0.22639 0.60202-0.79403 0.42361-0.56414
   5   3  -2140133.9 4067.22   1 0.39613 0.05389 0.36298-0.17094 0.84339-0.98380
  -5  -3   2133983.0 3603.58   1 0.05218-0.49981-0.06550-0.12595 0.99648-0.85692
  -5  -3   2144156.8 4011.06   1-0.65229 0.20269 0.74263-0.93466-0.15168 0.29209
  -5  -3   112497.38  679.85   1-0.59880 0.13227 0.57635-0.76828-0.55610 0.62629
  -5   3   112825.55  718.14   1-0.09793-0.36941 0.69824-0.50599-0.70912 0.77942
   5  -3  -111612.29  455.18   1 0.19414 0.27365 0.14907-0.34124-0.96957 0.89925
   5  -3  -112360.03  451.48   1 0.58685-0.11858 0.52609-0.71810 0.61548-0.68575
   5   3  -113743.80  700.20   1 0.30053 0.16723 0.27983-0.08779 0.91179-0.98200
  -5  -3   112986.72  603.62   1-0.25636-0.21014 0.28453-0.47635 0.92375-0.85377
  -5  -3   113439.81  466.32   1-0.62036 0.15301 0.70784-0.90005-0.33779 0.40801
  -5  -3   054360.33 1722.70   1-0.52254 0.03763 0.61063-0.80281-0.59503 0.59503
  -5   3   054444.28 1764.87   1-0.00359-0.48166 0.69948-0.50722-0.71464 0.71464
  -5  -3   056737.21 1767.33   1-0.20252-0.28192-0.19617 0.00435-0.95942 0.95942
   5  -3   047360.77 1335.52   1 0.41829 0.06699 0.34754-0.53969-0.83918 0.83918
   5  -3   051172.74 1452.91   1 0.43899 0.04649 0.40010-0.59215 0.80448-0.80448
   5  -3   055026.77 1677.86   1 0.19039 0.29159-0.22316 0.03209 0.95600-0.95600
  -5  -3   051079.24 1396.75   1-0.50654 0.02201 0.57101-0.76299 0.64603-0.64603
  -5  -3   052380.02 1450.41   1-0.51325 0.02818 0.58743-0.77955-0.62569 0.62569
  -5  -3  -125600.42 1005.62   1-0.44900-0.05359 0.63717-0.82935-0.62642 0.55614
  -5   3  -125543.16 1144.96   1 0.07262-0.57559 0.69540-0.50314-0.71494 0.64461
  -5  -3  -123466.26 1497.06   1-0.11025-0.39174-0.11606-0.07574-0.98710 0.91695
   5  -3   121089.25  688.47   1 0.57096-0.06811 0.48484-0.67702-0.66251 0.73280
   5  -3   125047.34  943.78   1 0.10551 0.39424-0.12631-0.06476 0.98636-0.91672
  -5  -3  -123291.93  700.41   1-0.61083 0.10862 0.69141-0.88336 0.38577-0.45592
  -5  -3  -2 4830.82  414.19   1-0.38152-0.13876 0.65680-0.84898-0.65041 0.50986
  -5   3  -2 4815.08  527.14   1 0.13211-0.65279 0.68936-0.49711-0.71226 0.57160
  -5   3  -2 5357.75  685.28   1-0.07941-0.44018-0.09060 0.28249-0.99271 0.85230
  -5  -3  -2 6450.10  703.05   1-0.02757-0.49203-0.04547-0.14641-0.99858 0.85817
   5  -3   2 4279.27  221.44   1 0.65796-0.13748 0.56469-0.75701-0.49820 0.63877
   5   3   2 4624.42  479.70   1 0.08320 0.43432-0.10086 0.29194 0.99141-0.85213
   5  -3   2 5537.32  820.85   1 0.03018 0.48891-0.04046-0.15099 0.99872-0.85916
  -5  -3  -2 4300.77  222.90   1-0.64447 0.12423 0.73161-0.92360 0.22225-0.36266
  -5  -3  -313625.28  742.97   1-0.32240-0.21556 0.67066-0.86284-0.66802 0.45719
  -5   3  -3 9480.33  844.32   1 0.17675-0.71514 0.68316-0.49091-0.70854 0.49756
  -5   3  -3 9109.13  796.26   1 0.05744-0.59455 0.02871 0.16317-0.99793 0.78732
  -5  -3  -312190.60 1360.44   1 0.04212-0.57923 0.01533-0.20722-0.99899 0.78838
   5  -3   312059.92 1276.08   1-0.03428 0.57124 0.03285-0.22432 0.99887-0.78952
   5   3   310454.04  824.64   1-0.07094 0.60791 0.07454 0.11691 0.99469-0.78534
  -5  -3  -3 8374.58  364.97   1-0.65634 0.11846 0.74530-0.93728 0.11719-0.32780
  -5  -3  -416460.24  863.18   1-0.27320-0.28230 0.68010-0.87234-0.68030 0.39914
  -5   3  -415183.81  942.20   1 0.20854-0.76464 0.67786-0.48561-0.70498 0.42367
  -5  -3  -414631.90 1486.93   1 0.09875-0.65336 0.06483-0.25671-0.99299 0.71218
  -5   3  -414422.30  669.89   1 0.15402-0.70962 0.11382 0.07834-0.98148 0.70021
   5  -3   417187.89 1909.46   1-0.08653 0.64136 0.09226-0.28372 0.99196-0.71284
   5   3   415650.41 1092.92   1-0.17111 0.72639 0.18780 0.00401 0.96718-0.68726
  -5  -3  -532748.76 1512.21   1-0.23437-0.33875 0.68610-0.87835-0.68871 0.33725
  -5   3  -529973.80 1591.56   1 0.22923-0.80310 0.67411-0.48179-0.70215 0.35056
  -5  -3  -534270.92 3161.18   1 0.14244-0.71561 0.10366-0.29582-0.98435 0.63276
  -5   3  -528723.07 1559.43   1 0.22001-0.79318 0.17183 0.02032-0.96024 0.60864
   5  -3   532700.44 2152.73   1-0.12780 0.70083 0.13864-0.33046 0.98206-0.63216
   5   3   529327.17 1419.39   1-0.23346 0.80649 0.25855-0.06673 0.93736-0.58746
  -5  -3  -638137.36 2454.69   1-0.20615-0.38461 0.68974-0.88198-0.69408 0.27233
  -5   3  -643756.58 8615.24   1 0.24052-0.83210 0.67186-0.47954-0.70052 0.27861
  -5  -3  -642050.39 8558.61   1 0.17601-0.76674 0.13314-0.32530-0.97534 0.55342
  -5   3  -638750.65 2685.81   1 0.26351-0.85423 0.21014-0.01798-0.94148 0.51956
   5  -3   643650.77 8568.71   1-0.15865 0.74943 0.17365-0.36547 0.97194-0.55206
   5   3   638052.78 2353.89   1-0.27173 0.86251 0.30197-0.11015 0.91376-0.49388
  -5  -3  -7 1519.73  474.51   1-0.18828-0.42011 0.69173-0.88398-0.69717 0.20513
  -5   3  -7  995.51  530.64   1 0.24361-0.85290 0.67123-0.47891-0.70006 0.20783
  -5  -3  -7 1637.25  454.78   1 0.20038-0.80867 0.15456-0.34673-0.96744 0.47520
  -5   3  -7  779.69  415.12   1 0.29098-0.89927 0.23438-0.04221-0.92757 0.43533
   5  -3   7 2058.32  558.03   1-0.18094 0.78948 0.19895-0.39077 0.96315-0.47329
   5   3   7 1884.36  416.12   1-0.29442 0.90315 0.32888-0.13697 0.89729-0.40688
  -5  -3  -8 1176.92  387.59   1-0.18036-0.44566 0.69254-0.88479-0.69846 0.13613
  -5   3  -8 1671.54  676.93   1 0.23945-0.86645 0.67208-0.47976-0.70068 0.13814
  -5  -3  -8 1642.27  408.16   1 0.21697-0.84282 0.16916-0.36132-0.96140 0.39884
  -5   3  -8  627.33  281.06   1 0.30686-0.93271 0.24839-0.05622-0.91876 0.35621
   5  -3   8 1441.19  450.98   1-0.19606 0.82235 0.21611-0.40793 0.95647-0.39664
  -5  -4  12  567.07  292.50   1-0.98292 0.71028-0.09644-0.15952 0.15672 0.68559
   5  -4 -12  969.19  359.33   1 0.67222-0.39919 0.57776-0.83418-0.46292-0.38049
   5   4 -12 1972.32  696.31   1 0.75110-0.47852 0.65726-0.40112-0.06197-0.78109
  -5   4  12 2893.34  727.99   1-0.65882 0.38622 0.74963-0.49359 0.06321 0.77922
  -5  -4  1120305.89 1855.51   1-0.99460 0.70432-0.03735-0.21861 0.09675 0.67537
   5  -4 -1119884.70 1295.60   1 0.68725-0.39654 0.59159-0.84801-0.42154-0.35158
   5   4 -1121206.93 4280.25   1 0.75176-0.46141 0.65920-0.40306 0.01752-0.79033
  -5  -4  1120740.68 1308.73   1-0.58001 0.29014 0.65631-0.91225 0.48252 0.28915
  -5   4  1122770.75 4579.24   1-0.66000 0.36970 0.75113-0.49509-0.01402 0.78625
  -5  -4  10 3958.60  896.19   1-0.99913 0.69346 0.01985-0.27575 0.03655 0.66563
   5  -4 -10 4318.67  569.75   1 0.70096-0.39258 0.60430-0.86072-0.37876-0.32408
   5   4 -10 3912.41  937.28   1 0.74728-0.43917 0.65669-0.40055 0.10160-0.80416
  -5  -4  10 4420.02  490.71   1-0.59140 0.28384 0.66929-0.92522 0.44975 0.25177
  -5   4  10 4217.79  608.44   1-0.65695 0.34895 0.74783-0.49179-0.09569 0.79772
  -5  -4   925194.19 2048.40   1-0.99634 0.67271 0.08117-0.33706-0.02669 0.65866
   5  -4  -923360.58 1601.26   1 0.71226-0.38644 0.61673-0.87313-0.33513-0.29714
   5   4  -924479.11 1776.30   1 0.73613-0.40994 0.64947-0.39346 0.19051-0.82287
  -5  -4   920370.89 1375.01   1-0.60167 0.27641 0.68098-0.93691 0.41742 0.21395
  -5  -4   810754.58 1728.52   1-0.98551 0.64392 0.14309-0.39898-0.09106 0.65281
  -5   4   8 9705.41  861.86   1-0.92087 0.57923 0.29743-0.04141-0.25202 0.81410
   5  -4  -8 9403.79  666.28   1 0.72338-0.37982 0.62728-0.88368-0.28848-0.27354
   5   4  -811771.58 1051.78   1 0.71814-0.37418 0.63523-0.37923 0.28416-0.84626
  -5  -4   811308.15  635.42   1-0.61083 0.26787 0.69141-0.94734 0.38578 0.17543
  -5   4   810829.10  809.93   1-0.63412 0.29039 0.72325-0.46696-0.27347 0.83523
  -5  -4   723311.75 2026.75   1-0.96621 0.60668 0.20568-0.46169-0.15530 0.64712
  -5   4   720042.75 1010.04   1-0.82725 0.46699 0.41500-0.15914-0.37871 0.86982
   5  -4  -720916.68  905.21   1 0.73318-0.37189 0.63673-0.89313-0.23876-0.25300
   5   4  -722215.41 1195.32   1 0.69130-0.32959 0.61328-0.35727 0.38207-0.87391
  -5  -4   720753.96  870.42   1-0.61887 0.25821 0.70056-0.95649 0.35526 0.13580
  -5   4   720278.99 1033.97   1-0.61244 0.25105 0.69895-0.44266-0.36928 0.86082
  -5  -4   673625.21 2275.02   1-0.93813 0.56070 0.26729-0.52331-0.22011 0.64167
  -5   4   662549.60 1861.94   1-0.70449 0.32624 0.51550-0.25960-0.48778 0.90893
   5  -4  -663177.77 1904.68   1 0.74154-0.36251 0.64498-0.90138-0.18468-0.23684
   5   4  -663394.85 2063.13   1 0.65374-0.27453 0.58270-0.32669 0.48277-0.90437
  -5  -4   665646.53 1944.42   1-0.62462 0.24562 0.70885-0.96483 0.32766 0.09357
  -5   4   661990.62 2054.25   1-0.58174 0.20260 0.66489-0.40872-0.46850 0.88988
  -5  -4   512446.01 1929.27   1-0.90114 0.50582 0.32750-0.58352-0.28402 0.63532
  -5   4   510784.16  483.19   1-0.56289 0.16698 0.59327-0.33737-0.57548 0.92644
   5  -4  -513868.18  640.73   1 0.74816-0.35139 0.65182-0.90822-0.12399-0.22727
  -5  -4   5 9743.74  420.42   1-0.63013 0.23348 0.71516-0.97114 0.30243 0.04859
  -5   4   511913.68  955.72   1-0.54098 0.14419 0.61883-0.36266-0.56954 0.92069
  -5  -4   4 3615.83  797.90   1-0.85517 0.44193 0.38529-0.64116-0.34673 0.62737
  -5   4   4 2904.82  338.98   1-0.41483 0.00067 0.64764-0.39140-0.63911 0.92021
   5  -4  -4 2805.23  316.77   1 0.75139-0.33667 0.65765-0.91379-0.05382-0.22719
  -5  -4   4 2881.61  236.95   1-0.63399 0.21968 0.71958-0.97556 0.28328-0.00245
  -5   4   4 2399.25  588.02   1-0.48870 0.07415 0.55992-0.30371-0.66906 0.94987
   5   4  -4 2521.15  256.20   1-0.43460 0.84915 0.49846-0.24225-0.75010 0.46929
  -5  -4   359586.50 2016.11   1-0.80169 0.37080 0.43945-0.69532-0.40517 0.61565
  -5   4   377560.21 2374.11   1-0.27210-0.15999 0.68029-0.42396-0.68056 0.89143
   5  -4  -374267.48 2140.26   1 0.75124-0.31875 0.65905-0.91519 0.03582-0.24659
   5   4  -378250.49 2474.04   1 0.46894-0.03637 0.42522-0.16910 0.77413-0.98492
  -5  -4   373676.55 2096.24   1-0.63512 0.20316 0.72088-0.97686 0.27738-0.06676
  -5   4   374122.28 2368.41   1-0.42542-0.00675 0.48802-0.23182-0.76213 0.97273
  -5  -4   216121.50  724.86   1-0.74171 0.29317 0.48888-0.74475-0.45917 0.59949
  -5   4   216893.50  766.81   1-0.14338-0.30634 0.69570-0.43938-0.70386 0.84445
   5  -4  -213019.75  964.38   1-0.00960 0.45918-0.02980-0.22604-0.99950 0.85910
   5  -4  -215413.52  557.31   1 0.74056-0.29002 0.65283-0.90884 0.15929-0.29981
   5   4  -214125.47  837.88   1 0.38485 0.06517 0.35319-0.09713 0.85272-0.99313
  -5  -4   212949.78  716.26   1-0.00882-0.43879 0.00391-0.25919 0.99995-0.86039
  -5  -4   215994.93  499.21   1-0.62819 0.17857 0.71293-0.96892 0.31159-0.17118
  -5  -4   132878.66 1198.47   1-0.67734 0.21082 0.53291-0.78881-0.50714 0.57734
  -5   4   130296.27 1204.03   1-0.03289-0.43466 0.69996-0.44362-0.71342 0.78374
   5  -4  -129821.18  887.81   1 0.30852 0.15917 0.25032-0.50652-0.91768 0.84740
   5  -4  -130395.04  920.80   1 0.70153-0.23323 0.62170-0.87771 0.34833-0.41859
   5   4  -133706.36 1276.69   1 0.29565 0.17210 0.27558-0.01952 0.91468-0.98488
  -5  -4   012687.49  640.39   1-0.61106 0.12689 0.57018-0.82608-0.54907 0.54907
  -5   4   015772.01  904.11   1 0.05759-0.54286 0.69652-0.44019-0.71521 0.71521
  -5  -4   013419.24  702.07   1-0.20502-0.27942-0.19833-0.05741-0.95844 0.95844
   5  -4   012125.04  398.32   1 0.56209-0.07684 0.47687-0.73311-0.67575 0.67575
   5  -4   013279.71  460.90   1 0.58875-0.10281 0.52800-0.78412 0.61202-0.61202
   5  -4   013020.02  665.17   1 0.19037 0.29161-0.22314-0.03162 0.95601-0.95601
  -5  -4  -122987.95  913.94   1-0.54572 0.04389 0.60078-0.85668-0.58416 0.51397
  -5   4  -121645.03 1050.22   1 0.12939-0.63236 0.68969-0.43336-0.71244 0.64211
  -5  -4  -122328.48 2386.22   1-0.11997-0.38202-0.12451-0.13123-0.98493 0.91478
   5  -4   120640.06  647.45   1 0.68196-0.17915 0.58671-0.84313-0.43668 0.50697
   5  -4   120998.53  670.94   1 0.37936 0.12386 0.34842-0.60447 0.85713-0.78693
   5  -4   121842.30  904.61   1 0.11348 0.38627-0.13540-0.11936 0.98426-0.91462
  -5  -4  -221306.59  820.79   1-0.48473-0.03555 0.62499-0.88123-0.61189 0.47134
  -5   4  -218664.09 1034.00   1 0.18448-0.70516 0.68194-0.42561-0.70775 0.56709
  -5   4  -216910.58  662.49   1-0.15387-0.36567-0.15396 0.40971-0.97602 0.83571
  -5  -4  -220733.50 1702.18   1-0.04317-0.47642-0.05906-0.19678-0.99731 0.85691
   5  -4   215675.85  485.44   1 0.72653-0.20560 0.63031-0.88670-0.27358 0.41409
   5  -4   219132.52 1590.68   1 0.04483 0.47426-0.05714-0.19814 0.99735-0.85779
  -5  -4  -217756.08  475.09   1-0.64257 0.12224 0.73266-0.98895-0.22428 0.08384
  -5  -4  -3 7277.62  508.28   1-0.42933-0.10863 0.64333-0.89957-0.63386 0.42303
  -5   4  -3 5117.36  632.28   1 0.22510-0.76356 0.67490-0.41848-0.70272 0.49177
  -5   4  -3 5883.45  752.67   1 0.01891-0.55602-0.00493 0.26078-0.99980 0.78919
  -5  -4  -3 6919.87  718.63   1 0.02221-0.55932-0.00204-0.25380-0.99975 0.78913
   5   4   3 6233.68  517.50   1-0.03589 0.57286 0.03469 0.22058 0.99875-0.78941
   5  -4   3 7611.55  845.90   1-0.01475 0.55172 0.01065-0.26593 0.99983-0.79049
  -5  -4  -4 3769.27  416.48   1-0.38187-0.17378 0.65671-0.91295-0.65030 0.36919
  -5   4  -4 2412.57  458.15   1 0.25348-0.80964 0.66917-0.41274-0.69853 0.41726
  -5  -4  -4 4034.63  744.31   1 0.07614-0.63075 0.04505-0.30090-0.99607 0.71526
  -5   4  -4 2404.43  332.72   1 0.13629-0.69189 0.09826 0.15795-0.98578 0.70450
   5  -4   4 5414.18  616.38   1-0.06393 0.61877 0.06657-0.32186 0.99573-0.71660
   5   4   4 3254.27  439.59   1-0.16496 0.72024 0.18082 0.07493 0.96958-0.68966
  -5  -4  -531213.70 1184.83   1-0.34351-0.22983 0.66606-0.92230-0.66208 0.31070
  -5   4  -532426.93 1448.60   1 0.27145-0.84532 0.66522-0.40879-0.69555 0.34396
  -5  -4  -526973.38 2544.08   1 0.11913-0.69125 0.08266-0.33851-0.98943 0.63841
  -5   4  -528182.05 1035.71   1 0.21304-0.78621 0.16570 0.09051-0.96288 0.61128
   5  -4   529712.41 2322.90   1-0.10312 0.67582 0.11111-0.36640 0.98844-0.63953
   5   4   527297.36  931.22   1-0.23807 0.81110 0.26378-0.00802 0.93473-0.58483
  -5  -4  -617296.58  934.37   1-0.31487-0.27615 0.67222-0.92846-0.67005 0.24839
  -5   4  -619031.06 1322.13   1 0.28053-0.87211 0.66312-0.40669-0.69394 0.27203
  -5  -4  -615712.20 1648.97   1 0.15147-0.74220 0.11158-0.36780-0.98214 0.56022
  -5   4  -616017.50 1336.62   1 0.26191-0.85264 0.20874 0.04747-0.94224 0.52032
   5  -4   617403.26 1556.97   1-0.13378 0.72456 0.14543-0.40119 0.98028-0.56040
  -5  -4  -7 3027.39  707.20   1-0.29626-0.31212 0.67597-0.93230-0.67474 0.18270
  -5   4  -7 2957.65  750.46   1 0.28193-0.89122 0.66279-0.40637-0.69369 0.20146
  -5  -4  -7 4734.35 1024.50   1 0.17595-0.78424 0.13308-0.38930-0.97536 0.48312
  -5   4  -7 4191.45  646.43   1 0.29199-0.90028 0.23527 0.02094-0.92702 0.43479
   5  -4   7 3861.73  813.32   1-0.15615 0.76468 0.17082-0.42658 0.97284-0.48299
  -5   4  -8 3716.10  656.43   1 0.27654-0.90354 0.66405-0.40762-0.69466 0.13211
  -5  -4  -8 3292.07  898.12   1 0.19302-0.81887 0.14809-0.40431-0.96995 0.40739
   5  -4   8 3414.89  804.52   1-0.17176 0.79804 0.18853-0.44429 0.96692-0.40709
  -5  -5  11 5365.31 1148.38   1-0.99230 0.70202-0.05246-0.26750 0.11212 0.66000
   5  -5 -11 5216.03  869.79   1 0.65957-0.36886 0.56616-0.88669-0.49438-0.27875
   5   5 -11 2867.08  688.88   1 0.75076-0.46042 0.65884-0.33866 0.04774-0.82055
  -5  -5  11 6925.10  981.15   1-0.54968 0.25980 0.62178-0.94169 0.55788 0.21379
  -5   5  11 2847.97  661.03   1-0.65914 0.36884 0.75023-0.43018-0.05171 0.82394
  -5  -5  10 4487.90  808.73   1-0.99842 0.69274 0.00072-0.32059 0.05618 0.64600
   5  -5 -10 5606.18  641.80   1 0.67308-0.36470 0.57855-0.89908-0.46068-0.24216
   5   5 -10 5852.23  931.58   1 0.74424-0.43613 0.65454-0.33437 0.13289-0.83545
  -5  -5  10 4928.61  577.06   1-0.55974 0.25217 0.63324-0.95315 0.53450 0.16702
  -5   5  10 4030.32  728.36   1-0.65392 0.34593 0.74446-0.42440-0.13475 0.83678
  -5  -5   9 3995.31 1044.89   1-0.99833 0.67471 0.05757-0.37744-0.00230 0.63427
   5  -5  -9 3616.09  849.42   1 0.68532-0.35926 0.58981-0.91034-0.42713-0.20542
   5   5  -9 2343.38  675.95   1 0.73083-0.40464 0.64535-0.32534 0.22227-0.85464
  -5  -5   9 3145.77  696.44   1-0.56825 0.24299 0.64292-0.96284 0.51354 0.11782
  -5   5   9 2914.18  760.87   1-0.64292 0.31684 0.73305-0.41269-0.22200 0.85398
  -5  -5   8 6296.42  868.61   1-0.99146 0.64988 0.11487-0.43474-0.06167 0.62342
  -5   5   8 4108.52  842.99   1-0.92011 0.57847 0.29867 0.02134-0.25334 0.81542
   5  -5  -8 3992.89  637.40   1 0.69631-0.35258 0.59998-0.92050-0.39391-0.16836
   5   5  -8 5374.35  842.47   1 0.71048-0.36653 0.62903-0.30902 0.31548-0.87758
  -5  -5   8 5131.88  658.90   1-0.57499 0.23203 0.65060-0.97052 0.49607 0.06514
  -5   5   8 4539.87  785.34   1-0.62604 0.28231 0.71421-0.39385-0.31298 0.87474
  -5  -5   720123.68 1733.34   1-0.97751 0.61797 0.17227-0.49214-0.12157 0.61310
  -5   5   712946.02 1271.10   1-0.81289 0.45263 0.42903-0.10919-0.39387 0.88498
   5  -5  -717322.36  980.18   1 0.70481-0.34351 0.60972-0.93022-0.36259-0.12917
   5   5  -717996.99 1200.81   1 0.68109-0.31969 0.60555-0.28553 0.41160-0.90347
  -5  -5   714415.90  834.72   1-0.57955 0.21890 0.65580-0.97571 0.48377 0.00729
  -5  -5   6 5700.94  788.33   1-0.95634 0.57891 0.22977-0.54980-0.18058 0.60214
  -5   5   6 5498.71  350.61   1-0.67372 0.29546 0.53514-0.21526-0.50963 0.93078
   5  -5  -6 5777.36  511.84   1 0.71325-0.33422 0.61766-0.93816-0.33129-0.09023
   5   5  -6 4809.40  686.49   1 0.64203-0.26283 0.57286-0.25285 0.50952-0.93112
  -5  -5   6 4683.41  307.64   1-0.58110 0.20275 0.65755-0.97747 0.47951-0.05860
  -5  -5   5 8913.73  942.66   1-0.92778 0.53246 0.28587-0.60590-0.23977 0.59107
  -5   5   5 8878.31  449.51   1-0.51779 0.12131 0.61252-0.29222-0.59724 0.94862
   5  -5  -511347.58  542.87   1 0.72036-0.32359 0.62441-0.94490-0.30195-0.04930
   5   5  -5 9209.97  663.15   1 0.59208-0.19506 0.53055-0.21053 0.60659-0.95792
  -5  -5   5 9326.65  400.44   1-0.57772 0.18167 0.65370-0.97362 0.48877-0.13801
  -5   5   5 9505.01  873.90   1-0.52682 0.13003 0.60280-0.28259-0.59923 0.95038
  -5  -5   4 4577.61  545.02   1-0.89200 0.47879 0.34022-0.66024-0.29760 0.57864
  -5   5   4 3879.29  375.32   1-0.36025-0.05391 0.66214-0.34184-0.65710 0.93820
   5  -5  -4 3362.30  289.39   1 0.72595-0.31145 0.62975-0.95025-0.27639-0.00462
   5   5  -4 3057.34  475.38   1 0.53083-0.11605 0.47847-0.15832 0.69948-0.98054
  -5   5   4 2993.44  245.85   1 0.42766-0.84223 0.39030-0.07023 0.81533-0.53451
  -5  -5   4 2787.49  202.30   1-0.56426 0.15051 0.63838-0.95829 0.52352-0.24291
  -5   5   4 4293.57  712.93   1-0.47462 0.06007 0.54393-0.22367-0.69200 0.97281
   5   5  -4 2799.42  244.12   1-0.46456 0.87911 0.53250-0.21224-0.70754 0.42674
  -5  -5   3 3256.08  512.01   1-0.84925 0.41836 0.39188-0.71172-0.35381 0.56428
  -5   5   3 1653.89  382.53   1-0.21357-0.21851 0.68884-0.36843-0.69273 0.90360
   5  -5  -3 1517.86  224.84   1 0.72943-0.29719 0.63309-0.95359-0.25905 0.04829
   5   5  -3 4050.04  550.55   1 0.45953-0.02696 0.41709-0.09695 0.78412-0.99492
  -5  -5   3 2328.58  159.66   1-0.52303 0.09164 0.58975-0.90971 0.61532-0.40498
  -5   5   3 3364.95  739.18   1-0.41336-0.01881 0.47430-0.15405-0.77728 0.98788
  -5  -5   231909.13 1808.91   1-0.80100 0.35245 0.44008-0.75991-0.40585 0.54617
  -5   5   234357.26 1279.41   1-0.08524-0.36448 0.69868-0.37827-0.71033 0.85091
   5  -5  -230383.98  880.80   1 0.09182 0.35775 0.05876-0.37857-0.99403 0.85363
   5  -5  -232407.52  953.39   1 0.72813-0.27815 0.63184-0.95234-0.26566 0.12516
   5   5  -235825.12 1364.78   1 0.37989 0.07013 0.34888-0.02882 0.85671-0.99712
  -5  -5   116509.95  688.94   1-0.74833 0.28213 0.48389-0.80373-0.45368 0.52384
  -5   5   116257.25  833.22   1 0.02228-0.48983 0.69855-0.37813-0.71521 0.78554
  -5  -5   072818.20 1939.96   1-0.69321 0.20903 0.52290-0.84278-0.49600 0.49600
  -5   5   071821.66 2053.78   1 0.10854-0.59381 0.69205-0.37163-0.71363 0.71363
  -5  -5   070764.76 1915.98   1-0.21253-0.27191-0.20484-0.11484-0.95544 0.95544
   5  -5   071400.01 1932.02   1 0.19515 0.28683-0.22860-0.08985 0.95375-0.95375
  -5  -5  -166464.92 2022.63   1-0.63764 0.13581 0.55606-0.87593-0.53310 0.46291
  -5   5  -163050.30 2151.95   1 0.17591-0.67888 0.68329-0.36287-0.70863 0.63830
  -5  -5  -166213.63 2090.49   1-0.13365-0.36834-0.13640-0.18328-0.98159 0.91144
   5  -5   165674.15 2002.40   1 0.12491 0.37485-0.14843-0.17002 0.98100-0.91136
  -5  -5  -2 8477.88  547.94   1-0.58401 0.06452 0.58352-0.90340-0.56429 0.42390
  -5   5  -2 8944.37  853.63   1 0.22691-0.74766 0.67456-0.35402-0.70247 0.56184
  -5  -5  -2 7541.51  985.82   1-0.06188-0.45772-0.07535-0.24446-0.99523 0.85482
   5  -5   2 5511.67  223.61   1 0.31174 0.20920 0.28960-0.60967 0.90495-0.76454
   5  -5   2 8746.00  927.49   1 0.06108 0.45644-0.07564-0.24281 0.99526-0.85597
  -5  -5  -3 8666.01  587.04   1-0.53529-0.00267 0.60543-0.92573-0.58898 0.37815
  -5   5  -3 8118.83  757.49   1 0.26402-0.80248 0.66688-0.34635-0.69681 0.48586
  -5   5  -3 6020.88  467.29   1-0.05679-0.48031-0.07092 0.39073-0.99586 0.78525
  -5  -5  -3 7753.03  866.48   1-0.00017-0.53693-0.02158-0.29822-0.99976 0.78915
   5  -5   3 8318.96 1234.27   1 0.00635 0.53061-0.01335-0.30574 0.99989-0.79054
  -5  -5  -4 7112.89  533.88   1-0.49201-0.06364 0.62234-0.94264-0.60877 0.32766
  -5   5  -4 7602.79  842.97   1 0.28949-0.84566 0.66099-0.34046-0.69229 0.41102
  -5  -5  -4 9493.42  967.82   1 0.05139-0.60601 0.02343-0.34324-0.99840 0.71758
  -5   5  -4 6762.07  971.07   1 0.10014-0.65476 0.06604 0.25376-0.99277 0.71196
   5  -5   410067.67  988.36   1-0.04015 0.59498 0.03953-0.35863 0.99841-0.71928
  -5  -5  -5 1811.62  417.63   1-0.45627-0.11706 0.63479-0.95509-0.62357 0.27219
  -5  -5  -5 2423.25  517.09   1 0.09314-0.66526 0.05991-0.37973-0.99384 0.64282
   5  -5   5 2906.78  714.84   1-0.07785 0.65055 0.08239-0.40150 0.99355-0.64465
  -5  -5  -613712.24  930.30   1-0.42912-0.16190 0.64340-0.96370-0.63394 0.21228
  -5   5  -615012.73 1322.72   1 0.31246-0.90404 0.65523-0.33470-0.68777 0.26586
  -5  -5  -611753.70 1335.75   1 0.12585-0.71547 0.08854-0.40835-0.98808 0.56686
   5  -5   613205.43 1822.42   1-0.10743 0.69800 0.11601-0.43512 0.98741-0.56873
  -5  -5  -7  140.83  199.10   1-0.41120-0.19751 0.64869-0.96899-0.64039 0.14846
  -5   5  -7 1073.89  707.12   1 0.31253-0.92182 0.65522-0.33468-0.68775 0.19553
  -5  -5  -7  870.43  361.15   1 0.14962-0.75791 0.10996-0.43023-0.98260 0.49037
   5  -5   7  869.09  319.36   1-0.13025 0.73878 0.14142-0.46112 0.98134-0.49148
  -5   5  -8  729.00  467.85   1 0.30622-0.93321 0.65684-0.33631-0.68904 0.12650
  -5  -5  -8 1482.75  516.97   1 0.16716-0.79301 0.12536-0.44564-0.97792 0.41536
   5  -5   8  632.93  269.35   1-0.14626 0.77255 0.15960-0.47930 0.97628-0.41644
  -5  -6  11 2829.08  691.24   1-0.98911 0.69883-0.06966-0.31429 0.12959 0.64253
   5  -6 -11 3808.31  696.97   1 0.62543-0.33472 0.53506-0.91969-0.56792-0.20520
   5   6 -11 5448.44 1139.22   1 0.74945-0.45910 0.65810-0.27388 0.07229-0.84510
  -5  -6  11 2264.85  475.23   1-0.51469 0.22499 0.58027-0.96423 0.63116 0.14008
  -5   6  11 5643.14 1153.12   1-0.65769 0.36740 0.74865-0.36459-0.08338 0.85562
  -5  -6  10 1657.85  663.52   1-0.99690 0.68898-0.01757-0.36637 0.07657 0.62535
   5  -6 -10 1207.41  383.05   1 0.63755-0.32917 0.54608-0.93071-0.54343-0.15941
   5   6 -10 2317.82  622.47   1 0.74072-0.43229 0.65295-0.26894 0.15806-0.86069
  -5  -6  10 2123.75  523.87   1-0.52236 0.21496 0.58900-0.97295 0.61661 0.08452
  -5   6  10 2428.60  650.02   1-0.65064 0.34264 0.74077-0.35671-0.16707 0.86910
  -5  -6   9  698.57  271.63   1-0.99919 0.67556 0.03254-0.41638 0.02350 0.60846
   5  -6  -9 1193.72  382.61   1 0.64795-0.32189 0.55555-0.94018-0.52107-0.11148
   5   6  -9 1641.59  608.21   1 0.72609-0.39990 0.64160-0.25759 0.24724-0.87961
  -5  -6   9 1106.44  321.44   1-0.52765 0.20253 0.59500-0.97896 0.60626 0.02476
  -5   6   9 1762.51  717.38   1-0.63762 0.31155 0.72716-0.34273-0.25428 0.88626
  -5  -6   8 5991.55  798.87   1-0.99584 0.65426 0.08554-0.46938-0.03122 0.59297
   5  -6  -8 4320.90  922.28   1 0.65642-0.31269 0.56329-0.94792-0.50180-0.06047
   5   6  -8 5616.99  687.50   1 0.70403-0.36008 0.62376-0.23975 0.33948-0.90158
  -5  -6   8 7139.30  609.13   1-0.52988 0.18705 0.59754-0.98149 0.60180-0.04089
  -5   6   8 4844.64  713.45   1-0.61880 0.27506 0.70609-0.32166-0.34426 0.90601
  -5  -6   7  571.31  259.42   1-0.98658 0.62704 0.13855-0.52239-0.08632 0.57785
  -5   6   7  237.08  157.94   1-0.80299 0.44273 0.43826-0.05446-0.40388 0.89499
   5  -6  -7  781.40  312.21   1 0.66258-0.30117 0.56892-0.95355-0.48714-0.00484
   5   6  -7  184.88  483.60   1 0.67318-0.31179 0.59897-0.21495 0.43364-0.92551
  -5  -6   7  507.90  205.75   1-0.52783 0.16728 0.59520-0.97916 0.60590-0.11511
  -5   6   7  611.67  485.63   1-0.59262 0.23114 0.67716-0.29291-0.43616 0.92777
  -5  -6   6 8256.04 1206.53   1-0.97137 0.59394 0.19155-0.57558-0.14052 0.56208
  -5   6   6 7594.83  487.47   1-0.64645 0.26820 0.55114-0.16729-0.52757 0.94872
   5  -6  -6 9018.85  582.44   1 0.66559-0.28651 0.57168-0.95631-0.47975 0.05804
   5   6  -6 6831.70  685.48   1 0.63326-0.25405 0.56546-0.18145 0.52841-0.95001
  -5  -6   6 8972.16  548.11   1-0.51901 0.14075 0.58518-0.96914 0.62304-0.20236
  -5   6   6 9232.21  863.27   1-0.55871 0.17957 0.63888-0.25462-0.52883 0.95021
  -5  -6   5 3220.81  618.79   1-0.95009 0.55477 0.24348-0.62751-0.19500 0.54630
  -5   6   5 2999.00  336.01   1-0.47688 0.08040 0.62777-0.24341-0.61520 0.96658
   5  -6  -5 2243.17  300.81   1 0.66359-0.26684 0.56984-0.95448-0.48467 0.13325
   5   6  -5 2703.76  508.94   1 0.58340-0.18638 0.52316-0.13914 0.62123-0.97257
  -5  -6   5 1843.33  210.82   1-0.49776 0.10179 0.56103-0.94499 0.66141-0.31085
  -5   6   5 4085.32  686.27   1-0.51628 0.11948 0.59086-0.20660-0.61994 0.97110
  -5  -6   412872.24 1744.80   1-0.92292 0.50970 0.29407-0.67810-0.24846 0.52950
  -5   6   412101.81  584.71   1-0.31174-0.10242 0.67285-0.28849-0.67088 0.95198
   5  -6  -412851.02  487.60   1 0.65143-0.23700 0.55873-0.94336-0.51327 0.23213
   5   6  -412797.02  923.50   1 0.52359-0.10881 0.47226-0.08808 0.70909-0.99015
  -5  -6   411868.13  420.69   1-0.44806 0.03439 0.50455-0.88851 0.73800-0.45755
  -5   6   411535.82  754.22   1-0.46507 0.05051 0.53308-0.14877-0.70677 0.98757
  -5  -6   3 6853.20  995.63   1-0.89018 0.45907 0.34268-0.72671-0.30023 0.51101
  -5   6   3 4310.39  472.59   1-0.16306-0.26903 0.69415-0.30966-0.70111 0.91199
   5  -6  -3 4981.41  225.31   1 0.60824-0.17614 0.51948-0.90411-0.60014 0.38929
   5   6  -3 4632.04  686.73   1 0.45530-0.02273 0.41344-0.02926 0.78851-0.99931
  -5  -6   3 5236.49  196.97   1-0.29810-0.13299 0.33307-0.71691 0.89453-0.68436
  -5  -6   2 1393.42  417.33   1-0.85234 0.40379 0.38846-0.77226-0.35013 0.49045
  -5   6   2 1543.13  620.94   1-0.03595-0.41389 0.69997-0.31547-0.71325 0.85391
   5   6  -2 1832.11  646.41   1 0.38012 0.06990 0.34908 0.03499 0.85652-0.99693
  -5  -6   140771.62 1936.46   1-0.81079 0.34458 0.43101-0.81481-0.39602 0.46618
  -5   6   142631.53 1513.04   1 0.06748-0.53503 0.69580-0.31130-0.71505 0.78538
   5   6  -147604.68 1751.71   1 0.30240 0.16535 0.28146 0.10261 0.91067-0.98088
  -5  -6   0 2509.93  380.35   1-0.76660 0.28274 0.46956-0.85336-0.43797 0.43797
  -5   6   0 3869.42  585.10   1 0.14948-0.63475 0.68712-0.30262-0.71099 0.71099
  -5  -6   0 3314.83  477.06   1-0.22402-0.26042-0.21479-0.16882-0.95061 0.95061
   5  -6   0 3113.94  445.81   1 0.20359 0.27839-0.23824-0.14391 0.94962-0.94962
  -5  -6  -174234.35 2501.60   1-0.72158 0.21974 0.50381-0.88766-0.47485 0.40466
  -5   6  -176523.77 2710.07   1 0.21278-0.71582 0.67721-0.29256-0.70435 0.63403
  -5  -6  -180507.19 2776.50   1-0.15051-0.35148-0.15104-0.23257-0.97699 0.90684
   5  -6   172847.04 2503.95   1 0.13898 0.36077-0.16449-0.21766 0.97653-0.90689
  -5  -6  -222642.29  950.03   1-0.67727 0.15778 0.53296-0.91681-0.50720 0.36681
  -5   6  -223207.84 1162.80   1 0.26014-0.78089 0.66773-0.28309-0.69745 0.55682
  -5  -6  -224632.63 2956.01   1-0.08374-0.43580-0.09300-0.29061-0.99213 0.85183
   5  -6   223367.94 2440.76   1 0.07990 0.43762-0.09710-0.28504 0.99206-0.85277
  -5  -6  -3  728.06  312.38   1-0.63567 0.09853 0.55714-0.94099-0.53432 0.32375
  -5   6  -3 1087.80  575.10   1 0.29427-0.83273 0.65983-0.27519-0.69139 0.48043
  -5  -6  -3  559.74  294.36   1-0.02464-0.51246-0.04292-0.34085-0.99877 0.78816
   5  -6   3  340.81  161.99   1 0.02873 0.50822-0.03882-0.34410 0.99883-0.78949
  -5  -6  -4 9369.99  517.71   1-0.59858 0.04378 0.57646-0.96031-0.55622 0.27545
  -5   6  -4 9014.02  727.53   1 0.31736-0.87353 0.65395-0.26931-0.68674 0.40547
  -5  -6  -412707.55 1465.15   1 0.02482-0.57944 0.00023-0.38400-0.99969 0.71887
   5  -6   4 9487.01 1549.08   1-0.01537 0.57020 0.01136-0.39428 0.99981-0.72069
  -5  -6  -511504.52  655.33   1-0.56757-0.00487 0.59116-0.97501-0.57305 0.22209
  -5   6  -510246.71  903.38   1 0.33118-0.90505 0.65022-0.26558-0.68375 0.33216
  -5  -6  -510429.99 1214.84   1 0.06543-0.63755 0.03569-0.41946-0.99721 0.64619
   5  -6   510981.84 1185.21   1-0.05170 0.62440 0.05266-0.43559 0.99727-0.64836
  -5  -6  -6 4867.53  531.49   1-0.54516-0.04586 0.60128-0.98564-0.58416 0.16250
  -5   6  -6 4081.91  697.67   1 0.33711-0.92869 0.64858-0.26394-0.68242 0.26051
  -5  -6  -6 5189.53  847.63   1 0.09772-0.68735 0.06392-0.44770-0.99315 0.57193
   5  -6   6 5083.71  770.45   1-0.08067 0.67124 0.08560-0.46853 0.99305-0.57437
  -5   6  -7 4312.54  689.83   1 0.33620-0.94548 0.64883-0.26419-0.68262 0.19040
  -5  -6  -7 5625.28 1161.11   1 0.12248-0.72961 0.08559-0.46937-0.98877 0.49734
   5  -6   7 4670.95  912.47   1-0.10296 0.71139 0.11093-0.49385 0.98847-0.50001
  -5  -7  10  912.05  316.39   1-0.99421 0.68628-0.04019-0.40775 0.09964 0.60229
   5  -7 -10  766.40  312.47   1 0.59512-0.28581 0.50661-0.95502-0.62383-0.07901
   5   7 -10  868.41  763.35   1 0.73810-0.42968 0.65098-0.20297 0.17724-0.87987
  -5  -7  10  120.83  179.60   1-0.47708 0.16967 0.53753-0.98548 0.69530 0.00582
  -5   7  10 -225.47  445.94   1-0.64701 0.33859 0.73758-0.28908-0.19322 0.89542
  -5  -7   9  950.97  366.37   1-0.99870 0.67507 0.00625-0.45407 0.05051 0.58145
   5  -7  -9  516.54  202.28   1 0.60197-0.27507 0.51279-0.96120-0.61210-0.02046
   5   7  -9  494.58  466.68   1 0.72221-0.39603 0.63851-0.19050 0.26589-0.89825
  -5  -7   9  193.78  174.28   1-0.47776 0.15264 0.53830-0.98625 0.69423-0.06321
  -5   7   9 1456.89  708.65   1-0.63293 0.30686 0.72192-0.27342-0.27965 0.91163
  -5  -7   8 6063.50 1005.58   1-0.99847 0.65688 0.05523-0.50305 0.00011 0.56163
   5  -7  -8 6879.94  530.70   1 0.60546-0.26096 0.51594-0.96435-0.60597 0.04369
   5   7  -8 9771.88 1011.71   1 0.69905-0.35510 0.61967-0.17166 0.35682-0.91893
  -5  -7   8 6350.27  536.96   1-0.47358 0.13074 0.53355-0.98150 0.70074-0.13983
  -5   7   8 7368.31  810.65   1-0.61274 0.26900 0.69929-0.25078-0.36815 0.92991
  -5  -7   7 7343.93  811.04   1-0.99328 0.63374 0.10409-0.55190-0.05046 0.54199
   5  -7  -7 8528.51  670.30   1 0.60425-0.24216 0.51485-0.96326-0.60811 0.11611
   5   7  -7 8026.27  937.12   1 0.66743-0.30604 0.59417-0.14615 0.44886-0.94073
  -5  -7   7 7186.04  557.93   1-0.46218 0.10164 0.52060-0.96855 0.71788-0.22708
  -5   7   7 7271.10  864.41   1-0.58551 0.22403 0.66914-0.22085-0.45761 0.94922
  -5  -7   6 3377.51  586.00   1-0.98312 0.60562 0.15256-0.60037-0.10095 0.52226
  -5   7   6 4422.70  567.05   1-0.62443 0.24618 0.56321-0.11538-0.54117 0.96233
   5  -7  -6 3587.30  488.54   1 0.59557-0.21588 0.50701-0.95542-0.62307 0.20136
   5   7  -6 3574.36  720.80   1 0.62739-0.24818 0.56050-0.11249 0.54055-0.96215
  -5  -7   6 3058.09  396.76   1-0.43892 0.06066 0.49416-0.94211 0.75042-0.32974
  -5   7   6 2384.44  554.42   1-0.55114 0.17200 0.63032-0.18202-0.54675 0.96813
  -5  -7   5  572.03  264.03   1-0.96814 0.57282 0.20054-0.64857-0.14992 0.50122
  -5   7   5  663.26  248.43   1-0.44190 0.04542 0.63944-0.19102-0.62915 0.98053
   5  -7  -5  352.98  200.63   1 0.57288-0.17560 0.48657-0.93498-0.65958 0.30815
   5   7  -5  264.07  658.36   1 0.57817-0.18118 0.51898-0.07078 0.62957-0.98089
  -5  -7   5  256.39  143.51   1-0.39459-0.00097 0.44275-0.89056 0.80514-0.45485
  -5   7   5 1423.02  535.53   1-0.50913 0.11234 0.58276-0.13446-0.63337 0.98452
  -5  -7   4 8024.82 1135.70   1-0.94834 0.53512 0.24717-0.69520-0.19888 0.47992
  -5   7   4 8756.00  591.68   1-0.27071-0.14374 0.68052-0.23195-0.68088 0.96204
   5  -7  -4 7575.46  412.78   1 0.51605-0.10118 0.43560-0.88401-0.73752 0.45637
   5   7  -4 7082.23  711.11   1 0.52051-0.10573 0.46962-0.02141 0.71310-0.99416
  -5  -7   4 7595.86  410.54   1-0.29740-0.11592 0.33228-0.78009 0.89506-0.61482
  -5   7   4 7688.99  801.55   1-0.45950 0.04495 0.52676-0.07840-0.71510 0.99590
  -5  -7   3 1816.34  342.44   1-0.92405 0.49294 0.29219-0.74022-0.24646 0.45724
  -5   7   3 2525.37  317.05   1-0.12148-0.31061 0.69711-0.24854-0.70659 0.91746
   5   7  -3 3165.84  669.12   1 0.45547-0.02290 0.41359 0.03461 0.78834-0.99913
  -5   7   3 2587.46  518.02   1-0.40371-0.02845 0.46333-0.01498-0.78887 0.99948
  -5  -7   216414.35 1697.61   1-0.89577 0.44677 0.33506-0.78309-0.29208 0.43260
  -5   7   215765.77  802.58   1 0.00322-0.45307 0.69928-0.25069-0.71483 0.85549
   5   7  -217775.82 1103.78   1 0.38463 0.06540 0.35299 0.09509 0.85290-0.99331
  -5  -7   1 9739.67 1093.69   1-0.86410 0.39789 0.37500-0.82277-0.33570 0.40586
  -5   7   1 7306.01  561.81   1 0.10290-0.57045 0.69264-0.24405-0.71390 0.78422
   5   7  -1 8888.05  717.50   1 0.31196 0.15579 0.28979 0.15829 0.90481-0.97502
  -5  -7   044774.07 3055.86   1-0.83030 0.34644 0.41192-0.85968-0.37538 0.37538
  -5   7   039566.06 1677.34   1 0.18095-0.66621 0.68251-0.23392-0.70812 0.70812
  -5  -7   036802.65 1484.66   1-0.23874-0.24570-0.22754-0.22001-0.94404 0.94404
  -5  -7  -113313.44 1470.14   1-0.79541 0.29389 0.44511-0.89287-0.41131 0.34116
  -5   7  -114037.59 1035.30   1 0.24065-0.74369 0.67184-0.22309-0.70050 0.63018
  -5  -7  -115190.37  955.20   1-0.16998-0.33201-0.16794-0.27961-0.97103 0.90087
   5  -7   115269.87  960.90   1 0.15513 0.34462-0.18292-0.26292 0.97081-0.90116
  -5  -7  -217008.11 1241.55   1-0.76085 0.24167 0.47416-0.92193-0.44301 0.30270
  -5   7  -218073.19 1101.00   1 0.28500-0.80575 0.66207-0.21332-0.69313 0.55249
  -5  -7  -217913.69 2014.43   1-0.10711-0.41243-0.11333-0.33422-0.98776 0.84745
   5  -7   219782.23 1046.50   1 0.10017 0.41735-0.12021-0.32562 0.98768-0.84839
  -5  -7  -314796.08  675.14   1-0.72845 0.19131 0.49894-0.94676-0.46947 0.25889
  -5   7  -314937.94 1041.98   1 0.31670-0.85516 0.65412-0.20538-0.68688 0.47593
  -5  -7  -313906.10 1776.93   1-0.05087-0.48623-0.06577-0.38196-0.99653 0.78592
   5  -7   315174.78 1526.07   1 0.05216 0.48480-0.06547-0.38126 0.99648-0.78714
  -5  -7  -4 6276.01  562.19   1-0.69928 0.14449 0.51895-0.96678-0.49161 0.21084
  -5   7  -4 6229.05  672.72   1 0.33791-0.89408 0.64835-0.19960-0.68223 0.40096
  -5  -7  -4 6628.59 1168.69   1-0.00331-0.55129-0.02432-0.42341-0.99969 0.71888
   5  -7   4 7417.21 1064.60   1 0.01021 0.54461-0.01775-0.42899 0.99979-0.72066
  -5  -7  -5 7902.03  612.88   1-0.67508 0.10263 0.53430-0.98213-0.50870 0.15774
  -5   7  -5 6486.80  833.52   1 0.35032-0.92419 0.64480-0.19605-0.67933 0.32774
  -5  -7  -5 8016.73 1317.76   1 0.03620-0.60832 0.01016-0.45790-0.99929 0.64827
   5  -7   5 8012.31 1246.12   1-0.02479 0.59749 0.02207-0.46881 0.99944-0.65054
  -5   7  -6 8318.53 1194.30   1 0.35523-0.94681 0.64336-0.19461-0.67815 0.25624
  -5  -7  -6 7242.57 1280.37   1 0.06808-0.65770 0.03800-0.48574-0.99695 0.57573
   5  -7   6 9007.42 1305.10   1-0.05314 0.64371 0.05430-0.50105 0.99710-0.57842
  -5   7  -7 5074.53 1216.89   1 0.35363-0.96292 0.64383-0.19508-0.67854 0.18631
  -5  -7  -7 2727.54  581.47   1 0.09289-0.70002 0.05970-0.50744-0.99388 0.50245
   5  -7   7 2277.55  767.53   1-0.07531 0.68374 0.07950-0.52625 0.99398-0.50552
  -5  -8  10  157.98  183.18   1-0.99020 0.68227-0.06416-0.44778 0.12401 0.57792
   5   8 -10 1383.23  631.32   1 0.73608-0.42766 0.64943-0.13742 0.19080-0.89343
  -5  -8  10  189.90  177.72   1-0.42630 0.11954 0.47878-0.99057 0.76747-0.06689
  -5   8  10  864.92  658.75   1-0.64423 0.33581 0.73450-0.22193-0.21320 0.91540
  -5  -8   9 2244.94  635.16   1-0.99676 0.67119-0.01904-0.49290 0.07807 0.55367
   5  -8  -9 1465.90  369.55   1 0.54460-0.21769 0.46117-0.97364-0.70051 0.06794
   5   8  -9 1634.67  518.63   1 0.71940-0.39321 0.63625-0.12424 0.27864-0.91101
  -5  -8   9 2210.18  329.37   1-0.42136 0.09683 0.47316-0.98495 0.77367-0.14314
  -5   8   9 2570.20  710.22   1-0.62910 0.30303 0.71764-0.20507-0.29867 0.93065
  -5  -8   8 4567.57  696.29   1-0.99919 0.65760 0.02407-0.53586 0.03221 0.52953
   5   8  -8 3997.62  672.67   1 0.69566-0.35171 0.61688-0.10487 0.36811-0.93021
  -5  -8   8 3522.01  417.66   1-0.40946 0.06717 0.45964-0.97143 0.78807-0.22760
  -5   8   8 4628.24  743.52   1-0.60806 0.26433 0.69403-0.18146-0.38544 0.94720
  -5  -8   7 4301.73  741.01   1-0.99751 0.63797 0.06899-0.58079-0.01410 0.50563
   5   8  -7 4157.83  599.23   1 0.66387-0.30247 0.59119-0.07917 0.45799-0.94986
  -5  -8   7 4350.77  382.28   1-0.38710 0.02705 0.43423-0.94602 0.81337-0.32296
  -5   8   7 5289.23  765.62   1-0.58036 0.21888 0.66334-0.15100-0.47238 0.96399
  -5  -8   6 5874.20 1129.39   1-0.99172 0.61422 0.11343-0.62522-0.06016 0.48148
   5   8  -6 9120.89  979.68   1 0.62430-0.24509 0.55789-0.04586 0.54681-0.96841
  -5   8   6 7052.54  825.44   1-0.54613 0.16699 0.62465-0.11232-0.55815 0.97953
  -5  -8   5  -71.15  221.91   1-0.98191 0.58645 0.15709-0.66888-0.10569 0.45678
   5   8  -5  192.66  404.41   1 0.57640-0.17941 0.51747-0.00523 0.63243-0.98375
  -5   8   5  610.98  446.63   1-0.50508 0.10829 0.57817-0.06583-0.64078 0.99193
  -5  -8   4 3920.25  695.94   1-0.96842 0.55520 0.19978-0.71182-0.14913 0.43017
  -5   8   4 3527.33  624.46   1-0.23836-0.17610 0.68554-0.17288-0.68790 0.96907
   5   8  -4 3621.05  742.14   1 0.52107-0.10629 0.47010 0.04213 0.71238-0.99344
  -5   8   4 5007.67 1004.65   1-0.45740 0.04285 0.52436-0.01196-0.71820 0.99900
  -5  -8   3 6998.02  768.47   1-0.95130 0.52020 0.24090-0.75294-0.19228 0.40306
  -5   8   3 6143.17  980.92   1-0.08930-0.34279 0.69855-0.18590-0.70995 0.92083
   5   8  -3 6160.12 1111.80   1 0.45937-0.02680 0.41696 0.09527 0.78429-0.99508
  -5   8   3 7296.60  764.53   1-0.40458-0.02759 0.46431 0.04808-0.78785 0.99846
  -5  -8   2 7893.07  801.42   1-0.93107 0.48207 0.28014-0.79218-0.23370 0.37422
  -5   8   2 7748.30  661.60   1 0.03281-0.48266 0.69804-0.18536-0.71530 0.85596
   5   8  -2 8499.41  724.68   1 0.39268 0.05734 0.35999 0.15211 0.84628-0.98669
  -5  -8   113269.44 1562.66   1-0.90829 0.44140 0.31706-0.82910-0.27289 0.34315
  -5   8   112084.80  845.85   1 0.12899-0.59655 0.68974-0.17707-0.71246 0.78279
   5   8  -111928.86  811.94   1 0.32467 0.14309 0.30086 0.21124 0.89669-0.96690
  -5  -8   0 1584.76  377.58   1-0.88363 0.39977 0.35089-0.86262-0.30993 0.30993
  -5   8   0 1928.80  602.22   1 0.20362-0.68888 0.67873-0.16606-0.70559 0.70559
   5   8   0 1632.01  677.25   1 0.25738 0.22810 0.24217 0.26993 0.93546-0.93546
  -5  -8  -116626.99 1585.51   1-0.85829 0.35677 0.38174-0.89348-0.34292 0.27277
  -5   8  -120223.44 1164.43   1 0.26034-0.76338 0.66769-0.15484-0.69742 0.62710
  -5  -8  -118413.48  913.82   1-0.19160-0.31039-0.18669-0.32479-0.96355 0.89339
   5  -8   117279.74  841.43   1 0.17295 0.32680-0.20325-0.30627 0.96372-0.89408
  -5  -8  -2 3251.07  711.56   1-0.83323 0.31405 0.40893-0.92066-0.37215 0.23183
  -5   8  -2 5008.16  819.93   1 0.30226-0.82301 0.65784-0.14499-0.68983 0.54919
   5  -8   2 2968.74  606.02   1 0.12161 0.39591-0.14468-0.36485 0.98197-0.84269
  -5  -8  -3  557.69  218.10   1-0.80971 0.27287 0.43203-0.94376-0.39712 0.18665
  -5   8  -3  411.70  462.98   1 0.33208-0.87054 0.64998-0.13712-0.68355 0.47259
  -5  -8  -3  679.22  301.93   1-0.07935-0.45773-0.08919-0.42230-0.99284 0.78238
   5  -8   3  594.91  375.71   1 0.07563 0.45967-0.09223-0.41730 0.99286-0.78393
  -5  -8  -415313.96 2029.26   1-0.78909 0.23459 0.45069-0.96242-0.41738 0.13675
  -5   8  -421864.30 1585.64   1 0.35188-0.90804 0.64434-0.13149-0.67896 0.39769
  -5  -8  -416686.59 1800.78   1-0.03284-0.52176-0.05006-0.46163-0.99820 0.71739
   5  -8   420240.99 2521.63   1 0.03650 0.51832-0.04766-0.46289 0.99819-0.71907
  -5   8  -5 7384.31 1014.51   1 0.36327-0.93714 0.64095-0.12810-0.67617 0.32458
  -5  -8  -5 4753.96  951.16   1 0.00564-0.57776-0.01651-0.49519-0.99984 0.64882
   5  -8   5 5779.00 1072.85   1 0.00275 0.56994-0.00926-0.50129 0.99995-0.65105
  -5   8  -6 1348.45  599.52   1 0.36748-0.95906 0.63967-0.12681-0.67510 0.25320
  -5  -8  -6 1034.79  438.94   1 0.03707-0.62669 0.01091-0.52262-0.99925 0.57802
   5  -8   6 1229.49  454.41   1-0.02493 0.61550 0.02223-0.53279 0.99944-0.58075
  -5  -9   9  983.63  426.86   1-0.99310 0.66753-0.04755-0.52838 0.10713 0.52460
   5   9  -9 1249.37  790.34   1 0.71773-0.39154 0.63491-0.05889 0.28590-0.91827
  -5   9   9 1527.71  780.81   1-0.62628 0.30021 0.71448-0.13784-0.31188 0.94386
  -5  -9   8 2727.90  445.81   1-0.99785 0.65627-0.00785-0.56791 0.06497 0.49677
   5   9  -8 4612.58  730.27   1 0.69389-0.34994 0.61542-0.03941 0.37383-0.93593
  -5   9   8 3163.83  690.74   1-0.60485 0.26112 0.69042-0.11377-0.39681 0.95857
  -5  -9   7 2060.30  502.95   1-0.99918 0.63964 0.03335-0.60911 0.02267 0.46885
  -5   9   7 2540.56  812.53   1-0.57716 0.21568 0.65972-0.08334-0.48128 0.97289
  -5  -9   6 2816.05  656.77   1-0.99708 0.61958 0.07391-0.64967-0.01918 0.44049
   5   9  -6 2418.49  742.46   1 0.62378-0.24457 0.55745 0.01857 0.54785-0.96945
  -5   9   6 1827.12  764.56   1-0.54352 0.16438 0.62170-0.04532-0.56397 0.98535
  -5  -9   5 4807.08  718.24   1-0.99169 0.59624 0.11359-0.68936-0.06033 0.41143
   5   9  -5 7373.47  803.15   1 0.57758-0.18059 0.51848 0.05778 0.63053-0.98185
  -5   9   5 3577.64  989.52   1-0.50379 0.10700 0.57671-0.00033-0.64310 0.99425
  -5  -9   4 6521.37  774.43   1-0.98323 0.56982 0.15213-0.72790-0.10050 0.38138
  -5   9   4 5720.16  515.39   1-0.21535-0.19911 0.68862-0.11188-0.69240 0.97356
   5   9  -4 7531.43  881.85   1 0.52479-0.11001 0.47329 0.10297 0.70752-0.98858
  -5   9   4 5820.27  882.94   1-0.45826 0.04371 0.52535 0.05110-0.71693 0.99773
  -5  -9   3  574.63  315.59   1-0.97219 0.54108 0.18917-0.76521-0.13803 0.34881
  -5   9   3  763.78  399.87   1-0.06665-0.36543 0.69913-0.12239-0.71187 0.92275
   5   9  -3  361.08  413.87   1 0.46644-0.03387 0.42306 0.15320 0.77681-0.98761
  -5   9   3 1633.85  645.58   1-0.40841-0.02376 0.46867 0.10778-0.78328 0.99389
  -5  -9   2 2896.37  601.75   1-0.95866 0.50966 0.22441-0.80045-0.17494 0.31546
  -5   9   2 1498.04  399.12   1 0.05312-0.50297 0.69683-0.12007-0.71526 0.85591
   5   9  -2 2240.18  655.18   1 0.40371 0.04631 0.36955 0.20656 0.83692-0.97733
  -5  -9   1 1027.25  297.49   1-0.94326 0.47637 0.25743-0.83347-0.20970 0.27996
  -5   9   1 1694.49  579.85   1 0.14634-0.61390 0.68754-0.11079-0.71123 0.78156
   5   9  -1  879.82  386.12   1 0.33999 0.12777 0.31420 0.26192 0.88638-0.95659
  -5   9   0 3354.45  706.16   1 0.21825-0.70358 0.67620-0.09924-0.70364 0.70364
   5   9   0 1831.28  482.64   1 0.27693 0.20855 0.25925 0.31687 0.92525-0.92525
  -5  -9  -1 1868.35  577.35   1-0.90957 0.40689 0.31513-0.89117-0.27084 0.20058
  -5   9  -1 1973.33  673.90   1 0.27257-0.77561 0.66496-0.08800-0.69535 0.62504
  -5  -9  -1 1471.88  443.39   1-0.21503-0.28696-0.20701-0.36842-0.95441 0.88426
   5  -9   1 2083.45  467.25   1 0.19213 0.30762-0.22514-0.34808 0.95519-0.88555
  -5  -9  -2 1157.12  320.26   1-0.89300 0.37243 0.33887-0.91491-0.29615 0.15563
  -5   9  -2 2859.09  900.80   1 0.31265-0.83340 0.65518-0.07822-0.68773 0.54709
  -5  -9  -2  861.57  328.98   1-0.15887-0.36067-0.15830-0.41713-0.97452 0.83421
   5  -9   2 1616.79  479.99   1 0.14403 0.37349-0.17025-0.40297 0.97481-0.83553
  -5  -9  -3 8815.43 1444.15   1-0.87792 0.34108 0.35819-0.93389-0.31772 0.10725
  -5   9  -310967.43 1179.58   1 0.34109-0.87955 0.64745-0.07049-0.68150 0.47055
  -5  -9  -3 9451.96 1725.12   1-0.10843-0.42866-0.11448-0.46095-0.98748 0.77702
   5  -9   312599.61 1169.39   1 0.10061 0.43468-0.12072-0.45250 0.98757-0.77864
  -5   9  -4 8073.39 1056.64   1 0.35989-0.91605 0.64197-0.06501-0.67701 0.39574
   5  -9   4 6455.43 1211.23   1 0.06249 0.49057-0.07726-0.49597 0.99505-0.71648
  -5   9  -5 1742.36  908.70   1 0.37060-0.94447 0.63871-0.06175-0.67431 0.32272
  -5  -9  -5 1888.11  634.04   1-0.02613-0.54598-0.04421-0.53144-0.99868 0.64766
   5  -9   5 1143.09  584.08   1 0.03087 0.54182-0.04125-0.53312 0.99867-0.64976
  -5 -10   8 3258.93 1058.16   1-0.99440 0.65118-0.03883-0.60109 0.09825 0.46329
   5  10  -8 4609.02  901.71   1 0.69372-0.34977 0.61527 0.02473 0.37440-0.93650
  -5  10   8 5391.54 1117.74   1-0.60311 0.25937 0.68846-0.04774-0.40283 0.96459
  -5 -10   7 3228.67  706.22   1-0.99820 0.63866-0.00278-0.63694 0.05979 0.43173
   5  10  -7 1979.21  647.58   1 0.66296-0.30156 0.59043 0.04959 0.46028-0.95215
  -5  10   7 4065.47  914.42   1-0.57581 0.21432 0.65820-0.01777-0.48498 0.97659
  -5 -10   6 3227.08  808.04   1-0.99917 0.62168 0.03406-0.67380 0.02193 0.39937
   5  10  -6 4444.48  811.53   1 0.62561-0.24640 0.55900 0.08102 0.54417-0.96577
  -5  10   6 3565.42  710.40   1-0.54310 0.16396 0.62123 0.01919-0.56489 0.98627
  -5 -10   5  628.86  269.23   1-0.99744 0.60199 0.06988-0.70962-0.01502 0.36611
   5  10  -5 1380.04  765.35   1 0.58153-0.18451 0.52156 0.11846 0.62433-0.97566
  -5  10   5 2489.07  858.99   1-0.50495 0.10816 0.57802 0.06239-0.64102 0.99217
  -5 -10   4 3807.16  909.88   1-0.99323 0.57982 0.10442-0.74416-0.05081 0.33168
   5  10  -4 2968.51  836.59   1 0.53125-0.11646 0.47883 0.16146 0.69892-0.97998
  -5  10   4 6416.59 1016.16   1-0.46168 0.04713 0.52923 0.11127-0.71186 0.99267
  -5 -10   3 4602.98  764.67   1-0.98685 0.55548 0.13740-0.77714-0.08512 0.29578
  -5  10   3 6923.29  641.12   1-0.05250-0.37963 0.69995-0.05911-0.71225 0.92324
  -5  10   3 3613.12  901.68   1-0.41473-0.01744 0.47586 0.16464-0.77559 0.98619
  -5 -10   2  405.39  236.11   1-0.97866 0.52934 0.16847-0.80821-0.11759 0.25803
   5  10  -2  780.18  386.06   1 0.41724 0.03279 0.38127 0.25886 0.82494-0.96535
  -5 -10   1 4307.99  752.95   1-0.96945 0.50255 0.19696-0.83701-0.14618 0.21644
  -5  10   1 3841.29  895.98   1 0.15553-0.62309 0.68629-0.04545-0.71049 0.78082
   5  10  -1 4483.01  573.64   1 0.35749 0.11026 0.32942 0.31070 0.87388-0.94408
  -5 -10   0 2207.06  569.69   1-0.95927 0.47449 0.22296-0.86300-0.17342 0.17342
  -5  10   0 1928.68  538.07   1 0.22535-0.71069 0.67486-0.03379-0.70269 0.70269
   5  10   0 3246.46  800.22   1 0.29832 0.18716 0.27791 0.36222 0.91310-0.91310
  -5 -10  -1 4030.80  744.65   1-0.94902 0.44635 0.24573-0.88578-0.19737 0.12711
  -5  10  -1 3929.61  603.99   1 0.27798-0.78102 0.66372-0.02265-0.69440 0.62408
  -5 -10  -1 5127.22  621.46   1-0.24001-0.26198-0.22864-0.41072-0.94345 0.87330
  -5 -10  -2 1985.28  595.79   1-0.93950 0.41893 0.26471-0.90475-0.21738 0.07686
  -5  10  -2 3579.38  621.31   1 0.31678-0.83753 0.65410-0.01304-0.68687 0.54623
  -5 -10  -2 4183.86  561.32   1-0.18681-0.33273-0.18254-0.45682-0.96528 0.82498
   5 -10   2 3151.82  703.77   1 0.16727 0.35025-0.19677-0.44015 0.96607-0.82679
  -5  10  -3  851.49  478.71   1 0.34429-0.88275 0.64654-0.00547-0.68076 0.46981
  -5 -10  -3   15.24  192.11   1-0.13866-0.39843-0.14075-0.49861-0.98028 0.76982
   5 -10   3 1548.71  469.35   1 0.12622 0.40907-0.14993-0.48699 0.98060-0.77168
  -5  10  -4 5979.71 1146.06   1 0.36247-0.91863 0.64119-0.00013-0.67637 0.39509
  -5 -10  -4 3085.25  563.90   1-0.09624-0.45840-0.10388-0.53549-0.98992 0.70930
   5 -10   4 4948.69  828.03   1 0.08986 0.46320-0.10846-0.52845 0.99002-0.71146
  -5 -11   6 1030.00  461.63   1-0.99798 0.62049-0.00606-0.69764 0.06314 0.35816
   5  11  -6  871.47  559.69   1 0.62955-0.25035 0.56233 0.14169 0.53613-0.95773
  -5  11   6  549.53  458.95   1-0.54465 0.16552 0.62298 0.08147-0.56145 0.98283
  -5 -11   5 4112.91  831.37   1-0.99920 0.60375 0.02602-0.72973 0.03021 0.32088
   5  11  -5 3664.29  575.38   1 0.58761-0.19060 0.52675 0.17727 0.61419-0.96552
  -5  11   5 6784.08  844.19   1-0.50824 0.11145 0.58175 0.12270-0.63501 0.98616
  -5 -11   4 4394.05  707.38   1-0.99839 0.58498 0.05664-0.76035-0.00134 0.28221
   5  11  -4 4447.03  628.16   1 0.54007-0.12529 0.48640 0.21792 0.68682-0.96788
  -5  11   4 4904.02  867.52   1-0.46728 0.05273 0.53559 0.16896-0.70340 0.98421
  -5 -11   3 2965.20  734.19   1-0.99584 0.56448 0.08550-0.78921-0.03118 0.24184
   5  11  -3 1888.58  592.21   1 0.48827-0.05570 0.44188 0.26244 0.75254-0.96333
  -5  11   3 3621.28  689.02   1-0.42314-0.00903 0.48543 0.21912-0.76505 0.97565
  -5 -11   2  616.27  249.38   1-0.99192 0.54260 0.11226-0.81597-0.05895 0.19939
  -5  11   2 1000.66  425.99   1 0.06752-0.51737 0.69580 0.00912-0.71505 0.85570
   5  11  -2 1098.43  431.62   1 0.43288 0.01715 0.39481 0.30933 0.81038-0.95079
  -5  11   2  825.86  513.94   1-0.37669-0.07310 0.43259 0.27196-0.81912 0.95952
  -5 -11   1 1255.63  490.56   1-0.98705 0.51977 0.13651-0.84022-0.08420 0.15442
  -5  11   1 2432.70  727.91   1 0.15707-0.62462 0.68608 0.01884-0.71036 0.78069
   5  11  -1 1747.69  652.69   1 0.37686 0.09090 0.34625 0.35790 0.85911-0.92932
  -5  11   0 4438.11  785.00   1 0.22553-0.71087 0.67482 0.03034-0.70266 0.70266
  -5 -11  -1 2213.59  440.95   1-0.97689 0.47421 0.17477-0.87882-0.12300 0.05274
  -5  11  -1 3451.05  649.65   1 0.27709-0.78013 0.66392 0.04124-0.69456 0.62424
   5  11   1 3504.81  618.53   1 0.26779 0.23542 0.25127 0.45287 0.93013-0.85992
  -5  11  -2 3207.41  697.78   1 0.31512-0.83587 0.65454 0.05062-0.68721 0.54658
  -5 -11  -2 2315.54  481.24   1-0.21588-0.30366-0.20774-0.49556-0.95406 0.81375
   5 -11   2 2257.41  463.98   1 0.19119 0.32633-0.22408-0.47653 0.95563-0.81634
  -5  11  -315513.78 2329.04   1 0.34213-0.88059 0.64716 0.05801-0.68126 0.47031
  -5 -11  -314199.62 2082.24   1-0.16991-0.36717-0.16788-0.53542-0.97105 0.76059
  -5 -12   4  292.50  269.77   1-0.99881 0.58540 0.00884-0.77653 0.04785 0.23301
   5  12  -4 2372.10  617.14   1 0.55093-0.13615 0.49570 0.27264 0.67136-0.95243
  -5  12   4 1427.39  700.26   1-0.47475 0.06020 0.54407 0.22453-0.69180 0.97260
  -5 -12   3 1372.95  616.41   1-0.99918 0.56781 0.03364-0.80132 0.02237 0.18828
   5  12  -3 1405.48  495.04   1 0.50230-0.06973 0.45396 0.31438 0.73593-0.94672
  -5  12   3 1724.23  659.65   1-0.43332 0.00114 0.49700 0.27160-0.75180 0.96240
  -5 -12   2 1627.61  459.40   1-0.99842 0.54910 0.05605-0.82374-0.00073 0.14116
   5  12  -2 1181.40  440.60   1 0.45097-0.00061 0.40970 0.35864 0.79294-0.93347
  -5  12   2  869.81  469.03   1-0.38987-0.05992 0.44759 0.32102-0.80477 0.94517
  -5 -12   1  887.44  282.55   1-0.99691 0.52964 0.07562-0.84330-0.02095 0.09117
  -5  12   1  478.87  297.79   1 0.15133-0.61888 0.68687 0.08213-0.71084 0.78117
   5  12  -1 1563.44  495.52   1 0.39780 0.06996 0.36442 0.40373 0.84198-0.91219
  -5 -12   0 3228.23  793.50   1-0.99506 0.50983 0.09175-0.85944-0.03766 0.03766
  -5  12   0 3300.55  703.91   1 0.21919-0.70453 0.67602 0.09325-0.70351 0.70351
   5  12   0 3741.14  722.01   1 0.34559 0.13989 0.31907 0.44908 0.88246-0.88246
  -5  12  -1  601.97  348.32   1 0.27029-0.77334 0.66548 0.10379-0.69575 0.62543
   5  12   1  763.16  417.71   1 0.29515 0.20806 0.27514 0.49302 0.91497-0.84477
  -6   0  12  401.70  162.39   1-0.99771 0.63091-0.00966 0.00966 0.06683 0.77579
   6   0 -12  852.69  545.68   1 0.74254-0.37284 0.64599-0.64599-0.17695-0.66608
  -6   0  11  221.68  259.20   1-0.99745 0.61269 0.06970-0.06970-0.01483 0.78723
   6   0 -11  523.02  365.16   1 0.74945-0.36201 0.65322-0.65322-0.10777-0.66501
  -6   0  11  488.14  304.26   1-0.65287 0.26516 0.74129-0.74129 0.15568 0.61658
  -6   0  10  704.11  374.05   1-0.98392 0.58120 0.14947-0.14947-0.09772 0.79991
   6   0 -10 1348.69  612.03   1 0.75186-0.34660 0.65841-0.65841-0.03445-0.66810
  -6   0  10  807.92  346.14   1-0.65831 0.25294 0.74758-0.74758 0.08795 0.61411
  -6   0   9 8725.16 1088.31   1-0.95648 0.53577 0.22945-0.22945-0.18024 0.81258
   6   0  -911460.40 1068.62   1 0.75089-0.32786 0.65890-0.65890 0.04471-0.67701
  -6   0   9 8458.88  752.90   1-0.66001 0.23731 0.75108-0.75108 0.01575 0.61607
  -6   0   8  791.53  378.89   1-0.91506 0.47646 0.30670-0.30670-0.26187 0.82395
   6   0  -8  750.95  435.15   1 0.74455-0.30375 0.65477-0.65477 0.13005-0.69210
  -6   0   8   73.37  385.58   1-0.65870 0.21830 0.74975-0.74975-0.06303 0.62466
  -6   0   7 6964.55  888.23   1-0.85940 0.40237 0.38046-0.38046-0.34155 0.83266
   6   0  -7 5832.58  585.05   1 0.73089-0.27196 0.64539-0.64539 0.22195-0.71379
  -6   0   7 4598.95  501.06   1-0.65255 0.19446 0.74292-0.74292-0.14907 0.64050
  -6   0   6108583.9 3562.52   1-0.79182 0.31713 0.44829-0.44829-0.41478 0.83573
   6   0  -6105199.1 4922.73   1 0.70895-0.23226 0.62778-0.62778 0.32134-0.74292
  -6   0   6103610.7 3041.43   1-0.63955 0.16350 0.72931-0.72931-0.24303 0.66435
  -6   0   5 7822.42  519.94   1-0.71381 0.22107 0.50920-0.50920-0.48080 0.83176
   6   0  -5 8557.09  569.58   1 0.67559-0.18135 0.60097-0.60097 0.42708-0.77841
  -6   0   510410.07  675.54   1-0.61821 0.12450 0.70543-0.70543-0.34665 0.69775
  -6   0   415417.12  721.35   1-0.62870 0.11831 0.56092-0.56092-0.53859 0.81936
   6   0  -416133.10  719.60   1 0.62856-0.11652 0.56149-0.56149 0.53816-0.81923
  -6   0   419060.65  883.43   1-0.58501 0.07355 0.66859-0.66859-0.45906 0.73998
  -6   0   3 5634.52  591.42   1-0.54028 0.01145 0.60335-0.60335-0.58656 0.79739
   6   0  -3 4782.19  461.07   1 0.56537-0.03561 0.50805-0.50805 0.64979-0.86058
  -6   0   3 4101.51  487.04   1-0.53684 0.00773 0.61414-0.61414-0.57846 0.78915
  -6   0   2 3007.23  387.68   1-0.45212-0.09439 0.63616-0.63616-0.62520 0.76576
   6   0  -2 4200.10  458.16   1 0.48570 0.06183 0.43967-0.43967 0.75549-0.89602
  -6   0   2 4572.43  483.82   1-0.47069-0.07612 0.53946-0.53946-0.69815 0.83855
  -6   0   133906.76 1316.76   1-0.36802-0.19617 0.66023-0.66023-0.65470 0.72498
   6   0  -132286.73 1107.83   1 0.39204 0.17281 0.35943-0.35943 0.84682-0.91702
  -6   0   133477.88 1137.63   1-0.38706-0.17737 0.44439-0.44439-0.80789 0.87809
  -6   0   0110641.1 2827.40   1-0.29099-0.29099 0.67696-0.67696-0.67605 0.67605
   6   0   0115342.8 3268.09   1 0.29129 0.29129 0.27177-0.27177 0.91721-0.91721
  -6   0  -1 3017.37  265.55   1-0.19064-0.40824-0.18586 0.18586-0.96390 0.89374
   6   0   1 4512.42  286.31   1 0.19047 0.40568-0.22325 0.22325 0.95596-0.88632
  -6   0  -246521.57 1615.99   1-0.16500-0.45223 0.69398-0.69398-0.70083 0.56024
  -6   0  -247202.67 1763.30   1-0.09899-0.51744-0.10627 0.10627-0.98939 0.84909
   6   0   246217.89 1387.94   1 0.09860 0.51532-0.11842 0.11842 0.98805-0.84877
  -6   0  -325093.49 1473.37   1-0.11761-0.51725 0.69732-0.69732-0.70703 0.49616
  -6   0  -322245.11 2318.97   1-0.02013-0.61389-0.03898 0.03898-0.99903 0.78842
   6   0   324822.77 2092.93   1 0.02124 0.61239-0.03029 0.03029 0.99931-0.78997
  -6   0  -4 1435.91  609.32   1-0.08056-0.57193 0.69882-0.69882-0.71074 0.42957
  -6   0  -4 1592.60  432.00   1 0.04423-0.69577 0.01717-0.01717-0.99887 0.71805
   6   0   4  815.26  240.15   1-0.04212 0.69363 0.04178-0.04178 0.99823-0.71911
  -6   0  -513649.07 1088.02   1-0.05337-0.61675 0.69929-0.69929-0.71283 0.36137
  -6   0  -512922.08 1179.23   1 0.09471-0.76374 0.06129-0.06129-0.99361 0.64259
   6   0   511784.76 1229.74   1-0.09097 0.76034 0.09731-0.09731 0.99108-0.64218
  -6   0  -6  448.92  387.21   1-0.03649-0.65207 0.69998-0.69998-0.71322 0.29125
  -6   0  -6 1101.73  380.44   1 0.13198-0.81978 0.09448-0.09448-0.98673 0.56481
   6   0   6  912.26  284.86   1-0.12767 0.81530 0.13849-0.13849 0.98209-0.56222
  -6   0  -7 1233.00  550.57   1-0.02723-0.67904 0.69991-0.69991-0.71370 0.22140
  -6   0  -7  928.00  312.42   1 0.15949-0.86485 0.11862-0.11862-0.98004 0.48780
   6   0   7  314.53  193.16   1-0.15347 0.85886 0.16778-0.16778 0.97380-0.48394
  -6   0  -8 1379.52  470.59   1-0.02592-0.69806 0.69990-0.69990-0.71376 0.15113
  -6   0  -8 1392.56  525.74   1 0.17813-0.90106 0.13500-0.13500-0.97469 0.41214
   6   0   8  765.26  320.89   1-0.17064 0.89378 0.18726-0.18726 0.96737-0.40753
  -6  -1  12  635.84  243.42   1-0.99759 0.63078-0.01125-0.05272 0.06846 0.77416
   6  -1 -12 1344.15  562.92   1 0.73445-0.36475 0.63797-0.70207-0.23144-0.61159
   6   1 -12 2449.55  634.55   1 0.74785-0.37816 0.65149-0.58739-0.12752-0.71551
  -6  -1  12  822.16  390.20   1-0.63444 0.26437 0.72010-0.78409 0.28096 0.56151
  -6   1  12 1087.76  388.55   1-0.65218 0.28212 0.74049-0.67650 0.16221 0.68025
  -6   1  11 2468.63  474.15   1-0.99717 0.61241 0.07284-0.00886-0.01807 0.79048
  -6  -1  11 2932.18  629.91   1-0.99802 0.61326 0.06241-0.12638-0.00729 0.77970
   6  -1 -11 3810.63  591.90   1 0.74377-0.35633 0.64724-0.71134-0.16697-0.60581
   6   1 -11 1717.87  511.35   1 0.75135-0.36385 0.65760-0.59357-0.05498-0.71783
  -6  -1  11 2054.01  520.23   1-0.64432 0.25660 0.73144-0.79543 0.22324 0.54902
  -6   1  11 2088.06  559.90   1-0.65796 0.27024 0.74717-0.68318 0.09386 0.67840
  -6   1  10 2205.62  608.33   1-0.98134 0.57863 0.15914-0.09516-0.10783 0.81001
  -6  -1  10 2891.63  807.31   1-0.98705 0.58434 0.13648-0.20045-0.08417 0.78635
   6  -1 -10 2228.81  572.76   1 0.74919-0.34393 0.65496-0.71899-0.09861-0.60394
   6   1 -10 2090.04  689.72   1 0.75164-0.34637 0.65918-0.59514 0.02257-0.72513
  -6  -1  10 2363.28  609.20   1-0.65222 0.24685 0.74053-0.80453 0.16188 0.54017
  -6   1  10 2215.89  591.43   1-0.65994 0.25495 0.75100-0.68699 0.02156 0.68047
  -6  -1   9 3459.68  677.91   1-0.96419 0.54348 0.21091-0.27491-0.16078 0.79312
  -6   1   9 3543.88  713.82   1-0.94920 0.52849 0.24537-0.18137-0.19699 0.82933
   6  -1  -9 4188.89  954.33   1 0.75200-0.32896 0.65870-0.72273-0.02449-0.60780
   6   1  -9 3949.34  910.68   1 0.74696-0.32392 0.65647-0.59243 0.10532-0.73762
  -6  -1   9 4722.60  512.99   1-0.65782 0.23480 0.74702-0.81101 0.09602 0.53583
  -6   1   9 2579.84  607.38   1-0.65897 0.23627 0.75005-0.68604-0.05629 0.68812
  -6  -1   8 4698.20  967.39   1-0.92926 0.49066 0.28331-0.34731-0.23705 0.79913
  -6   1   8 3818.28  881.74   1-0.90084 0.46224 0.32793-0.26393-0.28448 0.84656
   6  -1  -8 4243.16  837.45   1 0.75037-0.30957 0.65863-0.72267 0.05593-0.61798
   6   1  -8 1405.59  441.98   1 0.73567-0.29450 0.64911-0.58511 0.19348-0.75558
  -6  -1   8 3994.95  692.91   1-0.65989 0.21949 0.75093-0.81494 0.02526 0.53636
  -6   1   8 3762.96  714.70   1-0.65343 0.21304 0.74391-0.67990-0.14004 0.70167
  -6   1   761644.85 2999.49   1-0.83629 0.37926 0.40575-0.34179-0.36873 0.85984
  -6  -1   760674.71 2959.29   1-0.88190 0.42486 0.35313-0.41710-0.31232 0.80343
   6  -1  -762725.50 8992.53   1 0.74300-0.28443 0.65364-0.71767 0.14384-0.63563
   6   1  -766966.68 9597.08   1 0.71731-0.25839 0.63457-0.57057 0.28770-0.77953
  -6  -1   757735.56 2783.72   1-0.65908 0.20099 0.75017-0.81418-0.05328 0.54470
  -6   1   762870.64 9023.28   1-0.64166 0.18327 0.73165-0.66758-0.23008 0.72162
  -6  -1   6 7508.91 1160.56   1-0.82381 0.34912 0.41843-0.48240-0.38241 0.80336
  -6   1   6 8760.90  829.59   1-0.75869 0.28401 0.47587-0.41190-0.44488 0.86583
   6  -1  -6 7996.18  595.36   1 0.72753-0.25084 0.64275-0.70675 0.23991-0.66149
   6   1  -6 8120.05  691.03   1 0.68957-0.21288 0.61184-0.54784 0.38746-0.80903
  -6  -1   6 8174.81  554.31   1-0.65336 0.17757 0.74383-0.80784-0.14079 0.56201
  -6   1   6 8621.58  643.72   1-0.62282 0.14676 0.71060-0.64653-0.32731 0.74863
  -6  -1   528283.86 1084.32   1-0.75601 0.26366 0.47797-0.54194-0.44718 0.79798
  -6   1   530037.31 1137.27   1-0.67037 0.17763 0.53717-0.47319-0.51190 0.86286
   6  -1  -528286.71 1123.04   1 0.70230-0.20784 0.62234-0.68634 0.34563-0.69694
   6   1  -528054.83 1081.61   1 0.65018-0.15594 0.57971-0.51571 0.49111-0.84244
  -6  -1   528735.96 1059.34   1-0.64029 0.14657 0.73012-0.79420-0.23861 0.58971
  -6   1   531570.49 1204.28   1-0.59429 0.10048 0.67904-0.61500-0.43094 0.78209
  -6  -1   417303.77  737.60   1-0.68068 0.17028 0.53084-0.59482-0.50484 0.78561
  -6   1   416515.62  731.76   1-0.57568 0.06528 0.58743-0.52346-0.56877 0.84954
   6  -1  -417944.71  740.83   1 0.66325-0.15120 0.59067-0.65468 0.45956-0.74062
   6   1  -420446.88  857.10   1 0.59776-0.08572 0.53538-0.47138 0.59668-0.87775
  -6  -1   418327.86  773.89   1-0.61737 0.10600 0.70449-0.76856-0.35004 0.63092
  -6   1   416437.71  787.89   1-0.55408 0.04262 0.63364-0.56960-0.53989 0.82081
  -6  -1   3 1431.36  343.95   1-0.60088 0.07283 0.57532-0.63929-0.55492 0.76550
  -6   1   3 1739.08  349.37   1-0.47924-0.04959 0.62694-0.56288-0.61421 0.82504
   6  -1  -3 2413.13  390.70   1 0.60706-0.07721 0.54328-0.60729 0.57991-0.79071
   6   1  -3 1247.22  323.07   1 0.53104-0.00128 0.47866-0.41463 0.69919-0.90998
  -6  -1   3 2160.44  359.22   1-0.57956 0.05044 0.66243-0.72647-0.47464 0.68533
  -6   1   3  985.68  388.63   1-0.49976-0.02941 0.57247-0.50842-0.64999 0.86060
  -6  -1   284213.55 2607.37   1-0.52010-0.02642 0.61161-0.67567-0.59617 0.73672
  -6   1   277747.10 2445.87   1-0.38517-0.16134 0.65585-0.59179-0.64922 0.78977
   6  -1  -283291.17 2486.87   1 0.53099 0.01655 0.47861-0.54264 0.69927-0.83980
   6   1  -282300.84 2517.96   1 0.45110 0.09644 0.40982-0.34579 0.79281-0.93334
  -6  -1   281906.67 2408.86   1-0.52167-0.02509 0.59696-0.66101-0.60949 0.74995
  -6   1   285046.96 2581.25   1-0.43106-0.11574 0.49444-0.43038-0.75478 0.89519
  -6  -1   111467.14  761.11   1-0.44114-0.12306 0.63968-0.70374-0.62944 0.69971
  -6   1   112325.32  774.33   1-0.29746-0.26688 0.67575-0.61167-0.67444 0.74473
   6  -1  -112449.49  630.05   1 0.43582 0.12903 0.39736-0.46137 0.80756-0.87776
   6   1  -111368.32  617.63   1 0.36102 0.20383 0.33249-0.26848 0.87126-0.94147
  -6  -1   111342.04  563.59   1-0.43987-0.12456 0.50444-0.56849-0.74299 0.81320
  -6   1   0 7736.31  628.81   1-0.21874-0.36324 0.68819-0.62411-0.69176 0.69176
   6  -1   0 7212.88  490.77   1 0.32820 0.25438 0.30394-0.36796 0.89436-0.89436
   6   1   0 8264.30  640.22   1 0.26725 0.31533 0.25079-0.18678 0.93041-0.93041
  -6  -1  -147807.24 1649.05   1-0.30053-0.29907 0.67516-0.73925-0.67366 0.60337
  -6   1  -146923.62 1683.13   1-0.15065-0.44895 0.69516-0.63108-0.70288 0.63259
  -6   1  -144594.58 1375.65   1-0.21763-0.38125-0.20926 0.27320-0.95333 0.88317
  -6  -1  -144672.44 1430.73   1-0.17501-0.42387-0.17231 0.10837-0.96936 0.89921
   6  -1   144722.24 1383.39   1 0.17137 0.42478-0.20144 0.13775 0.96439-0.89475
  -6  -1  -212298.35  737.34   1-0.24258-0.37465 0.68493-0.74901-0.68703 0.54645
  -6   1  -214168.09  962.89   1-0.11561-0.50082-0.12072 0.18466-0.98592 0.84562
  -6  -1  -213830.63 1290.23   1-0.09163-0.52480-0.09987 0.03593-0.99077 0.85046
   6  -1   211828.96  767.48   1 0.09018 0.52374-0.10882 0.04513 0.98996-0.85067
  -6  -1  -3 8225.85  772.97   1-0.19421-0.44065 0.69110-0.75518-0.69617 0.48530
  -6   1  -3 9071.34  896.73   1-0.04881-0.58662 0.69997-0.63588-0.71249 0.50151
  -6  -1  -3 7749.16 1078.79   1-0.01947-0.61455-0.03841-0.02555-0.99907 0.78846
  -6   1  -3 6836.58 1033.30   1-0.02816-0.60586-0.04598 0.10994-0.99854 0.78793
   6  -1   3 7895.12  933.27   1 0.02139 0.61224-0.03046-0.03335 0.99930-0.78996
   6   1   3 7169.90 1068.94   1 0.02849 0.60514-0.03854 0.10236 0.99885-0.78950
  -6  -1  -432451.09 1566.61   1-0.15563-0.49687 0.69477-0.75885-0.70218 0.42102
  -6   1  -433203.88 1676.39   1-0.01400-0.63914 0.69972-0.63563-0.71427 0.43296
  -6   1  -431177.56 2318.90   1 0.04269-0.69422 0.01582 0.04813-0.99896 0.71814
  -6  -1  -428550.49 2771.74   1 0.03989-0.69142 0.01337-0.07734-0.99911 0.71829
   6   1   431533.75 1415.70   1-0.04317 0.69467 0.04296 0.02085 0.99814-0.71902
   6  -1   433082.36 1549.95   1-0.03583 0.68733 0.03462-0.09844 0.99875-0.71963
  -6  -1  -5 3034.06  735.30   1-0.12666-0.54346 0.69681-0.76089-0.70597 0.35452
  -6   1  -5 1670.88  611.71   1 0.01091-0.68177 0.69901-0.63493-0.71502 0.36337
  -6   1  -5 2313.51  699.68   1 0.09752-0.76656 0.06375 0.00020-0.99318 0.64216
  -6  -1  -5 2120.34  625.35   1 0.08701-0.75605 0.05455-0.11852-0.99471 0.64369
   6   1   5 2017.12  478.53   1-0.09720 0.76657 0.10438-0.04056 0.98977-0.64087
   6  -1   5 1775.96  395.86   1-0.08077 0.75015 0.08572-0.14954 0.99303-0.64413
  -6  -1  -6 2186.42  614.57   1-0.10691-0.58084 0.69785-0.76194-0.70820 0.28646
  -6   1  -6  652.56  412.67   1 0.02675-0.71532 0.69834-0.63426-0.71526 0.29328
  -6   1  -6 1380.57  400.35   1 0.13750-0.82530 0.09932-0.03526-0.98550 0.56358
  -6  -1  -6  672.66  265.87   1 0.12308-0.80962 0.08612-0.15008-0.98865 0.56742
   6   1   6 1194.28  359.75   1-0.13685 0.82449 0.14892-0.08498 0.97933-0.55945
   6  -1   6  751.19  271.16   1-0.11477 0.80201 0.12435-0.18817 0.98557-0.56689
  -6  -1  -7 1493.44  516.00   1-0.09586-0.60952 0.69832-0.76240-0.70933 0.21729
  -6   1  -7 1338.32  501.02   1 0.03430-0.74058 0.69796-0.63387-0.71531 0.22301
  -6   1  -7  966.66  342.09   1 0.16656-0.87192 0.12483-0.06078-0.97809 0.48585
  -6  -1  -7  774.58  326.99   1 0.14863-0.85399 0.10909-0.17315-0.98285 0.49061
   6   1   7  569.89  230.21   1-0.16416 0.86955 0.17991-0.11597 0.96988-0.48002
   6  -1   7  424.75  320.42   1-0.13992 0.84531 0.15240-0.21634 0.97836-0.48850
  -6  -1  -8 1646.58  581.21   1-0.09303-0.62999 0.69842-0.76251-0.70960 0.14727
  -6   1  -8 1112.11  552.59   1 0.03422-0.75820 0.69796-0.63388-0.71531 0.15268
  -6   1  -8 1467.62  481.54   1 0.18597-0.90889 0.14189-0.07783-0.97225 0.40969
  -6  -1  -8 2121.28  489.96   1 0.16681-0.88973 0.12505-0.18911-0.97802 0.41546
   6  -1   8 1151.10  376.63   1-0.15673 0.87987 0.17147-0.23541 0.97264-0.41280
  -6  -2  11 1928.59  627.26   1-0.99865 0.61389 0.05172-0.17967 0.00373 0.76866
   6  -2 -11 2704.63  420.76   1 0.73439-0.34696 0.63791-0.76611-0.23178-0.54100
   6   2 -11 3595.74  610.22   1 0.75206-0.36456 0.65903-0.53096-0.00785-0.76495
  -6  -2  11 4189.68  622.09   1-0.63150 0.24378 0.71673-0.84472 0.29580 0.47645
  -6   2  11 2826.94  551.73   1-0.65962 0.27233 0.75060-0.62258 0.03859 0.73364
  -6  -2  10 6104.93 1208.49   1-0.99036 0.58765 0.12073-0.24868-0.06776 0.76995
  -6   2  10 6341.81 1349.55   1-0.97976 0.57704 0.16475-0.03680-0.11369 0.81588
   6  -2 -10 8913.54  964.52   1 0.74352-0.33834 0.64698-0.77518-0.16905-0.53348
   6   2 -10 7313.40  973.16   1 0.74944-0.34417 0.65809-0.53002 0.07243-0.77499
  -6  -2  10 6566.67  669.51   1-0.64135 0.23598 0.72803-0.85602 0.24213 0.45992
  -6   2  10 9314.79 1044.17   1-0.65956 0.25457 0.75069-0.62267-0.03788 0.73991
  -6  -2   9  314.56  181.02   1-0.97186 0.55115 0.19012-0.31813-0.13903 0.77137
  -6   2   9  839.00  262.98   1-0.94288 0.52217 0.25819-0.13018-0.21050 0.84284
   6  -2  -9  487.63  388.65   1 0.74896-0.32592 0.65469-0.78276-0.10215-0.53014
   6   2  -9 2042.44  822.35   1 0.74081-0.31741 0.65302-0.52502 0.15731-0.78968
  -6  -2   9 1239.36  477.60   1-0.64955 0.22653 0.73746-0.86545 0.18500 0.44685
  -6   2   9  287.58  402.78   1-0.65525 0.23255 0.74594-0.61791-0.11923 0.75106
  -6  -2   8  540.06  153.63   1-0.94297 0.50437 0.25801-0.38602-0.21031 0.77239
  -6   2   8  214.30  157.85   1-0.88652 0.44714 0.34712-0.21918-0.30591 0.86718
   6  -2  -8 1057.31  383.23   1 0.75195-0.31115 0.65858-0.78665-0.02879-0.53325
   6   2  -8  649.30  444.27   1 0.72609-0.28493 0.64160-0.51360 0.24723-0.80933
  -6  -2   8  632.99  323.81   1-0.65585 0.21517 0.74473-0.87272 0.12340 0.43824
  -6   2   8  795.33  489.59   1-0.64530 0.20457 0.73570-0.60755-0.20572 0.76747
  -6  -2   7 7415.77 1080.68   1-0.90370 0.44721 0.32382-0.45183-0.28009 0.77191
  -6   2   7 8203.25 1190.14   1-0.81318 0.35615 0.42875-0.30081-0.39357 0.88468
   6  -2  -7 7527.86  658.19   1 0.75057-0.29200 0.65874-0.78681 0.05195-0.54374
   6   2  -7 8607.04  860.99   1 0.70338-0.24445 0.62322-0.49522 0.34182-0.83366
  -6  -2   7 7523.72  590.28   1-0.65907 0.20097 0.74992-0.87794 0.05689 0.43453
  -6   2   7 8798.12  866.44   1-0.62929 0.17089 0.71785-0.58970-0.29778 0.78932
  -6  -2   613624.52 1343.93   1-0.85407 0.37938 0.38653-0.51447-0.34806 0.76901
  -6   2   613770.20  691.36   1-0.72499 0.24990 0.50141-0.37346-0.47219 0.89334
   6  -2  -611677.86  735.90   1 0.74323-0.26690 0.65381-0.78188 0.14186-0.56340
   6   2  -612497.74  951.50   1 0.67084-0.19442 0.59702-0.46901 0.43992-0.86152
  -6  -2   610717.50  602.87   1-0.65994 0.18415 0.75108-0.87910-0.01839 0.43961
  -6   2   613189.03  888.81   1-0.60535 0.12930 0.69098-0.56284-0.39506 0.81638
  -6  -2   5 2667.46  437.73   1-0.79597 0.30362 0.44461-0.57255-0.41078 0.76157
  -6   2   5 2176.33  348.65   1-0.62656 0.13382 0.56207-0.43412-0.53989 0.89085
   6  -2  -5 1826.91  329.32   1 0.72706-0.23261 0.64238-0.77038 0.24231-0.59363
   6   2  -5 2636.50  549.28   1 0.62749-0.13326 0.56059-0.43258 0.54035-0.89168
  -6  -2   5 2196.47  464.84   1-0.65636 0.16286 0.74717-0.87519-0.10451 0.45553
  -6   2   5 1151.83  538.66   1-0.57165 0.07785 0.65350-0.52542-0.49611 0.84727
  -6  -2   431748.56 1078.79   1-0.73052 0.22012 0.49745-0.62540-0.46783 0.74860
  -6   2   432912.85 1192.33   1-0.52303 0.01188 0.61044-0.48232-0.59480 0.87591
   6  -2  -427912.87  921.83   1 0.69935-0.18713 0.61992-0.74792 0.35580-0.63685
   6   2  -429092.77 1008.30   1 0.57185-0.05988 0.51359-0.38553 0.63968-0.92074
  -6  -2   428839.29  910.89   1-0.64550 0.13413 0.73592-0.86406-0.20430 0.48517
  -6   2   431650.09 1190.14   1-0.52693 0.01547 0.60292-0.47484-0.59901 0.87993
  -6  -2   3  902.24  333.82   1-0.66004 0.13199 0.54332-0.67127-0.51878 0.72936
  -6   2   3 1909.72  495.03   1-0.41951-0.10931 0.64627-0.51815-0.63744 0.84827
   6  -2  -3 1731.82  408.52   1 0.65455-0.12470 0.58339-0.71139 0.48083-0.69163
   6   2  -3  844.59  378.27   1 0.50413 0.02562 0.45553-0.32747 0.73371-0.94451
  -6  -2   3  689.62  362.11   1-0.62347 0.09444 0.71133-0.83948-0.32445 0.53511
  -6   2   3 2295.18  691.14   1-0.46993-0.05925 0.53860-0.41050-0.69932 0.90993
  -6  -2   2 9613.18  557.51   1-0.58711 0.04140 0.58204-0.70999-0.56260 0.70298
  -6   2   2 9766.81  778.46   1-0.32096-0.22556 0.67096-0.54284-0.66841 0.80897
   6  -2  -2 8736.34  482.47   1 0.58755-0.03989 0.52670-0.65470 0.61429-0.75482
   6   2  -211908.42  684.02   1 0.42545 0.12168 0.38838-0.26035 0.81740-0.95781
  -6  -2   2 5316.41  689.84   1-0.06590-0.47839 0.06881-0.19645 0.99544-0.85588
  -6  -2   2 9848.52  459.62   1-0.58228 0.03551 0.66550-0.79358-0.46695 0.60741
  -6   2   211014.77  666.66   1-0.40163-0.14518 0.46096-0.33286-0.79133 0.93173
  -6   2   125427.52 1007.62   1-0.23105-0.33330 0.68656-0.55840-0.68937 0.75966
   6  -2  -124538.04  767.43   1 0.49552 0.06980 0.44813-0.57619 0.74406-0.81432
   6   2  -125520.27  916.39   1 0.34019 0.22466 0.31438-0.18635 0.88624-0.95645
  -6  -2   118259.39  955.94   1-0.24738-0.31598 0.27434-0.40222 0.92926-0.85928
  -6  -2   123825.73  715.55   1-0.51225-0.05217 0.58629-0.71437-0.62758 0.69781
  -6  -2   039458.70 1275.34   1-0.44558-0.13631 0.63827-0.76639-0.62774 0.62774
  -6   2   041898.36 1404.46   1-0.15203-0.42994 0.69505-0.56689-0.70269 0.70269
   6  -2   043356.85 1203.72   1 0.38253 0.20005 0.35118-0.47920 0.85459-0.85459
  -6  -2   033709.92  860.24   1-0.40469-0.17656 0.45423-0.58217 0.79365-0.79365
  -6  -2   039322.13 1035.80   1-0.40823-0.17383 0.46846-0.59656-0.78350 0.78350
  -6  -2  -117712.34  837.42   1-0.38170-0.21787 0.65676-0.78488-0.65035 0.58008
  -6   2  -115894.63  887.44   1-0.08500-0.51460 0.69869-0.57053-0.71035 0.64006
  -6  -2  -115694.62  764.07   1-0.16790-0.43098-0.16614 0.03826-0.97170 0.90154
   6  -2   117014.92  670.42   1 0.26107 0.33924 0.24539-0.37342 0.93360-0.86340
   6  -2   117870.06  774.56   1 0.16191 0.43424-0.19065 0.06327 0.96821-0.89857
  -6  -2  -224076.07 1093.92   1-0.32507-0.29219 0.67010-0.79822-0.66729 0.52674
  -6   2  -224500.05 1175.57   1-0.03047-0.58725 0.69994-0.57177-0.71354 0.57288
  -6   2  -221614.35  911.60   1-0.14507-0.47135-0.14632 0.27419-0.97854 0.83823
  -6  -2  -221149.21 2157.57   1-0.09127-0.52516-0.09955-0.02831-0.99083 0.85052
   6   2   221790.36  772.33   1 0.15299 0.46092-0.18048 0.30786 0.97160-0.83232
   6  -2   224389.16 2072.56   1 0.08902 0.52490-0.10750-0.01988 0.99021-0.85092
  -6  -2  -315478.90  962.84   1-0.27688-0.35799 0.67947-0.80763-0.67944 0.46857
  -6   2  -321876.29 1315.12   1 0.01272-0.64816 0.69894-0.57078-0.71505 0.50407
  -6   2  -316504.23 1602.37   1-0.04614-0.58788-0.06164 0.18957-0.99703 0.78641
  -6  -2  -318999.22 1554.06   1-0.02448-0.60953-0.04278-0.08514-0.99878 0.78817
   6  -2   320452.41 1835.52   1 0.02683 0.60680-0.03665-0.09098 0.99896-0.78962
   6   2   318291.35  964.18   1 0.04677 0.58686-0.05934 0.18698 0.99714-0.78779
  -6  -2  -4  776.58  362.66   1-0.23760-0.41490 0.68565-0.81381-0.68806 0.40689
  -6   2  -4 1543.48  665.01   1 0.04519-0.69834 0.69733-0.56917-0.71531 0.43400
  -6  -2  -4  857.41  295.02   1 0.03087-0.68240 0.00550-0.13343-0.99950 0.71869
  -6   2  -4  325.57  247.70   1 0.03343-0.68496 0.00774 0.12018-0.99941 0.71859
   6   2   4  521.63  157.10   1-0.03681 0.68832 0.03574 0.09189 0.99868-0.71956
   6  -2   4  898.30  278.97   1-0.02561 0.67712 0.02300-0.15064 0.99940-0.72028
  -6  -2  -5 9491.86  834.94   1-0.20747-0.46265 0.68958-0.81775-0.69384 0.34239
  -6   2  -5 7114.86  779.49   1 0.06789-0.73875 0.69577-0.56760-0.71504 0.36340
  -6  -2  -5 7875.18 1318.39   1 0.07534-0.74437 0.04435-0.17227-0.99617 0.64515
  -6   2  -5 5964.03 1046.78   1 0.09415-0.76318 0.06080 0.06712-0.99369 0.64268
   6   2   5 7450.73 1124.62   1-0.09812 0.76749 0.10543 0.02220 0.98957-0.64067
   6  -2   5 8128.32 1421.99   1-0.06749 0.73686 0.07061-0.19826 0.99521-0.64631
  -6  -2  -6 2031.93  591.41   1-0.18636-0.50139 0.69193-0.82010-0.69748 0.27573
  -6   2  -6 1091.08  518.26   1 0.08177-0.77034 0.69463-0.56646-0.71469 0.29272
  -6  -2  -6 2189.48  583.96   1 0.10982-0.79636 0.07451-0.20243-0.99115 0.56993
  -6   2  -6 1131.61  391.36   1 0.13781-0.82561 0.09959 0.02851-0.98543 0.56351
   6  -2   6 1592.89  484.14   1-0.09972 0.78696 0.10725-0.23489 0.98921-0.57053
  -6  -2  -7 2263.75  442.53   1-0.17398-0.53141 0.69316-0.82132-0.69946 0.20742
  -6   2  -7 2617.86  621.95   1 0.08765-0.79393 0.69411-0.56594-0.71450 0.22220
  -6  -2  -7 1055.90  453.73   1 0.13456-0.83992 0.09674-0.22485-0.98617 0.49393
  -6   2  -7 2136.17  599.90   1 0.16907-0.87443 0.12704 0.00106-0.97738 0.48514
  -6  -3  11  380.08  227.33   1-0.99911 0.61435 0.03820-0.23012 0.01767 0.75472
   6  -3 -11 1723.50  598.56   1 0.72044-0.33300 0.62448-0.81677-0.30164-0.47114
   6   3 -11  431.23  422.08   1 0.75133-0.36383 0.65909-0.46698 0.03313-0.80594
  -6  -3  11  931.76  371.67   1-0.61465 0.22788 0.69576-0.88771 0.37163 0.40004
  -6   3  11  377.52  390.79   1-0.66003 0.27273 0.75116-0.55913-0.01069 0.78293
  -6  -3  10 3434.08  560.10   1-0.99351 0.59079 0.10262-0.29454-0.04894 0.75113
   6  -3 -10 3330.02  523.82   1 0.73183-0.32666 0.63542-0.82772-0.24628-0.45625
   6   3 -10 2620.86  675.83   1 0.74605-0.34078 0.65583-0.46373 0.11525-0.81781
  -6  -3  10 2417.61  551.43   1-0.62466 0.21929 0.70890-0.90088 0.32748 0.37457
  -6   3  10 3317.14  579.91   1-0.65732 0.25232 0.74824-0.55621-0.08977 0.79180
  -6  -3   9 8976.62 1527.83   1-0.97913 0.55845 0.16689-0.35881-0.11594 0.74791
  -6   3   9 8043.14 1150.35   1-0.93816 0.51746 0.26723-0.07522-0.22005 0.85239
   6  -3  -9 8779.76  700.18   1 0.74121-0.31830 0.64466-0.83695-0.18710-0.44517
   6   3  -910166.81 1065.82   1 0.73440-0.31100 0.64813-0.45613 0.20143-0.83380
  -6  -3   9 8099.74  599.86   1-0.63448 0.21146 0.72015-0.91213 0.28073 0.35112
  -6   3   9 8544.78  742.45   1-0.64993 0.22723 0.73998-0.54795-0.17322 0.80505
  -6  -3   8 2764.80  544.13   1-0.95578 0.51718 0.23105-0.42306-0.18192 0.74400
  -6   3   8 2181.88  450.73   1-0.87402 0.43465 0.36305-0.17115-0.32291 0.88418
   6  -3  -8 2008.77  464.43   1 0.74824-0.30759 0.65190-0.84420-0.12305-0.43897
   6   3  -8 3055.16  760.57   1 0.71636-0.27519 0.63379-0.44179 0.29176-0.85386
  -6  -3   8 2259.45  405.38   1-0.64305 0.20238 0.72999-0.92197 0.23149 0.33015
  -6   3   8 1895.84  510.72   1-0.63643 0.19569 0.72582-0.53361-0.26101 0.82277
  -6  -3   7 9058.83  789.88   1-0.92348 0.46699 0.29313-0.48514-0.24746 0.73928
  -6   3   7 7320.17  888.49   1-0.79081 0.33378 0.44918-0.25728-0.41574 0.90685
   6  -3  -7 9197.33  658.46   1 0.75140-0.29283 0.65767-0.84978-0.05347-0.43831
   6   3  -7 7345.03  805.37   1 0.69019-0.23126 0.61236-0.42035 0.38555-0.87739
  -6  -3   7 8917.80  587.56   1-0.65029 0.19196 0.73831-0.93030 0.17889 0.31254
  -6   3   7 9902.68  777.25   1-0.61661 0.15821 0.70363-0.51142-0.35309 0.84463
  -6  -3   6 5040.48  713.55   1-0.88212 0.40743 0.35284-0.54474-0.31202 0.73297
  -6   3   6 3328.57  359.32   1-0.69191 0.21682 0.52374-0.33182-0.49693 0.91808
   6  -3  -6 3427.06  425.21   1 0.75157-0.27523 0.65916-0.85127 0.02520-0.44674
   6   3  -6 3053.39  521.82   1 0.65434-0.17792 0.58321-0.39120 0.48133-0.90293
  -6  -3   6 3920.37  411.58   1-0.65600 0.18002 0.74490-0.93689 0.12152 0.29970
  -6   3   6 3088.61  506.94   1-0.58864 0.11248 0.67267-0.48054-0.44834 0.86972
  -6  -3   544913.91 2667.19   1-0.83316 0.34081 0.40900-0.60090-0.37222 0.72302
  -6   3   547959.87 1551.89   1-0.58347 0.09073 0.58377-0.39185-0.56458 0.91554
   6  -3  -545883.55 1489.45   1 0.74606-0.25196 0.65585-0.84795 0.11507-0.46635
   6   3  -551174.89 1740.04   1 0.60835-0.11412 0.54438-0.35237 0.57754-0.92887
  -6  -3   543984.20 1370.52   1-0.65900 0.16550 0.74984-0.94187 0.05866 0.29235
  -6   3   549072.07 1691.18   1-0.55164 0.05783 0.63089-0.43876-0.54558 0.89673
  -6  -3   4 8049.37  893.24   1-0.77735 0.26735 0.46071-0.65261-0.42831 0.70895
  -6   3   4 6223.12  575.60   1-0.47179-0.03935 0.62955-0.43737-0.61731 0.89841
   6  -3  -4 8922.54  511.84   1 0.73142-0.21920 0.64581-0.83781 0.21895-0.50000
   6   3  -4 8497.33  827.89   1 0.55132-0.03935 0.49603-0.30394 0.67081-0.95187
  -6  -3   4 7661.45  447.38   1-0.65997 0.14877 0.75110-0.94313-0.01642 0.29724
  -6   3   4 6454.11  599.00   1-0.50452-0.00693 0.57753-0.38541-0.64179 0.92271
  -6  -3   339012.46 1354.50   1-0.71631 0.18826 0.50748-0.69940-0.47890 0.68947
  -6   3   340465.97 1414.59   1-0.36262-0.16621 0.66156-0.46938-0.65637 0.86720
   6  -3  -340889.24 1305.74   1 0.70340-0.17342 0.62324-0.81524 0.34174-0.55253
   6   3  -336173.88 1313.95   1 0.48408 0.04567 0.43827-0.24618 0.75735-0.96814
  -6  -3   330887.99  906.47   1 0.09677-0.62185-0.11634-0.07473 0.98848-0.77955
  -6  -3   339818.56 1217.14   1-0.65599 0.12710 0.74677-0.93880-0.10954 0.32015
  -6   3   341297.75 1525.56   1-0.44702-0.08216 0.51257-0.32042-0.73310 0.94370
  -6  -3   227825.73  969.15   1-0.65214 0.10643 0.54790-0.73983-0.52393 0.66431
  -6   3   227010.01 1093.15   1-0.26102-0.28569 0.68211-0.48986-0.68307 0.82365
   6  -3  -229136.82  833.63   1 0.65370-0.10603 0.58267-0.77468 0.48285-0.62338
   6   3  -226788.77  988.01   1 0.40805 0.13907 0.37332-0.18127 0.83313-0.97354
  -6  -3   220938.38 1039.69   1-0.11555-0.43006 0.12474-0.31656 0.98543-0.84547
  -6  -3   228391.54  778.21   1-0.64160 0.09491 0.73159-0.92380-0.23046 0.37090
  -6   3   228175.37 1017.48   1-0.38076-0.16605 0.43721-0.24506-0.81477 0.95518
  -6  -3   119719.34  850.06   1-0.58713 0.02377 0.58203-0.77396-0.56259 0.63278
  -6   3   120235.97 1021.23   1-0.17024-0.39410 0.69351-0.50126-0.70004 0.77033
   6  -3  -117460.18  615.88   1 0.57387-0.00853 0.51531-0.70740 0.63649-0.70675
   6   3  -119395.61  962.09   1 0.32752 0.23734 0.30334-0.11130 0.89482-0.96502
  -6  -3   118966.16  622.26   1-0.60385 0.03950 0.68929-0.88151-0.40028 0.47050
  -6  -3   017539.77  861.31   1-0.52414-0.05775 0.60999-0.80217-0.59428 0.59428
  -6   3   018685.61 1165.68   1-0.09202-0.48996 0.69846-0.50621-0.70970 0.70970
   6  -3   018138.77  631.65   1 0.46102 0.12210 0.41838-0.61047 0.78256-0.78256
  -6  -3   016784.68  560.43   1-0.51866-0.06341 0.59355-0.78568-0.61536 0.61536
  -6  -3  -138406.87 1385.12   1-0.46458-0.13499 0.63201-0.82419-0.62025 0.54997
  -6   3  -138230.86 1447.17   1-0.02702-0.57300 0.69991-0.50766-0.71371 0.64338
  -6  -3  -139345.97 1382.42   1-0.16736-0.43152-0.16567-0.02614-0.97187 0.90172
   6  -3   135654.10 1082.87   1 0.32729 0.27302 0.30315-0.49519 0.89497-0.82476
   6  -3   136702.65 1258.70   1 0.15937 0.43678-0.18775-0.00332 0.96920-0.89955
  -6  -3  -213823.82  743.61   1-0.41070-0.20656 0.64883-0.84101-0.64057 0.50001
  -6   3  -213501.45  859.18   1 0.02542-0.64315 0.69840-0.50615-0.71524 0.57459
  -6   3  -213571.12  573.61   1-0.19346-0.42296-0.18831 0.38013-0.96286 0.82255
  -6  -3  -213871.19 1263.83   1-0.09636-0.52007-0.10398-0.08782-0.98989 0.84959
   6  -3   214275.85  709.59   1 0.09313 0.52079-0.11219-0.07888 0.98931-0.85002
  -6  -3  -311053.53  771.70   1-0.36388-0.27106 0.66125-0.85343-0.65599 0.44516
  -6   3  -3 8602.60  791.37   1 0.06614-0.70158 0.69590-0.50365-0.71507 0.50409
  -6   3  -3 7055.13 1008.77   1-0.07836-0.55566-0.08969 0.28158-0.99288 0.78227
  -6  -3  -311033.25 1429.72   1-0.03401-0.60001-0.05108-0.14080-0.99811 0.78750
   6  -3   310930.21  920.72   1 0.03622 0.59741-0.04734-0.14411 0.99822-0.78887
   6   3   3 8600.26  777.21   1 0.08101 0.55068-0.09837 0.28945 0.99184-0.78292
  -6  -3  -419214.92  894.84   1-0.32505-0.32758 0.67010-0.86228-0.66730 0.38619
  -6   3  -419987.46 1012.95   1 0.09622-0.74937 0.69330-0.50105-0.71418 0.43287
  -6   3  -417772.48 1262.03   1 0.01358-0.66511-0.00958 0.20146-0.99986 0.71904
  -6  -3  -419582.45 2295.51   1 0.01806-0.66959-0.00567-0.18621-0.99982 0.71900
   6  -3   417618.43 2173.20   1-0.01237 0.66387 0.00794-0.19940 0.99989-0.72076
  -6  -3  -5 7298.88  644.89   1-0.29473-0.37539 0.67626-0.86851-0.67512 0.32366
  -6   3  -5 7536.29  890.92   1 0.11676-0.78763 0.69116-0.49891-0.71320 0.36155
  -6  -3  -5 5780.45 1099.75   1 0.06036-0.72940 0.03126-0.22315-0.99768 0.64666
  -6   3  -5 4349.46 1194.15   1 0.08261-0.75165 0.05071 0.14117-0.99529 0.64427
   6  -3   5 6067.87  995.15   1-0.05173 0.72111 0.05270-0.24417 0.99726-0.64836
  -6  -3  -6 4009.22  578.35   1-0.27296-0.41479 0.68014-0.87238-0.68036 0.25861
  -6  -3  -6 3252.58  493.92   1 0.09356-0.78011 0.06029-0.25218-0.99378 0.57256
   6  -3   6 3380.76  736.64   1-0.08252 0.76976 0.08771-0.27917 0.99272-0.57403
  -6  -3  -7 1884.92  496.39   1-0.25979-0.44559 0.68230-0.87455-0.68334 0.19130
  -6   3  -7 2254.71  660.10   1 0.13315-0.83943 0.68923-0.49698-0.71219 0.21989
  -6  -3  -7 2241.25  633.82   1 0.11860-0.82265 0.08220-0.27409-0.98953 0.49810
   6  -3   7 2295.54  562.48   1-0.10564 0.81075 0.11398-0.30544 0.98784-0.49938
  -6  -4  11 2135.47  424.69   1-0.99917 0.61440 0.02226-0.27815 0.03407 0.73832
   6  -4 -11 3805.38  651.83   1 0.70209-0.31436 0.60535-0.86177-0.37498-0.39814
   6   4 -11 2592.17  583.38   1 0.74970-0.36220 0.65825-0.40211 0.06808-0.84089
  -6  -4  11 2173.76  439.53   1-0.59105 0.20428 0.66889-0.92482 0.45080 0.32087
  -6  -4  10 2715.12  550.72   1-0.99619 0.59347 0.08249-0.33839-0.02806 0.73025
   6  -4 -10 3233.11  552.45   1 0.71388-0.30871 0.61826-0.87466-0.32881-0.37372
  -6  -4  10 1466.72  410.86   1-0.60226 0.19778 0.68165-0.93758 0.41549 0.28603
  -6   4  10 2817.34  726.78   1-0.65397 0.24897 0.74450-0.48846-0.13427 0.83630
  -6  -4   9 9972.80 1454.44   1-0.98563 0.56495 0.14259-0.39849-0.09054 0.72251
   6  -4  -911237.58  921.38   1 0.72529-0.30238 0.62912-0.88551-0.27955-0.35273
   6   4  -910102.54 1017.43   1 0.72791-0.30451 0.64305-0.38704 0.23796-0.87032
  -6  -4   9 8609.61  660.11   1-0.61235 0.19019 0.69314-0.94907 0.38022 0.25115
  -6   4   9 7460.41  776.16   1-0.64342 0.22034 0.73361-0.47732-0.21867 0.85065
  -6  -4   8 4727.11  842.75   1-0.96737 0.52877 0.20261-0.45863-0.15209 0.71417
  -6   4   8 3737.91  978.04   1-0.86360 0.42422 0.37559-0.11972-0.33633 0.89760
   6  -4  -8 5284.56  576.69   1 0.73516-0.29452 0.63867-0.89507-0.22720-0.33482
   6   4  -8 5350.98  815.04   1 0.70722-0.26605 0.62637-0.37036 0.32786-0.88996
  -6  -4   8 5349.12  508.57   1-0.62137 0.18151 0.70341-0.95934 0.34510 0.21611
  -6   4   8 4900.41  742.59   1-0.62743 0.18670 0.71577-0.45948-0.30658 0.86834
  -6  -4   7  438.19  253.64   1-0.94141 0.48492 0.26104-0.51706-0.21351 0.70533
  -6   4   7  433.42  280.13   1-0.77004 0.31301 0.46677-0.21090-0.43492 0.92603
   6  -4  -7 1190.49  361.50   1 0.74332-0.28493 0.64678-0.90318-0.17072-0.32105
   6   4  -7 1547.93  634.31   1 0.67817-0.21956 0.60313-0.34711 0.41988-0.91175
  -6  -4   7  344.59  241.78   1-0.62819 0.16985 0.71293-0.96891 0.31160 0.17984
  -6   4   7  604.32  546.09   1-0.60467 0.14627 0.69021-0.43393-0.39745 0.88899
  -6  -4   635126.11 2227.71   1-0.90795 0.43357 0.31756-0.57358-0.27343 0.69499
  -6   4   633387.35 1664.38   1-0.66029 0.18521 0.54317-0.28727-0.51861 0.93977
   6  -4  -633590.21 1656.55   1 0.74844-0.27210 0.65410-0.91025-0.10944-0.31209
   6   4  -634409.92 1828.04   1 0.64043-0.16401 0.57151-0.31550 0.51304-0.93464
  -6  -4   632561.63 1597.06   1-0.63505 0.15906 0.72080-0.97678 0.27775 0.14348
  -6   4   636865.50 2017.27   1-0.57399 0.09784 0.65614-0.39997-0.48990 0.91128
  -6  -4   521406.64 1883.25   1-0.86711 0.37477 0.37143-0.62729-0.33187 0.68267
  -6   4   521817.69  986.62   1-0.54245 0.04899 0.60243-0.34619-0.58550 0.93688
   6  -4  -520021.47  828.05   1 0.75178-0.25767 0.65825-0.91439-0.03905-0.31222
   6   4  -522381.94 1082.72   1 0.59305-0.09882 0.53138-0.27537 0.60491-0.95624
  -6  -4   520582.83  785.79   1-0.64084 0.14720 0.72744-0.98343 0.24522 0.10580
  -6   4   521537.86 1096.12   1-0.53494 0.04113 0.61199-0.35582-0.58249 0.93364
  -6  -4   464075.32 2465.73   1-0.82041 0.31041 0.42178-0.67764-0.38602 0.66666
  -6   4   464508.18 2218.62   1-0.42347-0.08767 0.64510-0.38886-0.63600 0.91711
   6  -4  -464403.65 2123.43   1 0.75093-0.23906 0.65892-0.91506 0.04379-0.32481
   6   4  -466154.80 2349.10   1 0.53589-0.02392 0.48281-0.22669 0.69261-0.97367
  -6  -4   463694.03 2050.83   1-0.64550 0.13420 0.73279-0.98878 0.21524 0.06557
  -6   4   464116.28 2308.25   1-0.48675-0.02481 0.55770-0.30149-0.67233 0.95314
  -6  -4   320339.37 2234.73   1-0.76868 0.24102 0.46787-0.72374-0.43613 0.64660
  -6   4   318443.64  907.95   1-0.30997-0.21886 0.67320-0.41696-0.67134 0.88217
   6  -4  -316939.94  624.21   1 0.74276-0.21312 0.65346-0.90960 0.14587-0.35663
   6   4  -319282.42  968.71   1 0.47015 0.05960 0.42626-0.17014 0.77281-0.98361
  -6  -4   316957.46  571.02   1-0.64881 0.11986 0.73661-0.99259 0.19088 0.01972
  -6   4   315699.86  831.52   1-0.43032-0.09886 0.49359-0.23739-0.75576 0.96637
  -6  -4   2  442.17  389.00   1-0.71353 0.16782 0.50940-0.76530-0.48102 0.62140
  -6   4   2 1527.70  429.30   1-0.20662-0.34009 0.68968-0.43336-0.69400 0.83458
   6  -4  -2  595.48  214.22   1 0.72007-0.17232 0.63679-0.89279 0.27566-0.41619
   6   4  -2 1322.41  595.89   1 0.39732 0.14980 0.36401-0.10795 0.84239-0.98280
  -6  -4   2  359.69   70.91   1-0.64982 0.10322 0.73777-0.99375 0.18280-0.04239
  -6  -4   110391.95  601.97   1-0.65675 0.09339 0.54524-0.80114-0.52094 0.59113
  -6   4   111658.57  836.51   1-0.11609-0.44826 0.69740-0.44108-0.70720 0.77750
   6  -4  -1 8581.00  407.00   1 0.66997-0.10449 0.59629-0.85230 0.44223-0.51250
   6   4  -1 9773.57  753.47   1 0.32143 0.24342 0.29804-0.04199 0.89880-0.96900
  -6  -4   089175.89 2989.74   1-0.60036 0.01935 0.57557-0.83147-0.55521 0.55521
  -6   4   088609.59 3033.05   1-0.03944-0.54287 0.69998-0.44365-0.71306 0.71306
   6  -4   078762.46 2470.87   1 0.57430 0.00881 0.51568-0.77180 0.63579-0.63579
  -6  -4  -121474.79  954.68   1-0.54637-0.05229 0.60050-0.85640-0.58383 0.51364
  -6   4  -121318.48 1227.07   1 0.02334-0.62337 0.69850-0.44216-0.71522 0.64489
  -6  -4  -120057.34  916.63   1-0.17201-0.42686-0.16971-0.08603-0.97036 0.90021
   6  -4   120377.99  719.66   1 0.43215 0.16816 0.39418-0.65024 0.81108-0.74087
   6  -4   124042.92 1031.06   1 0.16197 0.43418-0.19072-0.06404 0.96818-0.89854
  -6  -4  -2 1707.49  454.43   1-0.49726-0.12000 0.62040-0.87664-0.60648 0.46593
  -6   4  -2 3118.49  910.76   1 0.07326-0.69099 0.69535-0.43901-0.71492 0.57426
  -6  -4  -2 1109.62  343.71   1-0.10580-0.51063-0.11219-0.14355-0.98803 0.84773
   6  -4   2 1099.92  212.37   1 0.27360 0.34444 0.25634-0.51240 0.92705-0.78664
   6  -4   2 1573.10  369.25   1 0.10122 0.51270-0.12141-0.13335 0.98742-0.84814
  -6  -4  -325207.28 1212.96   1-0.45331-0.18163 0.63577-0.89201-0.62474 0.41391
  -6   4  -325923.94 1375.70   1 0.11149-0.74693 0.69174-0.43540-0.71348 0.50249
  -6  -4  -325326.04 3110.48   1-0.04720-0.58682-0.06257-0.19327-0.99692 0.78631
   6  -4   329151.59 2082.19   1 0.04867 0.58495-0.06151-0.19376 0.99691-0.78757
  -6  -4  -4 3301.57  661.69   1-0.41621-0.23642 0.64724-0.90348-0.63862 0.35751
  -6   4  -4 2184.25  623.41   1 0.13929-0.79244 0.68846-0.43213-0.71176 0.43045
  -6  -4  -4 2188.99  505.69   1 0.00210-0.65363-0.01959-0.23625-0.99980 0.71899
   6  -4   4 4012.64  810.63   1 0.00328 0.64821-0.00986-0.24541 0.99994-0.72082
  -6  -4  -5 7206.22  627.83   1-0.38673-0.28359 0.65544-0.91168-0.64871 0.29733
  -6   4  -5 8361.34  909.20   1 0.15786-0.82872 0.68596-0.42963-0.71030 0.35865
  -6  -4  -5 6594.30 1023.57   1 0.04258-0.71162 0.01573-0.27158-0.99896 0.64794
   6  -4   5 6115.25 1053.31   1-0.03397 0.70334 0.03250-0.28778 0.99889-0.64999
  -6  -4  -6 2646.64  464.03   1-0.36531-0.32269 0.66090-0.91714-0.65555 0.23389
  -6   4  -6 3121.25  798.13   1 0.16823-0.85680 0.68446-0.42812-0.70937 0.28739
  -6  -4  -6 3869.40  809.73   1 0.07473-0.76128 0.04382-0.29967-0.99623 0.57501
   6  -4   6 3743.42  794.80   1-0.06353 0.75077 0.06611-0.32139 0.99578-0.57710
  -6  -4  -7 1651.89  454.69   1-0.35219-0.35350 0.66405-0.92029-0.65953 0.16759
  -6   4  -7 2277.71  829.48   1 0.17127-0.87755 0.68400-0.42767-0.70908 0.21678
  -6  -4  -7 1095.14  439.47   1 0.09930-0.80334 0.06530-0.32115-0.99291 0.50148
   6  -4   7 1836.25  602.34   1-0.08607 0.79118 0.09174-0.34702 0.99205-0.50359
  -6  -5  11  730.96  285.69   1-0.99860 0.61384 0.00424-0.32411 0.05258 0.71982
   6  -5 -11  373.35  260.01   1 0.67631-0.28858 0.58151-0.90204-0.45214-0.32098
   6   5 -11 1104.11  540.31   1 0.74765-0.36015 0.65694-0.33676 0.09717-0.86998
  -6  -5  11  878.50  332.83   1-0.56119 0.17441 0.63489-0.95480 0.53101 0.24066
  -6   5  11  983.86  492.02   1-0.65729 0.27000 0.74821-0.42816-0.09018 0.86242
  -6  -5  10 3856.10  743.90   1-0.99814 0.59542 0.06059-0.38046-0.00542 0.70760
   6  -5 -10 3586.33  453.11   1 0.68965-0.28424 0.59381-0.91434-0.41443-0.28840
   6   5 -10 3327.46  627.21   1 0.73758-0.33194 0.65058-0.33057 0.18084-0.88347
  -6  -5  10 3462.33  415.11   1-0.57132 0.16684 0.64642-0.96633 0.50569 0.19583
  -6   5  10 4081.18  657.57   1-0.65011 0.24511 0.74018-0.42013-0.17169 0.87373
  -6  -5   9 7242.00 1212.57   1-0.99111 0.57043 0.11680-0.43667-0.06367 0.69564
   6  -5  -9 8565.63  858.97   1 0.70173-0.27865 0.60501-0.92554-0.37619-0.25636
   6   5  -9 7687.30  977.05   1 0.72188-0.29848 0.63824-0.31824 0.26742-0.89979
  -6  -5   9 7733.55  725.87   1-0.57998 0.15781 0.65628-0.97619 0.48261 0.14876
  -6   5   9 9201.44 1177.22   1-0.63728 0.21420 0.72677-0.40641-0.25624 0.88822
  -6  -5   8  746.91  582.57   1-0.97744 0.53881 0.17249-0.49236-0.12180 0.68355
  -6   5   8   73.59  160.56   1-0.85625 0.41688 0.38406-0.06423-0.34541 0.90668
   6  -5  -8  821.40  315.27   1 0.71135-0.27071 0.61587-0.93637-0.33861-0.22341
   6   5  -8    0.62  445.56   1 0.69919-0.25803 0.61979-0.29978 0.35634-0.91844
  -6  -5   8  415.22  232.97   1-0.58700 0.14714 0.66428-0.98420 0.46275 0.09846
  -6   5   8 1091.50  568.91   1-0.61902 0.17828 0.70634-0.38598-0.34335 0.90511
  -6  -5   7 2831.52  615.11   1-0.95723 0.50074 0.22772-0.54774-0.17842 0.67024
  -6   5   7 1887.46  402.39   1-0.75187 0.29484 0.48118-0.16135-0.45071 0.94182
   6  -5  -7  807.72  299.22   1 0.72098-0.26260 0.62500-0.94550-0.29924-0.19253
   6   5  -7 2224.76  606.69   1 0.66837-0.20976 0.59495-0.27494 0.44643-0.93829
  -6  -5   7 2354.42  443.26   1-0.59207 0.13451 0.67004-0.98996 0.44775 0.04331
  -6   5   7 1895.62  603.65   1-0.59393 0.13544 0.67864-0.35843-0.43206 0.92367
  -6  -5   615087.45 1709.47   1-0.93056 0.45617 0.28104-0.60106-0.23465 0.65621
  -6   5   614847.05  767.10   1-0.63123 0.15614 0.55956-0.23969-0.53705 0.95821
   6  -5  -615008.53  757.99   1 0.72945-0.25333 0.63312-0.95361-0.25893-0.16258
  -6  -5   614123.66  698.91   1-0.59445 0.11919 0.67276-0.99267 0.44047-0.01955
  -6   5   614369.85  990.30   1-0.56173 0.08558 0.64229-0.32208-0.52145 0.94283
  -6  -5   512787.74 1241.48   1-0.89779 0.40551 0.33225-0.65227-0.28908 0.64038
  -6   5   515355.49  883.21   1-0.50444 0.01098 0.61770-0.29740-0.60330 0.95468
   6  -5  -513751.05  761.89   1 0.73678-0.24292 0.64025-0.96075-0.21731-0.13395
   6   5  -514093.66 1019.99   1 0.58159-0.08735 0.52161-0.20160 0.62422-0.97556
  -6  -5   514365.82  741.45   1-0.59246 0.09951 0.67049-0.99041 0.44656-0.09579
  -6   5   514891.58 1042.82   1-0.52174 0.02793 0.59704-0.27683-0.60935 0.96051
  -6  -5   417324.85 1890.89   1-0.85925 0.34925 0.38064-0.70047-0.34174 0.62237
  -6   5   415766.07  925.90   1-0.37937-0.13177 0.65736-0.33706-0.65110 0.93221
   6  -5  -415244.93  799.03   1 0.74296-0.23136 0.64642-0.96691-0.17360-0.10740
   6   5  -413869.86  916.52   1 0.52518-0.01321 0.47363-0.15348 0.70700-0.98806
  -6  -5   413059.52  652.16   1-0.58111 0.07046 0.65757-0.97748 0.47948-0.19887
  -6   5   418059.03 1278.93   1-0.47377-0.03779 0.54296-0.22270-0.69334 0.97415
  -6  -5   3 5320.90  569.78   1-0.81640 0.28874 0.42566-0.74550-0.39023 0.60070
  -6   5   3 4472.71  542.54   1-0.26277-0.26632 0.68183-0.36142-0.68268 0.89355
   6  -5  -3 3471.28  268.65   1 0.74798-0.21864 0.65162-0.97212-0.12610-0.08465
   6   5  -3 3730.92  480.34   1 0.46158 0.06817 0.41886-0.09871 0.78198-0.99277
  -6   5   3 3316.44  520.47   1-0.41901-0.11016 0.48073-0.16048-0.77026 0.98087
  -6  -5   2 7279.79  942.39   1-0.77012 0.22480 0.46670-0.78653-0.43485 0.57517
  -6   5   2 7370.43  722.44   1-0.15874-0.38797 0.69451-0.37410-0.70174 0.84232
   6  -5  -2 6224.84  285.80   1 0.75062-0.20321 0.65664-0.97682-0.07332-0.06718
   6   5  -2 6249.68  532.08   1 0.39216 0.15496 0.35953-0.03946 0.84672-0.98713
  -6  -5   118961.61  901.47   1-0.72192 0.15856 0.50357-0.82345-0.47458 0.54477
  -6   5   119087.36  995.02   1-0.06924-0.49510 0.69908-0.37867-0.71167 0.78196
   6   5  -118036.80  959.40   1 0.32071 0.24414 0.29742 0.02264 0.89926-0.96947
  -6  -5   0 2897.91  461.95   1-0.67331 0.09230 0.53538-0.85526-0.50990 0.50990
  -6   5   0 1638.49  645.28   1 0.00542-0.58774 0.69921-0.37879-0.71489 0.71489
  -6  -5  -1 5200.68  500.87   1-0.62604 0.02737 0.56235-0.88223-0.54021 0.47001
  -6   5  -1 6612.74  828.17   1 0.06576-0.66578 0.69593-0.37551-0.71508 0.64475
  -6  -5  -1 4005.75  446.47   1-0.18086-0.41801-0.17738-0.14229-0.96737 0.89722
   6  -5   1 5707.10  547.51   1 0.16853 0.42762-0.19820-0.12025 0.96556-0.89592
  -6  -5  -224517.90 1186.81   1-0.58175-0.03456 0.58459-0.90447-0.56551 0.42513
  -6   5  -226205.55 1414.17   1 0.11317-0.73090 0.69156-0.37114-0.71339 0.57273
  -6  -5  -224778.53 2803.72   1-0.11879-0.49764-0.12349-0.19619-0.98520 0.84490
   6  -5   224532.63 1190.41   1 0.11239 0.50153-0.13416-0.18429 0.98456-0.84528
  -6  -5  -310389.44  665.48   1-0.54273-0.09221 0.60231-0.92261-0.58536 0.37453
  -6   5  -3 7183.41  789.07   1 0.14905-0.78450 0.68718-0.36676-0.71102 0.50004
  -6  -5  -3 8145.33 1006.69   1-0.06343-0.57059-0.07670-0.24311-0.99503 0.78442
   6  -5   3 7926.08  968.27   1 0.06258 0.56911-0.07735-0.24110 0.99503-0.78611
  -6  -5  -4 7338.45  571.19   1-0.50877-0.14386 0.61604-0.93634-0.60136 0.32025
  -6   5  -4 7166.08  707.18   1 0.17479-0.82794 0.68347-0.36305-0.70874 0.42742
  -6  -5  -4 6767.56 1121.11   1-0.01651-0.63501-0.03583-0.28398-0.99922 0.71840
   6  -5   4 9599.14 1076.58   1 0.02090 0.63060-0.02990-0.28919 0.99933-0.72021
  -6  -5  -5  305.96  222.79   1-0.48150-0.18882 0.62614-0.94644-0.61326 0.26188
  -6   5  -5  637.34  709.51   1 0.19162-0.86248 0.68078-0.36036-0.70697 0.35533
  -6  -5  -5  262.80  243.06   1 0.02239-0.69143-0.00189-0.31791-0.99974 0.64872
   6  -5   5  580.09  328.80   1-0.01452 0.68389 0.01039-0.32949 0.99984-0.65093
  -6  -5  -6 5984.65  582.11   1-0.46160-0.22640 0.63302-0.95332-0.62145 0.19979
  -6   5  -6 8622.47  975.82   1 0.20057-0.88914 0.67926-0.35884-0.70595 0.28398
  -6  -5  -6 4558.34 1011.14   1 0.05364-0.74019 0.02539-0.34521-0.99823 0.57701
   6  -5   6 6382.48  915.06   1-0.04300 0.73024 0.04277-0.36187 0.99815-0.57947
  -6   5  -7 1403.87  545.53   1 0.20252-0.90880 0.67892-0.35850-0.70572 0.21342
  -6  -5  -7 3763.99  853.28   1 0.07782-0.78187 0.04652-0.36633-0.99588 0.50445
   6  -5   7 2417.32  777.52   1-0.06503 0.77014 0.06782-0.38693 0.99557-0.50711
  -6  -6  10 4834.72  954.57   1-0.99913 0.59641 0.03714-0.42098 0.01876 0.68341
   6  -6 -10 4493.28  712.76   1 0.65579-0.25039 0.56271-0.94735-0.50326-0.19957
   6   6 -10 4522.42  868.18   1 0.73391-0.32828 0.64776-0.26375 0.20438-0.90701
  -6  -6  10 5128.91  734.31   1-0.53367 0.12935 0.60184-0.98580 0.59411 0.10702
  -6   6  10 5350.91  969.70   1-0.64575 0.24033 0.73619-0.35176-0.20250 0.90470
  -6  -6   9 3869.98  856.41   1-0.99533 0.57466 0.08968-0.47352-0.03551 0.66748
   6  -6  -9 3341.60  466.30   1 0.66669-0.24361 0.57268-0.95731-0.47702-0.15553
   6   6  -9 4546.41  740.08   1 0.71668-0.29328 0.63406-0.25005 0.29037-0.92274
  -6  -6   9 2624.49  389.09   1-0.53908 0.11706 0.60799-0.99195 0.58285 0.04816
  -6  -6   812105.48 1321.53   1-0.98583 0.54720 0.14174-0.52558-0.08965 0.65140
   6  -6  -812877.98  877.47   1 0.67593-0.23518 0.58117-0.96580-0.45315-0.10912
   6   6  -817041.43 1410.32   1 0.69261-0.25144 0.61436-0.23035 0.37795-0.94006
  -6  -6   813001.90  869.51   1-0.54147 0.10173 0.61071-0.99466 0.57778-0.01688
  -6   6   812845.56 1191.42   1-0.61165 0.17091 0.69806-0.31363-0.37227 0.93403
  -6  -6   7 8944.11  811.18   1-0.97074 0.51425 0.19332-0.57735-0.14237 0.63419
  -6   6   7 8511.62  504.41   1-0.73709 0.27965 0.49267-0.10882-0.46256 0.95391
   6  -6  -7 9328.73  578.89   1 0.68331-0.22488 0.58795-0.97259-0.43288-0.05910
   6   6  -7 8386.26  735.67   1 0.66071-0.20210 0.58855-0.20453 0.46590-0.95776
  -6  -6   7 7423.83  480.47   1-0.53951 0.08207 0.60849-0.99244 0.58194-0.09114
  -6   6   7 9751.15 1032.22   1-0.58515 0.12666 0.66874-0.28449-0.45866 0.95027
  -6  -6   6 8354.33 1564.28   1-0.95014 0.47576 0.24337-0.62740-0.19488 0.61644
  -6   6   6 8166.05  658.39   1-0.60586 0.13078 0.57282-0.18897-0.55208 0.97323
   6  -6  -6 7863.93  602.47   1 0.68832-0.21221 0.59258-0.97721-0.41840-0.00330
   6   6  -6 9449.01  985.62   1 0.62122-0.14480 0.55529-0.17127 0.55292-0.97452
  -6  -6   6 8153.95  578.79   1-0.53041 0.05525 0.59814-0.98210 0.60073-0.18005
  -6   6   6 8965.02  889.94   1-0.55205 0.07590 0.63135-0.24710-0.54462 0.96601
  -6  -6   515424.45 1557.32   1-0.92434 0.43206 0.29170-0.67573-0.24594 0.59724
  -6   6   514619.65  770.39   1-0.47076-0.02270 0.62990-0.24555-0.61773 0.96911
   6  -6  -513103.02  631.02   1 0.68981-0.19603 0.59396-0.97860-0.41395 0.06252
   6   6  -517326.11 1122.08   1 0.57362-0.07944 0.51510-0.13092 0.63687-0.98820
  -6   6   512619.24  885.08   1-0.51196 0.01815 0.58596-0.20171-0.62812 0.97927
  -6  -6   4 8091.94  921.99   1-0.89380 0.38362 0.33778-0.72181-0.29499 0.57603
  -6   6   4 7280.30  549.16   1-0.34061-0.17053 0.66671-0.28235-0.66292 0.94403
   6   6  -4 7963.99  867.66   1 0.51874-0.00677 0.46810-0.08392 0.71538-0.99644
  -6   6   4 7811.54  719.19   1-0.46492-0.04663 0.53292-0.14861-0.70699 0.98779
  -6  -6   3  523.07  314.63   1-0.85896 0.33129 0.38098-0.76478-0.34210 0.55258
  -6   6   3  438.22  304.78   1-0.22193-0.30716 0.68778-0.30329-0.69115 0.90203
  -6   6   3  993.65  487.38   1-0.41231-0.11687 0.47311-0.08880-0.77856 0.98916
  -6  -6   2 3639.78  613.31   1-0.82120 0.27588 0.42101-0.80481-0.38519 0.52551
  -6   6   2 2731.51  456.12   1-0.11803-0.42868 0.69730-0.31281-0.70698 0.84757
  -6  -6   113499.11 1740.02   1-0.78137 0.21839 0.45732-0.84112-0.42461 0.49477
  -6   6   111679.74 1034.08   1-0.02982-0.53478 0.69994-0.31543-0.71357 0.78390
   6   6  -110573.39  776.69   1 0.32441 0.24044 0.30064 0.08343 0.89686-0.96706
  -6  -6   0 4426.31  761.85   1-0.74091 0.15990 0.48983-0.87368-0.45945 0.45945
  -6   6   0 4324.39  838.52   1 0.04245-0.62477 0.69750-0.31300-0.71532 0.71532
   6   6   0 3462.58  657.71   1 0.25792 0.32466 0.24265 0.14142 0.93519-0.93519
  -6  -6  -1  523.75  260.89   1-0.70102 0.10235 0.51781-0.90166-0.49034 0.42015
  -6   6  -1 1195.39  529.04   1 0.10037-0.70040 0.69290-0.30839-0.71401 0.64368
  -6  -6  -1 2203.21  532.42   1-0.19316-0.40572-0.18805-0.19557-0.96297 0.89282
   6  -6   1 1914.05  411.28   1 0.17818 0.41796-0.20923-0.17292 0.96149-0.89185
  -6  -6  -2 4619.67  677.81   1-0.66321 0.04689 0.54145-0.92530-0.51669 0.37631
  -6   6  -2 3365.26  706.60   1 0.14544-0.76318 0.68766-0.30316-0.71130 0.57065
  -6  -6  -2 5216.58  999.67   1-0.13473-0.48170-0.13733-0.24628-0.98131 0.84101
   6  -6   2 4438.33  662.17   1 0.12602 0.48790-0.14971-0.23244 0.98066-0.84138
  -6  -6  -3  744.41  270.88   1-0.62887-0.00510 0.56084-0.94469-0.53849 0.32792
  -6   6  -3  579.40  485.31   1 0.17924-0.81468 0.68278-0.29827-0.70829 0.49730
  -6  -6  -3  666.11  290.81   1-0.08280-0.55118-0.09218-0.29143-0.99229 0.78183
   6  -6   3  128.59  204.36   1 0.07943 0.55226-0.09656-0.28558 0.99215-0.78322
  -6  -6  -4 6778.06  584.20   1-0.59923-0.05239 0.57613-0.95999-0.55585 0.27508
  -6   6  -4 8618.53 1093.81   1 0.20319-0.85634 0.67880-0.29430-0.70564 0.42432
  -6  -6  -4 7244.14 1246.68   1-0.03740-0.61412-0.05403-0.32973-0.99783 0.71702
   6  -6   4 6327.99 1269.27   1 0.04013 0.61137-0.05178-0.33113 0.99785-0.71872
  -6  -6  -5 6561.99  693.41   1-0.57538-0.09389 0.58757-0.97142-0.56893 0.21797
  -6   6  -5 7638.08  964.49   1 0.21849-0.88943 0.67615-0.29151-0.70361 0.35202
  -6  -6  -5 6285.62 1245.15   1 0.00010-0.66914-0.02133-0.36243-0.99977 0.64875
   6  -6   5 8024.57 1094.55   1 0.00633 0.66303-0.01333-0.36958 0.99989-0.65098
  -6   6  -6  987.84  688.42   1 0.22628-0.91493 0.67468-0.29004-0.70256 0.28065
  -6  -6  -6  762.30  305.60   1 0.03056-0.71710 0.00523-0.38901-0.99951 0.57829
   6  -6   6  243.23  283.81   1-0.02115 0.70839 0.01793-0.40086 0.99961-0.58093
  -6  -7   9 1572.46  447.41   1-0.99809 0.57742 0.06138-0.50919-0.00623 0.63820
   6   7  -9 1121.74  494.28   1 0.71256-0.28916 0.63072-0.18271 0.30731-0.93968
  -6   7   9 2444.34  736.65   1-0.62666 0.20359 0.71491-0.26641-0.31013 0.94211
  -6  -7   8 2441.97  690.04   1-0.99232 0.55369 0.10995-0.55777-0.05655 0.61830
   6   7  -8 2827.86  654.31   1 0.68764-0.24648 0.61025-0.16224 0.39336-0.95547
  -6   7   8 1619.27  720.82   1-0.60560 0.16486 0.69126-0.24275-0.39421 0.95597
  -6  -7   711150.49 1277.46   1-0.98173 0.52514 0.15775-0.60557-0.10638 0.59791
   6   7  -711177.34 1156.13   1 0.65527-0.19666 0.58399-0.13597 0.47912-0.97099
  -6   7   713488.45 1165.71   1-0.57831 0.11981 0.66102-0.21272-0.47812 0.96973
  -6  -7   6 1936.04  577.31   1-0.96657 0.49218 0.20473-0.65277-0.15432 0.57588
  -6   7   6 1355.40  345.91   1-0.58541 0.11033 0.58285-0.13503-0.56352 0.98467
   6   7  -6 2729.79  840.80   1 0.61591-0.13949 0.55079-0.10277 0.56327-0.98487
  -6   7   6 1218.23  459.06   1-0.54496 0.06881 0.62333-0.17504-0.56077 0.98215
  -6  -7   5  910.80  271.23   1-0.94696 0.45468 0.25000-0.69804-0.20187 0.55317
  -6   7   5 1388.91  372.47   1-0.44252-0.05094 0.63924-0.19082-0.62891 0.98030
   6   7  -5  726.32  424.50   1 0.56920-0.07502 0.51132-0.06312 0.64385-0.99518
  -6  -7   417196.80 1229.36   1-0.92334 0.41316 0.29338-0.74141-0.24772 0.52876
  -6   7   416050.82  801.81   1-0.30812-0.20333 0.67369-0.22512-0.67171 0.95287
   6   7  -415036.09  892.07   1 0.51610-0.00413 0.46583-0.01762 0.71877-0.99983
  -6   7   415948.80  980.98   1-0.45974-0.05181 0.52703-0.07867-0.71474 0.99555
  -6  -7   3 4616.91  927.11   1-0.89623 0.36816 0.33443-0.78246-0.29141 0.50219
  -6   7   3 4659.64  722.27   1-0.18811-0.34097 0.69175-0.24318-0.69719 0.90807
   6   7  -3 3473.28  744.37   1 0.45767 0.07208 0.41549 0.03271 0.78606-0.99686
  -6   7   3 3674.36  762.48   1-0.40950-0.11968 0.46991-0.02156-0.78197 0.99257
  -6  -7   2 9226.60 1108.13   1-0.86616 0.32084 0.37256-0.82033-0.33308 0.47340
  -6   7   2 8154.28  628.66   1-0.08485-0.46186 0.69869-0.25012-0.71036 0.85094
   6   7  -2 7041.12  693.19   1 0.39515 0.15198 0.36212 0.08596 0.84422-0.98463
  -6  -7   1 4689.38  844.39   1-0.83441 0.27143 0.40771-0.85547-0.37083 0.44099
  -6   7   1 3679.97  725.03   1 0.00169-0.56630 0.69932-0.25074-0.71479 0.78512
   6   7  -1 3337.89  685.12   1 0.33179 0.23306 0.30706 0.14102 0.89197-0.96218
  -6  -7   0 5974.37  809.87   1-0.80179 0.22115 0.43936-0.88713-0.40507 0.40507
  -6   7   0 5782.14 1137.18   1 0.07180-0.65412 0.69546-0.24687-0.71496 0.71496
   6   7   0 7190.59  621.40   1 0.26932 0.31326 0.25260 0.19548 0.92932-0.92932
  -6  -7  -1 6319.61  999.52   1-0.76944 0.17115 0.46725-0.91502-0.43545 0.36529
  -6   7  -1 8118.38 1001.41   1 0.12749-0.72752 0.68992-0.24133-0.71256 0.64223
  -6  -7  -1 6055.99  617.21   1-0.20831-0.39057-0.20118-0.24637-0.95714 0.88699
   6  -7   1 6877.90  646.95   1 0.19033 0.40582-0.22309-0.22274 0.95603-0.88639
  -6  -7  -2 1398.46  413.43   1-0.73884 0.12252 0.49137-0.93920-0.46114 0.32075
  -6   7  -2 2833.71  871.04   1 0.17051-0.78824 0.68412-0.23553-0.70915 0.56849
  -6  -7  -2  335.08  273.79   1-0.15314-0.46329-0.15332-0.29423-0.97623 0.83593
   6  -7   2 1556.15  436.07   1 0.14164 0.47228-0.16753-0.27831 0.97563-0.83635
  -6  -7  -3 6731.67  579.14   1-0.71081 0.07683 0.51125-0.95908-0.48307 0.27250
  -6   7  -3 5136.58  885.30   1 0.20251-0.83796 0.67892-0.23033-0.70572 0.49473
  -6  -7  -3 8109.57 1141.48   1-0.10380-0.53018-0.11045-0.33710-0.98844 0.77798
   6  -7   3 8414.54  733.96   1 0.09788 0.53381-0.11761-0.32823 0.98822-0.77929
  -6  -7  -4 1103.20  328.87   1-0.68670 0.03507 0.52707-0.97489-0.50063 0.21986
  -6   7  -4  317.74  479.63   1 0.22494-0.87817 0.67494-0.22619-0.70274 0.42147
  -6  -7  -4 2700.50  523.53   1-0.06026-0.59126-0.07394-0.37379-0.99543 0.71462
   6  -7   4 1658.96  554.08   1 0.05969 0.58977-0.07406-0.37178 0.99546-0.71689
  -6   7  -5 2399.81  717.41   1 0.23910-0.91004 0.67215-0.22340-0.70073 0.34914
  -6  -7  -5 2735.59  394.83   1-0.02402-0.64501-0.04237-0.40536-0.99881 0.64779
   6  -7   5 1176.74  510.31   1 0.02839 0.64097-0.03843-0.40830 0.99885-0.64995
  -6  -8   9 1223.64  463.91   1-0.99919 0.57852 0.03202-0.54381 0.02403 0.60792
   6   8  -9 1245.38  516.03   1 0.70965-0.28625 0.62835-0.11634 0.31870-0.95106
  -6   8   9  378.26  499.70   1-0.62273 0.19965 0.71050-0.19793-0.32768 0.95966
  -6  -8   8 1335.20  457.64   1-0.99675 0.55812 0.07725-0.58904-0.02264 0.58439
   6   8  -8 3720.99  589.94   1 0.68437-0.24320 0.60753-0.09552 0.40315-0.96525
  -6   8   8 2894.44  792.49   1-0.60101 0.16027 0.68609-0.17352-0.40994 0.97169
  -6  -8   7  486.63  304.25   1-0.99017 0.53359 0.12171-0.63350-0.06878 0.56031
   6   8  -7  568.99  442.66   1 0.65203-0.19342 0.58127-0.06924 0.48680-0.97866
  -6   8   7 1273.89  667.55   1-0.57343 0.11494 0.65552-0.14318-0.49138 0.98299
  -6  -8   6 3564.92  697.02   1-0.97965 0.50511 0.16512-0.67691-0.11408 0.53539
   6   8  -6 3943.85  790.27   1 0.61327-0.13685 0.54855-0.03653 0.56831-0.98991
  -6   8   6 1936.75  596.44   1-0.54034 0.06419 0.61810-0.10577-0.57093 0.99231
  -6  -8   5 2904.91  789.44   1-0.96556 0.47329 0.20737-0.71940-0.15707 0.50837
  -6   8   5 2408.95  547.52   1-0.42073-0.07272 0.64591-0.13343-0.63700 0.98838
   6   8  -5 1851.04  519.73   1 0.56785-0.07367 0.51017 0.00205 0.64595-0.99727
  -6   8   5 4623.05  838.62   1-0.50143 0.00749 0.57436-0.06195-0.64704 0.99805
  -6  -8   4 4267.49 1010.43   1-0.94804 0.43787 0.24777-0.75981-0.19952 0.48056
  -6   8   4 4363.24  914.98   1-0.28265-0.22881 0.67846-0.16581-0.67807 0.95924
   6   8  -4 5645.25  611.08   1 0.51680-0.00483 0.46643 0.04580 0.71787-0.99893
  -6   8   4 5203.88  812.68   1-0.45776-0.05379 0.52478-0.01237-0.71767 0.99847
  -6  -8   3 9988.79 1262.47   1-0.92762 0.39956 0.28614-0.79818-0.24005 0.45083
  -6   8   3 9425.00  797.10   1-0.16175-0.36733 0.69426-0.18160-0.70130 0.91218
   6   8  -3 8632.87  829.45   1 0.46115 0.06860 0.41849 0.09374 0.78243-0.99322
  -6  -8   2 4908.62 1104.91   1-0.90488 0.35892 0.32210-0.83414-0.27826 0.41878
  -6   8   2 5634.41  631.08   1-0.05931-0.48740 0.69923-0.18658-0.71242 0.85300
   6   8  -2 3527.25  721.94   1 0.40195 0.14518 0.36802 0.14408 0.83844-0.97885
  -6  -8   112522.36 1471.23   1-0.88037 0.31740 0.35508-0.86681-0.31440 0.38456
  -6   8   112389.28  994.74   1 0.02562-0.59023 0.69839-0.18572-0.71525 0.78557
   6   8  -110923.34  927.69   1 0.34225 0.22260 0.31617 0.19593 0.88481-0.95501
  -6  -8   0 2394.03  686.94   1-0.85528 0.27464 0.38517-0.89690-0.34659 0.34659
  -6   8   0 1461.75  432.73   1 0.09376-0.67607 0.69354-0.18087-0.71428 0.71428
   6   8   0 2690.99  769.94   1 0.28347 0.29911 0.26495 0.24715 0.92165-0.92165
  -6  -8  -1  694.20  210.64   1-0.83036 0.23207 0.41185-0.92359-0.37531 0.30515
  -6   8  -1  656.93  645.17   1 0.14751-0.74754 0.68739-0.17472-0.71114 0.64081
  -6  -8  -1  644.85  267.72   1-0.22588-0.37300-0.21641-0.29508-0.94981 0.87965
   6  -8   1  585.77  386.42   1 0.20450 0.39165-0.23927-0.27025 0.94916-0.87952
  -6  -8  -2  850.96  293.68   1-0.80666 0.19071 0.43488-0.94661-0.40021 0.25989
  -6   8  -2 1152.87  495.68   1 0.18880-0.80654 0.68124-0.16857-0.70728 0.56663
  -6  -8  -2 1801.72  570.02   1-0.17365-0.44278-0.17113-0.34036-0.96982 0.82951
   6  -8   2  536.17  297.54   1 0.15890 0.45502-0.18722-0.32231 0.96938-0.83009
  -6  -8  -3   53.74  190.86   1-0.78524 0.15163 0.45402-0.96575-0.42101 0.21053
  -6   8  -3 1639.72  567.48   1 0.21933-0.85485 0.67600-0.16314-0.70350 0.49254
  -6  -8  -3 1431.34  512.24   1-0.12667-0.50731-0.13033-0.38116-0.98334 0.77288
   6  -8   3  623.83  272.70   1 0.11767 0.51402-0.14018-0.36935 0.98310-0.77418
  -6  -8  -4 1410.43  397.11   1-0.76722 0.11595 0.46906-0.98080-0.43743 0.15679
  -6   8  -4  411.80  488.16   1 0.24061-0.89384 0.67185-0.15899-0.70051 0.41924
  -6  -8  -4  567.90  412.22   1-0.08554-0.56598-0.09457-0.41692-0.99183 0.71122
   6  -8   4  422.25  295.31   1 0.08142 0.56804-0.09884-0.41069 0.99176-0.71320
  -6   8  -5 4092.56  968.24   1 0.25386-0.92480 0.66909-0.15623-0.69847 0.34688
  -6  -8  -5 2719.73  893.69   1-0.04979-0.61924-0.06482-0.44687-0.99665 0.64563
   6  -8   5 2422.06  687.64   1 0.05150 0.61786-0.06473-0.44583 0.99657-0.64766
  -6  -9   8 1882.02  627.13   1-0.99897 0.56034 0.04372-0.61949 0.01198 0.54976
   6   9  -8 1861.46  678.77   1 0.68242-0.24162 0.60665-0.03063 0.40775-0.96988
  -6   9   8 2257.59  816.27   1-0.59793 0.15719 0.68263-0.10598-0.42010 0.98186
  -6  -9   7 1338.42  702.66   1-0.99591 0.53933 0.08492-0.66069-0.03058 0.52211
   6   9  -7 1278.98  677.79   1 0.65089-0.19228 0.58031-0.00428 0.48946-0.98133
  -6   9   7 2121.31  791.35   1-0.57048 0.11198 0.65218-0.07580-0.49920 0.99081
  -6  -9   6 2345.72  561.87   1-0.98951 0.51496 0.12507-0.70083-0.07227 0.49359
   6   9  -6 2056.72  804.96   1 0.61310-0.13668 0.54841 0.02761 0.56862-0.99022
  -6   9   6 1694.54  648.85   1-0.53802 0.06187 0.61548-0.03910-0.57593 0.99731
   6   9  -5 1131.28  649.69   1 0.56927-0.07509 0.51139 0.06487 0.64373-0.99506
  -6   9   5 -165.59  484.18   1-0.50035 0.00641 0.57313 0.00331-0.64896 0.99997
  -6  -9   4 6189.48 1139.32   1-0.96789 0.45772 0.20122-0.77726-0.15064 0.43168
  -6   9   4 4813.46  533.72   1-0.26474-0.24671 0.68151-0.10477-0.68224 0.96340
   6   9  -4 2416.66  586.68   1 0.52044-0.00847 0.46956 0.10670 0.71319-0.99425
  -6   9   4 6383.46  951.06   1-0.45856-0.05299 0.52568 0.05076-0.71649 0.99730
  -6  -9   3  234.15  154.82   1-0.95330 0.42523 0.23658-0.81262-0.18773 0.39851
  -6   9   3 1351.22  470.48   1-0.14307-0.38601 0.69573-0.11899-0.70390 0.91478
   6   9  -3  265.28  415.29   1 0.46758 0.06217 0.42404 0.15221 0.77559-0.98638
  -6   9   3  837.42  461.31   1-0.41328-0.11590 0.47421 0.10224-0.77738 0.98798
  -6  -9   2 6486.59  859.29   1-0.93684 0.39088 0.26971-0.84575-0.22266 0.36318
  -6   9   2 6190.01  686.33   1-0.04082-0.50607 0.69999-0.12323-0.71298 0.85364
   6   9  -2 4909.23  723.80   1 0.41159 0.13554 0.37638 0.19974 0.83001-0.97042
  -6  -9   1 4680.65  774.27   1-0.91911 0.35526 0.30028-0.87633-0.25505 0.32531
  -6   9   1 4269.27  666.64   1 0.04215-0.60676 0.69752-0.12076-0.71532 0.78565
   6   9  -1 6050.79  861.55   1 0.35533 0.20952 0.32754 0.24857 0.87547-0.94567
  -6  -9   0  410.62  180.62   1-0.90082 0.31908 0.32797-0.90401-0.28451 0.28451
  -6   9   0  -20.25  372.12   1 0.10865-0.69097 0.69204-0.11529-0.71362 0.71362
   6   9   0  246.95  419.22   1 0.29994 0.28264 0.27931 0.29680 0.91214-0.91214
  -6  -9  -1  436.66  216.65   1-0.88262 0.28433 0.35219-0.92789-0.31132 0.24116
  -6   9  -1 -159.88  375.41   1 0.16085-0.76087 0.68554-0.10878-0.71004 0.63971
  -6  -9  -2 1029.72  312.05   1-0.86571 0.24975 0.37310-0.94880-0.33367 0.19335
  -6   9  -2 1879.52  589.90   1 0.20078-0.81851 0.67922-0.10247-0.70592 0.56527
  -6  -9  -2 1127.83  347.95   1-0.19599-0.42044-0.19050-0.38493-0.96192 0.82161
   6  -9   2 1567.90  465.15   1 0.17752 0.43640-0.20847-0.36475 0.96178-0.82249
  -6  -9  -3 1819.30  684.45   1-0.85086 0.21725 0.39011-0.96581-0.35190 0.14143
  -6   9  -3 2810.64  764.51   1 0.23018-0.86570 0.67392-0.09696-0.70202 0.49106
  -6  -9  -3 2699.38  574.71   1-0.15118-0.48280-0.15162-0.42380-0.97680 0.76634
   6  -9   3 2751.85  534.54   1 0.13860 0.49309-0.16405-0.40917 0.97666-0.76774
  -6   9  -4  741.63  489.46   1 0.25058-0.90382 0.66978-0.09282-0.69899 0.41771
  -6  -9  -4 1055.21  596.68   1-0.11168-0.53984-0.11731-0.45812-0.98679 0.70618
   6  -9   4  879.22  393.03   1 0.10413 0.54533-0.12474-0.44849 0.98670-0.70814
  -6 -10   6  490.18  307.19   1-0.99597 0.52143 0.08440-0.72414-0.03004 0.45135
   6  10  -6  909.48  634.30   1 0.61520-0.13878 0.55018 0.08983 0.56463-0.98623
  -6  10   6  754.78  563.45   1-0.53781 0.06166 0.61524 0.02517-0.57639 0.99777
  -6 -10   5 1061.11  308.10   1-0.99051 0.49801 0.11998-0.75972-0.06698 0.41808
   6  10  -5 3597.13  645.58   1 0.57317-0.07898 0.51471 0.12558 0.63760-0.98893
  -6  10   5 2692.61  731.99   1-0.50157 0.00764 0.57453 0.06597-0.64678 0.99779
  -6 -10   4  489.85  239.43   1-0.98274 0.47229 0.15399-0.79372-0.10244 0.38331
   6  10  -4  549.34  609.90   1 0.52665-0.01469 0.47489 0.16540 0.70505-0.98611
  -6  10   4 1670.73  605.38   1-0.46176-0.04979 0.52932 0.11118-0.71174 0.99255
  -6 -10   3 2667.03  524.98   1-0.97325 0.44519 0.18603-0.82607-0.13475 0.34553
  -6  10   3 3191.39  465.61   1-0.13220-0.39689 0.69647-0.05565-0.70530 0.91617
   6  10  -3 3625.80  685.16   1 0.47657 0.05318 0.43180 0.20849 0.76578-0.97657
  -6  10   3 2322.09  692.30   1-0.41894-0.11024 0.48065 0.15985-0.77036 0.98096
  -6 -10   2 5603.53  843.62   1-0.96217 0.41621 0.21596-0.85601-0.16608 0.30660
  -6  10   2 6917.20  826.66   1-0.03034-0.51655 0.69994-0.05910-0.71355 0.85420
   6  10  -2 6443.39  808.77   1 0.42366 0.12347 0.38683 0.25330 0.81906-0.95947
  -6  10   2 6413.67  925.16   1-0.37418-0.17262 0.42973 0.21077-0.82177 0.96217
  -6 -10   1 3128.45  610.50   1-0.95014 0.38629 0.24339-0.88343-0.19490 0.26516
  -6  10   1 5014.71  730.18   1 0.05157-0.61618 0.69693-0.05609-0.71527 0.78560
   6  10  -1 3035.27  577.70   1 0.37063 0.19422 0.34084 0.29929 0.86397-0.93418
  -6 -10   0 1695.37  411.89   1-0.93778 0.35604 0.26796-0.90800-0.22081 0.22081
  -6  10   0 1758.24  597.82   1 0.11683-0.69915 0.69115-0.05031-0.71319 0.71319
   6  10   0 2171.90  596.67   1 0.31839 0.26419 0.29540 0.34473 0.90075-0.90075
  -6 -10  -1  401.76  214.11   1-0.92578 0.32615 0.28928-0.92933-0.24338 0.17312
  -6  10  -1  678.70  532.19   1 0.16787-0.76790 0.68451-0.04367-0.70940 0.63907
   6  10   1  354.09  394.86   1 0.26835 0.33196 0.25176 0.38837 0.92983-0.85963
  -6 -10  -2 1114.12  368.62   1-0.91492 0.29739 0.30693-0.94697-0.26211 0.12159
  -6  10  -2 1453.36  511.72   1 0.20682-0.82455 0.67816-0.03733-0.70520 0.56454
  -6 -10  -2 1156.91  424.07   1-0.21990-0.39653-0.21123-0.42814-0.95237 0.81207
   6 -10   2 2367.06  563.50   1 0.19730 0.41662-0.23105-0.40587 0.95272-0.81344
  -6 -11   4 3515.75  836.72   1-0.99294 0.48249 0.10619-0.80991-0.05265 0.33352
   6  11  -4 4132.40  837.88   1 0.53511-0.02314 0.48215 0.22217 0.69367-0.97473
  -6  11   4 2080.25  609.14   1-0.46704-0.04451 0.53532 0.16923-0.70376 0.98457
  -6 -11   3  660.07  251.60   1-0.98740 0.45899 0.13494-0.83865-0.08256 0.29321
   6  11  -3 1085.44  445.58   1 0.48777 0.04198 0.44145 0.26287 0.75312-0.96391
  -6  11   3  670.75  467.13   1-0.42663-0.10255 0.48939 0.21516-0.76057 0.97117
  -6 -11   2 4164.96 1051.34   1-0.98070 0.43433 0.16145-0.86516-0.11024 0.25068
  -6  11   2 4972.34  833.95   1-0.02724-0.51965 0.69991 0.00500-0.71370 0.85436
   6  11  -2 5365.34  928.63   1 0.43843 0.10911 0.39887 0.30545 0.80540-0.94593
  -6  11   2 6740.17 1107.16   1-0.38456-0.16225 0.44154 0.26301-0.81064 0.95105
  -6 -11   1 2102.95  646.60   1-0.97358 0.40973 0.18505-0.88910-0.13373 0.20399
  -6  11   1 2973.29  607.65   1 0.05409-0.61870 0.69676 0.00815-0.71525 0.78558
   6  11  -1 4757.34  876.39   1 0.38784 0.17701 0.35578 0.34836 0.85028-0.92049
  -6 -11   0 2106.35  575.57   1-0.96612 0.38438 0.20592-0.90997-0.15555 0.15555
  -6  11   0 3637.48  778.63   1 0.11860-0.70092 0.69095 0.01396-0.71309 0.71309
   6  11   0 3836.32  871.94   1 0.33856 0.24402 0.31296 0.39118 0.88736-0.88736
  -7   0  11   89.91  216.18   1-0.98799 0.50618 0.13230-0.13230-0.07981 0.85221
   7   0 -11 1827.27  675.91   1 0.75088-0.26622 0.65697-0.65697-0.06747-0.70533
  -7   0  11  108.69  262.59   1-0.65557 0.17087 0.74440-0.74440 0.12677 0.64548
  -7   0  10  862.65  293.22   1-0.96536 0.46559 0.20790-0.20790-0.15763 0.86023
   7   0 -10  721.84  354.22   1 0.75194-0.24952 0.65918-0.65918 0.00681-0.70937
  -7   0  10  471.20  436.19   1-0.65898 0.15698 0.74981-0.74981 0.05928 0.64274
  -7   0   9  731.10  308.96   1-0.93090 0.41324 0.28044-0.28044-0.23402 0.86636
   7   0  -9  939.06  416.18   1 0.74854-0.22834 0.65752-0.65752 0.08568-0.71799
  -7   0   9 2465.02  628.35   1-0.66000 0.14031 0.75114-0.75114-0.01322 0.64505
  -7   0   812501.13 2013.44   1-0.88473 0.34858 0.34946-0.34946-0.30842 0.86968
   7   0  -813755.36  968.77   1 0.73924-0.20086 0.65184-0.65184 0.16916-0.73126
  -7   0   812847.27  857.67   1-0.65725 0.11985 0.74816-0.74816-0.09097 0.65260
  -7   0   7 6417.53 1269.48   1-0.82890 0.27510 0.41334-0.41334-0.37691 0.86802
   7   0  -7 6597.97  635.80   1 0.72386-0.16772 0.63982-0.63982 0.25815-0.74999
  -7   0   7 4955.36  702.46   1-0.64975 0.09466 0.73978-0.73978-0.17472 0.66614
  -7   0   6 7183.22 1078.19   1-0.76466 0.19319 0.47113-0.47113-0.43969 0.86064
   7   0  -6 8880.60  776.27   1 0.70043-0.12653 0.62081-0.62081 0.35210-0.77367
  -7   0   6 6244.32 1046.06   1-0.63581 0.06275 0.72513-0.72513-0.26441 0.68573
  -7   0   5  802.45  303.16   1-0.69411 0.10454 0.52232-0.52232-0.49535 0.84631
   7   0  -5 1620.53  636.81   1 0.66715-0.07570 0.59393-0.59393 0.44960-0.80094
  -7   0   5 1030.99  354.89   1-0.61450 0.02378 0.70126-0.70126-0.36140 0.71250
  -7   0   423553.11 1290.23   1-0.61998 0.01275 0.56556-0.56556-0.54384 0.82460
   7   0  -424579.05 1303.82   1 0.62295-0.01369 0.55675-0.55675 0.54949-0.83056
  -7   0   421979.70 1234.80   1-0.58331-0.02516 0.66666-0.66666-0.46401 0.74493
  -7   0   337703.87 1470.30   1-0.54491-0.07997 0.60113-0.60113-0.58456 0.79513
   7   0  -337890.84 1401.15   1 0.56670 0.06024 0.50919-0.50919 0.64774-0.85854
  -7   0   341057.00 1498.31   1-0.54051-0.08561 0.61829-0.61829-0.57057 0.78126
  -7   0   227012.56 1234.19   1-0.47192-0.17158 0.62950-0.62950-0.61725 0.75781
   7   0  -226596.72 1064.49   1 0.49896 0.14576 0.45109-0.45109 0.73996-0.88049
  -7   0   229080.87 1148.80   1-0.48461-0.15921 0.55527-0.55527-0.67588 0.81628
  -7   0   1 1502.75  432.84   1-0.40271-0.25848 0.65109-0.65109-0.64334 0.71362
   7   0  -1 1460.96  513.60   1 0.42175 0.24020 0.38518-0.38518 0.82082-0.89102
  -7   0   1  944.29  394.96   1-0.41652-0.24491 0.47790-0.47790-0.77337 0.84357
  -7   0   024140.31 1423.58   1-0.33943-0.33943 0.66697-0.66697-0.66326 0.66326
   7   0   018967.42 1054.24   1 0.33984 0.33984 0.31407-0.31407 0.88648-0.88648
   7   0   1  374.78  298.20   1 0.25811 0.43930 0.24281-0.24281 0.93510-0.86489
  -7   0  -2 1822.87  552.26   1-0.23543-0.47880 0.68595-0.68595-0.68849 0.54791
  -7   0  -2  862.40  258.36   1-0.18013-0.53319-0.17675 0.17675-0.96763 0.82732
   7   0   2  295.03  195.66   1 0.18048 0.52984-0.21185 0.21185 0.96049-0.82120
  -7   0  -3 2097.92  648.33   1-0.19580-0.53606 0.69092-0.69092-0.69590 0.48502
  -7   0  -3 1439.39  426.75   1-0.11157-0.61929-0.11721 0.11721-0.98681 0.77635
   7   0   3 1819.43  398.00   1 0.11143 0.61666-0.13306 0.13306 0.98482-0.77589
  -7   0  -4  604.37  419.26   1-0.16455-0.58494 0.69402-0.69402-0.70089 0.41973
  -7   0  -4  736.67  442.59   1-0.05310-0.69534-0.06770 0.06770-0.99629 0.71547
   7   0   4  334.12  176.69   1 0.05450 0.69366-0.06814 0.06814 0.99618-0.71706
  -7   0  -511976.87 1288.85   1-0.14148-0.62564 0.69584-0.69584-0.70411 0.35266
  -7   0  -5 8292.70 1504.99   1-0.00529-0.76066-0.02605 0.02605-0.99964 0.64862
   7   0   5 8875.34 1233.58   1 0.00707 0.75897-0.01417 0.01417 0.99987-0.65097
  -7   0  -6 2624.38  694.01   1-0.12627-0.65848 0.69683-0.69683-0.70602 0.28427
  -7   1  11 2307.53  575.95   1-0.98628 0.50447 0.13984-0.07587-0.08767 0.86008
  -7  -1  11 3370.17  600.48   1-0.99023 0.50842 0.12144-0.18541-0.06850 0.84090
   7  -1 -11 2919.41  662.54   1 0.74799-0.26346 0.65163-0.71573-0.12602-0.64676
   7   1 -11 3875.23  810.73   1 0.75206-0.26740 0.65892-0.59488-0.01478-0.75802
  -7  -1  11 2363.27  496.96   1-0.64828 0.16358 0.73600-0.79999 0.19499 0.57727
  -7   1  11 2876.99  645.04   1-0.65873 0.17444 0.74952-0.68551 0.06538 0.70684
  -7  -1  10  -80.50  198.69   1-0.97111 0.47134 0.19228-0.25629-0.14129 0.84389
  -7   1  10  397.42  157.25   1-0.96018 0.46041 0.22079-0.15678-0.17114 0.87374
   7  -1 -10  279.03  332.40   1 0.75130-0.24887 0.65753-0.72157-0.05649-0.64606
   7   1 -10 1267.00  677.52   1 0.75002-0.24760 0.65844-0.59440 0.06253-0.76509
  -7  -1  10  838.64  411.31   1-0.65506 0.15271 0.74381-0.80781 0.13274 0.56931
  -7   1  10  769.74  337.51   1-0.66005 0.15806 0.75118-0.68717-0.00705 0.70909
  -7  -1   9  684.18  218.43   1-0.94159 0.42393 0.26069-0.32470-0.21314 0.84548
  -7   1   9  771.18  232.52   1-0.92060 0.40293 0.29788-0.23387-0.25250 0.88484
   7  -1  -9  884.81  360.37   1 0.75174-0.23155 0.65920-0.72323 0.01832-0.65062
   7   1  -9 2071.33  631.93   1 0.74298-0.22278 0.65362-0.58958 0.14406-0.77637
  -7  -1   9 1912.93  563.76   1-0.65866 0.13896 0.74944-0.81345 0.06704 0.56478
  -7   1   9  924.68  563.75   1-0.65766 0.13797 0.74862-0.68461-0.08390 0.71573
  -7  -1   8 3612.38  993.37   1-0.90210 0.36654 0.32614-0.39014-0.28256 0.84464
  -7   1   8 5523.05  594.87   1-0.86787 0.33173 0.37052-0.30655-0.33090 0.89217
   7  -1  -8 5353.43  656.25   1 0.74754-0.20958 0.65686-0.72090 0.09854-0.66058
   7   1  -8 3641.34  900.08   1 0.72950-0.19112 0.64430-0.58030 0.22955-0.79165
  -7  -1   8 5306.11  585.01   1-0.66006 0.12267 0.75119-0.81520-0.00440 0.56603
  -7   1   8 3722.71  864.43   1-0.65080 0.11340 0.74096-0.67695-0.16561 0.72723
  -7  -1   7 7885.72 1146.23   1-0.85297 0.29917 0.38776-0.45173-0.34938 0.84049
  -7   1   7 7384.22  860.89   1-0.80462 0.25082 0.43676-0.37280-0.40225 0.89336
   7  -1  -7 7095.20  760.40   1 0.73707-0.18093 0.65019-0.71419 0.18431-0.67615
   7   1  -7 9596.66  986.44   1 0.70945-0.15331 0.62819-0.56419 0.31944-0.81128
  -7  -1   7 9679.95  841.10   1-0.65777 0.10267 0.74873-0.81274-0.08208 0.57350
  -7   1   7 6524.87  651.73   1-0.63802 0.08262 0.72760-0.66353-0.25203 0.74357
  -7  -1   6 6665.81 1137.80   1-0.79638 0.22491 0.44425-0.50822-0.41038 0.83133
  -7   1   6 8415.41  625.08   1-0.73247 0.16055 0.49604-0.43207-0.46628 0.88743
   7  -1  -6 6875.51  934.98   1 0.71978-0.14588 0.63656-0.70056 0.27694-0.69851
   7   1  -6 5541.30  951.00   1 0.68083-0.10719 0.60533-0.54133 0.41234-0.83394
  -7  -1   6 6908.49  894.34   1-0.65062 0.07782 0.74075-0.80476-0.16724 0.58846
  -7   1   6 4637.86  802.14   1-0.61888 0.04582 0.70618-0.64211-0.34391 0.76523
  -7  -1   524348.43 1299.12   1-0.73352 0.14394 0.49528-0.55925-0.46544 0.81640
  -7   1   524522.71 1200.46   1-0.65441 0.06483 0.54660-0.48262-0.52246 0.87342
   7  -1  -522598.83 1085.86   1 0.69327-0.10160 0.61490-0.67891 0.37584-0.72715
   7   1  -522547.36 1186.88   1 0.64294-0.05149 0.57362-0.50962 0.50752-0.85885
  -7  -1   523843.39 1156.22   1-0.63657 0.04586 0.72598-0.79006-0.26021 0.61131
  -7   1   524624.89 1216.98   1-0.59142 0.00060 0.67581-0.61176-0.43988 0.79103
  -7  -1   4 8892.33  696.19   1-0.66659 0.05936 0.53944-0.60341-0.51444 0.79521
  -7   1   4 8466.57  645.50   1-0.57343-0.03379 0.58847-0.52450-0.56996 0.85073
   7  -1  -4 9291.65  688.25   1 0.65524-0.04598 0.58396-0.64796 0.47921-0.76027
   7   1  -410923.82  799.02   1 0.59464 0.01461 0.53273-0.46873 0.60215-0.88321
  -7  -1   4 7712.45  569.07   1-0.61398 0.00560 0.70068-0.76475-0.36341 0.64429
  -7   1   4 8610.19  630.12   1-0.55450-0.05396 0.63412-0.57008-0.53888 0.81981
  -7  -1   3 4050.02  560.00   1-0.59783-0.02705 0.57683-0.64080-0.55664 0.76722
  -7   1   3 5009.98  501.37   1-0.49297-0.13284 0.62199-0.55793-0.60835 0.81918
   7  -1  -3 5020.28  479.72   1 0.60416 0.02290 0.54082-0.60482 0.58522-0.79602
   7   1  -3 4264.75  409.13   1 0.53579 0.09115 0.48273-0.41870 0.69274-0.90353
  -7  -1   3 5329.61  493.16   1-0.57939-0.04673 0.66224-0.72628-0.47510 0.68579
  -7   1   3 4879.72  523.75   1-0.50693-0.11919 0.58026-0.51622-0.63742 0.84811
  -7  -1   210409.41  693.94   1-0.52997-0.11352 0.60762-0.67168-0.59153 0.73208
  -7   1   2 9935.33  662.92   1-0.41538-0.22811 0.64748-0.58342-0.63891 0.77947
   7  -1  -2 9863.23  581.81   1 0.53908 0.10564 0.48555-0.54958 0.68819-0.82872
   7   1  -2 9536.02  579.29   1 0.46775 0.17698 0.42419-0.36016 0.77541-0.91594
  -7  -1   210626.03  584.35   1-0.53004-0.11374 0.60644-0.67048-0.59269 0.73315
  -7   1   2 9713.20  634.69   1-0.44861-0.19520 0.51438-0.45033-0.73085 0.87125
  -7  -1   148923.55 2457.20   1-0.46459-0.19659 0.63201-0.69607-0.62024 0.69052
  -7   1   143810.47 2220.88   1-0.34327-0.31791 0.66611-0.60205-0.66215 0.73243
   7  -1  -145859.58 2213.26   1 0.46150 0.20102 0.41879-0.48282 0.78206-0.85233
   7   1  -146317.44 2286.01   1 0.39273 0.26922 0.36002-0.29601 0.84625-0.91645
  -7  -1   144927.01 2129.26   1-0.46422-0.19722 0.53212-0.59617-0.70805 0.77825
  -7   1   145260.60 2196.26   1-0.38151-0.27993 0.43807-0.37402-0.81396 0.88416
  -7   1   0 9139.72  909.52   1-0.27841-0.40056 0.67921-0.61512-0.67908 0.67908
   7  -1   0 6967.66  555.89   1 0.37534 0.30434 0.34493-0.40895 0.86031-0.86031
   7   1   0 7057.87  584.61   1 0.31529 0.36439 0.29269-0.22868 0.90272-0.90272
  -7  -1   0 6300.32  438.79   1-0.38416-0.29491 0.44108-0.50513-0.81108 0.81108
  -7  -1  -1 3741.71  676.33   1-0.34927-0.34728 0.66473-0.72879-0.66039 0.59012
  -7   1  -1 5197.21  940.03   1-0.22178-0.47482 0.68780-0.62372-0.69118 0.62089
  -7  -1  -1 3740.44  628.87   1-0.23828-0.45749-0.22714 0.16321-0.94425 0.87410
   7  -1   1 4046.80  695.27   1 0.28723 0.41018 0.26823-0.33225 0.91953-0.84932
  -7  -1  -2 4502.77  716.79   1-0.30185-0.41238 0.67491-0.73899-0.67332 0.53274
  -7   1  -2 3681.83  645.60   1-0.17396-0.54027 0.69316-0.62908-0.69947 0.55888
  -7   1  -2 5043.67  642.59   1-0.20213-0.51118-0.19583 0.25977-0.95957 0.81927
  -7  -1  -2 6298.30  501.96   1-0.16731-0.54601-0.16563 0.10169-0.97189 0.83158
   7  -1   2 4240.25  547.91   1 0.16466 0.54566-0.19379 0.13010 0.96712-0.82784
  -7  -1  -3 1752.09  457.95   1-0.26208-0.46978 0.68194-0.74602-0.68283 0.47196
  -7   1  -3 1708.71  535.31   1-0.13503-0.59683 0.69628-0.63220-0.70494 0.49407
  -7   1  -3 1838.68  494.15   1-0.12679-0.60407-0.13044 0.19438-0.98331 0.77285
  -7  -1  -3 2141.53  565.11   1-0.10423-0.62663-0.11083 0.04689-0.98835 0.77789
   7  -1   3 2524.02  458.18   1 0.10280 0.62529-0.12322 0.05952 0.98704-0.77811
   7   1   3  978.25  234.75   1 0.12908 0.59901-0.15319 0.21688 0.97972-0.77080
  -7  -1  -4 1713.75  607.42   1-0.23026-0.51923 0.68667-0.75075-0.68953 0.40836
  -7   1  -4 1741.53  555.09   1-0.06278-0.68566-0.07613 0.14009-0.99511 0.71430
  -7  -1  -4 2645.02  704.13   1-0.05014-0.69830-0.06513 0.00117-0.99661 0.71580
   7  -1   4 2195.65  564.80   1 0.05156 0.69661-0.06479 0.00097 0.99656-0.71744
   7   1   4 1532.57  432.40   1 0.06266 0.68320-0.07745 0.14114 0.99502-0.71645
  -7  -1  -5 4394.39  634.59   1-0.20639-0.56073 0.68971-0.75379-0.69404 0.34258
  -7   1  -5 5990.63  894.94   1-0.08284-0.68428 0.69875-0.63467-0.71054 0.35908
  -7   1  -5 3972.46  707.92   1-0.01060-0.75534-0.03068 0.09464-0.99947 0.64845
  -7  -1  -5 4456.88  805.54   1-0.00576-0.76019-0.02645-0.03750-0.99963 0.64861
   7  -1   5 4073.16 1115.18   1 0.00843 0.75760-0.01572-0.04809 0.99984-0.65093
  -7  -1  -6 2826.65  615.02   1-0.19029-0.59446 0.69152-0.75560-0.69683 0.27508
  -7   1  -6 5093.20  860.75   1-0.06874-0.71601 0.69909-0.63501-0.71171 0.28996
  -7   1  -6 2593.00  903.90   1 0.03021-0.81368 0.00493 0.05902-0.99953 0.57830
  -7  -1  -6 3195.17  774.53   1 0.02947-0.81294 0.00428-0.06825-0.99955 0.57833
   7  -1   6 2120.48  791.66   1-0.02555 0.80946 0.02293-0.08675 0.99941-0.58072
  -7  -2  11  950.51  326.31   1-0.99269 0.51088 0.10777-0.23572-0.05429 0.82669
   7  -2 -11 1131.01  398.53   1 0.74063-0.25610 0.64407-0.77227-0.19140-0.58138
   7   2 -11 1206.34  626.64   1 0.75138-0.26672 0.65911-0.53104 0.03145-0.80427
  -7  -2  11 1447.49  463.79   1-0.63668 0.15198 0.72267-0.85066 0.26901 0.50325
  -7   2  11  866.07  505.05   1-0.66005 0.17576 0.75114-0.62312 0.01012 0.76211
  -7  -2  10 3263.98  666.45   1-0.97703 0.47726 0.17430-0.30231-0.12251 0.82511
  -7   2  10 2534.74  580.91   1-0.95603 0.45626 0.23048-0.10247-0.18132 0.88392
   7  -2 -10 3167.57  581.23   1 0.74793-0.24566 0.65157-0.77977-0.12668-0.57584
   7   2 -10 2125.11  607.29   1 0.74646-0.24404 0.65612-0.52805 0.11082-0.81338
  -7  -2  10 3531.34  459.04   1-0.64567 0.14332 0.73299-0.86098 0.21404 0.48801
  -7   2  10 3619.11  582.29   1-0.65859 0.15660 0.74964-0.62162-0.06547 0.76750
  -7  -2   9  597.19  229.40   1-0.95224 0.43457 0.23889-0.36690-0.19017 0.82251
   7  -2  -9  162.66  312.33   1 0.75124-0.23104 0.65745-0.78552-0.05822-0.57408
   7   2  -9  327.72  416.21   1 0.73565-0.21504 0.64910-0.52110 0.19359-0.82596
  -7  -2   9  490.84  241.34   1-0.65287 0.13286 0.74128-0.86927 0.15572 0.47613
  -7   2   9  865.19  434.38   1-0.65295 0.13325 0.74337-0.61535-0.14507 0.77690
  -7  -2   8 1835.20  520.11   1-0.91860 0.38304 0.30110-0.42911-0.25592 0.81800
  -7   2   8  966.93  382.39   1-0.85165 0.31550 0.38923-0.26130-0.35096 0.91223
   7  -2  -8 2055.08  607.73   1 0.75178-0.21382 0.65920-0.78727 0.01629-0.57833
   7   2  -8 1691.98  682.68   1 0.71907-0.18069 0.63598-0.50798 0.28009-0.84219
  -7  -2   8 1636.09  476.65   1-0.65800 0.12034 0.74722-0.87522 0.09313 0.46851
  -7   2   8 2169.41  622.33   1-0.64190 0.10417 0.73192-0.60378-0.22855 0.79031
  -7  -2   711807.86 1131.32   1-0.87631 0.32251 0.36020-0.48814-0.31987 0.81098
  -7   2   710563.85 1410.75   1-0.78073 0.22693 0.45787-0.32993-0.42520 0.91631
   7  -2  -711940.18  964.41   1 0.74765-0.19192 0.65693-0.78500 0.09721-0.58900
   7   2  -710869.16  983.69   1 0.69522-0.13908 0.61651-0.48851 0.36956-0.86140
  -7  -2   711834.70  881.11   1-0.65988 0.10478 0.75091-0.87893 0.02613 0.46528
  -7   2   711913.93  964.00   1-0.62531 0.06992 0.71339-0.58525-0.31628 0.80782
  -7  -2   6 1050.35  245.30   1-0.82711 0.25565 0.41514-0.54308-0.37886 0.79981
  -7   2   6 1183.79  381.81   1-0.70069 0.12877 0.51802-0.39007-0.49058 0.91173
   7  -2  -6 1294.79  400.70   1 0.73696-0.16306 0.65011-0.77811 0.18500-0.60658
   7   2  -6 1289.61  459.08   1 0.66283-0.08919 0.59032-0.46232 0.46061-0.88221
  -7  -2   6  896.16  278.28   1-0.65924 0.08644 0.75034-0.87836-0.04889 0.47011
  -7   2   6  707.13  390.84   1-0.60173 0.02868 0.68691-0.55876-0.40750 0.82882
  -7  -2   5 4566.69 1013.84   1-0.77190 0.18278 0.46524-0.59317-0.43325 0.78404
  -7   2   5 4917.80  810.30   1-0.61525 0.02567 0.56802-0.44007-0.54663 0.89759
   7  -2  -5 4962.21  856.11   1 0.71872-0.12705 0.63570-0.76371 0.28161-0.63293
   7   2  -5 4083.29  810.74   1 0.62163-0.03018 0.55563-0.42763 0.55211-0.90344
  -7  -2   5 3642.31  595.23   1-0.65406 0.06357 0.74461-0.87263-0.13319 0.48421
  -7   2   5 3808.66  705.99   1-0.56993-0.02088 0.65156-0.52348-0.50062 0.85177
  -7  -2   4 4202.98  483.08   1-0.71234 0.10511 0.51021-0.63816-0.48192 0.76269
  -7   2   4 4052.71  504.69   1-0.52818-0.07994 0.60835-0.48023-0.59238 0.87348
   7  -2  -4 4046.97  421.72   1 0.68983-0.08040 0.61206-0.74006 0.38665-0.66770
   7   2  -4 2816.03  426.15   1 0.57091 0.03824 0.51278-0.38472 0.64117-0.92223
  -7  -2   4 2643.59  334.86   1-0.64199 0.03361 0.73201-0.86016-0.22803 0.50891
  -7   2   4 5408.00  501.13   1-0.52935-0.07911 0.60566-0.47758-0.59409 0.87501
  -7  -2   3 1987.04  369.75   1-0.65036 0.02547 0.54892-0.67687-0.52507 0.73565
  -7   2   3 1831.60  366.49   1-0.44253-0.18327 0.63924-0.51112-0.62891 0.83974
   7  -2  -3 1424.34  270.36   1 0.64723-0.02016 0.57723-0.70524 0.49787-0.70867
   7   2  -3 1143.74  357.72   1 0.51135 0.11558 0.46175-0.33369 0.72477-0.93556
  -7  -2   3  850.95  215.61   1-0.62025-0.00577 0.70772-0.83587-0.33823 0.54889
  -7   2   3 1381.36  435.83   1-0.47940-0.14679 0.54936-0.42125-0.68437 0.89498
  -7  -2   223411.82 1284.12   1-0.58798-0.05455 0.58163-0.70958-0.56212 0.70250
  -7   2   224816.13 1428.00   1-0.36152-0.28197 0.66183-0.53371-0.65671 0.79726
   7  -2  -224757.00 1267.32   1 0.58865 0.05622 0.52763-0.65564 0.61244-0.75297
   7   2  -222826.94 1346.55   1 0.44441 0.20031 0.40404-0.27598 0.79952-0.94005
  -7  -2   225603.26 1271.79   1-0.58368-0.06010 0.66708-0.79516-0.46294 0.60340
  -7   2   226379.65 1454.68   1-0.42119-0.22262 0.48321-0.35511-0.76752 0.90792
  -7   2   1 4111.89  673.85   1-0.28746-0.37388 0.67760-0.54944-0.67691 0.74720
   7  -2  -1 3418.54  376.44   1 0.51355 0.14896 0.46363-0.59169 0.72201-0.79227
   7   2  -1 3778.67  490.46   1 0.37236 0.28959 0.34234-0.21431 0.86264-0.93284
  -7  -2   1 2923.80  321.39   1-0.52720-0.13423 0.60323-0.73131-0.59846 0.66869
  -7  -2   024716.08 1229.79   1-0.47042-0.20844 0.63002-0.75814-0.61787 0.61787
  -7   2   027111.80 1463.82   1-0.22175-0.45722 0.68780-0.55964-0.69119 0.69119
   7  -2   020772.18  959.22   1 0.42498 0.25470 0.38798-0.51601 0.81783-0.81783
   7   2   023955.63 1161.35   1 0.29938 0.38030 0.27883-0.15080 0.91248-0.91248
  -7  -2   022714.54  991.80   1-0.44866-0.23041 0.51444-0.64254-0.73078 0.73078
  -7  -2  -112804.87  945.22   1-0.41819-0.27837 0.64666-0.77478-0.63791 0.56764
  -7   2  -111878.00  843.34   1-0.16525-0.53135 0.69395-0.56579-0.70079 0.63050
  -7  -2  -112347.47  770.75   1-0.22745-0.46832-0.21777 0.08989-0.94912 0.87897
   7  -2   111185.53  591.75   1 0.33021 0.36720 0.30569-0.43372 0.89303-0.82282
  -7  -2  -2 2384.69  475.08   1-0.37210-0.34214 0.65921-0.78733-0.65342 0.51287
  -7   2  -2 2478.85  596.63   1-0.11817-0.59606 0.69729-0.56913-0.70697 0.56638
  -7   2  -2 2693.34  399.83   1-0.23646-0.47685-0.22557 0.35345-0.94509 0.80478
  -7  -2  -2 2443.71  416.82   1-0.16160-0.55172-0.16067 0.03279-0.97368 0.83338
   7  -2   2 2008.99  345.35   1 0.15685 0.55347-0.18488 0.05749 0.97016-0.83087
  -7  -2  -3  758.23  476.17   1-0.33296-0.39896 0.66840-0.79652-0.66510 0.45427
  -7   2  -3  656.55  457.90   1-0.08036-0.65150 0.69882-0.57066-0.71076 0.49988
  -7   2  -3  629.52  239.11   1-0.15248-0.57839-0.15275 0.28062-0.97642 0.76596
  -7  -2  -3  242.41  195.29   1-0.10304-0.62783-0.10979-0.01807-0.98859 0.77813
   7  -2   3  188.03  170.23   1 0.10066 0.62743-0.12077-0.00660 0.98756-0.77863
  -7  -2  -4 7926.14  704.76   1-0.30122-0.44827 0.67503-0.80320-0.67348 0.39232
  -7   2  -4 9116.18  867.00   1-0.05140-0.69809 0.69931-0.57115-0.71296 0.43179
  -7   2  -4 5361.03 1252.49   1-0.08108-0.66733-0.09069 0.21856-0.99257 0.71195
  -7  -2  -4 6371.02 1203.71   1-0.05252-0.69592-0.06720-0.06072-0.99635 0.71554
   7  -2   4 6980.64 1614.70   1 0.05386 0.69431-0.06741-0.06022 0.99627-0.71714
  -7  -2  -513150.85 1324.60   1-0.27702-0.49010 0.67945-0.80761-0.67941 0.32795
  -7   2  -510722.01 1222.16   1-0.03161-0.73629 0.69995-0.57178-0.71348 0.36184
  -7  -2  -5 8217.49 1444.74   1-0.01089-0.75505-0.03093-0.09699-0.99946 0.64844
   7  -2   510118.32 1424.51   1 0.01411 0.75193-0.02218-0.10545 0.99965-0.65075
  -7  -2  -6 1538.90  593.62   1-0.26041-0.52434 0.68221-0.81037-0.68320 0.26145
  -7   2  -6 1658.74  680.39   1-0.01887-0.76674 0.69980-0.57163-0.71408 0.29211
   7  -2   6  574.97  321.00   1-0.01755 0.80146 0.01383-0.14147 0.99975-0.58106
  -7  -3  10  483.42  241.43   1-0.98279 0.48302 0.15382-0.34574-0.10226 0.80445
   7  -3 -10  861.11  414.28   1 0.73871-0.23644 0.64216-0.83446-0.20477-0.49776
   7   3 -10  787.69  464.04   1 0.74202-0.23959 0.65291-0.46081 0.15198-0.85454
  -7  -3  10  285.44  224.81   1-0.63030 0.12795 0.71535-0.90734 0.30162 0.40044
  -7   3  10  824.93  432.52   1-0.65550 0.15350 0.74621-0.55418-0.11608 0.81811
  -7  -3   9 5461.54 1064.64   1-0.96245 0.44479 0.21525-0.40726-0.16533 0.79767
  -7   3   9 3499.07  675.00   1-0.90327 0.38560 0.32445-0.13244-0.28076 0.91310
   7  -3  -9 4353.36  552.49   1 0.74639-0.22639 0.64994-0.84224-0.14303-0.48924
   7   3  -9 4868.31  838.79   1 0.72840-0.20779 0.64343-0.45143 0.23540-0.86777
  -7  -3   9 4719.76  559.76   1-0.63947 0.11946 0.72587-0.91785 0.25335 0.37850
  -7   3   9 4697.58  680.53   1-0.64651 0.12643 0.73703-0.54481-0.19699 0.82896
  -7  -3   8 3838.66  913.65   1-0.93432 0.39877 0.27432-0.46634-0.22754 0.78962
  -7   3   8 3890.53  969.89   1-0.83667 0.30053 0.40536-0.21346-0.36830 0.92957
   7  -3  -8 5077.61  596.58   1 0.75042-0.21246 0.65640-0.84851-0.07739-0.48464
   7   3  -8 2886.03  767.00   1 0.70886-0.17049 0.62771-0.43570 0.32169-0.88379
  -7  -3   8 2824.46  612.45   1-0.64728 0.10962 0.73484-0.92683 0.20253 0.35911
  -7   3   8 5508.70  780.18   1-0.63261 0.09487 0.72156-0.52934-0.28132 0.84308
  -7  -3   710053.89 1658.87   1-0.89883 0.34538 0.33079-0.52280-0.28752 0.77934
  -7   3   710063.32 1013.17   1-0.75791 0.20411 0.47648-0.28458-0.44555 0.93666
   7  -3  -710362.78  819.09   1 0.75205-0.19633 0.65907-0.85118-0.00502-0.48676
   7   3  -7 9612.37  897.95   1 0.68178-0.12596 0.60613-0.41412 0.40959-0.90146
  -7  -3   711821.34  852.59   1-0.65362 0.09830 0.74214-0.93413 0.14832 0.34312
  -7   3   7 9838.94  896.75   1-0.61264 0.05724 0.69918-0.50696-0.36852 0.86006
  -7  -3   6 5044.98 1134.65   1-0.85632 0.28486 0.38399-0.57589-0.34533 0.76628
  -7   3   6 5971.70  470.72   1-0.67002 0.09809 0.53738-0.34545-0.51214 0.93329
   7  -3  -6 5680.14 1012.14   1 0.74928-0.17579 0.65800-0.85010 0.07486-0.49640
   7   3  -6 5062.85  746.39   1 0.64701-0.07337 0.57705-0.38504 0.49837-0.91997
  -7  -3   6 5287.88  686.31   1-0.65823 0.08525 0.74748-0.93947 0.08939 0.33183
  -7   3   6 6165.06  823.62   1-0.58559 0.01243 0.66924-0.47711-0.45736 0.87875
  -7  -3   5 6486.10 1371.76   1-0.80853 0.21941 0.43314-0.62504-0.39832 0.74911
  -7   3   5 3607.43  675.87   1-0.57752-0.01204 0.58657-0.39465-0.56779 0.91875
   7  -3  -5 5862.14  923.51   1 0.74002-0.14835 0.65243-0.84443 0.16338-0.51469
   7   3  -5 4931.93  869.81   1 0.60380-0.01235 0.54051-0.34850 0.58589-0.93722
  -7  -3   5 6714.76  826.32   1-0.65989 0.06939 0.75092-0.94296 0.02542 0.32559
  -7   3   5 6411.43 1069.48   1-0.55108-0.03973 0.63025-0.43813-0.54688 0.89803
  -7  -3   428425.85 1455.26   1-0.75638 0.14960 0.47768-0.66958-0.44687 0.72750
  -7   3   426975.13 1309.17   1-0.48474-0.12339 0.62498-0.43280-0.61189 0.89300
   7  -3  -427712.19 1226.67   1 0.72268-0.11325 0.63888-0.83088 0.26374-0.54479
   7   3  -427305.95 1389.99   1 0.55208 0.05707 0.49668-0.30459 0.66970-0.95076
  -7  -3   425384.77 1119.18   1-0.65920 0.05101 0.75030-0.94233-0.04995 0.33076
  -7   3   429125.43 1440.99   1-0.50854-0.09993 0.58209-0.38996-0.63446 0.91539
  -7  -3   322466.11 1265.78   1-0.70147 0.07658 0.51751-0.70944-0.49001 0.70059
  -7   3   326278.06 1433.05   1-0.39495-0.23086 0.65323-0.46105-0.64598 0.85681
   7  -3  -324674.11 1277.04   1 0.69310-0.06591 0.61476-0.80677 0.37638-0.58717
   7   3  -325379.82 1389.80   1 0.49292 0.13402 0.44589-0.25380 0.74713-0.95792
  -7  -3   323376.32 1149.29   1-0.65338 0.02748 0.74385-0.93588-0.14063 0.35124
  -7   3   326562.35 1446.07   1-0.45807-0.16812 0.52513-0.33297-0.71722 0.92782
  -7   3   2 6565.63  686.93   1-0.31138-0.33211 0.67292-0.48074-0.67097 0.81152
   7  -3  -2 7310.94  476.16   1 0.64680-0.00192 0.57688-0.76888 0.49884-0.63937
   7   3  -2 8121.83  730.52   1 0.42747 0.21675 0.39014-0.19810 0.81550-0.95591
  -7  -3   2 7436.46  439.71   1-0.63807-0.00561 0.72766-0.91987-0.25172 0.39216
  -7   3   2 7574.09  708.95   1-0.40116-0.24265 0.46043-0.26828-0.79187 0.93227
  -7  -3   1 6292.90 1028.64   1-0.59014-0.07004 0.58058-0.77251-0.56093 0.63112
  -7   3   1 9168.35  998.91   1-0.23614-0.42520 0.68585-0.49361-0.68835 0.75864
   7  -3  -1 6295.24  951.93   1 0.58023 0.08229 0.52074-0.71283 0.62622-0.69649
   7   3  -1 8027.29  586.92   1 0.35913 0.30282 0.33084-0.13880 0.87267-0.94288
  -7  -3   0 1743.11  463.25   1-0.53774-0.14113 0.60441-0.79659-0.58780 0.58780
  -7   3   0 1287.50  482.51   1-0.17034-0.50863 0.69350-0.50125-0.70002 0.70002
   7  -3   0 1534.27  327.21   1 0.49325 0.18705 0.44617-0.63826 0.74674-0.74674
   7   3   0 1887.50  562.76   1 0.29040 0.38928 0.27100-0.07896 0.91772-0.91772
  -7  -3  -122881.44 1051.85   1-0.48880-0.20775 0.62351-0.81569-0.61015 0.53988
  -7   3  -123383.04 1147.04   1-0.11451-0.58209 0.69749-0.50524-0.70738 0.63709
  -7  -3  -122590.95  981.72   1-0.22300-0.47277-0.21391 0.02210-0.95105 0.88090
   7  -3   122880.62  823.30   1 0.39258 0.30483 0.35990-0.55194 0.84637-0.77616
  -7  -3  -2 2784.29  612.22   1-0.44502-0.26922 0.63845-0.83063-0.62796 0.48740
  -7   3  -2 2008.11  565.58   1-0.06856-0.64567 0.69909-0.50685-0.71173 0.57114
  -7  -3  -2 2047.42  438.93   1-0.16154-0.55178-0.16061-0.03119-0.97370 0.83340
   7  -3   2 2279.53  471.28   1 0.15498 0.55533-0.18275-0.00832 0.97086-0.83158
  -7  -3  -3 1172.39  471.78   1-0.40732-0.32461 0.64980-0.84198-0.64175 0.43092
  -7   3  -3  999.97  481.35   1-0.03265-0.69984 0.69996-0.50771-0.71343 0.50244
  -7  -3  -3  311.92  204.44   1-0.10678-0.62408-0.11305-0.07876-0.98783 0.77737
   7  -3   3  247.46  193.03   1 0.10339 0.62470-0.12389-0.06718 0.98689-0.77796
  -7  -3  -4 4415.34  609.41   1-0.37635-0.37327 0.65814-0.85032-0.65208 0.37097
  -7  -3  -4 4716.32  980.55   1-0.05924-0.68920-0.07305-0.11883-0.99556 0.71475
   7  -3   4 4785.89  955.68   1 0.05886 0.68700-0.07312-0.11795 0.99558-0.71701
  -7  -3  -5  884.03  417.72   1-0.35249-0.41481 0.66398-0.85616-0.65944 0.30806
  -7   3  -5  681.54  474.78   1 0.01388-0.78180 0.69890-0.50665-0.71507 0.36343
  -7  -3  -5  781.16  252.40   1-0.01989-0.74606-0.03877-0.15311-0.99904 0.64803
   7  -3   5  458.83  196.36   1 0.02318 0.74286-0.03250-0.15895 0.99920-0.65029
  -7  -3  -6 7794.19 1226.72   1-0.33593-0.44905 0.66775-0.85993-0.66426 0.24260
  -7   3  -6 6319.76 1100.56   1 0.02542-0.81104 0.69840-0.50615-0.71524 0.29327
  -7  -3  -6 3691.58 1206.27   1 0.01183-0.79529-0.01111-0.18077-0.99986 0.57864
   7  -3   6 5116.52 1261.27   1-0.00660 0.79051 0.00137-0.19283 0.99997-0.58129
  -7  -4  10 3559.22  649.76   1-0.98804 0.48828 0.13203-0.38793-0.07953 0.78172
   7  -4 -10 2010.35  461.19   1 0.72317-0.22091 0.62708-0.88348-0.28943-0.41309
  -7  -4  10 1594.03  435.73   1-0.60885 0.10747 0.68915-0.94508 0.39288 0.30863
  -7   4  10 2016.62  530.48   1-0.65150 0.14951 0.74174-0.48570-0.15920 0.86123
  -7  -4   9  950.76  264.21   1-0.97192 0.45425 0.18996-0.44598-0.13886 0.77120
   7   4  -9 1034.49  499.31   1 0.72137-0.20075 0.63783-0.38182 0.26980-0.90216
  -7  -4   9  814.76  300.64   1-0.61863 0.09956 0.70029-0.95622 0.35620 0.27517
  -7   4   9 -299.44  414.52   1-0.63995 0.11988 0.72975-0.47347-0.24063 0.87261
  -7  -4   820540.82 2279.70   1-0.94891 0.41336 0.24596-0.50198-0.19761 0.75969
  -7   4   819275.16 2355.42   1-0.82365 0.28751 0.41859-0.16272-0.38258 0.94385
   7  -4  -820819.70 1721.55   1 0.74199-0.20425 0.64543-0.90183-0.18127-0.38075
   7   4  -825064.55 4930.98   1 0.69952-0.16115 0.62006-0.36405 0.35522-0.91732
  -7  -4   822353.89 4358.33   1-0.62613 0.08847 0.71058-0.96656 0.32097 0.24067
  -7   4   823626.74 4676.87   1-0.62344 0.08571 0.71130-0.45501-0.32458 0.88634
  -7  -4   7 3627.84  858.87   1-0.91939 0.36594 0.29983-0.55585-0.25457 0.74639
  -7   4   7 5314.71  477.90   1-0.73672 0.18245 0.49294-0.23704-0.46286 0.95421
   7  -4  -7 5234.73  515.21   1 0.74841-0.19293 0.65208-0.90848-0.12106-0.37071
   7   4  -7 3906.26  972.17   1 0.67030-0.11447 0.59656-0.34055 0.44136-0.93322
  -7  -4   7 3707.62  785.70   1-0.63371 0.07839 0.71926-0.97525 0.28470 0.20673
  -7   4   7 2051.99  638.86   1-0.60091 0.04551 0.68598-0.42969-0.41028 0.90182
  -7  -4   6 3425.80  720.84   1-0.88357 0.31211 0.35097-0.60684-0.31002 0.73097
  -7   4   6 2588.15  540.61   1-0.64127 0.06934 0.55405-0.29815-0.53084 0.95199
   7  -4  -6 2391.51  509.62   1 0.75131-0.17782 0.65755-0.91369-0.05610-0.36543
   7   4  -6 2055.12  590.71   1 0.63381-0.06017 0.56593-0.30992 0.52725-0.94885
  -7  -4   6 3097.43  564.28   1-0.64023 0.06726 0.72674-0.98273 0.24886 0.17237
  -7   4   6 3343.06  831.87   1-0.57157-0.00158 0.65341-0.39725-0.49632 0.91770
  -7  -4   523282.28 1855.06   1-0.84288 0.25376 0.39880-0.65467-0.36125 0.71204
  -7   4   521261.09  953.20   1-0.54238-0.04806 0.60246-0.34622-0.58553 0.93691
   7  -4  -518248.67  751.55   1 0.75175-0.16048 0.65920-0.91534 0.01803-0.36931
   7   4  -518188.49  941.85   1 0.58959 0.00185 0.52843-0.27242 0.61084-0.96217
  -7  -4   519844.72  729.39   1-0.64570 0.05507 0.73303-0.98901 0.21384 0.13718
  -7   4   517567.58  944.46   1-0.53538-0.05543 0.61249-0.35632-0.58156 0.93271
  -7  -4   4 3674.74  781.64   1-0.79801 0.19123 0.44278-0.69865-0.40879 0.68942
  -7   4   4 3546.17  715.92   1-0.44430-0.16382 0.63867-0.38244-0.62823 0.90934
   7  -4  -4 3135.84  526.74   1 0.74711-0.13809 0.65657-0.91272 0.10351-0.38454
   7   4  -4 4181.88  947.11   1 0.53786 0.07129 0.48450-0.22838 0.68989-0.97095
  -7   4   4 2572.29  711.05   1-0.49193-0.11664 0.56358-0.30738-0.66360 0.94441
  -7   4   350093.36 5574.64   1-0.35117-0.27464 0.66429-0.40805-0.65983 0.87066
   7  -4  -347829.62 1923.36   1 0.73407-0.10688 0.64788-0.90389 0.20340-0.41419
   7   4  -350841.61 5648.88   1 0.47989 0.14705 0.43466-0.17854 0.76208-0.97288
  -7   4   348773.60 2204.87   1-0.44223-0.18396 0.50713-0.25092-0.73976 0.95036
  -7  -4   217159.99  921.72   1-0.70095 0.05841 0.51785-0.77376-0.49039 0.63077
  -7   4   217074.68 1015.15   1-0.26588-0.37783 0.68132-0.42499-0.68198 0.82256
   7   4  -218776.80 1075.59   1 0.41679 0.22743 0.38089-0.12483 0.82534-0.96575
  -7   4   217485.63 1068.34   1-0.38734-0.25647 0.44470-0.18850-0.80758 0.94798
  -7  -4   1 6311.97 1100.49   1-0.65164-0.00854 0.54819-0.80409-0.52425 0.59444
  -7   4   1 3741.17  730.65   1-0.19012-0.47122 0.69154-0.43521-0.69686 0.76715
   7   4  -1 4601.59  797.58   1 0.35182 0.31013 0.32449-0.06844 0.87802-0.94822
  -7  -4   054354.23 1917.05   1-0.60386-0.07398 0.57383-0.82973-0.55323 0.55323
  -7   4   054785.48 2076.12   1-0.12477-0.55420 0.69692-0.44059-0.70620 0.70620
   7   4   055594.42 1962.33   1 0.28707 0.39261 0.26809-0.01204 0.91962-0.91962
  -7  -4  -1 2283.62  512.47   1-0.55901-0.13648 0.59500-0.85090-0.57747 0.50728
  -7   4  -1 2375.57  623.66   1-0.06997-0.62663 0.69907-0.44274-0.71162 0.64132
  -7  -4  -1 3478.22  679.75   1-0.22371-0.47206-0.21453-0.04121-0.95075 0.88059
  -7  -4  -2 7493.47  669.07   1-0.51907-0.19517 0.61202-0.86826-0.59665 0.45610
  -7   4  -2 5252.84  631.72   1-0.02574-0.68904 0.69990-0.44356-0.71377 0.57311
  -7  -4  -2 6877.20  518.88   1-0.16607-0.54725-0.16454-0.09119-0.97228 0.83198
   7  -4   2 6496.80  544.51   1 0.15768 0.55264-0.18583-0.06893 0.96984-0.83056
  -7  -4  -3 2246.61  575.94   1-0.48373-0.24820 0.62534-0.88158-0.61232 0.40149
  -7   4  -3 4031.31  677.24   1 0.00909-0.74159 0.69908-0.44274-0.71498 0.50399
  -7  -4  -3 4012.81  906.53   1-0.11458-0.61629-0.11982-0.13591-0.98615 0.77569
   7  -4   3 3523.32  748.16   1 0.10993 0.61816-0.13134-0.12342 0.98522-0.77629
  -7  -4  -4 2462.26  610.60   1-0.45439-0.29522 0.63541-0.89165-0.62431 0.34320
  -7   4  -4 2749.12  580.64   1 0.03506-0.78526 0.69792-0.44158-0.71531 0.43400
  -7  -4  -4 4024.14 1026.54   1-0.06957-0.67887-0.08204-0.17380-0.99419 0.71338
   7  -4   4 3129.23  916.35   1 0.06847 0.67739-0.08407-0.17069 0.99410-0.71553
  -7  -4  -5 7412.80  698.60   1-0.43161-0.33569 0.64264-0.89888-0.63302 0.28164
  -7   4  -5 5164.55  662.98   1 0.05289-0.82080 0.69684-0.44051-0.71526 0.36362
  -7  -4  -5 4039.54  909.22   1-0.03214-0.73381-0.04945-0.20639-0.99825 0.64723
   7  -4   5 5532.26  924.38   1 0.03500 0.73104-0.04595-0.20933 0.99833-0.64942
  -7  -5  10 1497.32  533.24   1-0.99255 0.49278 0.10860-0.42847-0.05515 0.75734
   7  -5 -10 1911.79  443.45   1 0.70102-0.19859 0.60435-0.92488-0.37857-0.32427
   7   5 -10 2002.43  697.91   1 0.73223-0.22938 0.64644-0.32644 0.21433-0.91696
  -7   5  10  779.95  440.53   1-0.64675 0.14433 0.73729-0.41693-0.19520 0.89740
  -7  -5   9 6926.46 1118.27   1-0.98031 0.46259 0.16282-0.48269-0.11168 0.74364
   7   5  -9 5536.86  657.06   1 0.71501-0.19440 0.63270-0.31270 0.29737-0.92974
  -7   5   9 7665.93  853.65   1-0.63355 0.11347 0.72261-0.40225-0.27649 0.90847
  -7  -5   8 8891.45 1388.84   1-0.96208 0.42652 0.21618-0.53620-0.16631 0.72839
   7  -5  -8 9029.26  918.39   1 0.72174-0.18400 0.62571-0.94621-0.29591-0.26611
   7   5  -8 8648.80 1042.29   1 0.69147-0.15309 0.61342-0.29341 0.38154-0.94364
  -7   5   8 7272.43  959.78   1-0.61502 0.07728 0.70185-0.38149-0.35937 0.92113
  -7  -5   712447.33 1568.62   1-0.93808 0.38463 0.26739-0.58741-0.22021 0.71203
  -7   5   712880.83  914.86   1-0.71831 0.16405 0.50609-0.18622-0.47737 0.96871
   7  -5  -711954.08  823.79   1 0.73076-0.17529 0.63438-0.95488-0.25205-0.23972
   7   5  -714656.29 1139.62   1 0.66081-0.10499 0.58864-0.26862 0.46563-0.95750
  -7   5   713011.19 1175.18   1-0.59047 0.03496 0.67474-0.35453-0.44277 0.93438
  -7  -5   6 5227.59 1026.03   1-0.90878 0.33744 0.31633-0.63635-0.27211 0.69367
  -7   5   6 5403.17  448.89   1-0.61530 0.04338 0.56800-0.24812-0.54660 0.96775
   7   5  -6 2970.85  793.39   1 0.62340-0.04976 0.55713-0.23712 0.54860-0.97020
  -7   5   6 5720.22  707.53   1-0.55990-0.01325 0.64023-0.32002-0.52593 0.94731
  -7  -5   5 3826.84  802.15   1-0.87450 0.28538 0.36245-0.68229-0.32228 0.67307
  -7   5   5 3359.59  668.66   1-0.51025-0.08018 0.61547-0.29517-0.60069 0.95207
   7   5  -5 2300.36  574.33   1 0.57897 0.01247 0.51938-0.19937 0.62851-0.97984
  -7   5   5 4060.75  956.46   1-0.52295-0.06786 0.59842-0.27820-0.60696 0.95811
  -7   5   423994.90 1091.50   1-0.40778-0.20035 0.64967-0.32937-0.64159 0.92269
   7   5  -425766.76 1217.59   1 0.52792 0.08123 0.47598-0.15583 0.70337-0.98443
  -7   5   426422.61 1319.41   1-0.47966-0.12890 0.54966-0.22940-0.68395 0.96475
  -7  -5   322280.36 2454.44   1-0.79587 0.17143 0.44470-0.76454-0.41088 0.62135
  -7   5   320672.22 1061.16   1-0.31203-0.31378 0.67279-0.35249-0.67080 0.88163
   7   5  -320714.52 1053.32   1 0.47163 0.15531 0.42754-0.10739 0.77121-0.98201
  -7   5   321235.21 1038.02   1-0.43122-0.19497 0.49461-0.17436-0.75458 0.96518
  -7  -5   2 3454.93  559.02   1-0.75336 0.11127 0.48003-0.79987-0.44945 0.58976
  -7   5   2 3186.36  667.64   1-0.22564-0.41807 0.68729-0.36688-0.69044 0.83102
   7   5  -2 2753.74  627.14   1 0.41112 0.23310 0.37597-0.05590 0.83043-0.97084
  -7   5   2 2035.74  413.35   1-0.37871-0.26511 0.43488-0.11463-0.81697 0.95737
  -7  -5   117587.69  874.45   1-0.71051 0.05032 0.51145-0.83133-0.48329 0.55349
  -7   5   117936.13 1048.42   1-0.14992-0.51142 0.69522-0.37481-0.70298 0.77327
   7   5  -117231.45  990.47   1 0.34947 0.31248 0.32244-0.00238 0.87971-0.94991
  -7  -5   017788.78 1256.31   1-0.66843-0.00940 0.53833-0.85821-0.51320 0.51320
  -7   5   017076.91 1282.47   1-0.08538-0.59359 0.69868-0.37827-0.71031 0.71031
   7   5   019872.38 1438.21   1 0.28840 0.39128 0.26926 0.05080 0.91886-0.91886
  -7  -5  -121123.30 1103.79   1-0.62851-0.06698 0.56103-0.88090-0.53871 0.46852
  -7   5  -126703.90 1509.37   1-0.03200-0.66507 0.69995-0.37953-0.71346 0.64313
  -7  -5  -124794.11 1276.61   1-0.22867-0.46709-0.21883-0.10085-0.94858 0.87843
  -7  -5  -2 2763.83  654.85   1-0.59193-0.12122 0.57972-0.89959-0.55994 0.41955
  -7   5  -2 3036.84  839.09   1 0.01100-0.72578 0.69901-0.37859-0.71502 0.57436
  -7  -5  -2 3073.78  722.54   1-0.17440-0.53892-0.17178-0.14790-0.96957 0.82926
   7  -5   2 2894.96  664.75   1 0.16398 0.54634-0.19301-0.12544 0.96739-0.82811
  -7  -5  -3  626.06  387.63   1-0.55975-0.17105 0.59467-0.91454-0.57709 0.36652
  -7   5  -3 1033.11  526.14   1 0.04438-0.77688 0.69738-0.37696-0.71531 0.50433
  -7  -5  -3  623.94  274.24   1-0.12576-0.60510-0.12954-0.19013-0.98356 0.77310
   7  -5   3  191.54  280.91   1 0.11949 0.60860-0.14226-0.17620 0.98258-0.77366
  -7  -5  -4 1118.44  378.98   1-0.53376-0.21585 0.60607-0.92637-0.58972 0.30861
  -7   5  -4  470.32  502.55   1 0.06898-0.81918 0.69568-0.37526-0.71502 0.43370
  -7  -5  -4  419.19  221.90   1-0.08346-0.66496-0.09276-0.22692-0.99218 0.71157
   7  -5   4 1176.56  342.36   1 0.08065 0.66521-0.09796-0.22050 0.99191-0.71335
  -7  -5  -5 1067.58  390.27   1-0.51292-0.25438 0.61443-0.93473-0.59948 0.24809
  -7   5  -5  320.26  495.26   1 0.08560-0.85351 0.69429-0.37387-0.71457 0.36293
  -7  -5  -5 1813.58  661.36   1-0.04718-0.71876-0.06255-0.25725-0.99692 0.64590
   7  -5   5 1464.87  459.65   1 0.04908 0.71695-0.06197-0.25712 0.99686-0.64796
  -7  -6   9 2183.95 1243.60   1-0.98743 0.46971 0.13481-0.51865-0.08242 0.71439
   7   6  -9 2164.96  738.38   1 0.70964-0.18903 0.62834-0.24433 0.31872-0.95108
  -7   6   9 1145.62  486.20   1-0.62771 0.10764 0.71608-0.33165-0.30525 0.93723
  -7  -6   8 5841.62 1390.97   1-0.97356 0.43801 0.18510-0.56913-0.13378 0.69586
  -7   6   8 6623.03  794.94   1-0.60773 0.06999 0.69365-0.30922-0.38664 0.94840
  -7  -6   7 4921.20  814.30   1-0.95464 0.40119 0.23361-0.61764-0.18461 0.67643
  -7   6   7 3834.46  437.58   1-0.70343 0.14916 0.51621-0.13236-0.48856 0.97991
  -7   6   7 3820.76  668.95   1-0.58200 0.02649 0.66519-0.28093-0.46774 0.95935
  -7  -6   6 4317.51  534.26   1-0.93105 0.35970 0.28018-0.66421-0.23374 0.65530
  -7   6   6 4558.60  456.37   1-0.59299 0.02107 0.57920-0.19535-0.55935 0.98050
   7   6  -6 3799.07  898.24   1 0.61579-0.04215 0.55068-0.16667 0.56351-0.98511
  -7   6   6 6765.12  867.68   1-0.55071-0.02244 0.62984-0.24558-0.54773 0.96911
  -7  -6   5 4740.03  725.32   1-0.90329 0.31405 0.32442-0.70845-0.28073 0.63203
  -7   6   5 3634.47  799.39   1-0.48223-0.10821 0.62588-0.24152-0.61295 0.96434
   7   6  -5 3304.53  876.84   1 0.57159 0.01977 0.51337-0.12919 0.64009-0.99142
  -7   6   5 2962.40  823.45   1-0.51370-0.07711 0.58794-0.20369-0.62484 0.97599
  -7  -6   4   59.10  196.82   1-0.87177 0.26499 0.36581-0.74961-0.32587 0.60650
  -7   6   4  147.81  277.20   1-0.37594-0.23218 0.65824-0.27388-0.65220 0.93331
   7   6  -4  747.81  492.50   1 0.52186 0.08728 0.47078-0.08660 0.71135-0.99241
  -7   6   4  835.20  625.39   1-0.47118-0.13739 0.54002-0.15571-0.69739 0.97820
  -7  -6   312531.26 1733.79   1-0.83779 0.21335 0.40419-0.78799-0.36705 0.57752
  -7   6   311547.79  954.67   1-0.27822-0.34786 0.67924-0.29475-0.67913 0.89000
   7   6  -310115.70  919.61   1 0.46756 0.15938 0.42403-0.03985 0.77561-0.98641
  -7   6   312082.30 1038.91   1-0.42440-0.20179 0.48686-0.10255-0.76344 0.97404
  -7  -6   2 8799.57 1246.74   1-0.80203 0.15994 0.43913-0.82293-0.40483 0.54514
  -7   6   2 6281.52  609.97   1-0.19120-0.45251 0.69142-0.30693-0.69668 0.83726
   7   6  -2 8650.78  847.29   1 0.40973 0.23449 0.37477 0.00931 0.83166-0.97207
  -7   6   2 8816.05 1030.11   1-0.37441-0.26941 0.42998-0.04568-0.82153 0.96194
  -7  -6   1 3196.08  695.42   1-0.76556 0.10581 0.47040-0.85420-0.43889 0.50905
  -7   6   1 3307.60  778.51   1-0.11588-0.54546 0.69741-0.31292-0.70723 0.77752
   7   6  -1 2739.93  662.75   1 0.35128 0.31067 0.32402 0.06005 0.87841-0.94861
  -7  -6   0 5949.37  508.24   1-0.72965 0.05181 0.49807-0.88193-0.46852 0.46852
  -7   6   0 6673.08  689.28   1-0.05235-0.62662 0.69930-0.31481-0.71290 0.71290
   7   6   0 7221.31  650.17   1 0.29363 0.38605 0.27381 0.11026 0.91586-0.91586
  -7  -6  -1 2273.11  602.99   1-0.69519-0.00030 0.52162-0.90547-0.49458 0.42438
  -7  -6  -1  703.78  240.40   1-0.23720-0.45857-0.22621-0.15741-0.94475 0.87460
  -7  -6  -2  852.47  295.48   1-0.66338-0.04976 0.54135-0.92520-0.51657 0.37619
  -7   6  -2 1501.99  546.52   1 0.04135-0.75614 0.69756-0.31306-0.71532 0.57466
  -7  -6  -2 1742.30  440.58   1-0.18593-0.52739-0.18177-0.20184-0.96560 0.82529
   7  -6   2  772.65  273.00   1 0.17317 0.53714-0.20351-0.17864 0.96363-0.82435
  -7  -6  -3 5707.24  643.28   1-0.63526-0.09554 0.55736-0.94121-0.53457 0.32400
  -7   6  -3 6389.52  988.01   1 0.07337-0.80586 0.69534-0.31083-0.71492 0.50393
  -7  -6  -3 5765.66 1271.61   1-0.13982-0.59105-0.14175-0.24186-0.97997 0.76951
   7  -6   3 5988.23  695.57   1 0.13153 0.59656-0.15598-0.22616 0.97896-0.77003
  -7  -6  -4  635.19  319.20   1-0.61173-0.13672 0.56983-0.95368-0.54869 0.26792
  -7   6  -4 1656.98  772.74   1 0.09673-0.84694 0.69325-0.30875-0.71416 0.43285
  -7  -6  -4  -48.98  249.24   1-0.09950-0.64891-0.10672-0.27690-0.98929 0.70868
   7  -6   4  350.38  230.70   1 0.09496 0.65090-0.11428-0.26787 0.98889-0.71033
  -7  -7   8  369.52  192.18   1-0.98310 0.44743 0.15263-0.60044-0.10102 0.66277
   7   7  -8  679.17  472.66   1 0.67979-0.14178 0.60447-0.15645 0.41532-0.97745
  -7   7   8  947.04  480.03   1-0.60180 0.06406 0.68699-0.23848-0.40727 0.96902
  -7  -7   7 3896.30  569.31   1-0.96884 0.41539 0.19862-0.64666-0.14792 0.63974
   7   7  -7 3068.99  630.37   1 0.64836-0.09253 0.57819-0.13017 0.49529-0.98716
  -7   7   7 2408.75  712.89   1-0.57544 0.01993 0.65778-0.20948-0.48599 0.97760
  -7  -7   6 3625.86  618.36   1-0.95046 0.37912 0.24270-0.69074-0.19418 0.61574
  -7   7   6 3535.97  440.16   1-0.57522 0.00330 0.58765-0.13982-0.56901 0.99017
   7   7  -6 3472.23  591.59   1 0.61087-0.03723 0.54652-0.09850 0.57283-0.99443
  -7   7   6 5251.75  919.41   1-0.54398-0.02917 0.62223-0.17393-0.56294 0.98432
  -7  -7   5 1278.30  354.05   1-0.92843 0.33919 0.28475-0.73278-0.23858 0.58988
  -7   7   5  923.92  298.39   1-0.45909-0.13135 0.63386-0.18544-0.62245 0.97383
   7   7  -5 1010.76  457.95   1 0.56751 0.02385 0.50988-0.06167 0.64648-0.99781
  -7   7   5  522.63  456.45   1-0.50743-0.08338 0.58083-0.13253-0.63651 0.98766
  -7  -7   4 6879.57 1053.99   1-0.90329 0.29616 0.32442-0.77245-0.28073 0.56177
  -7   7   4 6666.33  664.13   1-0.34947-0.25865 0.66469-0.21627-0.66034 0.94144
  -7   7   4 5715.61  685.62   1-0.46607-0.14250 0.53421-0.08586-0.70525 0.98606
  -7  -7   3  553.80  215.42   1-0.87547 0.25103 0.36125-0.80902-0.32099 0.53147
  -7   7   3 1588.92  513.37   1-0.25019-0.37589 0.68380-0.23523-0.68543 0.89630
  -7   7   3 1197.43  475.05   1-0.42118-0.20501 0.48320-0.03484-0.76753 0.97813
  -7  -7   2 3426.33  847.43   1-0.84621 0.20411 0.39521-0.84298-0.35739 0.49770
  -7   7   2 2867.73  694.83   1-0.16290-0.48081 0.69416-0.24559-0.70114 0.84172
   7   7  -2 4260.90  733.93   1 0.41202 0.23220 0.37675 0.07134 0.82963-0.97004
  -7   7   2 2825.36  730.12   1-0.37373-0.27008 0.42922 0.01913-0.82224 0.96264
  -7  -7   110974.89 1188.92   1-0.81614 0.15639 0.42592-0.87368-0.39050 0.46066
  -7   7   112184.91 1006.62   1-0.08817-0.57317 0.69859-0.25002-0.71006 0.78035
   7   7  -111057.79  940.96   1 0.35662 0.30533 0.32867 0.11942 0.87452-0.94472
  -7  -7   0 4340.35  662.48   1-0.78623 0.10882 0.45316-0.90093-0.42008 0.42008
  -7   7   0 4769.69  668.31   1-0.02564-0.65372 0.69990-0.25131-0.71378 0.71378
   7   7   0 4502.02  699.36   1 0.30214 0.37754 0.28123 0.16685 0.91083-0.91083
  -7  -7  -1 3185.23  731.29   1-0.75747 0.06240 0.47683-0.92460-0.44594 0.37578
  -7   7  -1 5054.17  703.01   1 0.02518-0.72226 0.69841-0.24983-0.71524 0.64491
  -7  -7  -2 7181.16  785.34   1-0.73111 0.01795 0.49703-0.94485-0.46736 0.32698
  -7   7  -2 6688.11  911.10   1 0.06549-0.78027 0.69595-0.24736-0.71509 0.57443
  -7  -7  -2 8635.88  936.62   1-0.20017-0.51315-0.19413-0.25342-0.96033 0.82002
   7  -7   2 9523.77  993.91   1 0.18474 0.52557-0.21672-0.22912 0.95859-0.81931
  -7  -7  -3 1560.14  425.72   1-0.70766-0.02314 0.51338-0.96120-0.48543 0.27485
  -7   7  -3 1877.85  650.40   1 0.09630-0.82879 0.69330-0.24471-0.71418 0.50319
  -7  -7  -3 1317.13  458.21   1-0.15634-0.57453-0.15610-0.29145-0.97528 0.76482
   7  -7   3 2268.18  505.37   1 0.14561 0.58248-0.17205-0.27379 0.97426-0.76534
  -7  -7  -4 3977.46  675.57   1-0.68824-0.06021 0.52609-0.97391-0.49954 0.21877
  -7   7  -4 4635.80 1010.17   1 0.11859-0.86880 0.69096-0.24237-0.71309 0.43178
  -7  -7  -4 5323.32 1232.64   1-0.11782-0.63060-0.12264-0.32491-0.98543 0.70481
   7  -7   4 4692.86  806.03   1 0.11106 0.63479-0.13264-0.31319 0.98492-0.70635
  -7  -8   7 1490.49  518.45   1-0.98043 0.42680 0.16239-0.67418-0.11122 0.60275
   7   8  -7 2596.52  744.20   1 0.64537-0.08955 0.57567-0.06365 0.50207-0.99394
  -7   8   7 1294.95  679.94   1-0.57079 0.01528 0.65253-0.14019-0.49839 0.99000
  -7  -8   6 2934.75  672.76   1-0.96683 0.39549 0.20404-0.71608-0.15359 0.57515
   7   8  -6 2311.59  734.86   1 0.60850-0.03486 0.54450-0.03248 0.57726-0.99886
  -7   8   6 4203.82  742.53   1-0.53961-0.03355 0.61727-0.10493-0.57253 0.99391
  -7  -8   5  510.04  257.14   1-0.94999 0.36075 0.24370-0.75574-0.19523 0.54653
  -7   8   5 1298.45  433.73   1-0.44157-0.14886 0.63954-0.12706-0.62927 0.98065
   7   8  -5 1053.39  613.54   1 0.56630 0.02506 0.50885 0.00338 0.64835-0.99968
  -7   8   5  818.43  674.91   1-0.50387-0.08694 0.57679-0.06446-0.64297 0.99412
  -7  -8   4  469.49  276.42   1-0.93044 0.32332 0.28124-0.79328-0.23486 0.51590
  -7   8   4  368.47  260.07   1-0.32892-0.27921 0.66928-0.15680-0.66623 0.94733
   7   8  -4   32.54  392.12   1 0.51982 0.08933 0.46902 0.04321 0.71400-0.99506
  -7   8   4  949.98  662.85   1-0.46393-0.14463 0.53179-0.01938-0.70849 0.98929
  -7  -8   3  524.73  179.66   1-0.90875 0.28373 0.31637-0.82841-0.27215 0.48293
  -7   8   3 1279.47  358.94   1-0.22834-0.39775 0.68693-0.17428-0.68991 0.90078
   7   8  -3 1450.26  487.21   1 0.46995 0.15699 0.42609 0.08614 0.77303-0.98383
  -7   8   3 1404.66  681.68   1-0.42106-0.20513 0.48306 0.02934-0.76769 0.97829
  -7  -8   2 3096.00  757.87   1-0.88536 0.24327 0.34864-0.86037-0.30753 0.44785
  -7   8   2 3591.63  575.11   1-0.14094-0.50277 0.69588-0.18322-0.70418 0.84477
   7   8  -2 5098.59  772.63   1 0.41747 0.22676 0.38147 0.13063 0.82473-0.96514
  -7   8   2 1069.80  497.27   1-0.37612-0.26770 0.43193 0.08046-0.81973 0.96013
  -7  -8   1 5527.83  967.25   1-0.86142 0.20167 0.37813-0.88987-0.33905 0.40921
  -7   8   1 3902.66  612.93   1-0.06682-0.59452 0.69912-0.18647-0.71186 0.78215
   7   8  -1 3156.18  762.37   1 0.36498 0.29697 0.33593 0.17617 0.86828-0.93849
  -7  -8   0 4325.30  780.75   1-0.83753 0.16012 0.40446-0.91619-0.36734 0.36734
  -7   8   0 4848.40  743.13   1-0.00524-0.67412 0.69952-0.18685-0.71459 0.71459
  -7  -8  -1  625.86  268.63   1-0.81456 0.11949 0.42743-0.93917-0.39214 0.32198
  -7   8  -1  226.09  437.39   1 0.04445-0.74153 0.69738-0.18471-0.71531 0.64498
   7   8   1 1887.73  660.20   1 0.26422 0.43319 0.24815 0.26395 0.93198-0.86178
  -7  -8  -2 1617.63  492.89   1-0.79340 0.08067 0.44690-0.95863-0.41326 0.27295
  -7   8  -2 1974.41  640.85   1 0.08364-0.79843 0.69447-0.18180-0.71463 0.57398
  -7  -8  -2  874.86  388.69   1-0.21675-0.49657-0.20850-0.30299-0.95370 0.81339
   7  -8   2 3249.93  636.02   1 0.19829 0.51202-0.23218-0.27734 0.95224-0.81295
  -7  -8  -3 4636.64 1162.73   1-0.77493 0.04455 0.46273-0.97447-0.43051 0.22004
  -7   8  -3 6761.70 1184.42   1 0.11343-0.84593 0.69153-0.17886-0.71338 0.50239
  -7  -8  -3 5496.62  886.54   1-0.17500-0.55587-0.17230-0.33919-0.96937 0.75891
   7  -8   3 7249.36 1154.67   1 0.16141 0.56668-0.19008-0.31945 0.96840-0.75948
  -7  -9   6 6863.24 1363.11   1-0.97990 0.40831 0.16424-0.74000-0.11316 0.53447
   7   9  -610957.33 1746.62   1 0.60848-0.03485 0.54449 0.03153 0.57729-0.99889
  -7   9   610777.79 1875.84   1-0.53741-0.03574 0.61479-0.03841-0.57724 0.99862
  -7  -9   5  924.25  385.10   1-0.96780 0.37857 0.20145-0.77749-0.15088 0.50217
   7   9  -5 1011.11  480.10   1 0.56769 0.02366 0.51004 0.06622 0.64619-0.99752
  -7  -9   4 1688.60  506.14   1-0.95329 0.34616 0.23660-0.81264-0.18776 0.46880
  -7   9   4  232.80  249.48   1-0.31475-0.29338 0.67224-0.09570-0.67008 0.95119
   7   9  -4  939.63  491.92   1 0.52310 0.08605 0.47183 0.10442 0.70974-0.99080
  -7   9   4 1914.99  751.17   1-0.46441-0.14415 0.53233 0.04412-0.70776 0.98857
  -7  -9   3   -3.14  195.40   1-0.93693 0.31191 0.26953-0.84557-0.22247 0.43325
  -7   9   3  701.90  271.87   1-0.21293-0.41315 0.68892-0.11218-0.69285 0.90372
   7   9  -3   49.77  455.35   1 0.47553 0.15140 0.43090 0.14535 0.76692-0.97772
  -7   9   3 2340.98  752.90   1-0.42360-0.20259 0.48595 0.09050-0.76446 0.97507
  -7  -9   2  987.24  286.39   1-0.91931 0.27640 0.29996-0.87600-0.25471 0.39523
  -7   9   2  957.83  349.53   1-0.12541-0.51830 0.69688-0.12015-0.70612 0.84671
   7   9  -2 1752.98  559.93   1 0.42565 0.21857 0.38856 0.18756 0.81721-0.95762
  -7   9   2  999.50  597.87   1-0.38109-0.26273 0.43759 0.13886-0.81442 0.95482
  -7  -9   1 5724.53 1185.75   1-0.90104 0.24024 0.32765-0.90369-0.28417 0.35443
  -7   9   1 5755.41  645.90   1-0.05181-0.60953 0.69931-0.12257-0.71293 0.78322
   7   9  -1 4811.98  652.18   1 0.37594 0.28601 0.34545 0.23066 0.85984-0.93004
  -7  -9   0 1360.35  398.70   1-0.88263 0.20523 0.35218-0.92788-0.31131 0.31131
  -7   9   0  520.62  366.48   1 0.00898-0.68835 0.69908-0.12233-0.71497 0.71497
   7   9   0 1860.81  592.63   1 0.32715 0.35253 0.30303 0.27309 0.89506-0.89506
  -7  -9  -1  723.50  268.93   1-0.86524 0.17017 0.37366-0.94936-0.33426 0.26410
   7   9   1 2406.60  590.48   1 0.28051 0.41690 0.26237 0.31374 0.92329-0.85308
  -7 -10   3 1030.57  369.95   1-0.96004 0.33502 0.22112-0.86117-0.17150 0.38228
   7  10  -3 3338.96  743.60   1 0.48356 0.14338 0.43782 0.20247 0.75793-0.96873
  -7  10   3 1211.35  740.02   1-0.42843-0.19776 0.49143 0.14906-0.75824 0.96884
  -7 -10   2 1376.38  391.36   1-0.94738 0.30446 0.24915-0.88920-0.20097 0.34149
  -7  10   2 1173.66  398.42   1-0.11636-0.52735 0.69739-0.05657-0.70717 0.84776
   7  10  -2 3093.34  738.52   1 0.43680 0.20793 0.39745 0.24284 0.80698-0.94751
  -7 -10   1 2694.76  587.68   1-0.93421 0.27341 0.27452-0.91456-0.22775 0.29801
  -8   0  10 3023.92  737.80   1-0.94773 0.35100 0.24843-0.24843-0.20021 0.90281
  -8   0  10 5357.54  909.20   1-0.65949 0.06049 0.75043-0.75043 0.04386 0.65817
  -8   0   9  103.32  170.48   1-0.91020 0.29558 0.31418-0.31418-0.26983 0.90217
   8   0  -9  170.44  352.15   1 0.74642-0.12907 0.65610-0.65610 0.11124-0.74355
  -8   0   9  347.43  399.60   1-0.65980 0.04311 0.75094-0.75094-0.02712 0.65895
  -8   0   8 1783.08  619.47   1-0.86359 0.23067 0.37560-0.37560-0.33634 0.89761
   8   0  -8 1508.86  553.52   1 0.73593-0.10035 0.64932-0.64932 0.19176-0.75386
  -8   0   8  752.36  326.55   1-0.65650 0.02210 0.74733-0.74733-0.10245 0.66408
  -8   0   712689.17 1401.03   1-0.81012 0.15954 0.43164-0.43164-0.39670 0.88781
   8   0  -716481.62 1218.49   1 0.71990-0.06654 0.63665-0.63665 0.27643-0.76827
  -8   0   713101.77  945.27   1-0.64845-0.00393 0.73918-0.73918-0.18195 0.67349
  -8   0   6 1106.36  347.19   1-0.75106 0.08282 0.48181-0.48181-0.45139 0.87235
   8   0  -6  770.68  489.78   1 0.69682-0.02570 0.61783-0.61783 0.36431-0.78588
  -8   0   6 1767.35  630.15   1-0.63534-0.03471 0.72461-0.72461-0.26695 0.68827
  -8   0   5 4270.33  901.78   1-0.68831 0.00190 0.52604-0.52604-0.49949 0.85045
   8   0  -5 4766.79  522.90   1 0.66549 0.02316 0.59255-0.59255 0.45386-0.80519
  -8   0   5 6275.26  567.49   1-0.61566-0.07205 0.70257-0.70257-0.35685 0.70795
  -8   0   4 1637.24  501.76   1-0.62394-0.08012 0.56347-0.56347-0.54147 0.82224
   8   0  -4 1846.43  528.48   1 0.62563 0.08084 0.55901-0.55901 0.54413-0.82520
  -8   0   4 1903.28  471.61   1-0.58798-0.11750 0.67193-0.67193-0.45030 0.73122
  -8   0   3  356.26  312.58   1-0.55993-0.16178 0.59459-0.59459-0.57700 0.78758
   8   0  -3  935.73  347.79   1 0.57670 0.14742 0.51773-0.51773 0.63194-0.84274
  -8   0   3  873.59  421.99   1-0.55139-0.17174 0.63060-0.63060-0.54616 0.75686
  -8   0   2 3104.35  645.73   1-0.49859-0.24189 0.61991-0.61991-0.60590 0.74645
   8   0  -2 4837.38  545.83   1 0.51957 0.22234 0.46881-0.46881 0.71432-0.85485
  -8   0   2 4434.50  958.81   1-0.50517-0.23561 0.57828-0.57828-0.64061 0.78107
  -8   0   1 4255.73 1005.84   1-0.44070-0.31747 0.63982-0.63982-0.62961 0.69988
   8   0  -1 2909.68  592.42   1 0.45597 0.30374 0.41402-0.41402 0.78782-0.85809
  -8   0   1 3221.89  609.22   1-0.44995-0.30851 0.51590-0.51590-0.72896 0.79916
  -8   0   042224.09 7880.76   1-0.38792-0.38792 0.65512-0.65512-0.64832 0.64832
   8   0   043403.98 8058.38   1 0.38839 0.38839 0.35626-0.35626 0.84983-0.84983
  -8   0   039338.31 1718.73   1-0.38804-0.38804 0.44550-0.44550-0.80681 0.80681
  -8   0  -1 1078.05  548.08   1-0.34119-0.45235 0.66658-0.66658-0.66276 0.59248
   8   0   1 1122.97  419.37   1 0.32091 0.47360 0.29759-0.29759 0.89914-0.82893
  -8   0  -2 1231.75  526.12   1-0.30108-0.51015 0.67506-0.67506-0.67352 0.53294
  -8   0  -3 3480.04  612.11   1-0.26786-0.56099 0.68099-0.68099-0.68153 0.47065
  -8   0  -3 3846.03  515.37   1-0.19607-0.63168-0.19057 0.19057-0.96189 0.75143
  -8   0  -4 5222.44  858.75   1-0.24168-0.60481 0.68506-0.68506-0.68722 0.40605
  -8   0  -4 5960.01  875.80   1-0.14432-0.70098-0.14567 0.14567-0.97874 0.69813
  -8   1   9 1500.96  503.73   1-0.89819 0.28357 0.33169-0.26769-0.28849 0.92083
  -8  -1   9 2957.33  665.23   1-0.92267 0.30805 0.29448-0.35849-0.24890 0.88124
   8  -1  -9 1283.11  405.77   1 0.75085-0.13350 0.65888-0.72292 0.04560-0.67790
   8   1  -9 2157.26  674.20   1 0.73950-0.12167 0.65204-0.58803 0.16726-0.79962
  -8  -1   9  884.98  317.15   1-0.65921 0.04252 0.75010-0.81411 0.05268 0.57914
  -8   1   8 5865.21 1050.64   1-0.84586 0.21294 0.39559-0.33162-0.35779 0.91906
  -8  -1   8 4525.34  967.82   1-0.88160 0.24869 0.35350-0.41747-0.31272 0.87399
   8  -1  -8 5361.33  743.79   1 0.74519-0.11007 0.65523-0.71926 0.12390-0.68595
   8   1  -8 6660.14  898.36   1 0.72564-0.09005 0.64124-0.57724 0.24948-0.81158
  -8  -1   8 5989.57  682.74   1-0.65996 0.02557 0.75110-0.81511-0.01711 0.57873
  -8   1   8 6074.82  713.04   1-0.64967 0.01528 0.73969-0.67568-0.17540 0.73702
  -8  -1   7 3564.29  584.40   1-0.83411 0.18353 0.40802-0.47199-0.37117 0.86228
  -8   1   7 4088.28  982.59   1-0.78631 0.13573 0.45310-0.38913-0.42001 0.91112
   8  -1  -7 4681.75  583.54   1 0.73361-0.08026 0.64752-0.71152 0.20622-0.69806
   8   1  -7 3346.61  602.45   1 0.70544-0.05209 0.62492-0.56091 0.33439-0.82623
  -8  -1   7 3824.46  537.35   1-0.65718 0.00508 0.74808-0.81209-0.09207 0.58350
  -8   1   7 3659.78  607.35   1-0.63708-0.01531 0.72655-0.66248-0.25738 0.74892
  -8  -1   612395.49 1798.09   1-0.78116 0.11293 0.45750-0.52147-0.42480 0.84576
  -8   1   613093.67  989.07   1-0.72109 0.05233 0.50415-0.44018-0.47522 0.89638
   8  -1  -612324.54  966.11   1 0.71590-0.04479 0.63343-0.69743 0.29367-0.71524
   8   1  -612403.14  945.95   1 0.67786-0.00701 0.60287-0.53887 0.42075-0.84235
  -8  -1   610583.54  801.48   1-0.64995-0.01984 0.74000-0.80401-0.17305 0.59427
  -8   1   610687.90  839.20   1-0.61899-0.05106 0.70630-0.64223-0.34348 0.76480
  -8  -1   5 5600.50  496.16   1-0.72436 0.03795 0.50185-0.56583-0.47268 0.82364
  -8   1   5 7213.86  602.83   1-0.65260-0.03381 0.54764-0.48367-0.52363 0.87459
   8  -1  -5 5713.23  569.49   1 0.69031-0.00144 0.61246-0.67646 0.38515-0.73647
   8   1  -5 6108.27  659.22   1 0.64275 0.04590 0.57347-0.50946 0.50793-0.85926
  -8  -1   5 5769.28  541.80   1-0.63667-0.05103 0.72609-0.79017-0.25965 0.61075
  -8   1   5 5659.24  523.74   1-0.59393-0.09390 0.67863-0.61459-0.43208 0.78323
  -8  -1   4 2567.77  655.44   1-0.66545-0.03861 0.54012-0.60410-0.51520 0.79597
  -8   1   4 4927.41  639.92   1-0.58308-0.12097 0.58396-0.51998-0.56479 0.84556
   8  -1  -4 1357.77  388.35   1 0.65543 0.05104 0.58412-0.64813 0.47875-0.75981
   8   1  -4 3595.60  737.89   1 0.59954 0.10693 0.53689-0.47289 0.59353-0.87460
  -8  -1   4 2731.62  562.46   1-0.61638-0.08899 0.70337-0.76745-0.35402 0.63490
  -8   1   4 2290.54  508.08   1-0.56134-0.14414 0.64185-0.57781-0.52241 0.80334
  -8  -1   3 3646.74  759.15   1-0.60620-0.11551 0.57265-0.63663-0.55189 0.76246
  -8   1   3 2783.83  615.51   1-0.51516-0.20763 0.61356-0.54950-0.59845 0.80928
   8  -1  -3 4309.95  932.82   1 0.61073 0.11355 0.54639-0.61040 0.57311-0.78391
   8   1  -3 2511.41  584.52   1 0.54842 0.17570 0.49356-0.42953 0.67499-0.88579
  -8  -1   3 3229.28  605.64   1-0.58675-0.13639 0.67054-0.73458-0.45397 0.66466
  -8   1   3 4298.84  968.70   1-0.52055-0.20258 0.59570-0.53166-0.61167 0.82237
  -8  -1   2  733.67  320.26   1-0.54833-0.19103 0.59966-0.66363-0.58286 0.72324
  -8   1   2 1433.87  524.87   1-0.45008-0.29040 0.63682-0.57276-0.62600 0.76655
   8  -1  -2  853.63  283.39   1 0.55595 0.18596 0.50000-0.56403 0.66400-0.80453
   8   1  -2 1389.38  384.37   1 0.49072 0.25120 0.44399-0.37996 0.74970-0.89023
  -8  -1   2  965.92  356.45   1-0.54627-0.19452 0.62481-0.68885-0.55785 0.69831
  -8   1   2 1103.58  344.42   1-0.47174-0.26908 0.54066-0.47661-0.69651 0.83691
  -8  -1   113832.16 1084.79   1-0.49392-0.26424 0.62164-0.68570-0.60794 0.67822
  -8   1   114914.91 1187.79   1-0.38977-0.36839 0.65463-0.59057-0.64771 0.71798
   8  -1  -112677.25  925.12   1 0.49250 0.26721 0.44552-0.50955 0.74762-0.81789
   8   1  -114136.38 1066.34   1 0.42792 0.33113 0.39053-0.32651 0.81508-0.88528
  -8   1   110501.15  836.13   1-0.41642-0.34203 0.47779-0.41374-0.77350 0.84370
  -8   1   0 5823.71  586.00   1-0.33543-0.44042 0.66786-0.60380-0.66440 0.66440
   8  -1   0 5979.39  456.86   1 0.42285 0.35393 0.38613-0.45015 0.81981-0.81981
   8   1   0 6807.57  521.41   1 0.36345 0.41333 0.33460-0.27059 0.86944-0.86944
  -8  -1  -1  392.89  479.08   1-0.39801-0.39552 0.65239-0.71645-0.64494 0.57467
  -8   1  -1  128.73  340.62   1-0.28784-0.50576 0.67753-0.61345-0.67682 0.60653
   8  -1   1  405.20  297.66   1 0.35144 0.44306 0.32416-0.38818 0.87829-0.80808
   8   1   1  265.09  273.83   1 0.29983 0.49468 0.27922-0.21521 0.91221-0.84200
  -8  -1  -2 2210.75  598.52   1-0.35870-0.45252 0.66251-0.72657-0.65757 0.51702
  -8   1  -2 3075.55  812.81   1-0.24739-0.56383 0.68422-0.62014-0.68602 0.54544
   8  -1   2 2702.19  594.65   1 0.28211 0.53012 0.26377-0.32778 0.92240-0.78199
  -8  -1  -3  697.31  346.37   1-0.32585-0.50306 0.66994-0.73400-0.66708 0.45625
  -8   1  -3 2288.54  738.08   1-0.21427-0.61458 0.68875-0.62467-0.69260 0.48172
  -8  -1  -3  886.93  305.55   1-0.18350-0.64426-0.17967 0.11573-0.96645 0.75599
   8  -1   3  554.33  181.30   1 0.18145 0.64304-0.21295 0.14926 0.96006-0.75114
  -8  -1  -4 5049.04  806.21   1-0.29965-0.54683 0.67533-0.73941-0.67388 0.39272
  -8   1  -4 5132.22  863.59   1-0.18844-0.65805 0.69172-0.62763-0.69714 0.41597
  -8  -1  -4 2841.10  635.96   1-0.13551-0.70979-0.13802 0.07408-0.98111 0.70050
  -8  -2   9 3719.62  820.75   1-0.93517 0.32055 0.27278-0.40079-0.22591 0.85825
  -8   2   9 3411.51  912.40   1-0.88661 0.27135 0.34700-0.21906-0.30578 0.93721
   8  -2  -9 2529.19  495.60   1 0.75194-0.13459 0.65855-0.78662-0.02972-0.60257
   8   2  -9 3592.34  791.64   1 0.73209-0.11426 0.64633-0.51833 0.21514-0.84750
  -8  -2   9 4011.22  678.33   1-0.65425 0.03725 0.74287-0.87086 0.14174 0.49010
  -8   2   9 4283.04  738.86   1-0.65177 0.03508 0.74205-0.61403-0.15667 0.78850
  -8  -2   8 1392.80  480.20   1-0.89981 0.26730 0.32940-0.45741-0.28604 0.84812
  -8   2   8 1259.07  370.89   1-0.82893 0.19601 0.41331-0.28538-0.37688 0.93815
   8  -2  -8 1630.41  483.27   1 0.75092-0.11581 0.65891-0.78699 0.04395-0.60599
   8   2  -8 1373.32  590.68   1 0.71497-0.07938 0.63267-0.50467 0.29755-0.85965
  -8  -2   8 2371.04  534.25   1-0.65799 0.02359 0.74864-0.87666 0.08110 0.48052
  -8   2   8 1818.88  614.85   1-0.64065 0.00591 0.73052-0.60238-0.23642 0.79818
  -8  -2   714156.86 1926.54   1-0.85777 0.20719 0.38234-0.51027-0.34356 0.83467
  -8   2   713786.17 1975.34   1-0.76322 0.11265 0.47227-0.34434-0.44094 0.93206
   8  -2  -714115.46 1261.07   1 0.74530-0.09242 0.65530-0.78338 0.12284-0.61463
   8   2  -715104.68 1441.74   1 0.69144-0.03809 0.61340-0.48539 0.38162-0.87346
  -8  -2   713907.26 1219.88   1-0.66002 0.00792 0.75109-0.87911 0.01488 0.47653
  -8   2   714460.22 1303.73   1-0.62462-0.02777 0.71262-0.58447-0.31939 0.81093
  -8  -2   6 2847.16  659.80   1-0.81087 0.14264 0.43094-0.55887-0.39594 0.81689
  -8   2   6 2005.30  551.02   1-0.69195 0.02319 0.52372-0.39576-0.49690 0.91805
   8  -2  -6  827.31  280.12   1 0.73352-0.06241 0.64745-0.77545 0.20672-0.62830
   8   2  -6  505.31  386.65   1 0.66067 0.01017 0.58852-0.46051 0.46599-0.88759
  -8  -2   6 1380.36  369.72   1-0.65893-0.01085 0.75001-0.87803-0.05725 0.47847
  -8   2   6 3012.69  780.64   1-0.60259-0.06746 0.68787-0.55973-0.40460 0.82592
  -8  -2   525183.13 2068.95   1-0.76006 0.07417 0.47479-0.60272-0.44370 0.79449
  -8   2   525940.72 1330.28   1-0.61791-0.06849 0.56664-0.43869-0.54506 0.89602
   8  -2  -523958.60 1229.17   1 0.71505-0.02617 0.63274-0.76074 0.29720-0.64852
   8   2  -526400.44 1349.19   1 0.62283 0.06582 0.55665-0.42864 0.54973-0.90107
  -8  -2   524757.15 1151.41   1-0.65373-0.03375 0.74424-0.87226-0.13684 0.48786
  -8   2   527004.93 1423.64   1-0.57376-0.11407 0.65588-0.52780-0.49052 0.84167
  -8  -2   4 6253.59  547.75   1-0.70685 0.00279 0.51392-0.64187-0.48603 0.76680
  -8   2   4 7199.55  607.08   1-0.54365-0.16040 0.60166-0.47371-0.58518 0.86594
   8  -2  -4 5544.29  497.53   1 0.68772 0.01892 0.61031-0.73831 0.39313-0.67418
   8   2  -4 8459.60  725.01   1 0.57758 0.12875 0.51848-0.39042 0.63052-0.91158
  -8   2   4 6061.10  608.90   1-0.53796-0.16752 0.61541-0.48732-0.57607 0.85699
  -8  -2   3 1783.55  475.81   1-0.65274-0.06897 0.54756-0.67551-0.52354 0.73411
  -8   2   3 2779.82  651.67   1-0.47196-0.25083 0.62949-0.50137-0.61724 0.82807
   8  -2  -3  814.89  253.21   1 0.64974 0.07453 0.57935-0.70735 0.49211-0.70291
   8   2  -3  999.67  527.02   1 0.52579 0.19833 0.47415-0.34609 0.70619-0.91699
  -8   2   3 1930.20  572.53   1-0.49493-0.22827 0.56698-0.43888-0.65845 0.86906
  -8  -2   2 7581.91  679.78   1-0.59931-0.14006 0.57610-0.70405-0.55581 0.69619
  -8   2   2 6063.52  682.63   1-0.40410-0.33638 0.65070-0.52258-0.64286 0.78341
   8  -2  -2 5006.39  464.24   1 0.60026 0.14183 0.53751-0.66551 0.59224-0.73278
   8   2  -2 8317.28  841.54   1 0.46865 0.27326 0.42497-0.29691 0.77443-0.91496
  -8   2   2 5036.50  647.83   1-0.44570-0.29512 0.51108-0.38297-0.73494 0.87534
  -8   2   115261.18  943.44   1-0.34196-0.41620 0.66641-0.53829-0.66253 0.73281
   8  -2  -115901.44  825.11   1 0.53940 0.22031 0.48582-0.61388 0.68776-0.75802
   8   2  -115689.73  941.17   1 0.40773 0.35132 0.37304-0.24501 0.83342-0.90362
  -8   2   116027.02  938.24   1-0.39166-0.36680 0.44961-0.32151-0.80277 0.87297
  -8  -2   0 7265.95  636.88   1-0.50074-0.27511 0.61910-0.74722-0.60495 0.60495
  -8   2   0 6843.44  682.59   1-0.28663-0.48934 0.67775-0.54959-0.67711 0.67711
   8  -2   0 5972.45  434.17   1 0.46939 0.30810 0.42561-0.55367 0.77364-0.77364
   8   2   0 8923.12  628.60   1 0.34625 0.43052 0.31965-0.19162 0.88199-0.88199
  -8  -2  -1 2210.43  610.66   1-0.45747-0.33607 0.63440-0.76252-0.62309 0.55282
  -8   2  -1 1305.05  484.77   1-0.23863-0.55497 0.68550-0.55734-0.68784 0.61755
   8   2   1 1093.07  376.56   1 0.28628 0.50823 0.26740-0.13938 0.92007-0.84986
  -8  -2  -2  477.81  336.80   1-0.41953-0.39169 0.64627-0.77439-0.63743 0.49688
  -8   2  -2  622.83  392.31   1-0.19828-0.61294 0.69065-0.56248-0.69547 0.55489
  -8  -2  -2  215.17  250.20   1-0.22855-0.58166-0.21872 0.09084-0.94864 0.80833
  -8  -2  -3 2191.58  494.23   1-0.38751-0.44140 0.65523-0.78335-0.64845 0.43762
  -8   2  -3 3398.09  595.15   1-0.16558-0.66327 0.69392-0.56576-0.70074 0.48986
  -8  -2  -3 2094.89  511.37   1-0.17732-0.65044-0.17431 0.04643-0.96859 0.75813
   8  -2   3 2726.01  357.84   1 0.17295 0.65154-0.20325 0.07586 0.96373-0.75480
  -8  -2  -4 2545.40  579.91   1-0.36178-0.48481 0.66177-0.78988-0.65663 0.37553
  -8   2  -4 1651.96  521.13   1-0.14035-0.70614 0.69592-0.56776-0.70426 0.42309
  -8  -2  -4 1249.85  366.41   1-0.13247-0.71284-0.13537 0.00750-0.98189 0.70128
  -8  -3   9 1417.32  410.72   1-0.94733 0.33271 0.24925-0.44126-0.20107 0.83341
  -8   3   9  704.65  373.02   1-0.87691 0.26165 0.35945-0.16755-0.31907 0.95050
   8  -3  -9  761.87  361.94   1 0.74897-0.13188 0.65270-0.84500-0.11404-0.51824
   8   3  -9 1079.09  453.03   1 0.72449-0.10666 0.64033-0.44832 0.25511-0.88748
  -8   3   9 2441.27  634.77   1-0.64511 0.02803 0.73548-0.54326-0.20711 0.83909
  -8  -3   8 5001.38 1104.72   1-0.91705 0.28454 0.30357-0.49558-0.25854 0.82062
  -8   3   8 4501.98 1287.09   1-0.81334 0.18042 0.42860-0.23670-0.39341 0.95468
   8  -3  -8 6449.05  632.91   1 0.75155-0.11643 0.65789-0.85000-0.04830-0.51374
   8   3  -8 7712.11  781.30   1 0.70474-0.06915 0.62434-0.43233 0.33695-0.89905
  -8   3   8 8196.32  832.35   1-0.63139-0.00334 0.72020-0.52798-0.28748 0.84924
  -8  -3   713811.06 1833.00   1-0.88065 0.23007 0.35473-0.54663-0.31403 0.80514
  -8   3   714860.06 1298.87   1-0.74147 0.09089 0.48907-0.29717-0.45937 0.95048
   8  -3  -714455.05 1266.59   1 0.75161-0.09873 0.65917-0.85128 0.02353-0.51533
   8   3  -711792.36 1163.50   1 0.67839-0.02535 0.60331-0.41130 0.41927-0.91114
  -8   3   713702.69 1384.19   1-0.61233-0.04006 0.69883-0.50661-0.36970 0.86123
  -8  -3   6 9561.01 1151.13   1-0.83966 0.17142 0.40223-0.59413-0.36493 0.78588
  -8   3   6 9636.22  833.97   1-0.66426-0.00449 0.54083-0.34890-0.51599 0.93714
   8  -3  -6 9802.35  750.93   1 0.74728-0.07663 0.65669-0.84879 0.10159-0.52313
   8   3  -610451.95  957.44   1 0.64566 0.02518 0.57592-0.38391 0.50142-0.92302
  -8   3   610297.39  987.51   1-0.58724-0.08293 0.67109-0.47897-0.45252 0.87390
  -8  -3   5 7011.02 1072.04   1-0.79483 0.10894 0.44563-0.63753-0.41188 0.76268
  -8   3   5 8529.21  758.94   1-0.58498-0.10142 0.58306-0.39114-0.56376 0.91472
   8  -3  -5 6671.73  571.62   1 0.73681-0.04793 0.64999-0.84200 0.18602-0.53734
   8   3  -5 6549.41  780.88   1 0.60616 0.08250 0.54252-0.35051 0.58158-0.93291
  -8   3   5 6243.03  757.52   1-0.55603-0.13179 0.63585-0.44373-0.53526 0.88641
  -8  -3   4 6030.94  516.14   1-0.74738 0.04383 0.48462-0.67652-0.45448 0.73511
  -8   3   4 6450.72  571.17   1-0.50676-0.19834 0.61681-0.42463-0.60226 0.88337
   8  -3  -4 5144.12  426.60   1 0.71924-0.01260 0.63612-0.82812 0.27934-0.56039
   8   3  -4 5889.46  662.07   1 0.56005 0.14628 0.50351-0.31142 0.65788-0.93894
  -8   3   4 7096.18  637.82   1-0.51845-0.18703 0.59332-0.40119-0.61577 0.89669
  -8  -3   3 6588.81  525.83   1-0.69874-0.02297 0.51930-0.71123-0.49200 0.70257
  -8   3   3 8310.56  633.04   1-0.43147-0.29132 0.64268-0.45050-0.63307 0.84390
   8   3  -3 8504.19  658.81   1 0.50844 0.21569 0.45924-0.26715 0.72840-0.93920
  -8   3   3 9868.27  829.78   1-0.47471-0.24849 0.54404-0.35188-0.69185 0.90245
  -8   3   2 7203.16  747.01   1-0.36140-0.37908 0.66186-0.46968-0.65675 0.79730
   8   3  -2 4804.14  507.08   1 0.45258 0.28933 0.41109-0.21900 0.79130-0.93183
  -8   3   2 7149.18  645.24   1-0.42612-0.31471 0.48881-0.29666-0.76123 0.90163
  -8  -3   111792.38  866.21   1-0.60302-0.15400 0.57425-0.76617-0.55370 0.62390
  -8   3   112949.25  960.98   1-0.29801-0.46032 0.67564-0.48340-0.67430 0.74459
   8   3  -111994.76  881.39   1 0.39390 0.36515 0.36104-0.16900 0.84527-0.91547
  -8   3   111633.39  827.82   1-0.37405-0.38440 0.42958-0.23743-0.82190 0.89210
  -8  -3   013804.09 1004.52   1-0.55857-0.21610 0.59519-0.78712-0.57770 0.57770
  -8   3   014653.73 1115.26   1-0.24209-0.53388 0.68500-0.49276-0.68713 0.68713
   8   3   013696.93  994.54   1 0.33543 0.44135 0.31023-0.11819 0.88951-0.88951
  -8  -3  -110379.13 1067.74   1-0.51856-0.27498 0.61222-0.80440-0.59688 0.52661
  -8   3  -111447.37 1349.17   1-0.19412-0.59948 0.69111-0.49886-0.69619 0.62589
   8   3   1 8440.03  904.12   1 0.27883 0.51567 0.26091-0.06887 0.92421-0.85400
  -8  -3  -2 2454.82  605.98   1-0.48262-0.32860 0.62574-0.81792-0.61279 0.47224
  -8   3  -2  975.97  651.14   1-0.15418-0.65705 0.69488-0.50264-0.70239 0.56181
  -8  -3  -2  540.68  308.61   1-0.22443-0.58578-0.21515 0.02334-0.95043 0.81013
  -8  -3  -3  154.68  276.86   1-0.45201-0.37689 0.63619-0.82837-0.62524 0.41441
  -8   3  -3  -35.62  414.96   1-0.12212-0.70674 0.69707-0.50483-0.70651 0.49564
  -8  -3  -3  122.50  203.66   1-0.17631-0.65144-0.17344-0.01836-0.96893 0.75847
  -8  -3  -4 5259.45  922.22   1-0.42724-0.41936 0.64397-0.83615-0.63463 0.35353
  -8   3  -4 4718.92  920.30   1-0.09764-0.74885 0.69825-0.50600-0.70915 0.42799
  -8  -3  -4 2006.76  457.84   1-0.13413-0.71117-0.13682-0.05499-0.98147 0.70085
   8  -3   4 4388.54  735.07   1 0.12995 0.71231-0.15418-0.03688 0.97945-0.70089
  -8  -4   9  426.96  294.22   1-0.95882 0.34420 0.22403-0.48005-0.17455 0.80689
  -8   4   9 -214.91  402.25   1-0.63846 0.02138 0.72809-0.47181-0.24946 0.88144
  -8  -4   8 5169.05  966.77   1-0.93337 0.30086 0.27604-0.53206-0.22936 0.79144
  -8   4   8 3116.77  864.29   1-0.79970 0.16678 0.44126-0.18539-0.40713 0.96840
   8   4  -8 4632.97  927.87   1 0.69550-0.05991 0.61674-0.36074 0.36863-0.93073
  -8   4   8 3523.27  708.53   1-0.62237-0.01236 0.71010-0.45381-0.32925 0.89101
  -8  -4   7 2905.07  657.47   1-0.90264 0.25223 0.32535-0.58137-0.28172 0.77354
  -8   4   7 2518.30  560.71   1-0.72156 0.07046 0.50383-0.24793-0.47486 0.96621
   8   4  -7 3419.38  657.67   1 0.66733-0.01428 0.59408-0.33807 0.44914-0.94100
  -8   4   7 5192.38  834.23   1-0.60102-0.05137 0.68610-0.42982-0.40991 0.90145
  -8  -4   6 4535.40  788.11   1-0.86705 0.19882 0.37150-0.62737-0.33195 0.75290
  -8   4   6 5307.91  672.43   1-0.63870-0.03005 0.55547-0.29957-0.53244 0.95359
   8   4  -6 4713.35  673.65   1 0.63318 0.03767 0.56539-0.30938 0.52859-0.95019
  -8   4   6 5081.97  785.85   1-0.57391-0.09626 0.65605-0.39988-0.49011 0.91149
  -8   4   531569.41 1959.86   1-0.55450-0.13191 0.59698-0.34108-0.57977 0.93073
   8   4  -533286.08 5646.68   1 0.59284 0.09581 0.53120-0.27519 0.60526-0.95660
  -8   4   532578.80 5554.63   1-0.54120-0.14662 0.61908-0.36291-0.56906 0.92021
  -8  -4   4  977.80  379.98   1-0.78647 0.08292 0.45295-0.70882-0.41985 0.70049
  -8   4   4 1797.21  544.44   1-0.47244-0.23266 0.62932-0.37308-0.61704 0.89814
   8   4  -4 1203.71  431.88   1 0.54668 0.15965 0.49206-0.23594 0.67749-0.95856
  -8   4   4  994.24  464.27   1-0.50288-0.20260 0.57567-0.31951-0.64474 0.92566
  -8   4   3 4042.98  535.89   1-0.39441-0.32838 0.65338-0.39714-0.64616 0.85699
   8   4  -3 2811.31  689.11   1 0.49589 0.22823 0.44845-0.19233 0.74362-0.95441
  -8   4   3 5500.94  689.05   1-0.45938-0.26382 0.52662-0.27041-0.71528 0.92588
  -8  -4   213789.25  997.22   1-0.69999-0.03938 0.51849-0.77439-0.49109 0.63148
  -8   4   212479.05  940.75   1-0.32264-0.41784 0.67061-0.41437-0.66796 0.80851
   8   4  -212525.42  950.72   1 0.44174 0.30018 0.40172-0.14560 0.80217-0.94270
  -8   4   212749.03  972.63   1-0.41209-0.32874 0.47286-0.21666-0.77883 0.91923
  -8  -4   1 4325.90  546.15   1-0.65745-0.09957 0.54483-0.80073-0.52048 0.59067
   8   4  -1 3484.26  763.56   1 0.38546 0.37359 0.35372-0.09766 0.85223-0.92243
  -8  -4   011885.96 1136.05   1-0.61695-0.15773 0.56714-0.82304-0.54563 0.54563
  -8   4   011047.53 1269.86   1-0.20233-0.57364 0.69018-0.43386-0.69476 0.69476
   8   4   0 9428.37  943.04   1 0.32991 0.44687 0.30543-0.04937 0.89323-0.89323
  -8  -4  -1 2570.83  582.13   1-0.57954-0.21279 0.58563-0.84153-0.56671 0.49651
  -8   4  -1 1854.16  568.44   1-0.15467-0.63893 0.69484-0.43852-0.70232 0.63203
   8   4   1 2096.11  662.49   1 0.27643 0.51808 0.25880-0.00275 0.92552-0.85532
  -8  -4  -2 2046.54  537.13   1-0.54612-0.26386 0.60061-0.85651-0.58396 0.44357
  -8   4  -2 1680.79  693.47   1-0.11535-0.69588 0.69744-0.44112-0.70729 0.56670
  -8  -4  -2 2544.70  402.71   1-0.22500-0.58521-0.21564-0.04010-0.95019 0.80988
  -8  -4  -3 9003.50 1323.09   1-0.51831-0.31060 0.61232-0.86855-0.59700 0.38617
  -8   4  -3 7452.28 1264.46   1-0.08406-0.74479 0.69872-0.44239-0.71043 0.49956
  -8  -4  -3 8442.26 1185.24   1-0.17961-0.64815-0.17629-0.07945-0.96781 0.75735
   8  -4   3 6309.40  896.66   1 0.17144 0.65305-0.20153-0.05323 0.96436-0.75543
  -8  -5   8 3268.38  934.40   1-0.94844 0.31593 0.24695-0.56697-0.19865 0.76073
   8   5  -8 3349.34  678.33   1 0.68762-0.05203 0.61023-0.29022 0.39344-0.95554
  -8   5   8 5007.25 1000.57   1-0.61414-0.02059 0.70086-0.38050-0.36279 0.92454
  -8  -5   7 3655.14  942.45   1-0.92277 0.27236 0.29431-0.61434-0.24872 0.74054
  -8   5   7 3174.10  363.76   1-0.70438 0.05328 0.51558-0.19570-0.48787 0.97921
   8   5  -7 4009.93  781.80   1 0.65824-0.00520 0.58648-0.26647 0.47196-0.96382
  -8   5   7 3166.55  634.53   1-0.59100-0.06152 0.67533-0.35512-0.44118 0.93279
  -8  -5   616157.08 3405.29   1-0.89293 0.22463 0.33897-0.65899-0.29626 0.71782
  -8   5   615272.77 1427.38   1-0.61595-0.05280 0.56766-0.24778-0.54622 0.96737
   8   5  -614373.97 1402.41   1 0.62334 0.04751 0.55708-0.23706 0.54873-0.97033
  -8   5   615573.68 2768.70   1-0.56280-0.10737 0.64350-0.32329-0.51880 0.94018
  -8  -5   5  551.54  388.66   1-0.85936 0.17347 0.38051-0.70034-0.34160 0.69240
  -8   5   5  157.34  227.63   1-0.52751-0.15991 0.60863-0.28833-0.59270 0.94408
   8   5  -5  680.75  606.64   1 0.58283 0.10582 0.52267-0.20266 0.62217-0.97351
  -8   5   5 1017.89  494.34   1-0.52938-0.15845 0.60569-0.28548-0.59404 0.94519
  -8   5   411076.45 1123.91   1-0.44169-0.26341 0.63950-0.31920-0.62923 0.91033
   8   5  -412465.07 1320.59   1 0.53718 0.16915 0.48392-0.16378 0.69082-0.97188
  -8   5   413493.14 1345.94   1-0.49088-0.21469 0.56239-0.24214-0.66538 0.94618
  -8  -5   3 8082.45 1234.72   1-0.78597 0.06476 0.45339-0.77323-0.42033 0.63080
  -8   5   3 9443.05 1009.16   1-0.36138-0.36141 0.66186-0.34156-0.65675 0.86758
   8   5  -3 7398.06  865.80   1 0.48766 0.23647 0.44135-0.12120 0.75325-0.96404
  -8   5   3 8374.86  904.97   1-0.44841-0.27479 0.51415-0.19389-0.73114 0.94174
  -8  -5   2 5875.85  666.03   1-0.74784 0.00897 0.48427-0.80410-0.45410 0.59441
  -8   5   2 6184.72  842.57   1-0.28839-0.45232 0.67743-0.35702-0.67669 0.81727
   8   5  -2 5232.35  738.65   1 0.43544 0.30647 0.39628-0.07613 0.80829-0.94882
  -8   5   2 6586.70  908.46   1-0.40280-0.33802 0.46229-0.14204-0.78995 0.93035
  -8  -5   1 8335.22  866.33   1-0.71033-0.04669 0.51157-0.83145-0.48343 0.55362
  -8   5   1 9472.25  987.69   1-0.22365-0.53469 0.68755-0.36715-0.69082 0.76111
   8   5  -1 9725.88 1004.34   1 0.38162 0.37743 0.35038-0.03031 0.85533-0.92553
  -8  -5   0 5557.54  639.56   1-0.67422-0.10046 0.53483-0.85471-0.50929 0.50929
  -8   5   0 6585.67  877.30   1-0.16768-0.60829 0.69374-0.37333-0.70043 0.70043
   8   5   0 4306.69  593.06   1 0.32886 0.44792 0.30451 0.01555 0.89393-0.89393
  -8  -5  -1 2117.69  598.88   1-0.64060-0.15172 0.55442-0.87429-0.53125 0.46106
  -8   5  -1 1624.76  672.60   1-0.12052-0.67307 0.69716-0.37676-0.70670 0.63641
   8   5   1 2417.68  672.34   1 0.27823 0.51627 0.26038 0.05968 0.92454-0.85433
  -8  -5  -2 7772.22 1122.89   1-0.61039-0.19959 0.57052-0.89039-0.54946 0.40908
  -8   5  -2 7818.73 1231.93   1-0.08193-0.72930 0.69878-0.37837-0.71062 0.57004
  -8  -5  -2 5883.68  876.84   1-0.22949-0.58072-0.21954-0.10014-0.94822 0.80791
  -8  -5  -3 2323.89  493.64   1-0.58436-0.24328 0.58335-0.90323-0.56410 0.35352
  -8   5  -3 1715.66  543.54   1-0.05147-0.77739 0.69931-0.37890-0.71295 0.50208
  -8  -5  -3 2664.23  553.15   1-0.18651-0.64124-0.18228-0.13739-0.96539 0.75493
   8  -5   3 2082.43  410.17   1 0.17636 0.64812-0.20715-0.11130 0.96227-0.75335
  -8  -6   7 2789.50  752.33   1-0.94106 0.29065 0.26173-0.64575-0.21423 0.70605
   8   6  -7 2712.85  681.32   1 0.65125 0.00178 0.58062-0.19660 0.48861-0.98048
  -8   6   7 4856.87  945.75   1-0.58286-0.06965 0.66615-0.28190-0.46529 0.95690
  -8  -6   6 1266.18  346.07   1-0.91635 0.24805 0.30468-0.68870-0.25972 0.68128
  -8   6   6 1553.77  417.70   1-0.59669-0.07206 0.57739-0.19354-0.55728 0.97844
   8   6  -6 1894.99  706.60   1 0.61613 0.05471 0.55098-0.16696 0.56284-0.98444
  -8   6   6 1282.52  526.19   1-0.55401-0.11616 0.63357-0.24932-0.54004 0.96142
  -8   6   510667.83  784.32   1-0.50398-0.18344 0.61787-0.23351-0.60351 0.95489
   8   6  -510445.62  900.97   1 0.57581 0.11274 0.51697-0.13279 0.63338-0.98471
  -8   6   512039.15 1114.89   1-0.52048-0.16734 0.59562-0.21137-0.61182 0.96297
  -8  -6   4 4197.46  884.26   1-0.85790 0.15435 0.38219-0.76599-0.34340 0.62404
  -8   6   4 5089.17  663.21   1-0.41511-0.29000 0.64756-0.26320-0.63901 0.92012
   8   6  -4 5835.95  796.67   1 0.53124 0.17510 0.47882-0.09465 0.69892-0.97999
  -8   6   4 6322.07  902.16   1-0.48252-0.22305 0.55290-0.16860-0.67931 0.96011
  -8  -6   3 2453.81  578.67   1-0.82593 0.10472 0.41632-0.80013-0.38013 0.59061
  -8   6   3 1667.03  538.07   1-0.33290-0.38989 0.66842-0.28406-0.66512 0.87594
   8   6  -3 1420.18  527.02   1 0.48325 0.24087 0.43756-0.05338 0.75829-0.96908
  -8   6   3 1921.93  735.55   1-0.44127-0.28193 0.50604-0.12173-0.74107 0.95167
  -8  -6   2 2053.87  612.42   1-0.79319 0.05433 0.44708-0.83088-0.41346 0.55378
  -8   6   2 2095.55  585.05   1-0.25897-0.48173 0.68243-0.29794-0.68352 0.82410
   8   6  -2 2015.44  618.16   1 0.43258 0.30874 0.39455-0.01047 0.81067-0.95108
  -8   6   2 4564.36  853.96   1-0.39755-0.34328 0.45632-0.07201-0.79606 0.93646
  -8  -6   1 6054.61  878.53   1-0.76062 0.00409 0.47435-0.85815-0.44321 0.51337
  -8   6   1 6599.54  954.40   1-0.19402-0.56432 0.69112-0.30663-0.69620 0.76649
   8   6  -1 5912.61  800.75   1 0.38171 0.37734 0.35046 0.03361 0.85525-0.92546
  -8  -6   0 4161.45  581.99   1-0.72934-0.04533 0.49830-0.88215-0.46877 0.46877
  -8   6   0 4856.63  605.76   1-0.13835-0.63762 0.69606-0.31157-0.70452 0.70452
   8   6   0 3136.69  578.05   1 0.33160 0.44518 0.30690 0.07718 0.89210-0.89210
  -8  -6  -1 2593.80  493.41   1-0.69994-0.09238 0.51852-0.90237-0.49112 0.42093
  -8   6  -1 2548.99  620.23   1-0.09179-0.70181 0.69847-0.31398-0.70972 0.63943
   8   6   1 3193.58  735.31   1 0.28361 0.51089 0.26508 0.11900 0.92156-0.85136
  -8  -6  -2  405.41  250.83   1-0.67343-0.13655 0.53531-0.91916-0.50982 0.36944
  -8   6  -2  493.90  457.72   1-0.05395-0.75727 0.69929-0.31480-0.71279 0.57221
  -8  -6  -2  562.95  333.84   1-0.23732-0.57289-0.22631-0.15730-0.94469 0.80439
  -8  -7   6 8579.26 1732.74   1-0.93733 0.26903 0.26879-0.71682-0.22169 0.64325
   8   7  -6 9692.02 1522.55   1 0.61147 0.05937 0.54702-0.09900 0.57171-0.99331
  -8   7   6 8536.15 1459.88   1-0.54754-0.12263 0.62625-0.17795-0.55498 0.97636
  -8  -7   5 1257.02  368.31   1-0.91456 0.22836 0.30749-0.75553-0.26271 0.61401
  -8   7   5  195.98  197.56   1-0.48486-0.20256 0.62494-0.17652-0.61184 0.96322
   8   7  -5  529.79  407.76   1 0.57185 0.11669 0.51359-0.06538 0.63968-0.99101
  -8   7   5   43.72  463.44   1-0.51434-0.17348 0.58867-0.14037-0.62362 0.97478
  -8  -7   4 2578.26  504.25   1-0.88952 0.18543 0.34357-0.79160-0.30117 0.58221
  -8   7   4 4216.63  596.96   1-0.39321-0.31190 0.65370-0.20528-0.64656 0.92767
   8   7  -4 3376.10  679.49   1 0.52851 0.17783 0.47648-0.02827 0.70259-0.98365
  -8   7   4 2872.25  707.44   1-0.47728-0.22830 0.54695-0.09859-0.68778 0.96858
  -8  -7   3 1925.18  484.88   1-0.86267 0.14146 0.37668-0.82444-0.33749 0.54797
  -8   7   3 2457.25  503.85   1-0.30938-0.41341 0.67332-0.22490-0.67150 0.88233
  -8   7   3 2147.74  634.54   1-0.43749-0.28571 0.50174-0.05338-0.74622 0.95682
  -8  -7   2 2000.65  601.47   1-0.83524 0.09637 0.40685-0.85461-0.36991 0.51023
  -8   7   2 2276.95  502.83   1-0.23475-0.50596 0.68605-0.23748-0.68863 0.82922
   8   7  -2 2454.12  601.63   1 0.43367 0.30765 0.39550 0.05259 0.80963-0.95004
  -8   7   2 2215.33  580.73   1-0.39573-0.34509 0.45425-0.00590-0.79814 0.93854
  -8  -7   1 6159.67 1549.57   1-0.80780 0.05127 0.43382-0.88158-0.39906 0.46922
  -8   7   1 6133.07 1004.50   1-0.16974-0.58860 0.69355-0.24498-0.70011 0.77041
   8   7  -1 7234.70 1088.18   1 0.38520 0.37385 0.35349 0.09460 0.85244-0.92264
  -8  -7   0  636.37  275.27   1-0.78118 0.00700 0.45749-0.90526-0.42479 0.42479
  -8   7   0  862.43  439.49   1-0.11443-0.66153 0.69749-0.24892-0.70739 0.70739
   8   7   0  948.46  450.07   1 0.33759 0.43919 0.31211 0.13598 0.88804-0.88804
  -8  -7  -1 1038.54  342.90   1-0.75621-0.03562 0.47781-0.92558-0.44701 0.37685
  -8   7  -1 1734.61  628.12   1-0.06849-0.72510 0.69909-0.25052-0.71173 0.64144
   8   7   1 1740.45  473.56   1 0.29205 0.50245 0.27244 0.17565 0.91677-0.84656
  -8  -8   4  921.77  355.47   1-0.91749 0.21340 0.30288-0.81492-0.25781 0.53885
  -8   8   4  820.02  361.39   1-0.37645-0.32865 0.65811-0.14563-0.65204 0.93315
   8   8  -4  628.64  444.96   1 0.52866 0.17767 0.47662 0.03561 0.70238-0.98344
  -8   8   4 1332.88  688.34   1-0.47482-0.23076 0.54415-0.03175-0.69168 0.97249
  -8  -8   3 1806.50  383.17   1-0.89596 0.17398 0.33480-0.84683-0.29180 0.50258
  -8   8   3 1623.79  507.82   1-0.29124-0.43184 0.67691-0.16426-0.67599 0.88686
   8   8  -3 1874.75  642.58   1 0.48422 0.23990 0.43839 0.07384 0.75718-0.96798
  -8   8   3 3613.97  797.41   1-0.43663-0.28657 0.50076 0.01164-0.74738 0.95798
  -8  -8   2  606.82  432.34   1-0.87341 0.13454 0.36380-0.87553-0.32372 0.46403
  -8   8   2  532.25  327.15   1-0.21594-0.52476 0.68854-0.17589-0.69229 0.83287
   8   8  -2 1967.40  648.52   1 0.43834 0.30358 0.39878 0.11344 0.80549-0.94602
  -8   8   2 1498.10  548.15   1-0.39686-0.34396 0.45554 0.05686-0.79685 0.93725
  -8  -8   1 -147.23  221.92   1-0.85099 0.09447 0.38996-0.90170-0.35175 0.42190
  -8   8   1  551.52  364.17   1-0.15093-0.60741 0.69514-0.18249-0.70284 0.77313
   8   8  -1  534.10  428.35   1 0.39162 0.36742 0.35907 0.15303 0.84716-0.91737
  -9   0   8  612.19  293.60   1-0.85113 0.12144 0.38981-0.38981-0.35158 0.91285
  -9   0   8  492.46  378.32   1-0.65678-0.07460 0.74764-0.74764-0.09826 0.65989
  -9   0   7 7970.03 1631.18   1-0.80145 0.05410 0.43967-0.43967-0.40541 0.89652
   9   0  -7 9274.57 1299.16   1 0.71930 0.03125 0.63617-0.63617 0.27907-0.77091
  -9   0   7 8626.67 1176.92   1-0.64984-0.09924 0.73989-0.73989-0.17394 0.66536
  -9   0   6  435.65  255.28   1-0.74808-0.01692 0.48409-0.48409-0.45390 0.87485
   9   0  -6 1853.68  497.10   1 0.69784 0.07048 0.61867-0.61867 0.36089-0.78247
  -9   0   6 1185.12  507.36   1-0.63793-0.12911 0.72750-0.72750-0.25252 0.67384
  -9   0   513921.28 1327.13   1-0.69267-0.09057 0.52325-0.52325-0.49638 0.84734
   9   0  -515463.76 2647.78   1 0.66960 0.11627 0.59598-0.59598 0.44319-0.79452
  -9   0   515867.72 2711.77   1-0.62094-0.16377 0.70849-0.70849-0.33534 0.68644
  -9   0   4 1650.48  459.74   1-0.63674-0.16415 0.55655-0.55655-0.53366 0.81443
   9   0  -4 2226.26  631.11   1 0.63471 0.16897 0.56669-0.56669 0.52534-0.80641
  -9   0   3  381.46  304.72   1-0.58183-0.23672 0.58455-0.58455-0.56547 0.77605
   9   0  -3  894.61  314.20   1 0.59303 0.22847 0.53136-0.53135 0.60495-0.81575
  -9   0   2 1715.90  578.54   1-0.52981-0.30765 0.60769-0.60769-0.59160 0.73216
   9   0  -2 1402.54  468.26   1 0.54515 0.29395 0.49075-0.49075 0.67968-0.82021
  -9   0   1 7580.75  929.51   1-0.48088-0.37427 0.62636-0.62636-0.61352 0.68380
   9   0  -1 3985.39  483.73   1 0.49262 0.36427 0.44563-0.44563 0.74748-0.81774
  -9   0   015773.87 1107.36   1-0.43642-0.43642 0.64116-0.64116-0.63122 0.63122
   9   0   017022.85 1061.08   1 0.43734 0.43734 0.39792-0.39792 0.80646-0.80646
  -9   0  -1  884.44  352.96   1-0.39711-0.49341 0.65264-0.65264-0.64525 0.57497
  -9   0  -2 1334.66  542.34   1-0.36344-0.54477 0.66136-0.66136-0.65612 0.51557
  -9  -1   7  427.27  239.19   1-0.82441 0.07706 0.41784-0.48180-0.38177 0.87288
  -9   1   7  260.32  225.03   1-0.77895 0.03160 0.45937-0.39540-0.42685 0.91796
   9  -1  -7  602.20  277.97   1 0.73276 0.01780 0.64685-0.71086 0.21126-0.70310
   9   1  -7 1172.78  400.63   1 0.70531 0.04524 0.62481-0.56081 0.33486-0.82670
  -9   1   7 1018.35  477.14   1-0.63878-0.11061 0.72844-0.66437-0.24762 0.73916
  -9  -1   6 2250.89  616.86   1-0.77598 0.01097 0.46186-0.52583-0.42956 0.85051
  -9   1   6 1891.72  469.30   1-0.72073-0.04485 0.50441-0.44043-0.47551 0.89666
   9  -1  -6 2157.06  549.50   1 0.71605 0.05227 0.63355-0.69755 0.29304-0.71462
   9   1  -6 3056.36  522.90   1 0.67987 0.08819 0.60454-0.54054 0.41508-0.83668
  -9   1   6 4310.78  574.53   1-0.62268-0.14437 0.71044-0.64637-0.32791 0.74923
  -9  -1   5  225.29  270.55   1-0.72528-0.05796 0.50120-0.56518-0.47196 0.82292
  -9   1   5  237.64  249.75   1-0.66076-0.12247 0.54289-0.47892-0.51831 0.86927
   9  -1  -5  479.27  222.57   1 0.69281 0.09327 0.61452-0.67852 0.37731-0.72862
   9   1  -5  735.59  313.58   1 0.64838 0.13749 0.57821-0.51420 0.49524-0.84657
  -9   1   5 1194.95  473.57   1-0.60097-0.18374 0.68605-0.62198-0.41006 0.76116
  -9  -1   4 1761.48  529.95   1-0.67364-0.12725 0.53518-0.59916-0.50968 0.79045
  -9   1   4 1646.38  520.12   1-0.60081-0.20008 0.57535-0.51138-0.55496 0.83573
   9  -1  -4 1095.60  316.20   1 0.66217 0.14151 0.58977-0.65377 0.46226-0.74333
   9   1  -4 1487.24  489.01   1 0.61057 0.19311 0.54626-0.48225 0.57340-0.85447
  -9   1   4 1944.96  559.94   1-0.57306-0.22943 0.65509-0.59105-0.49239 0.77331
  -9  -1   3 3133.60  496.69   1-0.62248-0.19607 0.56424-0.62821-0.54234 0.75292
  -9   1   3 3751.46  558.86   1-0.54248-0.27606 0.60215-0.53818-0.58575 0.79633
   9  -1  -3 3122.74  474.51   1 0.62414 0.19736 0.55775-0.62176 0.54713-0.75793
   9   1  -3 1907.47  512.34   1 0.56674 0.25458 0.50922-0.44519 0.64768-0.85848
  -9   1   3 2581.08  412.94   1-0.53894-0.28121 0.61652-0.55248-0.57396 0.78465
  -9  -1   2 1109.64  413.80   1-0.57308-0.26312 0.58863-0.65261-0.57015 0.71053
  -9   1   2 1905.49  591.10   1-0.48773-0.34973 0.62390-0.55984-0.61061 0.75117
   9  -1  -2 1098.70  398.10   1 0.57869 0.26041 0.51943-0.58346 0.62872-0.76925
   9   1  -2 1153.12  370.34   1 0.51805 0.32105 0.46750-0.40347 0.71628-0.85681
  -9   1   2 1868.05  517.00   1-0.49870-0.33914 0.57126-0.50721-0.65188 0.79228
  -9  -1   1  463.37  336.83   1-0.52718-0.32796 0.60876-0.67282-0.59285 0.66313
  -9   1   1  963.62  515.48   1-0.43670-0.41844 0.64107-0.57701-0.63112 0.70139
  -9  -1   0  628.30  321.41   1-0.48464-0.38819 0.62502-0.68908-0.61193 0.61193
  -9   1   0  905.51  399.63   1-0.39074-0.48209 0.65437-0.59031-0.64738 0.64738
   9   1   0  606.43  386.87   1 0.41170 0.46217 0.37648-0.31247 0.82991-0.82991
  -9  -1  -1 3983.85  691.94   1-0.44672-0.44380 0.63790-0.70196-0.62730 0.55702
  -9   1  -1 5120.91  826.84   1-0.35045-0.54007 0.66446-0.60040-0.66005 0.58977
   9   1   1 4871.32  737.30   1 0.35840 0.53321 0.33021-0.26620 0.87321-0.80300
  -9  -1  -2 6147.00 1017.24   1-0.41398-0.49422 0.64789-0.71195-0.63941 0.49886
  -9   1  -2 5760.34  980.22   1-0.31620-0.59200 0.67194-0.60789-0.66969 0.52914
   9   1   2 7144.93 1107.44   1 0.30750 0.60184 0.28590-0.22189 0.90757-0.76716
  -9  -2   7 6090.81 1534.77   1-0.84738 0.10003 0.39394-0.52187-0.35602 0.84713
  -9   2   7 5774.15  883.01   1-0.75742 0.01007 0.47687-0.34893-0.44598 0.93709
   9   2  -7 6239.32 1077.11   1 0.69187 0.05868 0.61375-0.48574 0.38028-0.87212
  -9   2   7 4359.12  743.50   1-0.62699-0.12240 0.71527-0.58713-0.30864 0.80018
  -9  -2   6  481.39  221.03   1-0.80390 0.03890 0.43742-0.56536-0.40297 0.82392
  -9   2   6  338.30  247.47   1-0.69443-0.07115 0.52212-0.39417-0.49512 0.91627
   9   2  -6  403.34  350.80   1 0.66363 0.10443 0.59100-0.46299 0.45858-0.88018
  -9   2   6 1354.82  524.15   1-0.60732-0.15973 0.69319-0.56505-0.38812 0.80944
  -9  -2   5 3422.66  615.14   1-0.75796-0.02470 0.47644-0.60438-0.44551 0.79631
  -9   2   5 4111.64  515.60   1-0.63014-0.15310 0.56015-0.43220-0.53772 0.88868
   9   2  -5 3384.58  485.79   1 0.62976 0.15611 0.56251-0.43450 0.53570-0.88703
  -9   2   5 2368.00  476.09   1-0.58206-0.20278 0.66525-0.53717-0.46758 0.81873
  -9  -2   4  874.87  331.56   1-0.71088-0.09001 0.51120-0.63915-0.48302 0.76379
  -9   2   4 1889.25  572.53   1-0.56645-0.23444 0.59166-0.46371-0.57363 0.85440
   9   2  -4 1546.91  534.69   1 0.59020 0.21348 0.52895-0.40094 0.60981-0.89087
  -9  -2   3 1346.65  529.48   1-0.66377-0.15478 0.54112-0.66907-0.51632 0.72689
  -9   2   3 1505.92  520.01   1-0.50556-0.31421 0.61727-0.48915-0.60280 0.81363
   9   2  -3  143.34  299.85   1 0.54546 0.27585 0.49102-0.36296 0.67923-0.89003
  -9   2   3  450.45  454.54   1-0.51498-0.30516 0.58939-0.46131-0.62241 0.83310
  -9  -2   2 1106.37  502.13   1-0.61789-0.21831 0.56665-0.69460-0.54507 0.68546
  -9   2   2 2536.02  713.98   1-0.44800-0.38946 0.63749-0.50937-0.62681 0.76736
   9   2  -2 1285.67  555.15   1 0.49687 0.34223 0.44928-0.32122 0.74246-0.88299
  -9   2   2  545.91  319.28   1-0.47368-0.36415 0.54286-0.41476-0.69347 0.83388
  -9  -2   1 5633.20  676.93   1-0.57433-0.27952 0.58806-0.71601-0.56949 0.63968
  -9   2   1 4793.06  592.72   1-0.39528-0.45986 0.65314-0.52502-0.64587 0.71614
   9   2  -1 4719.93  540.41   1 0.44578 0.41111 0.40522-0.27716 0.79816-0.86842
  -9   2   1 5565.68  591.02   1-0.42875-0.42672 0.49180-0.36370-0.75782 0.82802
  -9  -2   013961.33 1032.11   1-0.53472-0.33811 0.60567-0.73379-0.58925 0.58925
  -9   2   015209.57 1132.64   1-0.34821-0.52462 0.66498-0.53686-0.66071 0.66071
   9   2   015299.01 1043.05   1 0.39348 0.48040 0.36067-0.23265 0.84562-0.84562
  -9   2   016036.61 1098.38   1-0.38164-0.49144 0.43822-0.31012-0.81381 0.81381
  -9  -2  -1 3509.73  641.55   1-0.49862-0.39190 0.61989-0.74801-0.60588 0.53561
  -9   2  -1 1048.46  469.08   1-0.30728-0.58324 0.67373-0.54561-0.67204 0.60177
   9   2   1 2702.65  548.19   1 0.34266 0.54894 0.31652-0.18850 0.88452-0.81432
  -9  -3   7  734.87  316.24   1-0.86991 0.12256 0.36807-0.55997-0.32828 0.81939
  -9   3   7  923.61  393.07   1-0.73734-0.01059 0.49248-0.30055-0.46236 0.95370
   9   3  -7 1453.86  587.46   1 0.67937 0.07087 0.60412-0.41211 0.41650-0.90836
  -9   3   7 1734.75  562.29   1-0.61534-0.13405 0.70220-0.50999-0.35812 0.84966
  -9  -3   6 3711.80  712.95   1-0.83136 0.06635 0.41084-0.60274-0.37421 0.79517
  -9   3   6 3202.71  601.91   1-0.66975-0.09583 0.53754-0.34561-0.51231 0.93346
   9   3  -6 4045.94  826.16   1 0.64946 0.11860 0.57911-0.38710 0.49277-0.91437
  -9   3   6 3188.23  737.98   1-0.59287-0.17432 0.67744-0.48531-0.43540 0.85678
  -9  -3   5 3158.31  486.07   1-0.79028 0.00762 0.44964-0.64154-0.41625 0.76704
  -9   3   5 2788.95  435.46   1-0.60137-0.18186 0.57507-0.38315-0.55464 0.90560
   9   3  -5 4882.06  770.29   1 0.61410 0.17177 0.54925-0.35724 0.56674-0.91807
  -9   3   5 2550.02  576.16   1-0.56542-0.21942 0.64646-0.45433-0.51223 0.86338
  -9  -3   4 1363.64  488.31   1-0.74776-0.05256 0.48433-0.67623-0.45417 0.73480
  -9   3   4 3927.01  504.56   1-0.53472-0.26737 0.60567-0.41349-0.58925 0.87036
   9   3  -4 3627.37  662.10   1 0.57356 0.22997 0.51504-0.32296 0.63698-0.91804
  -9   3   4 1355.49  416.85   1-0.53288-0.26962 0.60965-0.41753-0.58681 0.86773
  -9  -3   3 5625.46  574.46   1-0.70503-0.11352 0.51515-0.70707-0.48739 0.69796
  -9   3   3 7092.41  749.21   1-0.47072-0.34905 0.62992-0.43774-0.61774 0.82857
   9   3  -3 6706.90  752.45   1 0.52886 0.29245 0.47678-0.28469 0.70212-0.91291
  -9   3   3 6559.21  604.99   1-0.49549-0.32472 0.56762-0.37547-0.65748 0.86808
  -9   3   2 2704.26  596.50   1-0.41119-0.42627 0.64869-0.45651-0.64039 0.78095
   9   3  -2 3271.26  550.66   1 0.48100 0.35810 0.43562-0.24353 0.76083-0.90136
  -9   3   2 1804.02  536.42   1-0.45435-0.38349 0.52090-0.32875-0.72264 0.86305
  -9  -3   1 2898.26  454.82   1-0.62275-0.23111 0.56410-0.75602-0.54218 0.61238
  -9   3   1  804.60  376.31   1-0.35716-0.49798 0.66288-0.47070-0.65804 0.72831
   9   3  -1  996.61  371.34   1 0.43092 0.42523 0.39312-0.20108 0.81225-0.88246
  -9   3   1 1729.90  517.95   1-0.41047-0.44499 0.47101-0.27886-0.78080 0.85100
  -9  -3   0 4151.75  758.61   1-0.58526-0.28625 0.58293-0.77485-0.56361 0.56361
  -9   3   0 3596.58  742.88   1-0.30932-0.56351 0.67333-0.48115-0.67151 0.67151
   9   3   0 4014.24  691.55   1 0.38113 0.49274 0.34996-0.15792 0.85572-0.85572
  -9  -3  -1 1322.77  460.10   1-0.55133-0.33783 0.59836-0.79029-0.58136 0.51117
  -9   3  -1 3074.67  718.36   1-0.26804-0.62256 0.68096-0.48872-0.68149 0.61120
   9   3   1 2087.11  517.68   1 0.33275 0.55886 0.30790-0.11586 0.89133-0.82112
  -9  -4   6 1000.53  386.69   1-0.85790 0.09289 0.38219-0.63806-0.34340 0.76436
  -9   4   6 1025.27  399.05   1-0.64726-0.11832 0.55068-0.29478-0.52705 0.94820
   9   4  -6  497.84  409.57   1 0.63764 0.13042 0.56916-0.31314 0.51910-0.94070
  -9   4   6 1458.11  499.52   1-0.58026-0.18693 0.66322-0.40705-0.47269 0.89407
  -9  -4   5 6767.26 1628.11   1-0.82167 0.03901 0.42054-0.67641-0.38469 0.73548
  -9   4   5 8517.35 1202.73   1-0.57504-0.20820 0.58773-0.33183-0.56911 0.92007
   9   4  -5 6930.78 1147.27   1 0.60150 0.18437 0.53856-0.28255 0.59003-0.94136
  -9   4   5 7066.54 1065.12   1-0.55136-0.23348 0.63057-0.37440-0.54623 0.89738
  -9  -4   4 7849.68 1303.80   1-0.78387-0.01644 0.45520-0.71106-0.42229 0.70293
  -9   4   4 8520.69 1220.72   1-0.50531-0.29678 0.61737-0.36113-0.60291 0.88402
   9   4  -4 8404.00 1245.27   1 0.56078 0.24274 0.50413-0.24801 0.65678-0.93784
  -9   4   4 8264.47 1201.93   1-0.51796-0.28453 0.59277-0.33660-0.61670 0.89762
  -9   4   3  909.35  369.86   1-0.43897-0.38080 0.64036-0.38412-0.63026 0.84109
   9   4  -3 2115.82  594.82   1 0.51657 0.30474 0.46623-0.21011 0.71817-0.92896
  -9   4   3 1264.79  572.56   1-0.48046-0.33975 0.55056-0.29436-0.68265 0.89326
  -9  -4   2 3944.80  653.62   1-0.70765-0.12855 0.51339-0.76929-0.48544 0.62582
  -9   4   2 4438.30  812.92   1-0.37783-0.45963 0.65776-0.40152-0.65160 0.79215
   9   4  -2 3878.95  731.43   1 0.46986 0.36924 0.42601-0.16989 0.77313-0.91366
  -9   4   2 3040.32  617.36   1-0.44002-0.39782 0.50462-0.24841-0.74278 0.88319
  -9  -4   1 5823.50  938.57   1-0.67106-0.18279 0.53675-0.79265-0.51143 0.58162
  -9   4   1 4916.95  891.01   1-0.32281-0.53234 0.67058-0.41434-0.66791 0.73819
   9   4  -1 4289.14  789.10   1 0.42145 0.43470 0.38492-0.12887 0.82110-0.89130
  -9   4   1 6428.05 1085.17   1-0.39761-0.45785 0.45639-0.20019-0.79599 0.86619
  -9  -4   0 7095.86 1125.73   1-0.63674-0.23477 0.55655-0.81245-0.53366 0.53366
  -9   4   0 8423.32 1347.22   1-0.27448-0.59848 0.67988-0.42355-0.68000 0.68000
   9   4   0 9159.21 1437.39   1 0.37378 0.50010 0.34358-0.08752 0.86153-0.86153
  -9  -5   5 2984.90  847.81   1-0.85165 0.06899 0.38923-0.70906-0.35096 0.70175
  -9   5   5 2196.95  501.97   1-0.55168-0.23156 0.59821-0.27834-0.58119 0.93215
   9   5  -5 1762.88  527.89   1 0.59193 0.19394 0.53042-0.21041 0.60684-0.95818
  -9   5   5 2296.04  670.04   1-0.54002-0.24482 0.61774-0.29753-0.57163 0.92278
  -9   5   4 5353.12  931.02   1-0.47916-0.32293 0.62697-0.30667-0.61425 0.89535
   9   5  -4 2780.67  634.47   1 0.55152 0.25200 0.49621-0.17606 0.67051-0.95157
  -9   5   4 1779.46  497.07   1-0.50644-0.29606 0.57970-0.25949-0.63832 0.91924
  -9  -5   3 9594.87 1890.18   1-0.78474-0.03323 0.45445-0.77428-0.42148 0.63196
  -9   5   311244.18 1578.40   1-0.41080-0.40897 0.64880-0.32850-0.64053 0.85136
   9   5  -311242.91 1544.90   1 0.50820 0.31311 0.45903-0.13888 0.72870-0.93950
  -9   5   310772.82 1606.40   1-0.46939-0.35082 0.53798-0.21773-0.70017 0.91077
  -9  -5   2 3836.29  701.15   1-0.75102-0.08460 0.48183-0.80167-0.45142 0.59174
  -9   5   2 1450.25  480.41   1-0.34834-0.48912 0.66495-0.34465-0.66067 0.80122
   9   5  -2 2386.94  666.85   1 0.46288 0.37622 0.41999-0.09984 0.78060-0.92113
  -9   5   2 1941.54  593.83   1-0.43005-0.40779 0.49328-0.17302-0.75612 0.89652
  -9  -5   1 7646.08 1185.09   1-0.71850-0.13535 0.50596-0.82584-0.47722 0.54741
  -9   5   1 7749.12 1247.48   1-0.29262-0.56272 0.67665-0.35625-0.67565 0.74594
   9   5  -1 7315.43 1252.82   1 0.41627 0.43988 0.38044-0.06037 0.82581-0.89602
  -9   5   1 6463.64 1048.50   1-0.38932-0.46614 0.44696-0.12670-0.80538 0.87558
;
_shelx_hkl_checksum              17236
_olex2_submission_special_instructions 'No special instructions were received'
loop_
_space_group_symop_operation_xyz
'x, y, z'
'-x, y+1/2, -z'
loop_
_atom_site_label
_atom_site_type_symbol
_atom_site_fract_x
_atom_site_fract_y
_atom_site_fract_z
_atom_site_U_iso_or_equiv
_atom_site_adp_type
_atom_site_occupancy
_atom_site_site_symmetry_order
_atom_site_calc_flag
_atom_site_refinement_flags_posn
S1 S 0.42905(10) 0.36072(7) 0.69308(8) 0.0383(2) Uani 1 1 d .
O1 O 0.4944(3) 0.2423(2) 0.6787(3) 0.0468(6) Uani 1 1 d .
O2 O 0.2558(3) 0.3993(3) 0.6125(2) 0.0523(7) Uani 1 1 d .
O3 O 0.4318(4) 0.6307(3) 0.6680(3) 0.0568(8) Uani 1 1 d .
O4 O 0.7151(4) 0.6292(2) 0.6352(3) 0.0535(7) Uani 1 1 d .
O5 O 0.8702(3) 0.4017(2) 0.7935(2) 0.0411(6) Uani 1 1 d .
O6 O 0.9008(3) 0.3312(3) 0.4718(2) 0.0540(8) Uani 1 1 d .
H6 H 1.0101 0.3362 0.5085 0.081 Uiso 1 1 calc GR
N1 N 0.5827(4) 0.4511(3) 0.6491(3) 0.0364(6) Uani 1 1 d .
C1 C 0.5621(5) 0.5769(4) 0.6523(4) 0.0462(9) Uani 1 1 d .
C2 C 0.8333(5) 0.5383(3) 0.6013(4) 0.0468(9) Uani 1 1 d .
H2A H 0.9598 0.5552 0.6456 0.056 Uiso 1 1 calc R
H2B H 0.8201 0.5351 0.5037 0.056 Uiso 1 1 calc R
C3 C 0.7726(4) 0.4194(3) 0.6530(3) 0.0379(7) Uani 1 1 d .
C4 C 0.8027(4) 0.3055(4) 0.5718(3) 0.0424(8) Uani 1 1 d .
H4 H 0.6844 0.2698 0.5278 0.051 Uiso 1 1 calc R
C5 C 0.9022(5) 0.2242(3) 0.6827(4) 0.0428(8) Uani 1 1 d .
C6 C 0.9412(4) 0.2857(3) 0.8052(4) 0.0405(8) Uani 1 1 d .
C7 C 1.0411(5) 0.2371(4) 0.9257(4) 0.0528(10) Uani 1 1 d .
H7 H 1.0657 0.2797 1.0073 0.063 Uiso 1 1 calc R
C8 C 1.1033(6) 0.1184(5) 0.9164(6) 0.0672(14) Uani 1 1 d .
H8 H 1.1745 0.0818 0.9940 0.081 Uiso 1 1 calc R
C9 C 1.0619(6) 0.0550(5) 0.7961(6) 0.0711(14) Uani 1 1 d .
H9 H 1.1026 -0.0239 0.7942 0.085 Uiso 1 1 calc R
C10 C 0.9607(6) 0.1075(4) 0.6785(5) 0.0613(12) Uani 1 1 d .
H10 H 0.9324 0.0643 0.5973 0.074 Uiso 1 1 calc R
C11 C 0.4394(4) 0.3890(3) 0.8647(3) 0.0337(7) Uani 1 1 d .
C12 C 0.3300(4) 0.4776(3) 0.9009(3) 0.0370(7) Uani 1 1 d .
H12 H 0.2551 0.5254 0.8348 0.044 Uiso 1 1 calc R
C13 C 0.3347(4) 0.4933(3) 1.0371(3) 0.0382(7) Uani 1 1 d .
H13 H 0.2614 0.5519 1.0624 0.046 Uiso 1 1 calc R
C14 C 0.4473(5) 0.4228(3) 1.1372(3) 0.0383(7) Uani 1 1 d .
C15 C 0.5559(5) 0.3365(3) 1.0979(3) 0.0454(9) Uani 1 1 d .
H15 H 0.6323 0.2892 1.1638 0.055 Uiso 1 1 calc R
C16 C 0.5530(5) 0.3191(3) 0.9619(3) 0.0419(8) Uani 1 1 d .
H16 H 0.6269 0.2608 0.9365 0.050 Uiso 1 1 calc R
C17 C 0.4489(6) 0.4401(4) 1.2850(4) 0.0554(10) Uani 1 1 d .
H17A H 0.4368 0.5243 1.3029 0.083 Uiso 1 1 calc GR
H17B H 0.5620 0.4105 1.3409 0.083 Uiso 1 1 calc GR
H17C H 0.3490 0.3965 1.3054 0.083 Uiso 1 1 calc GR
loop_
_atom_site_aniso_label
_atom_site_aniso_U_11
_atom_site_aniso_U_22
_atom_site_aniso_U_33
_atom_site_aniso_U_23
_atom_site_aniso_U_13
_atom_site_aniso_U_12
S1 0.0321(4) 0.0465(5) 0.0363(4) -0.0051(4) 0.0084(3) -0.0037(4)
O1 0.0465(14) 0.0425(14) 0.0567(16) -0.0145(12) 0.0226(12) -0.0068(12)
O2 0.0334(12) 0.079(2) 0.0404(13) -0.0068(13) 0.0006(10) -0.0003(12)
O3 0.069(2) 0.0534(18) 0.0516(16) 0.0129(13) 0.0214(14) 0.0154(15)
O4 0.0635(17) 0.0448(16) 0.0524(16) 0.0103(12) 0.0142(13) -0.0042(14)
O5 0.0424(13) 0.0430(14) 0.0317(11) -0.0013(10) -0.0027(9) -0.0048(11)
O6 0.0370(12) 0.090(2) 0.0373(12) -0.0082(13) 0.0136(10) -0.0104(14)
N1 0.0351(14) 0.0430(16) 0.0313(14) 0.0009(12) 0.0083(11) -0.0008(12)
C1 0.055(2) 0.047(2) 0.0349(18) 0.0113(16) 0.0081(16) 0.0019(19)
C2 0.0411(19) 0.056(2) 0.0408(19) 0.0071(16) 0.0063(15) -0.0117(17)
C3 0.0311(15) 0.049(2) 0.0305(15) 0.0017(14) 0.0020(12) -0.0056(15)
C4 0.0288(16) 0.060(2) 0.0394(17) -0.0087(16) 0.0112(13) -0.0065(15)
C5 0.0306(16) 0.050(2) 0.051(2) -0.0048(17) 0.0168(15) -0.0053(16)
C6 0.0291(17) 0.044(2) 0.0482(19) 0.0066(15) 0.0080(14) -0.0053(14)
C7 0.0362(18) 0.063(3) 0.055(2) 0.017(2) 0.0029(16) -0.0080(19)
C8 0.035(2) 0.075(3) 0.091(4) 0.038(3) 0.014(2) 0.009(2)
C9 0.053(3) 0.061(3) 0.108(4) 0.012(3) 0.037(3) 0.016(2)
C10 0.049(2) 0.060(3) 0.084(3) -0.010(2) 0.035(2) 0.006(2)
C11 0.0298(14) 0.0361(18) 0.0363(15) 0.0017(13) 0.0104(12) -0.0013(13)
C12 0.0313(15) 0.0396(19) 0.0392(18) 0.0053(14) 0.0067(13) 0.0025(14)
C13 0.0361(16) 0.0363(17) 0.0447(18) -0.0020(15) 0.0145(14) 0.0037(15)
C14 0.0389(17) 0.0373(18) 0.0393(17) 0.0013(14) 0.0104(14) -0.0040(15)
C15 0.0433(18) 0.051(2) 0.0423(17) 0.0140(16) 0.0105(14) 0.0121(17)
C16 0.0445(19) 0.0399(19) 0.0451(18) 0.0056(15) 0.0179(15) 0.0106(15)
C17 0.065(3) 0.062(3) 0.039(2) 0.0000(18) 0.0130(18) 0.001(2)
loop_
_atom_type_symbol
_atom_type_description
_atom_type_scat_dispersion_real
_atom_type_scat_dispersion_imag
_atom_type_scat_source
C C 0.0033 0.0016 'International Tables Vol C Tables 4.2.6.8 and 6.1.1.4'
H H 0.0000 0.0000 'International Tables Vol C Tables 4.2.6.8 and 6.1.1.4'
N N 0.0061 0.0033 'International Tables Vol C Tables 4.2.6.8 and 6.1.1.4'
O O 0.0106 0.0060 'International Tables Vol C Tables 4.2.6.8 and 6.1.1.4'
S S 0.1246 0.1234 'International Tables Vol C Tables 4.2.6.8 and 6.1.1.4'
loop_
_geom_angle_atom_site_label_1
_geom_angle_atom_site_label_2
_geom_angle_atom_site_label_3
_geom_angle
O1 S1 O2 120.69(17)
O1 S1 N1 104.20(15)
O1 S1 C11 109.55(16)
O2 S1 N1 105.48(16)
O2 S1 C11 109.05(15)
N1 S1 C11 106.92(15)
C1 O4 C2 109.4(3)
C6 O5 C3 107.7(3)
C4 O6 H6 109.5
C1 N1 S1 120.0(2)
C1 N1 C3 110.5(3)
C3 N1 S1 125.8(2)
O3 C1 O4 124.5(4)
O3 C1 N1 126.8(4)
O4 C1 N1 108.8(3)
O4 C2 H2A 110.6
O4 C2 H2B 110.6
O4 C2 C3 105.5(3)
H2A C2 H2B 108.8
C3 C2 H2A 110.6
C3 C2 H2B 110.6
O5 C3 N1 108.7(3)
O5 C3 C2 109.3(3)
O5 C3 C4 107.7(3)
N1 C3 C2 99.0(3)
N1 C3 C4 116.6(3)
C2 C3 C4 115.1(3)
O6 C4 C3 112.5(3)
O6 C4 H4 109.5
O6 C4 C5 113.8(3)
C3 C4 H4 109.5
C5 C4 C3 101.8(3)
C5 C4 H4 109.5
C6 C5 C4 109.6(3)
C10 C5 C4 130.8(4)
C10 C5 C6 119.6(4)
C5 C6 O5 112.8(3)
C7 C6 O5 123.7(4)
C7 C6 C5 123.5(4)
C6 C7 H7 122.4
C6 C7 C8 115.2(4)
C8 C7 H7 122.4
C7 C8 H8 119.0
C9 C8 C7 122.0(4)
C9 C8 H8 119.0
C8 C9 H9 119.7
C8 C9 C10 120.5(4)
C10 C9 H9 119.7
C5 C10 C9 119.1(5)
C5 C10 H10 120.4
C9 C10 H10 120.4
C12 C11 S1 120.3(2)
C16 C11 S1 118.6(2)
C16 C11 C12 121.1(3)
C11 C12 H12 120.6
C13 C12 C11 118.7(3)
C13 C12 H12 120.6
C12 C13 H13 119.4
C12 C13 C14 121.2(3)
C14 C13 H13 119.4
C13 C14 C17 120.5(3)
C15 C14 C13 118.7(3)
C15 C14 C17 120.9(3)
C14 C15 H15 119.5
C14 C15 C16 121.1(3)
C16 C15 H15 119.5
C11 C16 C15 119.2(3)
C11 C16 H16 120.4
C15 C16 H16 120.4
C14 C17 H17A 109.5
C14 C17 H17B 109.5
C14 C17 H17C 109.5
H17A C17 H17B 109.5
H17A C17 H17C 109.5
H17B C17 H17C 109.5
loop_
_geom_bond_atom_site_label_1
_geom_bond_atom_site_label_2
_geom_bond_distance
S1 O1 1.422(3)
S1 O2 1.428(2)
S1 N1 1.674(3)
S1 C11 1.748(3)
O3 C1 1.194(5)
O4 C1 1.341(5)
O4 C2 1.442(5)
O5 C3 1.446(4)
O5 C6 1.388(4)
O6 H6 0.8200
O6 C4 1.421(4)
N1 C1 1.405(5)
N1 C3 1.467(4)
C2 H2A 0.9700
C2 H2B 0.9700
C2 C3 1.529(5)
C3 C4 1.555(5)
C4 H4 0.9800
C4 C5 1.492(5)
C5 C6 1.383(5)
C5 C10 1.372(6)
C6 C7 1.377(5)
C7 H7 0.9300
C7 C8 1.409(7)
C8 H8 0.9300
C8 C9 1.374(8)
C9 H9 0.9300
C9 C10 1.378(7)
C10 H10 0.9300
C11 C12 1.389(4)
C11 C16 1.376(4)
C12 H12 0.9300
C12 C13 1.381(5)
C13 H13 0.9300
C13 C14 1.393(5)
C14 C15 1.381(5)
C14 C17 1.505(5)
C15 H15 0.9300
C15 C16 1.385(5)
C16 H16 0.9300
C17 H17A 0.9600
C17 H17B 0.9600
C17 H17C 0.9600
loop_
_geom_torsion_atom_site_label_1
_geom_torsion_atom_site_label_2
_geom_torsion_atom_site_label_3
_geom_torsion_atom_site_label_4
_geom_torsion
S1 N1 C1 O3 -9.8(5)
S1 N1 C1 O4 169.9(2)
S1 N1 C3 O5 -66.2(3)
S1 N1 C3 C2 179.8(2)
S1 N1 C3 C4 55.7(4)
S1 C11 C12 C13 176.7(3)
S1 C11 C16 C15 -176.9(3)
O1 S1 N1 C1 -179.6(3)
O1 S1 N1 C3 -23.1(3)
O1 S1 C11 C12 -158.0(2)
O1 S1 C11 C16 19.8(3)
O2 S1 N1 C1 52.4(3)
O2 S1 N1 C3 -151.2(3)
O2 S1 C11 C12 -23.9(3)
O2 S1 C11 C16 153.9(3)
O4 C2 C3 O5 -88.1(3)
O4 C2 C3 N1 25.4(3)
O4 C2 C3 C4 150.5(3)
O5 C3 C4 O6 -115.7(3)
O5 C3 C4 C5 6.5(3)
O5 C6 C7 C8 -179.2(3)
O6 C4 C5 C6 115.4(3)
O6 C4 C5 C10 -62.1(5)
N1 S1 C11 C12 89.7(3)
N1 S1 C11 C16 -92.5(3)
N1 C3 C4 O6 121.9(3)
N1 C3 C4 C5 -115.9(3)
C1 O4 C2 C3 -21.8(4)
C1 N1 C3 O5 92.1(3)
C1 N1 C3 C2 -21.8(3)
C1 N1 C3 C4 -145.9(3)
C2 O4 C1 O3 -172.5(4)
C2 O4 C1 N1 7.8(4)
C2 C3 C4 O6 6.5(4)
C2 C3 C4 C5 128.7(3)
C3 O5 C6 C5 1.2(4)
C3 O5 C6 C7 -179.2(3)
C3 N1 C1 O3 -169.5(3)
C3 N1 C1 O4 10.1(4)
C3 C4 C5 C6 -5.8(3)
C3 C4 C5 C10 176.6(4)
C4 C5 C6 O5 3.2(4)
C4 C5 C6 C7 -176.3(3)
C4 C5 C10 C9 175.5(4)
C5 C6 C7 C8 0.3(5)
C6 O5 C3 N1 122.2(3)
C6 O5 C3 C2 -130.7(3)
C6 O5 C3 C4 -5.0(3)
C6 C5 C10 C9 -1.8(6)
C6 C7 C8 C9 -1.9(6)
C7 C8 C9 C10 1.7(7)
C8 C9 C10 C5 0.3(7)
C10 C5 C6 O5 -178.9(3)
C10 C5 C6 C7 1.6(5)
C11 S1 N1 C1 -63.6(3)
C11 S1 N1 C3 92.9(3)
C11 C12 C13 C14 0.5(5)
C12 C11 C16 C15 0.9(5)
C12 C13 C14 C15 0.2(5)
C12 C13 C14 C17 -179.2(3)
C13 C14 C15 C16 -0.4(5)
C14 C15 C16 C11 -0.2(5)
C16 C11 C12 C13 -1.1(5)
C17 C14 C15 C16 179.1(4)
