#------------------------------------------------------------------------------
#$Date: 2019-11-24 18:19:16 +0200 (Sun, 24 Nov 2019) $
#$Revision: 238985 $
#$URL: file:///home/coder/svn-repositories/cod/cif/1/55/56/1555653.cif $
#------------------------------------------------------------------------------
#
# This file is available in the Crystallography Open Database (COD),
# http://www.crystallography.net/
#
# All data on this site have been placed in the public domain by the
# contributors.
#
data_1555653
loop_
_publ_author_name
'Bongers, Amanda'
'Ranasinghe, Indee'
'Lemire, Philippe'
'Perozzo, Alyssa'
'Vincent-Rocan, Jean-Fran\,cois'
'Beauchemin, Andr\'e M'
_publ_section_title
;
 Synthesis of Cyclic Azomethine Imines by Cycloaddition Reactions of
 N-Isocyanates and N-Isothiocyanates.
;
_journal_issue                   15
_journal_name_full               'Organic letters'
_journal_page_first              3778
_journal_page_last               3781
_journal_paper_doi               10.1021/acs.orglett.6b01788
_journal_volume                  18
_journal_year                    2016
_chemical_formula_sum            'C14 H13 N3 O S'
_chemical_formula_weight         271.33
_space_group_crystal_system      triclinic
_space_group_IT_number           2
_space_group_name_Hall           '-P 1'
_space_group_name_H-M_alt        'P -1'
_atom_sites_solution_hydrogens   geom
_audit_creation_method           SHELXL-2013
_cell_angle_alpha                76.690(3)
_cell_angle_beta                 87.767(3)
_cell_angle_gamma                85.418(3)
_cell_formula_units_Z            2
_cell_length_a                   5.6316(4)
_cell_length_b                   8.8731(6)
_cell_length_c                   13.3605(7)
_cell_measurement_reflns_used    2496
_cell_measurement_temperature    200(2)
_cell_measurement_theta_max      23.71
_cell_measurement_theta_min      2.37
_cell_volume                     647.47(7)
_computing_cell_refinement       'APEX II, Bruker (2009)'
_computing_data_collection       'APEX II, Bruker (2009)'
_computing_data_reduction        'XPREP, Bruker (2009)'
_computing_molecular_graphics    'SHELXTL, Bruker (2004)'
_computing_publication_material  'SHELXTL, Bruker (2004)'
_computing_structure_refinement  'SHELXL-2013 (Sheldrick, 2013)'
_computing_structure_solution    'SHELXS-03 (Sheldrick, 2003)'
_diffrn_ambient_temperature      200(2)
_diffrn_measured_fraction_theta_full 0.928
_diffrn_measured_fraction_theta_max 0.980
_diffrn_measurement_device_type  'Bruker APEX-II CCD'
_diffrn_measurement_method       '\f and \w scans'
_diffrn_radiation_type           MoK\a
_diffrn_radiation_wavelength     0.71073
_diffrn_reflns_av_unetI/netI     0.0463
_diffrn_reflns_Laue_measured_fraction_full 0.928
_diffrn_reflns_Laue_measured_fraction_max 0.980
_diffrn_reflns_limit_h_max       6
_diffrn_reflns_limit_h_min       -6
_diffrn_reflns_limit_k_max       10
_diffrn_reflns_limit_k_min       -9
_diffrn_reflns_limit_l_max       15
_diffrn_reflns_limit_l_min       0
_diffrn_reflns_number            3809
_diffrn_reflns_point_group_measured_fraction_full 0.928
_diffrn_reflns_point_group_measured_fraction_max 0.980
_diffrn_reflns_theta_full        25.242
_diffrn_reflns_theta_max         24.746
_diffrn_reflns_theta_min         1.567
_exptl_absorpt_coefficient_mu    0.245
_exptl_absorpt_correction_T_max  0.745111
_exptl_absorpt_correction_T_min  0.643563
_exptl_absorpt_correction_type   multi-scan
_exptl_absorpt_process_details   'SADABS, Bruker (2003)'
_exptl_crystal_colour            yellow
_exptl_crystal_density_diffrn    1.392
_exptl_crystal_density_meas      ?
_exptl_crystal_description       block
_exptl_crystal_F_000             284
_exptl_crystal_size_max          0.150
_exptl_crystal_size_mid          0.060
_exptl_crystal_size_min          0.010
_refine_diff_density_max         0.202
_refine_diff_density_min         -0.239
_refine_diff_density_rms         0.056
_refine_ls_extinction_method     none
_refine_ls_goodness_of_fit_ref   1.055
_refine_ls_hydrogen_treatment    constr
_refine_ls_matrix_type           full
_refine_ls_number_parameters     173
_refine_ls_number_reflns         2138
_refine_ls_number_restraints     0
_refine_ls_restrained_S_all      1.055
_refine_ls_R_factor_all          0.0602
_refine_ls_R_factor_gt           0.0415
_refine_ls_shift/su_max          0.000
_refine_ls_shift/su_mean         0.000
_refine_ls_structure_factor_coef Fsqd
_refine_ls_weighting_details
'w=1/[\s^2^(Fo^2^)+(0.0707P)^2^+0.1116P] where P=(Fo^2^+2Fc^2^)/3'
_refine_ls_weighting_scheme      calc
_refine_ls_wR_factor_gt          0.1131
_refine_ls_wR_factor_ref         0.1199
_reflns_Friedel_coverage         0.000
_reflns_number_gt                1723
_reflns_number_total             2138
_reflns_threshold_expression     'I > 2\s(I)'
_cod_data_source_file            ol6b01788_si_002.cif
_cod_data_source_block           ab024_5
_cod_depositor_comments
;
The following automatic conversions were performed:

data item '_exptl_crystal_density_meas' value 'n/a' was changed to
'?' -- the value is perceived as not measured.

Automatic conversion script
Id: cif_fix_values 6909 2019-04-08 15:41:33Z antanas 
;
_cod_database_code               1555653
_shelx_space_group_comment
; 
The symmetry employed for this shelxl refinement is uniquely defined 
by the following loop, which should always be used as a source of 
symmetry information in preference to the above space-group names. 
They are only intended as comments. 
;
_shelx_estimated_absorpt_t_min   0.964
_shelx_estimated_absorpt_t_max   0.998
_shelxl_version_number           2013-4
_shelx_res_file
; 
TITL ab024_4 in P-1 
CELL 0.71073   5.63160   8.87310  13.36050  76.6901  87.7666  85.4178 
ZERR    2.00   0.00040   0.00060   0.00070   0.0026   0.0026   0.0028 
LATT  1 
SFAC C H N O S 
UNIT 28 26 6 2 2 
TEMP -73.150 
SIZE 0.01 0.06 0.15 
  
L.S. 80 
ACTA 
CONF 
LIST 0 
BOND 
FMAP 2 
PLAN 5 
  
OMIT    -1   5  14 
OMIT     1  -5   7 
OMIT    -1   5  13 
OMIT    -1   7  13 
OMIT    -1   6  14 
OMIT     2   0   1 
OMIT     0  -3   7 
OMIT    -2   0   1 
OMIT     1  -4   1 
OMIT     1   2   4 
OMIT    -1   7  12 
OMIT     1  -5   5 
OMIT     3   7  12 
OMIT     0   0   5 
OMIT     1   2   7 
OMIT    -1   4   4 
OMIT     2  -1   5 
OMIT     1  -5   6 
OMIT    -3   5  11 
  
WGHT    0.070700    0.111600 
BASF   0.49177 
FVAR       1.16665 
S1    5    0.200698    0.350206    0.508739    11.00000    0.02810    0.04204 = 
         0.04115   -0.01290    0.00238    0.00532 
O1    4    0.302893    0.730520    0.195819    11.00000    0.03452    0.03559 = 
         0.05096   -0.00269   -0.00550    0.01310 
N1    3    0.605556    0.414335    0.334099    11.00000    0.02605    0.02476 = 
         0.02724   -0.00715   -0.00051    0.00336 
N2    3    0.406803    0.513820    0.321749    11.00000    0.02383    0.03137 = 
         0.03188   -0.00646   -0.00104    0.00948 
N3    3    0.656575    0.585569    0.185700    11.00000    0.03249    0.02571 = 
         0.03561   -0.00274    0.00574    0.00370 
C1    1    0.442776    0.619783    0.232376    11.00000    0.02751    0.03125 = 
         0.03653   -0.01219   -0.00666    0.00089 
C2    1    0.790455    0.458778    0.250997    11.00000    0.02358    0.02593 = 
         0.02800   -0.00679    0.00416   -0.00111 
AFIX  13 
H2A   2    0.930858    0.496632    0.278896    11.00000   -1.20000 
AFIX   0 
C3    1    0.637886    0.294876    0.411611    11.00000    0.02361    0.02795 = 
         0.03269   -0.01117   -0.00058    0.00358 
AFIX  43 
H3A   2    0.782116    0.231376    0.412247    11.00000   -1.20000 
AFIX   0 
C4    1    0.473733    0.252707    0.495034    11.00000    0.02522    0.03154 = 
         0.02843   -0.01175   -0.00065   -0.00117 
C5    1    0.510493    0.127578    0.576280    11.00000    0.03489    0.03739 = 
         0.03223   -0.00487    0.00312    0.00426 
AFIX  43 
H5A   2    0.651456    0.059987    0.583344    11.00000   -1.20000 
AFIX   0 
C6    1    0.321044    0.108842    0.647723    11.00000    0.04054    0.04383 = 
         0.03088   -0.00167    0.00206   -0.00791 
AFIX  43 
H6A   2    0.318499    0.027150    0.707784    11.00000   -1.20000 
AFIX   0 
C7    1    0.140538    0.221074    0.621390    11.00000    0.03093    0.05809 = 
         0.04004   -0.02193    0.00980   -0.00994 
AFIX  43 
H7A   2   -0.002249    0.226929    0.661023    11.00000   -1.20000 
AFIX   0 
C8    1    0.766412    0.686755    0.098948    11.00000    0.04329    0.03326 = 
         0.04831    0.00858    0.00293   -0.00257 
AFIX  33 
H8A   2    0.646041    0.764652    0.063566    11.00000   -1.50000 
H8B   2    0.835433    0.625385    0.051249    11.00000   -1.50000 
H8C   2    0.892294    0.738890    0.123163    11.00000   -1.50000 
AFIX   0 
C9    1    0.868661    0.324154    0.201252    11.00000    0.02284    0.02183 = 
         0.02783    0.00084    0.00623   -0.00045 
C10   1    0.728417    0.284950    0.128966    11.00000    0.02652    0.03225 = 
         0.02460   -0.00596   -0.00230    0.00168 
AFIX  43 
H10A  2    0.585092    0.345500    0.107063    11.00000   -1.20000 
AFIX   0 
C11   1    0.798300    0.158533    0.089596    11.00000    0.04274    0.04185 = 
         0.03138   -0.01370    0.00052   -0.00390 
AFIX  43 
H11A  2    0.702276    0.131312    0.040500    11.00000   -1.20000 
AFIX   0 
C12   1    1.004353    0.071283    0.120139    11.00000    0.04263    0.03061 = 
         0.03583   -0.00605    0.01038   -0.00016 
AFIX  43 
H12A  2    1.050420   -0.016258    0.092286    11.00000   -1.20000 
AFIX   0 
C13   1    1.142988    0.108329    0.189498    11.00000    0.02828    0.03654 = 
         0.04119    0.00233    0.00598    0.00692 
AFIX  43 
H13A  2    1.284316    0.044970    0.210698    11.00000   -1.20000 
AFIX   0 
C14   1    1.085582    0.234454    0.230034    11.00000    0.02353    0.03208 = 
         0.02665   -0.00578   -0.00002   -0.00725 
AFIX  43 
H14A  2    1.188653    0.261751    0.276592    11.00000   -1.20000 
  
AFIX   0 
HKLF 5 
  
REM  ab024_4 in P-1 
REM R1 =  0.0415 for    1723 Fo > 4sig(Fo)  and  0.0602 for all    2138 data 
REM    173 parameters refined using      0 restraints 
  
END 
  
WGHT      0.0521      0.1246 
  
REM Highest difference peak  0.202,  deepest hole -0.239,  1-sigma level  0.056 
Q1    1   0.6797  0.0337  0.5181  11.00000  0.05    0.20 
Q2    1   0.5841  0.0947  0.0237  11.00000  0.05    0.18 
Q3    1   1.2414  0.3947  0.2376  11.00000  0.05    0.18 
Q4    1   0.4106  0.1952  0.6926  11.00000  0.05    0.18 
Q5    1   0.1524 -0.0172  0.6202  11.00000  0.05    0.18 
;
_shelx_res_checksum              58070
_shelx_hkl_file
; 
   1   0   0 408.732 5.43424  -1 
   1   0   0 408.732 5.43424   2 
   2   0   0 1362.18 16.2951  -1 
   2   0   0 1362.18 16.2951   2 
   3   0   0 195.086 7.10008  -1 
   3   0   0 195.086 7.10008   2 
   4   0   0 7.15585 2.89582   2 
   5   0   0 58.9468 4.13845   2 
   6   0   0 13.5026 4.94457   2 
  -6   1   0 170.814 9.16306  -1 
  -6   1   0 170.814 9.16306   2 
  -5   1   0 285.668 9.09981  -1 
  -5   1   0 285.668 9.09981   2 
  -4   1   0 3.03692 8.85730  -1 
  -4   1   0 3.03692 8.85730   2 
  -3   1   0 7.86848 1.82462   2 
  -2   1   0 1726.36 11.1538   2 
  -1   1   0 818.123 4.76630   2 
   0   1   0 1171.97 8.86767   2 
   1   1   0 281.375 4.75782  -1 
   1   1   1 281.375 4.75782   2 
   2   1   0 235.988 3.45295  -1 
   2   1   1 235.988 3.45295   2 
   3   1   0 50.1726 2.96437  -1 
   3   1   1 50.1726 2.96437   2 
   4   1   0 152.469 6.14400  -1 
   4   1   1 152.469 6.14400   2 
   5   1   0 271.989 8.68698  -1 
   5   1   1 271.989 8.68698   2 
   6   1   0 4.94552 10.7690  -1 
   6   1   1 4.94552 10.7690   2 
  -6   2   0 151.371 11.5112  -1 
  -6   2   1 151.371 11.5112   2 
  -5   2   0 36.8873 6.52883  -1 
  -5   2   1 36.8873 6.52883   2 
  -4   2   0 306.140 6.00498  -1 
  -4   2   1 306.140 6.00498   2 
  -3   2   0 895.491 7.93403  -1 
  -3   2   1 895.491 7.93403   2 
  -2   2   0 719.605 6.39667  -1 
  -2   2   1 719.605 6.39667   2 
  -1   2   0 64.0570 7.44881  -1 
  -1   2   1 64.0570 7.44881   2 
   0   2   0 1238.82 10.8999   2 
   1   2   0 91.7371 2.46534   2 
   2   2   0 677.650 6.31798   2 
   3   2   0 139.531 6.68198  -1 
   3   2   2 139.531 6.68198   2 
   4   2   0 328.467 10.2241  -1 
   4   2   2 328.467 10.2241   2 
   5   2   0 273.431 9.84678  -1 
   5   2   2 273.431 9.84678   2 
   6   2   0 59.5923 5.34821  -1 
   6   2   2 59.5923 5.34821   2 
  -6   3   0 6.36512 5.45612   2 
  -4   3   0 397.991 11.8985  -1 
  -4   3   2 397.991 11.8985   2 
  -3   3   0 267.979 6.40773  -1 
  -3   3   2 267.979 6.40773   2 
  -2   3   0 718.609 6.57546  -1 
  -2   3   2 718.609 6.57546   2 
  -1   3   0 362.728 2.89002  -1 
  -1   3   2 362.728 2.89002   2 
   0   3   0 342.491 3.90597  -1 
   0   3   2 342.491 3.90597   2 
   1   3   0 132.242 3.61951  -1 
   1   3   2 132.242 3.61951   2 
   2   3   0 134.022 5.25248  -1 
   2   3   2 134.022 5.25248   2 
   3   3   0 447.880 9.33997  -1 
   3   3   2 447.880 9.33997   2 
   4   3   0 48.5028 4.42325   2 
   5   3   0 116.942 7.06371   2 
   6   3   0 35.8578 11.1130  -1 
   6   3   3 35.8578 11.1130   2 
  -5   4   0 61.7270 10.4219  -1 
  -5   4   2 61.7270 10.4219   2 
  -4   4   0 211.945 14.4293  -1 
  -4   4   2 211.945 14.4293   2 
  -3   4   0 20.3016 2.80076   2 
  -2   4   0 100.959 2.59253   2 
  -1   4   0 205.914 6.94232  -1 
  -1   4   3 205.914 6.94232   2 
   0   4   0 81.7251 4.04222  -1 
   0   4   3 81.7251 4.04222   2 
   1   4   0 57.0313 3.39816  -1 
   1   4   3 57.0313 3.39816   2 
   2   4   0 29.3381 2.96983  -1 
   2   4   3 29.3381 2.96983   2 
   3   4   0 661.897 8.61280  -1 
   3   4   3 661.897 8.61280   2 
   4   4   0 164.413 9.31342  -1 
   4   4   3 164.413 9.31342   2 
   5   4   0 256.798 10.8413  -1 
   5   4   3 256.798 10.8413   2 
  -5   5   0 9.64634 7.18437  -1 
  -5   5   3 9.64634 7.18437   2 
  -4   5   0 16.5612 6.55093  -1 
  -4   5   3 16.5612 6.55093   2 
  -3   5   0 714.204 8.95498  -1 
  -3   5   3 714.204 8.95498   2 
  -2   5   0 51.7152 3.88367  -1 
  -2   5   3 51.7152 3.88367   2 
  -1   5   0 966.233 11.4493  -1 
  -1   5   3 966.233 11.4493   2 
   0   5   0 241.767 2.96859   2 
   1   5   0 151.133 4.15800   2 
   2   5   0 147.208 7.48745  -1 
   2   5   4 147.208 7.48745   2 
   3   5   0 222.955 7.41404  -1 
   3   5   4 222.955 7.41404   2 
   4   5   0 93.5802 8.40604  -1 
   4   5   4 93.5802 8.40604   2 
   5   5   0 7.22242 7.15280  -1 
   5   5   4 7.22242 7.15280   2 
  -5   6   0 60.6837 15.9099  -1 
  -5   6   4 60.6837 15.9099   2 
  -4   6   0 12.9778 8.95428  -1 
  -4   6   4 12.9778 8.95428   2 
  -3   6   0 221.226 5.94223  -1 
  -3   6   4 221.226 5.94223   2 
  -2   6   0 37.6875 4.09178  -1 
  -2   6   4 37.6875 4.09178   2 
  -1   6   0 659.788 6.41663  -1 
  -1   6   4 659.788 6.41663   2 
   0   6   0 21.8207 3.23585  -1 
   0   6   4 21.8207 3.23585   2 
   1   6   0 84.3000 5.79276  -1 
   1   6   4 84.3000 5.79276   2 
   2   6   0 236.509 7.51314  -1 
   2   6   4 236.509 7.51314   2 
   3   6   0 52.8863 4.62403   2 
   4   6   0 12.1868 4.06214   2 
  -4   7   0 2.54920 4.79937   2 
  -3   7   0 12.1457 3.80346   2 
  -1   7   0 189.816 6.00773  -1 
  -1   7   5 189.816 6.00773   2 
   0   7   0 46.7647 4.07759  -1 
   0   7   5 46.7647 4.07759   2 
   1   7   0 48.9538 5.08163  -1 
   1   7   5 48.9538 5.08163   2 
   2   7   0 33.1558 4.76367  -1 
   2   7   5 33.1558 4.76367   2 
   3   7   0 147.192 7.62832  -1 
   3   7   5 147.192 7.62832   2 
   4   7   0 -0.3136 14.3410  -1 
   4   7   5 -0.3136 14.3410   2 
   5   7   0 79.9689 16.8276  -1 
   5   7   5 79.9689 16.8276   2 
  -3   8   0 18.2708 8.78560  -1 
  -3   8   5 18.2708 8.78560   2 
  -2   8   0 28.6013 9.57364  -1 
  -2   8   5 28.6013 9.57364   2 
   0   8   0 19.9585 3.47245   2 
   1   8   0 42.0097 14.0293  -1 
   1   8   6 42.0097 14.0293   2 
   2   8   0 100.658 13.8734  -1 
   2   8   6 100.658 13.8734   2 
   3   8   0 105.159 13.3243  -1 
   3   8   6 105.159 13.3243   2 
   4   8   0 4.83888 12.3988  -1 
   4   8   6 4.83888 12.3988   2 
  -2   9   0 16.0985 4.99051  -1 
  -2   9   6 16.0985 4.99051   2 
  -1   9   0 65.5140 5.67269  -1 
  -1   9   6 65.5140 5.67269   2 
   0   9   0 -2.9757 6.91198  -1 
   0   9   6 -2.9757 6.91198   2 
   1   9   0 38.3693 14.1972  -1 
   1   9   6 38.3693 14.1972   2 
   2   9   0 23.1936 4.62142   2 
   3   9   0 61.6922 5.48489   2 
   0  10   0 8.88991 9.75925  -1 
   0  10   7 8.88991 9.75925   2 
   1  10   0 75.7038 7.90808  -1 
   1  10   7 75.7038 7.90808   2 
  -3  -9   1 -1.7627 4.23492   2 
  -1  -9   1 31.8253 14.0481  -1 
   1   9   7 31.8253 14.0481   2 
   0  -9   1 34.7223 8.62975  -1 
   0   9   7 34.7223 8.62975   2 
   1  -9   1 61.1638 6.64537  -1 
  -1   9   7 61.1638 6.64537   2 
   2  -9   1 19.2946 10.0029  -1 
  -2   9   7 19.2946 10.0029   2 
  -4  -8   1 11.7772 12.9646  -1 
   4   8   7 11.7772 12.9646   2 
  -3  -8   1 56.8602 13.9685  -1 
   3   8   7 56.8602 13.9685   2 
  -2  -8   1 38.2792 13.7319  -1 
   2   8   7 38.2792 13.7319   2 
   0  -8   1 80.0449 5.42466   2 
   1  -8   1 40.7404 13.3877  -1 
  -1   8   6 40.7404 13.3877   2 
   2  -8   1 126.164 9.85711  -1 
  -2   8   6 126.164 9.85711   2 
  -4  -7   1 -0.6066 14.0531  -1 
   4   7   6 -0.6066 14.0531   2 
  -3  -7   1 178.509 12.7093  -1 
   3   7   6 178.509 12.7093   2 
  -2  -7   1 33.5136 4.62684  -1 
   2   7   6 33.5136 4.62684   2 
  -1  -7   1 14.3784 4.93258  -1 
   1   7   6 14.3784 4.93258   2 
   0  -7   1 353.458 5.25353  -1 
   0   7   6 353.458 5.25353   2 
   1  -7   1 53.0473 6.98683  -1 
  -1   7   6 53.0473 6.98683   2 
   2  -7   1 620.269 17.3288  -1 
  -2   7   6 620.269 17.3288   2 
   3  -7   1 0.19463 3.62620   2 
   4  -7   1 16.6282 4.99625   2 
  -4  -6   1 24.5212 4.35379   2 
  -3  -6   1 46.0145 4.40988   2 
  -2  -6   1 112.359 7.00087  -1 
   2   6   5 112.359 7.00087   2 
  -1  -6   1 46.7814 5.84791  -1 
   1   6   5 46.7814 5.84791   2 
   0  -6   1 120.024 3.76105  -1 
   0   6   5 120.024 3.76105   2 
   1  -6   1 297.208 4.36736  -1 
  -1   6   5 297.208 4.36736   2 
   2  -6   1 326.590 5.13592  -1 
  -2   6   5 326.590 5.13592   2 
   3  -6   1 8.34968 5.53629  -1 
  -3   6   5 8.34968 5.53629   2 
   4  -6   1 135.583 9.43191  -1 
  -4   6   5 135.583 9.43191   2 
  -5  -5   1 30.3403 12.2866  -1 
   5   5   5 30.3403 12.2866   2 
  -4  -5   1 254.522 9.09707  -1 
   4   5   5 254.522 9.09707   2 
  -3  -5   1 4.50118 6.66161  -1 
   3   5   5 4.50118 6.66161   2 
  -2  -5   1 86.9214 10.9562  -1 
   2   5   5 86.9214 10.9562   2 
  -1  -5   1 406.674 6.02190   2 
   0  -5   1 3.43581 1.40173   2 
   1  -5   1 219.729 6.48695  -1 
  -1   5   4 219.729 6.48695   2 
   2  -5   1 53.2782 3.94611  -1 
  -2   5   4 53.2782 3.94611   2 
   3  -5   1 -3.0680 5.61692  -1 
  -3   5   4 -3.0680 5.61692   2 
   4  -5   1 411.062 9.35706  -1 
  -4   5   4 411.062 9.35706   2 
   5  -5   1 19.5083 7.14071  -1 
  -5   5   4 19.5083 7.14071   2 
  -6  -4   1 28.8248 18.5035  -1 
   6   4   4 28.8248 18.5035   2 
  -5  -4   1 21.5686 9.58564  -1 
   5   4   4 21.5686 9.58564   2 
  -4  -4   1 56.9430 8.82456  -1 
   4   4   4 56.9430 8.82456   2 
  -3  -4   1 28.2325 4.48014  -1 
   3   4   4 28.2325 4.48014   2 
  -2  -4   1 224.298 4.05900  -1 
   2   4   4 224.298 4.05900   2 
  -1  -4   1 605.725 6.17395  -1 
   1   4   4 605.725 6.17395   2 
   0  -4   1 229.639 4.61739  -1 
   0   4   4 229.639 4.61739   2 
   1  -4   1 154.629 6.37630  -1 
  -1   4   4 154.629 6.37630   2 
   2  -4   1 48.9473 2.17430   2 
   3  -4   1 0.10397 3.19772   2 
   4  -4   1 13.1108 8.01679  -1 
  -4   4   3 13.1108 8.01679   2 
   5  -4   1 119.953 10.1437  -1 
  -5   4   3 119.953 10.1437   2 
  -6  -3   1 10.3312 18.2121  -1 
   6   3   4 10.3312 18.2121   2 
  -5  -3   1 3.58737 3.84717   2 
  -4  -3   1 1.41517 3.15016   2 
  -3  -3   1 60.8311 9.22791  -1 
   3   3   3 60.8311 9.22791   2 
  -2  -3   1 255.620 6.26684  -1 
   2   3   3 255.620 6.26684   2 
  -1  -3   1 299.171 4.62287  -1 
   1   3   3 299.171 4.62287   2 
   0  -3   1 1413.46 10.9970  -1 
   0   3   3 1413.46 10.9970   2 
   1  -3   1 1866.56 10.0569  -1 
  -1   3   3 1866.56 10.0569   2 
   2  -3   1 194.160 3.29542  -1 
  -2   3   3 194.160 3.29542   2 
   3  -3   1 403.206 6.74941  -1 
  -3   3   3 403.206 6.74941   2 
   4  -3   1 26.5829 7.99291  -1 
  -4   3   3 26.5829 7.99291   2 
   6  -3   1 43.0011 6.09659   2 
  -6  -2   1 151.884 6.73257  -1 
   6   2   3 151.884 6.73257   2 
  -5  -2   1 23.9694 8.22430  -1 
   5   2   3 23.9694 8.22430   2 
  -4  -2   1 29.1668 7.26820  -1 
   4   2   3 29.1668 7.26820   2 
  -3  -2   1 96.7890 6.61685  -1 
   3   2   3 96.7890 6.61685   2 
  -2  -2   1 2.25079 1.40388   2 
  -1  -2   1 28.8643 1.62604   2 
   0  -2   1 5125.16 81.0515  -1 
   0   2   2 5125.16 81.0515   2 
   1  -2   1 317.071 8.67842  -1 
  -1   2   2 317.071 8.67842   2 
   2  -2   1 564.667 5.96103  -1 
  -2   2   2 564.667 5.96103   2 
   3  -2   1 202.462 4.11973  -1 
  -3   2   2 202.462 4.11973   2 
   4  -2   1 171.887 5.15987  -1 
  -4   2   2 171.887 5.15987   2 
   5  -2   1 89.2480 8.45644  -1 
  -5   2   2 89.2480 8.45644   2 
   6  -2   1 146.788 11.1704  -1 
  -6   2   2 146.788 11.1704   2 
  -6  -1   1 7.60526 9.21110  -1 
   6   1   2 7.60526 9.21110   2 
  -5  -1   1 103.263 8.02235  -1 
   5   1   2 103.263 8.02235   2 
  -4  -1   1 195.159 6.67653  -1 
   4   1   2 195.159 6.67653   2 
  -3  -1   1 1001.63 8.34679  -1 
   3   1   2 1001.63 8.34679   2 
  -2  -1   1 694.157 5.61081  -1 
   2   1   2 694.157 5.61081   2 
  -1  -1   1 9782.27 107.649  -1 
   1   1   2 9782.27 107.649   2 
   0  -1   1 398.298 2.28788   2 
   1  -1   1 26.1872 1.24819   2 
   2  -1   1 484.566 4.58177   2 
   3  -1   1 0.19961 1.82919   2 
   4  -1   1 197.414 8.09057  -1 
  -4   1   1 197.414 8.09057   2 
   5  -1   1 216.042 8.45619  -1 
  -5   1   1 216.042 8.45619   2 
   6  -1   1 41.3498 8.23876  -1 
  -6   1   1 41.3498 8.23876   2 
  -6   0   1 89.8031 15.9952  -1 
   6   0   2 89.8031 15.9952   2 
  -6   0   1 66.8944 5.64358   2 
  -5   0   1 2.95434 3.36873   2 
  -4   0   1 16.2395 2.69596   2 
  -3   0   1 784.519 12.0820  -1 
   3   0   1 784.519 12.0820   2 
  -2   0   1 104.394 4.25940  -1 
   2   0   1 104.394 4.25940   2 
  -1   0   1 2895.64 32.5179  -1 
   1   0   1 2895.64 32.5179   2 
   0   0   1 1117.24 11.9979  -1 
   0   0   1 1117.24 11.9979   2 
   1   0   1 3007.70 27.5845  -1 
  -1   0   1 3007.70 27.5845   2 
   2   0   1 103.093 4.67290  -1 
  -2   0   1 103.093 4.67290   2 
   3   0   1 716.213 11.0972  -1 
  -3   0   1 716.213 11.0972   2 
   4   0   1 -0.8311 2.64944   2 
   5   0   1 153.143 6.44168   2 
   6   0   1 2.69585 3.98515   2 
  -6   1   1 44.6813 8.52504  -1 
   6  -1   1 44.6813 8.52504   2 
  -5   1   1 217.957 8.90886  -1 
   5  -1   1 217.957 8.90886   2 
  -4   1   1 208.515 10.2977  -1 
   4  -1   1 208.515 10.2977   2 
  -3   1   1 105.445 3.11002   2 
  -2   1   1 123.824 2.33432   2 
  -1   1   1 260.047 2.34643   2 
   0   1   1 158.340 1.44814   2 
   1   1   1 274.017 4.78055  -1 
   1   1   0 274.017 4.78055   2 
   2   1   1 219.769 3.60077  -1 
   2   1   0 219.769 3.60077   2 
   3   1   1 53.4165 2.93145  -1 
   3   1   0 53.4165 2.93145   2 
   4   1   1 145.872 6.09250  -1 
   4   1   0 145.872 6.09250   2 
   5   1   1 265.561 10.5227  -1 
   5   1   0 265.561 10.5227   2 
   6   1   1 2.47162 10.7730  -1 
   6   1   0 2.47162 10.7730   2 
  -6   2   1 135.618 11.3904  -1 
  -6   2   0 135.618 11.3904   2 
  -5   2   1 34.6094 6.64595  -1 
  -5   2   0 34.6094 6.64595   2 
  -4   2   1 335.359 6.28760  -1 
  -4   2   0 335.359 6.28760   2 
  -3   2   1 876.231 7.93289  -1 
  -3   2   0 876.231 7.93289   2 
  -2   2   1 752.066 6.82102  -1 
  -2   2   0 752.066 6.82102   2 
  -1   2   1 65.1228 8.43308  -1 
  -1   2   0 65.1228 8.43308   2 
   0   2   1 -0.4048 1.21488   2 
   1   2   1 14.3480 1.50654   2 
   2   2   1 60.4752 2.57530   2 
   3   2   1 27.6514 5.72445  -1 
   3   2   1 27.6514 5.72445   2 
   4   2   1 307.080 10.0465  -1 
   4   2   1 307.080 10.0465   2 
   5   2   1 11.2970 7.98752  -1 
   5   2   1 11.2970 7.98752   2 
   6   2   1 30.2555 5.74986  -1 
   6   2   1 30.2555 5.74986   2 
  -6   3   1 72.3427 6.14741   2 
  -5   3   1 123.738 6.64979   2 
  -4   3   1 11.8773 13.5641  -1 
  -4   3   1 11.8773 13.5641   2 
  -3   3   1 139.456 6.09696  -1 
  -3   3   1 139.456 6.09696   2 
  -2   3   1 373.550 4.92149  -1 
  -2   3   1 373.550 4.92149   2 
  -1   3   1 794.360 5.30800  -1 
  -1   3   1 794.360 5.30800   2 
   0   3   1 30.1918 2.52078  -1 
   0   3   1 30.1918 2.52078   2 
   1   3   1 577.192 6.70688  -1 
   1   3   1 577.192 6.70688   2 
   2   3   1 920.645 12.1254  -1 
   2   3   1 920.645 12.1254   2 
   3   3   1 222.805 7.36056  -1 
   3   3   1 222.805 7.36056   2 
   4   3   1 -0.6801 3.76223   2 
   5   3   1 233.314 7.81965   2 
   6   3   1 165.291 11.7036  -1 
   6   3   2 165.291 11.7036   2 
  -5   4   1 29.6119 10.3796  -1 
  -5   4   1 29.6119 10.3796   2 
  -4   4   1 636.162 19.5274  -1 
  -4   4   1 636.162 19.5274   2 
  -3   4   1 0.96832 2.66051   2 
  -2   4   1 578.529 5.18826   2 
   0   4   1 425.137 6.17074  -1 
   0   4   2 425.137 6.17074   2 
   1   4   1 435.927 6.02549  -1 
   1   4   2 435.927 6.02549   2 
   2   4   1 88.7283 3.61372  -1 
   2   4   2 88.7283 3.61372   2 
   3   4   1 54.4324 4.45561  -1 
   3   4   2 54.4324 4.45561   2 
   4   4   1 22.0787 8.51635  -1 
   4   4   2 22.0787 8.51635   2 
   5   4   1 44.7870 9.41786  -1 
   5   4   2 44.7870 9.41786   2 
   6   4   1 6.36303 10.9392  -1 
   6   4   2 6.36303 10.9392   2 
  -5   5   1 16.1428 7.27437  -1 
  -5   5   2 16.1428 7.27437   2 
  -4   5   1 175.310 6.36756  -1 
  -4   5   2 175.310 6.36756   2 
  -3   5   1 18.7649 5.41066  -1 
  -3   5   2 18.7649 5.41066   2 
  -2   5   1 383.816 4.70285  -1 
  -2   5   2 383.816 4.70285   2 
  -1   5   1 4.25346 7.12902  -1 
  -1   5   2 4.25346 7.12902   2 
   0   5   1 18.9585 1.98902   2 
   1   5   1 387.964 5.72130   2 
   2   5   1 123.528 7.18284  -1 
   2   5   3 123.528 7.18284   2 
   3   5   1 197.323 7.04851  -1 
   3   5   3 197.323 7.04851   2 
   4   5   1 19.3351 8.10138  -1 
   4   5   3 19.3351 8.10138   2 
   5   5   1 39.1085 7.29856  -1 
   5   5   3 39.1085 7.29856   2 
   6   5   1 57.6094 11.3667  -1 
   6   5   3 57.6094 11.3667   2 
  -5   6   1 83.1993 16.6553  -1 
  -5   6   3 83.1993 16.6553   2 
  -4   6   1 5.39353 9.49670  -1 
  -4   6   3 5.39353 9.49670   2 
  -3   6   1 581.494 8.47768  -1 
  -3   6   3 581.494 8.47768   2 
  -2   6   1 186.389 4.73876  -1 
  -2   6   3 186.389 4.73876   2 
  -1   6   1 224.989 4.25407  -1 
  -1   6   3 224.989 4.25407   2 
   0   6   1 0.12447 2.74889  -1 
   0   6   3 0.12447 2.74889   2 
   1   6   1 39.3226 5.54632  -1 
   1   6   3 39.3226 5.54632   2 
   2   6   1 288.468 9.34471  -1 
   2   6   3 288.468 9.34471   2 
   3   6   1 57.2742 4.72496   2 
   4   6   1 53.6686 4.73923   2 
  -4   7   1 15.0438 4.79714   2 
  -3   7   1 104.107 5.55542   2 
  -2   7   1 89.6727 9.93608  -1 
  -2   7   4 89.6727 9.93608   2 
  -1   7   1 56.1582 5.89485  -1 
  -1   7   4 56.1582 5.89485   2 
   0   7   1 25.9320 3.42331  -1 
   0   7   4 25.9320 3.42331   2 
   1   7   1 173.257 5.98333  -1 
   1   7   4 173.257 5.98333   2 
   2   7   1 228.128 5.98991  -1 
   2   7   4 228.128 5.98991   2 
   3   7   1 42.4981 6.98660  -1 
   3   7   4 42.4981 6.98660   2 
   4   7   1 40.5378 14.2596  -1 
   4   7   4 40.5378 14.2596   2 
   5   7   1 11.2344 16.5625  -1 
   5   7   4 11.2344 16.5625   2 
  -3   8   1 30.8590 9.33111  -1 
  -3   8   4 30.8590 9.33111   2 
  -2   8   1 10.0735 7.85085  -1 
  -2   8   4 10.0735 7.85085   2 
   0   8   1 28.8911 3.51340   2 
   2   8   1 18.0249 13.2165  -1 
   2   8   5 18.0249 13.2165   2 
   3   8   1 44.5222 13.1898  -1 
   3   8   5 44.5222 13.1898   2 
   4   8   1 -0.1075 12.3027  -1 
   4   8   5 -0.1075 12.3027   2 
  -2   9   1 67.1330 4.24910  -1 
  -2   9   5 67.1330 4.24910   2 
  -1   9   1 198.459 6.73634  -1 
  -1   9   5 198.459 6.73634   2 
   0   9   1 -1.4218 8.84344  -1 
   0   9   5 -1.4218 8.84344   2 
   1   9   1 85.1008 14.9232  -1 
   1   9   5 85.1008 14.9232   2 
   2   9   1 19.2959 4.42195   2 
   2   9   1 33.9756 16.0960  -1 
   2   9   5 33.9756 16.0960   2 
   3   9   1 6.25572 4.34909   2 
  -1  10   1 23.3292 13.4512  -1 
  -1  10   6 23.3292 13.4512   2 
   0  10   1 35.5647 7.71764  -1 
   0  10   6 35.5647 7.71764   2 
   1  10   1 5.89454 6.49352  -1 
   1  10   6 5.89454 6.49352   2 
   2  10   1 46.1715 12.0418  -1 
   2  10   6 46.1715 12.0418   2 
  -2  -9   2 -2.9300 4.16541   2 
  -1  -9   2 127.965 14.6694  -1 
   1   9   8 127.965 14.6694   2 
   0  -9   2 21.2379 8.40498  -1 
   0   9   8 21.2379 8.40498   2 
   1  -9   2 74.5008 6.80279  -1 
  -1   9   8 74.5008 6.80279   2 
   2  -9   2 49.6176 9.90318  -1 
  -2   9   8 49.6176 9.90318   2 
  -4  -8   2 14.7633 10.9271  -1 
   4   8   8 14.7633 10.9271   2 
  -3  -8   2 157.710 15.0028  -1 
   3   8   8 157.710 15.0028   2 
  -2  -8   2 7.94542 13.6928  -1 
   2   8   8 7.94542 13.6928   2 
   0  -8   2 59.9966 4.16019   2 
   1  -8   2 133.248 14.1392  -1 
  -1   8   7 133.248 14.1392   2 
   2  -8   2 49.5530 9.32100  -1 
  -2   8   7 49.5530 9.32100   2 
   3  -8   2 -5.0918 9.67041  -1 
  -3   8   7 -5.0918 9.67041   2 
  -4  -7   2 19.2446 13.8247  -1 
   4   7   7 19.2446 13.8247   2 
  -3  -7   2 95.7415 11.7805  -1 
   3   7   7 95.7415 11.7805   2 
  -2  -7   2 91.5525 9.04638  -1 
   2   7   7 91.5525 9.04638   2 
  -1  -7   2 172.580 6.86047  -1 
   1   7   7 172.580 6.86047   2 
   0  -7   2 171.298 4.71841  -1 
   0   7   7 171.298 4.71841   2 
   1  -7   2 18.7976 8.09715  -1 
  -1   7   7 18.7976 8.09715   2 
   2  -7   2 474.622 15.7173  -1 
  -2   7   7 474.622 15.7173   2 
   3  -7   2 4.66969 3.84707   2 
   4  -7   2 26.5590 5.46065   2 
  -5  -6   2 35.0775 4.79073   2 
  -4  -6   2 23.2748 4.15090   2 
  -3  -6   2 0.08253 3.78746   2 
  -2  -6   2 153.633 9.71869  -1 
   2   6   6 153.633 9.71869   2 
  -1  -6   2 49.3094 4.96683  -1 
   1   6   6 49.3094 4.96683   2 
   0  -6   2 116.958 3.63284  -1 
   0   6   6 116.958 3.63284   2 
   1  -6   2 322.589 3.65680  -1 
  -1   6   6 322.589 3.65680   2 
   2  -6   2 109.399 4.38908  -1 
  -2   6   6 109.399 4.38908   2 
   3  -6   2 218.728 6.26734  -1 
  -3   6   6 218.728 6.26734   2 
   4  -6   2 126.214 13.4347  -1 
  -4   6   6 126.214 13.4347   2 
  -5  -5   2 3.18702 10.9255  -1 
   5   5   6 3.18702 10.9255   2 
  -4  -5   2 53.6049 7.60742  -1 
   4   5   6 53.6049 7.60742   2 
  -3  -5   2 11.9721 6.97595  -1 
   3   5   6 11.9721 6.97595   2 
  -2  -5   2 104.840 12.1248  -1 
   2   5   6 104.840 12.1248   2 
  -1  -5   2 396.904 6.14548   2 
   0  -5   2 53.6041 2.39935   2 
   1  -5   2 245.450 6.57383  -1 
  -1   5   5 245.450 6.57383   2 
   2  -5   2 178.621 5.13601  -1 
  -2   5   5 178.621 5.13601   2 
   3  -5   2 275.129 6.21594  -1 
  -3   5   5 275.129 6.21594   2 
   4  -5   2 138.365 6.71948  -1 
  -4   5   5 138.365 6.71948   2 
  -6  -4   2 47.5460 19.0466  -1 
   6   4   5 47.5460 19.0466   2 
  -5  -4   2 52.4134 16.1030  -1 
   5   4   5 52.4134 16.1030   2 
  -4  -4   2 23.0265 8.44030  -1 
   4   4   5 23.0265 8.44030   2 
  -3  -4   2 128.466 5.01173  -1 
   3   4   5 128.466 5.01173   2 
  -2  -4   2 1300.19 11.2091  -1 
   2   4   5 1300.19 11.2091   2 
  -1  -4   2 2372.90 16.3593  -1 
   1   4   5 2372.90 16.3593   2 
   0  -4   2 223.864 3.75025  -1 
   0   4   5 223.864 3.75025   2 
   1  -4   2 10.2029 5.31506  -1 
  -1   4   5 10.2029 5.31506   2 
   2  -4   2 311.709 4.19625   2 
   3  -4   2 28.5118 3.65082   2 
   4  -4   2 340.879 15.2703  -1 
  -4   4   4 340.879 15.2703   2 
   5  -4   2 75.5199 9.76442  -1 
  -5   4   4 75.5199 9.76442   2 
  -6  -3   2 -14.823 18.5597  -1 
   6   3   5 -14.823 18.5597   2 
  -5  -3   2 40.2187 4.62427   2 
  -4  -3   2 90.5456 5.52190   2 
  -3  -3   2 4.67553 2.60767   2 
  -3  -3   2 96.6369 10.0682  -1 
   3   3   4 96.6369 10.0682   2 
  -2  -3   2 1711.49 20.2002  -1 
   2   3   4 1711.49 20.2002   2 
  -1  -3   2 76.8803 2.98109  -1 
   1   3   4 76.8803 2.98109   2 
   0  -3   2 583.768 4.51010  -1 
   0   3   4 583.768 4.51010   2 
   1  -3   2 230.779 1.96837  -1 
  -1   3   4 230.779 1.96837   2 
   2  -3   2 56.4292 2.54656  -1 
  -2   3   4 56.4292 2.54656   2 
   3  -3   2 291.093 5.18034  -1 
  -3   3   4 291.093 5.18034   2 
   4  -3   2 15.9612 9.89256  -1 
  -4   3   4 15.9612 9.89256   2 
   5  -3   2 146.831 6.92949   2 
   6  -3   2 37.9444 6.17639   2 
  -6  -2   2 39.9092 5.26913  -1 
   6   2   4 39.9092 5.26913   2 
  -5  -2   2 26.3965 6.73080  -1 
   5   2   4 26.3965 6.73080   2 
  -4  -2   2 471.245 8.38427  -1 
   4   2   4 471.245 8.38427   2 
  -3  -2   2 5.62474 6.17419  -1 
   3   2   4 5.62474 6.17419   2 
  -2  -2   2 469.117 5.59280   2 
  -1  -2   2 1635.04 12.4408   2 
   0  -2   2 628.843 4.01444   2 
   0  -2   2 2277.55 36.2123  -1 
   0   2   3 2277.55 36.2123   2 
   1  -2   2 765.250 13.8873  -1 
  -1   2   3 765.250 13.8873   2 
   2  -2   2 395.893 4.33408  -1 
  -2   2   3 395.893 4.33408   2 
   3  -2   2 515.258 6.26020  -1 
  -3   2   3 515.258 6.26020   2 
   4  -2   2 181.437 5.17235  -1 
  -4   2   3 181.437 5.17235   2 
   5  -2   2 222.129 9.05829  -1 
  -5   2   3 222.129 9.05829   2 
   6  -2   2 96.5196 10.3914  -1 
  -6   2   3 96.5196 10.3914   2 
  -6  -1   2 176.340 10.0059  -1 
   6   1   3 176.340 10.0059   2 
  -5  -1   2 127.242 8.25190  -1 
   5   1   3 127.242 8.25190   2 
  -4  -1   2 292.447 7.30597  -1 
   4   1   3 292.447 7.30597   2 
  -3  -1   2 299.380 4.25398  -1 
   3   1   3 299.380 4.25398   2 
  -2  -1   2 153.860 3.02501  -1 
   2   1   3 153.860 3.02501   2 
  -1  -1   2 1019.36 12.2383  -1 
   1   1   3 1019.36 12.2383   2 
   1  -1   2 58.6685 2.15846   2 
   2  -1   2 167.864 2.64813   2 
   3  -1   2 250.999 3.97798   2 
   4  -1   2 391.822 11.1872  -1 
  -4   1   2 391.822 11.1872   2 
   5  -1   2 -2.3929 7.06782  -1 
  -5   1   2 -2.3929 7.06782   2 
   6  -1   2 21.7694 7.79222  -1 
  -6   1   2 21.7694 7.79222   2 
  -6   0   2 58.6675 15.6028  -1 
   6   0   3 58.6675 15.6028   2 
  -6   0   2 20.8381 4.77228   2 
  -5   0   2 1.81952 3.28049   2 
  -4   0   2 390.784 15.0205  -1 
   4   0   2 390.784 15.0205   2 
  -4   0   2 298.745 5.36391   2 
  -3   0   2 637.753 10.8191  -1 
   3   0   2 637.753 10.8191   2 
  -2   0   2 29.2864 4.03034  -1 
   2   0   2 29.2864 4.03034   2 
  -1   0   2 8.20237 2.61335  -1 
   1   0   2 8.20237 2.61335   2 
   0   0   2 973.373 7.71925  -1 
   0   0   2 973.373 7.71925   2 
   1   0   2 6.55933 2.58918  -1 
  -1   0   2 6.55933 2.58918   2 
   2   0   2 33.7275 3.73331  -1 
  -2   0   2 33.7275 3.73331   2 
   3   0   2 630.770 10.4357  -1 
  -3   0   2 630.770 10.4357   2 
   5   0   2 169.647 6.60519   2 
  -6   1   2 35.8192 7.31300  -1 
   6  -1   2 35.8192 7.31300   2 
  -5   1   2 11.1763 7.96376  -1 
   5  -1   2 11.1763 7.96376   2 
  -4   1   2 379.723 11.6890  -1 
   4  -1   2 379.723 11.6890   2 
  -3   1   2 114.248 3.10484   2 
  -2   1   2 60.0199 1.75102   2 
  -1   1   2 23.7090 1.04314   2 
   0   1   2 4.20678 0.92894   2 
   1   1   2 9999.99 109.625  -1 
  -1  -1   1 9999.99 109.625   2 
   2   1   2 679.593 5.91895  -1 
  -2  -1   1 679.593 5.91895   2 
   3   1   2 971.569 7.95516  -1 
  -3  -1   1 971.569 7.95516   2 
   4   1   2 190.267 6.33053  -1 
  -4  -1   1 190.267 6.33053   2 
   5   1   2 99.6774 9.08743  -1 
  -5  -1   1 99.6774 9.08743   2 
   6   1   2 -6.1625 10.4659  -1 
  -6  -1   1 -6.1625 10.4659   2 
  -6   2   2 143.701 11.9145  -1 
   6  -2   1 143.701 11.9145   2 
  -5   2   2 80.5750 6.99762  -1 
   5  -2   1 80.5750 6.99762   2 
  -4   2   2 178.410 5.41547  -1 
   4  -2   1 178.410 5.41547   2 
  -3   2   2 212.788 3.85336  -1 
   3  -2   1 212.788 3.85336   2 
  -2   2   2 543.326 5.79398  -1 
   2  -2   1 543.326 5.79398   2 
  -1   2   2 320.051 7.00961  -1 
   1  -2   1 320.051 7.00961   2 
   0   2   2 5451.05 87.9279  -1 
   0  -2   1 5451.05 87.9279   2 
   1   2   2 4415.98 29.1626   2 
   2   2   2 104.146 2.30041   2 
   3   2   2 146.041 6.64998  -1 
   3   2   0 146.041 6.64998   2 
   4   2   2 326.873 8.46220  -1 
   4   2   0 326.873 8.46220   2 
   5   2   2 272.703 9.55570  -1 
   5   2   0 272.703 9.55570   2 
   6   2   2 53.8916 7.32636  -1 
   6   2   0 53.8916 7.32636   2 
  -6   3   2 37.6270 5.60007   2 
  -5   3   2 244.613 19.4067  -1 
  -5   3   0 244.613 19.4067   2 
  -5   3   2 220.281 8.54645   2 
  -4   3   2 409.827 12.9161  -1 
  -4   3   0 409.827 12.9161   2 
  -3   3   2 255.707 6.71976  -1 
  -3   3   0 255.707 6.71976   2 
  -2   3   2 724.866 6.87398  -1 
  -2   3   0 724.866 6.87398   2 
  -1   3   2 363.952 3.47792  -1 
  -1   3   0 363.952 3.47792   2 
   0   3   2 334.296 4.08604  -1 
   0   3   0 334.296 4.08604   2 
   1   3   2 137.938 3.40362  -1 
   1   3   0 137.938 3.40362   2 
   2   3   2 139.333 5.27052  -1 
   2   3   0 139.333 5.27052   2 
   3   3   2 425.336 12.9183  -1 
   3   3   0 425.336 12.9183   2 
   4   3   2 42.9287 4.62403   2 
   5   3   2 35.4731 4.71425   2 
   6   3   2 162.314 14.8171  -1 
   6   3   1 162.314 14.8171   2 
  -5   4   2 58.5793 10.8771  -1 
  -5   4   0 58.5793 10.8771   2 
  -4   4   2 208.239 15.2804  -1 
  -4   4   0 208.239 15.2804   2 
  -3   4   2 70.0645 4.06652   2 
  -2   4   2 512.315 4.80041   2 
  -1   4   2 2.19839 1.43854   2 
  -1   4   2 7.79144 9.24426  -1 
  -1   4   1 7.79144 9.24426   2 
   0   4   2 422.653 6.22794  -1 
   0   4   1 422.653 6.22794   2 
   1   4   2 428.783 6.02306  -1 
   1   4   1 428.783 6.02306   2 
   2   4   2 94.3227 3.72919  -1 
   2   4   1 94.3227 3.72919   2 
   3   4   2 56.5558 3.89658  -1 
   3   4   1 56.5558 3.89658   2 
   4   4   2 33.8030 8.53269  -1 
   4   4   1 33.8030 8.53269   2 
   5   4   2 54.0106 9.30515  -1 
   5   4   1 54.0106 9.30515   2 
   6   4   2 8.57792 10.6801  -1 
   6   4   1 8.57792 10.6801   2 
  -5   5   2 29.6065 7.43704  -1 
  -5   5   1 29.6065 7.43704   2 
  -4   5   2 172.169 6.52533  -1 
  -4   5   1 172.169 6.52533   2 
  -3   5   2 24.2004 5.96560  -1 
  -3   5   1 24.2004 5.96560   2 
  -2   5   2 386.549 7.23430  -1 
  -2   5   1 386.549 7.23430   2 
  -1   5   2 12.2631 7.07216  -1 
  -1   5   1 12.2631 7.07216   2 
   0   5   2 28.8314 2.38141   2 
   1   5   2 29.2161 2.21752   2 
   2   5   2 19.4920 6.60929  -1 
   2   5   2 19.4920 6.60929   2 
   3   5   2 101.651 8.37237  -1 
   3   5   2 101.651 8.37237   2 
   4   5   2 -2.4857 7.69980  -1 
   4   5   2 -2.4857 7.69980   2 
   5   5   2 80.2188 7.34183  -1 
   5   5   2 80.2188 7.34183   2 
   6   5   2 84.2891 7.76179  -1 
   6   5   2 84.2891 7.76179   2 
  -5   6   2 13.1675 11.6452  -1 
  -5   6   2 13.1675 11.6452   2 
  -4   6   2 -1.7193 9.91828  -1 
  -4   6   2 -1.7193 9.91828   2 
  -3   6   2 61.2710 7.17226  -1 
  -3   6   2 61.2710 7.17226   2 
  -2   6   2 178.737 4.79755  -1 
  -2   6   2 178.737 4.79755   2 
  -1   6   2 123.621 3.91839  -1 
  -1   6   2 123.621 3.91839   2 
   0   6   2 478.421 7.60499  -1 
   0   6   2 478.421 7.60499   2 
   1   6   2 78.8399 6.01835  -1 
   1   6   2 78.8399 6.01835   2 
   2   6   2 166.081 8.37609  -1 
   2   6   2 166.081 8.37609   2 
   3   6   2 1.30184 4.09182   2 
   4   6   2 10.5410 4.13118   2 
   5   6   2 26.7429 13.4894  -1 
   5   6   3 26.7429 13.4894   2 
  -4   7   2 3.93468 4.67562   2 
  -3   7   2 14.3778 4.54723   2 
  -1   7   2 5.56112 5.82658  -1 
  -1   7   3 5.56112 5.82658   2 
   0   7   2 79.6650 5.75782  -1 
   0   7   3 79.6650 5.75782   2 
   1   7   2 60.0462 5.55292  -1 
   1   7   3 60.0462 5.55292   2 
   2   7   2 131.507 6.55018  -1 
   2   7   3 131.507 6.55018   2 
   3   7   2 173.397 7.99131  -1 
   3   7   3 173.397 7.99131   2 
   4   7   2 44.8003 9.11507  -1 
   4   7   3 44.8003 9.11507   2 
   5   7   2 54.0591 16.3334  -1 
   5   7   3 54.0591 16.3334   2 
  -3   8   2 -5.5904 9.45952  -1 
  -3   8   3 -5.5904 9.45952   2 
  -2   8   2 85.6046 8.14729  -1 
  -2   8   3 85.6046 8.14729   2 
  -1   8   2 40.8603 3.22201   2 
   0   8   2 98.5286 5.33544   2 
   1   8   2 10.5713 13.2352  -1 
   1   8   4 10.5713 13.2352   2 
   2   8   2 59.5558 8.73146  -1 
   2   8   4 59.5558 8.73146   2 
   3   8   2 10.8994 12.9876  -1 
   3   8   4 10.8994 12.9876   2 
   4   8   2 133.728 13.0019  -1 
   4   8   4 133.728 13.0019   2 
  -2   9   2 27.9387 3.89503  -1 
  -2   9   4 27.9387 3.89503   2 
  -1   9   2 114.983 6.45661  -1 
  -1   9   4 114.983 6.45661   2 
   0   9   2 20.0171 9.01850  -1 
   0   9   4 20.0171 9.01850   2 
   1   9   2 69.3146 13.8819  -1 
   1   9   4 69.3146 13.8819   2 
   2   9   2 53.4140 15.7031  -1 
   2   9   4 53.4140 15.7031   2 
   3   9   2 4.89831 6.56593   2 
  -1  10   2 0.16724 9.23452  -1 
  -1  10   5 0.16724 9.23452   2 
   0  10   2 57.8654 6.58327  -1 
   0  10   5 57.8654 6.58327   2 
   1  10   2 40.0513 7.02345  -1 
   1  10   5 40.0513 7.02345   2 
   2  10   2 22.2195 11.7382  -1 
   2  10   5 22.2195 11.7382   2 
  -1  -9   3 58.7213 14.0001  -1 
   1   9   9 58.7213 14.0001   2 
   0  -9   3 42.8946 11.5101  -1 
   0   9   9 42.8946 11.5101   2 
   1  -9   3 38.9004 9.42516  -1 
  -1   9   9 38.9004 9.42516   2 
  -3  -8   3 33.6768 14.0906  -1 
   3   8   9 33.6768 14.0906   2 
  -2  -8   3 120.747 14.3225  -1 
   2   8   9 120.747 14.3225   2 
   0  -8   3 71.5424 4.36806   2 
   1  -8   3 156.902 14.1887  -1 
  -1   8   8 156.902 14.1887   2 
   2  -8   3 46.0107 9.05529  -1 
  -2   8   8 46.0107 9.05529   2 
   3  -8   3 48.6406 10.3514  -1 
  -3   8   8 48.6406 10.3514   2 
  -4  -7   3 4.06861 13.9266  -1 
   4   7   8 4.06861 13.9266   2 
  -3  -7   3 28.5101 10.8777  -1 
   3   7   8 28.5101 10.8777   2 
  -2  -7   3 3.83344 8.84757  -1 
   2   7   8 3.83344 8.84757   2 
  -1  -7   3 23.7828 4.84986  -1 
   1   7   8 23.7828 4.84986   2 
   0  -7   3 181.156 6.40695  -1 
   0   7   8 181.156 6.40695   2 
   1  -7   3 24.5545 7.54467  -1 
  -1   7   8 24.5545 7.54467   2 
   2  -7   3 25.6993 12.4520  -1 
  -2   7   8 25.6993 12.4520   2 
   3  -7   3 10.4604 3.93102   2 
  -5  -6   3 31.1965 18.2521  -1 
   5   6   8 31.1965 18.2521   2 
  -4  -6   3 94.0707 6.63930   2 
  -3  -6   3 -1.3039 3.82072   2 
  -2  -6   3 688.272 12.9179  -1 
   2   6   7 688.272 12.9179   2 
  -1  -6   3 8.29873 4.35881  -1 
   1   6   7 8.29873 4.35881   2 
   0  -6   3 31.5412 3.90322  -1 
   0   6   7 31.5412 3.90322   2 
   1  -6   3 150.127 4.06852  -1 
  -1   6   7 150.127 4.06852   2 
   2  -6   3 95.0835 5.91252  -1 
  -2   6   7 95.0835 5.91252   2 
   3  -6   3 118.319 7.30597  -1 
  -3   6   7 118.319 7.30597   2 
   4  -6   3 3.88177 12.4890  -1 
  -4   6   7 3.88177 12.4890   2 
  -5  -5   3 4.31024 11.2855  -1 
   5   5   7 4.31024 11.2855   2 
  -4  -5   3 95.0979 14.1896  -1 
   4   5   7 95.0979 14.1896   2 
  -3  -5   3 233.661 8.07209  -1 
   3   5   7 233.661 8.07209   2 
  -1  -5   3 1.94987 2.57119   2 
   0  -5   3 45.6739 3.19532   2 
   1  -5   3 316.412 6.77313  -1 
  -1   5   6 316.412 6.77313   2 
   2  -5   3 229.682 6.50675  -1 
  -2   5   6 229.682 6.50675   2 
   3  -5   3 133.264 5.33541  -1 
  -3   5   6 133.264 5.33541   2 
   4  -5   3 43.5188 8.76877  -1 
  -4   5   6 43.5188 8.76877   2 
  -5  -4   3 141.904 17.0950  -1 
   5   4   6 141.904 17.0950   2 
  -4  -4   3 251.571 7.77256  -1 
   4   4   6 251.571 7.77256   2 
  -3  -4   3 193.034 5.24571  -1 
   3   4   6 193.034 5.24571   2 
  -2  -4   3 854.534 7.98059  -1 
   2   4   6 854.534 7.98059   2 
  -1  -4   3 395.783 4.12633  -1 
   1   4   6 395.783 4.12633   2 
   0  -4   3 220.595 4.37117  -1 
   0   4   6 220.595 4.37117   2 
   1  -4   3 289.323 5.38168  -1 
  -1   4   6 289.323 5.38168   2 
   2  -4   3 182.157 4.30607   2 
   3  -4   3 6.72248 3.53542   2 
   4  -4   3 189.680 13.9378  -1 
  -4   4   5 189.680 13.9378   2 
   5  -4   3 143.079 14.7299  -1 
  -5   4   5 143.079 14.7299   2 
  -6  -3   3 -0.1523 5.76522   2 
  -6  -3   3 -9.5828 19.6269  -1 
   6   3   6 -9.5828 19.6269   2 
  -5  -3   3 155.554 6.92232   2 
  -4  -3   3 5.47712 3.38257   2 
  -3  -3   3 78.0500 4.26062   2 
  -3  -3   3 94.0151 12.3698  -1 
   3   3   5 94.0151 12.3698   2 
  -2  -3   3 2077.69 19.3283  -1 
   2   3   5 2077.69 19.3283   2 
  -1  -3   3 948.065 8.23661  -1 
   1   3   5 948.065 8.23661   2 
   0  -3   3 1104.93 7.98159  -1 
   0   3   5 1104.93 7.98159   2 
   1  -3   3 76.5843 1.91699  -1 
  -1   3   5 76.5843 1.91699   2 
   2  -3   3 290.199 4.17567  -1 
  -2   3   5 290.199 4.17567   2 
   3  -3   3 86.7086 4.77551  -1 
  -3   3   5 86.7086 4.77551   2 
   4  -3   3 138.499 10.2368  -1 
  -4   3   5 138.499 10.2368   2 
   5  -3   3 1.74063 4.06107   2 
  -6  -2   3 103.779 8.87011  -1 
   6   2   5 103.779 8.87011   2 
  -5  -2   3 68.3272 6.92943  -1 
   5   2   5 68.3272 6.92943   2 
  -4  -2   3 639.817 9.36882  -1 
   4   2   5 639.817 9.36882   2 
  -3  -2   3 25.3498 6.61531  -1 
   3   2   5 25.3498 6.61531   2 
  -2  -2   3 5.57613 1.68603   2 
  -1  -2   3 262.008 3.13379   2 
   0  -2   3 571.350 3.56973   2 
   0  -2   3 604.818 10.7770  -1 
   0   2   4 604.818 10.7770   2 
   1  -2   3 89.1849 3.07753  -1 
  -1   2   4 89.1849 3.07753   2 
   2  -2   3 1495.56 10.7911  -1 
  -2   2   4 1495.56 10.7911   2 
   3  -2   3 153.801 3.60401  -1 
  -3   2   4 153.801 3.60401   2 
   4  -2   3 15.5083 4.20377  -1 
  -4   2   4 15.5083 4.20377   2 
   5  -2   3 84.4585 7.74401  -1 
  -5   2   4 84.4585 7.74401   2 
   6  -2   3 68.0236 12.7764  -1 
  -6   2   4 68.0236 12.7764   2 
  -6  -1   3 240.074 13.9420  -1 
   6   1   4 240.074 13.9420   2 
  -5  -1   3 205.933 8.55138  -1 
   5   1   4 205.933 8.55138   2 
  -4  -1   3 80.9208 5.22529  -1 
   4   1   4 80.9208 5.22529   2 
  -3  -1   3 417.670 4.94076  -1 
   3   1   4 417.670 4.94076   2 
  -2  -1   3 766.300 5.95766  -1 
   2   1   4 766.300 5.95766   2 
  -1  -1   3 381.032 6.32981  -1 
   1   1   4 381.032 6.32981   2 
   0  -1   3 983.490 15.6875  -1 
   0   1   4 983.490 15.6875   2 
   1  -1   3 137.645 2.47162   2 
   2  -1   3 256.515 3.20765   2 
   3  -1   3 11.6498 1.88886   2 
   4  -1   3 511.217 12.1224  -1 
  -4   1   3 511.217 12.1224   2 
   5  -1   3 10.0129 8.42410  -1 
  -5   1   3 10.0129 8.42410   2 
   6  -1   3 35.7333 7.89245  -1 
  -6   1   3 35.7333 7.89245   2 
  -6   0   3 60.8849 15.7396  -1 
   6   0   4 60.8849 15.7396   2 
  -6   0   3 19.1926 4.61692   2 
  -5   0   3 1.58147 3.16903   2 
  -4   0   3 83.3875 4.14698   2 
  -4   0   3 197.515 13.7721  -1 
   4   0   3 197.515 13.7721   2 
  -3   0   3 364.956 8.71060  -1 
   3   0   3 364.956 8.71060   2 
  -2   0   3 533.896 6.18805  -1 
   2   0   3 533.896 6.18805   2 
  -1   0   3 3216.22 20.3440  -1 
   1   0   3 3216.22 20.3440   2 
   0   0   3 4166.39 34.8638  -1 
   0   0   3 4166.39 34.8638   2 
   1   0   3 3001.54 26.8558  -1 
  -1   0   3 3001.54 26.8558   2 
   2   0   3 522.698 5.60703  -1 
  -2   0   3 522.698 5.60703   2 
   3   0   3 345.871 6.81186  -1 
  -3   0   3 345.871 6.81186   2 
   5   0   3 5.21629 3.70009   2 
  -6   1   3 51.6877 7.63937  -1 
   6  -1   3 51.6877 7.63937   2 
  -5   1   3 17.2139 7.80792  -1 
   5  -1   3 17.2139 7.80792   2 
  -4   1   3 509.831 10.7015  -1 
   4  -1   3 509.831 10.7015   2 
  -3   1   3 211.046 2.99015   2 
  -2   1   3 925.704 5.73396   2 
  -1   1   3 118.632 1.59008   2 
   0   1   3 121.079 3.40523   2 
   0   1   3 1157.04 19.2418  -1 
   0  -1   2 1157.04 19.2418   2 
   1   1   3 1055.12 12.5862  -1 
  -1  -1   2 1055.12 12.5862   2 
   2   1   3 148.683 3.32429  -1 
  -2  -1   2 148.683 3.32429   2 
   3   1   3 298.643 4.39077  -1 
  -3  -1   2 298.643 4.39077   2 
   4   1   3 282.822 6.79570  -1 
  -4  -1   2 282.822 6.79570   2 
   5   1   3 114.379 8.95641  -1 
  -5  -1   2 114.379 8.95641   2 
   6   1   3 173.891 11.1485  -1 
  -6  -1   2 173.891 11.1485   2 
  -6   2   3 85.5527 11.6490  -1 
   6  -2   2 85.5527 11.6490   2 
  -5   2   3 223.267 7.87830  -1 
   5  -2   2 223.267 7.87830   2 
  -4   2   3 187.616 5.76231  -1 
   4  -2   2 187.616 5.76231   2 
  -3   2   3 504.147 5.97978  -1 
   3  -2   2 504.147 5.97978   2 
  -2   2   3 383.974 5.06539  -1 
   2  -2   2 383.974 5.06539   2 
  -1   2   3 789.668 8.72080  -1 
   1  -2   2 789.668 8.72080   2 
   1   2   3 8399.38 50.6800   2 
   2   2   3 180.038 2.63523   2 
   3   2   3 103.460 6.53424  -1 
  -3  -2   1 103.460 6.53424   2 
   4   2   3 24.4832 7.04152  -1 
  -4  -2   1 24.4832 7.04152   2 
   5   2   3 34.1922 7.92543  -1 
  -5  -2   1 34.1922 7.92543   2 
   6   2   3 158.348 7.89630  -1 
  -6  -2   1 158.348 7.89630   2 
  -6   3   3 4.05409 6.93777   2 
  -5   3   3 74.2461 18.4634  -1 
   5  -3   1 74.2461 18.4634   2 
  -5   3   3 47.1705 5.07983   2 
  -4   3   3 24.0005 10.8863  -1 
   4  -3   1 24.0005 10.8863   2 
  -3   3   3 394.691 7.43501  -1 
   3  -3   1 394.691 7.43501   2 
  -2   3   3 212.107 4.12061  -1 
   2  -3   1 212.107 4.12061   2 
  -1   3   3 1964.98 14.0444  -1 
   1  -3   1 1964.98 14.0444   2 
   0   3   3 1515.52 9.66793  -1 
   0  -3   1 1515.52 9.66793   2 
   1   3   3 316.836 4.99114  -1 
  -1  -3   1 316.836 4.99114   2 
   2   3   3 255.083 6.23001  -1 
  -2  -3   1 255.083 6.23001   2 
   3   3   3 64.6987 9.60863  -1 
  -3  -3   1 64.6987 9.60863   2 
   4   3   3 4.66352 3.27277   2 
   5   3   3 44.5322 3.84964   2 
   6   3   3 37.5207 10.6659  -1 
   6   3   0 37.5207 10.6659   2 
  -5   4   3 113.613 9.38127  -1 
   5  -4   1 113.613 9.38127   2 
  -4   4   3 22.3214 10.6239  -1 
   4  -4   1 22.3214 10.6239   2 
  -3   4   3 179.453 4.91192   2 
  -2   4   3 418.896 3.72438   2 
  -1   4   3 209.432 7.60275  -1 
  -1   4   0 209.432 7.60275   2 
   0   4   3 83.7155 4.60885  -1 
   0   4   0 83.7155 4.60885   2 
   1   4   3 59.0045 3.93591  -1 
   1   4   0 59.0045 3.93591   2 
   2   4   3 31.0996 3.33799  -1 
   2   4   0 31.0996 3.33799   2 
   3   4   3 665.275 8.61145  -1 
   3   4   0 665.275 8.61145   2 
   4   4   3 139.145 8.66648  -1 
   4   4   0 139.145 8.66648   2 
   5   4   3 241.260 10.0279  -1 
   5   4   0 241.260 10.0279   2 
   6   4   3 5.58264 6.97075   2 
   6   4   3 125.172 11.0452  -1 
   6   4   0 125.172 11.0452   2 
  -5   5   3 0.59710 7.52491  -1 
  -5   5   0 0.59710 7.52491   2 
  -4   5   3 13.9317 5.48543  -1 
  -4   5   0 13.9317 5.48543   2 
  -3   5   3 748.046 11.2643  -1 
  -3   5   0 748.046 11.2643   2 
  -2   5   3 52.1679 6.09770  -1 
  -2   5   0 52.1679 6.09770   2 
  -1   5   3 984.099 20.7003  -1 
  -1   5   0 984.099 20.7003   2 
   0   5   3 32.1117 2.33522   2 
   1   5   3 12.9853 2.13191   2 
   2   5   3 122.260 7.14428  -1 
   2   5   1 122.260 7.14428   2 
   3   5   3 201.935 8.88282  -1 
   3   5   1 201.935 8.88282   2 
   4   5   3 8.03365 7.85418  -1 
   4   5   1 8.03365 7.85418   2 
   5   5   3 30.3052 7.18247  -1 
   5   5   1 30.3052 7.18247   2 
   6   5   3 70.8364 7.86816  -1 
   6   5   1 70.8364 7.86816   2 
  -5   6   3 81.4583 12.7424  -1 
  -5   6   1 81.4583 12.7424   2 
  -4   6   3 2.92581 10.2178  -1 
  -4   6   1 2.92581 10.2178   2 
  -3   6   3 596.004 10.2268  -1 
  -3   6   1 596.004 10.2268   2 
  -2   6   3 183.981 5.06402  -1 
  -2   6   1 183.981 5.06402   2 
  -1   6   3 237.412 4.93752  -1 
  -1   6   1 237.412 4.93752   2 
   0   6   3 6.84375 4.60017  -1 
   0   6   1 6.84375 4.60017   2 
   1   6   3 37.5509 5.86926  -1 
   1   6   1 37.5509 5.86926   2 
   2   6   3 250.499 12.7185  -1 
   2   6   1 250.499 12.7185   2 
   3   6   3 0.54170 3.87673   2 
   4   6   3 24.9136 4.18611   2 
   5   6   3 30.1813 10.3875  -1 
   5   6   2 30.1813 10.3875   2 
  -4   7   3 -1.3742 4.56812   2 
  -3   7   3 0.39964 3.41758   2 
  -2   7   3 122.698 10.4447  -1 
  -2   7   2 122.698 10.4447   2 
  -2   7   3 -0.5598 2.66457   2 
  -1   7   3 11.8647 7.99507  -1 
  -1   7   2 11.8647 7.99507   2 
   0   7   3 78.2527 5.80094  -1 
   0   7   2 78.2527 5.80094   2 
   1   7   3 66.5156 6.99221  -1 
   1   7   2 66.5156 6.99221   2 
   2   7   3 137.741 6.49764  -1 
   2   7   2 137.741 6.49764   2 
   3   7   3 208.315 8.21898  -1 
   3   7   2 208.315 8.21898   2 
   4   7   3 44.1017 9.05437  -1 
   4   7   2 44.1017 9.05437   2 
   5   7   3 56.0883 15.9821  -1 
   5   7   2 56.0883 15.9821   2 
  -3   8   3 4.02560 13.2261  -1 
  -3   8   2 4.02560 13.2261   2 
  -2   8   3 84.0369 8.16364  -1 
  -2   8   2 84.0369 8.16364   2 
  -1   8   3 20.8551 3.04691   2 
   0   8   3 175.337 5.62472   2 
   1   8   3 1.88756 12.9543  -1 
   1   8   3 1.88756 12.9543   2 
   2   8   3 20.9286 8.88875  -1 
   2   8   3 20.9286 8.88875   2 
   3   8   3 370.853 10.6536  -1 
   3   8   3 370.853 10.6536   2 
   4   8   3 23.3705 11.9391  -1 
   4   8   3 23.3705 11.9391   2 
  -2   9   3 77.5057 4.87367  -1 
  -2   9   3 77.5057 4.87367   2 
  -1   9   3 5.07393 6.06748  -1 
  -1   9   3 5.07393 6.06748   2 
   0   9   3 -6.3853 9.06586  -1 
   0   9   3 -6.3853 9.06586   2 
   1   9   3 13.5521 13.9272  -1 
   1   9   3 13.5521 13.9272   2 
   2   9   3 136.943 16.5151  -1 
   2   9   3 136.943 16.5151   2 
   3   9   3 34.6585 7.55625   2 
  -1  10   3 37.2501 9.78347  -1 
  -1  10   4 37.2501 9.78347   2 
   0  10   3 264.120 9.62218  -1 
   0  10   4 264.120 9.62218   2 
   1  10   3 26.0630 5.05706  -1 
   1  10   4 26.0630 5.05706   2 
   2  10   3 33.4343 11.9963  -1 
   2  10   4 33.4343 11.9963   2 
  -1  -9   4 56.4689 13.7140  -1 
   1   9  10 56.4689 13.7140   2 
   0  -9   4 53.1722 9.13032  -1 
   0   9  10 53.1722 9.13032   2 
  -3  -8   4 241.374 15.7567  -1 
   3   8  10 241.374 15.7567   2 
  -2  -8   4 42.2033 13.9599  -1 
   2   8  10 42.2033 13.9599   2 
  -1  -8   4 21.9795 4.55972   2 
  -1  -8   4 59.9205 8.07308  -1 
   1   8  10 59.9205 8.07308   2 
   0  -8   4 163.640 7.49940   2 
   1  -8   4 39.8832 13.1243  -1 
  -1   8   9 39.8832 13.1243   2 
   2  -8   4 76.3008 7.53763  -1 
  -2   8   9 76.3008 7.53763   2 
  -4  -7   4 10.8812 14.9094  -1 
   4   7   9 10.8812 14.9094   2 
  -3  -7   4 55.4916 11.4902  -1 
   3   7   9 55.4916 11.4902   2 
  -2  -7   4 77.2471 9.01183  -1 
   2   7   9 77.2471 9.01183   2 
  -1  -7   4 5.84298 7.28022  -1 
   1   7   9 5.84298 7.28022   2 
   0  -7   4 231.450 6.93621  -1 
   0   7   9 231.450 6.93621   2 
   1  -7   4 108.809 7.86907  -1 
  -1   7   9 108.809 7.86907   2 
   2  -7   4 136.848 12.3221  -1 
  -2   7   9 136.848 12.3221   2 
   3  -7   4 -1.2292 3.77159   2 
  -4  -6   4 12.5577 4.38498   2 
  -3  -6   4 96.6031 6.33548   2 
  -2  -6   4 894.135 20.8128  -1 
   2   6   8 894.135 20.8128   2 
  -1  -6   4 151.281 5.75252  -1 
   1   6   8 151.281 5.75252   2 
   0  -6   4 87.9787 3.74862  -1 
   0   6   8 87.9787 3.74862   2 
   1  -6   4 113.112 4.56115  -1 
  -1   6   8 113.112 4.56115   2 
   2  -6   4 15.5765 5.11781  -1 
  -2   6   8 15.5765 5.11781   2 
   3  -6   4 94.5468 7.17990  -1 
  -3   6   8 94.5468 7.17990   2 
  -5  -5   4 40.8011 11.5096  -1 
   5   5   8 40.8011 11.5096   2 
  -4  -5   4 58.6724 14.4076  -1 
   4   5   8 58.6724 14.4076   2 
  -3  -5   4 316.233 11.2054  -1 
   3   5   8 316.233 11.2054   2 
  -2  -5   4 261.150 10.3273  -1 
   2   5   8 261.150 10.3273   2 
  -2  -5   4 38.5840 3.93420   2 
  -1  -5   4 53.7309 3.59701   2 
   0  -5   4 60.7716 4.04751   2 
   1  -5   4 111.969 5.70874  -1 
  -1   5   7 111.969 5.70874   2 
   2  -5   4 236.483 6.54073  -1 
  -2   5   7 236.483 6.54073   2 
   3  -5   4 534.665 9.86251  -1 
  -3   5   7 534.665 9.86251   2 
   4  -5   4 11.6398 8.68344  -1 
  -4   5   7 11.6398 8.68344   2 
  -5  -4   4 122.187 17.5169  -1 
   5   4   7 122.187 17.5169   2 
  -4  -4   4 32.0448 9.23606  -1 
   4   4   7 32.0448 9.23606   2 
  -3  -4   4 201.044 4.99038  -1 
   3   4   7 201.044 4.99038   2 
  -2  -4   4 46.6229 4.05337  -1 
   2   4   7 46.6229 4.05337   2 
  -1  -4   4 55.0147 3.06463  -1 
   1   4   7 55.0147 3.06463   2 
   0  -4   4 309.794 4.98763  -1 
   0   4   7 309.794 4.98763   2 
   1  -4   4 62.0361 4.37057  -1 
  -1   4   7 62.0361 4.37057   2 
   2  -4   4 213.746 4.69211   2 
   3  -4   4 31.7376 3.88860   2 
   4  -4   4 312.824 15.3012  -1 
  -4   4   6 312.824 15.3012   2 
   5  -4   4 115.048 14.7939  -1 
  -5   4   6 115.048 14.7939   2 
  -6  -3   4 -7.8960 5.56038   2 
  -5  -3   4 43.8249 4.44193   2 
  -4  -3   4 3.70116 3.08926   2 
  -3  -3   4 56.3308 12.4323  -1 
   3   3   6 56.3308 12.4323   2 
  -3  -3   4 43.6173 3.40718   2 
  -2  -3   4 71.5617 4.15871  -1 
   2   3   6 71.5617 4.15871   2 
  -1  -3   4 110.731 2.83145  -1 
   1   3   6 110.731 2.83145   2 
   0  -3   4 537.261 5.25872  -1 
   0   3   6 537.261 5.25872   2 
   1  -3   4 1370.29 9.45763  -1 
  -1   3   6 1370.29 9.45763   2 
   2  -3   4 19.2987 3.38818  -1 
  -2   3   6 19.2987 3.38818   2 
   3  -3   4 436.617 8.30165  -1 
  -3   3   6 436.617 8.30165   2 
   4  -3   4 45.0205 13.0530  -1 
  -4   3   6 45.0205 13.0530   2 
   5  -3   4 64.7625 5.04974   2 
  -6  -2   4 11.4589 8.11721  -1 
   6   2   6 11.4589 8.11721   2 
  -5  -2   4 77.6631 7.11778  -1 
   5   2   6 77.6631 7.11778   2 
  -4  -2   4 106.903 7.00433  -1 
   4   2   6 106.903 7.00433   2 
  -3  -2   4 176.388 6.24345  -1 
   3   2   6 176.388 6.24345   2 
  -2  -2   4 269.908 4.07236   2 
  -1  -2   4 554.042 4.51684   2 
   0  -2   4 453.427 8.58046  -1 
   0   2   5 453.427 8.58046   2 
   0  -2   4 84.6093 1.70772   2 
   1  -2   4 453.065 4.60153  -1 
  -1   2   5 453.065 4.60153   2 
   2  -2   4 166.495 4.48358  -1 
  -2   2   5 166.495 4.48358   2 
   3  -2   4 268.571 4.07639  -1 
  -3   2   5 268.571 4.07639   2 
   4  -2   4 22.6602 3.95244  -1 
  -4   2   5 22.6602 3.95244   2 
   5  -2   4 20.5302 6.91935  -1 
  -5   2   5 20.5302 6.91935   2 
  -6  -1   4 87.0699 13.3330  -1 
   6   1   5 87.0699 13.3330   2 
  -5  -1   4 71.9180 7.97778  -1 
   5   1   5 71.9180 7.97778   2 
  -4  -1   4 23.7831 5.15456  -1 
   4   1   5 23.7831 5.15456   2 
  -3  -1   4 309.740 5.04877  -1 
   3   1   5 309.740 5.04877   2 
  -2  -1   4 134.767 3.06112  -1 
   2   1   5 134.767 3.06112   2 
  -1  -1   4 3006.67 23.0302  -1 
   1   1   5 3006.67 23.0302   2 
   0  -1   4 475.237 8.01331  -1 
   0   1   5 475.237 8.01331   2 
   1  -1   4 28.6735 1.50969   2 
   2  -1   4 4.88062 1.52008   2 
   3  -1   4 81.5278 4.00039   2 
   4  -1   4 319.663 10.8813  -1 
  -4   1   4 319.663 10.8813   2 
   5  -1   4 28.2361 8.03711  -1 
  -5   1   4 28.2361 8.03711   2 
   6  -1   4 12.2493 7.40458  -1 
  -6   1   4 12.2493 7.40458   2 
  -6   0   4 8.17727 4.13912   2 
  -6   0   4 84.5797 20.1167  -1 
   6   0   5 84.5797 20.1167   2 
  -5   0   4 -0.9161 3.65331   2 
  -4   0   4 3.75183 3.02243   2 
  -4   0   4 35.5189 10.3228  -1 
   4   0   4 35.5189 10.3228   2 
  -3   0   4 851.998 10.8763  -1 
   3   0   4 851.998 10.8763   2 
  -2   0   4 18.1649 3.31405  -1 
   2   0   4 18.1649 3.31405   2 
  -1   0   4 263.593 3.20330  -1 
   1   0   4 263.593 3.20330   2 
   0   0   4 0.42043 0.90210  -1 
   0   0   4 0.42043 0.90210   2 
   1   0   4 264.504 3.95790  -1 
  -1   0   4 264.504 3.95790   2 
   2   0   4 17.3478 3.14139  -1 
  -2   0   4 17.3478 3.14139   2 
   3   0   4 837.480 10.0852  -1 
  -3   0   4 837.480 10.0852   2 
   5   0   4 62.0270 4.34169   2 
  -6   1   4 10.6435 7.29811  -1 
   6  -1   4 10.6435 7.29811   2 
  -5   1   4 33.8921 8.12335  -1 
   5  -1   4 33.8921 8.12335   2 
  -4   1   4 327.437 9.78560  -1 
   4  -1   4 327.437 9.78560   2 
  -3   1   4 0.79058 1.44610   2 
  -2   1   4 125.242 1.84070   2 
  -1   1   4 0.27395 0.73445   2 
   0   1   4 1022.32 8.35806  -1 
   0  -1   3 1022.32 8.35806   2 
   1   1   4 378.298 5.78335  -1 
  -1  -1   3 378.298 5.78335   2 
   2   1   4 766.129 7.94718  -1 
  -2  -1   3 766.129 7.94718   2 
   3   1   4 408.180 4.97982  -1 
  -3  -1   3 408.180 4.97982   2 
   4   1   4 82.1572 5.65477  -1 
  -4  -1   3 82.1572 5.65477   2 
   5   1   4 198.054 9.15176  -1 
  -5  -1   3 198.054 9.15176   2 
   6   1   4 233.115 11.0017  -1 
  -6  -1   3 233.115 11.0017   2 
  -6   2   4 65.2274 9.61307  -1 
   6  -2   3 65.2274 9.61307   2 
  -5   2   4 79.5600 7.32123  -1 
   5  -2   3 79.5600 7.32123   2 
  -4   2   4 16.5621 4.50505  -1 
   4  -2   3 16.5621 4.50505   2 
  -3   2   4 162.213 4.77527  -1 
   3  -2   3 162.213 4.77527   2 
  -2   2   4 1557.56 11.9791  -1 
   2  -2   3 1557.56 11.9791   2 
  -1   2   4 92.5436 5.35970  -1 
   1  -2   3 92.5436 5.35970   2 
   1   2   4 15.7837 1.16877   2 
   2   2   4 181.847 2.68258   2 
   3   2   4 14.8573 6.34961  -1 
  -3  -2   2 14.8573 6.34961   2 
   4   2   4 457.070 8.90321  -1 
  -4  -2   2 457.070 8.90321   2 
   5   2   4 32.7188 7.83825  -1 
  -5  -2   2 32.7188 7.83825   2 
   6   2   4 42.2082 6.58538  -1 
  -6  -2   2 42.2082 6.58538   2 
  -6   3   4 39.7316 6.66320   2 
  -5   3   4 33.2558 4.76724   2 
  -4   3   4 1.03626 11.1604  -1 
   4  -3   2 1.03626 11.1604   2 
  -3   3   4 288.741 6.66995  -1 
   3  -3   2 288.741 6.66995   2 
  -2   3   4 59.2187 3.32090  -1 
   2  -3   2 59.2187 3.32090   2 
  -1   3   4 238.579 2.77627  -1 
   1  -3   2 238.579 2.77627   2 
   0   3   4 559.247 4.77825  -1 
   0  -3   2 559.247 4.77825   2 
   1   3   4 76.6413 3.64467  -1 
  -1  -3   2 76.6413 3.64467   2 
   2   3   4 1701.39 20.2475  -1 
  -2  -3   2 1701.39 20.2475   2 
   4   3   4 25.3751 3.15882   2 
   5   3   4 98.3672 5.93427   2 
   6   3   4 7.74090 10.1538  -1 
  -6  -3   1 7.74090 10.1538   2 
  -5   4   4 58.5504 9.52828  -1 
   5  -4   2 58.5504 9.52828   2 
  -4   4   4 381.185 12.8814  -1 
   4  -4   2 381.185 12.8814   2 
  -3   4   4 66.1976 3.31433   2 
  -2   4   4 46.2950 1.75403   2 
  -1   4   4 173.484 10.5866  -1 
   1  -4   1 173.484 10.5866   2 
   0   4   4 242.044 3.93421  -1 
   0  -4   1 242.044 3.93421   2 
   1   4   4 627.858 7.67072  -1 
  -1  -4   1 627.858 7.67072   2 
   2   4   4 221.313 4.53074  -1 
  -2  -4   1 221.313 4.53074   2 
   3   4   4 40.6798 4.65377  -1 
  -3  -4   1 40.6798 4.65377   2 
   4   4   4 62.0775 8.66095  -1 
  -4  -4   1 62.0775 8.66095   2 
   5   4   4 42.0129 9.28586  -1 
  -5  -4   1 42.0129 9.28586   2 
   6   4   4 29.7753 10.8876  -1 
  -6  -4   1 29.7753 10.8876   2 
  -5   5   4 13.6019 7.79494  -1 
   5  -5   1 13.6019 7.79494   2 
  -4   5   4 439.035 8.52204  -1 
   4  -5   1 439.035 8.52204   2 
  -3   5   4 4.24908 7.48053  -1 
   3  -5   1 4.24908 7.48053   2 
  -2   5   4 50.1861 7.62236  -1 
   2  -5   1 50.1861 7.62236   2 
  -1   5   4 215.323 11.7182  -1 
   1  -5   1 215.323 11.7182   2 
   0   5   4 90.4725 2.93638   2 
   1   5   4 8.59603 2.13219   2 
   2   5   4 140.312 7.44510  -1 
   2   5   0 140.312 7.44510   2 
   3   5   4 229.584 9.17479  -1 
   3   5   0 229.584 9.17479   2 
   4   5   4 102.199 8.30957  -1 
   4   5   0 102.199 8.30957   2 
   5   5   4 15.7638 7.20304  -1 
   5   5   0 15.7638 7.20304   2 
  -5   6   4 58.2067 12.8717  -1 
  -5   6   0 58.2067 12.8717   2 
  -4   6   4 -2.2797 8.66831  -1 
  -4   6   0 -2.2797 8.66831   2 
  -3   6   4 239.299 8.38366  -1 
  -3   6   0 239.299 8.38366   2 
  -2   6   4 35.6588 5.12564  -1 
  -2   6   0 35.6588 5.12564   2 
  -1   6   4 677.376 7.77186  -1 
  -1   6   0 677.376 7.77186   2 
   0   6   4 30.6266 4.75949  -1 
   0   6   0 30.6266 4.75949   2 
   1   6   4 92.1494 7.81752  -1 
   1   6   0 92.1494 7.81752   2 
   2   6   4 216.154 9.19566  -1 
   2   6   0 216.154 9.19566   2 
   3   6   4 3.07080 3.87340   2 
   4   6   4 36.4319 4.14451   2 
   5   6   4 0.08790 5.94605   2 
   5   6   4 0.50272 10.1810  -1 
   5   6   1 0.50272 10.1810   2 
  -4   7   4 0.71184 4.44287   2 
  -3   7   4 71.4107 4.28869   2 
  -2   7   4 84.2191 8.93989  -1 
  -2   7   1 84.2191 8.93989   2 
  -1   7   4 62.4702 8.34410  -1 
  -1   7   1 62.4702 8.34410   2 
   0   7   4 22.9482 6.94187  -1 
   0   7   1 22.9482 6.94187   2 
   1   7   4 158.775 7.56677  -1 
   1   7   1 158.775 7.56677   2 
   2   7   4 213.316 7.35760  -1 
   2   7   1 213.316 7.35760   2 
   3   7   4 45.1817 7.17750  -1 
   3   7   1 45.1817 7.17750   2 
   4   7   4 55.4234 9.08679  -1 
   4   7   1 55.4234 9.08679   2 
   5   7   4 20.0756 10.1628  -1 
   5   7   1 20.0756 10.1628   2 
  -3   8   4 39.8126 10.5884  -1 
  -3   8   1 39.8126 10.5884   2 
  -2   8   4 -2.9310 7.25929  -1 
  -2   8   1 -2.9310 7.25929   2 
  -1   8   4 2.98852 3.20527   2 
  -1   8   4 306.471 16.7863  -1 
  -1   8   1 306.471 16.7863   2 
   0   8   4 0.01721 2.50842   2 
   1   8   4 15.2042 12.8220  -1 
   1   8   2 15.2042 12.8220   2 
   2   8   4 50.2968 9.02312  -1 
   2   8   2 50.2968 9.02312   2 
   3   8   4 -0.0422 7.98421  -1 
   3   8   2 -0.0422 7.98421   2 
   4   8   4 119.563 8.54283  -1 
   4   8   2 119.563 8.54283   2 
  -2   9   4 22.2671 3.94002  -1 
  -2   9   2 22.2671 3.94002   2 
  -1   9   4 131.891 7.28053  -1 
  -1   9   2 131.891 7.28053   2 
   0   9   4 25.5112 9.26848  -1 
   0   9   2 25.5112 9.26848   2 
   1   9   4 65.2058 10.2340  -1 
   1   9   2 65.2058 10.2340   2 
   2   9   4 40.2945 15.7920  -1 
   2   9   2 40.2945 15.7920   2 
   3   9   4 21.9961 6.61602   2 
  -1  10   4 50.2571 8.42562  -1 
  -1  10   3 50.2571 8.42562   2 
   0  10   4 271.121 9.82589  -1 
   0  10   3 271.121 9.82589   2 
   1  10   4 29.0894 5.03721  -1 
   1  10   3 29.0894 5.03721   2 
   2  10   4 23.5851 11.7795  -1 
   2  10   3 23.5851 11.7795   2 
  -2  -8   5 21.1510 13.9425  -1 
   2   8  11 21.1510 13.9425   2 
  -1  -8   5 27.3263 7.97144  -1 
   1   8  11 27.3263 7.97144   2 
   0  -8   5 7.71698 4.50364   2 
   1  -8   5 32.7323 12.8032  -1 
  -1   8  10 32.7323 12.8032   2 
   2  -8   5 37.3776 9.13252  -1 
  -2   8  10 37.3776 9.13252   2 
  -3  -7   5 145.181 10.4951  -1 
   3   7  10 145.181 10.4951   2 
  -2  -7   5 7.04547 5.72949  -1 
   2   7  10 7.04547 5.72949   2 
  -1  -7   5 26.7555 5.52110  -1 
   1   7  10 26.7555 5.52110   2 
   0  -7   5 90.2014 6.07826  -1 
   0   7  10 90.2014 6.07826   2 
   1  -7   5 146.443 6.81366  -1 
  -1   7  10 146.443 6.81366   2 
   2  -7   5 36.5214 11.6642  -1 
  -2   7  10 36.5214 11.6642   2 
   3  -7   5 1.16684 4.75536   2 
  -4  -6   5 10.3586 4.10022   2 
  -3  -6   5 17.2309 3.95092   2 
  -2  -6   5 280.683 14.8821  -1 
   2   6   9 280.683 14.8821   2 
  -1  -6   5 34.8059 10.7146  -1 
   1   6   9 34.8059 10.7146   2 
   0  -6   5 205.903 5.51387  -1 
   0   6   9 205.903 5.51387   2 
   1  -6   5 120.357 5.35055  -1 
  -1   6   9 120.357 5.35055   2 
   2  -6   5 33.7840 5.24392  -1 
  -2   6   9 33.7840 5.24392   2 
   3  -6   5 45.1795 6.94380  -1 
  -3   6   9 45.1795 6.94380   2 
  -5  -5   5 21.2763 11.7649  -1 
   5   5   9 21.2763 11.7649   2 
  -4  -5   5 4.99090 14.3666  -1 
   4   5   9 4.99090 14.3666   2 
  -3  -5   5 29.3826 13.8647  -1 
   3   5   9 29.3826 13.8647   2 
  -2  -5   5 118.835 15.0246  -1 
   2   5   9 118.835 15.0246   2 
  -1  -5   5 19.5123 3.04257   2 
   0  -5   5 76.2410 4.97367   2 
   1  -5   5 65.7817 5.81145  -1 
  -1   5   8 65.7817 5.81145   2 
   2  -5   5 125.889 5.96753  -1 
  -2   5   8 125.889 5.96753   2 
   3  -5   5 126.686 6.80728  -1 
  -3   5   8 126.686 6.80728   2 
   4  -5   5 2.84763 8.58930  -1 
  -4   5   8 2.84763 8.58930   2 
  -5  -4   5 65.1183 17.4662  -1 
   5   4   8 65.1183 17.4662   2 
  -4  -4   5 7.58351 13.4753  -1 
   4   4   8 7.58351 13.4753   2 
  -3  -4   5 -1.3316 4.09120  -1 
   3   4   8 -1.3316 4.09120   2 
  -2  -4   5 122.837 3.70435  -1 
   2   4   8 122.837 3.70435   2 
  -1  -4   5 497.342 8.57938  -1 
   1   4   8 497.342 8.57938   2 
   0  -4   5 145.018 4.54288  -1 
   0   4   8 145.018 4.54288   2 
   1  -4   5 182.365 4.96607  -1 
  -1   4   8 182.365 4.96607   2 
   2  -4   5 386.241 4.86937   2 
   3  -4   5 53.3090 4.08471   2 
   4  -4   5 10.2689 13.2507  -1 
  -4   4   7 10.2689 13.2507   2 
  -5  -3   5 3.56636 3.52529   2 
  -4  -3   5 92.0165 4.86692   2 
  -3  -3   5 110.383 10.4913  -1 
   3   3   7 110.383 10.4913   2 
  -3  -3   5 94.1070 5.43074   2 
  -2  -3   5 61.8960 4.47606  -1 
   2   3   7 61.8960 4.47606   2 
  -1  -3   5 458.849 6.02592  -1 
   1   3   7 458.849 6.02592   2 
   0  -3   5 327.108 4.05686  -1 
   0   3   7 327.108 4.05686   2 
   1  -3   5 32.1245 1.74190  -1 
  -1   3   7 32.1245 1.74190   2 
   2  -3   5 167.334 4.09472  -1 
  -2   3   7 167.334 4.09472   2 
   3  -3   5 353.866 8.14252  -1 
  -3   3   7 353.866 8.14252   2 
   4  -3   5 61.5437 12.4329  -1 
  -4   3   7 61.5437 12.4329   2 
   5  -3   5 104.434 6.48761   2 
  -6  -2   5 104.887 9.14515  -1 
   6   2   7 104.887 9.14515   2 
  -5  -2   5 4.68517 9.85562  -1 
   5   2   7 4.68517 9.85562   2 
  -4  -2   5 482.928 8.53830  -1 
   4   2   7 482.928 8.53830   2 
  -3  -2   5 16.0016 7.97522  -1 
   3   2   7 16.0016 7.97522   2 
  -2  -2   5 1219.53 11.4654   2 
  -1  -2   5 1084.48 8.74836   2 
   1  -2   5 389.851 5.30904  -1 
  -1   2   6 389.851 5.30904   2 
   2  -2   5 241.282 4.79353  -1 
  -2   2   6 241.282 4.79353   2 
   3  -2   5 361.393 7.39706  -1 
  -3   2   6 361.393 7.39706   2 
   4  -2   5 62.9139 3.98399  -1 
  -4   2   6 62.9139 3.98399   2 
   5  -2   5 34.5984 11.1911  -1 
  -5   2   6 34.5984 11.1911   2 
  -6  -1   5 4.80113 13.0273  -1 
   6   1   6 4.80113 13.0273   2 
  -5  -1   5 25.0404 10.5581  -1 
   5   1   6 25.0404 10.5581   2 
  -4  -1   5 348.572 6.92694  -1 
   4   1   6 348.572 6.92694   2 
  -3  -1   5 399.418 5.81979  -1 
   3   1   6 399.418 5.81979   2 
  -2  -1   5 50.5349 2.92911  -1 
   2   1   6 50.5349 2.92911   2 
  -1  -1   5 819.143 7.15554  -1 
   1   1   6 819.143 7.15554   2 
   0  -1   5 220.891 6.83193  -1 
   0   1   6 220.891 6.83193   2 
   1  -1   5 256.247 3.14210   2 
   2  -1   5 40.3362 2.10893   2 
   3  -1   5 11.0355 2.61761   2 
   3  -1   5 173.603 9.69381  -1 
  -3   1   5 173.603 9.69381   2 
   4  -1   5 101.071 9.65726  -1 
  -4   1   5 101.071 9.65726   2 
   5  -1   5 38.3525 7.11589  -1 
  -5   1   5 38.3525 7.11589   2 
  -6   0   5 9.25152 19.6541  -1 
   6   0   6 9.25152 19.6541   2 
  -6   0   5 4.28882 5.45540   2 
  -5   0   5 231.110 6.89767   2 
  -4   0   5 67.5142 3.96967   2 
  -4   0   5 462.535 20.9245  -1 
   4   0   5 462.535 20.9245   2 
  -3   0   5 302.512 7.47985  -1 
   3   0   5 302.512 7.47985   2 
  -2   0   5 220.735 4.14364  -1 
   2   0   5 220.735 4.14364   2 
  -1   0   5 45.6522 2.17846  -1 
   1   0   5 45.6522 2.17846   2 
   0   0   5 52.3032 1.65042  -1 
   0   0   5 52.3032 1.65042   2 
   1   0   5 40.9414 2.28841  -1 
  -1   0   5 40.9414 2.28841   2 
   2   0   5 222.161 4.29724  -1 
  -2   0   5 222.161 4.29724   2 
   3   0   5 272.995 6.31054  -1 
  -3   0   5 272.995 6.31054   2 
   5   0   5 253.877 7.31741   2 
  -6   1   5 38.2152 10.8852  -1 
   6  -1   5 38.2152 10.8852   2 
  -5   1   5 28.8470 7.95184  -1 
   5  -1   5 28.8470 7.95184   2 
  -4   1   5 115.719 9.17782  -1 
   4  -1   5 115.719 9.17782   2 
  -2   1   5 21.5518 1.41757   2 
  -1   1   5 478.268 6.50585   2 
   0   1   5 473.494 4.25677  -1 
   0  -1   4 473.494 4.25677   2 
   1   1   5 2973.85 25.9167  -1 
  -1  -1   4 2973.85 25.9167   2 
   2   1   5 136.289 3.54161  -1 
  -2  -1   4 136.289 3.54161   2 
   3   1   5 299.681 4.34264  -1 
  -3  -1   4 299.681 4.34264   2 
   4   1   5 17.6027 5.61769  -1 
  -4  -1   4 17.6027 5.61769   2 
   5   1   5 75.3829 7.95100  -1 
  -5  -1   4 75.3829 7.95100   2 
   6   1   5 60.7333 9.53702  -1 
  -6  -1   4 60.7333 9.53702   2 
  -6   2   5 89.5690 12.6971  -1 
   6  -2   4 89.5690 12.6971   2 
  -5   2   5 17.0516 6.93560  -1 
   5  -2   4 17.0516 6.93560   2 
  -4   2   5 24.4228 4.94248  -1 
   4  -2   4 24.4228 4.94248   2 
  -3   2   5 288.151 5.84794  -1 
   3  -2   4 288.151 5.84794   2 
  -2   2   5 169.278 4.00218  -1 
   2  -2   4 169.278 4.00218   2 
  -1   2   5 497.796 6.78803  -1 
   1  -2   4 497.796 6.78803   2 
   1   2   5 269.969 2.68084   2 
   2   2   5 137.301 2.54191   2 
   3   2   5 23.5698 7.21262  -1 
  -3  -2   3 23.5698 7.21262   2 
   4   2   5 623.470 9.80132  -1 
  -4  -2   3 623.470 9.80132   2 
   5   2   5 75.7690 7.58598  -1 
  -5  -2   3 75.7690 7.58598   2 
   6   2   5 98.3654 7.06766  -1 
  -6  -2   3 98.3654 7.06766   2 
  -5   3   5 15.3593 4.06432   2 
  -4   3   5 138.663 9.66130  -1 
   4  -3   3 138.663 9.66130   2 
  -3   3   5 87.9078 6.01842  -1 
   3  -3   3 87.9078 6.01842   2 
  -2   3   5 296.746 4.45941  -1 
   2  -3   3 296.746 4.45941   2 
  -1   3   5 77.6910 2.32109  -1 
   1  -3   3 77.6910 2.32109   2 
   0   3   5 1057.12 7.89925  -1 
   0  -3   3 1057.12 7.89925   2 
   1   3   5 936.948 9.68505  -1 
  -1  -3   3 936.948 9.68505   2 
   2   3   5 1988.85 23.2308  -1 
  -2  -3   3 1988.85 23.2308   2 
   4   3   5 116.687 5.06886   2 
   5   3   5 5.74700 3.62789   2 
   6   3   5 11.6424 14.8629  -1 
  -6  -3   2 11.6424 14.8629   2 
  -5   4   5 151.727 10.1206  -1 
   5  -4   3 151.727 10.1206   2 
  -4   4   5 198.455 11.6106  -1 
   4  -4   3 198.455 11.6106   2 
  -3   4   5 60.6661 2.94791   2 
  -2   4   5 47.6838 1.87629   2 
  -1   4   5 1.02768 5.50424  -1 
   1  -4   2 1.02768 5.50424   2 
   0   4   5 231.345 3.77263  -1 
   0  -4   2 231.345 3.77263   2 
   1   4   5 2408.86 21.9081  -1 
  -1  -4   2 2408.86 21.9081   2 
   2   4   5 1271.97 12.6984  -1 
  -2  -4   2 1271.97 12.6984   2 
   3   4   5 116.253 5.01439  -1 
  -3  -4   2 116.253 5.01439   2 
   4   4   5 4.91842 8.11481  -1 
  -4  -4   2 4.91842 8.11481   2 
   5   4   5 59.1009 9.32625  -1 
  -5  -4   2 59.1009 9.32625   2 
   6   4   5 20.0507 10.8432  -1 
  -6  -4   2 20.0507 10.8432   2 
  -5   5   5 4.49713 6.44907  -1 
   5  -5   2 4.49713 6.44907   2 
  -4   5   5 144.728 6.43006  -1 
   4  -5   2 144.728 6.43006   2 
  -3   5   5 269.584 8.58214  -1 
   3  -5   2 269.584 8.58214   2 
  -2   5   5 182.592 5.04707  -1 
   2  -5   2 182.592 5.04707   2 
  -1   5   5 252.107 9.09214  -1 
   1  -5   2 252.107 9.09214   2 
   0   5   5 82.6492 2.11593   2 
   1   5   5 188.129 3.18206   2 
   2   5   5 70.7457 10.9114  -1 
  -2  -5   1 70.7457 10.9114   2 
   3   5   5 -5.0296 8.47783  -1 
  -3  -5   1 -5.0296 8.47783   2 
   4   5   5 250.319 9.05333  -1 
  -4  -5   1 250.319 9.05333   2 
   5   5   5 46.8509 7.25971  -1 
  -5  -5   1 46.8509 7.25971   2 
  -4   6   5 141.282 9.31889  -1 
   4  -6   1 141.282 9.31889   2 
  -3   6   5 13.8179 7.25085  -1 
   3  -6   1 13.8179 7.25085   2 
  -2   6   5 341.734 7.73699  -1 
   2  -6   1 341.734 7.73699   2 
  -1   6   5 318.005 6.43418  -1 
   1  -6   1 318.005 6.43418   2 
   0   6   5 116.439 6.37268  -1 
   0  -6   1 116.439 6.37268   2 
   1   6   5 57.4782 7.82686  -1 
  -1  -6   1 57.4782 7.82686   2 
   2   6   5 104.847 11.9931  -1 
  -2  -6   1 104.847 11.9931   2 
   3   6   5 10.4974 3.05352   2 
   4   6   5 36.8190 4.25640   2 
   5   6   5 7.48808 7.00596   2 
   5   6   5 41.9991 14.0752  -1 
   5   6   0 41.9991 14.0752   2 
  -4   7   5 -4.2777 4.24353   2 
  -3   7   5 13.4679 3.46699   2 
  -2   7   5 184.271 5.44339   2 
  -2   7   5 236.642 9.81464  -1 
  -2   7   0 236.642 9.81464   2 
  -1   7   5 194.909 8.73354  -1 
  -1   7   0 194.909 8.73354   2 
   0   7   5 39.7774 7.16890  -1 
   0   7   0 39.7774 7.16890   2 
   1   7   5 43.6085 7.15290  -1 
   1   7   0 43.6085 7.15290   2 
   2   7   5 39.1650 5.90563  -1 
   2   7   0 39.1650 5.90563   2 
   3   7   5 160.152 7.77543  -1 
   3   7   0 160.152 7.77543   2 
   4   7   5 20.8186 9.15525  -1 
   4   7   0 20.8186 9.15525   2 
   5   7   5 86.0135 10.7671  -1 
   5   7   0 86.0135 10.7671   2 
  -3   8   5 17.0129 10.3119  -1 
  -3   8   0 17.0129 10.3119   2 
  -2   8   5 20.2700 9.07113  -1 
  -2   8   0 20.2700 9.07113   2 
  -1   8   5 34.7536 3.30564   2 
  -1   8   5 281.005 16.3364  -1 
  -1   8   0 281.005 16.3364   2 
   0   8   5 12.1423 3.17945   2 
   1   8   5 32.3729 6.20789   2 
   1   8   5 111.638 13.7040  -1 
   1   8   1 111.638 13.7040   2 
   2   8   5 26.5341 13.5767  -1 
   2   8   1 26.5341 13.5767   2 
   3   8   5 36.9825 8.57377  -1 
   3   8   1 36.9825 8.57377   2 
   4   8   5 24.5596 7.58273  -1 
   4   8   1 24.5596 7.58273   2 
  -2   9   5 68.6868 4.66180  -1 
  -2   9   1 68.6868 4.66180   2 
  -1   9   5 191.309 9.24377  -1 
  -1   9   1 191.309 9.24377   2 
   0   9   5 13.7195 7.38728  -1 
   0   9   1 13.7195 7.38728   2 
   1   9   5 64.5156 8.63893  -1 
   1   9   1 64.5156 8.63893   2 
   3   9   5 34.0246 7.08738   2 
  -1  10   5 24.5467 8.19341  -1 
  -1  10   2 24.5467 8.19341   2 
   0  10   5 53.9785 8.36089  -1 
   0  10   2 53.9785 8.36089   2 
   1  10   5 31.9078 5.20467  -1 
   1  10   2 31.9078 5.20467   2 
   2  10   5 -1.1202 11.3082  -1 
   2  10   2 -1.1202 11.3082   2 
  -2  -8   6 18.0351 6.25855   2 
  -1  -8   6 39.3676 11.7494  -1 
   1   8  12 39.3676 11.7494   2 
   0  -8   6 0.82885 4.36067   2 
   1  -8   6 14.4672 6.91180   2 
  -3  -7   6 73.8043 10.6721  -1 
   3   7  11 73.8043 10.6721   2 
  -2  -7   6 6.67003 5.40765  -1 
   2   7  11 6.67003 5.40765   2 
  -1  -7   6 7.95974 5.40932  -1 
   1   7  11 7.95974 5.40932   2 
   0  -7   6 54.1356 5.47744  -1 
   0   7  11 54.1356 5.47744   2 
   1  -7   6 37.1127 10.6243  -1 
  -1   7  11 37.1127 10.6243   2 
   2  -7   6 40.3276 12.2942  -1 
  -2   7  11 40.3276 12.2942   2 
   3  -7   6 22.0577 5.46181   2 
  -4  -6   6 16.4148 4.25200   2 
  -3  -6   6 -1.6985 3.65652   2 
  -2  -6   6 73.2250 13.0487  -1 
   2   6  10 73.2250 13.0487   2 
  -1  -6   6 87.3612 6.89348  -1 
   1   6  10 87.3612 6.89348   2 
   0  -6   6 11.4202 4.87237  -1 
   0   6  10 11.4202 4.87237   2 
   1  -6   6 97.6118 5.01176  -1 
  -1   6  10 97.6118 5.01176   2 
   2  -6   6 105.950 5.70214  -1 
  -2   6  10 105.950 5.70214   2 
   3  -6   6 -0.9297 6.78973  -1 
  -3   6  10 -0.9297 6.78973   2 
  -4  -5   6 40.1429 15.2758  -1 
   4   5  10 40.1429 15.2758   2 
  -3  -5   6 51.8320 14.3875  -1 
   3   5  10 51.8320 14.3875   2 
  -2  -5   6 58.5982 14.1323  -1 
   2   5  10 58.5982 14.1323   2 
  -1  -5   6 1.56013 2.88124   2 
   1  -5   6 116.607 5.76796  -1 
  -1   5   9 116.607 5.76796   2 
   2  -5   6 184.098 7.25230  -1 
  -2   5   9 184.098 7.25230   2 
   3  -5   6 12.7049 9.74097  -1 
  -3   5   9 12.7049 9.74097   2 
   4  -5   6 67.6199 9.25195  -1 
  -4   5   9 67.6199 9.25195   2 
  -5  -4   6 59.3386 17.4693  -1 
   5   4   9 59.3386 17.4693   2 
  -4  -4   6 117.242 14.5924  -1 
   4   4   9 117.242 14.5924   2 
  -3  -4   6 219.851 7.74974  -1 
   3   4   9 219.851 7.74974   2 
  -2  -4   6 63.8589 3.37955  -1 
   2   4   9 63.8589 3.37955   2 
  -1  -4   6 127.032 6.21608  -1 
   1   4   9 127.032 6.21608   2 
   0  -4   6 57.3001 4.44608  -1 
   0   4   9 57.3001 4.44608   2 
   1  -4   6 103.852 4.10921  -1 
  -1   4   9 103.852 4.10921   2 
   2  -4   6 80.1352 3.33304   2 
   3  -4   6 -1.1978 3.34256   2 
  -5  -3   6 24.1695 3.88809   2 
  -4  -3   6 6.50941 3.29736   2 
  -3  -3   6 221.987 6.05060   2 
  -3  -3   6 272.442 11.6762  -1 
   3   3   8 272.442 11.6762   2 
  -2  -3   6 769.190 7.15826  -1 
   2   3   8 769.190 7.15826   2 
  -1  -3   6 12.8409 3.96964  -1 
   1   3   8 12.8409 3.96964   2 
   0  -3   6 259.958 3.68045  -1 
   0   3   8 259.958 3.68045   2 
   1  -3   6 249.647 2.99606  -1 
  -1   3   8 249.647 2.99606   2 
   2  -3   6 14.0340 3.62217  -1 
  -2   3   8 14.0340 3.62217   2 
   3  -3   6 259.007 7.68475  -1 
  -3   3   8 259.007 7.68475   2 
  -5  -2   6 32.4691 10.2122  -1 
   5   2   8 32.4691 10.2122   2 
  -4  -2   6 296.509 9.22586  -1 
   4   2   8 296.509 9.22586   2 
  -3  -2   6 55.7347 4.42812   2 
  -3  -2   6 131.782 8.57161  -1 
   3   2   8 131.782 8.57161   2 
  -2  -2   6 166.718 2.91827   2 
  -1  -2   6 270.068 3.92236   2 
   0  -2   6 4.98524 1.32666   2 
   0  -2   6 84.9604 8.23471  -1 
   0   2   7 84.9604 8.23471   2 
   1  -2   6 85.5926 4.08303  -1 
  -1   2   7 85.5926 4.08303   2 
   2  -2   6 526.671 6.67833  -1 
  -2   2   7 526.671 6.67833   2 
   3  -2   6 187.780 6.06514  -1 
  -3   2   7 187.780 6.06514   2 
   4  -2   6 41.9390 8.35409  -1 
  -4   2   7 41.9390 8.35409   2 
   5  -2   6 -2.4828 11.3568  -1 
  -5   2   7 -2.4828 11.3568   2 
  -5  -1   6 100.881 11.1093  -1 
   5   1   7 100.881 11.1093   2 
  -4  -1   6 81.5822 5.49321  -1 
   4   1   7 81.5822 5.49321   2 
  -3  -1   6 3.62295 3.05612  -1 
   3   1   7 3.62295 3.05612   2 
  -2  -1   6 24.2455 2.90848  -1 
   2   1   7 24.2455 2.90848   2 
  -1  -1   6 74.1826 3.76090  -1 
   1   1   7 74.1826 3.76090   2 
   0  -1   6 896.961 12.8755  -1 
   0   1   7 896.961 12.8755   2 
   1  -1   6 675.717 5.83782   2 
   2  -1   6 2.94194 1.71401   2 
   3  -1   6 266.405 13.2530  -1 
  -3   1   6 266.405 13.2530   2 
   4  -1   6 167.580 9.98639  -1 
  -4   1   6 167.580 9.98639   2 
   5  -1   6 143.772 12.7196  -1 
  -5   1   6 143.772 12.7196   2 
  -5   0   6 110.102 5.47682   2 
  -4   0   6 28.1525 2.79114   2 
  -4   0   6 82.9667 17.5368  -1 
   4   0   6 82.9667 17.5368   2 
  -3   0   6 151.905 6.43276  -1 
   3   0   6 151.905 6.43276   2 
  -2   0   6 96.4771 3.68330  -1 
   2   0   6 96.4771 3.68330   2 
  -1   0   6 250.498 3.15084  -1 
   1   0   6 250.498 3.15084   2 
   0   0   6 290.549 3.38298  -1 
   0   0   6 290.549 3.38298   2 
   1   0   6 255.666 3.79023  -1 
  -1   0   6 255.666 3.79023   2 
   2   0   6 95.2291 4.92768  -1 
  -2   0   6 95.2291 4.92768   2 
   3   0   6 139.140 7.94413  -1 
  -3   0   6 139.140 7.94413   2 
   5   0   6 1.93994 3.77362   2 
  -5   1   6 152.950 11.9024  -1 
   5  -1   6 152.950 11.9024   2 
  -4   1   6 179.377 8.97649  -1 
   4  -1   6 179.377 8.97649   2 
  -3   1   6 296.065 11.0679  -1 
   3  -1   6 296.065 11.0679   2 
  -2   1   6 22.4371 1.81039   2 
  -1   1   6 149.315 4.96196   2 
   0   1   6 221.424 4.00094  -1 
   0  -1   5 221.424 4.00094   2 
   1   1   6 841.672 8.23853  -1 
  -1  -1   5 841.672 8.23853   2 
   2   1   6 48.6732 2.64151  -1 
  -2  -1   5 48.6732 2.64151   2 
   3   1   6 362.585 5.23664  -1 
  -3  -1   5 362.585 5.23664   2 
   4   1   6 347.507 6.68153  -1 
  -4  -1   5 347.507 6.68153   2 
   5   1   6 29.1536 7.33153  -1 
  -5  -1   5 29.1536 7.33153   2 
  -5   2   6 20.1346 6.85946  -1 
   5  -2   5 20.1346 6.85946   2 
  -4   2   6 60.5428 5.93392  -1 
   4  -2   5 60.5428 5.93392   2 
  -3   2   6 385.006 6.48327  -1 
   3  -2   5 385.006 6.48327   2 
  -2   2   6 235.422 4.32802  -1 
   2  -2   5 235.422 4.32802   2 
  -1   2   6 379.713 5.87845  -1 
   1  -2   5 379.713 5.87845   2 
   0   2   6 56.4049 3.53400   2 
   0   2   6 69.3359 6.93856  -1 
   0  -2   5 69.3359 6.93856   2 
   1   2   6 362.913 4.38508   2 
   2   2   6 21.5776 1.44791   2 
   3   2   6 148.322 10.8676  -1 
  -3  -2   4 148.322 10.8676   2 
   4   2   6 109.837 7.02002  -1 
  -4  -2   4 109.837 7.02002   2 
   5   2   6 81.7955 7.52422  -1 
  -5  -2   4 81.7955 7.52422   2 
   6   2   6 26.5255 8.88999  -1 
  -6  -2   4 26.5255 8.88999   2 
  -5   3   6 89.9969 10.4636   2 
  -4   3   6 33.9345 9.23849  -1 
   4  -3   4 33.9345 9.23849   2 
  -3   3   6 433.760 7.85106  -1 
   3  -3   4 433.760 7.85106   2 
  -2   3   6 22.6128 4.06481  -1 
   2  -3   4 22.6128 4.06481   2 
  -1   3   6 1456.38 10.7724  -1 
   1  -3   4 1456.38 10.7724   2 
   0   3   6 535.999 5.62071  -1 
   0  -3   4 535.999 5.62071   2 
   1   3   6 125.014 3.66417  -1 
  -1  -3   4 125.014 3.66417   2 
   2   3   6 67.3916 5.59102  -1 
  -2  -3   4 67.3916 5.59102   2 
   4   3   6 37.6448 3.30509   2 
   5   3   6 7.50834 4.91068   2 
  -5   4   6 120.981 10.0586  -1 
   5  -4   4 120.981 10.0586   2 
  -4   4   6 366.556 12.8447  -1 
   4  -4   4 366.556 12.8447   2 
  -3   4   6 107.153 3.47458   2 
  -2   4   6 106.751 3.36163   2 
  -1   4   6 300.852 5.05868  -1 
   1  -4   3 300.852 5.05868   2 
   0   4   6 216.671 4.33347  -1 
   0  -4   3 216.671 4.33347   2 
   1   4   6 430.214 6.49729  -1 
  -1  -4   3 430.214 6.49729   2 
   2   4   6 845.352 11.4371  -1 
  -2  -4   3 845.352 11.4371   2 
   3   4   6 183.203 6.41923  -1 
  -3  -4   3 183.203 6.41923   2 
   4   4   6 233.871 8.70218  -1 
  -4  -4   3 233.871 8.70218   2 
   5   4   6 145.715 9.57606  -1 
  -5  -4   3 145.715 9.57606   2 
   6   4   6 2.07851 7.58624   2 
  -5   5   6 14.8876 6.50747  -1 
   5  -5   3 14.8876 6.50747   2 
  -4   5   6 55.7220 6.00656  -1 
   4  -5   3 55.7220 6.00656   2 
  -3   5   6 125.622 7.51782  -1 
   3  -5   3 125.622 7.51782   2 
  -2   5   6 258.861 5.67092  -1 
   2  -5   3 258.861 5.67092   2 
  -1   5   6 321.201 10.0546  -1 
   1  -5   3 321.201 10.0546   2 
   0   5   6 144.498 2.31253   2 
   1   5   6 241.319 3.95640   2 
   2   5   6 109.252 11.6445  -1 
  -2  -5   2 109.252 11.6445   2 
   3   5   6 7.01791 11.9177  -1 
  -3  -5   2 7.01791 11.9177   2 
   4   5   6 44.3260 7.80032  -1 
  -4  -5   2 44.3260 7.80032   2 
   5   5   6 16.4087 7.06720  -1 
  -5  -5   2 16.4087 7.06720   2 
  -4   6   6 123.906 9.45741  -1 
   4  -6   2 123.906 9.45741   2 
  -3   6   6 234.124 8.40277  -1 
   3  -6   2 234.124 8.40277   2 
  -2   6   6 104.002 6.35817  -1 
   2  -6   2 104.002 6.35817   2 
  -1   6   6 322.177 6.59720  -1 
   1  -6   2 322.177 6.59720   2 
   0   6   6 114.952 6.63040  -1 
   0  -6   2 114.952 6.63040   2 
   1   6   6 52.8270 6.98442  -1 
  -1  -6   2 52.8270 6.98442   2 
   2   6   6 141.012 13.2384  -1 
  -2  -6   2 141.012 13.2384   2 
   3   6   6 6.39518 2.95623   2 
   4   6   6 10.3523 6.43228   2 
   5   6   6 -0.5140 6.68245   2 
   5   6   6 80.7586 14.3895  -1 
  -5  -6   1 80.7586 14.3895   2 
  -3   7   6 7.15660 3.30997   2 
  -2   7   6 666.367 15.0238  -1 
   2  -7   1 666.367 15.0238   2 
  -1   7   6 53.4375 8.05344  -1 
   1  -7   1 53.4375 8.05344   2 
   0   7   6 360.237 8.89645  -1 
   0  -7   1 360.237 8.89645   2 
   1   7   6 16.3015 6.01915  -1 
  -1  -7   1 16.3015 6.01915   2 
   2   7   6 36.7987 5.74435  -1 
  -2  -7   1 36.7987 5.74435   2 
   3   7   6 172.192 8.18376  -1 
  -3  -7   1 172.192 8.18376   2 
   4   7   6 17.2304 8.95364  -1 
  -4  -7   1 17.2304 8.95364   2 
   5   7   6 20.1461 14.4851  -1 
  -5  -7   1 20.1461 14.4851   2 
   5   7   6 17.8315 6.68987   2 
  -3   8   6 39.2966 10.4289  -1 
   3  -8   1 39.2966 10.4289   2 
  -2   8   6 114.648 9.44995  -1 
   2  -8   1 114.648 9.44995   2 
  -1   8   6 40.0284 14.9375  -1 
   1  -8   1 40.0284 14.9375   2 
   0   8   6 101.772 6.03171   2 
   1   8   6 29.4431 10.2258  -1 
   1   8   0 29.4431 10.2258   2 
   2   8   6 83.1893 9.19911  -1 
   2   8   0 83.1893 9.19911   2 
   3   8   6 100.314 9.07600  -1 
   3   8   0 100.314 9.07600   2 
   4   8   6 8.97762 8.01974  -1 
   4   8   0 8.97762 8.01974   2 
  -2   9   6 4.18723 3.93259  -1 
  -2   9   0 4.18723 3.93259   2 
  -1   9   6 60.7813 6.96728  -1 
  -1   9   0 60.7813 6.96728   2 
   0   9   6 10.0449 7.42865  -1 
   0   9   0 10.0449 7.42865   2 
   1   9   6 24.5276 8.39125  -1 
   1   9   0 24.5276 8.39125   2 
   2   9   6 34.1658 6.47425   2 
   3   9   6 1.92948 6.59450   2 
  -1  10   6 42.3965 8.40961  -1 
  -1  10   1 42.3965 8.40961   2 
   0  10   6 46.0130 9.12751  -1 
   0  10   1 46.0130 9.12751   2 
   1  10   6 10.7877 4.89239  -1 
   1  10   1 10.7877 4.89239   2 
   2  10   6 24.4059 12.3513  -1 
   2  10   1 24.4059 12.3513   2 
  -2  -7   7 31.4520 5.86418  -1 
   2   7  12 31.4520 5.86418   2 
  -1  -7   7 3.59422 8.26355  -1 
   1   7  12 3.59422 8.26355   2 
   0  -7   7 22.7309 8.96460  -1 
   0   7  12 22.7309 8.96460   2 
   1  -7   7 44.6054 11.1077  -1 
  -1   7  12 44.6054 11.1077   2 
   2  -7   7 52.8767 12.2466  -1 
  -2   7  12 52.8767 12.2466   2 
  -3  -6   7 36.4311 4.20407   2 
  -2  -6   7 14.5120 12.8328  -1 
   2   6  11 14.5120 12.8328   2 
  -1  -6   7 184.323 7.25354  -1 
   1   6  11 184.323 7.25354   2 
   0  -6   7 -3.6310 4.84461  -1 
   0   6  11 -3.6310 4.84461   2 
   1  -6   7 238.211 8.68695  -1 
  -1   6  11 238.211 8.68695   2 
   2  -6   7 37.3177 7.39446  -1 
  -2   6  11 37.3177 7.39446   2 
   3  -6   7 28.7223 11.6318  -1 
  -3   6  11 28.7223 11.6318   2 
  -4  -5   7 17.8551 11.5666  -1 
   4   5  11 17.8551 11.5666   2 
  -3  -5   7 48.1748 14.8941  -1 
   3   5  11 48.1748 14.8941   2 
  -2  -5   7 4.50252 3.18730   2 
  -2  -5   7 -2.0962 13.8585  -1 
   2   5  11 -2.0962 13.8585   2 
  -1  -5   7 91.0632 5.43052   2 
   0  -5   7 93.0414 6.23154   2 
   1  -5   7 215.842 6.90742  -1 
  -1   5  10 215.842 6.90742   2 
   2  -5   7 115.704 6.73614  -1 
  -2   5  10 115.704 6.73614   2 
   3  -5   7 40.8042 9.87535  -1 
  -3   5  10 40.8042 9.87535   2 
  -5  -4   7 83.4774 18.0454  -1 
   5   4  10 83.4774 18.0454   2 
  -4  -4   7 86.7323 15.2514  -1 
   4   4  10 86.7323 15.2514   2 
  -3  -4   7 105.138 6.79369  -1 
   3   4  10 105.138 6.79369   2 
  -2  -4   7 535.077 7.65612  -1 
   2   4  10 535.077 7.65612   2 
  -1  -4   7 404.144 8.32988  -1 
   1   4  10 404.144 8.32988   2 
   0  -4   7 100.029 4.88769  -1 
   0   4  10 100.029 4.88769   2 
   1  -4   7 315.260 5.38086  -1 
  -1   4  10 315.260 5.38086   2 
   2  -4   7 7.18074 2.40609   2 
   3  -4   7 1.86855 4.28340   2 
  -5  -3   7 37.7115 6.31579   2 
  -4  -3   7 7.85832 3.15077   2 
  -3  -3   7 6.82992 10.7631  -1 
   3   3   9 6.82992 10.7631   2 
  -3  -3   7 4.09937 2.79749   2 
  -2  -3   7 -2.0185 6.68234  -1 
   2   3   9 -2.0185 6.68234   2 
  -1  -3   7 102.678 4.59043  -1 
   1   3   9 102.678 4.59043   2 
   0  -3   7 64.5201 3.41769  -1 
   0   3   9 64.5201 3.41769   2 
   1  -3   7 2.84182 3.50497  -1 
  -1   3   9 2.84182 3.50497   2 
   2  -3   7 44.9089 3.80611  -1 
  -2   3   9 44.9089 3.80611   2 
   3  -3   7 355.760 10.5518  -1 
  -3   3   9 355.760 10.5518   2 
   4  -3   7 210.064 14.6014  -1 
  -4   3   9 210.064 14.6014   2 
   5  -3   7 2.89836 5.47746   2 
  -5  -2   7 7.92686 10.2539  -1 
   5   2   9 7.92686 10.2539   2 
  -4  -2   7 5.82131 9.72633  -1 
   4   2   9 5.82131 9.72633   2 
  -3  -2   7 51.5094 8.55339  -1 
   3   2   9 51.5094 8.55339   2 
  -3  -2   7 18.6073 4.84535   2 
  -2  -2   7 21.6378 2.03729   2 
  -1  -2   7 27.8412 1.90494   2 
   1  -2   7 183.793 17.6633  -1 
  -1   2   8 183.793 17.6633   2 
   2  -2   7 321.449 5.21823  -1 
  -2   2   8 321.449 5.21823   2 
   3  -2   7 378.957 7.89506  -1 
  -3   2   8 378.957 7.89506   2 
   4  -2   7 354.259 11.4663  -1 
  -4   2   8 354.259 11.4663   2 
   5  -2   7 18.4238 11.9116  -1 
  -5   2   8 18.4238 11.9116   2 
  -5  -1   7 13.3877 10.8330  -1 
   5   1   8 13.3877 10.8330   2 
  -4  -1   7 40.0795 5.96579  -1 
   4   1   8 40.0795 5.96579   2 
  -3  -1   7 178.472 4.55450  -1 
   3   1   8 178.472 4.55450   2 
  -2  -1   7 342.711 4.29307  -1 
   2   1   8 342.711 4.29307   2 
  -1  -1   7 262.341 4.52893  -1 
   1   1   8 262.341 4.52893   2 
   0  -1   7 25.0956 7.24356  -1 
   0   1   8 25.0956 7.24356   2 
   2  -1   7 21.5230 2.28703   2 
   4  -1   7 94.5397 12.8849  -1 
  -4   1   7 94.5397 12.8849   2 
   5  -1   7 17.6848 12.5266  -1 
  -5   1   7 17.6848 12.5266   2 
  -5   0   7 8.38016 5.89009   2 
  -4   0   7 4.03096 11.6506  -1 
   4   0   7 4.03096 11.6506   2 
  -4   0   7 0.04067 4.79759   2 
  -3   0   7 277.806 7.12776  -1 
   3   0   7 277.806 7.12776   2 
  -2   0   7 293.629 5.36701  -1 
   2   0   7 293.629 5.36701   2 
  -1   0   7 175.434 2.49758  -1 
   1   0   7 175.434 2.49758   2 
   0   0   7 1943.26 15.5020  -1 
   0   0   7 1943.26 15.5020   2 
   1   0   7 172.818 3.16094  -1 
  -1   0   7 172.818 3.16094   2 
   2   0   7 281.745 8.89437  -1 
  -2   0   7 281.745 8.89437   2 
   3   0   7 305.392 9.20414  -1 
  -3   0   7 305.392 9.20414   2 
   5   0   7 9.52593 5.37745   2 
  -5   1   7 30.8622 11.6354  -1 
   5  -1   7 30.8622 11.6354   2 
  -4   1   7 91.3566 8.33078  -1 
   4  -1   7 91.3566 8.33078   2 
  -3   1   7 190.323 10.6436  -1 
   3  -1   7 190.323 10.6436   2 
  -3   1   7 57.9237 4.41128   2 
  -2   1   7 45.4424 2.89916   2 
  -1   1   7 164.865 5.48494   2 
   0   1   7 913.063 9.34134  -1 
   0  -1   6 913.063 9.34134   2 
   1   1   7 73.5852 4.00123  -1 
  -1  -1   6 73.5852 4.00123   2 
   2   1   7 21.2830 2.87002  -1 
  -2  -1   6 21.2830 2.87002   2 
   3   1   7 6.94886 2.44923  -1 
  -3  -1   6 6.94886 2.44923   2 
   4   1   7 75.3206 4.59990  -1 
  -4  -1   6 75.3206 4.59990   2 
   5   1   7 79.8347 7.02804  -1 
  -5  -1   6 79.8347 7.02804   2 
   6   1   7 20.6496 6.09586   2 
  -5   2   7 9.19036 9.97583  -1 
   5  -2   6 9.19036 9.97583   2 
  -4   2   7 48.1332 4.96298  -1 
   4  -2   6 48.1332 4.96298   2 
  -3   2   7 210.589 5.80921  -1 
   3  -2   6 210.589 5.80921   2 
  -2   2   7 575.808 6.75769  -1 
   2  -2   6 575.808 6.75769   2 
  -1   2   7 82.8650 3.60002  -1 
   1  -2   6 82.8650 3.60002   2 
   1   2   7 50.9865 2.67013   2 
   2   2   7 6.33137 1.50224   2 
   3   2   7 10.4253 11.1350  -1 
  -3  -2   5 10.4253 11.1350   2 
   4   2   7 458.132 8.26255  -1 
  -4  -2   5 458.132 8.26255   2 
   5   2   7 13.9740 6.83365  -1 
  -5  -2   5 13.9740 6.83365   2 
  -5   3   7 7.23242 6.44343   2 
  -4   3   7 69.8173 9.22817  -1 
   4  -3   5 69.8173 9.22817   2 
  -3   3   7 339.906 7.48880  -1 
   3  -3   5 339.906 7.48880   2 
  -2   3   7 171.799 4.98766  -1 
   2  -3   5 171.799 4.98766   2 
  -1   3   7 35.5624 2.27812  -1 
   1  -3   5 35.5624 2.27812   2 
   0   3   7 328.012 5.08379  -1 
   0  -3   5 328.012 5.08379   2 
   1   3   7 463.294 5.46522  -1 
  -1  -3   5 463.294 5.46522   2 
   2   3   7 66.3628 8.69409  -1 
  -2  -3   5 66.3628 8.69409   2 
   4   3   7 49.8243 3.32864   2 
   5   3   7 16.2276 5.09385   2 
  -5   4   7 120.071 12.8787  -1 
   5  -4   5 120.071 12.8787   2 
  -4   4   7 -5.1011 10.9721  -1 
   4  -4   5 -5.1011 10.9721   2 
  -3   4   7 63.0648 3.55730   2 
  -2   4   7 257.619 5.06987   2 
  -1   4   7 42.8815 4.47128  -1 
   1  -4   4 42.8815 4.47128   2 
   0   4   7 324.052 8.19351  -1 
   0  -4   4 324.052 8.19351   2 
   1   4   7 55.8913 4.90855  -1 
  -1  -4   4 55.8913 4.90855   2 
   2   4   7 49.1366 5.21498  -1 
  -2  -4   4 49.1366 5.21498   2 
   3   4   7 188.002 6.81727  -1 
  -3  -4   4 188.002 6.81727   2 
   4   4   7 23.9602 6.93048  -1 
  -4  -4   4 23.9602 6.93048   2 
   5   4   7 109.619 9.36553  -1 
  -5  -4   4 109.619 9.36553   2 
  -5   5   7 16.5263 8.43168  -1 
   5  -5   4 16.5263 8.43168   2 
  -4   5   7 20.8378 6.07640  -1 
   4  -5   4 20.8378 6.07640   2 
  -3   5   7 562.569 9.90373  -1 
   3  -5   4 562.569 9.90373   2 
  -2   5   7 252.493 6.40699  -1 
   2  -5   4 252.493 6.40699   2 
  -1   5   7 123.443 9.17767  -1 
   1  -5   4 123.443 9.17767   2 
   0   5   7 0.94801 1.42255   2 
   1   5   7 84.3658 2.43665   2 
   2   5   7 131.862 3.76088   2 
   2   5   7 383.421 14.8597  -1 
  -2  -5   3 383.421 14.8597   2 
   3   5   7 221.197 9.30467  -1 
  -3  -5   3 221.197 9.30467   2 
   4   5   7 104.216 7.83557  -1 
  -4  -5   3 104.216 7.83557   2 
   5   5   7 3.68924 6.89995  -1 
  -5  -5   3 3.68924 6.89995   2 
  -4   6   7 -0.3296 8.94536  -1 
   4  -6   3 -0.3296 8.94536   2 
  -3   6   7 131.292 7.88481  -1 
   3  -6   3 131.292 7.88481   2 
  -2   6   7 99.3728 6.32315  -1 
   2  -6   3 99.3728 6.32315   2 
  -1   6   7 143.905 5.76973  -1 
   1  -6   3 143.905 5.76973   2 
   0   6   7 44.3960 6.30293  -1 
   0  -6   3 44.3960 6.30293   2 
   1   6   7 1.50626 6.96915  -1 
  -1  -6   3 1.50626 6.96915   2 
   2   6   7 692.169 18.9653  -1 
  -2  -6   3 692.169 18.9653   2 
   3   6   7 5.34408 4.00628   2 
   4   6   7 9.34944 6.93871   2 
   5   6   7 64.2978 8.49893   2 
  -4   7   7 -11.267 16.8172  -1 
   4  -7   3 -11.267 16.8172   2 
  -3   7   7 172.378 7.44493   2 
  -2   7   7 481.258 13.8544  -1 
   2  -7   2 481.258 13.8544   2 
  -1   7   7 23.9980 7.57714  -1 
   1  -7   2 23.9980 7.57714   2 
   0   7   7 192.318 7.90927  -1 
   0  -7   2 192.318 7.90927   2 
   1   7   7 178.095 6.67002  -1 
  -1  -7   2 178.095 6.67002   2 
   2   7   7 100.137 6.25511  -1 
  -2  -7   2 100.137 6.25511   2 
   3   7   7 74.5503 7.68633  -1 
  -3  -7   2 74.5503 7.68633   2 
   4   7   7 1.16083 9.13817  -1 
  -4  -7   2 1.16083 9.13817   2 
  -3   8   7 12.5783 8.71204  -1 
   3  -8   2 12.5783 8.71204   2 
  -2   8   7 52.7886 9.39330  -1 
   2  -8   2 52.7886 9.39330   2 
  -1   8   7 104.867 15.6608  -1 
   1  -8   2 104.867 15.6608   2 
   0   8   7 41.3780 3.65029   2 
   1   8   7 26.8556 15.4636  -1 
  -1  -8   1 26.8556 15.4636   2 
   1   8   7 20.4323 5.43899   2 
   2   8   7 41.9097 9.23969  -1 
  -2  -8   1 41.9097 9.23969   2 
   3   8   7 56.9279 8.96437  -1 
  -3  -8   1 56.9279 8.96437   2 
   4   8   7 9.34891 8.03610  -1 
  -4  -8   1 9.34891 8.03610   2 
  -2   9   7 6.71023 4.09510  -1 
   2  -9   1 6.71023 4.09510   2 
  -1   9   7 68.3034 6.98312  -1 
   1  -9   1 68.3034 6.98312   2 
   0   9   7 50.0135 7.69369  -1 
   0  -9   1 50.0135 7.69369   2 
   1   9   7 37.6817 8.41443  -1 
  -1  -9   1 37.6817 8.41443   2 
   2   9   7 13.3485 15.5991  -1 
  -2  -9   1 13.3485 15.5991   2 
   2   9   7 -8.5593 5.44933   2 
   3   9   7 3.28203 6.50865   2 
   0  10   7 10.9898 9.15350  -1 
   0  10   0 10.9898 9.15350   2 
   1  10   7 74.2245 5.88494  -1 
   1  10   0 74.2245 5.88494   2 
  -2  -7   8 7.91093 8.10948  -1 
   2   7  13 7.91093 8.10948   2 
  -1  -7   8 17.7589 9.23766  -1 
   1   7  13 17.7589 9.23766   2 
   0  -7   8 22.1563 9.53304  -1 
   0   7  13 22.1563 9.53304   2 
   1  -7   8 59.5239 10.9710  -1 
  -1   7  13 59.5239 10.9710   2 
  -1  -6   8 3.66009 9.46760  -1 
   1   6  12 3.66009 9.46760   2 
   0  -6   8 -13.972 8.51601  -1 
   0   6  12 -13.972 8.51601   2 
   1  -6   8 114.972 7.32291  -1 
  -1   6  12 114.972 7.32291   2 
   2  -6   8 34.3462 7.68375  -1 
  -2   6  12 34.3462 7.68375   2 
  -4  -5   8 49.6086 15.4255  -1 
   4   5  12 49.6086 15.4255   2 
  -3  -5   8 108.067 15.3652  -1 
   3   5  12 108.067 15.3652   2 
  -2  -5   8 10.2095 3.16872   2 
  -2  -5   8 2.20689 13.9345  -1 
   2   5  12 2.20689 13.9345   2 
  -1  -5   8 23.2140 5.30381   2 
   0  -5   8 2.38938 5.02376   2 
   1  -5   8 21.5785 8.11612  -1 
  -1   5  11 21.5785 8.11612   2 
   2  -5   8 -6.6361 9.28761  -1 
  -2   5  11 -6.6361 9.28761   2 
   3  -5   8 26.5414 9.76136  -1 
  -3   5  11 26.5414 9.76136   2 
  -4  -4   8 12.6965 9.22672  -1 
   4   4  11 12.6965 9.22672   2 
  -3  -4   8 -1.5765 6.26442  -1 
   3   4  11 -1.5765 6.26442   2 
  -2  -4   8 31.3939 5.65155  -1 
   2   4  11 31.3939 5.65155   2 
  -1  -4   8 245.194 5.56662  -1 
   1   4  11 245.194 5.56662   2 
   0  -4   8 134.808 4.94281  -1 
   0   4  11 134.808 4.94281   2 
   1  -4   8 175.554 5.78827  -1 
  -1   4  11 175.554 5.78827   2 
   2  -4   8 -3.0609 2.95713   2 
   3  -4   8 19.3097 3.60498   2 
  -4  -3   8 5.50861 4.95037   2 
  -3  -3   8 33.8547 10.3007  -1 
   3   3  10 33.8547 10.3007   2 
  -3  -3   8 12.8755 4.66137   2 
  -2  -3   8 181.790 7.51698  -1 
   2   3  10 181.790 7.51698   2 
  -1  -3   8 60.2293 4.43371  -1 
   1   3  10 60.2293 4.43371   2 
   0  -3   8 284.904 5.48136  -1 
   0   3  10 284.904 5.48136   2 
   1  -3   8 125.494 8.11550  -1 
  -1   3  10 125.494 8.11550   2 
   2  -3   8 61.9087 3.70465  -1 
  -2   3  10 61.9087 3.70465   2 
   3  -3   8 222.266 9.41438  -1 
  -3   3  10 222.266 9.41438   2 
   4  -3   8 42.9317 13.1990  -1 
  -4   3  10 42.9317 13.1990   2 
  -5  -2   8 20.3031 16.3368  -1 
   5   2  10 20.3031 16.3368   2 
  -4  -2   8 97.2388 10.3703  -1 
   4   2  10 97.2388 10.3703   2 
  -3  -2   8 139.380 10.1359  -1 
   3   2  10 139.380 10.1359   2 
  -2  -2   8 30.6225 4.29755   2 
  -1  -2   8 73.7791 6.30475   2 
   1  -2   8 51.6639 20.0595  -1 
  -1   2   9 51.6639 20.0595   2 
   2  -2   8 70.8293 4.26014  -1 
  -2   2   9 70.8293 4.26014   2 
   3  -2   8 75.0444 8.57074  -1 
  -3   2   9 75.0444 8.57074   2 
   4  -2   8 13.2032 6.58236  -1 
  -4   2   9 13.2032 6.58236   2 
  -5  -1   8 3.66484 10.7834  -1 
   5   1   9 3.66484 10.7834   2 
  -4  -1   8 45.3945 7.80474  -1 
   4   1   9 45.3945 7.80474   2 
  -3  -1   8 280.202 6.70228  -1 
   3   1   9 280.202 6.70228   2 
  -2  -1   8 181.209 3.45895  -1 
   2   1   9 181.209 3.45895   2 
  -1  -1   8 876.170 8.26456  -1 
   1   1   9 876.170 8.26456   2 
   0  -1   8 14.2651 3.83208  -1 
   0   1   9 14.2651 3.83208   2 
   2  -1   8 59.0390 3.22686   2 
   4  -1   8 198.901 12.6569  -1 
  -4   1   8 198.901 12.6569   2 
   5  -1   8 15.9847 12.5238  -1 
  -5   1   8 15.9847 12.5238   2 
  -5   0   8 25.0957 6.31163   2 
  -4   0   8 27.6790 5.55117   2 
  -4   0   8 274.448 16.4624  -1 
   4   0   8 274.448 16.4624   2 
  -3   0   8 264.036 7.29974  -1 
   3   0   8 264.036 7.29974   2 
  -2   0   8 94.1798 4.70917  -1 
   2   0   8 94.1798 4.70917   2 
  -1   0   8 359.769 5.25225  -1 
   1   0   8 359.769 5.25225   2 
   0   0   8 114.743 2.73868  -1 
   0   0   8 114.743 2.73868   2 
   1   0   8 356.224 5.15276  -1 
  -1   0   8 356.224 5.15276   2 
   2   0   8 91.2393 7.68868  -1 
  -2   0   8 91.2393 7.68868   2 
   3   0   8 261.731 12.7624  -1 
  -3   0   8 261.731 12.7624   2 
   5   0   8 29.3328 5.74731   2 
  -5   1   8 20.4109 11.2230  -1 
   5  -1   8 20.4109 11.2230   2 
  -4   1   8 215.511 11.6468  -1 
   4  -1   8 215.511 11.6468   2 
  -3   1   8 107.096 5.68858   2 
  -3   1   8 328.661 11.9820  -1 
   3  -1   8 328.661 11.9820   2 
  -2   1   8 334.006 5.73589   2 
  -1   1   8 159.014 5.98948   2 
  -1   1   8 518.710 14.0231  -1 
   1  -1   7 518.710 14.0231   2 
   0   1   8 33.7374 4.01036  -1 
   0  -1   7 33.7374 4.01036   2 
   1   1   8 265.529 5.35289  -1 
  -1  -1   7 265.529 5.35289   2 
   2   1   8 350.944 9.89028  -1 
  -2  -1   7 350.944 9.89028   2 
   3   1   8 174.924 5.88697  -1 
  -3  -1   7 174.924 5.88697   2 
   4   1   8 32.4281 9.11810  -1 
  -4  -1   7 32.4281 9.11810   2 
   5   1   8 2.69682 11.5601  -1 
  -5  -1   7 2.69682 11.5601   2 
  -5   2   8 22.3340 10.1322  -1 
   5  -2   7 22.3340 10.1322   2 
  -4   2   8 388.854 10.2488  -1 
   4  -2   7 388.854 10.2488   2 
  -3   2   8 372.013 6.79329  -1 
   3  -2   7 372.013 6.79329   2 
  -2   2   8 333.872 5.79274  -1 
   2  -2   7 333.872 5.79274   2 
  -1   2   8 209.312 4.84370  -1 
   1  -2   7 209.312 4.84370   2 
   0   2   8 -2.5206 3.70789   2 
   0   2   8 193.041 9.62122  -1 
   0  -2   7 193.041 9.62122   2 
   1   2   8 119.274 3.08174   2 
   2   2   8 65.4610 2.44902   2 
   4   2   8 284.440 7.57998  -1 
  -4  -2   6 284.440 7.57998   2 
   5   2   8 34.7233 10.9166  -1 
  -5  -2   6 34.7233 10.9166   2 
  -5   3   8 151.240 19.9382  -1 
   5  -3   6 151.240 19.9382   2 
  -5   3   8 140.842 10.7262   2 
  -4   3   8 84.2105 11.2589  -1 
   4  -3   6 84.2105 11.2589   2 
  -4   3   8 -3.5888 4.76242   2 
  -3   3   8 258.217 7.69671  -1 
   3  -3   6 258.217 7.69671   2 
  -2   3   8 17.3583 4.75470  -1 
   2  -3   6 17.3583 4.75470   2 
  -1   3   8 251.148 4.21934  -1 
   1  -3   6 251.148 4.21934   2 
   0   3   8 271.210 4.87332  -1 
   0  -3   6 271.210 4.87332   2 
   1   3   8 13.6941 5.09258  -1 
  -1  -3   6 13.6941 5.09258   2 
   2   3   8 786.086 17.6782  -1 
  -2  -3   6 786.086 17.6782   2 
   4   3   8 52.9557 4.22327   2 
   5   3   8 38.1113 5.51645   2 
  -5   4   8 140.823 13.0356  -1 
   5  -4   6 140.823 13.0356   2 
  -4   4   8 9.32473 5.25645   2 
  -4   4   8 93.9869 12.1760  -1 
   4  -4   6 93.9869 12.1760   2 
  -3   4   8 61.9738 7.48092   2 
  -2   4   8 159.482 4.51896   2 
  -1   4   8 183.610 6.91685  -1 
   1  -4   5 183.610 6.91685   2 
   0   4   8 148.911 7.52256  -1 
   0  -4   5 148.911 7.52256   2 
   1   4   8 469.104 7.34415  -1 
  -1  -4   5 469.104 7.34415   2 
   2   4   8 128.560 5.89931  -1 
  -2  -4   5 128.560 5.89931   2 
   3   4   8 1.76546 5.40219  -1 
  -3  -4   5 1.76546 5.40219   2 
   4   4   8 26.4090 6.94800  -1 
  -4  -4   5 26.4090 6.94800   2 
   5   4   8 76.8708 8.66207  -1 
  -5  -4   5 76.8708 8.66207   2 
  -4   5   8 8.88490 7.75677  -1 
   4  -5   5 8.88490 7.75677   2 
  -3   5   8 119.424 7.29725  -1 
   3  -5   5 119.424 7.29725   2 
  -2   5   8 141.917 6.01861  -1 
   2  -5   5 141.917 6.01861   2 
  -1   5   8 34.5468 7.10556  -1 
   1  -5   5 34.5468 7.10556   2 
   0   5   8 51.7339 2.98200   2 
   1   5   8 54.9734 2.42329   2 
   3   5   8 309.015 9.28286  -1 
  -3  -5   4 309.015 9.28286   2 
   4   5   8 69.3895 7.72373  -1 
  -4  -5   4 69.3895 7.72373   2 
   5   5   8 29.5931 7.01643  -1 
  -5  -5   4 29.5931 7.01643   2 
  -4   6   8 111.518 11.9549  -1 
   4  -6   4 111.518 11.9549   2 
  -3   6   8 93.3249 7.77841  -1 
   3  -6   4 93.3249 7.77841   2 
  -2   6   8 20.8623 5.63163  -1 
   2  -6   4 20.8623 5.63163   2 
  -1   6   8 118.708 5.77396  -1 
   1  -6   4 118.708 5.77396   2 
   0   6   8 94.4536 6.81037  -1 
   0  -6   4 94.4536 6.81037   2 
   1   6   8 168.697 7.83372  -1 
  -1  -6   4 168.697 7.83372   2 
   2   6   8 868.896 21.1349  -1 
  -2  -6   4 868.896 21.1349   2 
   3   6   8 182.704 10.8525   2 
   4   6   8 8.49038 6.78967   2 
   5   6   8 11.2941 14.3094  -1 
  -5  -6   3 11.2941 14.3094   2 
  -3   7   8 56.9680 4.85647   2 
  -2   7   8 -0.5053 11.4129  -1 
   2  -7   3 -0.5053 11.4129   2 
  -1   7   8 28.0392 8.90034  -1 
   1  -7   3 28.0392 8.90034   2 
   0   7   8 195.581 7.87264  -1 
   0  -7   3 195.581 7.87264   2 
   1   7   8 18.9924 5.73411  -1 
  -1  -7   3 18.9924 5.73411   2 
   2   7   8 12.9168 5.59869  -1 
  -2  -7   3 12.9168 5.59869   2 
   3   7   8 11.6758 7.31816  -1 
  -3  -7   3 11.6758 7.31816   2 
   4   7   8 29.3037 9.25290  -1 
  -4  -7   3 29.3037 9.25290   2 
  -3   8   8 21.7296 10.3748  -1 
   3  -8   3 21.7296 10.3748   2 
  -2   8   8 19.5460 9.48039  -1 
   2  -8   3 19.5460 9.48039   2 
  -1   8   8 168.427 9.52341  -1 
   1  -8   3 168.427 9.52341   2 
   0   8   8 20.1738 5.94395   2 
   1   8   8 160.623 16.5199  -1 
  -1  -8   2 160.623 16.5199   2 
   1   8   8 18.8038 5.37117   2 
   2   8   8 20.9260 9.23138  -1 
  -2  -8   2 20.9260 9.23138   2 
   3   8   8 169.325 9.60062  -1 
  -3  -8   2 169.325 9.60062   2 
   4   8   8 19.1693 8.16480  -1 
  -4  -8   2 19.1693 8.16480   2 
  -2   9   8 55.9480 4.53628  -1 
   2  -9   2 55.9480 4.53628   2 
  -1   9   8 82.5228 7.32419  -1 
   1  -9   2 82.5228 7.32419   2 
   0   9   8 32.6279 7.74249  -1 
   0  -9   2 32.6279 7.74249   2 
   1   9   8 156.255 9.17175  -1 
  -1  -9   2 156.255 9.17175   2 
   2   9   8 7.90669 6.37738   2 
   3   9   8 5.85132 6.66845   2 
  -2  -6   9 15.2325 12.6303  -1 
   2   6  13 15.2325 12.6303   2 
  -1  -6   9 13.6792 10.9920  -1 
   1   6  13 13.6792 10.9920   2 
   0  -6   9 59.0534 9.41308  -1 
   0   6  13 59.0534 9.41308   2 
   1  -6   9 105.639 7.35492  -1 
  -1   6  13 105.639 7.35492   2 
   2  -6   9 11.3883 7.07524  -1 
  -2   6  13 11.3883 7.07524   2 
  -2  -5   9 111.744 8.67929   2 
  -1  -5   9 1.51614 4.82661   2 
   0  -5   9 59.5110 6.59951   2 
   1  -5   9 27.1140 8.04545  -1 
  -1   5  12 27.1140 8.04545   2 
   2  -5   9 104.536 9.71509  -1 
  -2   5  12 104.536 9.71509   2 
   3  -5   9 17.5555 10.4260  -1 
  -3   5  12 17.5555 10.4260   2 
  -4  -4   9 6.18090 11.6913  -1 
   4   4  12 6.18090 11.6913   2 
  -3  -4   9 32.4653 6.69881  -1 
   3   4  12 32.4653 6.69881   2 
  -2  -4   9 44.6670 5.79976  -1 
   2   4  12 44.6670 5.79976   2 
  -1  -4   9 158.166 9.75372  -1 
   1   4  12 158.166 9.75372   2 
   0  -4   9 57.7820 5.58174  -1 
   0   4  12 57.7820 5.58174   2 
   1  -4   9 62.1243 6.65421  -1 
  -1   4  12 62.1243 6.65421   2 
   2  -4   9 161.215 5.39479   2 
   3  -4   9 7.86646 3.55159   2 
  -4  -3   9 7.48645 5.23213   2 
  -3  -3   9 177.494 10.5521  -1 
   3   3  11 177.494 10.5521   2 
  -3  -3   9 107.145 8.09456   2 
  -2  -3   9 178.550 8.50546  -1 
   2   3  11 178.550 8.50546   2 
  -1  -3   9 28.1858 4.39040  -1 
   1   3  11 28.1858 4.39040   2 
   0  -3   9 139.226 8.99459  -1 
   0   3  11 139.226 8.99459   2 
   1  -3   9 125.937 8.28296  -1 
  -1   3  11 125.937 8.28296   2 
   2  -3   9 116.108 4.80019  -1 
  -2   3  11 116.108 4.80019   2 
   3  -3   9 200.268 9.68671  -1 
  -3   3  11 200.268 9.68671   2 
   4  -3   9 4.17899 12.9697  -1 
  -4   3  11 4.17899 12.9697   2 
  -4  -2   9 84.1780 10.5244  -1 
   4   2  11 84.1780 10.5244   2 
  -3  -2   9 114.231 9.84282  -1 
   3   2  11 114.231 9.84282   2 
  -3  -2   9 80.6847 7.26908   2 
  -2  -2   9 84.7270 7.43544   2 
  -1  -2   9 219.651 8.21795   2 
   1  -2   9 121.362 21.8413  -1 
  -1   2  10 121.362 21.8413   2 
   2  -2   9 167.139 5.75667  -1 
  -2   2  10 167.139 5.75667   2 
   3  -2   9 38.3609 7.85369  -1 
  -3   2  10 38.3609 7.85369   2 
   4  -2   9 84.7661 7.34666  -1 
  -4   2  10 84.7661 7.34666   2 
  -5  -1   9 9.35480 16.8343  -1 
   5   1  10 9.35480 16.8343   2 
  -4  -1   9 64.6164 8.29296  -1 
   4   1  10 64.6164 8.29296   2 
  -3  -1   9 3.03859 5.97282  -1 
   3   1  10 3.03859 5.97282   2 
  -2  -1   9 55.7892 5.47414  -1 
   2   1  10 55.7892 5.47414   2 
  -1  -1   9 149.844 4.66634  -1 
   1   1  10 149.844 4.66634   2 
   0  -1   9 183.335 5.66988  -1 
   0   1  10 183.335 5.66988   2 
   2  -1   9 26.7460 2.55100   2 
   4  -1   9 483.292 16.4778  -1 
  -4   1   9 483.292 16.4778   2 
  -4   0   9 9.32900 11.1280  -1 
   4   0   9 9.32900 11.1280   2 
  -4   0   9 1.86917 4.93943   2 
  -3   0   9 233.649 10.5524  -1 
   3   0   9 233.649 10.5524   2 
  -2   0   9 129.714 4.55159  -1 
   2   0   9 129.714 4.55159   2 
  -1   0   9 136.367 4.61521  -1 
   1   0   9 136.367 4.61521   2 
   0   0   9 50.4057 2.90177  -1 
   0   0   9 50.4057 2.90177   2 
   1   0   9 137.684 4.02330  -1 
  -1   0   9 137.684 4.02330   2 
   2   0   9 130.274 8.23023  -1 
  -2   0   9 130.274 8.23023   2 
   3   0   9 222.834 11.8824  -1 
  -3   0   9 222.834 11.8824   2 
   5   0   9 4.47989 5.55359   2 
  -5   1   9 157.440 18.3013  -1 
   5  -1   9 157.440 18.3013   2 
  -4   1   9 444.903 13.1243  -1 
   4  -1   9 444.903 13.1243   2 
  -3   1   9 175.339 13.8297  -1 
   3  -1   9 175.339 13.8297   2 
  -3   1   9 101.555 7.55952   2 
  -2   1   9 26.0216 1.99141   2 
  -1   1   9 52.9085 11.6132  -1 
   1  -1   8 52.9085 11.6132   2 
  -1   1   9 9.75351 4.10690   2 
   0   1   9 24.2524 4.65997  -1 
   0  -1   8 24.2524 4.65997   2 
   1   1   9 893.567 16.6530  -1 
  -1  -1   8 893.567 16.6530   2 
   2   1   9 193.545 8.53593  -1 
  -2  -1   8 193.545 8.53593   2 
   3   1   9 250.578 6.57825  -1 
  -3  -1   8 250.578 6.57825   2 
   4   1   9 55.0227 9.10613  -1 
  -4  -1   8 55.0227 9.10613   2 
   5   1   9 -1.0379 10.8175  -1 
  -5  -1   8 -1.0379 10.8175   2 
  -5   2   9 24.9341 10.1924  -1 
   5  -2   8 24.9341 10.1924   2 
  -4   2   9 8.44101 7.52192  -1 
   4  -2   8 8.44101 7.52192   2 
  -3   2   9 78.8499 6.05256  -1 
   3  -2   8 78.8499 6.05256   2 
  -2   2   9 78.5197 5.10976  -1 
   2  -2   8 78.5197 5.10976   2 
  -1   2   9 19.9653 4.54073  -1 
   1  -2   8 19.9653 4.54073   2 
   0   2   9 327.952 12.0832  -1 
   0  -2   8 327.952 12.0832   2 
   0   2   9 63.3853 6.55710   2 
   1   2   9 215.472 4.85467   2 
   2   2   9 2.56936 2.86953   2 
   4   2   9 11.0635 10.6189  -1 
  -4  -2   7 11.0635 10.6189   2 
   5   2   9 -9.3400 11.0826  -1 
  -5  -2   7 -9.3400 11.0826   2 
  -4   3   9 198.032 11.9621  -1 
   4  -3   7 198.032 11.9621   2 
  -3   3   9 333.523 7.82655  -1 
   3  -3   7 333.523 7.82655   2 
  -2   3   9 41.9176 4.40872  -1 
   2  -3   7 41.9176 4.40872   2 
  -1   3   9 6.29274 3.24383  -1 
   1  -3   7 6.29274 3.24383   2 
   0   3   9 37.9611 3.51482  -1 
   0  -3   7 37.9611 3.51482   2 
   1   3   9 95.1768 6.01337  -1 
  -1  -3   7 95.1768 6.01337   2 
   2   3   9 5.12498 4.42869  -1 
  -2  -3   7 5.12498 4.42869   2 
   4   3   9 3.33726 4.76176   2 
   5   3   9 24.7408 5.42738   2 
  -4   4   9 29.3559 12.0780  -1 
   4  -4   7 29.3559 12.0780   2 
  -4   4   9 23.1673 5.82281   2 
  -3   4   9 8.58942 4.60211   2 
  -2   4   9 169.096 4.48206   2 
  -1   4   9 96.3127 5.69587  -1 
   1  -4   6 96.3127 5.69587   2 
   0   4   9 62.9582 7.63834  -1 
   0  -4   6 62.9582 7.63834   2 
   1   4   9 126.101 5.36140  -1 
  -1  -4   6 126.101 5.36140   2 
   2   4   9 77.5835 4.73964  -1 
  -2  -4   6 77.5835 4.73964   2 
   3   4   9 210.166 6.36216  -1 
  -3  -4   6 210.166 6.36216   2 
   4   4   9 101.041 7.01974  -1 
  -4  -4   6 101.041 7.01974   2 
  -4   5   9 51.8572 8.22220  -1 
   4  -5   6 51.8572 8.22220   2 
  -3   5   9 1.43979 5.89716  -1 
   3  -5   6 1.43979 5.89716   2 
  -2   5   9 202.653 5.63329  -1 
   2  -5   6 202.653 5.63329   2 
  -1   5   9 79.3579 7.83680  -1 
   1  -5   6 79.3579 7.83680   2 
   0   5   9 359.937 15.7987  -1 
   0  -5   6 359.937 15.7987   2 
   0   5   9 303.574 5.04325   2 
   1   5   9 215.149 5.99285   2 
   2   5   9 92.0931 9.63403  -1 
  -2  -5   5 92.0931 9.63403   2 
   3   5   9 38.2645 7.87745  -1 
  -3  -5   5 38.2645 7.87745   2 
   4   5   9 20.1439 7.33170  -1 
  -4  -5   5 20.1439 7.33170   2 
   5   5   9 28.8656 9.64895  -1 
  -5  -5   5 28.8656 9.64895   2 
  -4   6   9 101.950 12.0573  -1 
   4  -6   5 101.950 12.0573   2 
  -3   6   9 43.1096 9.42949  -1 
   3  -6   5 43.1096 9.42949   2 
  -2   6   9 34.3332 5.76463  -1 
   2  -6   5 34.3332 5.76463   2 
  -1   6   9 140.054 6.76532  -1 
   1  -6   5 140.054 6.76532   2 
   0   6   9 205.519 7.18843  -1 
   0  -6   5 205.519 7.18843   2 
   1   6   9 36.5352 7.08826  -1 
  -1  -6   5 36.5352 7.08826   2 
   2   6   9 259.002 14.1391  -1 
  -2  -6   5 259.002 14.1391   2 
   3   6   9 16.6327 6.37746   2 
   4   6   9 3.79876 6.83263   2 
  -3   7   9 10.7277 4.45776   2 
  -2   7   9 108.622 9.84872  -1 
   2  -7   4 108.622 9.84872   2 
  -1   7   9 114.509 9.54777  -1 
   1  -7   4 114.509 9.54777   2 
   0   7   9 251.041 7.80811  -1 
   0  -7   4 251.041 7.80811   2 
   1   7   9 24.2799 5.69756  -1 
  -1  -7   4 24.2799 5.69756   2 
   2   7   9 58.2905 6.02280  -1 
  -2  -7   4 58.2905 6.02280   2 
   3   7   9 44.4073 7.83596  -1 
  -3  -7   4 44.4073 7.83596   2 
   4   7   9 28.6437 9.09849  -1 
  -4  -7   4 28.6437 9.09849   2 
  -2   8   9 108.021 11.9557  -1 
   2  -8   4 108.021 11.9557   2 
  -1   8   9 15.8717 13.5896  -1 
   1  -8   4 15.8717 13.5896   2 
   0   8   9 39.2896 3.79952   2 
   1   8   9 0.75993 3.40485   2 
   1   8   9 19.0128 10.5479  -1 
  -1  -8   3 19.0128 10.5479   2 
   2   8   9 119.677 9.86240  -1 
  -2  -8   3 119.677 9.86240   2 
   3   8   9 23.9772 9.14133  -1 
  -3  -8   3 23.9772 9.14133   2 
  -1   9   9 32.6095 12.0470  -1 
   1  -9   3 32.6095 12.0470   2 
   0   9   9 29.4804 9.16184  -1 
   0  -9   3 29.4804 9.16184   2 
   1   9   9 46.2205 10.1360  -1 
  -1  -9   3 46.2205 10.1360   2 
   2   9   9 -0.9805 6.33000   2 
   2   9   9 -13.754 14.5368  -1 
  -2  -9   3 -13.754 14.5368   2 
  -1  -6  10 36.5898 11.3981  -1 
   1   6  14 36.5898 11.3981   2 
   0  -6  10 48.4349 9.89033  -1 
   0   6  14 48.4349 9.89033   2 
   1  -6  10 52.4004 6.36158  -1 
  -1   6  14 52.4004 6.36158   2 
  -2  -5  10 13.1176 12.5719  -1 
   2   5  14 13.1176 12.5719   2 
  -2  -5  10 14.7442 5.54366   2 
  -1  -5  10 13.0276 5.51112   2 
   0  -5  10 -2.0589 5.35694   2 
   1  -5  10 111.155 8.48299  -1 
  -1   5  13 111.155 8.48299   2 
   2  -5  10 91.3185 9.53548  -1 
  -2   5  13 91.3185 9.53548   2 
  -3  -4  10 212.604 8.00396  -1 
   3   4  13 212.604 8.00396   2 
  -2  -4  10 9.00263 5.72630  -1 
   2   4  13 9.00263 5.72630   2 
  -1  -4  10 72.5164 10.1109  -1 
   1   4  13 72.5164 10.1109   2 
   0  -4  10 187.249 11.9763  -1 
   0   4  13 187.249 11.9763   2 
   1  -4  10 134.023 6.70300  -1 
  -1   4  13 134.023 6.70300   2 
   2  -4  10 15.7548 3.51921   2 
   3  -4  10 9.13131 3.67921   2 
  -3  -3  10 20.8818 10.2100  -1 
   3   3  12 20.8818 10.2100   2 
  -3  -3  10 4.18191 4.86310   2 
  -2  -3  10 55.7541 7.87404  -1 
   2   3  12 55.7541 7.87404   2 
  -1  -3  10 30.9496 5.80613  -1 
   1   3  12 30.9496 5.80613   2 
   0  -3  10 98.6763 8.66151  -1 
   0   3  12 98.6763 8.66151   2 
   1  -3  10 71.2341 7.67540  -1 
  -1   3  12 71.2341 7.67540   2 
   2  -3  10 66.7967 6.23122  -1 
  -2   3  12 66.7967 6.23122   2 
   3  -3  10 28.6625 8.71951  -1 
  -3   3  12 28.6625 8.71951   2 
   4  -3  10 10.1992 8.48529   2 
  -4  -2  10 34.7285 15.8607  -1 
   4   2  12 34.7285 15.8607   2 
  -3  -2  10 72.9513 9.82093  -1 
   3   2  12 72.9513 9.82093   2 
  -2  -2  10 8.90902 4.29045   2 
  -1  -2  10 221.966 8.15995   2 
   1  -2  10 71.7090 20.3988  -1 
  -1   2  11 71.7090 20.3988   2 
   2  -2  10 563.029 7.87121  -1 
  -2   2  11 563.029 7.87121   2 
   3  -2  10 137.175 7.68844  -1 
  -3   2  11 137.175 7.68844   2 
   4  -2  10 68.4500 7.24299  -1 
  -4   2  11 68.4500 7.24299   2 
  -4  -1  10 75.3001 8.59750  -1 
   4   1  11 75.3001 8.59750   2 
  -3  -1  10 40.4233 6.44087  -1 
   3   1  11 40.4233 6.44087   2 
  -2  -1  10 34.3341 6.29786  -1 
   2   1  11 34.3341 6.29786   2 
  -1  -1  10 10.0990 4.64865  -1 
   1   1  11 10.0990 4.64865   2 
   0  -1  10 179.716 4.90446  -1 
   0   1  11 179.716 4.90446   2 
   2  -1  10 -1.7843 2.77571   2 
   4  -1  10 132.713 12.6238  -1 
  -4   1  10 132.713 12.6238   2 
  -4   0  10 41.5286 18.2135  -1 
   4   0  10 41.5286 18.2135   2 
  -4   0  10 9.51024 5.06424   2 
  -3   0  10 109.089 9.52461  -1 
   3   0  10 109.089 9.52461   2 
  -2   0  10 122.426 4.23833  -1 
   2   0  10 122.426 4.23833   2 
  -1   0  10 76.5911 4.89059  -1 
   1   0  10 76.5911 4.89059   2 
   0   0  10 609.004 6.67305  -1 
   0   0  10 609.004 6.67305   2 
   1   0  10 73.6918 4.15905  -1 
  -1   0  10 73.6918 4.15905   2 
   2   0  10 100.850 8.42456  -1 
  -2   0  10 100.850 8.42456   2 
   3   0  10 80.4326 9.71910  -1 
  -3   0  10 80.4326 9.71910   2 
   5   0  10 4.14692 8.36478   2 
  -4   1  10 140.557 11.1771  -1 
   4  -1  10 140.557 11.1771   2 
  -3   1  10 60.4658 6.85614   2 
  -3   1  10 48.5407 12.2194  -1 
   3  -1  10 48.5407 12.2194   2 
  -2   1  10 158.575 4.32071   2 
  -1   1  10 19.9803 4.82339   2 
  -1   1  10 68.5270 12.9946  -1 
   1  -1   9 68.5270 12.9946   2 
   0   1  10 187.015 6.08488  -1 
   0  -1   9 187.015 6.08488   2 
   1   1  10 138.592 8.45896  -1 
  -1  -1   9 138.592 8.45896   2 
   2   1  10 49.3121 8.15439  -1 
  -2  -1   9 49.3121 8.15439   2 
   3   1  10 0.95715 6.56959  -1 
  -3  -1   9 0.95715 6.56959   2 
   4   1  10 54.3597 9.27727  -1 
  -4  -1   9 54.3597 9.27727   2 
  -4   2  10 75.0035 8.09648  -1 
   4  -2   9 75.0035 8.09648   2 
  -3   2  10 38.6360 6.98807  -1 
   3  -2   9 38.6360 6.98807   2 
  -2   2  10 168.458 5.98329  -1 
   2  -2   9 168.458 5.98329   2 
  -1   2  10 135.851 6.44089  -1 
   1  -2   9 135.851 6.44089   2 
   0   2  10 13.4912 5.08508   2 
   0   2  10 12.3175 10.9044  -1 
   0  -2   9 12.3175 10.9044   2 
   1   2  10 71.6275 3.22101   2 
   2   2  10 43.2579 3.30358   2 
   3   2  10 135.969 11.9598  -1 
  -3  -2   8 135.969 11.9598   2 
   4   2  10 67.3306 10.9197  -1 
  -4  -2   8 67.3306 10.9197   2 
  -4   3  10 36.7290 11.6016  -1 
   4  -3   8 36.7290 11.6016   2 
  -3   3  10 191.273 10.2311  -1 
   3  -3   8 191.273 10.2311   2 
  -2   3  10 75.8804 4.43256  -1 
   2  -3   8 75.8804 4.43256   2 
  -1   3  10 132.969 4.88825  -1 
   1  -3   8 132.969 4.88825   2 
   0   3  10 298.812 6.76856  -1 
   0  -3   8 298.812 6.76856   2 
   1   3  10 70.6646 5.97482  -1 
  -1  -3   8 70.6646 5.97482   2 
   2   3  10 165.356 12.3296  -1 
  -2  -3   8 165.356 12.3296   2 
   4   3  10 17.4708 5.05865   2 
   5   3  10 -5.9952 7.86830   2 
  -4   4  10 45.4351 11.8354  -1 
   4  -4   8 45.4351 11.8354   2 
  -4   4  10 49.8061 6.22085   2 
  -3   4  10 68.8613 7.78108   2 
  -2   4  10 227.778 4.53611   2 
  -1   4  10 356.214 9.66998  -1 
   1  -4   7 356.214 9.66998   2 
   0   4  10 102.228 8.11313  -1 
   0  -4   7 102.228 8.11313   2 
   1   4  10 388.457 8.85296  -1 
  -1  -4   7 388.457 8.85296   2 
   2   4  10 493.268 8.28901  -1 
  -2  -4   7 493.268 8.28901   2 
   3   4  10 83.9841 5.22432  -1 
  -3  -4   7 83.9841 5.22432   2 
   4   4  10 79.1549 11.2485  -1 
  -4  -4   7 79.1549 11.2485   2 
  -4   5  10 61.6719 8.42705  -1 
   4  -5   7 61.6719 8.42705   2 
  -3   5  10 34.0155 6.16691  -1 
   3  -5   7 34.0155 6.16691   2 
  -2   5  10 106.093 6.86846  -1 
   2  -5   7 106.093 6.86846   2 
  -1   5  10 105.077 10.0994  -1 
   1  -5   7 105.077 10.0994   2 
   0   5  10 109.335 3.99790   2 
   1   5  10 1.07979 2.64837   2 
   2   5  10 62.0375 13.1205  -1 
  -2  -5   6 62.0375 13.1205   2 
   3   5  10 47.4152 7.59023  -1 
  -3  -5   6 47.4152 7.59023   2 
   4   5  10 22.4950 7.49790  -1 
  -4  -5   6 22.4950 7.49790   2 
  -3   6  10 0.43888 9.36223  -1 
   3  -6   6 0.43888 9.36223   2 
  -2   6  10 116.770 8.24969  -1 
   2  -6   6 116.770 8.24969   2 
  -1   6  10 97.6778 6.48108  -1 
   1  -6   6 97.6778 6.48108   2 
   0   6  10 6.94526 10.0322  -1 
   0  -6   6 6.94526 10.0322   2 
   1   6  10 85.7112 8.13769  -1 
  -1  -6   6 85.7112 8.13769   2 
   2   6  10 43.4894 8.16000  -1 
  -2  -6   6 43.4894 8.16000   2 
   3   6  10 5.97994 6.34599   2 
   4   6  10 20.7613 7.56669   2 
  -3   7  10 -8.4966 5.93710   2 
  -2   7  10 29.5260 11.7769  -1 
   2  -7   5 29.5260 11.7769   2 
  -1   7  10 140.608 13.6730  -1 
   1  -7   5 140.608 13.6730   2 
   0   7  10 87.1992 8.85979  -1 
   0  -7   5 87.1992 8.85979   2 
   1   7  10 30.2645 6.95951  -1 
  -1  -7   5 30.2645 6.95951   2 
   2   7  10 8.28090 8.30461  -1 
  -2  -7   5 8.28090 8.30461   2 
   3   7  10 181.609 8.66514  -1 
  -3  -7   5 181.609 8.66514   2 
   4   7  10 30.5441 7.59213   2 
  -2   8  10 62.1958 11.7816  -1 
   2  -8   5 62.1958 11.7816   2 
  -1   8  10 19.6545 14.3651  -1 
   1  -8   5 19.6545 14.3651   2 
   0   8  10 2.80274 3.49151   2 
   2   8  10 17.5467 9.44545  -1 
  -2  -8   4 17.5467 9.44545   2 
   3   8  10 203.022 9.62529  -1 
  -3  -8   4 203.022 9.62529   2 
   0   9  10 41.2520 9.19260  -1 
   0  -9   4 41.2520 9.19260   2 
   1   9  10 53.1544 10.3405  -1 
  -1  -9   4 53.1544 10.3405   2 
   2   9  10 -7.7775 6.21640   2 
   0  -5  11 -0.8119 5.21628   2 
   1  -5  11 59.6719 7.40943  -1 
  -1   5  14 59.6719 7.40943   2 
  -2  -4  11 6.88643 5.71177  -1 
   2   4  14 6.88643 5.71177   2 
  -1  -4  11 39.6070 10.3659  -1 
   1   4  14 39.6070 10.3659   2 
   0  -4  11 25.3543 11.2676  -1 
   0   4  14 25.3543 11.2676   2 
   2  -4  11 -2.9523 3.40153   2 
  -3  -3  11 22.7751 14.2025  -1 
   3   3  13 22.7751 14.2025   2 
  -2  -3  11 72.6907 8.27164  -1 
   2   3  13 72.6907 8.27164   2 
  -1  -3  11 103.966 6.67723  -1 
   1   3  13 103.966 6.67723   2 
   0  -3  11 67.3459 8.47865  -1 
   0   3  13 67.3459 8.47865   2 
   1  -3  11 257.879 10.4188  -1 
  -1   3  13 257.879 10.4188   2 
   2  -3  11 91.9157 6.18567  -1 
  -2   3  13 91.9157 6.18567   2 
   3  -3  11 44.2502 8.94802  -1 
  -3   3  13 44.2502 8.94802   2 
  -3  -2  11 19.0932 9.90412  -1 
   3   2  13 19.0932 9.90412   2 
  -3  -2  11 3.00320 4.49084   2 
  -2  -2  11 12.1416 4.55828   2 
  -1  -2  11 2.10189 3.50592   2 
   1  -2  11 169.766 20.8297  -1 
  -1   2  12 169.766 20.8297   2 
   2  -2  11 36.2733 6.13850  -1 
  -2   2  12 36.2733 6.13850   2 
   3  -2  11 12.6189 7.16030  -1 
  -3   2  12 12.6189 7.16030   2 
   4  -2  11 13.4561 7.01381  -1 
  -4   2  12 13.4561 7.01381   2 
  -4  -1  11 12.1245 11.9775  -1 
   4   1  12 12.1245 11.9775   2 
  -3  -1  11 50.7919 6.83919  -1 
   3   1  12 50.7919 6.83919   2 
  -2  -1  11 114.769 5.51583  -1 
   2   1  12 114.769 5.51583   2 
  -1  -1  11 42.6054 5.43798  -1 
   1   1  12 42.6054 5.43798   2 
   0  -1  11 60.9564 4.79883  -1 
   0   1  12 60.9564 4.79883   2 
   2  -1  11 27.5183 3.33417   2 
   4  -1  11 -3.3740 11.8419  -1 
  -4   1  11 -3.3740 11.8419   2 
  -4   0  11 63.2416 18.7173  -1 
   4   0  11 63.2416 18.7173   2 
  -4   0  11 -1.3035 4.87094   2 
  -3   0  11 26.3966 9.59872  -1 
   3   0  11 26.3966 9.59872   2 
  -2   0  11 127.310 6.43168  -1 
   2   0  11 127.310 6.43168   2 
  -1   0  11 66.6632 4.86106  -1 
   1   0  11 66.6632 4.86106   2 
   0   0  11 196.229 4.34560  -1 
   0   0  11 196.229 4.34560   2 
   1   0  11 62.0155 6.22216  -1 
  -1   0  11 62.0155 6.22216   2 
   2   0  11 124.124 8.18783  -1 
  -2   0  11 124.124 8.18783   2 
   3   0  11 19.6207 9.90853  -1 
  -3   0  11 19.6207 9.90853   2 
  -4   1  11 -0.4514 16.1767  -1 
   4  -1  11 -0.4514 16.1767   2 
  -3   1  11 10.3648 4.41156   2 
  -3   1  11 17.2066 13.0720  -1 
   3  -1  11 17.2066 13.0720   2 
  -2   1  11 201.330 4.33621   2 
  -1   1  11 5.60924 4.82189   2 
  -1   1  11 133.195 13.6910  -1 
   1  -1  10 133.195 13.6910   2 
   0   1  11 177.731 6.66648  -1 
   0  -1  10 177.731 6.66648   2 
   1   1  11 15.3780 8.59972  -1 
  -1  -1  10 15.3780 8.59972   2 
   2   1  11 24.0893 7.45022  -1 
  -2  -1  10 24.0893 7.45022   2 
   3   1  11 35.8688 6.57388  -1 
  -3  -1  10 35.8688 6.57388   2 
   4   1  11 81.8611 9.95114  -1 
  -4  -1  10 81.8611 9.95114   2 
  -4   2  11 69.8537 8.17083  -1 
   4  -2  10 69.8537 8.17083   2 
  -3   2  11 126.448 7.87436  -1 
   3  -2  10 126.448 7.87436   2 
  -2   2  11 552.995 8.30699  -1 
   2  -2  10 552.995 8.30699   2 
  -1   2  11 112.347 6.52389  -1 
   1  -2  10 112.347 6.52389   2 
   0   2  11 375.023 14.7015  -1 
   0  -2  10 375.023 14.7015   2 
   0   2  11 41.3225 5.95860   2 
   1   2  11 21.7504 2.33913   2 
   2   2  11 74.7876 5.86425   2 
   4   2  11 94.4867 11.6912  -1 
  -4  -2   9 94.4867 11.6912   2 
  -4   3  11 6.78332 11.4920  -1 
   4  -3   9 6.78332 11.4920   2 
  -3   3  11 174.746 10.7348  -1 
   3  -3   9 174.746 10.7348   2 
  -2   3  11 116.379 5.90646  -1 
   2  -3   9 116.379 5.90646   2 
  -1   3  11 138.280 5.13394  -1 
   1  -3   9 138.280 5.13394   2 
   0   3  11 161.360 5.73065  -1 
   0  -3   9 161.360 5.73065   2 
   1   3  11 28.3652 9.17355  -1 
  -1  -3   9 28.3652 9.17355   2 
   2   3  11 215.007 12.0356  -1 
  -2  -3   9 215.007 12.0356   2 
   4   3  11 30.3819 5.31716   2 
  -4   4  11 13.6416 5.58123   2 
  -4   4  11 104.082 19.3791  -1 
   4  -4   9 104.082 19.3791   2 
  -3   4  11 77.4037 7.82632   2 
  -2   4  11 18.9604 4.06356   2 
  -1   4  11 176.886 13.0116  -1 
   1  -4   8 176.886 13.0116   2 
   0   4  11 132.359 13.0379  -1 
   0  -4   8 132.359 13.0379   2 
   1   4  11 249.578 11.3424  -1 
  -1  -4   8 249.578 11.3424   2 
   2   4  11 26.2070 7.24252  -1 
  -2  -4   8 26.2070 7.24252   2 
   3   4  11 -9.5256 8.28160  -1 
  -3  -4   8 -9.5256 8.28160   2 
   4   4  11 19.9542 10.4396  -1 
  -4  -4   8 19.9542 10.4396   2 
  -3   5  11 0.72018 6.29215  -1 
   3  -5   8 0.72018 6.29215   2 
  -2   5  11 5.29742 7.03506  -1 
   2  -5   8 5.29742 7.03506   2 
  -1   5  11 19.0788 12.5945  -1 
   1  -5   8 19.0788 12.5945   2 
   0   5  11 11.2412 2.26134   2 
   1   5  11 90.6520 5.29928   2 
   3   5  11 51.4520 7.20645  -1 
  -3  -5   7 51.4520 7.20645   2 
   4   5  11 5.34940 11.0418  -1 
  -4  -5   7 5.34940 11.0418   2 
  -3   6  11 8.82357 9.58053  -1 
   3  -6   7 8.82357 9.58053   2 
  -2   6  11 42.7141 7.31640  -1 
   2  -6   7 42.7141 7.31640   2 
  -1   6  11 236.367 11.0374  -1 
   1  -6   7 236.367 11.0374   2 
   0   6  11 -7.3952 10.7973  -1 
   0  -6   7 -7.3952 10.7973   2 
   1   6  11 199.873 13.1003  -1 
  -1  -6   7 199.873 13.1003   2 
   2   6  11 33.6532 10.3006  -1 
  -2  -6   7 33.6532 10.3006   2 
   3   6  11 13.5775 7.00170   2 
   4   6  11 6.31500 7.47695   2 
  -2   7  11 34.5775 12.1369  -1 
   2  -7   6 34.5775 12.1369   2 
  -1   7  11 23.9365 13.5168  -1 
   1  -7   6 23.9365 13.5168   2 
   0   7  11 84.2951 13.1502  -1 
   0  -7   6 84.2951 13.1502   2 
   1   7  11 7.99656 6.80818  -1 
  -1  -7   6 7.99656 6.80818   2 
   2   7  11 17.7481 6.01199  -1 
  -2  -7   6 17.7481 6.01199   2 
   3   7  11 81.1938 7.96813  -1 
  -3  -7   6 81.1938 7.96813   2 
  -1   8  11 25.5775 5.80439   2 
   0   8  11 25.7337 3.87756   2 
   1   8  11 30.2441 13.9000  -1 
  -1  -8   5 30.2441 13.9000   2 
   2   8  11 5.08415 13.0792  -1 
  -2  -8   5 5.08415 13.0792   2 
  -1  -4  12 23.2380 10.5120  -1 
   1   4  15 23.2380 10.5120   2 
   0  -4  12 66.8599 12.2158  -1 
   0   4  15 66.8599 12.2158   2 
  -2  -3  12 17.5599 7.84314  -1 
   2   3  14 17.5599 7.84314   2 
  -1  -3  12 108.331 6.92687  -1 
   1   3  14 108.331 6.92687   2 
   0  -3  12 22.4261 8.84451  -1 
   0   3  14 22.4261 8.84451   2 
   2  -3  12 16.0237 5.43413  -1 
  -2   3  14 16.0237 5.43413   2 
  -3  -2  12 3.00747 4.71547   2 
  -2  -2  12 69.1173 12.7888  -1 
   2   2  14 69.1173 12.7888   2 
  -2  -2  12 55.1950 7.45106   2 
  -1  -2  12 18.6659 4.12640   2 
   1  -2  12 16.7015 21.3649  -1 
  -1   2  13 16.7015 21.3649   2 
   2  -2  12 190.364 6.42721  -1 
  -2   2  13 190.364 6.42721   2 
   3  -2  12 52.8750 7.00987  -1 
  -3   2  13 52.8750 7.00987   2 
  -3  -1  12 7.27847 6.71380  -1 
   3   1  13 7.27847 6.71380   2 
  -2  -1  12 58.8371 6.76705  -1 
   2   1  13 58.8371 6.76705   2 
  -1  -1  12 1.61231 6.37083  -1 
   1   1  13 1.61231 6.37083   2 
   0  -1  12 83.0209 6.22931  -1 
   0   1  13 83.0209 6.22931   2 
   2  -1  12 24.6868 3.61548   2 
  -3   0  12 103.633 10.3015  -1 
   3   0  12 103.633 10.3015   2 
  -3   0  12 97.0826 7.00704   2 
  -2   0  12 37.4730 6.17270  -1 
   2   0  12 37.4730 6.17270   2 
  -1   0  12 126.442 6.02009  -1 
   1   0  12 126.442 6.02009   2 
   0   0  12 210.660 4.43853  -1 
   0   0  12 210.660 4.43853   2 
   1   0  12 117.181 6.21680  -1 
  -1   0  12 117.181 6.21680   2 
   2   0  12 33.0514 7.42558  -1 
  -2   0  12 33.0514 7.42558   2 
   4   0  12 8.45315 8.16679   2 
  -4   1  12 -1.0457 4.27778   2 
  -3   1  12 196.405 11.7564  -1 
   3  -1  12 196.405 11.7564   2 
  -3   1  12 30.2803 4.32316   2 
  -2   1  12 4.38855 3.01658   2 
  -1   1  12 19.8076 11.8631  -1 
   1  -1  11 19.8076 11.8631   2 
  -1   1  12 -10.079 9.36749   2 
   0   1  12 64.9171 9.04925  -1 
   0  -1  11 64.9171 9.04925   2 
   1   1  12 46.0818 8.41372  -1 
  -1  -1  11 46.0818 8.41372   2 
   2   1  12 140.762 8.39293  -1 
  -2  -1  11 140.762 8.39293   2 
   3   1  12 56.1524 7.31145  -1 
  -3  -1  11 56.1524 7.31145   2 
   4   1  12 10.9011 9.05755  -1 
  -4  -1  11 10.9011 9.05755   2 
  -4   2  12 11.1069 11.4631  -1 
   4  -2  11 11.1069 11.4631   2 
  -3   2  12 11.7772 5.94852  -1 
   3  -2  11 11.7772 5.94852   2 
  -2   2  12 37.5831 6.15145  -1 
   2  -2  11 37.5831 6.15145   2 
  -1   2  12 151.039 7.82551  -1 
   1  -2  11 151.039 7.82551   2 
   0   2  12 174.921 12.3843  -1 
   0  -2  11 174.921 12.3843   2 
   0   2  12 33.2556 5.82935   2 
   1   2  12 52.2983 2.80087   2 
   2   2  12 -4.6725 3.43713   2 
   3   2  12 63.2867 11.3725  -1 
  -3  -2  10 63.2867 11.3725   2 
   4   2  12 29.9540 11.7522  -1 
  -4  -2  10 29.9540 11.7522   2 
  -3   3  12 12.5233 7.26238  -1 
   3  -3  10 12.5233 7.26238   2 
  -2   3  12 73.3467 5.97843  -1 
   2  -3  10 73.3467 5.97843   2 
  -1   3  12 86.5941 5.31440  -1 
   1  -3  10 86.5941 5.31440   2 
   0   3  12 96.0821 8.74763  -1 
   0  -3  10 96.0821 8.74763   2 
   1   3  12 22.9459 8.91106  -1 
  -1  -3  10 22.9459 8.91106   2 
   2   3  12 46.7706 10.9877  -1 
  -2  -3  10 46.7706 10.9877   2 
   4   3  12 -1.7207 5.08283   2 
  -3   4  12 0.79040 4.37515   2 
  -2   4  12 17.3621 3.88795   2 
  -1   4  12 61.6815 12.0956  -1 
   1  -4   9 61.6815 12.0956   2 
   0   4  12 55.5906 11.3652  -1 
   0  -4   9 55.5906 11.3652   2 
   1   4  12 178.819 10.7864  -1 
  -1  -4   9 178.819 10.7864   2 
   2   4  12 46.4153 7.92158  -1 
  -2  -4   9 46.4153 7.92158   2 
   3   4  12 47.4063 9.45271  -1 
  -3  -4   9 47.4063 9.45271   2 
  -3   5  12 16.6070 7.79730  -1 
   3  -5   9 16.6070 7.79730   2 
  -2   5  12 91.8535 7.02906  -1 
   2  -5   9 91.8535 7.02906   2 
  -1   5  12 12.0108 12.8347  -1 
   1  -5   9 12.0108 12.8347   2 
   0   5  12 76.5865 7.38734   2 
   1   5  12 74.4642 7.30240   2 
   3   5  12 98.6323 13.3130  -1 
  -3  -5   8 98.6323 13.3130   2 
  -2   6  12 23.9779 7.59472  -1 
   2  -6   8 23.9779 7.59472   2 
  -1   6  12 109.242 9.92624  -1 
   1  -6   8 109.242 9.92624   2 
   0   6  12 -2.1734 10.7051  -1 
   0  -6   8 -2.1734 10.7051   2 
   1   6  12 10.9148 11.6882  -1 
  -1  -6   8 10.9148 11.6882   2 
   2   6  12 22.0315 13.2277  -1 
  -2  -6   8 22.0315 13.2277   2 
   3   6  12 -8.8165 6.60016   2 
  -2   7  12 68.3491 18.3794  -1 
   2  -7   7 68.3491 18.3794   2 
  -1   7  12 7.38778 13.9616  -1 
   1  -7   7 7.38778 13.9616   2 
   0   7  12 -0.6850 12.6000  -1 
   0  -7   7 -0.6850 12.6000   2 
   1   7  12 14.9219 10.7944  -1 
  -1  -7   7 14.9219 10.7944   2 
   2   7  12 37.2579 6.20038  -1 
  -2  -7   7 37.2579 6.20038   2 
   3   7  12 40.1040 7.15292   2 
   0   8  12 64.7301 6.23552   2 
   1   8  12 43.4926 10.1843  -1 
  -1  -8   6 43.4926 10.1843   2 
  -1  -3  13 0.88690 6.46862  -1 
   1   3  15 0.88690 6.46862   2 
  -2  -2  13 63.3397 6.37288   2 
  -2  -2  13 81.9016 12.9172  -1 
   2   2  15 81.9016 12.9172   2 
  -1  -2  13 4.31548 4.21534   2 
   1  -2  13 -17.269 22.8839  -1 
  -1   2  14 -17.269 22.8839   2 
   2  -2  13 62.5659 5.43276  -1 
  -2   2  14 62.5659 5.43276   2 
  -3  -1  13 49.4378 8.90480  -1 
   3   1  14 49.4378 8.90480   2 
  -2  -1  13 19.0562 6.86140  -1 
   2   1  14 19.0562 6.86140   2 
  -1  -1  13 28.7165 7.11915  -1 
   1   1  14 28.7165 7.11915   2 
   0  -1  13 9.53847 7.59176  -1 
   0   1  14 9.53847 7.59176   2 
   1  -1  13 153.336 27.2095  -1 
  -1   1  14 153.336 27.2095   2 
   2  -1  13 2.55968 3.46757   2 
  -3   0  13 44.0529 9.83355  -1 
   3   0  13 44.0529 9.83355   2 
  -2   0  13 34.6594 7.74965  -1 
   2   0  13 34.6594 7.74965   2 
  -1   0  13 59.9746 6.00639  -1 
   1   0  13 59.9746 6.00639   2 
   0   0  13 316.870 6.69843  -1 
   0   0  13 316.870 6.69843   2 
   1   0  13 71.7800 5.96832  -1 
  -1   0  13 71.7800 5.96832   2 
   2   0  13 27.1279 7.66276  -1 
  -2   0  13 27.1279 7.66276   2 
   3   0  13 21.6720 10.1679  -1 
  -3   0  13 21.6720 10.1679   2 
  -3   1  13 32.3056 10.6614  -1 
   3  -1  13 32.3056 10.6614   2 
  -3   1  13 3.04526 3.73099   2 
  -2   1  13 54.6844 4.64916   2 
  -1   1  13 69.4428 12.8821  -1 
   1  -1  12 69.4428 12.8821   2 
  -1   1  13 55.7649 11.6265   2 
   0   1  13 78.1029 9.33096  -1 
   0  -1  12 78.1029 9.33096   2 
   1   1  13 18.0170 8.13589  -1 
  -1  -1  12 18.0170 8.13589   2 
   2   1  13 80.7156 8.30846  -1 
  -2  -1  12 80.7156 8.30846   2 
   3   1  13 7.04575 4.38287  -1 
  -3  -1  12 7.04575 4.38287   2 
  -3   2  13 33.4600 7.33340  -1 
   3  -2  12 33.4600 7.33340   2 
  -2   2  13 185.252 7.21093  -1 
   2  -2  12 185.252 7.21093   2 
  -1   2  13 37.6528 8.06573  -1 
   1  -2  12 37.6528 8.06573   2 
   0   2  13 -10.946 22.2402  -1 
   0  -2  12 -10.946 22.2402   2 
   0   2  13 17.1265 5.61242   2 
   1   2  13 58.2416 4.61260   2 
   2   2  13 11.0900 3.80942   2 
  -3   3  13 49.0496 8.97896  -1 
   3  -3  11 49.0496 8.97896   2 
  -2   3  13 106.859 6.51489  -1 
   2  -3  11 106.859 6.51489   2 
  -1   3  13 260.581 6.89317  -1 
   1  -3  11 260.581 6.89317   2 
   0   3  13 70.1952 8.99794  -1 
   0  -3  11 70.1952 8.99794   2 
   1   3  13 95.0111 10.1686  -1 
  -1  -3  11 95.0111 10.1686   2 
   2   3  13 89.5173 11.7569  -1 
  -2  -3  11 89.5173 11.7569   2 
   3   3  13 9.32877 13.1310  -1 
  -3  -3  11 9.32877 13.1310   2 
  -3   4  13 35.9515 4.81076   2 
  -2   4  13 89.5333 5.87075   2 
  -1   4  13 119.300 14.1545  -1 
   1  -4  10 119.300 14.1545   2 
   0   4  13 186.771 13.4553  -1 
   0  -4  10 186.771 13.4553   2 
   1   4  13 57.2334 10.0824  -1 
  -1  -4  10 57.2334 10.0824   2 
   2   4  13 13.8114 7.63168  -1 
  -2  -4  10 13.8114 7.63168   2 
   3   4  13 222.891 11.3497  -1 
  -3  -4  10 222.891 11.3497   2 
  -2   5  13 75.8393 8.40555  -1 
   2  -5  10 75.8393 8.40555   2 
  -1   5  13 67.1408 14.8228  -1 
   1  -5  10 67.1408 14.8228   2 
   0   5  13 9.34151 5.50973   2 
   1   5  13 7.69244 5.62042   2 
  -2   6  13 7.38737 10.0851  -1 
   2  -6   9 7.38737 10.0851   2 
  -1   6  13 85.4299 9.00505  -1 
   1  -6   9 85.4299 9.00505   2 
   0   6  13 31.8711 11.3673  -1 
   0  -6   9 31.8711 11.3673   2 
   1   6  13 -3.4780 12.7747  -1 
  -1  -6   9 -3.4780 12.7747   2 
  -1  -2  14 1.16667 4.35394   2 
   0  -2  14 27.6948 7.37481  -1 
   0   2  15 27.6948 7.37481   2 
  -2  -1  14 2.18678 9.96089  -1 
   2   1  15 2.18678 9.96089   2 
  -2  -1  14 -3.2357 4.07787   2 
  -1  -1  14 179.302 8.06264  -1 
   1   1  15 179.302 8.06264   2 
   0  -1  14 -13.883 7.56914  -1 
   0   1  15 -13.883 7.56914   2 
   2  -1  14 -2.9432 6.00706   2 
  -2   0  14 -6.5261 7.90004  -1 
   2   0  14 -6.5261 7.90004   2 
  -1   0  14 44.0332 6.55871  -1 
   1   0  14 44.0332 6.55871   2 
   0   0  14 4.94072 3.29871  -1 
   0   0  14 4.94072 3.29871   2 
   1   0  14 57.0970 6.56017  -1 
  -1   0  14 57.0970 6.56017   2 
   2   0  14 11.0644 7.39709  -1 
  -2   0  14 11.0644 7.39709   2 
  -2   1  14 0.13077 3.06314   2 
  -1   1  14 128.011 14.0088  -1 
   1  -1  13 128.011 14.0088   2 
   0   1  14 21.8290 9.68637  -1 
   0  -1  13 21.8290 9.68637   2 
   1   1  14 17.8635 8.20337  -1 
  -1  -1  13 17.8635 8.20337   2 
   2   1  14 1.97313 7.68096  -1 
  -2  -1  13 1.97313 7.68096   2 
   3   1  14 31.0998 6.49727  -1 
  -3  -1  13 31.0998 6.49727   2 
  -2   2  14 65.0601 9.18223  -1 
   2  -2  13 65.0601 9.18223   2 
  -1   2  14 12.6326 8.28012  -1 
   1  -2  13 12.6326 8.28012   2 
   0   2  14 58.0905 7.06158   2 
   0   2  14 105.954 25.4470  -1 
   0  -2  13 105.954 25.4470   2 
   1   2  14 81.1942 5.44688   2 
  -2   3  14 10.6486 7.45095  -1 
   2  -3  12 10.6486 7.45095   2 
  -1   3  14 159.417 6.73033  -1 
   1  -3  12 159.417 6.73033   2 
   0   3  14 37.0717 9.06261  -1 
   0  -3  12 37.0717 9.06261   2 
   1   3  14 107.148 10.2687  -1 
  -1  -3  12 107.148 10.2687   2 
   2   3  14 43.1141 11.9198  -1 
  -2  -3  12 43.1141 11.9198   2 
   3   3  14 2.61051 6.53063   2 
  -1   4  14 6.14971 11.9230  -1 
   1  -4  11 6.14971 11.9230   2 
   0   4  14 6.45763 12.2475  -1 
   0  -4  11 6.45763 12.2475   2 
   1   4  14 32.5981 10.2094  -1 
  -1  -4  11 32.5981 10.2094   2 
   2   4  14 -6.6672 7.02552  -1 
  -2  -4  11 -6.6672 7.02552   2 
  -2   5  14 26.9772 4.19743   2 
   0   5  14 18.2319 5.87259   2 
   1   5  14 13.7441 5.77148   2 
  -1   6  14 21.0977 15.3829  -1 
   1  -6  10 21.0977 15.3829   2 
   2   6  14 3.15869 5.85456   2 
  -1   0  15 28.8653 6.81030  -1 
   1   0  15 28.8653 6.81030   2 
   0   0  15 0.99992 3.53379  -1 
   0   0  15 0.99992 3.53379   2 
   1   0  15 13.1840 7.23980  -1 
  -1   0  15 13.1840 7.23980   2 
  -1   1  15 12.5249 10.5555   2 
  -1   1  15 31.5452 13.6973  -1 
   1  -1  14 31.5452 13.6973   2 
   0   1  15 7.28796 9.94498  -1 
   0  -1  14 7.28796 9.94498   2 
   1   1  15 203.098 9.97945  -1 
  -1  -1  14 203.098 9.97945   2 
  -1   2  15 34.4296 25.0142  -1 
   1  -2  14 34.4296 25.0142   2 
   0   2  15 39.8974 25.9926  -1 
   0  -2  14 39.8974 25.9926   2 
   1   2  15 93.3806 5.55260   2 
  -1   3  15 54.5037 8.18660  -1 
   1  -3  13 54.5037 8.18660   2 
   0   3  15 49.2513 9.38018  -1 
   0  -3  13 49.2513 9.38018   2 
   2   3  15 10.9574 4.06983   2 
  -1   4  15 70.2498 25.5725  -1 
   1  -4  12 70.2498 25.5725   2 
   0   5  15 51.0824 7.11118   2 
   1   5  15 -0.6906 5.48024   2 
   0   0   0    0.00    0.00   0 
;
_shelx_hkl_checksum              3950
loop_
_space_group_symop_operation_xyz
'x, y, z'
'-x, -y, -z'
loop_
_atom_site_label
_atom_site_type_symbol
_atom_site_fract_x
_atom_site_fract_y
_atom_site_fract_z
_atom_site_U_iso_or_equiv
_atom_site_adp_type
_atom_site_occupancy
_atom_site_site_symmetry_order
_atom_site_calc_flag
_atom_site_refinement_flags_posn
_atom_site_refinement_flags_adp
S1 S 0.20070(17) 0.35021(11) 0.50874(8) 0.0371(3) Uani 1 1 d . .
O1 O 0.3029(5) 0.7305(3) 0.1958(2) 0.0423(7) Uani 1 1 d . .
N1 N 0.6056(5) 0.4143(3) 0.3341(2) 0.0261(7) Uani 1 1 d . .
N2 N 0.4068(5) 0.5138(3) 0.3217(2) 0.0298(7) Uani 1 1 d . .
N3 N 0.6566(6) 0.5856(3) 0.1857(2) 0.0325(7) Uani 1 1 d . .
C1 C 0.4428(6) 0.6198(4) 0.2324(3) 0.0310(9) Uani 1 1 d . .
C2 C 0.7905(6) 0.4588(4) 0.2510(3) 0.0259(8) Uani 1 1 d . .
H2A H 0.9309 0.4966 0.2789 0.031 Uiso 1 1 calc R U
C3 C 0.6379(6) 0.2949(4) 0.4116(3) 0.0277(8) Uani 1 1 d . .
H3A H 0.7821 0.2314 0.4122 0.033 Uiso 1 1 calc R U
C4 C 0.4737(6) 0.2527(4) 0.4950(3) 0.0276(8) Uani 1 1 d . .
C5 C 0.5105(7) 0.1276(4) 0.5763(3) 0.0358(10) Uani 1 1 d . .
H5A H 0.6515 0.0600 0.5833 0.043 Uiso 1 1 calc R U
C6 C 0.3210(7) 0.1088(5) 0.6477(3) 0.0393(10) Uani 1 1 d . .
H6A H 0.3185 0.0271 0.7078 0.047 Uiso 1 1 calc R U
C7 C 0.1405(7) 0.2211(5) 0.6214(3) 0.0412(10) Uani 1 1 d . .
H7A H -0.0022 0.2269 0.6610 0.049 Uiso 1 1 calc R U
C8 C 0.7664(8) 0.6868(5) 0.0989(3) 0.0446(11) Uani 1 1 d . .
H8A H 0.6460 0.7647 0.0636 0.067 Uiso 1 1 calc R U
H8B H 0.8354 0.6254 0.0512 0.067 Uiso 1 1 calc R U
H8C H 0.8923 0.7389 0.1232 0.067 Uiso 1 1 calc R U
C9 C 0.8687(6) 0.3242(4) 0.2013(3) 0.0255(8) Uani 1 1 d . .
C10 C 0.7284(6) 0.2850(4) 0.1290(3) 0.0280(8) Uani 1 1 d . .
H10A H 0.5851 0.3455 0.1071 0.034 Uiso 1 1 calc R U
C11 C 0.7983(7) 0.1585(5) 0.0896(3) 0.0378(10) Uani 1 1 d . .
H11A H 0.7023 0.1313 0.0405 0.045 Uiso 1 1 calc R U
C12 C 1.0044(7) 0.0713(4) 0.1201(3) 0.0370(10) Uani 1 1 d . .
H12A H 1.0504 -0.0163 0.0923 0.044 Uiso 1 1 calc R U
C13 C 1.1430(7) 0.1083(4) 0.1895(3) 0.0378(9) Uani 1 1 d . .
H13A H 1.2843 0.0450 0.2107 0.045 Uiso 1 1 calc R U
C14 C 1.0856(6) 0.2345(4) 0.2300(3) 0.0273(8) Uani 1 1 d . .
H14A H 1.1887 0.2618 0.2766 0.033 Uiso 1 1 calc R U
loop_
_atom_site_aniso_label
_atom_site_aniso_U_11
_atom_site_aniso_U_22
_atom_site_aniso_U_33
_atom_site_aniso_U_23
_atom_site_aniso_U_13
_atom_site_aniso_U_12
S1 0.0281(5) 0.0420(6) 0.0412(5) -0.0129(5) 0.0024(5) 0.0053(4)
O1 0.0345(15) 0.0356(15) 0.0510(16) -0.0027(13) -0.0055(14) 0.0131(13)
N1 0.0261(16) 0.0248(15) 0.0272(16) -0.0072(14) -0.0005(12) 0.0034(13)
N2 0.0238(16) 0.0314(17) 0.0319(17) -0.0065(15) -0.0010(13) 0.0095(14)
N3 0.0325(17) 0.0257(16) 0.0356(17) -0.0027(14) 0.0057(14) 0.0037(13)
C1 0.028(2) 0.031(2) 0.037(2) -0.0122(18) -0.0067(16) 0.0009(17)
C2 0.0236(17) 0.0259(18) 0.0280(18) -0.0068(15) 0.0042(15) -0.0011(15)
C3 0.0236(19) 0.0279(19) 0.033(2) -0.0112(18) -0.0006(15) 0.0036(15)
C4 0.0252(18) 0.0315(19) 0.0284(18) -0.0117(17) -0.0006(16) -0.0012(15)
C5 0.035(2) 0.037(2) 0.032(2) -0.0049(18) 0.0031(17) 0.0043(19)
C6 0.041(2) 0.044(2) 0.031(2) -0.0017(19) 0.0021(18) -0.008(2)
C7 0.031(2) 0.058(3) 0.040(2) -0.022(2) 0.0098(18) -0.010(2)
C8 0.043(3) 0.033(2) 0.048(2) 0.0086(19) 0.003(2) -0.003(2)
C9 0.0228(18) 0.0218(17) 0.0278(19) 0.0008(15) 0.0062(15) -0.0004(14)
C10 0.0265(19) 0.0323(19) 0.0246(18) -0.0060(16) -0.0023(15) 0.0017(16)
C11 0.043(3) 0.042(2) 0.031(2) -0.0137(18) 0.0005(18) -0.004(2)
C12 0.043(2) 0.031(2) 0.036(2) -0.0060(17) 0.0104(19) -0.0002(19)
C13 0.028(2) 0.037(2) 0.041(2) 0.002(2) 0.0060(19) 0.0069(17)
C14 0.0235(18) 0.032(2) 0.0267(18) -0.0058(15) 0.0000(15) -0.0073(16)
loop_
_atom_type_symbol
_atom_type_description
_atom_type_scat_dispersion_real
_atom_type_scat_dispersion_imag
_atom_type_scat_source
C C 0.0033 0.0016 'International Tables Vol C Tables 4.2.6.8 and 6.1.1.4'
H H 0.0000 0.0000 'International Tables Vol C Tables 4.2.6.8 and 6.1.1.4'
N N 0.0061 0.0033 'International Tables Vol C Tables 4.2.6.8 and 6.1.1.4'
O O 0.0106 0.0060 'International Tables Vol C Tables 4.2.6.8 and 6.1.1.4'
S S 0.1246 0.1234 'International Tables Vol C Tables 4.2.6.8 and 6.1.1.4'
loop_
_geom_angle_atom_site_label_1
_geom_angle_atom_site_label_2
_geom_angle_atom_site_label_3
_geom_angle
C7 S1 C4 91.58(19)
C3 N1 N2 124.2(3)
C3 N1 C2 122.8(3)
N2 N1 C2 113.0(3)
C1 N2 N1 105.8(3)
C1 N3 C2 110.8(3)
C1 N3 C8 125.2(3)
C2 N3 C8 121.7(3)
O1 C1 N2 125.2(3)
O1 C1 N3 123.7(4)
N2 C1 N3 111.2(3)
N3 C2 N1 98.8(3)
N3 C2 C9 114.7(3)
N1 C2 C9 111.6(3)
N1 C3 C4 125.0(3)
C5 C4 C3 124.4(3)
C5 C4 S1 110.3(3)
C3 C4 S1 125.2(3)
C4 C5 C6 113.7(4)
C7 C6 C5 112.3(4)
C6 C7 S1 112.1(3)
C10 C9 C14 118.9(3)
C10 C9 C2 121.1(3)
C14 C9 C2 120.0(3)
C11 C10 C9 119.6(3)
C12 C11 C10 120.7(4)
C13 C12 C11 120.5(4)
C12 C13 C14 121.6(4)
C13 C14 C9 118.6(4)
loop_
_geom_bond_atom_site_label_1
_geom_bond_atom_site_label_2
_geom_bond_distance
S1 C7 1.709(4)
S1 C4 1.728(3)
O1 C1 1.229(4)
N1 C3 1.307(4)
N1 N2 1.360(4)
N1 C2 1.499(4)
N2 C1 1.358(5)
N3 C1 1.379(5)
N3 C2 1.435(5)
N3 C8 1.444(5)
C2 C9 1.524(5)
C3 C4 1.421(5)
C4 C5 1.371(5)
C5 C6 1.397(5)
C6 C7 1.361(6)
C9 C10 1.391(5)
C9 C14 1.419(5)
C10 C11 1.369(5)
C11 C12 1.364(6)
C12 C13 1.347(6)
C13 C14 1.363(5)
loop_
_geom_torsion_atom_site_label_1
_geom_torsion_atom_site_label_2
_geom_torsion_atom_site_label_3
_geom_torsion_atom_site_label_4
_geom_torsion
C3 N1 N2 C1 -179.6(3)
C2 N1 N2 C1 2.5(4)
N1 N2 C1 O1 -178.9(3)
N1 N2 C1 N3 2.5(4)
C2 N3 C1 O1 174.6(3)
C8 N3 C1 O1 11.6(6)
C2 N3 C1 N2 -6.7(4)
C8 N3 C1 N2 -169.7(3)
C1 N3 C2 N1 7.2(4)
C8 N3 C2 N1 170.9(3)
C1 N3 C2 C9 125.9(3)
C8 N3 C2 C9 -70.4(4)
C3 N1 C2 N3 176.1(3)
N2 N1 C2 N3 -6.0(3)
C3 N1 C2 C9 55.1(4)
N2 N1 C2 C9 -127.0(3)
N2 N1 C3 C4 -1.2(5)
C2 N1 C3 C4 176.5(3)
N1 C3 C4 C5 -179.6(3)
N1 C3 C4 S1 0.6(5)
C7 S1 C4 C5 -0.6(3)
C7 S1 C4 C3 179.2(3)
C3 C4 C5 C6 -179.0(3)
S1 C4 C5 C6 0.9(4)
C4 C5 C6 C7 -0.7(5)
C5 C6 C7 S1 0.2(4)
C4 S1 C7 C6 0.3(3)
N3 C2 C9 C10 -33.0(4)
N1 C2 C9 C10 78.2(4)
N3 C2 C9 C14 148.2(3)
N1 C2 C9 C14 -100.6(4)
C14 C9 C10 C11 2.0(5)
C2 C9 C10 C11 -176.8(3)
C9 C10 C11 C12 -0.3(6)
C10 C11 C12 C13 -0.1(6)
C11 C12 C13 C14 -1.1(6)
C12 C13 C14 C9 2.8(5)
C10 C9 C14 C13 -3.2(5)
C2 C9 C14 C13 175.6(3)
