#------------------------------------------------------------------------------
#$Date: 2019-11-24 20:22:47 +0200 (Sun, 24 Nov 2019) $
#$Revision: 239320 $
#$URL: file:///home/coder/svn-repositories/cod/cif/1/55/59/1555999.cif $
#------------------------------------------------------------------------------
#
# This file is available in the Crystallography Open Database (COD),
# http://www.crystallography.net/
#
# All data on this site have been placed in the public domain by the
# contributors.
#
data_1555999
loop_
_publ_author_name
'Ramakrishna, Isai'
'Bhajammanavar, Vinod'
'Mallik, Sumitava'
'Baidya, Mahiuddin'
_publ_section_title
;
 Advanced Nitroso Aldol Reaction: Metal-Free Cross-Coupling of Anilines
 with Silyl Enol Ethers en Route to \a-Amino Ketones.
;
_journal_issue                   3
_journal_name_full               'Organic letters'
_journal_page_first              516
_journal_page_last               519
_journal_paper_doi               10.1021/acs.orglett.6b03686
_journal_volume                  19
_journal_year                    2017
_chemical_formula_moiety         'C17 H17 N O3'
_chemical_formula_sum            'C17 H17 N O3'
_chemical_formula_weight         283.31
_space_group_crystal_system      triclinic
_space_group_IT_number           2
_space_group_name_Hall           '-P 1'
_space_group_name_H-M_alt        'P -1'
_atom_sites_solution_hydrogens   mixed
_audit_creation_method           SHELXL-2014/7
_cell_angle_alpha                69.4122(16)
_cell_angle_beta                 78.7895(16)
_cell_angle_gamma                71.4852(16)
_cell_formula_units_Z            2
_cell_length_a                   8.4056(3)
_cell_length_b                   9.8583(3)
_cell_length_c                   10.2022(3)
_cell_measurement_reflns_used    3018
_cell_measurement_temperature    296(2)
_cell_measurement_theta_max      24.97
_cell_measurement_theta_min      2.57
_cell_volume                     747.18(4)
_computing_cell_refinement       'Bruker SAINT'
_computing_data_collection       'Bruker APEX2'
_computing_data_reduction        'Bruker SAINT'
_computing_molecular_graphics    'Bruker SHELXTL'
_computing_publication_material  'SHELXL-2013 (Sheldrick, 2013)'
_computing_structure_refinement  'SHELXL-2014 (Sheldrick, 2014)'
_computing_structure_solution    'SHELXL-97 (Sheldrick, 2008)'
_diffrn_ambient_temperature      296(2)
_diffrn_measured_fraction_theta_full 0.982
_diffrn_measured_fraction_theta_max 0.982
_diffrn_measurement_device_type  'Bruker APEXII CCD Detector'
_diffrn_measurement_method       'Phi and Omega scans'
_diffrn_radiation_type           MoK\a
_diffrn_radiation_wavelength     0.71073
_diffrn_reflns_av_R_equivalents  0.0200
_diffrn_reflns_av_unetI/netI     0.0218
_diffrn_reflns_Laue_measured_fraction_full 0.982
_diffrn_reflns_Laue_measured_fraction_max 0.982
_diffrn_reflns_limit_h_max       9
_diffrn_reflns_limit_h_min       -9
_diffrn_reflns_limit_k_max       11
_diffrn_reflns_limit_k_min       -11
_diffrn_reflns_limit_l_max       12
_diffrn_reflns_limit_l_min       -12
_diffrn_reflns_number            10203
_diffrn_reflns_point_group_measured_fraction_full 0.982
_diffrn_reflns_point_group_measured_fraction_max 0.982
_diffrn_reflns_theta_full        24.997
_diffrn_reflns_theta_max         24.997
_diffrn_reflns_theta_min         2.142
_exptl_absorpt_coefficient_mu    0.087
_exptl_absorpt_correction_T_max  0.983
_exptl_absorpt_correction_T_min  0.979
_exptl_absorpt_correction_type   multi-scan
_exptl_absorpt_process_details   'SADABS V2014/5(Bruker AXS.Inc)'
_exptl_crystal_colour            colourless
_exptl_crystal_density_diffrn    1.259
_exptl_crystal_description       BLock
_exptl_crystal_F_000             300
_exptl_crystal_size_max          0.250
_exptl_crystal_size_mid          0.200
_exptl_crystal_size_min          0.200
_refine_diff_density_max         0.297
_refine_diff_density_min         -0.284
_refine_diff_density_rms         0.031
_refine_ls_extinction_coef       0.011(4)
_refine_ls_extinction_expression Fc^*^=kFc[1+0.001xFc^2^\l^3^/sin(2\q)]^-1/4^
_refine_ls_extinction_method     'SHELXL-2014/7 (Sheldrick 2014'
_refine_ls_goodness_of_fit_ref   1.044
_refine_ls_hydrogen_treatment    mixed
_refine_ls_matrix_type           full
_refine_ls_number_parameters     197
_refine_ls_number_reflns         2576
_refine_ls_number_restraints     0
_refine_ls_restrained_S_all      1.044
_refine_ls_R_factor_all          0.0671
_refine_ls_R_factor_gt           0.0444
_refine_ls_shift/su_max          0.005
_refine_ls_shift/su_mean         0.000
_refine_ls_structure_factor_coef Fsqd
_refine_ls_weighting_details
'w=1/[\s^2^(Fo^2^)+(0.0554P)^2^+0.1796P] where P=(Fo^2^+2Fc^2^)/3'
_refine_ls_weighting_scheme      calc
_refine_ls_wR_factor_gt          0.1132
_refine_ls_wR_factor_ref         0.1292
_reflns_Friedel_coverage         0.000
_reflns_number_gt                1802
_reflns_number_total             2576
_reflns_threshold_expression     'I > 2\s(I)'
_cod_data_source_file            ol6b03686_si_002.cif
_cod_data_source_block           411
_cod_depositor_comments
;
The following automatic conversions were performed:

data item '_exptl_absorpt_correction_type' value 'Multi-scan' was
changed to 'multi-scan' in accordance with the
/home/saulius/struct/COD-crude-data/automatic-downloads/DataCite-retrospective/ACS/depositions/lib/dictionaries/cif_core.dic
dictionary named 'cif_core.dic' version 2.4.2 last updated on
2011-04-26.

Automatic conversion script
Id: cif_fix_values 6909 2019-04-08 15:41:33Z antanas 
;
_cod_database_code               1555999
_shelx_shelxl_version_number     2014/7
_shelx_space_group_comment
;
The symmetry employed for this shelxl refinement is uniquely defined
by the following loop, which should always be used as a source of
symmetry information in preference to the above space-group names.
They are only intended as comments.
;
_shelx_estimated_absorpt_t_min   0.979
_shelx_estimated_absorpt_t_max   0.983
_shelx_res_file
;

    411.res created by SHELXL-2014/7

TITL 411 in P-1
CELL 0.71073   8.40560   9.85830  10.20220  69.4122  78.7895  71.4852
ZERR   2.00   0.00030   0.00030   0.00030   0.0016   0.0016   0.0016
LATT 1
SFAC C  H  N  O
UNIT 34  34  2  6
OMIT -3 50
L.S. 8
ACTA
BOND $H
FMAP 2
PLAN 5
CONF
SIZE 0.20 0.20 0.25
TEMP 23.000
WGHT    0.055400    0.179600
EXTI    0.010815
FVAR       0.30377
MOLE 1
C1    1    0.231748    0.289171    0.992146    11.00000    0.06120    0.06358 =
         0.07651   -0.02693    0.00572   -0.02239
AFIX  43
H1    2    0.238552    0.214631    0.953662    11.00000   -1.20000
AFIX   0
C2    1    0.151805    0.281990    1.124250    11.00000    0.06822    0.07715 =
         0.07890   -0.02274    0.01375   -0.02511
AFIX  43
H2    2    0.104068    0.203076    1.173901    11.00000   -1.20000
AFIX   0
C3    1    0.141479    0.388798    1.183517    11.00000    0.05633    0.08596 =
         0.07529   -0.02820    0.00551   -0.00769
AFIX  43
H3    2    0.087400    0.382514    1.273259    11.00000   -1.20000
AFIX   0
C4    1    0.210839    0.505399    1.110757    11.00000    0.07269    0.08120 =
         0.08774   -0.04591   -0.00080   -0.01198
AFIX  43
H4    2    0.204545    0.578116    1.151388    11.00000   -1.20000
AFIX   0
C5    1    0.290313    0.515515    0.976940    11.00000    0.05952    0.06366 =
         0.08070   -0.02694   -0.00367   -0.01640
AFIX  43
H5    2    0.336000    0.595796    0.927603    11.00000   -1.20000
AFIX   0
C6    1    0.302480    0.406556    0.915507    11.00000    0.03672    0.05334 =
         0.06419   -0.01836   -0.00749   -0.00801
C7    1    0.389089    0.422684    0.771405    11.00000    0.04119    0.05114 =
         0.06323   -0.01254   -0.01112   -0.01119
C8    1    0.395491    0.311719    0.695483    11.00000    0.04387    0.05021 =
         0.06436   -0.01714   -0.00156   -0.01134
AFIX  13
H8    2    0.394884    0.213703    0.765521    11.00000   -1.20000
AFIX   0
C9    1    0.702195    0.222661    0.635560    11.00000    0.04730    0.04402 =
         0.05335   -0.01580   -0.00321   -0.01111
C10   1    0.737723    0.164663    0.775767    11.00000    0.04696    0.06151 =
         0.05029   -0.01370    0.00487   -0.00772
AFIX  43
H10   2    0.650908    0.174761    0.846667    11.00000   -1.20000
AFIX   0
C11   1    0.900078    0.092812    0.809577    11.00000    0.05360    0.06420 =
         0.04407   -0.01051   -0.00248   -0.01068
AFIX  43
H11   2    0.921161    0.055821    0.903675    11.00000   -1.20000
AFIX   0
C12   1    1.033701    0.073515    0.708201    11.00000    0.04510    0.04738 =
         0.04763   -0.01396   -0.00080   -0.01234
C13   1    0.998494    0.131341    0.568057    11.00000    0.04665    0.05066 =
         0.05193   -0.02130    0.00439   -0.01529
AFIX  43
H13   2    1.085775    0.120165    0.497719    11.00000   -1.20000
AFIX   0
C14   1    0.837241    0.204412    0.532318    11.00000    0.05607    0.05307 =
         0.04375   -0.01622   -0.00316   -0.01503
AFIX  43
H14   2    0.816917    0.242580    0.438014    11.00000   -1.20000
AFIX   0
C15   1    1.204163   -0.005290    0.751881    11.00000    0.05164    0.06061 =
         0.04883   -0.01267    0.00107   -0.01316
C16   1    1.488580   -0.109280    0.685506    11.00000    0.04316    0.07457 =
         0.07909   -0.02041   -0.00233   -0.00246
AFIX 137
H16A  2    1.531277   -0.048907    0.718637    11.00000   -1.50000
H16B  2    1.559024   -0.128891    0.604423    11.00000   -1.50000
H16C  2    1.488249   -0.202854    0.758307    11.00000   -1.50000
AFIX   0
C17   1    0.237648    0.370600    0.617611    11.00000    0.05299    0.06786 =
         0.08874   -0.03032   -0.01011   -0.01802
AFIX 137
H17A  2    0.237625    0.466276    0.548161    11.00000   -1.50000
H17B  2    0.139496    0.382097    0.683292    11.00000   -1.50000
H17C  2    0.236444    0.300498    0.572351    11.00000   -1.50000
AFIX   0
N1    3    0.541570    0.292753    0.596554    11.00000    0.04707    0.06596 =
         0.05423   -0.01374   -0.00427   -0.00871
O1    4    0.451577    0.527007    0.710267    11.00000    0.08317    0.06881 =
         0.06679   -0.01521   -0.00693   -0.03781
O2    4    1.241965   -0.041906    0.869402    11.00000    0.06017    0.18332 =
         0.05482   -0.02714   -0.00565    0.00903
O3    4    1.318919   -0.029854    0.648133    11.00000    0.04652    0.07882 =
         0.05847   -0.02219    0.00094   -0.00602
H1N   2    0.533498    0.338458    0.509928    11.00000    0.06760
HKLF 4

REM  411 in P-1
REM R1 =  0.0444 for    1802 Fo > 4sig(Fo)  and  0.0671 for all    2576 data
REM    197 parameters refined using      0 restraints

END

WGHT      0.0549      0.1807

REM Highest difference peak  0.297,  deepest hole -0.284,  1-sigma level  0.031
Q1    1   1.2011 -0.1250  0.8514  11.00000  0.05    0.30
Q2    1   1.2385  0.0008  0.8625  11.00000  0.05    0.25
Q3    1   1.5587 -0.0224  0.6184  11.00000  0.05    0.19
Q4    1   1.5011 -0.1410  0.8110  11.00000  0.05    0.16
Q5    1   1.5200 -0.2224  0.6692  11.00000  0.05    0.14
;
_shelx_res_checksum              76969
_shelx_hkl_file
;
  -1   0   0   20.04    0.34
  -1   0   0   19.30    0.34
  -1   0   0   19.94    0.33
  -1   0   0   19.82    0.33
  -1   0   0   19.33    0.33
   1   0   0   19.69    0.33
   1   0   0   19.78    0.33
   1   0   0   19.78    0.34
   1   0   0   19.32    0.33
   1   0   0   20.12    0.33
  -2   0   0  146.10    2.19
  -2   0   0  149.13    2.16
  -2   0   0  147.68    2.17
  -2   0   0  150.26    2.17
  -2   0   0  149.22    2.18
   2   0   0  146.36    2.16
   2   0   0  146.17    2.16
   2   0   0  146.88    2.16
   2   0   0  148.53    2.19
  -3   0   0   13.59    0.34
  -3   0   0   13.60    0.36
  -3   0   0   13.72    0.32
  -3   0   0   13.53    0.33
  -3   0   0   13.60    0.34
   3   0   0   13.26    0.35
   3   0   0   14.11    0.33
   3   0   0   13.45    0.33
   3   0   0   13.25    0.32
   3   0   0   13.88    0.33
  -4   0   0   50.07    0.92
  -4   0   0   48.96    0.95
  -4   0   0   50.02    0.88
  -4   0   0   49.86    0.93
  -4   0   0   50.51    0.94
   4   0   0   48.33    0.89
   4   0   0   50.42    0.91
   4   0   0   48.52    0.88
   4   0   0   49.17    0.89
   4   0   0   50.50    0.95
  -5   0   0    0.33    0.10
  -5   0   0    0.35    0.10
  -5   0   0    0.43    0.11
  -5   0   0    0.50    0.13
  -5   0   0    0.45    0.09
   5   0   0    0.49    0.12
   5   0   0    0.42    0.10
   5   0   0    0.56    0.11
  -6   0   0    0.08    0.09
  -6   0   0    0.07    0.13
  -6   0   0    0.02    0.06
  -6   0   0    0.08    0.08
  -6   0   0    0.17    0.09
   6   0   0    0.01    0.08
   6   0   0    0.12    0.08
  -7   0   0    1.55    0.22
  -7   0   0    1.66    0.23
  -7   0   0    1.97    0.26
   7   0   0    1.57    0.21
   7   0   0    2.09    0.20
  -8   0   0    0.13    0.14
  -8   0   0    0.29    0.18
   8   0   0    0.54    0.15
  -9   0   0   -0.19    0.14
  -9   0   0    0.08    0.17
  -9   1   0    0.68    0.24
  -9   1   0    0.79    0.23
  -8   1   0    1.19    0.24
  -8   1   0    0.87    0.23
   7  -1   0    8.20    0.38
   7  -1   0    7.91    0.40
  -7   1   0    7.85    0.44
  -7   1   0    8.27    0.45
   6  -1   0   15.50    0.52
   6  -1   0   15.65    0.50
  -6   1   0   15.87    0.54
  -6   1   0   15.29    0.56
  -6   1   0   15.68    0.49
  -6   1   0   15.84    0.56
  -6   1   0   16.46    0.58
   5  -1   0    6.68    0.30
   5  -1   0    6.92    0.31
   5  -1   0    6.39    0.33
  -5   1   0    6.75    0.32
  -5   1   0    6.55    0.32
  -5   1   0    6.06    0.30
  -5   1   0    6.19    0.28
  -5   1   0    6.75    0.34
   4  -1   0    6.77    0.27
   4  -1   0    7.09    0.30
   4  -1   0    6.57    0.27
  -4   1   0    6.71    0.28
  -4   1   0    6.92    0.31
  -4   1   0    6.62    0.29
  -4   1   0    6.77    0.29
  -4   1   0    6.76    0.26
   3  -1   0   18.39    0.45
   3  -1   0   18.80    0.45
   3  -1   0   18.45    0.45
   3  -1   0   18.68    0.45
   3  -1   0   18.81    0.47
  -3   1   0   18.39    0.44
  -3   1   0   19.17    0.46
  -3   1   0   18.15    0.47
  -3   1   0   17.97    0.46
  -3   1   0   18.35    0.46
   2  -1   0   20.37    0.45
   2  -1   0   20.71    0.44
   2  -1   0   20.81    0.44
   2  -1   0   20.72    0.44
   2  -1   0   20.47    0.44
  -2   1   0   20.45    0.45
  -2   1   0   19.86    0.44
  -2   1   0   20.50    0.43
  -2   1   0   20.52    0.45
  -2   1   0   20.14    0.45
   1  -1   0  131.52    1.93
   1  -1   0  129.86    1.93
   1  -1   0  130.82    1.93
   1  -1   0  130.81    1.93
  -1   1   0  128.77    1.94
  -1   1   0  131.99    1.94
  -1   1   0  129.53    1.93
  -1   1   0  128.65    1.93
  -1   1   0  129.67    1.92
   0  -1   0    0.22    0.03
   0  -1   0    0.14    0.03
   0  -1   0    0.17    0.03
   0  -1   0    0.10    0.03
   0   1   0    0.12    0.03
   0   1   0    0.10    0.03
  -1  -1   0   78.39    1.19
   1   1   0   79.91    1.20
  -2  -1   0    0.18    0.03
  -2  -1   0    0.12    0.06
   2   1   0    0.12    0.03
  -3  -1   0    5.36    0.16
  -3  -1   0    5.06    0.20
  -3  -1   0    5.07    0.16
  -3  -1   0    5.39    0.14
  -3  -1   0    5.08    0.16
   3   1   0    5.10    0.15
   3   1   0    5.31    0.20
   3   1   0    5.12    0.13
  -4  -1   0   19.89    0.49
  -4  -1   0   19.47    0.39
  -4  -1   0   20.04    0.45
  -4  -1   0   19.75    0.44
  -4  -1   0   20.05    0.44
   4   1   0   19.19    0.38
   4   1   0   20.14    0.43
   4   1   0   19.29    0.48
  -5  -1   0    0.27    0.08
  -5  -1   0    0.18    0.10
  -5  -1   0    0.23    0.08
  -5  -1   0    0.28    0.07
  -5  -1   0    0.20    0.07
   5   1   0    0.10    0.06
   5   1   0    0.27    0.10
  -6  -1   0    2.85    0.27
  -6  -1   0    2.40    0.21
  -6  -1   0    2.57    0.20
  -6  -1   0    2.64    0.20
   6   1   0    2.81    0.25
   6   1   0    2.50    0.18
  -7  -1   0    0.46    0.14
  -7  -1   0    0.44    0.17
  -7  -1   0    0.13    0.10
  -7  -1   0    0.14    0.11
   7   1   0    0.19    0.11
  -8  -1   0    0.43    0.18
  -8  -1   0    0.44    0.16
   8   1   0    0.28    0.11
  -9  -1   0    0.29    0.19
  -9  -1   0    0.55    0.19
 -10  -1   0    0.60    0.24
 -10  -1   0    0.47    0.23
  -9   2   0    0.71    0.25
  -9   2   0    0.93    0.26
  -8   2   0    0.66    0.21
  -8   2   0    0.75    0.23
   7  -2   0    0.34    0.14
   7  -2   0    0.35    0.14
  -7   2   0    0.42    0.16
  -7   2   0    0.38    0.17
   6  -2   0    0.40    0.12
   6  -2   0    0.39    0.14
  -6   2   0    0.49    0.19
  -6   2   0    0.47    0.15
  -6   2   0    0.42    0.12
   5  -2   0    0.27    0.11
   5  -2   0    0.27    0.10
  -5   2   0    0.18    0.10
  -5   2   0    0.20    0.09
  -5   2   0    0.27    0.13
  -5   2   0    0.39    0.12
   4  -2   0    2.07    0.20
   4  -2   0    1.76    0.18
   4  -2   0    2.11    0.22
   4  -2   0    2.38    0.23
  -4   2   0    2.24    0.22
  -4   2   0    2.41    0.23
  -4   2   0    1.68    0.19
  -4   2   0    2.30    0.18
   3  -2   0   37.36    0.79
   3  -2   0   39.18    0.82
   3  -2   0   37.37    0.80
   3  -2   0   39.02    0.81
  -3   2   0   38.66    0.82
  -3   2   0   36.68    0.79
  -3   2   0   38.33    0.81
  -3   2   0   38.34    0.82
  -3   2   0   37.52    0.77
   2  -2   0   13.25    0.36
   2  -2   0   13.51    0.37
   2  -2   0   13.49    0.38
   2  -2   0   13.60    0.38
  -2   2   0   13.34    0.38
  -2   2   0   13.96    0.39
  -2   2   0   13.38    0.37
  -2   2   0   13.43    0.39
  -2   2   0   13.47    0.36
   1  -2   0  318.28    4.56
   1  -2   0  309.27    4.58
   1  -2   0  321.97    4.58
   1  -2   0  313.45    4.58
  -1   2   0  317.93    4.57
  -1   2   0  318.89    4.57
  -1   2   0  320.97    4.58
  -1   2   0  311.53    4.58
   0  -2   0   56.90    0.90
   0  -2   0   56.92    0.91
   0  -2   0   56.84    0.92
   0  -2   0   56.69    0.91
   0   2   0   57.39    0.91
   0   2   0   54.97    0.90
   0   2   0   55.97    0.90
  -1  -2   0  333.30    4.80
  -1  -2   0  338.25    4.77
  -1  -2   0  338.81    4.82
   1   2   0  330.23    4.80
  -2  -2   0    0.14    0.05
   2   2   0    0.04    0.04
  -3  -2   0    0.15    0.06
  -3  -2   0    0.07    0.05
  -4  -2   0   12.53    0.37
  -4  -2   0   13.45    0.29
   4   2   0   13.18    0.28
  -5  -2   0    5.39    0.26
  -5  -2   0    5.09    0.20
  -5  -2   0    5.27    0.20
  -5  -2   0    5.17    0.20
   5   2   0    5.25    0.19
  -6  -2   0    0.93    0.13
  -6  -2   0    0.98    0.13
  -6  -2   0    0.58    0.15
  -6  -2   0    0.64    0.11
   6   2   0    0.68    0.10
  -7  -2   0   14.19    0.47
  -7  -2   0   13.61    0.46
  -7  -2   0   13.79    0.45
  -7  -2   0   14.25    0.53
   7   2   0   13.92    0.43
  -8  -2   0    0.18    0.13
  -8  -2   0   -0.11    0.13
   8   2   0    0.25    0.11
  -9  -2   0    0.94    0.22
  -9  -2   0    0.29    0.18
 -10  -2   0    0.04    0.18
 -10  -2   0    0.35    0.21
  -8   3   0    0.96    0.26
  -8   3   0    0.92    0.24
   7  -3   0    0.03    0.13
  -7   3   0   -0.09    0.12
  -7   3   0    0.25    0.15
   6  -3   0    0.33    0.14
   6  -3   0    1.14    0.21
  -6   3   0    0.88    0.21
  -6   3   0    0.66    0.18
   5  -3   0    0.08    0.08
   5  -3   0    0.35    0.14
  -5   3   0    0.23    0.14
  -5   3   0    0.21    0.10
  -5   3   0    0.26    0.13
   4  -3   0    0.78    0.17
   4  -3   0    0.86    0.16
  -4   3   0    0.51    0.15
  -4   3   0    0.64    0.13
  -4   3   0    0.80    0.15
   3  -3   0    0.30    0.09
   3  -3   0    0.48    0.12
   3  -3   0    0.66    0.14
   3  -3   0    0.40    0.11
   3  -3   0    0.29    0.12
  -3   3   0    0.39    0.12
  -3   3   0    0.31    0.12
  -3   3   0    0.50    0.11
  -3   3   0    0.11    0.08
   2  -3   0   16.52    0.47
   2  -3   0   15.96    0.47
   2  -3   0   15.91    0.46
   2  -3   0   16.42    0.47
  -2   3   0   16.84    0.46
  -2   3   0   15.95    0.46
  -2   3   0   16.50    0.45
   1  -3   0    0.14    0.06
   1  -3   0    0.11    0.05
   1  -3   0    0.17    0.07
   1  -3   0    0.19    0.08
   1  -3   0    0.08    0.06
  -1   3   0    0.09    0.06
  -1   3   0    0.12    0.06
  -1   3   0    0.14    0.06
   0  -3   0    0.45    0.07
   0  -3   0    0.56    0.09
   0  -3   0    0.52    0.08
   0   3   0    0.63    0.08
   0   3   0    0.64    0.08
   0   3   0    0.58    0.08
  -1  -3   0    0.12    0.06
  -1  -3   0    0.01    0.04
  -1  -3   0   -0.03    0.04
   1   3   0    0.07    0.03
   1   3   0   -0.01    0.04
   1   3   0    0.02    0.04
   1   3   0    0.07    0.05
  -2  -3   0    6.08    0.24
  -3  -3   0    3.71    0.20
  -4  -3   0   13.41    0.43
  -4  -3   0   14.00    0.40
  -5  -3   0    4.20    0.15
  -5  -3   0    4.82    0.26
  -5  -3   0    4.58    0.27
  -6  -3   0    0.57    0.09
  -6  -3   0    0.61    0.15
  -6  -3   0    0.75    0.10
  -6  -3   0    0.71    0.10
  -6  -3   0    0.56    0.14
   6   3   0    0.53    0.09
  -7  -3   0    7.73    0.30
  -7  -3   0    7.72    0.30
  -7  -3   0    7.40    0.39
  -7  -3   0    7.19    0.30
   7   3   0    7.77    0.29
  -8  -3   0    3.68    0.31
  -8  -3   0    3.89    0.28
   8   3   0    3.53    0.24
  -9  -3   0    0.38    0.18
  -9  -3   0    0.63    0.18
 -10  -3   0   -0.03    0.15
 -10  -3   0   -0.06    0.18
  -8   4   0    0.14    0.20
   7  -4   0   -0.09    0.12
  -7   4   0    0.12    0.15
   6  -4   0    0.79    0.21
  -6   4   0    0.70    0.20
  -6   4   0    0.72    0.20
   5  -4   0    0.59    0.17
   5  -4   0    0.65    0.18
  -5   4   0    0.62    0.17
  -5   4   0    0.89    0.21
  -5   4   0    0.50    0.14
   4  -4   0    0.34    0.11
   4  -4   0    0.18    0.11
  -4   4   0    0.23    0.10
  -4   4   0    0.25    0.12
   3  -4   0    4.38    0.26
   3  -4   0    4.30    0.29
   3  -4   0    4.58    0.28
  -3   4   0    4.52    0.26
  -3   4   0    4.22    0.27
   2  -4   0   11.35    0.41
   2  -4   0   11.55    0.42
   2  -4   0   11.30    0.39
   2  -4   0   10.95    0.41
  -2   4   0   11.53    0.40
  -2   4   0   11.14    0.40
   1  -4   0    3.48    0.22
   1  -4   0    3.87    0.22
   1  -4   0    3.92    0.22
   1  -4   0    3.88    0.20
   1  -4   0    3.80    0.22
  -1   4   0    3.79    0.21
  -1   4   0    3.85    0.21
  -1   4   0    3.51    0.20
   0  -4   0   10.58    0.34
   0  -4   0   10.80    0.34
   0  -4   0   10.56    0.33
   0   4   0   10.28    0.32
   0   4   0   10.33    0.35
   0   4   0   10.84    0.33
   0   4   0   10.72    0.32
  -1  -4   0   44.24    0.80
  -1  -4   0   42.90    0.79
  -1  -4   0   43.79    0.79
   1   4   0   43.12    0.75
   1   4   0   42.42    0.78
   1   4   0   43.46    0.75
   1   4   0   43.06    0.87
  -2  -4   0   67.67    1.06
  -2  -4   0   66.38    1.23
  -2  -4   0   68.69    1.07
   2   4   0   68.13    1.06
   2   4   0   65.12    1.22
  -3  -4   0    1.59    0.17
   3   4   0    1.27    0.15
  -4  -4   0    6.45    0.31
  -5  -4   0    0.17    0.09
  -5  -4   0    0.32    0.11
  -6  -4   0    0.83    0.17
  -6  -4   0    0.89    0.18
  -7  -4   0    0.03    0.07
  -7  -4   0    0.02    0.13
  -8  -4   0   16.86    0.48
  -8  -4   0   16.83    0.60
  -9  -4   0    0.09    0.14
  -9  -4   0    0.08    0.12
 -10  -4   0    0.06    0.15
 -10  -4   0    0.42    0.21
   7  -5   0    0.16    0.16
  -7   5   0    0.14    0.17
   6  -5   0    1.44    0.26
  -6   5   0    1.30    0.25
   5  -5   0    0.22    0.14
  -5   5   0    0.07    0.12
   4  -5   0    1.93    0.27
  -4   5   0    1.60    0.23
  -4   5   0    2.07    0.27
   3  -5   0    5.39    0.35
   3  -5   0    5.46    0.34
  -3   5   0    5.56    0.32
  -3   5   0    5.23    0.33
   2  -5   0   21.65    0.64
   2  -5   0   21.82    0.65
  -2   5   0   21.83    0.64
  -2   5   0   21.35    0.62
   1  -5   0    4.34    0.25
   1  -5   0    3.77    0.24
   1  -5   0    4.36    0.26
  -1   5   0    4.22    0.24
  -1   5   0    4.17    0.24
   0  -5   0    3.16    0.20
   0  -5   0    3.05    0.20
   0  -5   0    3.22    0.21
   0   5   0    3.61    0.21
   0   5   0    3.08    0.23
   0   5   0    3.10    0.19
  -1  -5   0   17.06    0.45
  -1  -5   0   16.37    0.45
  -1  -5   0   16.53    0.44
   1   5   0   16.97    0.51
   1   5   0   16.40    0.40
   1   5   0   16.77    0.41
   1   5   0   16.57    0.43
  -2  -5   0   77.43    1.27
  -2  -5   0   76.52    1.28
  -2  -5   0   75.42    1.26
  -2  -5   0   76.21    1.42
   2   5   0   75.68    1.42
   2   5   0   77.53    1.26
  -3  -5   0    3.45    0.14
  -3  -5   0    3.18    0.24
   3   5   0    3.38    0.14
   3   5   0    3.30    0.23
  -4  -5   0    8.03    0.37
   4   5   0    7.41    0.36
  -5  -5   0    0.12    0.09
  -6  -5   0    0.51    0.15
  -7  -5   0    1.26    0.21
  -8  -5   0    2.63    0.30
  -9  -5   0    1.59    0.26
 -10  -5   0   -0.09    0.18
 -10  -5   0    0.09    0.14
   7  -6   0    0.17    0.19
  -7   6   0    0.11    0.19
   6  -6   0    0.94    0.26
  -6   6   0    0.47    0.20
   5  -6   0    3.73    0.37
  -5   6   0    4.17    0.43
   4  -6   0    0.43    0.17
  -4   6   0    0.13    0.14
  -4   6   0    0.41    0.15
   3  -6   0    0.37    0.14
  -3   6   0    0.16    0.11
  -3   6   0    0.28    0.12
   2  -6   0    2.56    0.26
  -2   6   0    3.04    0.26
  -2   6   0    3.55    0.27
   1  -6   0    7.03    0.35
   1  -6   0    7.63    0.37
   1  -6   0    7.63    0.38
  -1   6   0    7.40    0.35
  -1   6   0    7.86    0.36
   0  -6   0    0.06    0.06
   0  -6   0   -0.06    0.08
   0  -6   0    0.06    0.07
   0   6   0    0.13    0.07
   0   6   0    0.08    0.07
   0   6   0    0.24    0.11
  -1  -6   0    0.30    0.10
  -1  -6   0    0.22    0.09
  -1  -6   0    0.08    0.08
   1   6   0    0.16    0.07
   1   6   0    0.15    0.08
   1   6   0    0.05    0.09
  -2  -6   0    4.87    0.24
  -2  -6   0    5.32    0.24
  -2  -6   0    4.82    0.23
   2   6   0    4.77    0.22
   2   6   0    4.73    0.30
  -3  -6   0   10.86    0.31
  -3  -6   0   10.73    0.32
  -3  -6   0   10.46    0.44
  -3  -6   0   10.33    0.31
   3   6   0   10.56    0.44
   3   6   0   10.24    0.30
  -4  -6   0    9.79    0.27
  -4  -6   0    9.41    0.44
   4   6   0   10.67    0.45
   4   6   0    9.46    0.25
  -7  -6   0    0.43    0.15
  -8  -6   0    0.89    0.20
  -9  -6   0    0.25    0.16
   6  -7   0    0.42    0.25
  -6   7   0    0.20    0.20
   5  -7   0    0.36    0.22
  -5   7   0    0.04    0.16
   4  -7   0    0.09    0.15
  -4   7   0    0.04    0.12
   3  -7   0    1.77    0.29
  -3   7   0    1.19    0.23
  -3   7   0    1.60    0.23
   2  -7   0    0.64    0.20
   2  -7   0    0.46    0.16
  -2   7   0    0.04    0.11
  -2   7   0    0.43    0.13
   1  -7   0   11.91    0.50
   1  -7   0   11.29    0.49
   1  -7   0   12.00    0.52
  -1   7   0   12.20    0.49
  -1   7   0   12.14    0.53
  -1   7   0   12.59    0.48
   0  -7   0    0.24    0.11
   0  -7   0    0.10    0.08
   0  -7   0    0.38    0.13
   0   7   0    0.24    0.09
   0   7   0    0.38    0.14
   0   7   0    0.16    0.10
  -1  -7   0    1.62    0.18
  -1  -7   0    1.84    0.22
  -1  -7   0    1.49    0.19
   1   7   0    2.16    0.24
   1   7   0    2.06    0.21
   1   7   0    2.00    0.17
  -2  -7   0    0.03    0.08
  -2  -7   0    0.05    0.07
  -2  -7   0    0.05    0.07
   2   7   0    0.11    0.08
   2   7   0    0.09    0.10
   2   7   0    0.12    0.05
  -3  -7   0    1.34    0.15
  -3  -7   0    1.08    0.15
  -3  -7   0    1.12    0.15
   3   7   0    1.09    0.18
   3   7   0    1.04    0.13
  -4  -7   0    0.06    0.06
  -4  -7   0    0.12    0.07
  -4  -7   0    0.00    0.05
   4   7   0    0.03    0.05
   4   7   0   -0.01    0.09
   5   7   0    4.70    0.36
  -8  -7   0    0.97    0.22
  -9  -7   0    0.18    0.17
   5  -8   0    0.12    0.21
   4  -8   0    0.79    0.24
  -4   8   0    0.92    0.26
   3  -8   0    0.06    0.17
  -3   8   0    0.12    0.12
  -3   8   0    0.10    0.13
   2  -8   0    0.11    0.17
  -2   8   0    0.11    0.12
  -2   8   0    0.19    0.14
   1  -8   0    4.80    0.36
   1  -8   0    5.16    0.39
  -1   8   0    5.19    0.35
  -1   8   0    5.02    0.34
  -1   8   0    5.69    0.41
   0  -8   0    0.12    0.10
   0  -8   0    0.19    0.11
   0  -8   0    0.20    0.12
   0   8   0   -0.01    0.08
   0   8   0    0.20    0.11
   0   8   0    0.40    0.16
  -1  -8   0    0.84    0.15
  -1  -8   0    0.71    0.15
  -1  -8   0    0.98    0.18
   1   8   0    1.07    0.17
   1   8   0    1.26    0.23
   1   8   0    1.04    0.15
  -2  -8   0    1.71    0.21
  -2  -8   0    2.07    0.24
  -2  -8   0    1.37    0.18
   2   8   0    1.99    0.21
   2   8   0    1.74    0.24
   2   8   0    1.75    0.14
  -3  -8   0    1.24    0.19
  -3  -8   0    0.92    0.14
  -3  -8   0    1.15    0.17
   3   8   0    1.25    0.23
   3   8   0    0.89    0.14
  -4  -8   0    5.00    0.25
  -4  -8   0    5.26    0.27
  -4  -8   0    4.76    0.25
   4   8   0    4.87    0.24
   4   8   0    5.17    0.38
  -5  -8   0    0.07    0.06
  -5  -8   0   -0.08    0.06
   5   8   0   -0.03    0.06
   5   8   0   -0.04    0.10
  -8  -8   0    0.06    0.14
  -9  -8   0    2.15    0.31
   4  -9   0    0.39    0.27
   3  -9   0    0.05    0.18
   2  -9   0    2.85    0.36
  -2   9   0    3.98    0.45
  -2   9   0    2.53    0.31
   1  -9   0    2.02    0.32
  -1   9   0    1.31    0.25
  -1   9   0    1.51    0.29
   0  -9   0    0.04    0.14
   0   9   0    0.12    0.15
   0   9   0    0.17    0.13
  -1  -9   0    0.89    0.21
   1   9   0    0.72    0.17
   1   9   0    1.13    0.24
  -2  -9   0    0.77    0.18
   2   9   0    1.40    0.20
   2   9   0    0.81    0.20
  -3  -9   0    0.27    0.12
   3   9   0    0.22    0.15
   3   9   0    0.15    0.10
  -4  -9   0   -0.07    0.08
   4   9   0   -0.03    0.09
   4   9   0   -0.17    0.11
  -5  -9   0    0.64    0.13
   5   9   0    0.59    0.11
   5   9   0    0.48    0.16
  -8  -9   0    0.58    0.18
   2 -10   0    1.17    0.29
  -2  10   0    0.45    0.35
   1 -10   0    0.12    0.18
  -1  10   0    0.01    0.17
  -1  10   0    0.30    0.16
   0 -10   0    2.85    0.38
   0  10   0    3.30    0.42
   0  10   0    3.05    0.36
  -1 -10   0    0.04    0.13
   1  10   0   -0.11    0.10
   1  10   0    0.00    0.16
  -2 -10   0    0.31    0.16
   2  10   0    0.11    0.17
   2  10   0    0.24    0.14
  -3 -10   0    2.19    0.28
   3  10   0    2.76    0.36
   3  10   0    2.98    0.30
  -4 -10   0    0.02    0.11
   4  10   0   -0.13    0.14
   4  10   0    0.10    0.09
  -5 -10   0    0.12    0.11
   5  10   0    0.05    0.09
   5  10   0    0.04    0.14
   0 -11   0   -0.09    0.20
   0  11   0    0.08    0.15
  -1 -11   0    0.18    0.19
   1  11   0    0.50    0.16
  -2 -11   0    0.01    0.14
   2  11   0    0.06    0.11
   2  11   0   -0.19    0.25
  -3 -11   0    0.30    0.17
   3  11   0    0.13    0.28
   3  11   0    0.14    0.12
  -4 -11   0    0.07    0.13
   4  11   0    0.04    0.11
  -5 -11   0   -0.01    0.11
   5  11   0    0.06    0.10
   4  11  -1    0.21    0.14
  -4 -11   1    0.11    0.12
   3  11  -1    0.24    0.14
  -3 -11   1    0.19    0.14
   2  11  -1    0.07    0.15
  -2 -11   1   -0.20    0.13
   1  11  -1   -0.04    0.14
  -1 -11   1    0.28    0.19
   5  10  -1    0.05    0.17
   5  10  -1    0.25    0.11
  -5 -10   1   -0.02    0.10
   4  10  -1    0.20    0.12
   4  10  -1    0.26    0.19
  -4 -10   1    0.21    0.14
   3  10  -1    1.49    0.23
   3  10  -1    0.99    0.25
  -3 -10   1    1.42    0.24
   2  10  -1    0.16    0.17
   2  10  -1    0.02    0.13
  -2 -10   1   -0.10    0.11
   1  10  -1   -0.03    0.17
   1  10  -1    0.12    0.13
  -1 -10   1   -0.05    0.14
   0  10  -1   -0.04    0.13
   0  10  -1    0.25    0.18
   0 -10   1   -0.05    0.15
  -1  10  -1    1.64    0.32
  -1  10  -1    1.15    0.26
   1 -10   1    1.51    0.32
   2 -10   1    0.93    0.31
   5   9  -1    0.06    0.15
   5   9  -1    0.16    0.10
  -5  -9   1    0.24    0.11
   4   9  -1   -0.04    0.08
   4   9  -1   -0.06    0.11
  -4  -9   1    0.08    0.10
   3   9  -1    0.34    0.13
   3   9  -1    0.47    0.17
  -3  -9   1    0.41    0.15
   2   9  -1    2.45    0.27
   2   9  -1    2.27    0.31
  -2  -9   1    1.99    0.25
   1   9  -1    0.47    0.16
   1   9  -1    0.34    0.17
  -1  -9   1    0.27    0.16
   0   9  -1    0.32    0.17
   0   9  -1    0.32    0.14
   0  -9   1    0.26    0.16
  -1   9  -1    0.89    0.23
  -1   9  -1    0.90    0.21
   1  -9   1    1.44    0.31
  -2   9  -1    1.47    0.27
  -2   9  -1    0.77    0.25
   2  -9   1    0.94    0.27
  -3   9  -1    0.37    0.21
   3  -9   1    0.27    0.21
  -8  -8   1    0.16    0.15
   5   8  -1    1.67    0.27
   5   8  -1    1.95    0.16
  -5  -8   1    1.87    0.17
  -5  -8   1    1.62    0.17
   4   8  -1    1.94    0.19
   4   8  -1    1.76    0.26
  -4  -8   1    1.85    0.20
  -4  -8   1    2.11    0.21
  -4  -8   1    1.74    0.18
   3   8  -1    1.70    0.20
   3   8  -1    2.07    0.27
  -3  -8   1    1.86    0.20
  -3  -8   1    1.84    0.22
  -3  -8   1    1.40    0.19
   2   8  -1    2.67    0.29
   2   8  -1    2.50    0.25
  -2  -8   1    1.88    0.21
  -2  -8   1    2.45    0.25
  -2  -8   1    2.70    0.27
   1   8  -1   -0.09    0.11
   1   8  -1    0.30    0.10
   1   8  -1    0.10    0.10
  -1  -8   1    0.21    0.12
  -1  -8   1    0.27    0.11
  -1  -8   1    0.08    0.11
   0   8  -1   -0.03    0.05
   0   8  -1    0.02    0.09
   0   8  -1    0.02    0.12
   0  -8   1    0.09    0.11
   0  -8   1    0.16    0.13
  -1   8  -1    4.01    0.31
  -1   8  -1    3.41    0.32
  -1   8  -1    4.90    0.40
   1  -8   1    3.07    0.31
  -2   8  -1    0.31    0.15
  -2   8  -1    0.17    0.12
  -2   8  -1    0.06    0.14
   2  -8   1    0.45    0.18
  -3   8  -1    1.62    0.26
  -3   8  -1    1.66    0.37
   3  -8   1    1.15    0.26
   4  -8   1    0.36    0.23
  -8  -7   1    0.08    0.12
  -5  -7   1    0.32    0.08
   4   7  -1    0.12    0.12
   4   7  -1    0.24    0.08
  -4  -7   1    0.12    0.07
  -4  -7   1    0.21    0.08
   3   7  -1    0.11    0.11
   3   7  -1    0.01    0.06
  -3  -7   1    0.09    0.07
  -3  -7   1    0.05    0.08
   2   7  -1    3.10    0.22
   2   7  -1    3.53    0.32
  -2  -7   1    3.18    0.22
  -2  -7   1    3.33    0.24
  -2  -7   1    3.11    0.23
   1   7  -1    0.17    0.12
   1   7  -1    0.19    0.08
   1   7  -1    0.14    0.09
  -1  -7   1    0.39    0.13
  -1  -7   1    0.09    0.09
  -1  -7   1   -0.02    0.07
   0   7  -1    2.08    0.23
   0   7  -1    2.19    0.28
   0   7  -1    2.31    0.24
   0  -7   1    1.75    0.21
   0  -7   1    2.23    0.24
   0  -7   1    1.98    0.25
  -1   7  -1    1.33    0.21
  -1   7  -1    1.41    0.21
  -1   7  -1    1.12    0.21
   1  -7   1    1.20    0.23
   1  -7   1    0.81    0.16
   1  -7   1    0.92    0.17
  -2   7  -1    3.28    0.31
  -2   7  -1    2.76    0.30
  -2   7  -1    2.96    0.31
   2  -7   1    3.19    0.34
   2  -7   1    3.77    0.40
  -3   7  -1    0.89    0.19
  -3   7  -1    0.54    0.18
   3  -7   1    1.04    0.26
  -4   7  -1    0.09    0.15
   4  -7   1    0.52    0.23
  -5   7  -1    0.90    0.23
   5  -7   1    0.83    0.25
  -6   7  -1    0.03    0.18
   6  -7   1    0.07    0.19
  -8  -6   1   -0.16    0.11
  -7  -6   1    0.71    0.17
   4   6  -1    0.72    0.15
  -4  -6   1    0.90    0.10
  -4  -6   1    1.45    0.25
   3   6  -1    0.52    0.09
   3   6  -1    0.37    0.13
  -3  -6   1    0.46    0.09
  -3  -6   1    0.44    0.10
  -3  -6   1    0.53    0.14
   2   6  -1    1.98    0.23
   2   6  -1    1.87    0.17
  -2  -6   1    1.91    0.22
  -2  -6   1    2.26    0.21
  -2  -6   1    2.07    0.17
   1   6  -1    0.38    0.09
   1   6  -1    0.33    0.09
   1   6  -1    0.40    0.12
  -1  -6   1    0.30    0.10
  -1  -6   1    0.54    0.12
  -1  -6   1    0.25    0.10
   0   6  -1    0.34    0.11
   0   6  -1    0.16    0.09
   0   6  -1    0.35    0.10
   0  -6   1    0.22    0.10
   0  -6   1    0.27    0.10
   0  -6   1    0.24    0.10
  -1   6  -1    2.72    0.26
  -1   6  -1    2.10    0.22
  -1   6  -1    2.23    0.25
   1  -6   1    3.00    0.25
   1  -6   1    2.13    0.23
   1  -6   1    2.14    0.24
  -2   6  -1    0.12    0.09
  -2   6  -1    0.00    0.10
   2  -6   1    0.07    0.10
   2  -6   1    0.08    0.09
  -3   6  -1    0.48    0.16
  -3   6  -1    0.32    0.13
   3  -6   1    0.48    0.15
  -4   6  -1    0.11    0.12
  -4   6  -1    0.18    0.14
   4  -6   1    0.20    0.15
  -5   6  -1    1.24    0.28
   5  -6   1    1.70    0.29
  -6   6  -1    0.42    0.21
   6  -6   1    0.88    0.25
  -9  -5   1    2.10    0.27
  -8  -5   1    2.22    0.27
  -7  -5   1    1.16    0.19
  -6  -5   1    0.24    0.12
  -5  -5   1    1.14    0.18
  -4  -5   1    5.36    0.32
   3   5  -1    5.94    0.32
  -3  -5   1    5.42    0.20
  -3  -5   1    5.21    0.30
  -3  -5   1    5.49    0.20
   2   5  -1   10.09    0.40
  -2  -5   1   10.48    0.32
  -2  -5   1   10.20    0.31
  -2  -5   1    9.99    0.40
   1   5  -1   52.34    1.08
   1   5  -1   53.06    1.00
   1   5  -1   53.66    0.95
   1   5  -1   52.89    0.94
  -1  -5   1   52.69    1.01
  -1  -5   1   52.65    1.01
   0   5  -1    1.34    0.15
   0   5  -1    1.24    0.15
   0   5  -1    1.14    0.17
   0  -5   1    1.35    0.16
   0  -5   1    1.13    0.14
   0  -5   1    1.51    0.19
  -1   5  -1    0.02    0.06
  -1   5  -1    0.02    0.06
   1  -5   1    0.04    0.07
   1  -5   1    0.10    0.07
   1  -5   1   -0.09    0.06
  -2   5  -1    3.07    0.24
  -2   5  -1    3.17    0.25
   2  -5   1    3.78    0.28
   2  -5   1    3.43    0.26
   2  -5   1    3.16    0.25
  -3   5  -1   -0.09    0.09
  -3   5  -1    0.18    0.10
   3  -5   1    0.14    0.10
   3  -5   1    0.13    0.11
  -4   5  -1    1.75    0.25
  -4   5  -1    1.19    0.21
   4  -5   1    0.75    0.19
  -5   5  -1    0.01    0.12
   5  -5   1    0.21    0.16
  -6   5  -1   -0.04    0.15
   6  -5   1    0.08    0.15
  -7   5  -1   -0.24    0.15
   7  -5   1   -0.04    0.16
 -10  -4   1   -0.03    0.15
   9   4  -1    0.12    0.09
  -9  -4   1    0.16    0.15
  -9  -4   1    0.16    0.12
   8   4  -1    9.71    0.33
  -8  -4   1    9.02    0.35
  -8  -4   1    9.85    0.44
  -8  -4   1    9.65    0.35
  -7  -4   1    0.15    0.07
  -7  -4   1   -0.06    0.11
  -6  -4   1    1.03    0.16
  -5  -4   1    0.09    0.08
  -4  -4   1   25.26    0.68
   3   4  -1    1.09    0.15
  -3  -4   1    1.23    0.15
   2   4  -1   51.84    1.03
  -2  -4   1   52.37    0.89
  -2  -4   1   52.36    1.04
  -2  -4   1   53.42    0.89
   1   4  -1    0.70    0.09
   1   4  -1    0.56    0.08
   1   4  -1    0.43    0.09
  -1  -4   1    0.86    0.11
  -1  -4   1    0.70    0.10
  -1  -4   1    0.44    0.10
   0   4  -1    6.70    0.26
   0   4  -1    6.65    0.26
   0   4  -1    7.01    0.29
   0   4  -1    6.55    0.25
   0  -4   1    6.90    0.28
   0  -4   1    6.59    0.29
   0  -4   1    7.16    0.27
  -1   4  -1    3.04    0.20
  -1   4  -1    3.21    0.20
   1  -4   1    3.03    0.22
   1  -4   1    3.29    0.21
   1  -4   1    2.92    0.20
   1  -4   1    2.83    0.20
  -2   4  -1   32.33    0.76
  -2   4  -1   31.51    0.77
   2  -4   1   32.56    0.79
   2  -4   1   31.94    0.77
   2  -4   1   31.31    0.78
  -3   4  -1    0.80    0.15
  -3   4  -1    0.63    0.16
  -3   4  -1    0.80    0.15
   3  -4   1    0.88    0.16
   3  -4   1    0.86    0.17
  -4   4  -1    4.96    0.33
  -4   4  -1    5.39    0.32
  -4   4  -1    5.20    0.37
   4  -4   1    5.26    0.35
  -5   4  -1    1.06    0.19
  -5   4  -1    0.67    0.20
  -5   4  -1    1.49    0.22
   5  -4   1    0.98    0.19
  -6   4  -1    0.30    0.16
  -6   4  -1    0.27    0.16
   6  -4   1    0.28    0.16
  -7   4  -1    0.32    0.21
  -7   4  -1    0.04    0.15
   7  -4   1   -0.07    0.14
  -8   4  -1    0.27    0.16
  -8   4  -1   -0.04    0.18
 -10  -3   1    0.67    0.22
   9   3  -1    1.32    0.18
  -9  -3   1    1.21    0.19
  -9  -3   1    1.45    0.22
  -9  -3   1    1.59    0.25
   8   3  -1   -0.02    0.09
  -8  -3   1    0.29    0.15
  -8  -3   1   -0.04    0.08
  -8  -3   1    0.15    0.11
   7   3  -1    2.09    0.17
  -7  -3   1    2.42    0.25
  -7  -3   1    2.31    0.19
  -7  -3   1    2.32    0.18
  -7  -3   1    2.32    0.19
   6   3  -1    0.01    0.05
  -6  -3   1    0.03    0.09
  -6  -3   1    0.15    0.11
  -6  -3   1    0.07    0.06
  -5  -3   1    1.15    0.18
  -5  -3   1    0.82    0.13
  -4  -3   1    7.84    0.34
  -3  -3   1    0.24    0.07
   2   3  -1   28.00    0.62
  -2  -3   1   27.66    0.48
  -2  -3   1   27.93    0.62
  -2  -3   1   28.15    0.48
   1   3  -1   30.35    0.54
   1   3  -1   31.47    0.64
   1   3  -1   29.45    0.53
  -1  -3   1   30.78    0.58
  -1  -3   1   30.67    0.57
  -1  -3   1   30.24    0.64
   0   3  -1    0.96    0.10
   0   3  -1    1.02    0.12
   0   3  -1    1.05    0.11
   0  -3   1    0.93    0.10
   0  -3   1    0.69    0.11
   0  -3   1    1.11    0.12
  -1   3  -1   -0.02    0.04
  -1   3  -1    0.05    0.05
  -1   3  -1    0.06    0.05
   1  -3   1   -0.02    0.06
   1  -3   1    0.01    0.07
   1  -3   1    0.06    0.05
  -2   3  -1   10.95    0.37
  -2   3  -1   11.23    0.41
  -2   3  -1   11.78    0.39
  -2   3  -1   11.75    0.38
   2  -3   1   11.93    0.40
   2  -3   1   11.39    0.40
   2  -3   1   11.14    0.38
   2  -3   1   11.72    0.40
  -3   3  -1   51.01    1.07
  -3   3  -1   52.50    1.06
  -3   3  -1   50.74    1.10
   3  -3   1   51.59    1.08
   3  -3   1   50.38    1.06
   3  -3   1   54.51    1.10
  -4   3  -1   17.93    0.59
  -4   3  -1   18.06    0.56
   4  -3   1   18.92    0.59
  -5   3  -1    1.96    0.26
  -5   3  -1    2.26    0.28
  -5   3  -1    2.09    0.24
   5  -3   1    2.21    0.27
  -6   3  -1    5.64    0.41
  -6   3  -1    5.27    0.39
   6  -3   1    5.37    0.37
  -7   3  -1   -0.18    0.13
  -7   3  -1    0.18    0.15
   7  -3   1   -0.12    0.11
  -8   3  -1    0.24    0.17
  -8   3  -1    0.34    0.19
 -10  -2   1    0.77    0.23
   9   2  -1    0.87    0.18
  -9  -2   1    0.72    0.18
  -9  -2   1    1.01    0.22
  -9  -2   1    1.04    0.21
   8   2  -1    0.25    0.11
  -8  -2   1    0.15    0.14
  -8  -2   1    0.36    0.14
  -8  -2   1    0.24    0.11
   7   2  -1    7.20    0.31
  -7  -2   1    6.94    0.37
  -7  -2   1    7.10    0.32
  -7  -2   1    7.63    0.34
  -7  -2   1    7.62    0.34
   6   2  -1    0.09    0.06
  -6  -2   1    0.08    0.07
  -6  -2   1    0.06    0.06
  -6  -2   1   -0.12    0.10
  -6  -2   1    0.10    0.07
   5   2  -1    0.25    0.07
  -5  -2   1    0.32    0.07
  -5  -2   1    0.29    0.07
  -5  -2   1    0.24    0.10
   4   2  -1    5.23    0.17
  -4  -2   1    5.22    0.17
  -4  -2   1    5.16    0.21
  -3  -2   1    3.58    0.20
  -2  -2   1    0.03    0.04
   1   2  -1  491.14    6.83
   1   2  -1  477.29    6.97
   1   2  -1  466.26    6.79
  -1  -2   1  483.15    6.85
  -1  -2   1  491.52    6.93
  -1  -2   1  479.76    6.97
   0   2  -1   56.25    0.93
   0   2  -1   56.11    0.92
   0   2  -1   56.26    0.92
   0  -2   1   54.72    0.94
   0  -2   1   55.38    0.93
   0  -2   1   56.49    0.93
  -1   2  -1    9.15    0.28
  -1   2  -1    9.45    0.28
  -1   2  -1    9.22    0.28
   1  -2   1    9.61    0.29
   1  -2   1    9.92    0.30
  -2   2  -1   53.19    1.00
  -2   2  -1   53.98    0.99
  -2   2  -1   54.08    1.01
   2  -2   1   55.01    1.02
   2  -2   1   56.86    1.02
   2  -2   1   54.99    1.01
   2  -2   1   53.92    1.02
  -3   2  -1   19.86    0.54
  -3   2  -1   20.26    0.54
  -3   2  -1   20.56    0.53
   3  -2   1   20.49    0.54
   3  -2   1   20.36    0.56
   3  -2   1   21.19    0.54
   3  -2   1   20.87    0.55
  -4   2  -1    4.10    0.25
  -4   2  -1    4.59    0.29
  -4   2  -1    4.34    0.27
  -4   2  -1    4.62    0.25
   4  -2   1    4.33    0.27
   4  -2   1    4.58    0.26
  -5   2  -1    1.13    0.18
  -5   2  -1    1.57    0.19
  -5   2  -1    1.50    0.23
   5  -2   1    1.08    0.17
  -6   2  -1    0.97    0.19
  -6   2  -1    1.09    0.22
  -6   2  -1    0.65    0.15
   6  -2   1    0.56    0.15
  -7   2  -1    0.25    0.15
  -7   2  -1    0.43    0.19
   7  -2   1    0.33    0.14
  -8   2  -1    0.05    0.15
  -8   2  -1   -0.01    0.16
  -9   2  -1    0.18    0.19
  -9   2  -1    0.23    0.21
 -10  -1   1    3.01    0.38
   9   1  -1    0.04    0.11
  -9  -1   1    0.28    0.16
  -9  -1   1   -0.06    0.13
   8   1  -1    0.71    0.16
  -8  -1   1    1.03    0.21
  -8  -1   1    0.77    0.19
  -8  -1   1    0.51    0.14
   7   1  -1   31.02    0.75
  -7  -1   1   29.59    0.76
  -7  -1   1   32.02    0.79
  -7  -1   1   30.77    0.79
  -7  -1   1   31.90    0.80
   6   1  -1    0.24    0.11
   6   1  -1    0.21    0.09
  -6  -1   1    0.20    0.09
  -6  -1   1    0.14    0.09
  -6  -1   1    0.20    0.09
  -6  -1   1    0.21    0.12
   5   1  -1    2.90    0.19
   5   1  -1    2.75    0.17
  -5  -1   1    2.93    0.18
  -5  -1   1    2.81    0.18
  -5  -1   1    3.06    0.21
  -5  -1   1    3.02    0.18
   4   1  -1    0.36    0.07
  -4  -1   1    0.35    0.07
  -4  -1   1    0.33    0.05
  -4  -1   1    0.42    0.09
  -4  -1   1    0.41    0.08
   3   1  -1   23.74    0.44
  -3  -1   1   23.96    0.47
  -3  -1   1   23.87    0.45
  -3  -1   1   24.42    0.45
   2   1  -1   10.50    0.21
  -2  -1   1   10.45    0.23
  -2  -1   1   10.12    0.21
  -1  -1   1   92.34    1.33
  -1  -1   1   89.48    1.39
  -1  -1   1   93.09    1.33
   0   1  -1  345.36    5.17
   0   1  -1  349.85    5.17
   0   1  -1  350.14    5.17
   0  -1   1  355.06    5.03
   0  -1   1  346.25    5.22
   0  -1   1  349.72    5.16
   0  -1   1  345.25    4.96
   0  -1   1  351.12    5.15
  -1   1  -1  107.66    1.64
  -1   1  -1  106.54    1.63
  -1   1  -1  106.87    1.63
   1  -1   1  106.42    1.63
   1  -1   1  106.09    1.63
   1  -1   1  105.57    1.64
   1  -1   1  105.41    1.63
  -2   1  -1  135.34    2.09
  -2   1  -1  136.30    2.08
  -2   1  -1  136.49    2.10
  -2   1  -1  134.66    2.12
   2  -1   1  137.69    2.10
   2  -1   1  135.04    2.09
   2  -1   1  136.07    2.12
   2  -1   1  135.87    2.09
   2  -1   1  137.55    2.10
  -3   1  -1  222.56    3.27
  -3   1  -1  216.32    3.30
  -3   1  -1  212.50    3.28
  -3   1  -1  215.81    3.33
   3  -1   1  216.30    3.29
   3  -1   1  215.43    3.27
   3  -1   1  219.47    3.29
   3  -1   1  222.97    3.33
   3  -1   1  219.39    3.29
  -4   1  -1    6.39    0.26
  -4   1  -1    6.12    0.32
  -4   1  -1    6.45    0.29
  -4   1  -1    6.20    0.28
   4  -1   1    6.29    0.30
   4  -1   1    6.79    0.28
   4  -1   1    6.11    0.28
  -5   1  -1    0.85    0.15
  -5   1  -1    0.89    0.18
  -5   1  -1    0.77    0.14
  -5   1  -1    1.15    0.15
   5  -1   1    0.78    0.13
  -6   1  -1    1.87    0.21
  -6   1  -1    2.05    0.26
  -6   1  -1    1.73    0.22
  -6   1  -1    1.67    0.21
   6  -1   1    1.11    0.17
  -7   1  -1    3.21    0.35
  -7   1  -1    3.53    0.35
   7  -1   1    3.12    0.26
  -8   1  -1   -0.01    0.16
  -8   1  -1    0.45    0.19
  -9   1  -1    0.83    0.24
  -9   1  -1    0.46    0.23
  -9   0   1    0.09    0.16
  -9   0   1    0.12    0.15
   8   0  -1    0.05    0.11
  -8   0   1   -0.03    0.14
  -8   0   1    0.10    0.11
  -8   0   1    0.26    0.16
   7   0  -1    0.82    0.16
   7   0  -1    0.98    0.15
  -7   0   1    0.97    0.18
  -7   0   1    1.22    0.21
  -7   0   1    1.14    0.20
  -7   0   1    1.04    0.21
   6   0  -1   28.30    0.71
   6   0  -1   28.92    0.71
   6   0  -1   28.39    0.64
  -6   0   1   29.33    0.72
  -6   0   1   29.05    0.73
  -6   0   1   27.77    0.73
  -6   0   1   29.58    0.74
   5   0  -1    8.25    0.29
   5   0  -1    8.61    0.32
   5   0  -1    8.19    0.31
  -5   0   1    8.28    0.32
  -5   0   1    9.08    0.34
  -5   0   1    7.80    0.32
  -5   0   1    8.20    0.33
  -5   0   1    8.74    0.28
   4   0  -1    0.10    0.07
   4   0  -1    0.08    0.06
   4   0  -1    0.05    0.05
   4   0  -1    0.16    0.06
  -4   0   1    0.05    0.08
  -4   0   1    0.17    0.07
  -4   0   1    0.14    0.06
  -4   0   1    0.09    0.05
  -4   0   1    0.09    0.06
   3   0  -1    0.20    0.07
   3   0  -1    0.22    0.06
   3   0  -1    0.23    0.06
   3   0  -1    0.27    0.06
  -3   0   1    0.28    0.07
  -3   0   1    0.23    0.05
  -3   0   1    0.16    0.06
  -3   0   1    0.28    0.06
   2   0  -1    0.09    0.04
   2   0  -1    0.11    0.05
   2   0  -1    0.12    0.04
   2   0  -1    0.19    0.05
  -2   0   1    0.12    0.05
  -2   0   1    0.04    0.04
  -2   0   1    0.13    0.04
  -2   0   1    0.13    0.05
   1   0  -1    0.56    0.05
   1   0  -1    0.63    0.05
  -1   0   1    0.58    0.05
  -1   0   1    0.55    0.05
   0   0  -1    1.47    0.07
   0   0  -1    1.41    0.05
   0   0  -1    1.32    0.06
   0   0  -1    1.29    0.06
   0   0   1    1.42    0.07
   0   0   1    1.37    0.06
   0   0   1    1.48    0.07
   0   0   1    1.47    0.05
  -1   0  -1  101.88    1.55
  -1   0  -1  105.81    1.55
  -1   0  -1  105.46    1.55
  -1   0  -1  104.93    1.57
   1   0   1  106.94    1.55
   1   0   1  104.72    1.56
   1   0   1  104.57    1.55
   1   0   1  101.55    1.55
  -2   0  -1  674.38    9.97
  -2   0  -1  680.64    9.71
  -2   0  -1  678.26    9.84
  -2   0  -1  677.61    9.86
  -2   0  -1  666.89    9.84
   2   0   1  675.11    9.67
   2   0   1  678.54    9.84
   2   0   1  688.07    9.77
   2   0   1  692.64    9.85
   2   0   1  675.03    9.87
  -3   0  -1    0.04    0.05
  -3   0  -1    0.10    0.05
  -3   0  -1    0.11    0.08
  -3   0  -1    0.12    0.05
   3   0   1    0.16    0.06
   3   0   1    0.10    0.05
   3   0   1    0.08    0.08
   3   0   1    0.13    0.05
   3   0   1    0.11    0.06
  -4   0  -1    3.87    0.24
  -4   0  -1    3.57    0.18
  -4   0  -1    3.40    0.19
  -4   0  -1    3.33    0.20
   4   0   1    3.73    0.20
   4   0   1    3.80    0.23
   4   0   1    3.62    0.19
   4   0   1    3.39    0.19
   4   0   1    3.60    0.19
   4   0   1    3.86    0.19
  -5   0  -1    2.95    0.20
  -5   0  -1    3.00    0.21
  -5   0  -1    3.18    0.26
  -5   0  -1    3.19    0.18
   5   0   1    3.01    0.24
   5   0   1    2.85    0.19
   5   0   1    2.85    0.19
   5   0   1    3.36    0.19
  -6   0  -1    0.88    0.16
  -6   0  -1    0.92    0.15
  -6   0  -1    0.80    0.13
  -6   0  -1    0.72    0.19
   6   0   1    0.81    0.14
  -7   0  -1    0.04    0.11
  -7   0  -1    0.09    0.15
  -7   0  -1   -0.17    0.09
   7   0   1    0.07    0.10
  -8   0  -1   -0.08    0.15
  -8   0  -1   -0.06    0.12
  -9   0  -1    0.10    0.18
  -9   0  -1   -0.09    0.18
  -9   1   1    0.22    0.17
  -9   1   1   -0.07    0.17
  -8   1   1    3.05    0.34
  -8   1   1    2.17    0.30
  -8   1   1    3.11    0.37
   7  -1  -1    0.44    0.14
   7  -1  -1    0.59    0.16
  -7   1   1    0.46    0.15
  -7   1   1    0.33    0.15
  -7   1   1    0.46    0.16
   6  -1  -1   57.40    1.14
   6  -1  -1   57.43    1.19
  -6   1   1   55.71    1.19
  -6   1   1   57.80    1.22
  -6   1   1   58.12    1.13
  -6   1   1   56.08    1.24
  -6   1   1   59.29    1.24
   5  -1  -1    4.56    0.27
   5  -1  -1    4.69    0.25
   5  -1  -1    4.30    0.25
  -5   1   1    4.34    0.25
  -5   1   1    4.38    0.26
  -5   1   1    4.92    0.28
  -5   1   1    4.22    0.23
  -5   1   1    4.56    0.27
   4  -1  -1    1.83    0.17
   4  -1  -1    1.56    0.17
   4  -1  -1    1.57    0.16
  -4   1   1    2.07    0.21
  -4   1   1    1.39    0.16
  -4   1   1    1.50    0.16
  -4   1   1    1.66    0.19
  -4   1   1    1.96    0.17
   3  -1  -1   42.51    0.80
   3  -1  -1   42.58    0.79
   3  -1  -1   42.57    0.80
   3  -1  -1   41.66    0.79
  -3   1   1   41.26    0.79
  -3   1   1   42.74    0.82
  -3   1   1   41.68    0.81
  -3   1   1   41.81    0.82
  -3   1   1   42.37    0.79
   2  -1  -1   18.78    0.41
   2  -1  -1   18.22    0.40
   2  -1  -1   18.36    0.40
   2  -1  -1   18.86    0.41
  -2   1   1   18.66    0.41
  -2   1   1   18.24    0.40
  -2   1   1   18.15    0.40
  -2   1   1   19.38    0.42
  -2   1   1   18.34    0.42
   1  -1  -1    1.07    0.08
   1  -1  -1    1.03    0.08
   1  -1  -1    1.20    0.08
  -1   1   1    1.10    0.08
  -1   1   1    1.03    0.08
  -1   1   1    1.05    0.08
   0  -1  -1    0.77    0.05
   0  -1  -1    0.67    0.06
   0  -1  -1    0.84    0.06
   0   1   1    0.75    0.05
   0   1   1    0.74    0.05
   0   1   1    0.77    0.05
  -1  -1  -1   71.17    1.05
  -1  -1  -1   71.80    1.05
  -1  -1  -1   71.64    1.04
  -1  -1  -1   69.44    1.05
  -1  -1  -1   71.26    1.05
   1   1   1   72.06    1.04
   1   1   1   69.51    1.04
   1   1   1   71.53    1.04
   1   1   1   71.39    1.05
  -2  -1  -1   37.05    0.59
  -2  -1  -1   36.56    0.60
  -2  -1  -1   37.27    0.60
  -2  -1  -1   36.43    0.60
  -2  -1  -1   37.44    0.67
   2   1   1   36.11    0.59
   2   1   1   37.25    0.58
   2   1   1   37.08    0.67
   2   1   1   37.59    0.59
  -3  -1  -1   18.94    0.39
  -3  -1  -1   19.28    0.39
  -3  -1  -1   18.99    0.40
  -3  -1  -1   18.79    0.37
  -3  -1  -1   18.71    0.45
   3   1   1   18.87    0.36
   3   1   1   19.27    0.37
   3   1   1   19.13    0.37
   3   1   1   18.38    0.45
   3   1   1   18.76    0.37
  -4  -1  -1   14.68    0.37
  -4  -1  -1   14.96    0.34
  -4  -1  -1   15.13    0.38
  -4  -1  -1   14.98    0.44
   4   1   1   14.29    0.34
   4   1   1   14.90    0.34
   4   1   1   13.99    0.42
   4   1   1   14.81    0.36
   4   1   1   14.53    0.34
  -5  -1  -1    7.90    0.29
  -5  -1  -1    7.95    0.35
  -5  -1  -1    7.83    0.25
  -5  -1  -1    7.60    0.29
   5   1   1    8.03    0.34
   5   1   1    7.62    0.25
   5   1   1    7.62    0.24
  -6  -1  -1    2.33    0.21
  -6  -1  -1    2.89    0.21
  -6  -1  -1    2.46    0.26
   6   1   1    2.14    0.16
  -7  -1  -1    0.28    0.16
  -7  -1  -1    0.20    0.11
  -7  -1  -1    0.32    0.12
   7   1   1    0.02    0.05
  -8  -1  -1    0.06    0.12
  -8  -1  -1   -0.08    0.14
  -9  -1  -1    0.19    0.18
  -9  -1  -1    0.21    0.17
 -10  -1  -1    0.43    0.23
 -10  -1  -1    0.29    0.21
  -9   2   1    0.22    0.15
  -9   2   1   -0.28    0.15
  -8   2   1   -0.04    0.15
  -8   2   1   -0.04    0.14
   7  -2  -1    0.28    0.14
   7  -2  -1    0.21    0.15
  -7   2   1    0.08    0.13
  -7   2   1    0.08    0.13
  -7   2   1    0.37    0.14
   6  -2  -1    3.31    0.27
   6  -2  -1    3.41    0.31
  -6   2   1    3.03    0.24
  -6   2   1    3.00    0.30
  -6   2   1    3.24    0.31
  -6   2   1    3.01    0.32
   5  -2  -1    9.60    0.39
   5  -2  -1    9.79    0.40
  -5   2   1   10.10    0.41
  -5   2   1   10.03    0.42
  -5   2   1    9.82    0.43
  -5   2   1    8.83    0.39
  -5   2   1    9.58    0.37
   4  -2  -1   -0.03    0.06
   4  -2  -1    0.04    0.07
   4  -2  -1   -0.09    0.08
  -4   2   1    0.12    0.07
  -4   2   1    0.08    0.07
  -4   2   1    0.16    0.09
  -4   2   1    0.17    0.09
  -4   2   1    0.04    0.07
   3  -2  -1   -0.02    0.06
   3  -2  -1   -0.02    0.05
   3  -2  -1    0.12    0.08
   3  -2  -1    0.00    0.06
  -3   2   1   -0.04    0.06
  -3   2   1   -0.10    0.06
  -3   2   1   -0.01    0.06
  -3   2   1   -0.07    0.04
  -3   2   1    0.03    0.07
   2  -2  -1    2.35    0.16
   2  -2  -1    2.46    0.16
   2  -2  -1    2.46    0.16
  -2   2   1    2.71    0.16
  -2   2   1    2.74    0.17
  -2   2   1    2.49    0.15
  -2   2   1    2.53    0.15
   1  -2  -1    2.55    0.14
   1  -2  -1    2.58    0.14
   1  -2  -1    2.40    0.14
   1  -2  -1    2.34    0.13
   1  -2  -1    2.52    0.14
  -1   2   1    2.46    0.14
  -1   2   1    2.45    0.13
   0  -2  -1   60.15    0.93
   0  -2  -1   56.21    0.92
   0  -2  -1   57.58    0.93
   0  -2  -1   57.52    0.91
   0   2   1   57.64    0.92
   0   2   1   56.70    0.93
   0   2   1   59.00    0.92
   0   2   1   55.23    0.92
  -1  -2  -1  601.83    8.73
  -1  -2  -1  618.29    8.88
  -1  -2  -1  614.30    8.75
  -1  -2  -1  601.86    8.60
  -1  -2  -1  616.65    8.73
   1   2   1  608.71    8.56
   1   2   1  611.29    8.59
   1   2   1  610.31    8.74
   1   2   1  606.23    8.76
   1   2   1  620.46    8.72
   1   2   1  601.13    8.70
   1   2   1  600.72    8.81
  -2  -2  -1   21.07    0.44
   2   2   1   21.22    0.44
   2   2   1   21.34    0.35
  -3  -2  -1    0.17    0.08
  -3  -2  -1    0.35    0.04
  -3  -2  -1    0.23    0.06
  -4  -2  -1    0.75    0.08
  -4  -2  -1    0.75    0.12
  -4  -2  -1    0.77    0.08
  -4  -2  -1    0.71    0.08
  -5  -2  -1    3.10    0.17
  -5  -2  -1    3.03    0.22
  -5  -2  -1    3.13    0.17
  -6  -2  -1    8.55    0.32
  -6  -2  -1    8.11    0.38
  -6  -2  -1    8.05    0.30
  -7  -2  -1   24.73    0.73
  -7  -2  -1   24.18    0.63
  -7  -2  -1   24.69    0.65
  -8  -2  -1    0.17    0.15
  -8  -2  -1    0.65    0.16
  -9  -2  -1    0.02    0.14
  -9  -2  -1    0.19    0.18
 -10  -2  -1   -0.03    0.18
 -10  -2  -1   -0.12    0.16
  -8   3   1    0.60    0.23
   7  -3  -1    1.75    0.26
  -7   3   1    1.83    0.26
  -7   3   1    1.83    0.28
   6  -3  -1    3.10    0.30
   6  -3  -1    3.27    0.31
  -6   3   1    3.31    0.33
  -6   3   1    2.60    0.31
  -6   3   1    2.71    0.31
   5  -3  -1    0.15    0.12
   5  -3  -1    0.03    0.09
  -5   3   1    0.19    0.10
  -5   3   1    0.10    0.09
  -5   3   1    0.02    0.13
  -5   3   1    0.14    0.11
   4  -3  -1    1.72    0.21
   4  -3  -1    1.34    0.17
  -4   3   1    2.37    0.25
  -4   3   1    2.08    0.25
  -4   3   1    2.12    0.21
  -4   3   1    1.88    0.22
   3  -3  -1   53.04    1.06
   3  -3  -1   52.71    1.05
   3  -3  -1   53.15    1.07
   3  -3  -1   52.08    1.06
   3  -3  -1   55.24    1.13
  -3   3   1   52.11    1.09
  -3   3   1   52.88    1.04
  -3   3   1   53.45    1.07
  -3   3   1   52.25    1.07
   2  -3  -1    0.61    0.11
   2  -3  -1    0.42    0.09
   2  -3  -1    0.35    0.09
   2  -3  -1    0.55    0.12
   2  -3  -1    0.39    0.10
  -2   3   1    0.48    0.09
  -2   3   1    0.53    0.10
  -2   3   1    0.48    0.09
  -2   3   1    0.35    0.08
   1  -3  -1    7.17    0.26
   1  -3  -1    7.49    0.27
   1  -3  -1    7.77    0.27
   1  -3  -1    7.58    0.27
   1  -3  -1    7.37    0.25
  -1   3   1    7.03    0.26
  -1   3   1    7.45    0.26
  -1   3   1    7.19    0.25
   0  -3  -1    3.85    0.16
   0  -3  -1    4.38    0.18
   0  -3  -1    4.01    0.17
   0  -3  -1    4.04    0.18
   0   3   1    4.01    0.17
   0   3   1    4.11    0.17
   0   3   1    3.81    0.17
   0   3   1    3.80    0.16
  -1  -3  -1  983.59   14.02
  -1  -3  -1  978.03   14.15
  -1  -3  -1  984.06   14.11
  -1  -3  -1 1000.00   14.12
   1   3   1  984.00   14.10
   1   3   1  977.75   14.06
   1   3   1  967.92   14.27
   1   3   1  980.48   14.09
   1   3   1  966.59   14.10
  -2  -3  -1   56.19    0.86
  -2  -3  -1   56.45    0.99
  -2  -3  -1   57.02    0.85
   2   3   1   54.17    0.98
   2   3   1   56.18    0.86
  -3  -3  -1   65.02    1.15
  -4  -3  -1    3.72    0.22
  -4  -3  -1    3.68    0.22
  -5  -3  -1   32.61    0.59
  -5  -3  -1   32.13    0.78
  -5  -3  -1   33.08    0.76
  -6  -3  -1    9.51    0.29
  -6  -3  -1    8.33    0.39
  -6  -3  -1    8.80    0.40
  -6  -3  -1    8.79    0.29
  -7  -3  -1    2.16    0.19
  -7  -3  -1    1.71    0.25
  -7  -3  -1    2.41    0.20
  -8  -3  -1    1.65    0.27
  -8  -3  -1    2.07    0.23
  -9  -3  -1    0.18    0.15
  -9  -3  -1    0.08    0.17
 -10  -3  -1    0.08    0.17
 -10  -3  -1    0.45    0.23
  -8   4   1    0.00    0.20
   7  -4  -1    0.08    0.13
  -7   4   1   -0.07    0.13
   6  -4  -1    0.35    0.15
  -6   4   1    0.49    0.17
   5  -4  -1   10.00    0.46
   5  -4  -1    9.10    0.44
  -5   4   1    8.72    0.46
  -5   4   1    8.36    0.41
  -5   4   1    9.18    0.48
   4  -4  -1    1.21    0.18
   4  -4  -1    1.15    0.19
  -4   4   1    1.01    0.17
  -4   4   1    1.22    0.19
  -4   4   1    1.43    0.24
   3  -4  -1    5.77    0.29
   3  -4  -1    5.35    0.30
   3  -4  -1    5.25    0.29
  -3   4   1    5.40    0.29
  -3   4   1    5.36    0.30
   2  -4  -1   13.25    0.44
   2  -4  -1   14.15    0.46
   2  -4  -1   13.89    0.43
   2  -4  -1   14.08    0.46
   2  -4  -1   14.41    0.46
  -2   4   1   14.17    0.45
  -2   4   1   14.17    0.44
  -2   4   1   14.09    0.46
   1  -4  -1    1.83    0.15
   1  -4  -1    1.74    0.18
   1  -4  -1    1.52    0.16
   1  -4  -1    1.88    0.18
   1  -4  -1    1.83    0.17
  -1   4   1    1.74    0.16
  -1   4   1    1.91    0.18
  -1   4   1    1.85    0.15
  -1   4   1    1.93    0.20
   0  -4  -1    1.16    0.13
   0  -4  -1    0.90    0.12
   0  -4  -1    1.09    0.13
   0  -4  -1    0.87    0.10
   0   4   1    0.81    0.10
   0   4   1    0.92    0.12
   0   4   1    0.94    0.11
   0   4   1    0.69    0.10
  -1  -4  -1   60.19    1.03
  -1  -4  -1   59.19    0.99
  -1  -4  -1   61.47    1.03
  -1  -4  -1   60.59    1.03
   1   4   1   60.77    1.00
   1   4   1   58.60    1.09
   1   4   1   60.36    1.02
   1   4   1   60.94    1.00
  -2  -4  -1   94.11    1.45
  -2  -4  -1   95.33    1.60
  -2  -4  -1   95.81    1.46
  -2  -4  -1   94.33    1.45
   2   4   1   93.93    1.59
   2   4   1   95.06    1.45
  -3  -4  -1    0.41    0.09
   3   4   1    0.31    0.08
  -4  -4  -1   12.70    0.43
  -5  -4  -1    7.85    0.36
  -5  -4  -1    8.39    0.37
  -6  -4  -1    4.74    0.31
  -6  -4  -1    3.98    0.29
  -7  -4  -1    1.47    0.24
  -7  -4  -1    1.35    0.14
  -8  -4  -1    3.49    0.25
  -8  -4  -1    2.91    0.32
  -9  -4  -1    0.17    0.16
  -9  -4  -1    0.15    0.12
 -10  -4  -1    0.00    0.19
 -10  -4  -1    0.22    0.16
   7  -5  -1    0.15    0.16
  -7   5   1    0.02    0.17
   6  -5  -1    0.03    0.15
  -6   5   1    0.04    0.14
   5  -5  -1   -0.04    0.12
  -5   5   1    0.17    0.12
   4  -5  -1    0.27    0.11
   4  -5  -1    0.20    0.13
  -4   5   1    0.15    0.10
  -4   5   1   -0.01    0.10
   3  -5  -1    2.46    0.26
   3  -5  -1    2.39    0.27
  -3   5   1    2.17    0.25
  -3   5   1    1.91    0.21
  -3   5   1    2.41    0.29
   2  -5  -1   22.39    0.61
   2  -5  -1   23.03    0.65
   2  -5  -1   22.64    0.65
   2  -5  -1   21.58    0.64
  -2   5   1   23.17    0.64
  -2   5   1   22.02    0.64
  -2   5   1   22.08    0.65
   1  -5  -1    0.72    0.13
   1  -5  -1    0.69    0.12
   1  -5  -1    0.61    0.12
   1  -5  -1    0.52    0.11
  -1   5   1    0.63    0.12
  -1   5   1    0.84    0.13
   0  -5  -1   13.65    0.42
   0  -5  -1   14.26    0.40
   0  -5  -1   14.74    0.44
   0  -5  -1   14.25    0.44
   0   5   1   14.22    0.42
   0   5   1   14.86    0.42
  -1  -5  -1    1.02    0.12
  -1  -5  -1    1.15    0.13
  -1  -5  -1    0.92    0.11
  -1  -5  -1    1.16    0.14
   1   5   1    1.14    0.12
   1   5   1    1.21    0.13
   1   5   1    0.91    0.14
   1   5   1    1.07    0.11
  -2  -5  -1  107.50    1.69
  -2  -5  -1  106.54    1.83
  -2  -5  -1  106.29    1.68
  -2  -5  -1  107.38    1.70
   2   5   1  107.12    1.83
   2   5   1  106.54    1.68
  -3  -5  -1    0.56    0.08
  -3  -5  -1    0.55    0.07
  -3  -5  -1    0.46    0.11
   3   5   1    0.47    0.10
   3   5   1    0.43    0.06
  -4  -5  -1    1.53    0.17
   4   5   1    1.43    0.17
  -5  -5  -1    0.86    0.15
  -6  -5  -1    4.40    0.31
  -6  -5  -1    4.05    0.30
  -7  -5  -1    0.59    0.17
  -8  -5  -1    1.17    0.14
  -8  -5  -1    0.93    0.21
  -9  -5  -1    1.25    0.18
  -9  -5  -1    1.08    0.23
 -10  -5  -1    0.22    0.20
 -10  -5  -1    0.63    0.17
   7  -6  -1    0.03    0.18
  -7   6   1   -0.12    0.18
   6  -6  -1    0.03    0.17
  -6   6   1   -0.01    0.15
   5  -6  -1    0.42    0.17
  -5   6   1    0.95    0.23
   4  -6  -1   10.81    0.54
  -4   6   1   10.25    0.49
  -4   6   1   10.54    0.52
   3  -6  -1    1.49    0.22
   3  -6  -1    1.36    0.21
  -3   6   1    2.05    0.27
  -3   6   1    1.54    0.21
   2  -6  -1    1.80    0.25
   2  -6  -1    1.61    0.20
   2  -6  -1    1.42    0.19
  -2   6   1    1.77    0.21
  -2   6   1    1.30    0.20
   1  -6  -1   -0.03    0.07
   1  -6  -1   -0.09    0.06
   1  -6  -1   -0.04    0.08
  -1   6   1    0.02    0.07
  -1   6   1   -0.07    0.06
   0  -6  -1    0.42    0.11
   0  -6  -1    0.73    0.14
   0  -6  -1    0.84    0.15
   0   6   1    0.81    0.13
   0   6   1    0.69    0.14
   0   6   1    0.82    0.14
  -1  -6  -1    0.43    0.10
  -1  -6  -1    0.46    0.11
  -1  -6  -1    0.34    0.09
   1   6   1    0.57    0.10
   1   6   1    0.74    0.14
   1   6   1    0.82    0.12
  -2  -6  -1    0.71    0.11
  -2  -6  -1    0.90    0.12
  -2  -6  -1    0.65    0.11
   2   6   1    0.61    0.13
   2   6   1    1.08    0.11
   2   6   1    0.64    0.08
   2   6   1    0.66    0.11
  -3  -6  -1    0.31    0.11
  -3  -6  -1    0.64    0.10
  -3  -6  -1    0.59    0.10
  -3  -6  -1    0.58    0.09
   3   6   1    0.24    0.10
   3   6   1    0.40    0.08
  -4  -6  -1    0.47    0.08
  -4  -6  -1    0.41    0.14
   4   6   1    0.45    0.07
   4   6   1    0.37    0.12
  -5  -6  -1    0.72    0.16
  -7  -6  -1    0.52    0.17
  -8  -6  -1    6.74    0.42
  -9  -6  -1    0.14    0.15
 -10  -6  -1   -0.17    0.14
   6  -7  -1   -0.10    0.17
  -6   7   1    0.17    0.20
   5  -7  -1    0.58    0.24
  -5   7   1    0.77    0.24
   4  -7  -1    0.22    0.19
  -4   7   1    0.18    0.14
   3  -7  -1    0.45    0.16
  -3   7   1    0.53    0.16
  -3   7   1    0.47    0.15
   2  -7  -1    0.05    0.10
   2  -7  -1    0.09    0.11
  -2   7   1    0.16    0.11
  -2   7   1    0.00    0.09
   1  -7  -1    2.67    0.30
   1  -7  -1    2.47    0.26
   1  -7  -1    2.20    0.24
  -1   7   1    2.11    0.23
  -1   7   1    2.32    0.24
   0  -7  -1   -0.03    0.07
   0  -7  -1   -0.06    0.08
   0  -7  -1   -0.02    0.07
   0   7   1    0.00    0.10
   0   7   1    0.02    0.07
   0   7   1   -0.07    0.06
  -1  -7  -1    4.90    0.28
  -1  -7  -1    5.34    0.29
  -1  -7  -1    5.18    0.30
   1   7   1    4.74    0.33
   1   7   1    5.14    0.25
   1   7   1    5.40    0.29
  -2  -7  -1   10.64    0.39
  -2  -7  -1   10.76    0.39
  -2  -7  -1   11.16    0.40
   2   7   1   11.39    0.38
   2   7   1   11.58    0.48
   2   7   1   10.10    0.29
  -3  -7  -1    8.98    0.43
  -3  -7  -1    8.97    0.33
  -3  -7  -1    8.63    0.32
  -3  -7  -1    8.46    0.32
   3   7   1    9.49    0.44
   3   7   1    8.75    0.31
  -4  -7  -1    0.10    0.07
  -4  -7  -1   -0.07    0.05
  -4  -7  -1    0.09    0.06
   4   7   1   -0.04    0.05
   4   7   1   -0.08    0.08
   5   7   1    0.39    0.18
  -7  -7  -1    1.32    0.24
  -8  -7  -1    1.91    0.29
  -9  -7  -1    7.77    0.49
   5  -8  -1    0.07    0.19
  -5   8   1    0.06    0.17
   4  -8  -1    0.32    0.20
  -4   8   1    0.33    0.17
   3  -8  -1    0.07    0.15
  -3   8   1   -0.04    0.11
  -3   8   1    0.06    0.11
   2  -8  -1   -0.17    0.13
  -2   8   1   -0.05    0.09
  -2   8   1   -0.06    0.08
   1  -8  -1    0.99    0.18
   1  -8  -1    1.32    0.25
  -1   8   1    1.28    0.22
  -1   8   1    1.13    0.19
  -1   8   1    1.43    0.24
   0  -8  -1    0.00    0.09
   0  -8  -1    0.00    0.09
   0  -8  -1   -0.03    0.08
   0   8   1   -0.01    0.08
   0   8   1    0.02    0.09
   0   8   1   -0.23    0.10
  -1  -8  -1   12.53    0.50
  -1  -8  -1   12.81    0.50
  -1  -8  -1   13.77    0.53
   1   8   1   12.49    0.43
   1   8   1   13.05    0.49
   1   8   1   13.96    0.58
  -2  -8  -1    2.24    0.25
  -2  -8  -1    2.47    0.25
  -2  -8  -1    1.92    0.21
   2   8   1    2.82    0.23
   2   8   1    2.66    0.30
   2   8   1    2.49    0.16
  -3  -8  -1    5.44    0.29
  -3  -8  -1    5.83    0.31
  -3  -8  -1    5.23    0.28
   3   8   1    5.83    0.39
   3   8   1    5.60    0.28
  -4  -8  -1    0.79    0.14
  -4  -8  -1    1.00    0.14
  -4  -8  -1    0.68    0.12
   4   8   1    0.59    0.17
   4   8   1    0.76    0.12
  -5  -8  -1    0.16    0.07
  -5  -8  -1    0.24    0.08
   5   8   1    0.11    0.07
   5   8   1    0.20    0.13
  -8  -8  -1    1.01    0.24
  -9  -8  -1    0.28    0.18
   4  -9  -1    2.21    0.40
   3  -9  -1   -0.15    0.17
   2  -9  -1   -0.14    0.16
  -2   9   1   -0.12    0.08
   1  -9  -1    0.66    0.19
  -1   9   1    0.64    0.19
  -1   9   1    0.53    0.21
   0  -9  -1   12.71    0.59
   0   9   1   12.30    0.54
   0   9   1   13.57    0.64
  -1  -9  -1    6.31    0.40
   1   9   1    5.16    0.41
   1   9   1    5.18    0.34
   1   9   1    5.43    0.35
  -2  -9  -1    0.33    0.14
   2   9   1    0.21    0.16
   2   9   1    0.54    0.10
   2   9   1    0.62    0.15
  -3  -9  -1    1.80    0.23
  -3  -9  -1    1.44    0.21
   3   9   1    1.81    0.26
   3   9   1    1.88    0.21
  -4  -9  -1    1.34    0.17
  -4  -9  -1    1.64    0.21
   4   9   1    1.63    0.19
   4   9   1    1.45    0.24
  -5  -9  -1    0.02    0.12
  -5  -9  -1    0.11    0.08
  -5  -9  -1    0.10    0.09
   5   9   1   -0.06    0.10
   5   9   1    0.09    0.08
  -8  -9  -1    0.30    0.16
   2 -10  -1    0.05    0.19
  -2  10   1    0.07    0.20
   1 -10  -1   -0.27    0.15
  -1  10   1    0.07    0.13
  -1  10   1    0.00    0.17
   0 -10  -1    0.02    0.17
   0  10   1    0.31    0.16
   0  10   1    0.34    0.21
  -1 -10  -1    0.23    0.14
   1  10   1    0.36    0.15
   1  10   1    0.39    0.21
  -2 -10  -1    0.24    0.15
   2  10   1    0.54    0.16
   2  10   1    0.57    0.21
  -3 -10  -1    0.41    0.16
   3  10   1    0.41    0.19
   3  10   1    0.83    0.16
  -4 -10  -1    1.89    0.24
   4  10   1    1.60    0.27
   4  10   1    1.77    0.22
  -5 -10  -1   -0.10    0.08
   5  10   1   -0.02    0.12
   5  10   1    0.04    0.09
   6  10   1    0.20    0.16
   1 -11  -1    0.29    0.24
  -1  11   1    0.20    0.17
   0 -11  -1    0.39    0.21
   0  11   1    0.02    0.13
  -1 -11  -1    0.23    0.16
   1  11   1    0.08    0.20
   1  11   1    0.06    0.14
  -2 -11  -1   -0.18    0.12
   2  11   1   -0.08    0.19
   2  11   1    0.15    0.13
  -3 -11  -1    0.34    0.17
   3  11   1    0.09    0.19
   3  11   1    0.57    0.18
  -4 -11  -1   -0.09    0.10
   4  11   1   -0.08    0.10
   4  11   1    0.03    0.14
  -5 -11  -1    0.38    0.15
   5  11   1    0.53    0.15
  -6 -11  -1    0.09    0.11
   6  11   1    0.17    0.11
   5  10  -2    0.08    0.12
  -5 -10   2    0.07    0.12
   4  10  -2    0.15    0.18
   4  10  -2    0.14    0.13
  -4 -10   2    0.23    0.13
   3  10  -2    0.90    0.19
   3  10  -2    0.68    0.23
  -3 -10   2    0.65    0.19
   2  10  -2    0.40    0.16
   2  10  -2    0.18    0.18
  -2 -10   2    0.30    0.16
   1  10  -2   -0.17    0.15
   1  10  -2   -0.20    0.11
  -1 -10   2    0.16    0.16
   0  10  -2   -0.13    0.12
   0  10  -2   -0.02    0.17
   0 -10   2    0.26    0.20
  -1  10  -2    0.03    0.19
  -1  10  -2   -0.27    0.12
   1 -10   2    0.00    0.15
   6   9  -2    0.08    0.08
   5   9  -2   -0.01    0.09
  -5  -9   2   -0.02    0.10
   4   9  -2    1.02    0.22
   4   9  -2    0.92    0.17
  -4  -9   2    0.84    0.17
   3   9  -2    0.04    0.10
   3   9  -2    0.09    0.14
  -3  -9   2   -0.03    0.11
   2   9  -2    0.13    0.12
   2   9  -2   -0.02    0.13
  -2  -9   2    0.17    0.14
   1   9  -2    0.15    0.12
   1   9  -2   -0.24    0.11
  -1  -9   2    0.09    0.14
   0   9  -2    0.35    0.17
   0   9  -2    0.42    0.18
   0  -9   2    0.30    0.17
  -1   9  -2    3.40    0.39
  -1   9  -2    3.00    0.36
   1  -9   2    4.05    0.46
  -2   9  -2   -0.16    0.12
  -2   9  -2    0.11    0.18
   2  -9   2    0.00    0.16
  -3   9  -2    0.14    0.20
   3  -9   2    0.13    0.21
   5   8  -2    0.76    0.13
  -5  -8   2    0.84    0.14
   4   8  -2    2.48    0.23
   4   8  -2    2.71    0.33
  -4  -8   2    2.30    0.23
   3   8  -2    1.96    0.27
   3   8  -2    2.15    0.22
  -3  -8   2    1.91    0.23
   2   8  -2    4.53    0.41
   2   8  -2    5.00    0.31
  -2  -8   2    4.27    0.31
   1   8  -2    0.12    0.14
   1   8  -2    0.16    0.10
  -1  -8   2    0.05    0.11
   0   8  -2   -0.03    0.11
   0   8  -2    0.19    0.11
   0  -8   2    0.10    0.15
  -1   8  -2    0.38    0.15
  -1   8  -2    0.46    0.17
   1  -8   2    0.07    0.15
  -2   8  -2    2.31    0.32
  -2   8  -2    3.10    0.36
   2  -8   2    2.72    0.39
  -3   8  -2    0.72    0.22
   3  -8   2    0.95    0.25
  -4   8  -2    0.21    0.19
   4  -8   2    0.31    0.20
  -7  -7   2    0.09    0.11
  -5  -7   2    6.01    0.25
   4   7  -2    3.26    0.33
  -4  -7   2    3.50    0.22
  -4  -7   2    2.97    0.20
  -4  -7   2    2.87    0.21
   3   7  -2    0.16    0.12
   3   7  -2   -0.02    0.07
  -3  -7   2    0.06    0.09
  -3  -7   2    0.00    0.08
  -3  -7   2   -0.04    0.06
   2   7  -2    5.18    0.36
   2   7  -2    5.53    0.29
  -2  -7   2    4.90    0.30
  -2  -7   2    4.56    0.28
   1   7  -2    0.09    0.07
   1   7  -2    0.04    0.09
   1   7  -2    0.04    0.10
  -1  -7   2    0.13    0.09
  -1  -7   2    0.26    0.12
   0   7  -2    0.16    0.10
   0   7  -2    0.24    0.12
   0   7  -2    0.08    0.07
   0  -7   2    0.11    0.09
   0  -7   2    0.27    0.13
   0  -7   2    0.23    0.13
  -1   7  -2    0.19    0.11
  -1   7  -2    0.17    0.12
  -1   7  -2    0.17    0.11
   1  -7   2    0.17    0.13
   1  -7   2    0.25    0.12
   1  -7   2   -0.01    0.09
  -2   7  -2    3.12    0.34
  -2   7  -2    4.38    0.34
  -2   7  -2    4.40    0.36
   2  -7   2    3.52    0.37
  -3   7  -2   -0.06    0.09
  -3   7  -2   -0.04    0.12
  -3   7  -2    0.01    0.13
   3  -7   2    0.01    0.15
  -4   7  -2    0.07    0.15
   4  -7   2   -0.02    0.14
  -5   7  -2    0.17    0.19
   5  -7   2   -0.01    0.20
  -7  -6   2    0.12    0.11
  -4  -6   2    0.99    0.13
  -4  -6   2    1.04    0.13
  -4  -6   2    1.25    0.13
   3   6  -2    0.87    0.17
  -3  -6   2    0.59    0.10
  -3  -6   2    0.91    0.14
  -3  -6   2    0.50    0.11
  -3  -6   2    0.65    0.15
   2   6  -2   -0.01    0.08
  -2  -6   2   -0.05    0.07
  -2  -6   2    0.02    0.06
  -2  -6   2    0.05    0.10
   1   6  -2   11.72    0.37
   1   6  -2   11.89    0.48
   1   6  -2   12.58    0.43
  -1  -6   2   12.09    0.45
  -1  -6   2   12.36    0.44
   0   6  -2    0.32    0.13
   0   6  -2    0.15    0.09
   0   6  -2    0.21    0.10
   0  -6   2    0.03    0.09
   0  -6   2    0.17    0.10
  -1   6  -2    0.55    0.13
  -1   6  -2    0.57    0.15
  -1   6  -2    0.58    0.14
   1  -6   2    0.42    0.12
   1  -6   2    0.46    0.15
   1  -6   2    0.76    0.18
  -2   6  -2    0.56    0.15
  -2   6  -2    0.58    0.15
  -2   6  -2    0.26    0.13
   2  -6   2    0.24    0.14
   2  -6   2    0.29    0.12
  -3   6  -2   -0.04    0.09
  -3   6  -2    0.09    0.12
   3  -6   2    0.25    0.16
  -4   6  -2    0.05    0.11
  -4   6  -2    0.04    0.12
   4  -6   2    0.36    0.17
  -5   6  -2    0.33    0.20
   5  -6   2    0.18    0.19
  -6   6  -2   -0.04    0.16
   6  -6   2    0.18    0.19
  -8  -5   2    0.35    0.14
  -7  -5   2    0.15    0.11
  -6  -5   2    0.98    0.16
  -4  -5   2    0.04    0.05
  -4  -5   2    0.04    0.09
   3   5  -2    5.75    0.33
  -3  -5   2    5.14    0.22
  -3  -5   2    5.63    0.32
  -3  -5   2    4.96    0.22
  -3  -5   2    5.18    0.21
   2   5  -2    4.72    0.29
  -2  -5   2    4.85    0.23
  -2  -5   2    5.12    0.23
  -2  -5   2    4.94    0.29
  -2  -5   2    4.97    0.23
   1   5  -2    3.16    0.23
   1   5  -2    2.91    0.17
  -1  -5   2    3.29    0.21
  -1  -5   2    3.06    0.21
  -1  -5   2    2.63    0.22
   0   5  -2    3.28    0.25
   0   5  -2    3.61    0.23
   0   5  -2    3.95    0.22
   0  -5   2    3.60    0.24
   0  -5   2    4.12    0.25
  -1   5  -2    2.48    0.24
  -1   5  -2    2.62    0.25
  -1   5  -2    2.70    0.21
   1  -5   2    2.03    0.21
   1  -5   2    2.33    0.24
  -2   5  -2    5.30    0.31
  -2   5  -2    5.07    0.31
   2  -5   2    5.11    0.33
   2  -5   2    5.31    0.33
   2  -5   2    5.04    0.31
  -3   5  -2    0.25    0.12
  -3   5  -2    0.08    0.11
   3  -5   2    0.05    0.12
  -4   5  -2   -0.01    0.10
  -4   5  -2    0.08    0.14
   4  -5   2    0.22    0.16
  -5   5  -2    2.10    0.31
   5  -5   2    1.62    0.26
  -6   5  -2   -0.04    0.13
   6  -5   2    0.01    0.15
  -7   5  -2   -0.04    0.17
   7  -5   2   -0.22    0.16
   9   4  -2    1.86    0.20
  -9  -4   2    1.70    0.22
  -9  -4   2    1.76    0.21
   8   4  -2    2.22    0.19
  -8  -4   2    2.50    0.26
  -8  -4   2    2.49    0.22
  -8  -4   2    2.20    0.20
   7   4  -2    3.63    0.19
  -7  -4   2    3.58    0.20
  -7  -4   2    3.44    0.25
  -6  -4   2    2.84    0.21
  -6  -4   2    2.56    0.15
  -5  -4   2    1.38    0.19
  -4  -4   2    0.63    0.08
  -4  -4   2    0.71    0.14
  -3  -4   2    0.40    0.08
  -3  -4   2    0.40    0.07
  -3  -4   2    0.37    0.10
  -3  -4   2    0.44    0.08
   2   4  -2   17.78    0.52
  -2  -4   2   17.61    0.42
  -2  -4   2   16.92    0.42
  -2  -4   2   17.26    0.42
  -2  -4   2   17.19    0.51
   1   4  -2    9.32    0.28
   1   4  -2    9.57    0.35
   1   4  -2    9.53    0.28
  -1  -4   2    9.14    0.31
  -1  -4   2    9.26    0.31
  -1  -4   2    9.27    0.31
  -1  -4   2    9.52    0.35
  -1  -4   2    9.46    0.34
   0   4  -2   18.36    0.48
   0   4  -2   19.30    0.52
   0  -4   2   18.10    0.50
   0  -4   2   17.65    0.52
   0  -4   2   18.44    0.50
  -1   4  -2    0.56    0.11
  -1   4  -2    0.60    0.11
  -1   4  -2    0.45    0.10
   1  -4   2    0.34    0.11
   1  -4   2    0.38    0.10
   1  -4   2    0.31    0.10
  -2   4  -2    5.29    0.28
  -2   4  -2    5.28    0.29
   2  -4   2    4.37    0.27
   2  -4   2    5.20    0.30
   2  -4   2    5.24    0.30
  -3   4  -2    4.29    0.30
  -3   4  -2    4.41    0.33
  -3   4  -2    4.66    0.29
   3  -4   2    4.12    0.30
   3  -4   2    4.42    0.29
  -4   4  -2    0.28    0.12
  -4   4  -2   -0.05    0.12
  -4   4  -2    0.09    0.10
   4  -4   2   -0.12    0.12
  -5   4  -2    0.07    0.14
  -5   4  -2   -0.01    0.11
  -5   4  -2    0.01    0.10
   5  -4   2   -0.02    0.10
  -6   4  -2    1.78    0.31
  -6   4  -2    2.30    0.33
   6  -4   2    1.63    0.25
  -7   4  -2    0.43    0.21
  -7   4  -2    0.68    0.22
   7  -4   2    0.69    0.21
  -8   4  -2    0.16    0.21
  -8   4  -2    0.17    0.19
   9   3  -2    0.53    0.14
  -9  -3   2    0.45    0.14
  -9  -3   2    0.69    0.17
   8   3  -2   11.58    0.40
  -8  -3   2   11.71    0.44
  -8  -3   2   11.64    0.43
  -8  -3   2   11.17    0.42
   7   3  -2    2.23    0.18
  -7  -3   2    2.21    0.23
  -7  -3   2    2.16    0.20
  -7  -3   2    2.56    0.28
   6   3  -2    0.60    0.10
  -6  -3   2    0.51    0.12
  -6  -3   2    0.54    0.10
  -6  -3   2    0.61    0.10
   5   3  -2    1.37    0.11
  -5  -3   2    0.86    0.15
  -5  -3   2    1.27    0.14
  -4  -3   2   53.64    1.12
  -3  -3   2    3.60    0.15
  -3  -3   2    3.63    0.22
   2   3  -2    2.32    0.18
  -2  -3   2    2.44    0.17
  -2  -3   2    2.27    0.12
  -2  -3   2    2.36    0.13
  -2  -3   2    2.43    0.13
   1   3  -2    5.15    0.18
   1   3  -2    5.21    0.18
   1   3  -2    5.03    0.23
  -1  -3   2    5.12    0.23
  -1  -3   2    5.28    0.21
  -1  -3   2    5.12    0.20
  -1  -3   2    5.30    0.21
  -1  -3   2    5.11    0.22
   0   3  -2   47.83    0.88
   0   3  -2   47.95    0.88
   0   3  -2   48.10    0.90
   0  -3   2   47.68    0.90
   0  -3   2   47.82    0.90
   0  -3   2   47.34    0.91
   0  -3   2   48.28    0.91
  -1   3  -2    0.61    0.11
  -1   3  -2    0.80    0.13
  -1   3  -2    0.64    0.11
  -1   3  -2    0.54    0.13
   1  -3   2    0.96    0.14
   1  -3   2    0.61    0.12
   1  -3   2    0.40    0.09
   1  -3   2    0.48    0.09
  -2   3  -2    2.51    0.19
  -2   3  -2    2.56    0.20
   2  -3   2    2.59    0.20
   2  -3   2    2.75    0.22
   2  -3   2    3.03    0.21
   2  -3   2    2.82    0.21
  -3   3  -2    0.25    0.09
  -3   3  -2    0.28    0.10
  -3   3  -2    0.04    0.10
   3  -3   2    0.06    0.07
   3  -3   2    0.10    0.09
  -4   3  -2    0.07    0.09
  -4   3  -2    0.23    0.11
  -4   3  -2    0.12    0.14
   4  -3   2    0.18    0.11
  -5   3  -2    9.37    0.47
  -5   3  -2    9.56    0.43
   5  -3   2   10.68    0.48
  -6   3  -2    9.67    0.53
  -6   3  -2    7.92    0.48
   6  -3   2    9.09    0.48
  -7   3  -2    0.07    0.15
  -7   3  -2    0.11    0.17
   7  -3   2    0.12    0.14
  -8   3  -2    0.16    0.19
  -8   3  -2   -0.05    0.16
   9   2  -2    0.95    0.18
  -9  -2   2    1.06    0.21
  -9  -2   2    1.39    0.24
   8   2  -2    1.08    0.17
  -8  -2   2    1.45    0.21
  -8  -2   2    1.51    0.22
  -8  -2   2    1.43    0.20
   7   2  -2   28.46    0.67
  -7  -2   2   28.33    0.71
  -7  -2   2   27.96    0.71
  -7  -2   2   28.50    0.69
   6   2  -2    0.42    0.09
  -6  -2   2    0.23    0.09
  -6  -2   2    0.25    0.10
  -6  -2   2    0.17    0.08
   5   2  -2    1.21    0.12
  -5  -2   2    1.22    0.13
  -5  -2   2    1.25    0.14
  -5  -2   2    1.06    0.13
   4   2  -2    4.05    0.16
  -4  -2   2    3.89    0.16
  -4  -2   2    3.88    0.17
  -3  -2   2   74.21    1.17
  -3  -2   2   74.53    1.34
  -2  -2   2    8.45    0.23
  -2  -2   2    8.91    0.23
  -2  -2   2    9.03    0.30
   1   2  -2    1.97    0.11
   1   2  -2    1.65    0.13
   1   2  -2    1.96    0.10
  -1  -2   2    1.74    0.12
  -1  -2   2    1.86    0.12
  -1  -2   2    1.92    0.12
  -1  -2   2    1.68    0.12
  -1  -2   2    1.88    0.11
   0   2  -2  142.85    2.15
   0   2  -2  140.26    2.15
   0   2  -2  142.79    2.16
   0   2  -2  141.43    2.17
   0  -2   2  142.06    2.17
   0  -2   2  139.83    2.14
   0  -2   2  144.27    2.18
   0  -2   2  140.85    2.17
   0  -2   2  141.63    2.17
  -1   2  -2   12.45    0.37
  -1   2  -2   11.70    0.35
  -1   2  -2   12.55    0.35
   1  -2   2   11.98    0.36
   1  -2   2   12.20    0.36
   1  -2   2   12.18    0.36
   1  -2   2   12.14    0.35
  -2   2  -2    2.83    0.18
  -2   2  -2    3.13    0.19
  -2   2  -2    3.27    0.22
  -2   2  -2    2.74    0.18
   2  -2   2    2.78    0.19
   2  -2   2    2.90    0.19
   2  -2   2    2.98    0.19
  -3   2  -2   67.92    1.29
  -3   2  -2   70.12    1.30
  -3   2  -2   68.59    1.27
   3  -2   2   69.66    1.30
   3  -2   2   68.45    1.32
   3  -2   2   67.74    1.29
   3  -2   2   67.80    1.28
  -4   2  -2    0.03    0.11
  -4   2  -2    0.03    0.07
  -4   2  -2   -0.02    0.07
   4  -2   2   -0.11    0.08
   4  -2   2    0.06    0.07
  -5   2  -2    1.63    0.20
  -5   2  -2    1.49    0.21
  -5   2  -2    1.26    0.24
   5  -2   2    1.52    0.22
  -6   2  -2    0.37    0.15
  -6   2  -2    0.31    0.12
  -6   2  -2    0.09    0.14
   6  -2   2    0.23    0.13
  -7   2  -2    3.00    0.34
  -7   2  -2    2.06    0.33
   7  -2   2    3.20    0.34
  -8   2  -2    0.10    0.19
  -8   2  -2    0.08    0.17
  -9   2  -2   -0.03    0.17
  -9   2  -2   -0.27    0.15
   9   1  -2    0.21    0.13
  -9  -1   2    0.53    0.17
  -9  -1   2    0.64    0.20
   8   1  -2    4.64    0.30
  -8  -1   2    4.90    0.34
  -8  -1   2    4.45    0.32
  -8  -1   2    4.71    0.31
   7   1  -2   19.93    0.57
  -7  -1   2   20.32    0.61
  -7  -1   2   20.65    0.58
  -7  -1   2   20.12    0.61
   6   1  -2    0.15    0.09
  -6  -1   2    0.34    0.10
  -6  -1   2    0.16    0.09
  -6  -1   2    0.23    0.09
  -6  -1   2    0.27    0.11
   5   1  -2   -0.04    0.05
  -5  -1   2   -0.01    0.06
  -5  -1   2   -0.02    0.05
  -5  -1   2    0.10    0.08
   4   1  -2    0.33    0.08
  -4  -1   2    0.35    0.07
  -4  -1   2    0.24    0.07
  -4  -1   2    0.36    0.08
   3   1  -2   38.32    0.68
  -3  -1   2   38.26    0.69
  -3  -1   2   38.55    0.63
   2   1  -2    1.43    0.08
   1   1  -2   21.28    0.41
   1   1  -2   21.57    0.41
  -1  -1   2   22.27    0.38
  -1  -1   2   21.70    0.42
  -1  -1   2   21.61    0.42
  -1  -1   2   21.55    0.44
  -1  -1   2   21.81    0.42
   0   1  -2   16.05    0.35
   0   1  -2   16.09    0.33
   0   1  -2   16.36    0.36
   0   1  -2   16.27    0.36
   0   1  -2   15.93    0.35
   0  -1   2   15.84    0.36
   0  -1   2   16.24    0.35
   0  -1   2   16.42    0.36
   0  -1   2   16.59    0.33
   0  -1   2   16.38    0.36
  -1   1  -2   10.76    0.30
  -1   1  -2   10.38    0.29
  -1   1  -2   10.44    0.31
  -1   1  -2   10.54    0.30
   1  -1   2   10.74    0.31
   1  -1   2   11.10    0.30
   1  -1   2   10.78    0.30
   1  -1   2   10.44    0.30
  -2   1  -2  107.60    1.73
  -2   1  -2  107.03    1.75
  -2   1  -2  107.99    1.73
   2  -1   2  109.91    1.73
   2  -1   2  105.81    1.73
   2  -1   2  103.32    1.72
   2  -1   2  106.36    1.75
  -3   1  -2  135.42    2.21
  -3   1  -2  133.72    2.16
  -3   1  -2  134.16    2.14
  -3   1  -2  132.61    2.17
   3  -1   2  132.33    2.20
   3  -1   2  136.05    2.16
   3  -1   2  134.05    2.16
   3  -1   2  135.15    2.16
  -4   1  -2   55.05    1.08
  -4   1  -2   54.61    1.11
  -4   1  -2   56.23    1.11
  -4   1  -2   56.40    1.16
   4  -1   2   55.23    1.15
   4  -1   2   56.11    1.09
   4  -1   2   57.03    1.11
  -5   1  -2   55.03    1.17
  -5   1  -2   56.15    1.12
  -5   1  -2   55.19    1.15
  -5   1  -2   57.12    1.24
   5  -1   2   56.83    1.14
  -6   1  -2    0.40    0.12
  -6   1  -2    0.68    0.16
  -6   1  -2    0.66    0.20
   6  -1   2    0.72    0.17
  -7   1  -2   -0.01    0.15
  -7   1  -2    0.02    0.13
   7  -1   2    0.12    0.13
  -8   1  -2    0.01    0.18
  -8   1  -2   -0.05    0.14
  -9   1  -2   -0.09    0.19
  -9   1  -2   -0.06    0.17
  -9   0   2    1.01    0.22
  -9   0   2    1.17    0.24
  -9   0   2    0.84    0.24
   8   0  -2    0.67    0.16
  -8   0   2    0.89    0.20
  -8   0   2    0.90    0.20
  -8   0   2    1.07    0.22
   7   0  -2    0.21    0.11
  -7   0   2    0.30    0.12
  -7   0   2    0.30    0.13
  -7   0   2    0.43    0.15
   6   0  -2    4.81    0.26
   6   0  -2    4.25    0.23
   6   0  -2    4.45    0.27
  -6   0   2    4.54    0.28
  -6   0   2    4.78    0.27
  -6   0   2    3.98    0.28
  -6   0   2    4.46    0.28
   5   0  -2    6.29    0.24
   5   0  -2    5.72    0.25
   5   0  -2    6.22    0.27
  -5   0   2    6.14    0.29
  -5   0   2    6.09    0.28
  -5   0   2    5.55    0.27
  -5   0   2    5.45    0.25
  -5   0   2    5.94    0.24
   4   0  -2    3.14    0.17
   4   0  -2    3.04    0.16
   4   0  -2    2.71    0.15
  -4   0   2    3.08    0.17
  -4   0   2    2.62    0.15
  -4   0   2    2.86    0.18
  -4   0   2    2.82    0.17
   3   0  -2   23.03    0.44
   3   0  -2   23.82    0.48
   3   0  -2   23.45    0.50
  -3   0   2   23.20    0.51
  -3   0   2   23.61    0.47
  -3   0   2   22.87    0.44
  -3   0   2   23.82    0.52
   2   0  -2    0.01    0.04
   2   0  -2    0.02    0.04
  -2   0   2    0.03    0.04
  -2   0   2    0.04    0.04
   1   0  -2  114.28    1.70
  -1   0   2  112.03    1.70
  -1   0   2  112.45    1.70
   0   0  -2  109.70    1.65
   0   0  -2  106.15    1.65
   0   0  -2  110.60    1.66
   0   0  -2  113.15    1.61
   0   0   2  111.33    1.61
   0   0   2  110.34    1.66
   0   0   2  107.07    1.65
  -1   0  -2    0.02    0.04
  -1   0  -2    0.03    0.05
  -1   0  -2    0.04    0.06
  -1   0  -2    0.04    0.04
   1   0   2    0.02    0.05
   1   0   2    0.10    0.06
   1   0   2   -0.01    0.04
   1   0   2    0.05    0.04
  -2   0  -2  181.59    2.71
  -2   0  -2  177.41    2.73
  -2   0  -2  183.58    2.71
  -2   0  -2  180.35    2.71
   2   0   2  179.85    2.70
   2   0   2  182.42    2.70
   2   0   2  179.88    2.73
   2   0   2  182.62    2.71
  -3   0  -2    6.04    0.24
  -3   0  -2    6.47    0.24
  -3   0  -2    6.58    0.25
  -3   0  -2    6.00    0.25
  -3   0  -2    6.48    0.28
   3   0   2    6.39    0.24
   3   0   2    6.30    0.27
   3   0   2    6.44    0.24
   3   0   2    6.28    0.24
  -4   0  -2   11.58    0.42
  -4   0  -2   11.39    0.37
  -4   0  -2   10.95    0.34
  -4   0  -2   10.60    0.37
   4   0   2   11.69    0.41
   4   0   2   10.98    0.36
   4   0   2   11.68    0.37
   4   0   2   11.32    0.36
   4   0   2   11.07    0.35
  -5   0  -2    2.30    0.21
  -5   0  -2    2.18    0.24
  -5   0  -2    2.89    0.19
  -5   0  -2    2.07    0.20
   5   0   2    2.17    0.18
  -6   0  -2    0.12    0.09
  -6   0  -2   -0.04    0.08
  -6   0  -2   -0.04    0.06
  -6   0  -2   -0.16    0.12
   6   0   2    0.02    0.08
  -7   0  -2    1.58    0.28
  -7   0  -2    1.68    0.24
  -7   0  -2    1.69    0.24
   7   0   2    1.92    0.22
  -8   0  -2    0.28    0.19
  -8   0  -2    0.31    0.17
  -9   0  -2   -0.40    0.14
  -9   0  -2    0.12    0.19
  -9   1   2    0.96    0.24
  -9   1   2    0.97    0.21
  -9   1   2    0.89    0.26
  -8   1   2    0.12    0.13
  -8   1   2    0.33    0.16
  -8   1   2    0.17    0.14
   7  -1  -2    0.09    0.11
   7  -1  -2    0.08    0.11
  -7   1   2    0.04    0.10
  -7   1   2    0.18    0.13
  -7   1   2    0.16    0.13
   6  -1  -2    7.35    0.34
   6  -1  -2    7.38    0.35
   6  -1  -2    6.96    0.35
  -6   1   2    7.51    0.36
  -6   1   2    6.91    0.38
  -6   1   2    6.90    0.36
  -6   1   2    7.35    0.39
  -6   1   2    6.73    0.31
   5  -1  -2    2.08    0.20
   5  -1  -2    1.77    0.19
   5  -1  -2    1.92    0.19
  -5   1   2    1.97    0.22
  -5   1   2    2.31    0.21
  -5   1   2    1.80    0.20
  -5   1   2    2.21    0.22
  -5   1   2    2.04    0.20
   4  -1  -2   13.08    0.37
   4  -1  -2   13.05    0.39
   4  -1  -2   12.84    0.40
  -4   1   2   13.16    0.38
  -4   1   2   12.83    0.41
  -4   1   2   13.20    0.43
  -4   1   2   13.38    0.42
  -4   1   2   13.13    0.37
   3  -1  -2    3.92    0.18
   3  -1  -2    3.73    0.19
   3  -1  -2    3.91    0.20
   3  -1  -2    3.85    0.19
  -3   1   2    3.70    0.18
  -3   1   2    3.89    0.20
  -3   1   2    3.70    0.19
  -3   1   2    3.95    0.18
   2  -1  -2    5.34    0.21
   2  -1  -2    5.96    0.22
   2  -1  -2    5.55    0.21
   2  -1  -2    5.75    0.18
  -2   1   2    5.95    0.21
  -2   1   2    5.81    0.22
  -2   1   2    5.58    0.22
   1  -1  -2   43.37    0.75
   1  -1  -2   42.82    0.75
  -1   1   2   42.65    0.74
  -1   1   2   43.64    0.76
  -1   1   2   42.63    0.75
   0  -1  -2  320.81    4.61
   0  -1  -2  324.71    4.62
   0  -1  -2  317.85    4.62
   0   1   2  327.53    4.62
   0   1   2  325.19    4.70
   0   1   2  326.89    4.62
  -1  -1  -2   10.26    0.26
  -1  -1  -2    9.87    0.25
  -1  -1  -2   10.15    0.25
  -1  -1  -2   10.13    0.25
   1   1   2   10.04    0.25
   1   1   2   10.26    0.25
   1   1   2   10.10    0.25
   1   1   2   10.06    0.18
  -2  -1  -2  206.09    3.05
  -2  -1  -2  200.49    2.99
  -2  -1  -2  201.47    3.00
  -2  -1  -2  205.08    2.99
   2   1   2  207.87    2.99
   2   1   2  208.39    2.99
   2   1   2  206.96    2.98
   2   1   2  202.60    3.04
  -3  -1  -2    9.56    0.28
  -3  -1  -2   10.02    0.29
  -3  -1  -2    9.96    0.29
  -3  -1  -2   10.45    0.34
   3   1   2   10.29    0.27
   3   1   2   10.29    0.33
   3   1   2   10.07    0.28
   3   1   2   10.06    0.27
  -4  -1  -2  264.09    3.80
  -4  -1  -2  260.52    3.86
  -4  -1  -2  249.11    3.93
  -4  -1  -2  259.17    3.84
  -4  -1  -2  260.27    3.85
   4   1   2  257.76    3.80
   4   1   2  258.93    3.81
   4   1   2  265.33    3.82
   4   1   2  259.35    3.94
   4   1   2  256.18    3.79
  -5  -1  -2    0.31    0.09
  -5  -1  -2    0.29    0.13
  -5  -1  -2    0.36    0.08
  -5  -1  -2    0.41    0.10
   5   1   2    0.38    0.08
   5   1   2    0.38    0.13
   5   1   2    0.22    0.08
  -6  -1  -2    4.62    0.27
  -6  -1  -2    4.00    0.21
  -6  -1  -2    4.84    0.34
  -6  -1  -2    4.33    0.26
   6   1   2    4.08    0.22
  -7  -1  -2    3.17    0.30
  -7  -1  -2    2.91    0.33
  -7  -1  -2    2.97    0.28
   7   1   2    2.97    0.20
  -8  -1  -2    1.90    0.26
  -8  -1  -2    1.48    0.28
  -9  -1  -2   -0.15    0.16
  -9  -1  -2    0.44    0.20
 -10  -1  -2   -0.06    0.20
 -10  -1  -2   -0.21    0.18
  -9   2   2    0.23    0.20
  -8   2   2   -0.10    0.13
  -8   2   2   -0.02    0.11
   7  -2  -2    0.49    0.16
   7  -2  -2    0.40    0.16
  -7   2   2    0.59    0.19
  -7   2   2    0.49    0.17
  -7   2   2    0.70    0.17
   6  -2  -2    7.80    0.38
   6  -2  -2    8.10    0.40
  -6   2   2    7.99    0.42
  -6   2   2    7.98    0.39
  -6   2   2    7.70    0.42
  -6   2   2    7.88    0.36
   5  -2  -2    8.76    0.38
   5  -2  -2    9.47    0.39
   5  -2  -2    9.73    0.39
  -5   2   2    9.59    0.42
  -5   2   2    8.75    0.38
  -5   2   2    9.44    0.37
  -5   2   2    9.16    0.40
  -5   2   2    8.37    0.40
   4  -2  -2    3.64    0.23
   4  -2  -2    3.43    0.22
   4  -2  -2    3.03    0.21
  -4   2   2    3.36    0.22
  -4   2   2    3.06    0.23
  -4   2   2    3.54    0.21
  -4   2   2    3.14    0.22
  -4   2   2    2.91    0.22
   3  -2  -2   11.62    0.38
   3  -2  -2   11.47    0.35
   3  -2  -2   12.11    0.38
   3  -2  -2   12.22    0.37
  -3   2   2   12.03    0.38
  -3   2   2   11.80    0.36
  -3   2   2   11.56    0.39
  -3   2   2   11.61    0.39
   2  -2  -2   25.35    0.57
   2  -2  -2   25.93    0.57
   2  -2  -2   25.79    0.53
  -2   2   2   26.17    0.58
  -2   2   2   25.33    0.56
  -2   2   2   25.83    0.58
  -2   2   2   25.58    0.58
   1  -2  -2    4.06    0.18
   1  -2  -2    3.97    0.18
   1  -2  -2    3.88    0.17
  -1   2   2    3.68    0.17
  -1   2   2    4.26    0.18
   0  -2  -2   23.42    0.48
   0  -2  -2   23.76    0.46
   0  -2  -2   23.33    0.48
   0   2   2   23.66    0.47
   0   2   2   23.37    0.47
  -1  -2  -2  128.45    1.94
  -1  -2  -2  129.62    1.92
  -1  -2  -2  129.52    1.94
   1   2   2  129.09    1.93
   1   2   2  129.25    1.93
   1   2   2  131.62    1.93
   1   2   2  130.97    1.92
   1   2   2  131.94    1.93
   1   2   2  128.47    1.94
  -2  -2  -2    2.58    0.12
  -2  -2  -2    2.55    0.12
  -2  -2  -2    2.61    0.12
  -2  -2  -2    2.61    0.11
  -2  -2  -2    2.49    0.12
   2   2   2    2.55    0.11
   2   2   2    2.42    0.11
   2   2   2    2.34    0.12
   2   2   2    2.44    0.11
  -3  -2  -2   20.19    0.44
  -3  -2  -2   19.63    0.41
  -3  -2  -2   20.80    0.42
  -3  -2  -2   20.01    0.41
  -3  -2  -2   20.43    0.50
   3   2   2   20.36    0.38
   3   2   2   19.82    0.38
   3   2   2   20.07    0.38
  -4  -2  -2   14.48    0.32
  -4  -2  -2   14.59    0.36
  -4  -2  -2   14.53    0.36
  -4  -2  -2   14.43    0.36
  -4  -2  -2   12.88    0.43
   4   2   2   15.11    0.33
   4   2   2   14.52    0.31
   4   2   2   14.18    0.30
  -5  -2  -2   19.80    0.42
  -5  -2  -2   20.10    0.49
  -5  -2  -2   19.17    0.48
  -5  -2  -2   20.04    0.49
  -5  -2  -2   20.23    0.58
   5   2   2   19.48    0.57
  -6  -2  -2    0.79    0.13
  -6  -2  -2    0.72    0.12
  -6  -2  -2    0.79    0.18
  -7  -2  -2    0.53    0.14
  -7  -2  -2    0.32    0.17
  -7  -2  -2    0.46    0.13
  -8  -2  -2    4.10    0.40
  -8  -2  -2    4.33    0.33
  -9  -2  -2    0.43    0.20
  -9  -2  -2    0.01    0.14
 -10  -2  -2    0.02    0.17
 -10  -2  -2    0.10    0.21
  -8   3   2    0.16    0.15
  -8   3   2    0.20    0.17
   7  -3  -2    0.47    0.17
  -7   3   2    0.28    0.19
  -7   3   2    0.24    0.15
   6  -3  -2    3.00    0.29
   6  -3  -2    3.79    0.31
  -6   3   2    3.83    0.35
  -6   3   2    2.26    0.27
   5  -3  -2   44.50    1.03
   5  -3  -2   43.80    1.03
  -5   3   2   44.01    1.08
  -5   3   2   43.81    1.00
  -5   3   2   44.47    1.07
   4  -3  -2    3.27    0.25
   4  -3  -2    3.64    0.25
  -4   3   2    3.65    0.27
  -4   3   2    3.15    0.22
  -4   3   2    3.54    0.26
   3  -3  -2    0.40    0.10
   3  -3  -2    0.62    0.12
   3  -3  -2    0.47    0.12
  -3   3   2    0.56    0.13
  -3   3   2    0.81    0.15
  -3   3   2    0.41    0.11
  -3   3   2    0.44    0.11
   2  -3  -2    6.21    0.27
   2  -3  -2    6.25    0.26
   2  -3  -2    6.41    0.26
  -2   3   2    6.78    0.29
  -2   3   2    6.29    0.28
  -2   3   2    6.03    0.26
   1  -3  -2   74.04    1.29
   1  -3  -2   74.26    1.26
   1  -3  -2   74.40    1.29
  -1   3   2   74.74    1.29
  -1   3   2   76.25    1.28
  -1   3   2   72.66    1.27
  -1   3   2   75.15    1.29
   0  -3  -2   25.57    0.54
   0  -3  -2   24.14    0.53
   0  -3  -2   24.93    0.51
   0   3   2   24.62    0.53
   0   3   2   24.96    0.52
   0   3   2   24.49    0.52
   0   3   2   24.78    0.52
  -1  -3  -2  235.95    3.35
  -1  -3  -2  236.69    3.32
  -1  -3  -2  229.58    3.35
   1   3   2  231.46    3.34
   1   3   2  231.92    3.33
   1   3   2  233.91    3.33
   1   3   2  201.78    3.32
   1   3   2  231.45    3.37
  -2  -3  -2   23.47    0.50
  -2  -3  -2   22.80    0.45
  -2  -3  -2   23.14    0.45
  -2  -3  -2   23.16    0.44
  -2  -3  -2   22.87    0.42
   2   3   2   23.24    0.42
   2   3   2   23.03    0.44
   2   3   2   23.46    0.41
   2   3   2   23.18    0.42
   2   3   2   22.61    0.41
   2   3   2   23.05    0.42
   2   3   2   22.54    0.49
  -3  -3  -2   14.40    0.38
  -3  -3  -2   14.25    0.31
  -3  -3  -2   13.85    0.31
  -3  -3  -2   14.43    0.31
   3   3   2   14.01    0.38
  -4  -3  -2    4.35    0.25
  -4  -3  -2    4.38    0.17
  -4  -3  -2    4.47    0.17
  -4  -3  -2    4.65    0.17
  -4  -3  -2    4.24    0.22
  -5  -3  -2    6.67    0.24
  -5  -3  -2    7.09    0.31
  -5  -3  -2    6.92    0.24
  -5  -3  -2    6.95    0.24
  -5  -3  -2    7.18    0.34
  -6  -3  -2    3.56    0.29
  -6  -3  -2    3.24    0.20
  -6  -3  -2    3.32    0.25
  -6  -3  -2    3.34    0.19
  -6  -3  -2    3.58    0.20
  -7  -3  -2    0.37    0.11
  -7  -3  -2    0.57    0.12
  -7  -3  -2    0.00    0.14
  -8  -3  -2    2.25    0.24
  -8  -3  -2    2.25    0.30
  -9  -3  -2    0.74    0.19
  -9  -3  -2    0.89    0.25
 -10  -3  -2   -0.24    0.15
 -10  -3  -2   -0.12    0.16
  -8   4   2   -0.17    0.15
   7  -4  -2    0.06    0.14
  -7   4   2    0.34    0.18
  -7   4   2    0.14    0.14
   6  -4  -2    1.35    0.23
  -6   4   2    1.40    0.24
  -6   4   2    1.05    0.22
   5  -4  -2   28.31    0.82
   5  -4  -2   27.35    0.79
  -5   4   2   28.09    0.85
  -5   4   2   27.88    0.79
  -5   4   2   26.78    0.84
   4  -4  -2    3.17    0.25
   4  -4  -2    3.31    0.27
  -4   4   2    2.79    0.27
  -4   4   2    2.83    0.23
  -4   4   2    3.29    0.27
   3  -4  -2    0.20    0.11
   3  -4  -2    0.22    0.10
   3  -4  -2    0.13    0.08
  -3   4   2    0.26    0.11
  -3   4   2    0.21    0.09
  -3   4   2    0.08    0.08
   2  -4  -2    0.95    0.15
   2  -4  -2    1.19    0.16
   2  -4  -2    1.38    0.16
   2  -4  -2    1.28    0.17
  -2   4   2    0.90    0.13
  -2   4   2    1.03    0.14
  -2   4   2    0.95    0.15
   1  -4  -2   16.32    0.44
   1  -4  -2   16.11    0.46
  -1   4   2   15.43    0.46
  -1   4   2   15.86    0.45
  -1   4   2   15.61    0.45
  -1   4   2   16.06    0.46
   0  -4  -2    2.68    0.17
   0  -4  -2    2.70    0.17
   0  -4  -2    2.48    0.15
   0   4   2    2.74    0.16
   0   4   2    2.31    0.15
   0   4   2    2.59    0.16
   0   4   2    2.53    0.16
  -1  -4  -2    6.59    0.21
  -1  -4  -2    6.47    0.24
  -1  -4  -2    6.41    0.24
   1   4   2    6.22    0.25
   1   4   2    6.85    0.23
   1   4   2    6.46    0.23
   1   4   2    6.28    0.22
  -2  -4  -2   26.70    0.53
  -2  -4  -2   26.56    0.59
  -2  -4  -2   25.97    0.52
  -2  -4  -2   25.93    0.47
   2   4   2   26.12    0.47
   2   4   2   26.09    0.47
   2   4   2   26.37    0.49
   2   4   2   25.54    0.58
   2   4   2   25.56    0.46
   2   4   2   26.02    0.51
   2   4   2   24.76    0.47
  -3  -4  -2    0.36    0.08
  -3  -4  -2    0.42    0.06
  -3  -4  -2    0.46    0.07
  -3  -4  -2    0.55    0.07
  -3  -4  -2    0.43    0.06
   3   4   2    0.35    0.07
   3   4   2    0.36    0.06
  -4  -4  -2    3.82    0.22
  -4  -4  -2    3.71    0.14
  -5  -4  -2    0.76    0.17
  -5  -4  -2    0.89    0.09
  -5  -4  -2    0.96    0.14
  -6  -4  -2    0.35    0.08
  -6  -4  -2    0.37    0.11
  -6  -4  -2    0.43    0.09
  -6  -4  -2    0.18    0.13
  -7  -4  -2    0.25    0.10
  -7  -4  -2    0.17    0.16
  -7  -4  -2    0.23    0.09
  -7  -4  -2    0.39    0.10
  -7  -4  -2    0.17    0.13
  -8  -4  -2    0.80    0.15
  -8  -4  -2    0.64    0.19
  -9  -4  -2    0.10    0.18
  -9  -4  -2    0.14    0.13
 -10  -4  -2    0.05    0.16
 -10  -4  -2    0.08    0.18
   7  -5  -2    0.28    0.18
  -7   5   2   -0.14    0.14
   6  -5  -2    0.04    0.13
  -6   5   2    0.16    0.15
  -6   5   2   -0.11    0.12
   5  -5  -2    0.14    0.13
  -5   5   2    0.15    0.13
  -5   5   2    0.06    0.13
   4  -5  -2    4.57    0.31
   4  -5  -2    4.97    0.36
  -4   5   2    4.93    0.36
  -4   5   2    5.25    0.33
  -4   5   2    5.53    0.37
   3  -5  -2    0.23    0.11
   3  -5  -2    0.12    0.11
  -3   5   2    0.31    0.12
  -3   5   2    0.11    0.09
  -3   5   2    0.34    0.11
   2  -5  -2    9.98    0.41
   2  -5  -2    9.24    0.40
  -2   5   2    8.83    0.40
  -2   5   2    9.40    0.40
  -2   5   2    9.11    0.38
   1  -5  -2   11.33    0.38
   1  -5  -2   11.19    0.41
   1  -5  -2   10.67    0.40
  -1   5   2   11.18    0.39
  -1   5   2   11.38    0.41
  -1   5   2   10.82    0.39
   0  -5  -2    0.03    0.06
   0  -5  -2    0.04    0.06
   0  -5  -2    0.02    0.06
   0  -5  -2   -0.07    0.05
   0   5   2    0.01    0.06
   0   5   2    0.01    0.05
   0   5   2    0.00    0.06
  -1  -5  -2    6.13    0.26
  -1  -5  -2    5.94    0.23
  -1  -5  -2    6.15    0.26
  -1  -5  -2    6.18    0.26
   1   5   2    6.57    0.24
   1   5   2    6.37    0.25
   1   5   2    6.56    0.26
   1   5   2    6.07    0.28
  -2  -5  -2   35.83    0.71
  -2  -5  -2   35.63    0.70
   2   5   2   35.08    0.66
   2   5   2   35.23    0.78
   2   5   2   35.46    0.63
   2   5   2   35.98    0.64
   2   5   2   34.74    0.64
   2   5   2   35.63    0.69
   2   5   2   35.34    0.63
  -3  -5  -2   -0.06    0.06
  -3  -5  -2    0.00    0.05
  -3  -5  -2    0.01    0.05
   3   5   2    0.04    0.05
   3   5   2    0.06    0.06
  -4  -5  -2    0.00    0.04
  -4  -5  -2   -0.07    0.06
   4   5   2    0.01    0.04
   4   5   2    0.03    0.06
  -5  -5  -2    0.28    0.11
  -6  -5  -2    4.38    0.31
  -6  -5  -2    4.50    0.32
  -7  -5  -2    0.10    0.08
  -7  -5  -2   -0.17    0.11
  -8  -5  -2    2.51    0.21
  -8  -5  -2    2.46    0.31
  -9  -5  -2    0.07    0.14
  -9  -5  -2   -0.02    0.11
 -10  -5  -2    0.18    0.18
 -10  -5  -2    0.17    0.15
   7  -6  -2    0.26    0.20
  -7   6   2   -0.23    0.16
   6  -6  -2    0.67    0.25
  -6   6   2    0.85    0.24
   5  -6  -2    0.15    0.17
  -5   6   2   -0.20    0.11
   4  -6  -2    0.13    0.15
  -4   6   2    0.04    0.13
  -4   6   2   -0.05    0.11
  -4   6   2   -0.10    0.10
   3  -6  -2    0.03    0.10
   3  -6  -2    0.00    0.11
  -3   6   2    0.00    0.08
  -3   6   2    0.16    0.11
  -3   6   2   -0.07    0.08
   2  -6  -2    0.83    0.16
   2  -6  -2    1.13    0.17
  -2   6   2    1.08    0.17
  -2   6   2    1.04    0.18
  -2   6   2    1.30    0.20
   1  -6  -2    3.75    0.27
   1  -6  -2    4.11    0.26
   1  -6  -2    3.16    0.25
   1  -6  -2    3.59    0.25
  -1   6   2    3.32    0.25
  -1   6   2    3.05    0.23
  -1   6   2    3.05    0.23
   0  -6  -2    0.15    0.09
   0  -6  -2    0.04    0.06
   0  -6  -2    0.20    0.10
   0   6   2   -0.02    0.06
   0   6   2    0.14    0.08
   0   6   2    0.20    0.09
  -1  -6  -2    0.01    0.06
  -1  -6  -2    0.03    0.06
  -1  -6  -2    0.11    0.07
   1   6   2    0.07    0.06
   1   6   2    0.04    0.04
   1   6   2   -0.10    0.07
   1   6   2   -0.01    0.06
  -2  -6  -2   90.50    1.57
  -2  -6  -2   92.68    1.57
  -2  -6  -2   93.32    1.58
   2   6   2   94.07    1.48
   2   6   2   93.58    1.69
   2   6   2   91.44    1.48
   2   6   2   92.88    1.47
   2   6   2   92.87    1.56
  -3  -6  -2   30.08    0.76
  -3  -6  -2   29.45    0.63
  -3  -6  -2   29.16    0.62
   3   6   2   29.39    0.61
   3   6   2   29.76    0.75
  -4  -6  -2   16.60    0.40
  -4  -6  -2   17.55    0.57
   4   6   2   16.39    0.54
   4   6   2   16.11    0.38
  -5  -6  -2    0.36    0.14
   5   6   2    0.25    0.13
  -7  -6  -2    1.18    0.22
  -8  -6  -2   -0.07    0.12
  -9  -6  -2    1.79    0.29
 -10  -6  -2   -0.04    0.16
 -10  -6  -2    0.55    0.15
   6  -7  -2    0.20    0.22
  -6   7   2   -0.06    0.16
   5  -7  -2    0.75    0.23
  -5   7   2    0.68    0.22
   4  -7  -2    1.47    0.27
  -4   7   2    1.31    0.24
   3  -7  -2    0.05    0.12
  -3   7   2    0.08    0.11
  -3   7   2    0.14    0.11
   2  -7  -2    1.05    0.22
  -2   7   2    0.96    0.18
  -2   7   2    1.06    0.19
   1  -7  -2    2.53    0.29
   1  -7  -2    1.75    0.22
   1  -7  -2    2.70    0.32
  -1   7   2    2.25    0.23
  -1   7   2    2.41    0.27
   0  -7  -2    0.15    0.09
   0  -7  -2    0.16    0.10
   0  -7  -2    0.13    0.10
   0   7   2    0.13    0.08
   0   7   2    0.13    0.11
   0   7   2    0.15    0.08
  -1  -7  -2    3.00    0.23
  -1  -7  -2    2.87    0.23
  -1  -7  -2    3.50    0.25
   1   7   2    3.43    0.31
   1   7   2    2.98    0.20
   1   7   2    3.15    0.23
  -2  -7  -2    4.20    0.25
  -2  -7  -2    3.86    0.24
  -2  -7  -2    3.66    0.24
   2   7   2    4.20    0.20
   2   7   2    3.75    0.23
   2   7   2    3.90    0.29
   2   7   2    4.28    0.21
  -3  -7  -2    4.16    0.24
  -3  -7  -2    4.44    0.23
  -3  -7  -2    4.19    0.23
   3   7   2    3.84    0.29
   3   7   2    3.68    0.22
  -4  -7  -2    3.73    0.20
  -4  -7  -2    3.86    0.20
  -4  -7  -2    3.84    0.31
   4   7   2    3.94    0.30
   4   7   2    3.88    0.19
  -5  -7  -2    0.78    0.10
   5   7   2    0.72    0.09
   5   7   2    0.69    0.16
  -7  -7  -2    0.01    0.13
  -8  -7  -2    0.51    0.19
  -9  -7  -2    2.96    0.38
 -10  -7  -2    0.47    0.21
   5  -8  -2    0.18    0.20
  -5   8   2   -0.09    0.16
   4  -8  -2    0.22    0.17
  -4   8   2   -0.08    0.12
   3  -8  -2    2.41    0.32
  -3   8   2    2.29    0.30
  -3   8   2    1.85    0.28
   2  -8  -2    0.05    0.13
  -2   8   2    0.01    0.09
  -2   8   2    0.01    0.12
   1  -8  -2    1.90    0.24
   1  -8  -2    1.34    0.23
  -1   8   2    2.18    0.28
  -1   8   2    2.20    0.26
   0  -8  -2    0.52    0.15
   0  -8  -2    1.05    0.21
   0  -8  -2    0.94    0.18
   0   8   2    0.80    0.16
   0   8   2    0.79    0.15
   0   8   2    0.80    0.19
  -1  -8  -2    4.09    0.30
  -1  -8  -2    4.32    0.31
  -1  -8  -2    4.58    0.31
   1   8   2    4.88    0.27
   1   8   2    4.34    0.34
   1   8   2    4.20    0.29
  -2  -8  -2    6.14    0.33
  -2  -8  -2    6.82    0.35
  -2  -8  -2    6.45    0.33
   2   8   2    6.72    0.28
   2   8   2    6.22    0.41
   2   8   2    6.06    0.26
   2   8   2    6.62    0.33
  -3  -8  -2   63.10    1.26
  -3  -8  -2   66.38    1.28
  -3  -8  -2   62.09    1.25
   3   8   2   65.77    1.24
   3   8   2   67.29    1.44
  -4  -8  -2    0.16    0.08
  -4  -8  -2    0.30    0.11
   4   8   2    0.14    0.08
   4   8   2    0.28    0.14
  -5  -8  -2    0.18    0.08
   5   8   2    0.15    0.11
   5   8   2    0.14    0.07
  -8  -8  -2   -0.11    0.14
  -9  -8  -2    1.54    0.30
   4  -9  -2    0.66    0.29
   3  -9  -2    1.55    0.32
   2  -9  -2    0.16    0.17
  -2   9   2    0.17    0.12
  -2   9   2    0.21    0.17
   1  -9  -2    0.19    0.15
  -1   9   2    0.04    0.14
  -1   9   2    0.18    0.12
  -1   9   2    0.29    0.15
   0  -9  -2   -0.01    0.13
   0   9   2    0.14    0.12
   0   9   2    0.16    0.12
   0   9   2    0.12    0.16
  -1  -9  -2    0.82    0.19
  -1  -9  -2    0.70    0.18
   1   9   2    0.62    0.14
   1   9   2    0.83    0.18
   1   9   2    0.41    0.18
  -2  -9  -2    7.47    0.40
  -2  -9  -2    5.59    0.35
   2   9   2    5.97    0.27
   2   9   2    6.33    0.30
   2   9   2    6.04    0.35
   2   9   2    7.00    0.45
  -3  -9  -2    7.41    0.42
  -3  -9  -2    7.44    0.37
  -3  -9  -2    7.22    0.38
   3   9   2    7.89    0.47
   3   9   2    7.63    0.36
  -4  -9  -2    0.20    0.10
  -4  -9  -2    0.12    0.09
   4   9   2    0.01    0.12
   4   9   2    0.16    0.10
  -5  -9  -2    0.17    0.10
  -5  -9  -2    0.07    0.08
   5   9   2    0.32    0.14
   5   9   2    0.15    0.09
  -6  -9  -2    0.06    0.08
   6   9   2    0.05    0.07
   6   9   2   -0.12    0.11
  -8  -9  -2    0.22    0.17
  -9  -9  -2    0.18    0.17
   3 -10  -2   -0.04    0.22
   2 -10  -2    0.09    0.20
  -2  10   2    0.07    0.19
   1 -10  -2    0.11    0.19
  -1  10   2    0.51    0.22
  -1  10   2    0.26    0.16
   0 -10  -2    0.01    0.15
   0  10   2    0.11    0.13
   0  10   2   -0.13    0.16
  -1 -10  -2   -0.06    0.15
   1  10   2    0.27    0.17
   1  10   2    0.32    0.16
  -2 -10  -2    4.22    0.35
   2  10   2    3.85    0.31
   2  10   2    4.02    0.41
  -3 -10  -2    0.11    0.12
   3  10   2    0.00    0.11
   3  10   2    0.33    0.17
  -4 -10  -2    0.24    0.13
   4  10   2    0.17    0.11
   4  10   2   -0.03    0.12
  -5 -10  -2    0.14    0.11
   5  10   2    0.14    0.13
   5  10   2   -0.04    0.08
  -6 -10  -2    0.00    0.09
   6  10   2   -0.08    0.12
   6  10   2    0.04    0.08
   1 -11  -2   -0.15    0.17
  -1  11   2   -0.16    0.15
   0 -11  -2    0.34    0.22
   0  11   2    0.64    0.19
  -1 -11  -2    1.04    0.25
   1  11   2    0.54    0.23
   1  11   2    0.98    0.23
  -2 -11  -2    0.06    0.14
   2  11   2    0.03    0.15
   2  11   2    0.21    0.14
  -3 -11  -2   -0.18    0.12
   3  11   2    0.15    0.17
   3  11   2    0.15    0.14
  -4 -11  -2    0.59    0.18
   4  11   2    0.17    0.17
   4  11   2    0.43    0.15
  -5 -11  -2    0.57    0.17
   5  11   2    0.26    0.16
   5  11   2    0.24    0.12
  -6 -11  -2   -0.08    0.10
   6  11   2    0.00    0.09
  -2 -12  -2    0.08    0.16
   2  12   2   -0.13    0.13
  -3 -12  -2    0.28    0.19
   3  12   2    0.31    0.17
  -4 -12  -2    0.22    0.16
   4  12   2    0.16    0.15
   4  10  -3    0.01    0.11
  -4 -10   3    0.03    0.13
   3  10  -3    0.08    0.14
  -3 -10   3    0.22    0.15
   2  10  -3    0.16    0.15
   2  10  -3   -0.29    0.13
  -2 -10   3   -0.08    0.14
   1  10  -3    0.40    0.20
   1  10  -3    0.18    0.19
  -1 -10   3    0.41    0.22
   6   9  -3   -0.15    0.09
   5   9  -3    1.24    0.19
  -5  -9   3    1.39    0.21
   4   9  -3    0.25    0.18
   4   9  -3    0.12    0.10
  -4  -9   3   -0.09    0.10
   3   9  -3    0.30    0.17
   3   9  -3    0.42    0.15
  -3  -9   3    0.39    0.17
   2   9  -3    1.11    0.24
   2   9  -3    1.03    0.21
  -2  -9   3    1.02    0.22
   1   9  -3    0.52    0.17
   1   9  -3    0.43    0.20
  -1  -9   3    0.47    0.19
   0   9  -3   -0.06    0.14
   0   9  -3    0.25    0.16
   0  -9   3    0.08    0.16
  -1   9  -3    3.07    0.39
  -1   9  -3    3.51    0.39
   1  -9   3    3.18    0.41
  -2   9  -3    0.00    0.17
  -2   9  -3   -0.06    0.22
   2  -9   3    0.22    0.21
  -5  -8   3    2.41    0.24
   4   8  -3    0.08    0.13
   4   8  -3    0.09    0.09
  -4  -8   3   -0.04    0.10
   3   8  -3    0.27    0.16
   3   8  -3    0.26    0.12
  -3  -8   3    0.20    0.13
   2   8  -3   -0.12    0.10
   2   8  -3    0.10    0.11
  -2  -8   3    0.19    0.12
   1   8  -3    1.19    0.21
   1   8  -3    1.27    0.24
  -1  -8   3    1.18    0.23
   0   8  -3    0.02    0.11
   0   8  -3   -0.01    0.11
   0  -8   3    0.04    0.14
  -1   8  -3    0.48    0.17
  -1   8  -3    0.42    0.17
   1  -8   3    0.28    0.20
  -2   8  -3    3.07    0.37
  -2   8  -3    3.42    0.40
   2  -8   3    3.40    0.43
  -3   8  -3    0.22    0.16
   3  -8   3    0.52    0.24
  -4   8  -3   -0.18    0.14
   4  -8   3    0.04    0.20
  -5  -7   3    0.06    0.08
  -4  -7   3    0.52    0.12
  -4  -7   3    0.48    0.14
   3   7  -3    0.48    0.16
  -3  -7   3    0.69    0.14
  -3  -7   3    0.72    0.16
   2   7  -3    1.49    0.23
  -2  -7   3    1.65    0.21
  -2  -7   3    2.20    0.25
   1   7  -3    0.02    0.10
   1   7  -3   -0.04    0.06
   1   7  -3   -0.06    0.08
  -1  -7   3    0.10    0.10
  -1  -7   3   -0.15    0.09
   0   7  -3    0.01    0.08
   0   7  -3   -0.02    0.06
   0   7  -3    0.04    0.11
   0  -7   3    0.02    0.08
   0  -7   3   -0.12    0.09
  -1   7  -3   -0.02    0.09
  -1   7  -3   -0.03    0.09
  -1   7  -3   -0.02    0.10
   1  -7   3   -0.02    0.14
  -2   7  -3    0.02    0.12
  -2   7  -3    0.29    0.15
  -2   7  -3    0.23    0.14
   2  -7   3    0.18    0.18
  -3   7  -3    0.29    0.16
  -3   7  -3    0.43    0.18
  -3   7  -3    0.25    0.16
   3  -7   3    0.35    0.19
  -4   7  -3   -0.15    0.12
   4  -7   3    0.48    0.23
   5  -7   3   -0.05    0.20
  -6  -6   3   -0.04    0.06
  -5  -6   3    0.25    0.08
  -4  -6   3   -0.06    0.07
  -4  -6   3   -0.04    0.08
  -4  -6   3   -0.03    0.06
   3   6  -3    0.12    0.12
  -3  -6   3    0.09    0.09
  -3  -6   3    0.09    0.08
  -3  -6   3    0.24    0.10
   2   6  -3    5.16    0.33
  -2  -6   3    4.85    0.28
  -2  -6   3    5.04    0.34
  -2  -6   3    5.00    0.29
  -2  -6   3    5.39    0.30
   1   6  -3    0.21    0.11
   1   6  -3    0.27    0.09
  -1  -6   3    0.30    0.12
  -1  -6   3    0.45    0.12
  -1  -6   3    0.26    0.11
   0   6  -3    0.64    0.15
   0   6  -3    0.55    0.13
   0   6  -3    0.82    0.17
   0  -6   3    0.81    0.16
   0  -6   3    0.78    0.17
  -1   6  -3    1.75    0.22
  -1   6  -3    2.61    0.27
  -1   6  -3    2.08    0.24
   1  -6   3    1.78    0.24
   1  -6   3    2.20    0.27
  -2   6  -3    3.34    0.33
  -2   6  -3    3.59    0.35
  -2   6  -3    3.04    0.30
   2  -6   3    3.12    0.33
   2  -6   3    3.31    0.36
  -3   6  -3    0.23    0.13
  -3   6  -3    0.04    0.13
  -3   6  -3    0.18    0.14
   3  -6   3    0.30    0.18
  -4   6  -3    0.42    0.17
   4  -6   3    0.13    0.14
  -5   6  -3    0.57    0.20
   5  -6   3    0.27    0.16
  -6   6  -3   -0.15    0.17
   6  -6   3    0.26    0.22
  -9  -5   3    0.00    0.10
  -9  -5   3    0.10    0.10
  -8  -5   3    0.14    0.09
  -7  -5   3    0.48    0.13
  -7  -5   3    0.50    0.11
   6   5  -3    0.76    0.11
  -6  -5   3    0.77    0.11
  -6  -5   3    1.07    0.15
  -5  -5   3    2.09    0.15
  -5  -5   3    1.93    0.16
  -4  -5   3    0.20    0.07
  -4  -5   3    0.19    0.08
  -4  -5   3    0.21    0.09
  -3  -5   3    2.64    0.18
  -3  -5   3    2.19    0.25
  -3  -5   3    2.48    0.17
  -3  -5   3    2.32    0.18
   2   5  -3    2.02    0.22
  -2  -5   3    2.21    0.19
  -2  -5   3    2.14    0.18
  -2  -5   3    2.21    0.23
  -2  -5   3    2.45    0.18
  -2  -5   3    1.94    0.21
   1   5  -3   17.39    0.55
   1   5  -3   16.59    0.44
  -1  -5   3   16.52    0.51
  -1  -5   3   16.85    0.52
  -1  -5   3   17.23    0.51
   0   5  -3    2.25    0.19
   0   5  -3    2.54    0.23
   0  -5   3    2.29    0.23
   0  -5   3    2.10    0.21
   0  -5   3    2.68    0.23
  -1   5  -3    4.01    0.27
  -1   5  -3    4.02    0.27
  -1   5  -3    4.13    0.27
   1  -5   3    4.14    0.28
   1  -5   3    4.62    0.31
  -2   5  -3    0.37    0.13
  -2   5  -3    0.46    0.13
  -2   5  -3    0.49    0.14
   2  -5   3    0.28    0.14
   2  -5   3    0.55    0.14
  -3   5  -3    5.38    0.35
  -3   5  -3    4.25    0.34
   3  -5   3    5.13    0.39
  -4   5  -3    0.30    0.15
  -4   5  -3    0.80    0.19
   4  -5   3    0.63    0.20
  -5   5  -3    0.76    0.23
  -5   5  -3    1.17    0.24
   5  -5   3    1.34    0.25
  -6   5  -3   -0.04    0.15
  -6   5  -3    0.14    0.16
   6  -5   3   -0.06    0.14
  -7   5  -3   -0.02    0.18
   7  -5   3    0.12    0.21
   9   4  -3    0.06    0.10
  -9  -4   3    0.13    0.11
  -9  -4   3    0.18    0.12
   8   4  -3    1.46    0.17
  -8  -4   3    1.69    0.20
   7   4  -3    9.73    0.32
  -7  -4   3    9.15    0.34
  -7  -4   3    9.39    0.34
   6   4  -3    0.52    0.10
  -6  -4   3    0.51    0.12
  -6  -4   3    0.49    0.10
  -6  -4   3    0.49    0.11
   5   4  -3    8.04    0.27
  -5  -4   3    7.88    0.28
  -5  -4   3    8.01    0.28
  -4  -4   3    7.22    0.26
  -4  -4   3    7.35    0.38
  -4  -4   3    7.01    0.25
  -4  -4   3    7.16    0.26
  -3  -4   3    0.56    0.09
  -3  -4   3    0.60    0.10
  -3  -4   3    0.63    0.10
  -3  -4   3    0.56    0.12
   2   4  -3    0.46    0.08
   2   4  -3    0.30    0.09
  -2  -4   3    0.57    0.11
  -2  -4   3    0.39    0.10
  -2  -4   3    0.55    0.12
  -2  -4   3    0.35    0.09
  -2  -4   3    0.47    0.09
   1   4  -3   11.48    0.34
   1   4  -3   11.65    0.40
  -1  -4   3   11.54    0.39
  -1  -4   3   11.19    0.40
  -1  -4   3   11.69    0.39
  -1  -4   3   11.77    0.39
  -1  -4   3   11.55    0.39
   0   4  -3   25.12    0.61
   0   4  -3   25.37    0.63
   0  -4   3   25.48    0.65
   0  -4   3   24.31    0.65
   0  -4   3   25.54    0.65
   0  -4   3   26.26    0.67
  -1   4  -3    0.45    0.11
  -1   4  -3    0.31    0.10
   1  -4   3    0.13    0.09
   1  -4   3    0.33    0.10
   1  -4   3    0.39    0.11
  -2   4  -3    6.71    0.34
  -2   4  -3    6.80    0.38
  -2   4  -3    7.23    0.32
  -2   4  -3    7.07    0.34
   2  -4   3    6.61    0.34
   2  -4   3    6.62    0.36
  -3   4  -3   13.99    0.52
  -3   4  -3   14.73    0.55
  -3   4  -3   15.09    0.61
   3  -4   3   15.04    0.57
   3  -4   3   14.51    0.55
  -4   4  -3    0.06    0.13
  -4   4  -3    0.21    0.13
  -4   4  -3    0.01    0.15
   4  -4   3   -0.02    0.12
  -5   4  -3    0.59    0.17
  -5   4  -3    0.67    0.29
  -5   4  -3    0.40    0.18
   5  -4   3    0.72    0.20
  -6   4  -3    2.26    0.32
  -6   4  -3    1.71    0.33
   6  -4   3    2.55    0.36
  -7   4  -3    0.40    0.23
  -7   4  -3    0.01    0.17
   7  -4   3   -0.16    0.14
   9   3  -3   -0.09    0.10
  -9  -3   3   -0.01    0.11
  -9  -3   3    0.02    0.11
   8   3  -3   -0.04    0.09
  -8  -3   3    0.03    0.09
   7   3  -3    1.45    0.17
  -7  -3   3    1.80    0.20
  -7  -3   3    1.70    0.18
   6   3  -3    0.88    0.12
  -6  -3   3    1.01    0.14
  -6  -3   3    0.79    0.13
  -6  -3   3    0.97    0.14
   5   3  -3    0.47    0.09
  -5  -3   3    0.59    0.10
  -5  -3   3    0.65    0.10
  -5  -3   3    0.52    0.14
  -5  -3   3    0.68    0.11
  -4  -3   3    9.12    0.29
  -4  -3   3    9.15    0.40
  -4  -3   3   10.04    0.30
  -3  -3   3    7.03    0.25
  -3  -3   3    7.45    0.33
  -3  -3   3    7.17    0.25
  -3  -3   3    7.21    0.25
   2   3  -3    8.48    0.23
  -2  -3   3    8.93    0.34
  -2  -3   3    8.91    0.29
  -2  -3   3    8.97    0.29
  -2  -3   3    8.50    0.29
  -2  -3   3    8.82    0.28
   1   3  -3    0.18    0.06
   1   3  -3    0.12    0.06
   1   3  -3    0.12    0.05
  -1  -3   3    0.18    0.06
  -1  -3   3    0.04    0.06
  -1  -3   3    0.12    0.06
  -1  -3   3    0.11    0.07
  -1  -3   3    0.16    0.07
   0   3  -3   10.40    0.33
   0   3  -3   10.34    0.33
   0   3  -3   10.36    0.34
   0  -3   3   10.15    0.36
   0  -3   3   10.61    0.36
   0  -3   3   10.20    0.36
   0  -3   3    9.96    0.35
  -1   3  -3    0.33    0.09
  -1   3  -3    0.32    0.09
  -1   3  -3    0.37    0.12
   1  -3   3    0.25    0.09
   1  -3   3    0.25    0.08
   1  -3   3    0.31    0.09
   1  -3   3    0.22    0.11
  -2   3  -3    0.59    0.13
  -2   3  -3    0.44    0.12
   2  -3   3    0.47    0.13
   2  -3   3    0.24    0.09
  -3   3  -3    0.61    0.14
  -3   3  -3    0.39    0.10
  -3   3  -3    0.44    0.14
   3  -3   3    0.64    0.16
   3  -3   3    0.28    0.11
  -4   3  -3    0.16    0.10
  -4   3  -3    0.13    0.10
  -4   3  -3    0.27    0.14
   4  -3   3    0.00    0.11
  -5   3  -3    4.98    0.33
  -5   3  -3    5.11    0.37
  -5   3  -3    4.89    0.39
   5  -3   3    4.49    0.35
  -6   3  -3    0.21    0.18
  -6   3  -3    0.56    0.19
   6  -3   3    0.25    0.18
  -7   3  -3    0.32    0.19
  -7   3  -3    0.53    0.21
   7  -3   3    0.25    0.16
  -8   3  -3    0.09    0.21
  -8   3  -3   -0.26    0.15
   9   2  -3    0.00    0.11
  -9  -2   3    0.21    0.13
  -9  -2   3   -0.12    0.12
   8   2  -3    5.98    0.32
  -8  -2   3    6.09    0.35
  -8  -2   3    5.97    0.35
   7   2  -3    0.31    0.12
  -7  -2   3    0.62    0.15
  -7  -2   3    0.48    0.13
   6   2  -3   13.80    0.41
  -6  -2   3   13.19    0.43
  -6  -2   3   12.76    0.42
   5   2  -3    3.65    0.19
  -5  -2   3    3.50    0.20
  -5  -2   3    4.12    0.22
   4   2  -3    0.12    0.07
  -4  -2   3    0.17    0.07
  -3  -2   3    5.58    0.21
  -3  -2   3    5.59    0.22
  -3  -2   3    5.62    0.28
   2   2  -3   10.50    0.27
  -2  -2   3   11.06    0.31
  -2  -2   3   10.51    0.31
  -2  -2   3   10.88    0.26
  -2  -2   3   11.01    0.31
  -2  -2   3   10.86    0.35
   1   2  -3   15.87    0.38
   1   2  -3   16.02    0.39
  -1  -2   3   15.64    0.37
  -1  -2   3   15.64    0.40
  -1  -2   3   15.77    0.41
  -1  -2   3   15.91    0.40
  -1  -2   3   16.17    0.41
   0   2  -3   25.53    0.56
   0   2  -3   24.99    0.52
   0   2  -3   24.28    0.54
   0   2  -3   24.46    0.55
   0   2  -3   25.37    0.56
   0  -2   3   24.06    0.57
   0  -2   3   25.21    0.56
   0  -2   3   25.04    0.55
   0  -2   3   25.75    0.53
   0  -2   3   25.18    0.57
  -1   2  -3    5.16    0.24
  -1   2  -3    5.31    0.20
  -1   2  -3    5.20    0.25
  -1   2  -3    5.26    0.24
   1  -2   3    4.81    0.24
   1  -2   3    5.64    0.25
   1  -2   3    4.76    0.24
   1  -2   3    5.17    0.25
  -2   2  -3    0.13    0.06
  -2   2  -3    0.26    0.10
  -2   2  -3    0.21    0.08
   2  -2   3    0.30    0.11
   2  -2   3    0.55    0.12
   2  -2   3    0.33    0.10
   2  -2   3    0.12    0.07
  -3   2  -3    2.59    0.21
  -3   2  -3    2.16    0.23
  -3   2  -3    2.46    0.20
   3  -2   3    2.50    0.20
   3  -2   3    2.80    0.22
  -4   2  -3    7.89    0.41
  -4   2  -3    8.47    0.36
  -4   2  -3    7.68    0.38
   4  -2   3    7.81    0.38
  -5   2  -3   16.08    0.55
  -5   2  -3   15.81    0.59
  -5   2  -3   16.72    0.64
   5  -2   3   16.70    0.59
  -6   2  -3    2.11    0.29
  -6   2  -3    2.33    0.35
   6  -2   3    2.32    0.30
  -7   2  -3    1.25    0.25
  -7   2  -3    0.96    0.25
   7  -2   3    0.81    0.19
  -8   2  -3    0.14    0.20
  -8   2  -3   -0.10    0.16
   8  -2   3    0.43    0.26
  -9   2  -3   -0.12    0.19
  -9   2  -3    0.27    0.23
   9   1  -3    2.44    0.32
  -9  -1   3    2.06    0.29
  -9  -1   3    1.93    0.28
   8   1  -3    0.63    0.15
  -8  -1   3    0.29    0.14
  -8  -1   3    0.45    0.15
   7   1  -3    3.45    0.25
  -7  -1   3    3.13    0.25
  -7  -1   3    3.24    0.26
  -7  -1   3    3.29    0.22
   6   1  -3   -0.08    0.07
  -6  -1   3    0.07    0.09
  -6  -1   3    0.02    0.08
  -6  -1   3    0.16    0.09
   5   1  -3    2.53    0.18
  -5  -1   3    2.60    0.19
  -5  -1   3    2.79    0.19
   4   1  -3    0.79    0.12
  -4  -1   3    0.65    0.11
  -4  -1   3    0.78    0.11
   3   1  -3    2.64    0.15
   3   1  -3    2.48    0.13
  -3  -1   3    2.47    0.16
   2   1  -3    2.67    0.14
  -2  -1   3    2.64    0.15
  -2  -1   3    2.38    0.14
   1   1  -3    6.07    0.21
   1   1  -3    6.40    0.22
  -1  -1   3    6.11    0.17
  -1  -1   3    6.44    0.23
  -1  -1   3    6.29    0.22
  -1  -1   3    6.30    0.22
  -1  -1   3    6.42    0.23
   0   1  -3   32.37    0.61
   0   1  -3   32.04    0.63
   0   1  -3   32.73    0.58
   0   1  -3   31.67    0.64
   0   1  -3   31.68    0.63
   0  -1   3   31.62    0.57
   0  -1   3   31.87    0.64
   0  -1   3   32.72    0.65
   0  -1   3   31.17    0.60
   0  -1   3   31.99    0.64
  -1   1  -3   20.20    0.39
  -1   1  -3   20.19    0.48
  -1   1  -3   19.69    0.47
  -1   1  -3   19.32    0.48
  -1   1  -3   19.43    0.48
   1  -1   3   20.22    0.48
   1  -1   3   19.97    0.47
   1  -1   3   18.71    0.48
   1  -1   3   20.17    0.48
  -2   1  -3    1.59    0.18
  -2   1  -3    1.92    0.15
  -2   1  -3    1.97    0.18
  -2   1  -3    1.99    0.16
   2  -1   3    1.90    0.15
   2  -1   3    1.64    0.17
   2  -1   3    1.74    0.17
   2  -1   3    2.06    0.20
  -3   1  -3   12.19    0.44
  -3   1  -3   10.89    0.39
  -3   1  -3   12.33    0.41
   3  -1   3   11.78    0.39
   3  -1   3   11.45    0.42
   3  -1   3   12.44    0.40
   3  -1   3   11.56    0.40
  -4   1  -3   52.52    1.09
  -4   1  -3   52.32    1.05
  -4   1  -3   52.63    1.09
  -4   1  -3   51.80    1.14
   4  -1   3   51.08    1.06
   4  -1   3   51.89    1.07
  -5   1  -3    5.66    0.34
  -5   1  -3    5.44    0.38
  -5   1  -3    5.47    0.30
   5  -1   3    5.48    0.32
  -6   1  -3    8.41    0.39
  -6   1  -3    9.59    0.51
  -6   1  -3    9.11    0.46
   6  -1   3    8.27    0.41
  -7   1  -3    9.15    0.50
  -7   1  -3    9.18    0.54
   7  -1   3    8.78    0.44
  -8   1  -3    0.16    0.18
  -8   1  -3    0.11    0.18
  -9   1  -3    0.15    0.21
  -9   1  -3   -0.07    0.20
  -9   0   3    0.07    0.11
  -9   0   3   -0.10    0.15
   8   0  -3    0.96    0.19
  -8   0   3    0.54    0.17
  -8   0   3    0.89    0.17
  -8   0   3    0.93    0.21
   7   0  -3    1.64    0.20
  -7   0   3    1.61    0.22
  -7   0   3    2.14    0.27
  -7   0   3    2.07    0.22
   6   0  -3    3.29    0.21
   6   0  -3    3.00    0.20
   6   0  -3    3.05    0.24
  -6   0   3    3.20    0.26
  -6   0   3    3.17    0.24
  -6   0   3    3.57    0.22
  -6   0   3    3.13    0.26
   5   0  -3    4.05    0.21
   5   0  -3    4.08    0.19
   5   0  -3    4.06    0.24
  -5   0   3    3.86    0.23
  -5   0   3    3.87    0.19
  -5   0   3    4.25    0.25
   4   0  -3    4.66    0.21
   4   0  -3    4.23    0.22
  -4   0   3    3.98    0.22
  -4   0   3    4.39    0.23
   3   0  -3  192.79    2.91
   3   0  -3  192.55    2.88
  -3   0   3  188.86    2.92
  -3   0   3  194.91    2.95
   2   0  -3    2.71    0.15
   2   0  -3    2.53    0.15
  -2   0   3    2.90    0.16
   1   0  -3  145.92    2.22
  -1   0   3  146.13    2.23
  -1   0   3  147.72    2.24
   0   0  -3   13.76    0.30
   0   0  -3   13.47    0.35
   0   0  -3   13.43    0.35
   0   0  -3   13.77    0.34
   0   0   3   13.46    0.35
   0   0   3   13.57    0.35
   0   0   3   13.56    0.35
   0   0   3   13.35    0.30
  -1   0  -3  116.18    1.78
  -1   0  -3  114.42    1.80
  -1   0  -3  111.93    1.78
  -1   0  -3  111.53    1.79
   1   0   3  114.96    1.80
   1   0   3  112.82    1.77
   1   0   3  114.14    1.80
  -2   0  -3   13.17    0.37
  -2   0  -3   12.83    0.37
  -2   0  -3   12.72    0.38
  -2   0  -3   13.03    0.37
   2   0   3   12.64    0.37
   2   0   3   12.99    0.36
   2   0   3   12.95    0.37
   2   0   3   12.42    0.36
  -3   0  -3   11.34    0.38
  -3   0  -3   11.90    0.37
  -3   0  -3   12.09    0.41
  -3   0  -3   11.39    0.37
   3   0   3   11.16    0.39
   3   0   3   11.55    0.36
   3   0   3   11.53    0.36
   3   0   3   11.85    0.37
  -4   0  -3  114.24    1.89
  -4   0  -3  115.26    2.00
  -4   0  -3  113.16    1.93
  -4   0  -3  112.44    1.93
  -4   0  -3  115.25    1.93
   4   0   3  112.85    1.90
   4   0   3  112.60    1.98
   4   0   3  113.48    1.89
  -5   0  -3    3.78    0.31
  -5   0  -3    4.15    0.27
  -5   0  -3    3.91    0.23
  -5   0  -3    4.26    0.27
   5   0   3    3.52    0.24
  -6   0  -3    0.47    0.14
  -6   0  -3    0.47    0.15
  -6   0  -3    0.56    0.20
  -6   0  -3    0.54    0.12
   6   0   3    0.53    0.13
  -7   0  -3    3.09    0.37
  -7   0  -3    3.11    0.32
   7   0   3    3.26    0.27
  -8   0  -3    1.06    0.23
  -8   0  -3    0.57    0.22
  -9   0  -3    0.02    0.18
  -9   0  -3    0.11    0.18
  -9   1   3    0.09    0.18
  -9   1   3   -0.09    0.12
  -8   1   3    0.63    0.18
  -8   1   3    0.30    0.17
   7  -1  -3    0.02    0.10
  -7   1   3    0.00    0.10
  -7   1   3    0.02    0.11
   6  -1  -3   34.03    0.78
   6  -1  -3   33.68    0.83
   6  -1  -3   32.74    0.75
  -6   1   3   33.55    0.88
  -6   1   3   34.01    0.89
  -6   1   3   33.36    0.86
   5  -1  -3    0.19    0.10
   5  -1  -3    0.26    0.09
   5  -1  -3    0.24    0.10
  -5   1   3    0.14    0.10
  -5   1   3    0.17    0.10
  -5   1   3    0.10    0.07
  -5   1   3    0.41    0.12
   4  -1  -3    6.09    0.23
   4  -1  -3    6.00    0.27
   4  -1  -3    6.15    0.27
  -4   1   3    6.12    0.26
  -4   1   3    6.30    0.28
  -4   1   3    6.04    0.29
   3  -1  -3    8.57    0.30
   3  -1  -3    7.65    0.22
   3  -1  -3    7.40    0.28
  -3   1   3    8.14    0.31
  -3   1   3    7.64    0.27
  -3   1   3    7.72    0.29
   2  -1  -3   59.54    1.04
   2  -1  -3   58.32    1.03
  -2   1   3   58.04    1.05
  -2   1   3   59.23    1.02
  -2   1   3   57.99    1.06
   1  -1  -3    0.10    0.05
   1  -1  -3    0.09    0.06
  -1   1   3    0.12    0.06
  -1   1   3    0.02    0.05
   0  -1  -3    3.56    0.14
   0  -1  -3    3.51    0.17
   0  -1  -3    3.53    0.16
   0  -1  -3    3.45    0.16
   0   1   3    3.28    0.16
   0   1   3    3.39    0.16
   0   1   3    3.68    0.17
  -1  -1  -3   19.79    0.44
  -1  -1  -3   19.51    0.44
  -1  -1  -3   19.55    0.44
  -1  -1  -3   19.41    0.43
   1   1   3   19.92    0.44
   1   1   3   19.61    0.43
   1   1   3   18.93    0.43
   1   1   3   19.69    0.44
  -2  -1  -3    1.52    0.16
  -2  -1  -3    1.41    0.12
  -2  -1  -3    1.36    0.13
  -2  -1  -3    1.45    0.13
  -2  -1  -3    1.45    0.06
   2   1   3    1.41    0.12
   2   1   3    1.49    0.12
   2   1   3    1.55    0.12
   2   1   3    1.42    0.13
  -3  -1  -3   18.86    0.51
  -3  -1  -3   18.68    0.47
  -3  -1  -3   19.50    0.47
  -3  -1  -3   18.93    0.47
   3   1   3   18.32    0.50
   3   1   3   18.92    0.45
   3   1   3   18.88    0.46
   3   1   3   18.99    0.46
  -4  -1  -3    0.21    0.11
  -4  -1  -3    0.31    0.09
  -4  -1  -3    0.19    0.09
  -4  -1  -3    0.50    0.10
   4   1   3    0.28    0.07
   4   1   3    0.27    0.09
   4   1   3    0.19    0.10
   4   1   3    0.39    0.09
  -5  -1  -3    6.08    0.35
  -5  -1  -3    6.74    0.30
  -5  -1  -3    6.51    0.30
  -5  -1  -3    6.45    0.26
  -5  -1  -3    6.65    0.31
   5   1   3    6.23    0.28
  -6  -1  -3    4.16    0.24
  -6  -1  -3    4.40    0.29
  -6  -1  -3    5.14    0.29
  -6  -1  -3    4.23    0.35
   6   1   3    4.60    0.25
  -7  -1  -3   -0.05    0.10
  -7  -1  -3    0.06    0.12
  -7  -1  -3    0.22    0.18
   7   1   3    0.18    0.11
  -8  -1  -3    1.88    0.27
  -8  -1  -3    1.44    0.28
  -9  -1  -3    0.08    0.19
  -9  -1  -3    0.35    0.20
 -10  -1  -3    0.05    0.21
 -10  -1  -3    0.08    0.22
  -8   2   3    0.12    0.15
  -8   2   3    0.05    0.15
   7  -2  -3    0.07    0.15
  -7   2   3   -0.03    0.09
  -7   2   3    0.09    0.13
   6  -2  -3   28.23    0.81
   6  -2  -3   29.44    0.77
   6  -2  -3   28.94    0.79
  -6   2   3   29.29    0.85
  -6   2   3   29.71    0.85
   5  -2  -3    0.66    0.16
   5  -2  -3    0.80    0.15
   5  -2  -3    0.78    0.16
  -5   2   3    0.73    0.16
  -5   2   3    0.88    0.18
  -5   2   3    0.79    0.16
  -5   2   3    0.76    0.16
   4  -2  -3   26.23    0.66
   4  -2  -3   25.71    0.59
   4  -2  -3   24.77    0.65
  -4   2   3   26.20    0.64
  -4   2   3   25.21    0.68
  -4   2   3   25.38    0.67
  -4   2   3   25.63    0.69
   3  -2  -3    7.84    0.31
   3  -2  -3    6.86    0.30
   3  -2  -3    7.97    0.27
  -3   2   3    7.83    0.33
  -3   2   3    8.17    0.30
  -3   2   3    7.88    0.32
   2  -2  -3  153.49    2.41
   2  -2  -3  151.69    2.30
   2  -2  -3  156.17    2.42
  -2   2   3  152.35    2.42
  -2   2   3  155.43    2.44
  -2   2   3  152.18    2.39
   1  -2  -3    0.01    0.05
   1  -2  -3    0.10    0.05
  -1   2   3    0.02    0.05
  -1   2   3    0.05    0.05
  -1   2   3    0.03    0.05
   0  -2  -3    9.89    0.30
   0  -2  -3    9.62    0.28
   0   2   3    9.68    0.29
   0   2   3   10.15    0.30
   0   2   3   10.20    0.29
   0   2   3   10.24    0.30
  -1  -2  -3    1.15    0.11
  -1  -2  -3    0.83    0.10
  -1  -2  -3    0.81    0.10
   1   2   3    0.88    0.11
   1   2   3    0.72    0.08
   1   2   3    0.68    0.09
  -2  -2  -3    2.81    0.15
  -2  -2  -3    2.62    0.18
  -2  -2  -3    2.91    0.12
  -2  -2  -3    2.69    0.15
  -2  -2  -3    2.88    0.16
   2   2   3    2.90    0.11
   2   2   3    2.68    0.15
   2   2   3    3.04    0.15
   2   2   3    2.84    0.15
  -3  -2  -3    0.03    0.06
  -3  -2  -3    0.00    0.07
  -3  -2  -3    0.09    0.04
  -3  -2  -3    0.07    0.05
  -3  -2  -3    0.06    0.05
   3   2   3    0.12    0.05
   3   2   3    0.10    0.05
   3   2   3   -0.01    0.04
  -4  -2  -3    2.58    0.17
  -4  -2  -3    2.61    0.17
  -4  -2  -3    1.99    0.22
  -4  -2  -3    2.56    0.16
  -4  -2  -3    2.34    0.17
   4   2   3    2.52    0.15
   4   2   3    2.40    0.20
   4   2   3    2.51    0.14
   4   2   3    2.44    0.15
  -5  -2  -3    0.52    0.16
  -5  -2  -3    0.54    0.09
  -5  -2  -3    0.32    0.09
  -5  -2  -3    0.53    0.12
  -5  -2  -3    0.54    0.11
   5   2   3    0.47    0.09
   5   2   3    0.55    0.09
   5   2   3    0.55    0.12
  -6  -2  -3    5.57    0.29
  -6  -2  -3    6.15    0.31
  -6  -2  -3    5.32    0.36
  -6  -2  -3    6.26    0.31
   6   2   3    6.40    0.25
  -7  -2  -3    3.59    0.37
  -7  -2  -3    4.20    0.30
  -7  -2  -3    3.24    0.26
  -8  -2  -3    0.13    0.17
  -8  -2  -3    0.30    0.15
  -9  -2  -3    1.68    0.27
  -9  -2  -3    1.53    0.30
 -10  -2  -3    0.01    0.20
 -10  -2  -3   -0.11    0.17
  -8   3   3   -0.07    0.15
  -8   3   3    0.22    0.20
   7  -3  -3    0.02    0.13
  -7   3   3    0.05    0.15
  -7   3   3    0.29    0.17
   6  -3  -3    0.46    0.15
   6  -3  -3    0.91    0.19
  -6   3   3    0.32    0.14
  -6   3   3    0.66    0.17
   5  -3  -3    7.11    0.37
   5  -3  -3    7.25    0.39
  -5   3   3    7.02    0.41
  -5   3   3    7.24    0.41
  -5   3   3    7.00    0.35
   4  -3  -3    0.78    0.15
   4  -3  -3    0.82    0.15
   4  -3  -3    0.65    0.14
  -4   3   3    0.68    0.13
  -4   3   3    0.83    0.16
  -4   3   3    0.55    0.13
   3  -3  -3    1.80    0.18
   3  -3  -3    1.92    0.18
  -3   3   3    1.79    0.20
  -3   3   3    2.09    0.24
  -3   3   3    1.69    0.17
  -3   3   3    2.04    0.22
   2  -3  -3    0.08    0.07
   2  -3  -3    0.18    0.07
   2  -3  -3    0.21    0.08
   2  -3  -3    0.23    0.08
  -2   3   3    0.09    0.08
  -2   3   3    0.18    0.07
  -2   3   3    0.15    0.08
  -2   3   3    0.13    0.06
   1  -3  -3    0.74    0.11
   1  -3  -3    0.65    0.10
   1  -3  -3    0.88    0.12
  -1   3   3    0.71    0.12
  -1   3   3    0.59    0.10
  -1   3   3    0.85    0.12
   0  -3  -3    5.50    0.22
   0  -3  -3    5.64    0.24
   0  -3  -3    5.51    0.23
   0   3   3    5.20    0.22
   0   3   3    5.44    0.22
   0   3   3    5.57    0.23
  -1  -3  -3   27.11    0.57
  -1  -3  -3   27.30    0.58
  -1  -3  -3   27.78    0.55
   1   3   3   26.77    0.56
   1   3   3   28.11    0.57
   1   3   3   27.72    0.56
   1   3   3   27.38    0.56
  -2  -3  -3   46.40    0.83
  -2  -3  -3   47.14    0.81
  -2  -3  -3   46.50    0.84
  -2  -3  -3   46.99    0.81
  -2  -3  -3   46.74    0.84
   2   3   3   46.28    0.81
   2   3   3   46.84    0.81
   2   3   3   45.15    0.81
   2   3   3   45.92    0.81
  -3  -3  -3    0.45    0.10
  -3  -3  -3    0.36    0.07
  -3  -3  -3    0.27    0.07
  -3  -3  -3    0.37    0.08
  -3  -3  -3    0.45    0.06
  -3  -3  -3    0.44    0.08
   3   3   3    0.40    0.07
   3   3   3    0.39    0.06
   3   3   3    0.28    0.06
   3   3   3    0.26    0.06
  -4  -3  -3    8.32    0.27
  -4  -3  -3    8.58    0.29
  -4  -3  -3    7.99    0.27
  -4  -3  -3    8.11    0.27
  -4  -3  -3    8.73    0.36
   4   3   3    7.96    0.21
   4   3   3    8.25    0.23
  -5  -3  -3    0.22    0.12
  -5  -3  -3    0.15    0.08
  -5  -3  -3    0.29    0.07
  -5  -3  -3    0.26    0.08
  -5  -3  -3    0.18    0.08
  -5  -3  -3    0.23    0.08
  -6  -3  -3    0.06    0.08
  -6  -3  -3    0.18    0.10
  -6  -3  -3    0.09    0.08
  -6  -3  -3    0.03    0.13
  -6  -3  -3    0.17    0.09
  -7  -3  -3    0.18    0.11
  -7  -3  -3   -0.04    0.15
  -7  -3  -3    0.06    0.09
  -7  -3  -3    0.11    0.11
  -7  -3  -3   -0.01    0.09
  -8  -3  -3   -0.14    0.13
  -8  -3  -3   -0.04    0.11
  -9  -3  -3    0.76    0.19
  -9  -3  -3    0.59    0.22
 -10  -3  -3    0.27    0.22
 -10  -3  -3   -0.05    0.17
  -8   4   3   -0.01    0.14
  -8   4   3    0.01    0.17
   7  -4  -3    0.10    0.15
  -7   4   3    0.13    0.14
  -7   4   3    0.19    0.17
   6  -4  -3    0.29    0.17
  -6   4   3    0.09    0.14
  -6   4   3    0.23    0.14
   5  -4  -3    0.28    0.13
   5  -4  -3    0.67    0.18
  -5   4   3    0.48    0.16
  -5   4   3    0.68    0.18
  -5   4   3    0.58    0.17
   4  -4  -3    2.35    0.26
   4  -4  -3    3.08    0.25
  -4   4   3    3.13    0.31
  -4   4   3    2.89    0.30
  -4   4   3    2.85    0.28
   3  -4  -3    2.04    0.21
   3  -4  -3    2.54    0.24
   3  -4  -3    2.68    0.21
  -3   4   3    2.87    0.24
  -3   4   3    2.18    0.22
  -3   4   3    2.47    0.27
   2  -4  -3    0.54    0.12
   2  -4  -3    0.66    0.14
   2  -4  -3    0.22    0.09
   2  -4  -3    0.45    0.11
  -2   4   3    0.45    0.11
  -2   4   3    0.35    0.11
  -2   4   3    0.51    0.13
   1  -4  -3   11.90    0.41
   1  -4  -3   12.82    0.40
   1  -4  -3   12.41    0.41
  -1   4   3   12.13    0.41
  -1   4   3   12.67    0.40
  -1   4   3   12.49    0.41
  -1   4   3   12.82    0.40
   0  -4  -3    1.10    0.13
   0  -4  -3    1.33    0.16
   0  -4  -3    1.39    0.15
   0   4   3    1.10    0.13
   0   4   3    0.85    0.11
   0   4   3    1.37    0.16
   0   4   3    1.19    0.14
  -1  -4  -3  179.24    2.70
  -1  -4  -3  171.26    2.68
  -1  -4  -3  176.00    2.65
   1   4   3  172.02    2.66
   1   4   3  172.61    2.66
   1   4   3  173.80    2.66
   1   4   3  175.56    2.67
   1   4   3  178.26    2.67
  -2  -4  -3    0.04    0.04
  -2  -4  -3    0.04    0.06
  -2  -4  -3    0.17    0.07
   2   4   3    0.21    0.07
   2   4   3    0.02    0.05
   2   4   3    0.02    0.05
   2   4   3    0.02    0.04
   2   4   3    0.10    0.06
   2   4   3    0.06    0.05
  -3  -4  -3    5.30    0.24
  -3  -4  -3    5.10    0.21
  -3  -4  -3    5.42    0.21
  -3  -4  -3    5.16    0.21
   3   4   3    5.22    0.17
   3   4   3    5.19    0.23
   3   4   3    5.01    0.20
   3   4   3    5.25    0.18
   3   4   3    4.85    0.16
  -4  -4  -3    4.31    0.19
  -4  -4  -3    4.34    0.23
  -4  -4  -3    4.11    0.19
  -4  -4  -3    4.10    0.18
  -5  -4  -3   36.94    0.72
  -5  -4  -3   37.92    0.91
  -5  -4  -3   38.01    0.74
  -5  -4  -3   38.36    0.84
  -5  -4  -3   37.40    0.74
  -6  -4  -3    2.15    0.18
  -6  -4  -3    2.54    0.28
  -6  -4  -3    2.23    0.18
  -6  -4  -3    1.97    0.17
  -6  -4  -3    2.06    0.20
  -7  -4  -3    2.59    0.22
  -7  -4  -3    2.19    0.30
  -7  -4  -3    2.33    0.20
  -7  -4  -3    2.24    0.25
  -7  -4  -3    2.74    0.22
  -8  -4  -3    0.11    0.12
  -8  -4  -3    0.00    0.15
  -9  -4  -3    0.41    0.20
  -9  -4  -3    0.11    0.14
 -10  -4  -3   -0.04    0.19
 -10  -4  -3   -0.14    0.15
   7  -5  -3    0.48    0.26
  -7   5   3    0.58    0.24
  -7   5   3    0.30    0.19
   6  -5  -3    1.00    0.23
  -6   5   3    0.80    0.24
  -6   5   3    1.23    0.25
   5  -5  -3    5.82    0.41
  -5   5   3    4.71    0.39
  -5   5   3    5.57    0.42
   4  -5  -3    1.16    0.19
   4  -5  -3    0.99    0.20
  -4   5   3    0.78    0.20
  -4   5   3    1.30    0.21
  -4   5   3    0.97    0.18
   3  -5  -3    0.21    0.12
   3  -5  -3    0.19    0.11
  -3   5   3    0.21    0.12
  -3   5   3    0.05    0.09
  -3   5   3    0.00    0.07
   2  -5  -3    3.90    0.25
  -2   5   3    3.70    0.27
  -2   5   3    3.94    0.26
  -2   5   3    4.09    0.28
   1  -5  -3   15.61    0.47
   1  -5  -3   16.25    0.51
   1  -5  -3   15.74    0.51
  -1   5   3   15.89    0.49
  -1   5   3   15.25    0.50
  -1   5   3   15.58    0.50
   0  -5  -3   25.69    0.65
   0  -5  -3   25.12    0.64
   0  -5  -3   25.73    0.61
   0   5   3   26.12    0.63
   0   5   3   25.52    0.63
   0   5   3   25.76    0.63
  -1  -5  -3   19.32    0.47
  -1  -5  -3   20.25    0.52
  -1  -5  -3   20.02    0.52
   1   5   3   19.43    0.49
   1   5   3   20.22    0.50
   1   5   3   19.62    0.49
   1   5   3   18.80    0.49
   1   5   3   20.35    0.51
   1   5   3   19.42    0.53
  -2  -5  -3   56.18    1.02
  -2  -5  -3   54.33    1.02
   2   5   3   56.07    0.97
   2   5   3   54.95    0.97
   2   5   3   54.49    0.97
   2   5   3   55.41    1.01
   2   5   3   55.26    0.98
   2   5   3   55.34    0.96
   2   5   3   56.94    1.07
  -3  -5  -3    0.35    0.09
  -3  -5  -3    0.56    0.11
  -3  -5  -3    0.45    0.08
  -3  -5  -3    0.32    0.08
   3   5   3    0.34    0.05
   3   5   3    0.55    0.10
   3   5   3    0.29    0.05
   3   5   3    0.40    0.07
   3   5   3    0.34    0.08
  -4  -5  -3    0.44    0.10
  -4  -5  -3    0.70    0.09
  -4  -5  -3    0.53    0.09
  -4  -5  -3    0.36    0.07
   4   5   3    0.69    0.12
  -5  -5  -3    0.88    0.11
  -5  -5  -3    0.87    0.11
  -5  -5  -3    0.86    0.10
  -5  -5  -3    0.98    0.15
  -6  -5  -3   14.00    0.39
  -6  -5  -3   14.13    0.56
  -6  -5  -3   13.33    0.50
  -6  -5  -3   13.25    0.37
  -6  -5  -3   13.31    0.38
  -7  -5  -3    1.35    0.16
  -7  -5  -3    1.18    0.21
  -7  -5  -3    1.36    0.15
  -7  -5  -3    1.45    0.16
  -7  -5  -3    1.27    0.24
  -8  -5  -3    3.00    0.24
  -8  -5  -3    3.52    0.25
  -8  -5  -3    2.78    0.33
  -9  -5  -3    1.24    0.20
  -9  -5  -3    1.38    0.28
 -10  -5  -3    0.20    0.16
 -10  -5  -3    0.17    0.18
   6  -6  -3    0.39    0.19
  -6   6   3    0.36    0.21
  -6   6   3    0.26    0.17
   5  -6  -3    0.15    0.15
  -5   6   3    0.04    0.13
  -5   6   3    0.02    0.13
   4  -6  -3   22.95    0.79
  -4   6   3   23.38    0.81
  -4   6   3   23.19    0.79
  -4   6   3   22.46    0.77
   3  -6  -3   -0.06    0.10
   3  -6  -3    0.10    0.13
  -3   6   3   -0.12    0.08
  -3   6   3    0.05    0.09
  -3   6   3    0.06    0.10
   2  -6  -3    1.19    0.17
   2  -6  -3    1.03    0.17
  -2   6   3    1.27    0.20
  -2   6   3    1.22    0.17
  -2   6   3    1.04    0.21
   1  -6  -3    0.07    0.08
   1  -6  -3   -0.05    0.08
   1  -6  -3    0.15    0.09
  -1   6   3    0.06    0.09
  -1   6   3    0.13    0.10
  -1   6   3    0.02    0.08
   0  -6  -3    1.47    0.20
   0  -6  -3    0.99    0.14
   0   6   3    0.69    0.13
   0   6   3    0.82    0.15
   0   6   3    0.56    0.12
  -1  -6  -3   -0.04    0.07
  -1  -6  -3    0.14    0.07
   1   6   3    0.03    0.06
   1   6   3   -0.05    0.05
   1   6   3    0.01    0.05
   1   6   3   -0.03    0.08
  -2  -6  -3   40.84    0.86
  -2  -6  -3   41.46    0.86
   2   6   3   40.59    0.81
   2   6   3   40.96    0.84
   2   6   3   40.94    0.79
   2   6   3   40.52    0.79
   2   6   3   41.44    0.92
  -3  -6  -3    0.99    0.13
  -3  -6  -3    0.87    0.13
   3   6   3    1.23    0.17
   3   6   3    1.03    0.11
   3   6   3    1.00    0.13
  -4  -6  -3    0.59    0.11
  -4  -6  -3    0.35    0.12
  -4  -6  -3    0.66    0.10
   4   6   3    0.54    0.12
   4   6   3    0.59    0.10
  -5  -6  -3    3.59    0.18
  -5  -6  -3    3.66    0.20
  -5  -6  -3    3.38    0.18
  -5  -6  -3    3.80    0.28
   5   6   3    3.66    0.27
  -6  -6  -3    0.06    0.07
  -6  -6  -3    0.01    0.10
  -6  -6  -3    0.26    0.15
  -7  -6  -3    1.18    0.14
  -7  -6  -3    1.47    0.25
  -7  -6  -3    1.27    0.15
  -8  -6  -3    1.20    0.16
  -8  -6  -3    0.99    0.23
  -9  -6  -3    0.76    0.23
  -9  -6  -3    1.10    0.18
 -10  -6  -3    0.47    0.22
 -10  -6  -3    0.43    0.15
   6  -7  -3    0.36    0.22
  -6   7   3   -0.12    0.15
   5  -7  -3    0.27    0.18
  -5   7   3    0.28    0.19
  -5   7   3    0.06    0.16
   4  -7  -3   10.93    0.58
  -4   7   3   11.00    0.57
  -4   7   3    8.17    0.52
   3  -7  -3    2.78    0.31
  -3   7   3    2.18    0.31
  -3   7   3    2.79    0.30
  -3   7   3    2.86    0.33
   2  -7  -3    1.16    0.23
  -2   7   3    1.29    0.21
  -2   7   3    1.26    0.20
  -2   7   3    0.95    0.20
   1  -7  -3   -0.09    0.09
  -1   7   3    0.00    0.08
  -1   7   3   -0.03    0.07
  -1   7   3    0.06    0.09
   0  -7  -3    3.29    0.27
   0  -7  -3    3.14    0.26
   0   7   3    2.58    0.22
   0   7   3    3.01    0.24
   0   7   3    3.27    0.25
  -1  -7  -3    0.00    0.08
  -1  -7  -3    0.13    0.10
   1   7   3    0.01    0.07
   1   7   3    0.09    0.11
   1   7   3    0.08    0.08
   1   7   3    0.13    0.08
  -2  -7  -3    2.07    0.22
  -2  -7  -3    1.63    0.19
   2   7   3    1.87    0.17
   2   7   3    1.55    0.18
   2   7   3    1.78    0.21
   2   7   3    1.64    0.18
   2   7   3    1.74    0.16
  -3  -7  -3   27.54    0.67
  -3  -7  -3   26.78    0.66
   3   7   3   28.03    0.66
   3   7   3   27.94    0.76
  -4  -7  -3    0.39    0.10
  -4  -7  -3    0.25    0.12
  -4  -7  -3    0.29    0.09
   4   7   3    0.17    0.10
   4   7   3    0.24    0.09
  -5  -7  -3    4.95    0.24
  -5  -7  -3    5.19    0.35
   5   7   3    4.96    0.22
   5   7   3    5.00    0.33
  -7  -7  -3    0.08    0.07
  -7  -7  -3   -0.02    0.13
  -8  -7  -3    0.43    0.11
  -8  -7  -3    0.61    0.22
  -9  -7  -3   -0.05    0.15
 -10  -7  -3    0.35    0.21
 -10  -7  -3   -0.04    0.12
   5  -8  -3   -0.09    0.17
  -5   8   3   -0.13    0.15
   4  -8  -3   -0.03    0.17
  -4   8   3    0.06    0.14
   3  -8  -3    3.47    0.37
  -3   8   3    2.99    0.43
  -3   8   3    3.36    0.37
  -3   8   3    2.91    0.35
   2  -8  -3    0.27    0.17
  -2   8   3   -0.02    0.09
  -2   8   3    0.05    0.12
  -2   8   3    0.02    0.11
   1  -8  -3    0.08    0.14
  -1   8   3    0.06    0.10
  -1   8   3    0.03    0.10
  -1   8   3    0.19    0.12
   0  -8  -3    0.57    0.16
   0  -8  -3    0.32    0.14
   0   8   3    0.48    0.14
   0   8   3    0.77    0.19
   0   8   3    0.12    0.09
   0   8   3    0.39    0.13
  -1  -8  -3   -0.01    0.11
  -1  -8  -3    0.07    0.11
   1   8   3   -0.08    0.11
   1   8   3   -0.03    0.04
   1   8   3    0.04    0.09
  -2  -8  -3    0.54    0.14
  -2  -8  -3    0.53    0.15
   2   8   3    0.37    0.15
   2   8   3    0.63    0.11
   2   8   3    0.33    0.12
   2   8   3    0.21    0.10
  -3  -8  -3    8.06    0.37
  -3  -8  -3    7.93    0.39
   3   8   3    7.57    0.36
   3   8   3    8.90    0.45
  -4  -8  -3    0.69    0.15
  -4  -8  -3    1.24    0.17
   4   8   3    0.86    0.18
   4   8   3    1.11    0.15
  -5  -8  -3    9.48    0.35
  -5  -8  -3   10.57    0.37
   5   8   3    9.82    0.34
   5   8   3   11.04    0.51
   6   8   3    1.31    0.22
  -8  -8  -3    0.31    0.18
  -9  -8  -3    0.58    0.23
   4  -9  -3   -0.01    0.19
   3  -9  -3    0.44    0.23
  -3   9   3    1.02    0.33
   2  -9  -3    0.37    0.21
  -2   9   3    0.12    0.13
  -2   9   3   -0.06    0.12
   1  -9  -3   -0.12    0.11
  -1   9   3   -0.15    0.08
  -1   9   3    0.07    0.11
   0  -9  -3    0.76    0.19
   0   9   3    0.81    0.17
   0   9   3    0.82    0.22
   0   9   3    0.86    0.19
  -1  -9  -3    0.07    0.11
   1   9   3   -0.01    0.11
   1   9   3   -0.09    0.09
   1   9   3   -0.06    0.07
  -2  -9  -3    2.44    0.31
  -2  -9  -3    2.39    0.29
   2   9   3    2.36    0.22
   2   9   3    2.45    0.29
   2   9   3    1.80    0.23
   2   9   3    2.37    0.20
  -3  -9  -3    2.86    0.28
  -3  -9  -3    2.31    0.26
   3   9   3    2.90    0.32
   3   9   3    3.30    0.27
  -4  -9  -3    0.27    0.12
  -4  -9  -3   -0.01    0.10
   4   9   3    0.11    0.12
   4   9   3    0.15    0.11
  -5  -9  -3    1.55    0.18
  -5  -9  -3    1.39    0.19
   5   9   3    1.70    0.18
   5   9   3    1.73    0.26
  -6  -9  -3    0.06    0.09
   6   9   3    0.32    0.16
   6   9   3    0.13    0.08
  -8  -9  -3    0.89    0.24
  -9  -9  -3   -0.06    0.16
   3 -10  -3    1.09    0.33
   2 -10  -3   -0.10    0.16
   1 -10  -3    0.15    0.19
  -1  10   3    0.04    0.16
  -1  10   3    0.15    0.15
   0 -10  -3    0.14    0.15
   0  10   3    0.07    0.13
   0  10   3    0.06    0.15
  -1 -10  -3    0.11    0.14
   1  10   3    0.03    0.12
   1  10   3    0.07    0.14
  -2 -10  -3   -0.03    0.11
   2  10   3    0.01    0.12
   2  10   3    0.13    0.12
  -3 -10  -3    0.45    0.18
   3  10   3   -0.04    0.13
   3  10   3    0.38    0.15
  -4 -10  -3   11.85    0.50
   4  10   3   11.55    0.47
   4  10   3   11.72    0.59
  -5 -10  -3    0.10    0.11
   5  10   3   -0.04    0.12
   5  10   3    0.17    0.11
  -6 -10  -3    0.20    0.12
   6  10   3    0.30    0.11
   6  10   3    0.63    0.18
   1 -11  -3   -0.11    0.19
  -1  11   3   -0.05    0.14
   0 -11  -3    0.43    0.24
   0  11   3    0.63    0.24
   0  11   3    0.58    0.21
  -1 -11  -3    0.10    0.17
   1  11   3   -0.03    0.14
   1  11   3    0.18    0.16
  -2 -11  -3    0.24    0.17
   2  11   3   -0.06    0.12
   2  11   3    0.10    0.15
  -3 -11  -3    0.12    0.14
   3  11   3    0.11    0.12
   3  11   3    0.03    0.15
  -4 -11  -3    1.80    0.27
   4  11   3    2.01    0.32
   4  11   3    2.34    0.28
  -5 -11  -3    1.78    0.25
   5  11   3    1.98    0.23
   5  11   3    1.57    0.28
  -6 -11  -3    0.17    0.12
   6  11   3    0.42    0.19
   6  11   3   -0.05    0.09
   7  11   3    0.02    0.09
  -2 -12  -3   -0.06    0.15
   2  12   3   -0.03    0.14
  -3 -12  -3    0.15    0.16
   3  12   3    0.15    0.14
  -4 -12  -3    0.27    0.17
   4  12   3    0.14    0.15
  -5 -12  -3    0.04    0.14
   5  12   3   -0.11    0.12
  -5  -9   4    2.68    0.31
   4   9  -4   -0.09    0.11
  -4  -9   4    0.08    0.14
   3   9  -4   -0.02    0.16
   3   9  -4   -0.01    0.11
  -3  -9   4   -0.01    0.14
   2   9  -4   -0.04    0.14
   2   9  -4   -0.03    0.11
  -2  -9   4   -0.01    0.13
   1   9  -4    0.32    0.18
   1   9  -4    0.12    0.15
  -1  -9   4    0.21    0.18
   0   9  -4    0.43    0.19
   0   9  -4    0.18    0.17
   0  -9   4    0.13    0.19
  -1   9  -4    0.18    0.17
  -1   9  -4    0.02    0.16
   1  -9   4    0.19    0.22
  -6  -8   4    0.22    0.11
  -5  -8   4    0.13    0.11
  -4  -8   4    0.58    0.16
   3   8  -4   -0.14    0.12
  -3  -8   4    0.04    0.12
   2   8  -4    0.22    0.14
   2   8  -4    0.33    0.16
  -2  -8   4    0.17    0.14
   1   8  -4   -0.05    0.11
   1   8  -4   -0.03    0.11
  -1  -8   4   -0.03    0.12
   0   8  -4    0.92    0.22
   0   8  -4    0.92    0.21
   0  -8   4    0.87    0.22
  -1   8  -4    0.00    0.13
  -1   8  -4    0.04    0.13
   1  -8   4   -0.13    0.15
  -2   8  -4    0.01    0.14
  -2   8  -4    0.00    0.14
   2  -8   4   -0.10    0.18
  -3   8  -4    0.02    0.15
   3  -8   4    0.13    0.20
  -6  -7   4    0.26    0.11
  -5  -7   4    0.21    0.11
  -4  -7   4    0.34    0.13
   3   7  -4    0.90    0.19
  -3  -7   4    0.65    0.16
   2   7  -4    1.80    0.26
  -2  -7   4    2.16    0.27
   1   7  -4    0.38    0.14
  -1  -7   4    0.19    0.14
   0   7  -4    0.52    0.15
   0   7  -4    0.30    0.14
   0  -7   4    0.67    0.19
  -1   7  -4    0.21    0.12
  -1   7  -4   -0.03    0.10
   1  -7   4    0.15    0.16
  -2   7  -4    6.82    0.44
  -2   7  -4    6.78    0.44
   2  -7   4    7.93    0.54
  -3   7  -4    0.03    0.13
   3  -7   4   -0.13    0.20
  -4   7  -4    0.07    0.15
   4  -7   4    0.30    0.23
  -8  -6   4    1.18    0.16
   7   6  -4   -0.05    0.07
  -6  -6   4    0.28    0.10
  -5  -6   4   -0.05    0.07
  -4  -6   4    0.98    0.16
  -4  -6   4    0.79    0.14
  -3  -6   4    0.07    0.08
  -3  -6   4    0.14    0.10
   2   6  -4    0.55    0.15
  -2  -6   4    0.26    0.12
  -2  -6   4    0.43    0.12
  -2  -6   4    0.51    0.15
   1   6  -4    0.14    0.08
   1   6  -4    0.11    0.10
  -1  -6   4    0.24    0.13
  -1  -6   4    0.24    0.12
  -1  -6   4    0.14    0.12
   0   6  -4    0.52    0.12
   0   6  -4    0.73    0.16
   0  -6   4    0.57    0.13
   0  -6   4    0.41    0.15
  -1   6  -4   -0.07    0.08
  -1   6  -4    0.20    0.11
  -1   6  -4   -0.01    0.09
   1  -6   4    0.18    0.10
   1  -6   4    0.20    0.15
  -2   6  -4   14.49    0.60
  -2   6  -4   15.14    0.61
  -2   6  -4   14.90    0.58
   2  -6   4   14.46    0.64
  -3   6  -4    0.14    0.13
  -3   6  -4    0.17    0.12
  -3   6  -4    0.19    0.14
   3  -6   4    0.20    0.17
  -4   6  -4    0.04    0.12
  -4   6  -4    0.09    0.14
   4  -6   4    0.08    0.17
  -5   6  -4   -0.02    0.17
   5  -6   4    0.23    0.19
   8   5  -4    0.43    0.12
  -8  -5   4    0.30    0.10
  -8  -5   4    0.46    0.13
   7   5  -4   -0.01    0.09
  -7  -5   4   -0.01    0.07
  -7  -5   4    0.09    0.09
   6   5  -4   -0.05    0.07
  -6  -5   4   -0.03    0.07
  -5  -5   4    3.38    0.22
  -5  -5   4    3.73    0.22
  -4  -5   4   14.48    0.44
  -4  -5   4   14.79    0.45
  -4  -5   4   13.92    0.45
  -4  -5   4   15.54    0.47
  -3  -5   4   -0.04    0.08
  -3  -5   4   -0.20    0.07
  -3  -5   4   -0.06    0.09
  -3  -5   4   -0.06    0.11
  -3  -5   4   -0.08    0.06
   2   5  -4    0.09    0.09
  -2  -5   4    0.18    0.11
  -2  -5   4    0.15    0.10
  -2  -5   4    0.20    0.12
  -2  -5   4    0.21    0.09
  -2  -5   4    0.24    0.11
   1   5  -4   10.17    0.42
   1   5  -4    9.84    0.35
  -1  -5   4   10.24    0.42
  -1  -5   4    9.05    0.39
  -1  -5   4    9.63    0.41
   0   5  -4   -0.01    0.06
   0   5  -4    0.01    0.07
   0  -5   4   -0.02    0.07
   0  -5   4    0.08    0.10
   0  -5   4    0.00    0.10
  -1   5  -4    0.30    0.12
  -1   5  -4    0.22    0.10
   1  -5   4    0.47    0.15
   1  -5   4    0.08    0.09
  -2   5  -4    0.33    0.13
  -2   5  -4    0.26    0.10
  -2   5  -4    0.36    0.12
   2  -5   4    0.41    0.15
   2  -5   4    0.26    0.11
  -3   5  -4   24.74    0.80
  -3   5  -4   23.29    0.77
  -3   5  -4   24.70    0.73
   3  -5   4   24.69    0.83
  -4   5  -4    0.62    0.18
  -4   5  -4    0.55    0.16
  -4   5  -4    0.84    0.23
   4  -5   4    0.84    0.24
  -5   5  -4    0.10    0.17
  -5   5  -4    0.05    0.14
   5  -5   4    0.14    0.18
  -6   5  -4    0.20    0.18
  -6   5  -4    0.24    0.19
   6  -5   4    0.11    0.22
   8   4  -4   -0.02    0.08
  -8  -4   4   -0.07    0.08
  -8  -4   4    0.00    0.08
   7   4  -4    2.27    0.21
  -7  -4   4    1.85    0.20
  -7  -4   4    2.18    0.22
   6   4  -4    0.17    0.09
  -6  -4   4    0.18    0.10
  -5  -4   4   10.43    0.36
  -5  -4   4    9.36    0.35
  -5  -4   4   10.23    0.35
  -4  -4   4    2.37    0.29
  -4  -4   4    2.34    0.17
  -4  -4   4    2.62    0.20
  -4  -4   4    2.64    0.20
  -4  -4   4    2.61    0.19
  -3  -4   4    0.80    0.14
  -3  -4   4    0.79    0.13
  -3  -4   4    0.74    0.12
  -3  -4   4    0.75    0.15
  -3  -4   4    0.83    0.13
  -2  -4   4    1.58    0.19
  -2  -4   4    1.08    0.16
  -2  -4   4    1.23    0.16
  -2  -4   4    0.85    0.13
  -2  -4   4    1.26    0.16
   1   4  -4    1.40    0.17
   1   4  -4    1.48    0.15
  -1  -4   4    1.59    0.19
  -1  -4   4    1.02    0.14
  -1  -4   4    1.26    0.18
  -1  -4   4    1.59    0.18
  -1  -4   4    1.11    0.15
   0   4  -4    2.27    0.21
   0   4  -4    2.28    0.19
   0  -4   4    1.97    0.22
   0  -4   4    1.67    0.19
   0  -4   4    2.17    0.27
   0  -4   4    2.70    0.22
  -1   4  -4    2.00    0.20
  -1   4  -4    2.10    0.23
   1  -4   4    2.30    0.26
   1  -4   4    1.82    0.21
  -2   4  -4    4.17    0.26
  -2   4  -4    3.95    0.29
  -2   4  -4    4.30    0.33
   2  -4   4    3.51    0.28
   2  -4   4    3.70    0.30
  -3   4  -4    4.57    0.28
  -3   4  -4    4.12    0.42
  -3   4  -4    4.42    0.31
  -3   4  -4    3.82    0.32
   3  -4   4    4.70    0.36
  -4   4  -4    0.11    0.13
  -4   4  -4    0.12    0.14
  -4   4  -4    0.07    0.11
   4  -4   4    0.05    0.14
  -5   4  -4   -0.08    0.11
  -5   4  -4   -0.01    0.13
   5  -4   4    0.02    0.13
  -6   4  -4    0.11    0.17
  -6   4  -4    0.13    0.18
   6  -4   4    0.11    0.16
  -7   4  -4    0.06    0.18
  -7   4  -4    0.10    0.18
   7  -4   4   -0.30    0.15
   9   3  -4    0.14    0.12
  -9  -3   4    0.19    0.13
  -9  -3   4   -0.02    0.12
   8   3  -4    0.02    0.09
  -8  -3   4    0.08    0.10
   7   3  -4    2.62    0.22
  -7  -3   4    3.00    0.23
  -7  -3   4    2.62    0.21
   6   3  -4    5.13    0.26
  -6  -3   4    4.53    0.25
  -6  -3   4    4.52    0.27
   5   3  -4   16.36    0.45
  -5  -3   4   15.87    0.46
  -5  -3   4   15.38    0.45
  -4  -3   4    0.10    0.07
  -4  -3   4    0.27    0.11
  -4  -3   4    0.20    0.08
  -4  -3   4    0.20    0.08
  -3  -3   4    3.60    0.21
  -3  -3   4    3.56    0.16
  -3  -3   4    4.11    0.21
  -3  -3   4    4.25    0.26
  -3  -3   4    3.66    0.21
  -2  -3   4    1.01    0.14
  -2  -3   4    1.10    0.13
  -2  -3   4    1.37    0.17
  -2  -3   4    1.10    0.14
  -2  -3   4    1.22    0.14
   1   3  -4   -0.02    0.06
   1   3  -4    0.02    0.05
  -1  -3   4    0.06    0.07
  -1  -3   4    0.11    0.08
  -1  -3   4    0.11    0.08
  -1  -3   4    0.04    0.06
  -1  -3   4    0.04    0.05
   0   3  -4    3.78    0.22
   0   3  -4    3.72    0.21
   0  -3   4    3.31    0.23
   0  -3   4    4.07    0.24
   0  -3   4    3.43    0.23
  -1   3  -4    0.03    0.09
  -1   3  -4    0.04    0.05
  -1   3  -4    0.12    0.07
   1  -3   4    0.01    0.07
   1  -3   4    0.00    0.09
   1  -3   4    0.03    0.07
   1  -3   4    0.10    0.08
  -2   3  -4    3.10    0.20
  -2   3  -4    3.18    0.31
  -2   3  -4    3.40    0.25
   2  -3   4    3.22    0.24
   2  -3   4    3.02    0.25
  -3   3  -4    2.49    0.26
  -3   3  -4    2.65    0.31
   3  -3   4    2.38    0.25
   3  -3   4    2.84    0.32
  -4   3  -4    0.26    0.18
  -4   3  -4    0.10    0.11
  -4   3  -4    0.27    0.15
   4  -3   4    0.10    0.14
  -5   3  -4    0.06    0.14
  -5   3  -4    0.12    0.15
  -5   3  -4    0.02    0.10
   5  -3   4    0.02    0.12
  -6   3  -4    1.11    0.27
  -6   3  -4    0.96    0.23
   6  -3   4    1.30    0.24
  -7   3  -4    1.68    0.36
  -7   3  -4    1.68    0.31
   7  -3   4    1.89    0.30
  -8   3  -4    0.93    0.29
  -8   3  -4    0.74    0.27
   9   2  -4   -0.01    0.10
  -9  -2   4   -0.12    0.11
  -9  -2   4    0.13    0.15
   8   2  -4    0.19    0.12
  -8  -2   4    0.16    0.12
   7   2  -4    0.02    0.09
  -7  -2   4   -0.05    0.09
   6   2  -4    8.59    0.34
  -6  -2   4    8.66    0.37
   5   2  -4    3.38    0.21
  -5  -2   4    2.84    0.21
  -5  -2   4    2.66    0.20
  -5  -2   4    2.52    0.21
   4   2  -4   23.55    0.56
  -4  -2   4   23.72    0.58
  -4  -2   4   24.11    0.69
  -4  -2   4   22.95    0.57
   3   2  -4    0.00    0.03
  -3  -2   4   -0.05    0.05
  -3  -2   4    0.06    0.06
  -3  -2   4   -0.01    0.06
   2   2  -4   10.64    0.31
  -2  -2   4   10.41    0.36
  -2  -2   4   10.05    0.33
  -2  -2   4   10.06    0.26
  -2  -2   4   10.43    0.34
  -2  -2   4   10.28    0.34
   1   2  -4    2.74    0.17
   1   2  -4    2.77    0.17
  -1  -2   4    2.91    0.18
  -1  -2   4    2.90    0.16
  -1  -2   4    2.79    0.19
  -1  -2   4    2.69    0.18
  -1  -2   4    2.79    0.19
   0   2  -4   26.94    0.64
   0   2  -4   27.54    0.69
   0   2  -4   28.84    0.63
   0   2  -4   27.20    0.63
   0   2  -4   27.73    0.58
   0  -2   4   27.31    0.65
   0  -2   4   27.55    0.61
   0  -2   4   27.71    0.65
   0  -2   4   27.76    0.66
   0  -2   4   28.77    0.59
  -1   2  -4    3.47    0.23
  -1   2  -4    3.22    0.16
  -1   2  -4    3.43    0.21
  -1   2  -4    3.02    0.22
   1  -2   4    3.14    0.21
   1  -2   4    3.42    0.22
   1  -2   4    3.30    0.22
   1  -2   4    2.94    0.21
  -2   2  -4    6.68    0.32
  -2   2  -4    6.52    0.33
  -2   2  -4    6.70    0.24
   2  -2   4    7.27    0.34
   2  -2   4    6.64    0.32
   2  -2   4    6.44    0.32
  -3   2  -4    4.86    0.33
  -3   2  -4    4.69    0.29
   3  -2   4    4.74    0.28
   3  -2   4    4.79    0.30
  -4   2  -4    6.31    0.41
  -4   2  -4    5.96    0.36
  -4   2  -4    6.68    0.34
   4  -2   4    6.62    0.37
  -5   2  -4    0.49    0.17
  -5   2  -4    0.52    0.19
  -5   2  -4    0.67    0.16
   5  -2   4    0.70    0.19
  -6   2  -4   -0.01    0.16
  -6   2  -4   -0.12    0.11
   6  -2   4   -0.09    0.12
  -7   2  -4    4.42    0.43
  -7   2  -4    4.48    0.49
   7  -2   4    4.81    0.38
  -8   2  -4   -0.09    0.19
  -8   2  -4    0.02    0.18
  -9  -1   4    0.11    0.14
  -9  -1   4    0.20    0.17
   8   1  -4    0.78    0.16
  -8  -1   4    0.97    0.20
  -8  -1   4    1.21    0.23
   7   1  -4    0.33    0.12
  -7  -1   4    0.18    0.12
   6   1  -4    1.07    0.16
  -6  -1   4    0.64    0.15
  -6  -1   4    0.87    0.19
   5   1  -4    0.17    0.09
  -5  -1   4    0.29    0.10
  -5  -1   4    0.22    0.10
   4   1  -4    0.07    0.07
   4   1  -4   -0.01    0.03
  -4  -1   4    0.13    0.08
   3   1  -4   26.45    0.60
   3   1  -4   27.25    0.56
  -3  -1   4   27.46    0.62
  -3  -1   4   26.47    0.61
   2   1  -4   11.62    0.33
  -2  -1   4   12.16    0.37
  -2  -1   4   12.05    0.36
   1   1  -4    9.80    0.25
   1   1  -4    9.73    0.31
   1   1  -4   10.22    0.32
  -1  -1   4    9.94    0.33
  -1  -1   4   10.00    0.33
  -1  -1   4    9.94    0.25
  -1  -1   4    9.77    0.30
  -1  -1   4   10.74    0.34
   0   1  -4    0.68    0.10
   0   1  -4    1.17    0.14
   0   1  -4    1.03    0.12
   0   1  -4    0.64    0.11
   0  -1   4    0.95    0.12
   0  -1   4    0.85    0.12
   0  -1   4    1.16    0.15
   0  -1   4    0.76    0.11
   0  -1   4    0.84    0.09
  -1   1  -4   16.79    0.35
  -1   1  -4   17.26    0.48
  -1   1  -4   16.75    0.47
  -1   1  -4   17.04    0.46
  -1   1  -4   16.87    0.46
   1  -1   4   16.90    0.45
   1  -1   4   16.20    0.47
   1  -1   4   16.61    0.48
   1  -1   4   17.08    0.47
  -2   1  -4    0.30    0.11
  -2   1  -4    0.38    0.11
  -2   1  -4    0.33    0.09
  -2   1  -4    0.30    0.06
  -2   1  -4    0.36    0.11
   2  -1   4    0.15    0.06
   2  -1   4    0.35    0.09
   2  -1   4    0.25    0.09
   2  -1   4    0.19    0.09
  -3   1  -4   11.70    0.44
  -3   1  -4   11.75    0.46
  -3   1  -4   11.51    0.42
   3  -1   4   11.82    0.43
   3  -1   4   12.49    0.43
  -4   1  -4   17.43    0.57
  -4   1  -4   17.46    0.61
   4  -1   4   17.33    0.56
  -5   1  -4    3.20    0.34
  -5   1  -4    2.56    0.27
  -5   1  -4    3.33    0.25
   5  -1   4    2.92    0.27
  -6   1  -4    4.27    0.44
  -6   1  -4    4.45    0.30
  -6   1  -4    5.10    0.38
   6  -1   4    4.79    0.35
  -7   1  -4    0.31    0.18
  -7   1  -4    0.28    0.20
   7  -1   4    0.60    0.17
  -8   1  -4    0.16    0.19
  -8   1  -4    0.32    0.23
  -9   1  -4   -0.07    0.19
  -9   1  -4    0.30    0.22
  -9   0   4    1.11    0.24
  -9   0   4    1.41    0.29
   8   0  -4    0.16    0.16
  -8   0   4    0.09    0.12
  -8   0   4   -0.08    0.12
   7   0  -4    2.09    0.24
  -7   0   4    2.14    0.26
  -7   0   4    1.94    0.26
   6   0  -4    1.06    0.18
  -6   0   4    1.11    0.20
  -6   0   4    1.19    0.20
   5   0  -4    1.78    0.17
   5   0  -4    2.33    0.22
  -5   0   4    1.71    0.21
  -5   0   4    1.84    0.22
   4   0  -4    1.85    0.17
   4   0  -4    1.47    0.16
  -4   0   4    1.49    0.17
  -4   0   4    1.81    0.18
   3   0  -4   21.36    0.53
   3   0  -4   21.18    0.51
  -3   0   4   20.75    0.54
   2   0  -4   17.18    0.45
   2   0  -4   17.67    0.45
  -2   0   4   16.56    0.45
  -2   0   4   17.70    0.47
   1   0  -4   60.19    1.07
   1   0  -4   58.95    1.06
  -1   0   4   60.49    1.09
  -1   0   4   60.29    1.08
  -1   0   4   59.86    1.09
   0   0  -4    6.72    0.26
   0   0  -4    6.42    0.22
   0   0  -4    6.38    0.26
   0   0   4    6.49    0.26
   0   0   4    6.51    0.26
   0   0   4    6.45    0.19
   0   0   4    6.77    0.26
   0   0   4    6.22    0.21
  -1   0  -4   77.50    1.37
  -1   0  -4   80.83    1.38
  -1   0  -4   78.19    1.37
  -1   0  -4   79.44    1.34
   1   0   4   80.12    1.38
   1   0   4   81.95    1.38
   1   0   4   80.07    1.38
   1   0   4   78.74    1.33
  -2   0  -4   11.03    0.36
  -2   0  -4   11.24    0.38
  -2   0  -4   11.02    0.37
   2   0   4   11.55    0.37
   2   0   4   11.32    0.37
   2   0   4   11.01    0.37
   2   0   4   10.86    0.37
  -3   0  -4   10.03    0.40
  -3   0  -4    9.26    0.37
  -3   0  -4    9.71    0.37
  -3   0  -4    9.18    0.35
   3   0   4   10.07    0.38
   3   0   4    9.20    0.34
   3   0   4    9.43    0.36
  -4   0  -4    0.98    0.15
  -4   0  -4    0.92    0.15
  -4   0  -4    1.22    0.17
  -4   0  -4    1.41    0.22
   4   0   4    0.99    0.15
   4   0   4    1.06    0.15
  -5   0  -4    9.27    0.38
  -5   0  -4    9.98    0.48
  -5   0  -4    9.52    0.49
  -5   0  -4    9.28    0.42
   5   0   4    9.61    0.41
  -6   0  -4   10.56    0.42
  -6   0  -4   10.64    0.49
  -6   0  -4   10.78    0.55
   6   0   4   10.93    0.46
  -7   0  -4    1.48    0.25
  -7   0  -4    0.96    0.24
   7   0   4    1.43    0.23
  -8   0  -4    0.45    0.22
  -8   0  -4    0.75    0.22
  -9   0  -4    0.34    0.23
  -9   0  -4    0.58    0.27
  -8   1   4    0.76    0.22
  -8   1   4    0.78    0.21
   7  -1  -4   -0.13    0.10
  -7   1   4    0.09    0.11
  -7   1   4    0.03    0.11
   6  -1  -4    1.17    0.18
   6  -1  -4    0.99    0.19
   6  -1  -4    1.24    0.14
  -6   1   4    1.12    0.19
  -6   1   4    0.97    0.30
  -6   1   4    0.96    0.19
   5  -1  -4    8.52    0.37
   5  -1  -4    8.99    0.36
  -5   1   4    8.38    0.39
  -5   1   4    8.82    0.34
  -5   1   4    8.28    0.38
   4  -1  -4    4.46    0.25
   4  -1  -4    4.65    0.26
  -4   1   4    4.12    0.26
  -4   1   4    4.27    0.26
  -4   1   4    4.28    0.23
   3  -1  -4    2.30    0.18
   3  -1  -4    2.30    0.19
  -3   1   4    2.11    0.18
  -3   1   4    2.29    0.18
   2  -1  -4   68.32    1.22
   2  -1  -4   68.34    1.22
  -2   1   4   68.80    1.24
  -2   1   4   68.24    1.24
  -2   1   4   67.83    1.24
   1  -1  -4   37.24    0.61
   1  -1  -4   36.98    0.74
   1  -1  -4   36.87    0.75
  -1   1   4   36.55    0.76
  -1   1   4   36.95    0.75
   0  -1  -4   27.85    0.61
   0  -1  -4   27.94    0.53
   0   1   4   28.10    0.62
   0   1   4   27.73    0.62
   0   1   4   28.21    0.61
  -1  -1  -4   30.36    0.65
  -1  -1  -4   31.38    0.63
  -1  -1  -4   30.95    0.66
   1   1   4   31.20    0.66
   1   1   4   31.19    0.66
   1   1   4   30.38    0.62
   1   1   4   30.70    0.65
  -2  -1  -4   13.63    0.39
  -2  -1  -4   13.02    0.40
  -2  -1  -4   13.34    0.40
  -2  -1  -4   13.73    0.41
   2   1   4   12.93    0.39
   2   1   4   13.94    0.40
   2   1   4   13.59    0.40
   2   1   4   13.85    0.39
  -3  -1  -4    7.89    0.34
  -3  -1  -4    7.52    0.31
  -3  -1  -4    7.80    0.31
  -3  -1  -4    7.80    0.30
   3   1   4    7.92    0.30
   3   1   4    7.74    0.30
   3   1   4    7.06    0.31
   3   1   4    7.85    0.29
  -4  -1  -4   -0.06    0.06
  -4  -1  -4    0.02    0.07
  -4  -1  -4   -0.01    0.06
  -4  -1  -4    0.01    0.10
   4   1   4   -0.04    0.05
   4   1   4    0.00    0.07
  -5  -1  -4    0.19    0.09
  -5  -1  -4    0.33    0.15
  -5  -1  -4    0.45    0.12
  -5  -1  -4    0.38    0.12
  -5  -1  -4    0.54    0.13
   5   1   4    0.21    0.10
  -6  -1  -4    1.98    0.24
  -6  -1  -4    1.55    0.26
  -6  -1  -4    1.35    0.20
  -6  -1  -4    1.84    0.23
  -6  -1  -4    1.53    0.18
   6   1   4    1.71    0.22
  -7  -1  -4    1.18    0.21
  -7  -1  -4    0.93    0.25
   7   1   4    0.90    0.16
  -8  -1  -4    0.39    0.21
  -8  -1  -4    0.19    0.16
  -9  -1  -4    0.37    0.25
  -9  -1  -4    0.29    0.20
 -10  -1  -4   -0.25    0.19
  -8   2   4    1.52    0.30
  -8   2   4    1.32    0.27
  -7   2   4    0.15    0.14
  -7   2   4   -0.09    0.09
   6  -2  -4    0.06    0.13
   6  -2  -4   -0.04    0.09
   6  -2  -4    0.20    0.12
  -6   2   4    0.12    0.12
  -6   2   4    0.08    0.11
   5  -2  -4    1.22    0.19
   5  -2  -4    0.84    0.14
   5  -2  -4    0.78    0.17
  -5   2   4    0.99    0.22
  -5   2   4    1.17    0.19
  -5   2   4    0.59    0.15
   4  -2  -4    2.48    0.25
   4  -2  -4    2.47    0.23
   4  -2  -4    2.20    0.18
  -4   2   4    2.36    0.26
  -4   2   4    2.51    0.24
  -4   2   4    2.61    0.27
   3  -2  -4    3.19    0.23
   3  -2  -4    3.30    0.22
   3  -2  -4    3.14    0.17
  -3   2   4    3.46    0.23
  -3   2   4    3.08    0.23
  -3   2   4    3.68    0.21
   2  -2  -4   31.64    0.75
   2  -2  -4   37.43    0.78
  -2   2   4   37.40    0.77
  -2   2   4   35.87    0.79
  -2   2   4   37.35    0.80
   1  -2  -4    2.67    0.19
   1  -2  -4    2.58    0.17
  -1   2   4    2.61    0.18
  -1   2   4    2.63    0.19
  -1   2   4    2.67    0.17
  -1   2   4    2.33    0.17
   0  -2  -4   36.68    0.76
   0  -2  -4   37.06    0.74
   0   2   4   37.33    0.75
   0   2   4   35.79    0.75
  -1  -2  -4   35.79    0.70
  -1  -2  -4   34.77    0.72
  -1  -2  -4   34.59    0.70
  -1  -2  -4   34.90    0.71
   1   2   4   34.47    0.71
   1   2   4   34.54    0.71
   1   2   4   34.69    0.71
  -2  -2  -4   19.10    0.49
  -2  -2  -4   19.81    0.51
  -2  -2  -4   19.83    0.49
  -2  -2  -4   20.17    0.50
   2   2   4   20.60    0.49
   2   2   4   19.45    0.35
   2   2   4   19.86    0.48
   2   2   4   19.99    0.48
  -3  -2  -4    4.11    0.14
  -3  -2  -4    4.20    0.22
  -3  -2  -4    4.33    0.26
  -3  -2  -4    4.44    0.22
  -3  -2  -4    3.91    0.21
   3   2   4    4.33    0.21
   3   2   4    4.32    0.21
   3   2   4    4.10    0.20
  -4  -2  -4    0.37    0.09
  -4  -2  -4    0.56    0.14
  -4  -2  -4    0.66    0.08
  -4  -2  -4    0.89    0.13
  -4  -2  -4    0.41    0.10
   4   2   4    0.54    0.13
   4   2   4    0.63    0.10
   4   2   4    0.59    0.11
  -5  -2  -4    0.37    0.11
  -5  -2  -4    0.48    0.12
  -5  -2  -4    0.38    0.11
  -5  -2  -4    0.73    0.17
   5   2   4    0.49    0.11
  -6  -2  -4    3.13    0.20
  -6  -2  -4    3.88    0.27
  -6  -2  -4    3.45    0.27
  -6  -2  -4    2.89    0.30
  -6  -2  -4    2.95    0.24
   6   2   4    2.79    0.22
  -7  -2  -4    0.47    0.15
  -7  -2  -4    0.64    0.17
  -7  -2  -4    0.81    0.23
   7   2   4    0.64    0.13
  -8  -2  -4    1.91    0.27
  -8  -2  -4    1.73    0.30
  -9  -2  -4    0.10    0.18
  -9  -2  -4    0.28    0.19
 -10  -2  -4    0.34    0.24
 -10  -2  -4    0.27    0.25
  -8   3   4    0.09    0.18
  -8   3   4    0.09    0.14
  -7   3   4    0.36    0.17
  -7   3   4    0.43    0.17
   6  -3  -4    1.00    0.19
  -6   3   4    1.39    0.26
  -6   3   4    1.66    0.25
   5  -3  -4    2.55    0.25
   5  -3  -4    2.26    0.25
   5  -3  -4    2.08    0.23
  -5   3   4    2.99    0.32
  -5   3   4    3.43    0.32
  -5   3   4    3.15    0.32
   4  -3  -4    1.00    0.17
   4  -3  -4    0.79    0.17
   4  -3  -4    0.97    0.16
  -4   3   4    0.82    0.18
  -4   3   4    0.70    0.15
  -4   3   4    0.75    0.14
   3  -3  -4    0.53    0.11
   3  -3  -4    0.31    0.10
  -3   3   4    0.48    0.13
  -3   3   4    0.60    0.13
  -3   3   4    0.82    0.18
   2  -3  -4    8.78    0.36
   2  -3  -4    8.65    0.34
  -2   3   4    8.73    0.33
  -2   3   4    8.75    0.36
  -2   3   4    8.59    0.35
   1  -3  -4   22.84    0.58
   1  -3  -4   22.99    0.57
  -1   3   4   22.35    0.59
  -1   3   4   23.27    0.58
  -1   3   4   21.86    0.56
   0  -3  -4   63.04    1.14
   0  -3  -4   61.18    1.10
   0   3   4   58.99    1.10
   0   3   4   60.70    1.12
   0   3   4   61.20    1.12
   0   3   4   62.19    1.14
  -1  -3  -4   30.96    0.67
  -1  -3  -4   31.17    0.65
  -1  -3  -4   31.05    0.68
   1   3   4   31.36    0.67
   1   3   4   32.44    0.67
   1   3   4   31.65    0.67
   1   3   4   31.38    0.66
   1   3   4   30.68    0.66
  -2  -3  -4   21.26    0.52
  -2  -3  -4   20.93    0.51
  -2  -3  -4   21.65    0.53
  -2  -3  -4   21.26    0.49
   2   3   4   21.48    0.44
   2   3   4   21.90    0.50
   2   3   4   20.72    0.50
   2   3   4   21.87    0.50
  -3  -3  -4    6.20    0.21
  -3  -3  -4    5.92    0.25
  -3  -3  -4    5.74    0.29
  -3  -3  -4    6.04    0.25
  -3  -3  -4    5.90    0.26
  -3  -3  -4    5.90    0.23
   3   3   4    5.92    0.24
   3   3   4    5.63    0.23
   3   3   4    6.21    0.21
   3   3   4    6.01    0.23
  -4  -3  -4    0.05    0.06
  -4  -3  -4    0.00    0.07
  -4  -3  -4    0.05    0.10
  -4  -3  -4    0.07    0.05
  -4  -3  -4    0.09    0.08
   4   3   4    0.00    0.06
   4   3   4   -0.04    0.06
   4   3   4   -0.02    0.05
  -5  -3  -4   12.42    0.41
  -5  -3  -4   11.91    0.38
  -5  -3  -4   12.57    0.49
  -5  -3  -4   12.47    0.40
  -5  -3  -4   11.82    0.40
   5   3   4   11.40    0.34
   5   3   4   12.58    0.38
  -6  -3  -4    0.01    0.07
  -6  -3  -4    0.06    0.08
  -6  -3  -4    0.15    0.11
  -6  -3  -4   -0.08    0.12
  -6  -3  -4    0.05    0.09
   6   3   4    0.13    0.08
  -7  -3  -4    0.28    0.12
  -7  -3  -4    0.14    0.16
  -7  -3  -4    0.20    0.12
  -7  -3  -4    0.15    0.12
  -7  -3  -4    0.09    0.10
  -8  -3  -4    3.11    0.39
  -8  -3  -4    3.05    0.30
  -9  -3  -4    0.70    0.21
  -9  -3  -4    0.54    0.23
 -10  -3  -4    0.54    0.23
 -10  -3  -4    0.25    0.20
  -7   4   4   -0.03    0.16
  -7   4   4   -0.05    0.12
   6  -4  -4    1.76    0.25
  -6   4   4    2.40    0.33
  -6   4   4    2.03    0.29
   5  -4  -4   17.70    0.65
  -5   4   4   16.92    0.67
  -5   4   4   18.27    0.69
   4  -4  -4    1.23    0.19
   4  -4  -4    1.83    0.24
   4  -4  -4    1.94    0.25
  -4   4   4    1.49    0.22
  -4   4   4    1.73    0.23
  -4   4   4    1.41    0.22
   3  -4  -4    1.54    0.19
   3  -4  -4    2.10    0.21
   3  -4  -4    2.32    0.24
  -3   4   4    1.64    0.19
  -3   4   4    2.07    0.26
  -3   4   4    2.23    0.25
   2  -4  -4    5.69    0.31
   2  -4  -4    5.42    0.28
  -2   4   4    5.23    0.30
  -2   4   4    5.24    0.30
  -2   4   4    5.21    0.28
   1  -4  -4   23.73    0.63
   1  -4  -4   24.09    0.61
   1  -4  -4   23.26    0.62
  -1   4   4   23.79    0.61
  -1   4   4   23.58    0.63
   0  -4  -4    2.32    0.19
   0  -4  -4    2.15    0.19
   0  -4  -4    2.22    0.18
   0   4   4    2.13    0.19
   0   4   4    1.98    0.20
   0   4   4    2.08    0.17
   0   4   4    2.62    0.24
  -1  -4  -4   24.91    0.57
  -1  -4  -4   24.14    0.59
   1   4   4   24.09    0.58
   1   4   4   25.12    0.58
   1   4   4   24.26    0.58
   1   4   4   24.81    0.59
  -2  -4  -4    5.68    0.22
  -2  -4  -4    5.64    0.25
  -2  -4  -4    5.54    0.24
   2   4   4    5.12    0.23
   2   4   4    5.24    0.23
   2   4   4    5.17    0.23
   2   4   4    5.79    0.23
   2   4   4    5.34    0.23
   2   4   4    5.46    0.23
  -3  -4  -4    2.82    0.18
  -3  -4  -4    2.69    0.17
  -3  -4  -4    2.76    0.18
  -3  -4  -4    2.94    0.19
   3   4   4    2.44    0.16
   3   4   4    2.99    0.17
   3   4   4    2.84    0.16
   3   4   4    2.03    0.14
   3   4   4    2.90    0.16
  -4  -4  -4   -0.06    0.06
  -4  -4  -4   -0.01    0.06
  -4  -4  -4    0.00    0.05
  -4  -4  -4    0.13    0.09
  -4  -4  -4   -0.01    0.06
   4   4   4    0.07    0.06
   4   4   4   -0.03    0.05
   4   4   4   -0.06    0.05
   4   4   4   -0.02    0.04
  -5  -4  -4    9.03    0.33
  -5  -4  -4    9.39    0.44
  -5  -4  -4    9.95    0.35
  -5  -4  -4    9.74    0.34
  -5  -4  -4    9.18    0.35
   5   4   4    9.42    0.26
  -6  -4  -4    0.07    0.09
  -6  -4  -4    0.06    0.08
  -6  -4  -4    0.01    0.07
  -6  -4  -4    0.22    0.15
  -6  -4  -4    0.06    0.08
  -7  -4  -4    0.43    0.13
  -7  -4  -4    0.23    0.17
  -7  -4  -4    0.33    0.13
  -7  -4  -4    0.28    0.12
  -7  -4  -4    0.47    0.13
  -8  -4  -4    1.04    0.19
  -8  -4  -4    0.64    0.22
  -8  -4  -4    0.73    0.17
  -9  -4  -4    0.38    0.22
  -9  -4  -4    0.95    0.21
 -10  -4  -4    0.52    0.25
 -10  -4  -4    0.22    0.18
  -7   5   4    1.03    0.27
  -7   5   4    0.45    0.21
   6  -5  -4    0.69    0.23
  -6   5   4    0.93    0.24
  -6   5   4    0.81    0.23
   5  -5  -4   20.44    0.74
  -5   5   4   20.36    0.76
  -5   5   4   19.96    0.77
   4  -5  -4    1.66    0.25
   4  -5  -4    1.79    0.27
  -4   5   4    1.28    0.23
  -4   5   4    1.54    0.27
  -4   5   4    1.38    0.23
   3  -5  -4    2.04    0.25
   3  -5  -4    1.89    0.22
  -3   5   4    1.83    0.23
  -3   5   4    1.74    0.23
  -3   5   4    1.71    0.22
   2  -5  -4    1.23    0.18
   2  -5  -4    1.48    0.19
  -2   5   4    1.46    0.19
  -2   5   4    1.69    0.23
  -2   5   4    1.39    0.20
   1  -5  -4   34.70    0.81
   1  -5  -4   34.73    0.84
   1  -5  -4   34.71    0.84
  -1   5   4   34.61    0.85
  -1   5   4   36.62    0.85
  -1   5   4   33.60    0.81
   0  -5  -4    0.34    0.10
   0  -5  -4    0.35    0.11
   0  -5  -4    0.42    0.09
   0   5   4    0.47    0.12
   0   5   4    0.40    0.10
   0   5   4    0.36    0.10
  -1  -5  -4    0.95    0.13
  -1  -5  -4    1.09    0.14
  -1  -5  -4    0.81    0.13
   1   5   4    1.01    0.13
   1   5   4    0.92    0.13
   1   5   4    1.15    0.15
   1   5   4    0.73    0.12
  -2  -5  -4   35.88    0.79
   2   5   4   36.09    0.74
   2   5   4   36.90    0.75
   2   5   4   36.72    0.77
   2   5   4   36.51    0.76
   2   5   4   38.32    0.82
   2   5   4   37.15    0.78
  -3  -5  -4   19.43    0.49
  -3  -5  -4   19.67    0.51
   3   5   4   19.53    0.47
   3   5   4   19.01    0.51
   3   5   4   19.36    0.45
   3   5   4   19.15    0.45
   3   5   4   19.05    0.44
   3   5   4   18.49    0.48
  -4  -5  -4   -0.04    0.07
  -4  -5  -4    0.04    0.06
  -4  -5  -4   -0.05    0.06
  -4  -5  -4    0.07    0.06
   4   5   4   -0.03    0.04
   4   5   4   -0.07    0.04
   4   5   4   -0.01    0.06
   4   5   4    0.01    0.04
  -5  -5  -4    0.49    0.11
  -5  -5  -4    0.40    0.10
  -5  -5  -4    0.47    0.10
  -5  -5  -4    0.48    0.16
  -5  -5  -4    0.50    0.12
  -6  -5  -4    0.14    0.09
  -6  -5  -4    0.19    0.10
  -6  -5  -4    0.16    0.10
  -6  -5  -4    0.13    0.15
  -6  -5  -4    0.15    0.09
  -7  -5  -4    0.47    0.17
  -7  -5  -4    0.56    0.13
  -7  -5  -4    0.70    0.14
  -7  -5  -4    0.35    0.12
  -7  -5  -4    0.14    0.12
  -8  -5  -4    1.83    0.22
  -8  -5  -4    2.17    0.24
  -8  -5  -4    2.22    0.33
  -9  -5  -4    0.86    0.19
  -9  -5  -4    0.76    0.23
 -10  -5  -4   -0.03    0.18
 -10  -5  -4   -0.13    0.15
   6  -6  -4   -0.01    0.18
  -6   6   4   -0.08    0.15
  -6   6   4    0.00    0.16
   5  -6  -4    3.52    0.42
  -5   6   4    2.56    0.35
  -5   6   4    2.85    0.37
   4  -6  -4   15.57    0.65
  -4   6   4   15.66    0.66
  -4   6   4   15.01    0.66
   3  -6  -4    0.13    0.12
   3  -6  -4    0.05    0.11
  -3   6   4    0.00    0.10
  -3   6   4    0.06    0.10
  -3   6   4    0.05    0.12
   2  -6  -4    2.45    0.26
   2  -6  -4    3.02    0.29
  -2   6   4    2.73    0.28
  -2   6   4    3.21    0.33
  -2   6   4    2.44    0.29
   1  -6  -4   -0.05    0.07
   1  -6  -4    0.01    0.15
   1  -6  -4   -0.18    0.09
  -1   6   4    0.03    0.08
  -1   6   4    0.03    0.07
  -1   6   4    0.09    0.10
   0  -6  -4   15.63    0.60
   0  -6  -4   15.77    0.54
   0  -6  -4   15.73    0.52
   0   6   4   15.89    0.52
   0   6   4   15.61    0.51
   0   6   4   16.47    0.52
  -1  -6  -4    0.30    0.09
  -1  -6  -4    0.24    0.09
   1   6   4    0.14    0.08
   1   6   4    0.41    0.11
   1   6   4    0.28    0.09
   1   6   4    0.22    0.09
  -2  -6  -4    0.02    0.09
  -2  -6  -4   -0.11    0.07
   2   6   4   -0.02    0.05
   2   6   4    0.00    0.07
   2   6   4    0.03    0.06
   2   6   4    0.04    0.08
   2   6   4    0.15    0.09
  -3  -6  -4    1.61    0.18
   3   6   4    2.04    0.20
   3   6   4    1.81    0.15
   3   6   4    1.95    0.18
   3   6   4    1.86    0.14
   3   6   4    2.00    0.15
   3   6   4    1.82    0.14
  -4  -6  -4    0.38    0.11
  -4  -6  -4    0.48    0.10
  -4  -6  -4    0.49    0.12
   4   6   4    0.20    0.09
   4   6   4    0.36    0.07
   4   6   4    0.44    0.10
  -5  -6  -4    2.46    0.19
  -5  -6  -4    2.49    0.19
  -5  -6  -4    1.79    0.20
  -5  -6  -4    2.45    0.18
   5   6   4    1.88    0.20
  -6  -6  -4    5.58    0.35
  -6  -6  -4    5.93    0.27
  -6  -6  -4    5.98    0.41
  -6  -6  -4    5.98    0.29
  -6  -6  -4    5.78    0.28
  -7  -6  -4    0.09    0.14
  -7  -6  -4    0.03    0.09
  -7  -6  -4    0.09    0.12
  -7  -6  -4    0.17    0.11
  -8  -6  -4    0.82    0.16
  -8  -6  -4    0.84    0.23
  -8  -6  -4    0.53    0.14
  -9  -6  -4    0.87    0.25
  -9  -6  -4    1.05    0.18
  -9  -6  -4    0.63    0.16
 -10  -6  -4   -0.10    0.18
 -10  -6  -4   -0.21    0.14
   6  -7  -4    0.54    0.26
  -6   7   4    0.63    0.27
  -6   7   4    0.65    0.24
   5  -7  -4    0.85    0.24
  -5   7   4    0.51    0.21
  -5   7   4    0.88    0.27
   4  -7  -4    1.33    0.30
  -4   7   4    1.06    0.24
  -4   7   4    0.88    0.21
   3  -7  -4    0.49    0.17
  -3   7   4    0.26    0.15
  -3   7   4    0.22    0.14
  -3   7   4    0.42    0.15
   2  -7  -4    0.14    0.16
  -2   7   4    0.08    0.11
  -2   7   4   -0.04    0.10
  -2   7   4   -0.12    0.10
   1  -7  -4    0.08    0.13
  -1   7   4    0.08    0.10
  -1   7   4    0.01    0.10
  -1   7   4    0.03    0.09
   0  -7  -4    0.11    0.10
   0  -7  -4    0.04    0.09
   0   7   4    0.06    0.10
   0   7   4   -0.02    0.08
   0   7   4   -0.04    0.07
  -1  -7  -4    0.00    0.09
  -1  -7  -4   -0.02    0.08
   1   7   4   -0.02    0.06
   1   7   4    0.10    0.09
   1   7   4    0.06    0.10
   1   7   4    0.04    0.08
   1   7   4   -0.08    0.06
  -2  -7  -4    5.60    0.31
  -2  -7  -4    5.63    0.30
   2   7   4    5.67    0.27
   2   7   4    6.02    0.31
   2   7   4    5.84    0.34
   2   7   4    5.83    0.28
  -3  -7  -4   -0.08    0.07
  -3  -7  -4   -0.12    0.08
   3   7   4   -0.02    0.08
   3   7   4    0.03    0.06
   3   7   4    0.02    0.06
   3   7   4   -0.07    0.07
   3   7   4    0.06    0.09
  -4  -7  -4   -0.15    0.07
   4   7   4    0.00    0.08
   4   7   4   -0.07    0.07
  -5  -7  -4   10.79    0.47
  -5  -7  -4   10.21    0.37
  -5  -7  -4   10.71    0.37
   5   7   4   11.47    0.47
  -6  -7  -4    9.89    0.36
  -6  -7  -4    8.62    0.33
  -7  -7  -4    6.78    0.32
  -7  -7  -4    7.03    0.31
  -7  -7  -4    7.15    0.47
  -8  -7  -4    2.71    0.23
  -8  -7  -4    2.46    0.36
  -8  -7  -4    3.01    0.25
  -9  -7  -4    0.12    0.18
  -9  -7  -4    0.09    0.11
  -9  -7  -4   -0.05    0.11
 -10  -7  -4    0.11    0.20
 -10  -7  -4    0.64    0.18
   5  -8  -4    0.44    0.23
  -5   8   4    0.77    0.28
  -5   8   4   -0.03    0.16
   4  -8  -4    1.96    0.37
  -4   8   4    0.85    0.23
  -4   8   4    1.65    0.33
   3  -8  -4    0.11    0.17
  -3   8   4    0.33    0.18
  -3   8   4    0.25    0.17
   2  -8  -4   -0.03    0.12
  -2   8   4    0.10    0.11
  -2   8   4   -0.04    0.10
  -2   8   4   -0.01    0.10
   1  -8  -4    0.11    0.13
  -1   8   4    0.11    0.12
  -1   8   4    0.04    0.10
  -1   8   4    0.04    0.10
   0  -8  -4    0.33    0.15
   0  -8  -4    0.17    0.13
   0   8   4    0.18    0.12
   0   8   4    0.37    0.12
   0   8   4    0.26    0.11
  -1  -8  -4    2.04    0.24
  -1  -8  -4    2.01    0.24
   1   8   4    1.97    0.22
   1   8   4    2.65    0.26
   1   8   4    2.45    0.27
   1   8   4    2.40    0.27
   1   8   4    1.85    0.22
  -2  -8  -4    1.90    0.22
  -2  -8  -4    1.75    0.22
   2   8   4    1.29    0.18
   2   8   4    1.90    0.25
   2   8   4    1.68    0.18
   2   8   4    2.07    0.21
  -3  -8  -4    6.45    0.35
  -3  -8  -4    6.50    0.34
   3   8   4    7.09    0.40
   3   8   4    6.29    0.33
   3   8   4    6.11    0.27
   3   8   4    5.93    0.27
   3   8   4    5.71    0.24
  -4  -8  -4    0.21    0.10
  -4  -8  -4   -0.06    0.11
   4   8   4    0.15    0.10
   4   8   4    0.29    0.13
  -5  -8  -4    8.42    0.36
   5   8   4    8.00    0.33
   5   8   4    9.11    0.45
  -6  -8  -4    0.30    0.12
   6   8   4    0.23    0.13
  -7  -8  -4    0.12    0.18
  -7  -8  -4    0.44    0.12
  -8  -8  -4    0.46    0.23
  -9  -8  -4    0.17    0.12
  -9  -8  -4    0.19    0.19
   4  -9  -4    0.36    0.25
   3  -9  -4    5.43    0.51
  -3   9   4    5.49    0.46
  -3   9   4    5.28    0.45
   2  -9  -4    0.25    0.17
  -2   9   4    0.04    0.13
  -2   9   4    0.06    0.13
  -2   9   4   -0.16    0.12
   1  -9  -4    0.17    0.15
  -1   9   4    0.24    0.15
  -1   9   4    0.02    0.11
  -1   9   4    0.23    0.14
   0  -9  -4    0.51    0.18
   0   9   4    0.83    0.19
   0   9   4    0.29    0.15
   0   9   4    0.33    0.13
   0   9   4    0.33    0.15
  -1  -9  -4    0.05    0.13
   1   9   4    0.11    0.11
   1   9   4    0.00    0.09
   1   9   4   -0.02    0.08
   1   9   4   -0.13    0.11
   1   9   4    0.13    0.12
  -2  -9  -4    0.02    0.15
  -2  -9  -4    0.07    0.12
   2   9   4    0.10    0.14
   2   9   4    0.20    0.12
   2   9   4    0.16    0.11
   2   9   4    0.42    0.11
  -3  -9  -4    4.95    0.38
  -3  -9  -4    4.85    0.34
   3   9   4    4.64    0.36
   3   9   4    4.96    0.31
   3   9   4    4.29    0.22
   3   9   4    3.89    0.23
  -4  -9  -4   11.23    0.65
  -4  -9  -4   11.16    0.46
   4   9   4   10.84    0.44
   4   9   4   10.89    0.53
  -5  -9  -4    2.91    0.27
   5   9   4    2.80    0.32
   5   9   4    3.20    0.24
  -6  -9  -4    1.02    0.16
   6   9   4    0.75    0.19
  -7  -9  -4    4.26    0.27
  -8  -9  -4    0.01    0.17
  -9  -9  -4    0.30    0.19
   3 -10  -4    0.85    0.28
   2 -10  -4    2.31    0.35
   1 -10  -4    0.45    0.20
  -1  10   4    0.18    0.14
   0 -10  -4    0.12    0.15
   0  10   4    0.02    0.11
   0  10   4    0.08    0.15
  -1 -10  -4    1.81    0.29
   1  10   4    1.19    0.24
   1  10   4    1.40    0.22
   1  10   4    0.92    0.22
  -2 -10  -4   -0.04    0.12
   2  10   4   -0.08    0.12
   2  10   4    0.01    0.11
  -3 -10  -4   -0.05    0.11
   3  10   4    0.07    0.10
   3  10   4   -0.10    0.12
  -4 -10  -4    0.42    0.17
   4  10   4    0.46    0.17
   4  10   4    0.34    0.15
  -5 -10  -4   -0.03    0.12
   5  10   4    0.24    0.12
   5  10   4    0.19    0.14
  -6 -10  -4    0.29    0.12
   6  10   4   -0.02    0.11
   6  10   4    0.42    0.12
  -7 -10  -4    0.24    0.11
  -8 -10  -4    0.42    0.22
   1 -11  -4    0.04    0.20
   0 -11  -4    0.15    0.22
   0  11   4    0.00    0.12
   0  11   4   -0.26    0.15
  -1 -11  -4    0.04    0.16
   1  11   4   -0.03    0.13
   1  11   4   -0.21    0.15
  -2 -11  -4    0.24    0.19
   2  11   4    0.22    0.14
   2  11   4    0.10    0.16
  -3 -11  -4    1.37    0.27
   3  11   4    1.00    0.20
   3  11   4    1.03    0.25
  -4 -11  -4    0.10    0.14
   4  11   4   -0.06    0.13
   4  11   4    0.10    0.15
  -5 -11  -4   -0.12    0.12
   5  11   4    0.08    0.15
   5  11   4    0.01    0.11
  -6 -11  -4    0.04    0.13
   6  11   4   -0.09    0.11
   6  11   4   -0.19    0.12
  -7 -11  -4    0.06    0.11
   7  11   4   -0.39    0.18
  -1 -12  -4   -0.09    0.18
   1  12   4    0.04    0.15
  -2 -12  -4    0.54    0.25
   2  12   4    0.15    0.16
  -3 -12  -4    0.04    0.16
   3  12   4   -0.09    0.13
  -4 -12  -4    1.68    0.30
   4  12   4    1.03    0.23
  -5 -12  -4   -0.01    0.15
   5  12   4    0.20    0.15
  -5  -8   5    0.69    0.18
  -4  -8   5    0.34    0.15
  -3  -8   5   -0.06    0.11
   2   8  -5    0.23    0.15
  -2  -8   5    0.14    0.15
   1   8  -5    0.07    0.13
   1   8  -5    0.58    0.18
  -1  -8   5    0.26    0.19
   0   8  -5    0.47    0.17
   0   8  -5    0.30    0.15
   0  -8   5    0.14    0.18
  -1   8  -5    0.88    0.22
  -1   8  -5    0.98    0.24
   1  -8   5    0.78    0.25
  -2   8  -5    0.57    0.20
   2  -8   5    0.93    0.28
  -6  -7   5   -0.05    0.10
  -5  -7   5    2.40    0.27
  -4  -7   5    2.60    0.30
  -3  -7   5    0.20    0.13
   2   7  -5    0.47    0.17
  -2  -7   5    0.45    0.16
   1   7  -5    0.04    0.11
  -1  -7   5   -0.02    0.11
   0   7  -5    0.40    0.15
   0   7  -5    0.33    0.13
   0  -7   5    0.03    0.15
  -1   7  -5   -0.10    0.11
  -1   7  -5   -0.07    0.11
   1  -7   5    0.11    0.16
  -2   7  -5    3.12    0.38
  -2   7  -5    2.87    0.32
   2  -7   5    2.87    0.38
  -3   7  -5   -0.22    0.10
   3  -7   5   -0.13    0.19
   7   6  -5    0.16    0.11
  -7  -6   5    0.16    0.10
  -6  -6   5    0.12    0.10
  -5  -6   5    0.20    0.11
  -4  -6   5    8.63    0.40
  -3  -6   5    0.69    0.17
   2   6  -5    1.41    0.22
  -2  -6   5    1.39    0.21
   1   6  -5    0.99    0.18
  -1  -6   5    0.76    0.19
   0   6  -5   -0.04    0.08
   0   6  -5    0.00    0.09
   0  -6   5    0.04    0.11
  -1   6  -5    0.10    0.11
  -1   6  -5    0.08    0.10
  -1   6  -5    0.27    0.15
   1  -6   5    0.10    0.14
  -2   6  -5    1.01    0.21
  -2   6  -5    0.77    0.18
  -2   6  -5    1.08    0.25
   2  -6   5    0.61    0.20
  -3   6  -5    0.82    0.21
  -3   6  -5    0.58    0.16
   3  -6   5    0.61    0.24
  -4   6  -5    0.18    0.14
   4  -6   5    0.07    0.19
  -5   6  -5   -0.07    0.13
   5  -6   5   -0.05    0.20
   7   5  -5    0.50    0.13
  -7  -5   5    0.63    0.14
   6   5  -5   -0.03    0.08
  -6  -5   5    0.03    0.09
  -5  -5   5    0.22    0.10
  -4  -5   5    2.10    0.26
  -4  -5   5    2.05    0.23
  -3  -5   5    0.00    0.10
  -3  -5   5   -0.01    0.07
  -3  -5   5   -0.13    0.08
  -2  -5   5    6.30    0.35
  -2  -5   5    6.60    0.38
  -2  -5   5    6.72    0.36
  -2  -5   5    6.49    0.34
   1   5  -5    0.00    0.06
   1   5  -5    0.04    0.08
  -1  -5   5    0.22    0.13
  -1  -5   5   -0.04    0.09
  -1  -5   5   -0.06    0.08
   0   5  -5    0.23    0.10
   0   5  -5    0.31    0.11
   0  -5   5    0.25    0.11
   0  -5   5    0.15    0.11
  -1   5  -5    0.18    0.10
  -1   5  -5    0.11    0.10
   1  -5   5    0.05    0.12
   1  -5   5   -0.02    0.10
  -2   5  -5    0.32    0.12
  -2   5  -5    0.27    0.14
   2  -5   5    0.29    0.15
  -3   5  -5    0.14    0.12
  -3   5  -5   -0.08    0.12
  -3   5  -5   -0.09    0.09
   3  -5   5   -0.07    0.14
  -4   5  -5    0.00    0.15
  -4   5  -5   -0.07    0.09
  -4   5  -5    0.12    0.17
   4  -5   5    0.12    0.19
  -5   5  -5    0.42    0.20
  -5   5  -5    0.36    0.20
  -5   5  -5    0.51    0.16
   5  -5   5    0.30    0.22
  -6   5  -5    0.30    0.20
  -6   5  -5   -0.08    0.17
   6  -5   5    0.40    0.24
   8   4  -5   -0.02    0.10
  -8  -4   5    0.03    0.10
  -8  -4   5    0.08    0.09
   7   4  -5    0.00    0.08
  -7  -4   5    0.05    0.10
  -7  -4   5   -0.05    0.08
   6   4  -5    0.09    0.09
  -6  -4   5   -0.01    0.07
   5   4  -5    2.57    0.23
  -5  -4   5    1.60    0.18
  -5  -4   5    1.86    0.21
  -4  -4   5    0.24    0.11
  -4  -4   5    0.17    0.11
  -4  -4   5    0.21    0.09
  -3  -4   5   25.55    0.68
  -3  -4   5   25.60    0.68
  -3  -4   5   26.59    0.69
  -3  -4   5   27.06    0.77
  -3  -4   5   25.85    0.59
  -2  -4   5   -0.08    0.08
  -2  -4   5    0.10    0.10
  -2  -4   5   -0.10    0.08
  -2  -4   5   -0.12    0.07
  -2  -4   5   -0.14    0.09
   1   4  -5    2.08    0.18
   1   4  -5    2.59    0.22
  -1  -4   5    2.57    0.27
  -1  -4   5    2.20    0.23
  -1  -4   5    2.03    0.23
  -1  -4   5    2.96    0.30
  -1  -4   5    2.24    0.23
   0   4  -5    1.91    0.20
   0   4  -5    1.41    0.17
   0  -4   5    1.47    0.20
   0  -4   5    2.02    0.25
  -1   4  -5    0.09    0.08
  -1   4  -5   -0.01    0.08
   1  -4   5   -0.05    0.10
   1  -4   5    0.02    0.08
  -2   4  -5    0.31    0.17
  -2   4  -5    0.38    0.14
  -2   4  -5    0.43    0.11
   2  -4   5    0.21    0.12
   2  -4   5    0.21    0.13
  -3   4  -5   12.62    0.54
  -3   4  -5   12.36    0.45
  -3   4  -5   11.86    0.59
  -3   4  -5   12.08    0.55
   3  -4   5   12.60    0.58
  -4   4  -5    0.02    0.09
  -4   4  -5    0.08    0.16
  -4   4  -5    0.04    0.14
  -4   4  -5    0.12    0.12
   4  -4   5    0.01    0.14
  -5   4  -5    0.24    0.22
  -5   4  -5    0.48    0.19
   5  -4   5    0.44    0.20
  -6   4  -5    0.19    0.19
  -6   4  -5    0.11    0.16
   6  -4   5   -0.05    0.16
  -7   4  -5    0.30    0.23
  -7   4  -5    0.12    0.18
   7  -4   5    0.29    0.21
   8   3  -5    0.16    0.13
  -8  -3   5    0.16    0.12
  -8  -3   5    0.31    0.14
   7   3  -5    0.45    0.13
  -7  -3   5    0.61    0.15
  -7  -3   5    0.31    0.12
   6   3  -5   -0.06    0.08
  -6  -3   5    0.00    0.08
  -6  -3   5    0.00    0.08
   5   3  -5    0.69    0.14
  -5  -3   5    0.60    0.13
  -5  -3   5    0.90    0.15
  -4  -3   5   11.74    0.42
  -4  -3   5   12.53    0.44
  -4  -3   5   11.82    0.42
  -4  -3   5   12.64    0.58
  -3  -3   5   28.94    0.72
  -3  -3   5   30.92    0.80
  -3  -3   5   29.16    0.71
  -3  -3   5   31.19    0.74
  -2  -3   5    0.03    0.07
  -2  -3   5    0.02    0.08
  -2  -3   5    0.01    0.07
  -2  -3   5    0.11    0.09
  -2  -3   5    0.07    0.09
  -1  -3   5    0.01    0.07
  -1  -3   5    0.08    0.08
  -1  -3   5    0.00    0.08
  -1  -3   5    0.01    0.07
  -1  -3   5    0.03    0.07
   0   3  -5    2.43    0.18
   0   3  -5    2.11    0.20
   0  -3   5    2.80    0.27
   0  -3   5    2.73    0.26
   0  -3   5    3.25    0.30
   0  -3   5    2.49    0.24
  -1   3  -5    0.06    0.10
  -1   3  -5    0.05    0.08
  -1   3  -5    0.17    0.07
   1  -3   5    0.13    0.09
   1  -3   5    0.22    0.09
  -2   3  -5    2.89    0.19
  -2   3  -5    2.13    0.26
  -2   3  -5    2.93    0.29
   2  -3   5    3.25    0.32
   2  -3   5    3.18    0.26
  -3   3  -5   13.45    0.44
  -3   3  -5   14.53    0.57
  -3   3  -5   14.57    0.61
   3  -3   5   15.56    0.59
  -4   3  -5   12.47    0.60
  -4   3  -5   10.72    0.52
  -4   3  -5   11.55    0.51
   4  -3   5   12.31    0.56
  -5   3  -5    0.18    0.15
  -5   3  -5    0.15    0.17
   5  -3   5   -0.07    0.12
  -6   3  -5    0.14    0.16
  -6   3  -5    0.23    0.17
   6  -3   5    0.18    0.17
  -7   3  -5    0.96    0.26
  -7   3  -5    0.92    0.26
   7  -3   5    1.20    0.27
   8   2  -5    0.14    0.11
  -8  -2   5    0.01    0.09
  -8  -2   5    0.02    0.11
   7   2  -5    0.21    0.11
  -7  -2   5    0.11    0.11
  -7  -2   5    0.09    0.10
   6   2  -5   -0.10    0.09
  -6  -2   5   -0.08    0.08
  -6  -2   5    0.06    0.09
   5   2  -5    0.06    0.09
  -5  -2   5    0.00    0.08
  -5  -2   5    0.01    0.09
   4   2  -5    8.20    0.34
  -4  -2   5    7.74    0.34
  -4  -2   5    7.54    0.34
  -4  -2   5    7.46    0.38
   3   2  -5    0.70    0.11
  -3  -2   5    0.62    0.12
  -3  -2   5    0.38    0.11
  -3  -2   5    0.45    0.11
  -3  -2   5    0.46    0.10
   2   2  -5    0.15    0.08
  -2  -2   5    0.07    0.06
  -2  -2   5    0.04    0.07
  -2  -2   5    0.13    0.07
  -2  -2   5    0.03    0.06
  -2  -2   5    0.07    0.07
   1   2  -5    5.77    0.27
  -1  -2   5    5.62    0.23
  -1  -2   5    5.53    0.28
  -1  -2   5    6.10    0.30
  -1  -2   5    5.25    0.25
  -1  -2   5    5.77    0.28
   0   2  -5   28.37    0.70
   0   2  -5   28.20    0.66
   0   2  -5   28.91    0.70
   0  -2   5   29.39    0.62
   0  -2   5   28.44    0.66
   0  -2   5   28.51    0.71
   0  -2   5   28.25    0.72
   0  -2   5   28.22    0.72
  -1   2  -5    0.66    0.14
  -1   2  -5    0.67    0.15
  -1   2  -5    0.51    0.08
  -1   2  -5    0.53    0.12
   1  -2   5    0.57    0.13
   1  -2   5    0.46    0.12
   1  -2   5    0.36    0.12
   1  -2   5    0.74    0.13
  -2   2  -5    0.75    0.14
  -2   2  -5    0.66    0.15
  -2   2  -5    0.71    0.10
  -2   2  -5    0.92    0.18
   2  -2   5    0.90    0.18
   2  -2   5    0.61    0.13
  -3   2  -5    1.26    0.19
  -3   2  -5    1.28    0.13
  -3   2  -5    1.54    0.23
   3  -2   5    0.95    0.17
   3  -2   5    1.04    0.17
  -4   2  -5   49.13    1.24
  -4   2  -5   51.44    1.21
   4  -2   5   53.20    1.21
  -5   2  -5    0.13    0.10
  -5   2  -5    0.24    0.14
  -5   2  -5    0.24    0.20
   5  -2   5    0.18    0.14
  -6   2  -5   -0.11    0.12
  -6   2  -5    0.12    0.17
   6  -2   5    0.05    0.14
  -7   2  -5    0.75    0.22
  -7   2  -5    0.37    0.23
   7  -2   5    1.11    0.25
  -8   2  -5   -0.18    0.18
  -8   2  -5   -0.14    0.17
   8   1  -5    0.12    0.12
  -8  -1   5   -0.03    0.10
   7   1  -5   -0.07    0.09
  -7  -1   5   -0.13    0.08
   6   1  -5    7.60    0.35
  -6  -1   5    6.77    0.37
   5   1  -5    0.59    0.13
  -5  -1   5    0.58    0.14
  -5  -1   5    0.66    0.15
  -5  -1   5    0.72    0.16
   4   1  -5    1.25    0.17
   4   1  -5    1.07    0.13
  -4  -1   5    1.42    0.19
  -4  -1   5    1.47    0.19
   3   1  -5    3.49    0.22
   3   1  -5    3.20    0.19
  -3  -1   5    3.67    0.24
  -3  -1   5    3.22    0.22
   2   1  -5    9.27    0.33
  -2  -1   5    9.94    0.36
  -2  -1   5   10.42    0.38
  -2  -1   5    9.84    0.36
  -2  -1   5    9.72    0.35
   1   1  -5    6.93    0.29
   1   1  -5    6.85    0.22
  -1  -1   5    6.82    0.30
  -1  -1   5    6.90    0.31
  -1  -1   5    6.91    0.30
  -1  -1   5    7.01    0.22
  -1  -1   5    7.20    0.26
   0   1  -5   13.15    0.42
   0   1  -5   12.69    0.37
   0   1  -5   12.75    0.42
   0  -1   5   12.32    0.42
   0  -1   5   12.86    0.43
   0  -1   5   13.06    0.43
   0  -1   5   12.45    0.33
   0  -1   5   12.91    0.36
  -1   1  -5   48.61    1.01
  -1   1  -5   49.04    1.03
  -1   1  -5   49.27    0.99
   1  -1   5   49.50    1.02
   1  -1   5   49.84    0.98
  -2   1  -5   18.11    0.56
  -2   1  -5   17.93    0.37
  -2   1  -5   18.94    0.56
  -2   1  -5   18.46    0.56
   2  -1   5   17.81    0.56
   2  -1   5   18.38    0.55
   2  -1   5   18.57    0.55
  -3   1  -5    0.10    0.04
  -3   1  -5    0.06    0.13
  -3   1  -5   -0.06    0.10
  -3   1  -5    0.01    0.08
   3  -1   5    0.07    0.08
   3  -1   5    0.09    0.10
  -4   1  -5   10.54    0.47
  -4   1  -5   10.17    0.46
  -4   1  -5   10.50    0.51
   4  -1   5   11.10    0.46
  -5   1  -5    2.40    0.25
  -5   1  -5    2.60    0.31
  -5   1  -5    3.49    0.39
   5  -1   5    2.69    0.29
  -6   1  -5    1.04    0.25
  -6   1  -5    1.11    0.22
   6  -1   5    1.16    0.21
  -7   1  -5    0.11    0.19
  -7   1  -5    0.16    0.16
   7  -1   5    0.18    0.16
  -8   1  -5    2.88    0.44
  -8   1  -5    3.82    0.43
  -9   1  -5    0.42    0.25
  -9   1  -5    0.25    0.24
  -8   0   5   -0.11    0.12
  -8   0   5    0.05    0.12
   7   0  -5    0.05    0.10
  -7   0   5   -0.02    0.09
   6   0  -5    1.75    0.22
  -6   0   5    1.74    0.25
   5   0  -5    0.04    0.10
   5   0  -5    0.06    0.08
  -5   0   5    0.01    0.09
  -5   0   5    0.15    0.10
   4   0  -5    1.28    0.17
   4   0  -5    1.06    0.15
  -4   0   5    1.05    0.16
  -4   0   5    1.32    0.19
  -4   0   5    1.20    0.17
   3   0  -5    0.33    0.10
   3   0  -5    0.49    0.11
  -3   0   5    0.23    0.09
  -3   0   5    0.64    0.13
   2   0  -5    6.42    0.28
   2   0  -5    6.36    0.28
  -2   0   5    6.34    0.29
  -2   0   5    6.50    0.29
   1   0  -5   -0.02    0.06
   1   0  -5   -0.02    0.05
  -1   0   5    0.05    0.06
  -1   0   5    0.06    0.07
  -1   0   5   -0.06    0.05
   0   0  -5    0.55    0.10
   0   0  -5    0.48    0.11
   0   0  -5    0.59    0.13
   0   0   5    0.47    0.10
   0   0   5    0.49    0.09
   0   0   5    0.40    0.06
   0   0   5    0.49    0.12
   0   0   5    0.30    0.08
  -1   0  -5    5.14    0.26
  -1   0  -5    5.21    0.26
  -1   0  -5    5.32    0.26
  -1   0  -5    4.97    0.27
   1   0   5    5.22    0.23
   1   0   5    4.96    0.26
   1   0   5    5.67    0.27
   1   0   5    5.22    0.27
   1   0   5    5.06    0.14
  -2   0  -5    4.17    0.26
  -2   0  -5    3.82    0.25
  -2   0  -5    4.40    0.29
   2   0   5    4.16    0.24
   2   0   5    4.16    0.24
  -3   0  -5    6.27    0.33
  -3   0  -5    6.82    0.33
  -3   0  -5    6.21    0.34
   3   0   5    5.85    0.30
   3   0   5    6.44    0.32
  -4   0  -5    0.09    0.11
  -4   0  -5    0.23    0.11
  -4   0  -5    0.54    0.17
   4   0   5    0.48    0.12
  -5   0  -5    1.63    0.23
  -5   0  -5    1.59    0.27
  -5   0  -5    1.32    0.23
   5   0   5    1.55    0.22
  -6   0  -5    1.28    0.27
  -6   0  -5    1.18    0.22
  -6   0  -5    1.00    0.18
   6   0   5    1.23    0.20
  -7   0  -5    0.15    0.20
  -7   0  -5    0.30    0.17
   7   0   5    0.18    0.13
  -8   0  -5    1.05    0.27
  -8   0  -5    0.92    0.25
  -9   0  -5   -0.03    0.20
  -9   0  -5    0.05    0.21
  -8   1   5   -0.07    0.11
  -8   1   5   -0.02    0.14
  -7   1   5    0.21    0.14
  -7   1   5    0.29    0.16
   6  -1  -5    0.15    0.11
   6  -1  -5   -0.07    0.10
  -6   1   5   -0.08    0.09
   5  -1  -5   -0.03    0.08
   5  -1  -5    0.02    0.10
  -5   1   5    0.02    0.09
  -5   1   5    0.03    0.10
   4  -1  -5    0.35    0.11
   4  -1  -5    0.43    0.12
  -4   1   5    0.57    0.14
  -4   1   5    0.30    0.12
   3  -1  -5   16.78    0.50
   3  -1  -5   17.17    0.50
  -3   1   5   16.37    0.52
  -3   1   5   16.13    0.53
  -3   1   5   15.84    0.51
   2  -1  -5    1.55    0.19
   2  -1  -5    1.14    0.14
  -2   1   5    1.23    0.17
  -2   1   5    1.48    0.18
   1  -1  -5   23.19    0.59
   1  -1  -5   22.27    0.57
   1  -1  -5   23.21    0.44
  -1   1   5   23.06    0.59
  -1   1   5   23.50    0.60
   0  -1  -5   21.51    0.47
   0  -1  -5   20.29    0.55
   0  -1  -5   20.69    0.54
   0   1   5   21.13    0.55
   0   1   5   20.85    0.55
   0   1   5   21.38    0.56
  -1  -1  -5   17.93    0.46
  -1  -1  -5   18.22    0.51
  -1  -1  -5   17.80    0.50
  -1  -1  -5   17.91    0.51
   1   1   5   18.50    0.50
   1   1   5   18.55    0.50
   1   1   5   17.58    0.50
   1   1   5   17.76    0.45
  -2  -1  -5    3.92    0.23
  -2  -1  -5    4.25    0.24
  -2  -1  -5    3.94    0.25
  -2  -1  -5    4.40    0.25
   2   1   5    4.09    0.23
   2   1   5    4.17    0.24
   2   1   5    4.10    0.23
   2   1   5    4.01    0.23
  -3  -1  -5    5.75    0.31
  -3  -1  -5    6.14    0.30
  -3  -1  -5    5.70    0.29
  -3  -1  -5    5.34    0.29
   3   1   5    5.31    0.28
   3   1   5    5.57    0.29
   3   1   5    5.59    0.28
  -4  -1  -5    0.46    0.13
  -4  -1  -5    0.47    0.12
  -4  -1  -5    0.38    0.12
  -4  -1  -5    0.27    0.15
   4   1   5    0.21    0.10
  -5  -1  -5    0.91    0.18
  -5  -1  -5    0.76    0.19
  -5  -1  -5    1.34    0.23
  -5  -1  -5    0.96    0.17
   5   1   5    0.94    0.16
  -6  -1  -5    0.37    0.20
  -6  -1  -5    0.60    0.14
  -6  -1  -5    0.26    0.14
  -6  -1  -5    0.40    0.14
   6   1   5    0.30    0.14
  -7  -1  -5    1.51    0.29
  -7  -1  -5    1.94    0.26
   7   1   5    1.59    0.22
  -8  -1  -5    0.25    0.22
  -8  -1  -5   -0.02    0.15
  -9  -1  -5   -0.34    0.18
  -9  -1  -5   -0.05    0.18
  -8   2   5    0.24    0.17
  -8   2   5    0.38    0.21
  -7   2   5    2.33    0.33
  -7   2   5    1.79    0.29
   6  -2  -5    0.12    0.13
   6  -2  -5    0.27    0.14
  -6   2   5    0.26    0.14
  -6   2   5    0.29    0.16
   5  -2  -5    0.19    0.12
   5  -2  -5    0.14    0.11
  -5   2   5    0.18    0.14
  -5   2   5    0.19    0.12
   4  -2  -5   -0.07    0.09
   4  -2  -5   -0.04    0.07
   4  -2  -5    0.01    0.09
  -4   2   5    0.01    0.07
  -4   2   5   -0.04    0.08
  -4   2   5   -0.08    0.08
   3  -2  -5    0.09    0.08
   3  -2  -5    0.02    0.09
  -3   2   5   -0.01    0.06
  -3   2   5    0.11    0.09
  -3   2   5   -0.01    0.07
   2  -2  -5   16.77    0.50
   2  -2  -5   14.57    0.47
  -2   2   5   16.93    0.52
  -2   2   5   16.40    0.50
  -2   2   5   16.57    0.52
   1  -2  -5    4.21    0.23
   1  -2  -5    4.02    0.24
  -1   2   5    3.80    0.24
  -1   2   5    3.92    0.23
   0  -2  -5    4.33    0.25
   0  -2  -5    4.06    0.19
   0  -2  -5    4.73    0.23
   0  -2  -5    4.14    0.23
   0   2   5    3.50    0.22
   0   2   5    4.03    0.23
   0   2   5    4.12    0.24
  -1  -2  -5   21.32    0.52
  -1  -2  -5   20.09    0.54
  -1  -2  -5   21.47    0.53
   1   2   5   21.25    0.55
   1   2   5   21.31    0.55
   1   2   5   20.42    0.54
  -2  -2  -5   14.58    0.44
  -2  -2  -5   14.89    0.45
  -2  -2  -5   13.55    0.44
   2   2   5   13.50    0.42
   2   2   5   13.94    0.43
   2   2   5   14.04    0.43
  -3  -2  -5   11.78    0.42
  -3  -2  -5   11.81    0.41
  -3  -2  -5   11.12    0.40
  -3  -2  -5   11.78    0.43
   3   2   5   12.43    0.39
   3   2   5   12.77    0.41
  -4  -2  -5   17.15    0.56
  -4  -2  -5   16.53    0.52
  -4  -2  -5   16.46    0.51
  -4  -2  -5   16.93    0.36
  -4  -2  -5   16.17    0.51
   4   2   5   16.89    0.49
   4   2   5   16.09    0.54
  -5  -2  -5    4.07    0.27
  -5  -2  -5    4.42    0.34
  -5  -2  -5    3.72    0.27
  -5  -2  -5    4.46    0.29
  -5  -2  -5    4.38    0.20
   5   2   5    4.32    0.26
  -6  -2  -5    8.48    0.42
  -6  -2  -5    8.52    0.33
  -6  -2  -5    8.56    0.35
  -6  -2  -5    8.26    0.42
  -6  -2  -5    8.41    0.41
  -6  -2  -5    8.65    0.48
   6   2   5    8.55    0.37
  -7  -2  -5    0.73    0.22
  -7  -2  -5    0.59    0.18
  -7  -2  -5    0.51    0.16
   7   2   5    0.45    0.14
  -8  -2  -5    0.88    0.26
  -8  -2  -5    1.41    0.27
  -9  -2  -5    0.03    0.16
  -9  -2  -5    0.01    0.20
 -10  -2  -5   -0.28    0.19
 -10  -2  -5    0.06    0.21
  -7   3   5    0.53    0.20
  -7   3   5    0.43    0.19
   6  -3  -5    0.08    0.12
  -6   3   5   -0.08    0.12
  -6   3   5   -0.13    0.12
   5  -3  -5    0.08    0.11
   5  -3  -5   -0.11    0.10
   5  -3  -5    0.05    0.11
  -5   3   5    0.05    0.11
  -5   3   5   -0.03    0.11
   4  -3  -5    0.37    0.12
   4  -3  -5    0.10    0.13
   4  -3  -5    0.44    0.12
  -4   3   5    0.44    0.14
  -4   3   5    0.30    0.12
   3  -3  -5   -0.02    0.04
   3  -3  -5    0.23    0.10
   3  -3  -5    0.04    0.10
  -3   3   5    0.14    0.08
  -3   3   5    0.31    0.12
   2  -3  -5   21.69    0.61
   2  -3  -5   22.03    0.61
  -2   3   5   22.91    0.65
  -2   3   5   21.82    0.59
   1  -3  -5    0.41    0.09
   1  -3  -5    0.54    0.13
  -1   3   5    0.46    0.11
  -1   3   5    0.38    0.10
  -1   3   5    0.33    0.09
  -1   3   5    0.37    0.11
   0  -3  -5   14.58    0.44
   0  -3  -5   15.08    0.46
   0   3   5   14.55    0.46
   0   3   5   14.74    0.47
   0   3   5   14.60    0.46
  -1  -3  -5   36.93    0.77
  -1  -3  -5   36.20    0.80
  -1  -3  -5   35.86    0.78
   1   3   5   34.56    0.77
   1   3   5   34.64    0.77
   1   3   5   35.62    0.78
  -2  -3  -5   59.87    1.16
  -2  -3  -5   60.48    1.16
  -2  -3  -5   58.86    1.13
  -2  -3  -5   60.51    1.16
  -2  -3  -5   59.43    1.11
   2   3   5   61.43    1.13
   2   3   5   59.45    1.12
   2   3   5   61.29    0.98
   2   3   5   60.77    1.13
  -3  -3  -5    3.08    0.22
  -3  -3  -5    3.72    0.26
  -3  -3  -5    3.19    0.21
  -3  -3  -5    3.69    0.20
   3   3   5    3.54    0.22
   3   3   5    3.37    0.20
  -4  -3  -5   15.44    0.49
  -4  -3  -5   15.34    0.37
  -4  -3  -5   15.75    0.48
  -4  -3  -5   15.69    0.54
  -4  -3  -5   15.83    0.49
   4   3   5   15.92    0.46
   4   3   5   15.88    0.51
  -5  -3  -5    1.21    0.18
  -5  -3  -5    1.33    0.13
  -5  -3  -5    1.45    0.23
  -5  -3  -5    1.39    0.18
  -5  -3  -5    1.54    0.19
   5   3   5    1.46    0.17
  -6  -3  -5    5.35    0.40
  -6  -3  -5    5.30    0.27
  -6  -3  -5    5.73    0.33
  -6  -3  -5    5.22    0.31
  -6  -3  -5    5.68    0.33
   6   3   5    4.89    0.26
  -7  -3  -5   -0.07    0.12
  -7  -3  -5    0.20    0.17
  -7  -3  -5    0.06    0.13
  -7  -3  -5   -0.09    0.10
  -7  -3  -5    0.14    0.10
   7   3   5    0.08    0.10
  -8  -3  -5   -0.06    0.10
  -8  -3  -5    0.15    0.14
  -8  -3  -5    0.19    0.14
  -8  -3  -5   -0.08    0.17
  -9  -3  -5    0.10    0.15
  -9  -3  -5    0.12    0.21
 -10  -3  -5    0.03    0.21
 -10  -3  -5   -0.17    0.18
  -7   4   5    0.19    0.16
  -7   4   5    0.17    0.16
   6  -4  -5   -0.11    0.13
  -6   4   5   -0.01    0.14
  -6   4   5    0.00    0.13
   5  -4  -5    6.05    0.40
  -5   4   5    6.88    0.45
  -5   4   5    5.81    0.43
   4  -4  -5   14.79    0.49
   4  -4  -5   15.89    0.59
   4  -4  -5   14.99    0.56
  -4   4   5   14.68    0.60
  -4   4   5   15.73    0.62
  -4   4   5   14.87    0.54
   3  -4  -5    0.89    0.16
   3  -4  -5    0.78    0.16
   3  -4  -5    0.84    0.15
  -3   4   5    0.66    0.15
  -3   4   5    0.95    0.18
   2  -4  -5    1.36    0.18
   2  -4  -5    0.97    0.17
  -2   4   5    0.95    0.15
  -2   4   5    0.90    0.15
   1  -4  -5   21.43    0.61
   1  -4  -5   20.09    0.57
  -1   4   5   21.41    0.59
  -1   4   5   20.58    0.61
  -1   4   5   20.40    0.60
   0  -4  -5    1.39    0.18
   0  -4  -5    1.15    0.15
   0   4   5    1.08    0.15
   0   4   5    1.08    0.15
   0   4   5    0.86    0.13
  -1  -4  -5    1.75    0.17
  -1  -4  -5    1.75    0.19
   1   4   5    1.83    0.20
   1   4   5    1.56    0.18
   1   4   5    1.53    0.17
   1   4   5    2.02    0.17
  -2  -4  -5    0.10    0.07
  -2  -4  -5    0.23    0.08
  -2  -4  -5    0.17    0.08
   2   4   5    0.02    0.06
   2   4   5    0.09    0.07
   2   4   5    0.17    0.06
   2   4   5    0.11    0.07
  -3  -4  -5   69.82    1.31
  -3  -4  -5   70.00    1.30
  -3  -4  -5   71.92    1.38
  -3  -4  -5   70.95    1.31
   3   4   5   71.07    1.26
   3   4   5   71.52    1.20
   3   4   5   71.05    1.26
  -4  -4  -5    2.96    0.28
  -4  -4  -5    2.69    0.20
  -4  -4  -5    3.38    0.23
  -4  -4  -5    2.88    0.18
  -4  -4  -5    2.75    0.22
   4   4   5    2.90    0.19
  -5  -4  -5    6.03    0.30
  -5  -4  -5    6.39    0.30
  -5  -4  -5    5.79    0.26
  -5  -4  -5    5.82    0.31
  -5  -4  -5    5.76    0.37
   5   4   5    5.37    0.24
  -6  -4  -5    4.83    0.37
  -6  -4  -5    3.83    0.24
  -6  -4  -5    4.07    0.27
  -6  -4  -5    4.70    0.29
  -6  -4  -5    4.26    0.28
   6   4   5    3.86    0.21
  -7  -4  -5    0.29    0.17
  -7  -4  -5    0.18    0.10
  -7  -4  -5    0.16    0.14
  -7  -4  -5    0.15    0.13
  -7  -4  -5    0.07    0.11
  -8  -4  -5    1.88    0.31
  -8  -4  -5    2.12    0.26
  -8  -4  -5    1.70    0.22
  -8  -4  -5    2.11    0.26
  -9  -4  -5   -0.13    0.17
  -9  -4  -5    0.16    0.16
 -10  -4  -5    0.10    0.21
 -10  -4  -5    0.03    0.17
  -7   5   5    1.92    0.36
  -7   5   5    1.16    0.31
   6  -5  -5   -0.03    0.16
  -6   5   5    0.03    0.13
  -6   5   5   -0.03    0.14
   5  -5  -5    1.76    0.29
  -5   5   5    1.24    0.25
  -5   5   5    1.72    0.30
   4  -5  -5    2.27    0.30
  -4   5   5    2.74    0.36
  -4   5   5    2.61    0.31
   3  -5  -5    1.55    0.22
   3  -5  -5    1.18    0.22
  -3   5   5    1.05    0.19
  -3   5   5    1.28    0.22
  -3   5   5    1.13    0.18
   2  -5  -5   -0.02    0.08
   2  -5  -5    0.07    0.12
  -2   5   5    0.10    0.11
  -2   5   5    0.03    0.08
  -2   5   5    0.01    0.09
   1  -5  -5    0.15    0.11
   1  -5  -5    0.28    0.10
  -1   5   5   -0.06    0.07
  -1   5   5    0.06    0.10
   0  -5  -5    3.58    0.26
   0  -5  -5    3.80    0.23
   0   5   5    3.54    0.25
   0   5   5    3.99    0.25
   0   5   5    3.24    0.24
  -1  -5  -5    7.08    0.33
  -1  -5  -5    6.74    0.30
   1   5   5    6.69    0.31
   1   5   5    7.01    0.32
   1   5   5    7.22    0.32
  -2  -5  -5    0.02    0.08
   2   5   5   -0.08    0.05
   2   5   5   -0.03    0.06
   2   5   5    0.06    0.07
   2   5   5   -0.04    0.07
   2   5   5    0.04    0.07
  -3  -5  -5    0.18    0.09
  -3  -5  -5    0.41    0.11
   3   5   5    0.28    0.08
   3   5   5    0.38    0.10
   3   5   5    0.37    0.10
   3   5   5    0.42    0.10
  -4  -5  -5    0.35    0.09
  -4  -5  -5    0.26    0.09
  -4  -5  -5    0.40    0.12
  -4  -5  -5    0.34    0.11
   4   5   5    0.23    0.08
   4   5   5    0.41    0.10
   4   5   5    0.37    0.09
  -5  -5  -5    2.47    0.21
  -5  -5  -5    2.68    0.21
  -5  -5  -5    2.80    0.30
  -5  -5  -5    2.69    0.21
  -5  -5  -5    2.68    0.22
   5   5   5    2.86    0.17
  -6  -5  -5    0.00    0.08
  -6  -5  -5   -0.17    0.13
  -6  -5  -5   -0.05    0.08
  -6  -5  -5    0.06    0.10
  -6  -5  -5    0.04    0.09
   6   5   5    0.02    0.06
  -7  -5  -5    0.35    0.19
  -7  -5  -5    0.40    0.13
  -7  -5  -5    0.37    0.13
  -7  -5  -5    0.11    0.12
  -8  -5  -5    0.75    0.18
  -8  -5  -5    0.62    0.23
  -8  -5  -5    0.69    0.17
  -9  -5  -5    0.86    0.21
  -9  -5  -5    1.50    0.24
  -9  -5  -5    1.11    0.28
 -10  -5  -5   -0.30    0.15
 -10  -5  -5    0.18    0.24
   6  -6  -5   -0.06    0.17
  -6   6   5   -0.11    0.15
  -6   6   5    0.10    0.17
   5  -6  -5    2.92    0.34
  -5   6   5    3.32    0.44
  -5   6   5    3.17    0.38
   4  -6  -5    0.85    0.26
  -4   6   5    0.51    0.18
  -4   6   5    1.00    0.23
   3  -6  -5    3.62    0.35
  -3   6   5    3.70    0.36
  -3   6   5    4.17    0.32
  -3   6   5    4.37    0.36
   2  -6  -5    1.04    0.21
   2  -6  -5    0.93    0.18
  -2   6   5    0.68    0.16
  -2   6   5    0.99    0.18
  -2   6   5    1.24    0.20
   1  -6  -5    5.16    0.35
   1  -6  -5    4.87    0.30
  -1   6   5    4.97    0.32
  -1   6   5    4.46    0.30
  -1   6   5    4.81    0.32
   0  -6  -5   -0.01    0.08
   0  -6  -5   -0.10    0.09
   0  -6  -5   -0.06    0.08
   0   6   5    0.02    0.09
   0   6   5    0.00    0.08
   0   6   5    0.10    0.10
   0   6   5    0.02    0.09
  -1  -6  -5    5.83    0.33
  -1  -6  -5    6.00    0.31
   1   6   5    5.35    0.29
   1   6   5    5.67    0.30
   1   6   5    5.72    0.31
   1   6   5    5.33    0.30
  -2  -6  -5    2.90    0.24
   2   6   5    2.70    0.20
   2   6   5    2.57    0.21
   2   6   5    2.78    0.22
   2   6   5    2.73    0.21
   2   6   5    3.07    0.23
  -3  -6  -5    0.24    0.11
   3   6   5    0.32    0.11
   3   6   5    0.26    0.10
   3   6   5    0.05    0.04
   3   6   5    0.21    0.08
   3   6   5    0.35    0.10
  -4  -6  -5   -0.03    0.08
  -4  -6  -5    0.02    0.08
   4   6   5    0.02    0.07
   4   6   5   -0.06    0.05
   4   6   5   -0.01    0.05
   4   6   5    0.06    0.06
  -5  -6  -5    0.53    0.13
  -5  -6  -5    0.49    0.13
  -5  -6  -5    0.63    0.13
  -5  -6  -5    0.52    0.12
   5   6   5    0.62    0.10
   5   6   5    0.45    0.11
  -6  -6  -5    3.48    0.26
  -6  -6  -5    2.70    0.25
  -6  -6  -5    3.71    0.26
  -6  -6  -5    3.10    0.36
  -6  -6  -5    2.87    0.23
  -7  -6  -5    4.02    0.29
  -7  -6  -5    3.06    0.29
  -7  -6  -5    4.04    0.29
  -7  -6  -5    4.17    0.43
  -8  -6  -5    5.19    0.35
  -8  -6  -5    5.71    0.35
  -8  -6  -5    5.91    0.47
  -9  -6  -5    1.01    0.28
  -9  -6  -5    0.81    0.18
  -9  -6  -5    0.62    0.18
 -10  -6  -5   -0.04    0.16
 -10  -6  -5    0.30    0.23
   5  -7  -5    1.18    0.33
  -5   7   5    0.91    0.25
  -5   7   5    0.81    0.22
   4  -7  -5    6.33    0.49
  -4   7   5    5.43    0.45
  -4   7   5    5.78    0.45
   3  -7  -5    0.12    0.16
  -3   7   5    0.06    0.13
  -3   7   5    0.28    0.16
   2  -7  -5    0.09    0.15
  -2   7   5    0.21    0.13
  -2   7   5    0.08    0.11
  -2   7   5    0.25    0.13
   1  -7  -5    0.01    0.13
  -1   7   5   -0.09    0.08
  -1   7   5    0.07    0.11
  -1   7   5    0.10    0.11
   0  -7  -5    3.59    0.29
   0  -7  -5    3.84    0.32
   0   7   5    3.63    0.28
   0   7   5    4.48    0.30
   0   7   5    3.89    0.30
   0   7   5    3.61    0.29
  -1  -7  -5    1.04    0.18
  -1  -7  -5    0.57    0.15
   1   7   5    0.54    0.14
   1   7   5    0.58    0.15
   1   7   5    0.45    0.14
   1   7   5    0.50    0.12
  -2  -7  -5    0.23    0.11
  -2  -7  -5    0.22    0.12
   2   7   5    0.05    0.10
   2   7   5    0.15    0.10
   2   7   5    0.03    0.08
   2   7   5    0.20    0.10
   2   7   5    0.08    0.08
  -3  -7  -5    0.24    0.11
   3   7   5    0.27    0.10
   3   7   5    0.30    0.11
   3   7   5    0.17    0.10
   3   7   5    0.23    0.08
   3   7   5    0.13    0.09
  -4  -7  -5    0.37    0.13
   4   7   5    0.47    0.13
   4   7   5    0.55    0.11
   4   7   5    0.43    0.11
   4   7   5    0.52    0.09
  -5  -7  -5   -0.01    0.09
  -5  -7  -5    0.17    0.11
  -5  -7  -5   -0.13    0.10
   5   7   5    0.06    0.09
  -6  -7  -5    3.05    0.28
  -6  -7  -5    2.78    0.28
  -6  -7  -5    3.16    0.35
  -6  -7  -5    3.68    0.27
  -7  -7  -5    3.11    0.38
  -7  -7  -5    2.65    0.25
  -7  -7  -5    3.77    0.29
  -8  -7  -5    0.27    0.13
  -8  -7  -5   -0.08    0.13
  -8  -7  -5   -0.01    0.18
  -9  -7  -5    0.63    0.18
  -9  -7  -5    1.19    0.29
  -9  -7  -5    0.73    0.18
 -10  -7  -5    0.77    0.20
 -10  -7  -5    0.87    0.21
 -10  -7  -5    0.83    0.30
   5  -8  -5   -0.02    0.20
  -5   8   5   -0.22    0.15
  -5   8   5    0.28    0.22
   4  -8  -5    0.60    0.25
  -4   8   5    0.63    0.21
  -4   8   5    0.30    0.17
   3  -8  -5    5.83    0.56
  -3   8   5    5.29    0.43
  -3   8   5    4.47    0.44
   2  -8  -5    0.58    0.22
  -2   8   5    0.41    0.18
  -2   8   5    0.61    0.18
  -2   8   5    0.78    0.22
   1  -8  -5   -0.07    0.12
  -1   8   5   -0.05    0.10
  -1   8   5    0.02    0.12
  -1   8   5    0.08    0.11
   0  -8  -5    8.33    0.46
   0   8   5    8.89    0.44
   0   8   5    8.41    0.43
   0   8   5    8.17    0.41
  -1  -8  -5    2.00    0.28
  -1  -8  -5    1.54    0.24
   1   8   5    2.14    0.24
   1   8   5    1.87    0.24
   1   8   5    2.04    0.25
   1   8   5    1.70    0.21
   1   8   5    1.94    0.24
  -2  -8  -5    1.27    0.21
  -2  -8  -5    1.39    0.21
   2   8   5    1.73    0.22
   2   8   5    1.50    0.20
   2   8   5    1.87    0.21
   2   8   5    1.46    0.21
  -3  -8  -5    6.59    0.37
  -3  -8  -5    5.55    0.33
   3   8   5    5.73    0.29
   3   8   5    6.42    0.30
   3   8   5    6.43    0.38
   3   8   5    6.14    0.34
   3   8   5    6.26    0.28
  -4  -8  -5    2.00    0.23
   4   8   5    2.17    0.23
   4   8   5    2.50    0.17
   4   8   5    2.34    0.26
  -5  -8  -5    0.17    0.11
   5   8   5    0.09    0.11
  -6  -8  -5    2.58    0.24
   6   8   5    2.73    0.29
  -7  -8  -5   11.81    0.64
  -7  -8  -5   12.13    0.46
  -8  -8  -5   -0.10    0.14
  -8  -8  -5    0.00    0.10
  -9  -8  -5    0.06    0.12
  -9  -8  -5    0.27    0.21
  -9  -8  -5    0.17    0.15
   4  -9  -5    0.20    0.22
  -4   9   5   -0.32    0.16
   3  -9  -5    4.48    0.53
  -3   9   5    2.39    0.34
  -3   9   5    3.74    0.46
   2  -9  -5    0.53    0.23
  -2   9   5    0.50    0.18
  -2   9   5    0.53    0.20
   1  -9  -5    1.18    0.24
  -1   9   5    1.13    0.23
  -1   9   5    1.32    0.23
  -1   9   5    0.96    0.22
   0  -9  -5    0.64    0.21
   0   9   5    0.49    0.17
   0   9   5    0.95    0.19
   0   9   5    0.55    0.18
  -1  -9  -5    0.51    0.17
   1   9   5    0.87    0.20
   1   9   5    0.64    0.18
   1   9   5    0.74    0.17
   1   9   5    1.28    0.20
   1   9   5    1.20    0.19
  -2  -9  -5    0.30    0.15
   2   9   5    0.19    0.13
   2   9   5    0.41    0.11
   2   9   5    0.12    0.12
   2   9   5    0.11    0.12
   2   9   5    0.18    0.10
  -3  -9  -5   -0.02    0.12
   3   9   5   -0.02    0.07
   3   9   5    0.16    0.10
   3   9   5   -0.06    0.09
   3   9   5    0.07    0.12
   3   9   5    0.01    0.09
  -4  -9  -5    0.02    0.13
   4   9   5    0.05    0.12
   4   9   5    0.05    0.11
  -5  -9  -5    0.52    0.16
   5   9   5    0.67    0.16
   5   9   5    0.98    0.18
  -6  -9  -5    1.43    0.20
   6   9   5    1.65    0.24
  -7  -9  -5    0.08    0.11
  -8  -9  -5    0.01    0.17
  -8  -9  -5   -0.03    0.11
  -9  -9  -5    0.41    0.23
   2 -10  -5    0.68    0.26
   1 -10  -5    0.36    0.21
  -1  10   5    0.59    0.20
   0 -10  -5    0.26    0.19
   0  10   5   -0.23    0.12
   0  10   5   -0.11    0.10
   0  10   5   -0.04    0.13
  -1 -10  -5    0.66    0.19
   1  10   5    0.88    0.22
   1  10   5    1.15    0.24
   1  10   5    0.30    0.17
  -2 -10  -5   -0.09    0.13
   2  10   5    0.14    0.15
   2  10   5    0.00    0.12
  -3 -10  -5    0.64    0.19
   3  10   5    0.55    0.17
   3  10   5    0.29    0.16
  -4 -10  -5   -0.16    0.11
   4  10   5    0.12    0.12
   4  10   5    0.00    0.12
  -5 -10  -5    0.26    0.16
   5  10   5    0.36    0.14
   5  10   5    0.72    0.19
  -6 -10  -5    0.11    0.12
   6  10   5   -0.01    0.11
  -7 -10  -5   -0.16    0.10
  -8 -10  -5    0.19    0.13
  -8 -10  -5    0.27    0.21
   1 -11  -5    0.53    0.27
   0 -11  -5    0.16    0.20
   0  11   5   -0.14    0.17
   0  11   5    0.13    0.15
  -1 -11  -5    0.14    0.17
   1  11   5    0.22    0.15
   1  11   5    0.25    0.18
  -2 -11  -5    0.44    0.20
   2  11   5    0.70    0.22
   2  11   5    0.32    0.18
  -3 -11  -5   -0.09    0.14
   3  11   5    0.07    0.15
   3  11   5   -0.05    0.13
  -4 -11  -5    0.08    0.15
   4  11   5    0.17    0.13
   4  11   5    0.03    0.15
  -5 -11  -5    0.47    0.19
   5  11   5    0.32    0.16
   5  11   5    0.72    0.19
  -6 -11  -5    0.13    0.14
   6  11   5    0.07    0.12
   6  11   5    0.19    0.15
  -7 -11  -5    0.10    0.12
   7  11   5    0.38    0.20
  -2 -12  -5    0.25    0.20
   2  12   5    0.11    0.16
  -3 -12  -5    0.13    0.17
   3  12   5   -0.09    0.14
  -4 -12  -5    2.57    0.35
   4  12   5    2.77    0.34
  -5 -12  -5    0.55    0.21
   5  12   5    0.28    0.17
  -3  -8   6   -0.04    0.13
  -2  -8   6   -0.14    0.13
   1   8  -6    1.22    0.24
   1   8  -6    1.18    0.26
  -1  -8   6    1.37    0.32
   0   8  -6    0.03    0.13
   0   8  -6    0.02    0.13
   0  -8   6    0.07    0.21
  -5  -7   6    0.23    0.13
  -4  -7   6    1.02    0.22
  -3  -7   6    0.18    0.14
  -2  -7   6    0.04    0.12
   1   7  -6    0.06    0.12
  -1  -7   6    0.17    0.14
   0   7  -6    0.41    0.16
   0  -7   6    0.48    0.19
  -1   7  -6    0.25    0.13
  -1   7  -6    0.03    0.13
   1  -7   6    0.14    0.19
  -2   7  -6    0.14    0.15
  -2   7  -6    0.29    0.17
   2  -7   6   -0.05    0.21
   6   6  -6    0.25    0.12
  -6  -6   6    0.05    0.11
  -5  -6   6   -0.04    0.09
  -4  -6   6    2.96    0.32
  -3  -6   6   -0.06    0.10
  -2  -6   6    0.20    0.14
   1   6  -6    0.15    0.12
  -1  -6   6   -0.10    0.12
   0   6  -6    0.17    0.12
   0  -6   6    0.11    0.15
  -1   6  -6    0.95    0.18
   1  -6   6    0.88    0.25
  -2   6  -6    2.22    0.29
  -2   6  -6    2.41    0.28
   2  -6   6    2.25    0.33
  -3   6  -6    0.07    0.12
   3  -6   6    0.01    0.19
   4  -6   6   -0.16    0.21
   7   5  -6   -0.09    0.10
  -7  -5   6   -0.13    0.09
   6   5  -6   -0.15    0.09
  -6  -5   6    0.08    0.10
  -5  -5   6    0.48    0.14
  -4  -5   6    2.25    0.27
  -3  -5   6    1.48    0.22
  -2  -5   6   -0.03    0.10
  -1  -5   6    1.63    0.25
   0   5  -6    1.49    0.20
   0   5  -6    1.35    0.19
   0  -5   6    1.65    0.25
  -1   5  -6    0.04    0.10
  -1   5  -6    0.04    0.08
   1  -5   6   -0.05    0.12
  -2   5  -6    0.33    0.15
  -2   5  -6    0.25    0.12
   2  -5   6    0.31    0.17
  -3   5  -6    2.13    0.31
  -3   5  -6    2.33    0.25
  -3   5  -6    1.79    0.27
   3  -5   6    2.85    0.41
  -4   5  -6    0.13    0.16
  -4   5  -6    0.48    0.22
  -4   5  -6    0.31    0.14
   4  -5   6    0.44    0.23
  -5   5  -6   -0.02    0.19
  -5   5  -6    0.42    0.20
   5  -5   6   -0.09    0.20
   7   4  -6    0.39    0.14
  -7  -4   6    0.47    0.15
  -7  -4   6    0.41    0.15
   6   4  -6    0.13    0.11
  -6  -4   6    0.14    0.11
   5   4  -6    0.50    0.13
  -5  -4   6    0.40    0.13
  -4  -4   6    1.27    0.20
  -3  -4   6   14.57    0.53
  -3  -4   6   14.66    0.54
  -2  -4   6    0.61    0.16
  -2  -4   6    0.39    0.12
  -2  -4   6    0.56    0.15
  -2  -4   6    0.46    0.13
  -2  -4   6    0.47    0.16
  -1  -4   6    4.70    0.33
  -1  -4   6    5.56    0.34
  -1  -4   6    5.27    0.32
   0   4  -6    0.96    0.15
   0   4  -6    0.55    0.13
   0  -4   6    0.90    0.17
   0  -4   6    0.25    0.13
  -1   4  -6    0.03    0.09
  -1   4  -6    0.06    0.08
   1  -4   6    0.16    0.12
   1  -4   6    0.17    0.12
  -2   4  -6   -0.06    0.07
  -2   4  -6   -0.01    0.11
  -2   4  -6    0.13    0.14
   2  -4   6    0.07    0.13
  -3   4  -6   15.07    0.68
  -3   4  -6   13.57    0.48
  -3   4  -6   13.33    0.60
   3  -4   6   15.14    0.66
  -4   4  -6    0.11    0.15
  -4   4  -6   -0.15    0.07
  -4   4  -6    0.15    0.17
   4  -4   6    0.18    0.16
  -5   4  -6   -0.04    0.15
  -5   4  -6    0.01    0.10
  -5   4  -6    0.17    0.19
   5  -4   6    0.07    0.17
  -6   4  -6   -0.17    0.17
  -6   4  -6   -0.06    0.18
   6  -4   6   -0.05    0.19
   7   3  -6    0.58    0.15
  -7  -3   6    0.52    0.15
  -7  -3   6    0.36    0.14
   6   3  -6    1.86    0.23
  -6  -3   6    1.81    0.23
  -6  -3   6    1.83    0.24
   5   3  -6    0.02    0.10
  -5  -3   6    0.01    0.09
  -4  -3   6    0.07    0.08
  -4  -3   6    0.15    0.10
  -3  -3   6   10.06    0.42
  -3  -3   6    9.23    0.43
  -3  -3   6    9.19    0.40
  -3  -3   6    8.97    0.40
  -2  -3   6    0.77    0.17
  -2  -3   6    0.73    0.17
  -2  -3   6    0.55    0.13
  -2  -3   6    0.42    0.13
  -2  -3   6    0.53    0.12
  -1  -3   6    6.32    0.30
  -1  -3   6    6.88    0.32
  -1  -3   6    6.84    0.36
  -1  -3   6    6.84    0.36
  -1  -3   6    5.92    0.34
   0   3  -6    0.23    0.10
   0  -3   6   -0.04    0.07
   0  -3   6   -0.02    0.07
   0  -3   6   -0.03    0.10
  -1   3  -6   -0.07    0.07
  -1   3  -6    0.09    0.12
  -1   3  -6    0.04    0.06
   1  -3   6   -0.05    0.08
   1  -3   6    0.11    0.10
  -2   3  -6    0.46    0.14
  -2   3  -6    0.15    0.14
  -2   3  -6    0.47    0.10
   2  -3   6    0.29    0.12
   2  -3   6    0.34    0.16
  -3   3  -6    2.60    0.34
  -3   3  -6    2.55    0.19
  -3   3  -6    2.60    0.28
   3  -3   6    3.04    0.32
  -4   3  -6    0.46    0.22
  -4   3  -6    0.61    0.19
  -4   3  -6    0.35    0.11
   4  -3   6    0.59    0.20
  -5   3  -6   -0.04    0.16
  -5   3  -6   -0.08    0.07
  -5   3  -6    0.12    0.17
   5  -3   6    0.18    0.16
  -6   3  -6    0.25    0.20
  -6   3  -6    0.07    0.20
   6  -3   6   -0.04    0.15
  -7   3  -6    1.20    0.29
  -7   3  -6    1.21    0.35
   7  -3   6    0.82    0.28
  -8  -2   6    0.74    0.20
  -8  -2   6    0.32    0.16
   7   2  -6    1.14    0.20
  -7  -2   6    0.88    0.19
  -7  -2   6    0.82    0.19
   6   2  -6    0.52    0.14
  -6  -2   6    0.50    0.15
  -6  -2   6    0.62    0.16
   5   2  -6    0.03    0.08
  -5  -2   6    0.15    0.10
   4   2  -6    2.97    0.24
  -4  -2   6    3.05    0.28
  -4  -2   6    2.90    0.27
  -4  -2   6    2.87    0.24
   3   2  -6    9.41    0.34
  -3  -2   6    9.65    0.40
  -3  -2   6    8.78    0.40
  -3  -2   6   10.00    0.41
  -3  -2   6   10.09    0.42
   2   2  -6   29.99    0.71
  -2  -2   6   29.46    0.76
  -2  -2   6   29.79    0.77
  -2  -2   6   30.79    0.77
  -2  -2   6   30.02    0.74
   1   2  -6    0.00    0.09
  -1  -2   6   -0.04    0.06
  -1  -2   6    0.07    0.07
  -1  -2   6    0.06    0.08
  -1  -2   6   -0.05    0.08
  -1  -2   6    0.00    0.08
   0   2  -6    0.19    0.10
   0   2  -6    0.00    0.06
   0   2  -6   -0.03    0.08
   0  -2   6   -0.04    0.07
   0  -2   6    0.04    0.07
   0  -2   6   -0.04    0.06
   0  -2   6    0.06    0.09
  -1   2  -6    0.08    0.10
  -1   2  -6    0.03    0.10
  -1   2  -6    0.03    0.07
   1  -2   6    0.02    0.08
   1  -2   6   -0.04    0.07
  -2   2  -6    0.99    0.19
  -2   2  -6    0.53    0.15
  -2   2  -6    0.85    0.10
  -2   2  -6    0.87    0.17
   2  -2   6    1.06    0.21
   2  -2   6    0.74    0.15
  -3   2  -6    0.41    0.19
  -3   2  -6    0.19    0.12
  -3   2  -6    0.35    0.08
   3  -2   6    0.33    0.14
  -4   2  -6    5.07    0.39
  -4   2  -6    4.63    0.43
  -4   2  -6    4.85    0.24
   4  -2   6    6.00    0.41
  -5   2  -6    0.07    0.17
  -5   2  -6    0.15    0.14
   5  -2   6   -0.18    0.12
  -6   2  -6    0.60    0.24
  -6   2  -6    0.58    0.20
   6  -2   6    1.57    0.30
  -7   2  -6    0.11    0.17
  -7   2  -6    0.18    0.19
   7  -2   6   -0.14    0.14
  -8   2  -6    0.03    0.21
  -8   2  -6   -0.10    0.22
  -8  -1   6   -0.08    0.09
  -8  -1   6   -0.03    0.11
   7   1  -6    0.38    0.15
  -7  -1   6    0.59    0.17
  -7  -1   6    0.40    0.16
   6   1  -6    2.56    0.27
  -6  -1   6    2.41    0.29
  -6  -1   6    2.02    0.25
   5   1  -6    0.09    0.11
  -5  -1   6    0.10    0.11
  -5  -1   6    0.19    0.12
   4   1  -6    0.03    0.07
   4   1  -6   -0.16    0.07
  -4  -1   6    0.05    0.09
  -4  -1   6    0.02    0.09
   3   1  -6    0.10    0.09
   3   1  -6    0.13    0.09
  -3  -1   6    0.10    0.09
  -3  -1   6   -0.10    0.06
  -3  -1   6    0.13    0.10
   2   1  -6    7.88    0.33
  -2  -1   6    8.19    0.33
  -2  -1   6    7.51    0.34
  -2  -1   6    7.01    0.34
  -2  -1   6    7.97    0.36
   1   1  -6    1.74    0.19
   1   1  -6    1.95    0.14
  -1  -1   6    2.47    0.26
  -1  -1   6    1.62    0.16
  -1  -1   6    1.84    0.13
  -1  -1   6    2.17    0.24
  -1  -1   6    1.57    0.19
   0   1  -6    0.59    0.12
   0   1  -6    0.39    0.12
   0  -1   6    0.36    0.11
   0  -1   6    0.63    0.09
   0  -1   6    0.51    0.14
   0  -1   6    0.28    0.10
   0  -1   6    0.34    0.10
  -1   1  -6    8.13    0.36
  -1   1  -6    7.88    0.35
  -1   1  -6    7.84    0.37
   1  -1   6    7.87    0.37
   1  -1   6    7.63    0.33
  -2   1  -6    0.01    0.09
  -2   1  -6    0.19    0.13
  -2   1  -6    0.11    0.10
   2  -1   6   -0.03    0.07
   2  -1   6    0.23    0.11
  -3   1  -6   11.48    0.28
  -3   1  -6   12.33    0.51
  -3   1  -6   12.58    0.53
  -3   1  -6   11.52    0.48
   3  -1   6   12.03    0.49
  -4   1  -6   14.45    0.59
  -4   1  -6   13.87    0.61
  -4   1  -6   13.59    0.35
  -4   1  -6   12.73    0.55
   4  -1   6   14.51    0.57
  -5   1  -6    0.35    0.17
  -5   1  -6    0.30    0.21
   5  -1   6    0.67    0.20
  -6   1  -6   -0.28    0.14
  -6   1  -6   -0.06    0.14
   6  -1   6    0.02    0.13
  -7   1  -6    1.07    0.30
  -7   1  -6    0.75    0.22
   7  -1   6    0.74    0.22
  -8   1  -6    0.58    0.25
  -8   1  -6    0.15    0.21
  -8   0   6    0.04    0.14
  -8   0   6   -0.01    0.13
  -7   0   6    0.25    0.14
   6   0  -6    0.13    0.12
  -6   0   6    0.39    0.15
  -6   0   6    0.21    0.12
   5   0  -6    0.28    0.11
   5   0  -6    0.27    0.13
  -5   0   6    0.30    0.12
  -5   0   6    0.69    0.16
   4   0  -6    1.28    0.18
   4   0  -6    1.09    0.17
  -4   0   6    1.47    0.20
  -4   0   6    1.34    0.21
  -4   0   6    1.35    0.21
   3   0  -6    1.60    0.19
   3   0  -6    1.98    0.22
  -3   0   6    1.54    0.20
  -3   0   6    1.96    0.23
   2   0  -6    3.82    0.25
   2   0  -6    4.20    0.26
  -2   0   6    4.10    0.26
  -2   0   6    3.88    0.25
  -2   0   6    3.77    0.26
   1   0  -6    0.52    0.14
   1   0  -6    0.44    0.08
  -1   0   6    0.17    0.08
  -1   0   6    0.42    0.13
  -1   0   6    0.45    0.13
   0   0  -6    0.28    0.09
   0   0  -6   -0.01    0.08
   0   0   6    0.08    0.09
   0   0   6    0.06    0.06
   0   0   6   -0.06    0.05
   0   0   6   -0.02    0.05
   0   0   6    0.01    0.04
  -1   0  -6    0.07    0.09
  -1   0  -6   -0.02    0.06
  -1   0  -6    0.05    0.08
   1   0   6    0.02    0.07
   1   0   6    0.02    0.03
   1   0   6   -0.03    0.06
   1   0   6   -0.12    0.07
  -2   0  -6    0.12    0.11
  -2   0  -6   -0.02    0.07
  -2   0  -6    0.24    0.11
   2   0   6    0.09    0.10
   2   0   6    0.08    0.08
   2   0   6    0.04    0.07
  -3   0  -6    3.76    0.29
  -3   0  -6    3.83    0.31
  -3   0  -6    4.01    0.29
   3   0   6    3.68    0.28
   3   0   6    3.71    0.27
  -4   0  -6    2.15    0.24
  -4   0  -6    3.10    0.32
  -4   0  -6    2.40    0.31
   4   0   6    2.58    0.27
  -5   0  -6   23.69    0.77
  -5   0  -6   21.66    0.79
  -5   0  -6   22.02    0.74
   5   0   6   22.23    0.71
  -6   0  -6    1.40    0.24
  -6   0  -6    1.04    0.25
   6   0   6    1.57    0.24
  -7   0  -6    0.35    0.21
  -7   0  -6   -0.02    0.15
   7   0   6    0.06    0.15
  -8   0  -6    0.11    0.19
  -8   0  -6   -0.16    0.17
  -9   0  -6    0.90    0.33
  -9   0  -6    0.17    0.22
  -8   1   6    0.07    0.16
  -8   1   6    0.21    0.18
  -7   1   6    2.53    0.35
   6  -1  -6    0.26    0.13
  -6   1   6    0.04    0.12
   5  -1  -6    0.18    0.11
   5  -1  -6    0.22    0.12
  -5   1   6    0.27    0.13
   4  -1  -6    0.06    0.10
   4  -1  -6    0.12    0.11
  -4   1   6    0.13    0.10
  -4   1   6    0.01    0.09
  -4   1   6    0.21    0.12
   3  -1  -6    2.94    0.24
   3  -1  -6    3.07    0.24
  -3   1   6    3.00    0.25
  -3   1   6    3.68    0.32
  -3   1   6    2.70    0.26
   2  -1  -6   -0.14    0.07
   2  -1  -6   -0.01    0.07
  -2   1   6    0.02    0.08
  -2   1   6    0.04    0.08
   1  -1  -6    0.90    0.17
   1  -1  -6    0.92    0.10
   1  -1  -6    0.53    0.11
  -1   1   6    0.69    0.13
  -1   1   6    0.69    0.14
  -1   1   6    0.93    0.16
   0  -1  -6   18.57    0.55
   0  -1  -6   18.62    0.45
   0   1   6   17.56    0.53
   0   1   6   17.55    0.53
   0   1   6   17.78    0.54
  -1  -1  -6   51.11    1.07
  -1  -1  -6   51.68    1.08
  -1  -1  -6   50.64    0.99
   1   1   6   51.37    1.07
   1   1   6   49.93    1.05
   1   1   6   49.21    0.78
  -2  -1  -6   20.40    0.58
  -2  -1  -6   20.40    0.60
  -2  -1  -6   21.16    0.61
   2   1   6   19.77    0.59
   2   1   6   20.31    0.56
   2   1   6   20.65    0.60
  -3  -1  -6    5.63    0.32
  -3  -1  -6    5.44    0.31
  -3  -1  -6    5.08    0.33
   3   1   6    4.86    0.29
   3   1   6    5.26    0.29
  -4  -1  -6    3.28    0.27
  -4  -1  -6    2.41    0.27
  -4  -1  -6    2.37    0.25
   4   1   6    3.37    0.31
  -5  -1  -6   34.96    0.93
  -5  -1  -6   33.33    0.96
  -5  -1  -6   32.87    0.91
   5   1   6   33.99    0.86
  -6  -1  -6    5.65    0.40
  -6  -1  -6    6.35    0.47
  -6  -1  -6    6.06    0.42
   6   1   6    6.32    0.38
  -7  -1  -6    0.59    0.23
  -7  -1  -6    0.49    0.19
   7   1   6    0.87    0.20
  -8  -1  -6    0.08    0.17
  -8  -1  -6    0.01    0.19
  -9  -1  -6    0.19    0.21
  -9  -1  -6    0.49    0.25
  -7   2   6    0.28    0.17
  -7   2   6    0.21    0.14
  -6   2   6    0.02    0.12
   5  -2  -6    4.88    0.34
   5  -2  -6    4.93    0.33
  -5   2   6    4.46    0.34
   4  -2  -6    0.55    0.17
   4  -2  -6    0.68    0.16
  -4   2   6    0.45    0.15
   3  -2  -6   -0.06    0.10
   3  -2  -6    0.05    0.09
  -3   2   6    0.00    0.08
  -3   2   6    0.05    0.09
   2  -2  -6    3.07    0.23
   2  -2  -6    3.96    0.27
  -2   2   6    4.00    0.28
  -2   2   6    4.13    0.28
   1  -2  -6    8.11    0.37
   1  -2  -6    8.44    0.26
   1  -2  -6    8.41    0.35
  -1   2   6    9.21    0.42
  -1   2   6    8.32    0.37
   0  -2  -6    0.55    0.11
   0  -2  -6    0.54    0.14
   0  -2  -6    0.51    0.11
   0   2   6    0.37    0.11
   0   2   6    0.43    0.11
  -1  -2  -6    1.10    0.15
  -1  -2  -6    1.23    0.16
   1   2   6    1.10    0.14
   1   2   6    1.24    0.16
  -2  -2  -6    9.76    0.48
  -2  -2  -6    8.70    0.38
  -2  -2  -6    8.68    0.36
  -2  -2  -6    8.66    0.37
   2   2   6    9.23    0.38
   2   2   6    9.30    0.37
  -3  -2  -6   -0.01    0.09
  -3  -2  -6    0.05    0.11
  -3  -2  -6   -0.05    0.07
  -3  -2  -6   -0.13    0.06
   3   2   6    0.07    0.07
   3   2   6    0.09    0.09
  -4  -2  -6    1.29    0.24
  -4  -2  -6    0.98    0.17
  -4  -2  -6    0.72    0.15
  -4  -2  -6    1.02    0.21
   4   2   6    0.93    0.15
  -5  -2  -6   24.71    0.73
  -5  -2  -6   24.41    0.78
  -5  -2  -6   23.69    0.49
  -5  -2  -6   24.58    0.72
   5   2   6   23.60    0.67
  -6  -2  -6    1.26    0.21
  -6  -2  -6    1.38    0.14
  -6  -2  -6    1.24    0.25
  -6  -2  -6    1.53    0.24
   6   2   6    1.55    0.23
  -7  -2  -6    0.17    0.09
  -7  -2  -6    0.64    0.20
  -7  -2  -6    0.10    0.17
  -7  -2  -6    0.47    0.16
   7   2   6    0.36    0.15
  -8  -2  -6   -0.22    0.18
  -8  -2  -6    0.05    0.17
  -9  -2  -6    0.33    0.25
  -9  -2  -6    0.27    0.22
  -7   3   6    0.27    0.19
  -7   3   6    0.34    0.20
  -6   3   6    0.11    0.13
  -6   3   6    0.17    0.15
   5  -3  -6    0.12    0.13
  -5   3   6    0.04    0.11
   4  -3  -6    2.11    0.18
   4  -3  -6    2.26    0.28
   4  -3  -6    2.27    0.27
  -4   3   6    2.90    0.35
  -4   3   6    3.14    0.36
   3  -3  -6    0.04    0.08
   3  -3  -6    0.10    0.12
   3  -3  -6    0.03    0.06
  -3   3   6    0.06    0.12
  -3   3   6    0.10    0.08
   2  -3  -6    3.70    0.26
   2  -3  -6    3.71    0.28
  -2   3   6    3.56    0.27
  -2   3   6    3.66    0.27
   1  -3  -6    9.59    0.39
   1  -3  -6    9.42    0.41
  -1   3   6   10.02    0.42
  -1   3   6    9.89    0.42
   0  -3  -6    0.47    0.11
   0  -3  -6    0.55    0.14
   0   3   6    0.73    0.14
   0   3   6    0.83    0.14
  -1  -3  -6    1.16    0.15
  -1  -3  -6    0.80    0.13
  -1  -3  -6    0.95    0.14
   1   3   6    0.80    0.14
   1   3   6    0.92    0.13
  -2  -3  -6   13.70    0.46
  -2  -3  -6   12.68    0.45
  -2  -3  -6   14.09    0.44
  -2  -3  -6   13.87    0.48
   2   3   6   14.33    0.46
   2   3   6   13.80    0.30
   2   3   6   13.36    0.45
  -3  -3  -6    0.34    0.11
  -3  -3  -6    0.35    0.11
  -3  -3  -6    0.24    0.11
  -3  -3  -6    0.31    0.12
   3   3   6    0.27    0.09
   3   3   6    0.37    0.12
  -4  -3  -6    0.38    0.13
  -4  -3  -6    0.41    0.16
  -4  -3  -6    0.21    0.10
  -4  -3  -6    0.26    0.12
   4   3   6    0.41    0.12
  -5  -3  -6   11.56    0.32
  -5  -3  -6   11.34    0.46
  -5  -3  -6   11.67    0.47
  -5  -3  -6   11.14    0.46
  -5  -3  -6   11.81    0.53
   5   3   6   11.53    0.43
  -6  -3  -6   12.14    0.52
  -6  -3  -6   12.34    0.59
  -6  -3  -6   12.27    0.51
  -6  -3  -6   11.90    0.50
  -6  -3  -6   12.14    0.37
   6   3   6   11.59    0.44
  -7  -3  -6    0.24    0.19
  -7  -3  -6   -0.03    0.13
  -7  -3  -6    0.05    0.08
  -7  -3  -6    0.22    0.16
   7   3   6    0.17    0.12
  -8  -3  -6    0.09    0.15
  -8  -3  -6    0.38    0.17
  -8  -3  -6    0.48    0.22
  -9  -3  -6    0.05    0.19
  -9  -3  -6    0.07    0.19
  -7   4   6    0.42    0.22
  -7   4   6    0.35    0.21
   6  -4  -6    0.73    0.34
  -6   4   6    0.79    0.22
  -6   4   6    0.22    0.16
   5  -4  -6    0.31    0.15
  -5   4   6    0.38    0.19
  -5   4   6    0.36    0.15
   4  -4  -6    0.01    0.14
   4  -4  -6   -0.01    0.11
   4  -4  -6    0.02    0.11
  -4   4   6    0.03    0.12
   3  -4  -6    0.77    0.16
   3  -4  -6    0.96    0.20
   3  -4  -6    0.77    0.14
  -3   4   6    0.82    0.18
  -3   4   6    0.63    0.17
   2  -4  -6   25.80    0.74
   2  -4  -6   24.46    0.71
  -2   4   6   24.71    0.76
  -2   4   6   26.45    0.77
  -2   4   6   25.66    0.71
   1  -4  -6    1.25    0.18
   1  -4  -6    1.51    0.22
  -1   4   6    1.54    0.19
  -1   4   6    1.36    0.19
  -1   4   6    1.57    0.22
   0  -4  -6   -0.05    0.08
   0  -4  -6    0.06    0.08
   0   4   6    0.13    0.10
   0   4   6    0.18    0.09
   0   4   6    0.05    0.08
  -1  -4  -6    5.36    0.28
  -1  -4  -6    5.85    0.32
   1   4   6    5.36    0.30
   1   4   6    5.42    0.28
   1   4   6    5.47    0.30
  -2  -4  -6    0.47    0.11
  -2  -4  -6    0.39    0.13
  -2  -4  -6    0.31    0.12
   2   4   6    0.33    0.07
   2   4   6    0.46    0.12
   2   4   6    0.40    0.10
  -3  -4  -6    0.07    0.09
  -3  -4  -6    0.10    0.09
  -3  -4  -6    0.34    0.14
  -3  -4  -6    0.09    0.10
   3   4   6    0.16    0.09
   3   4   6    0.16    0.05
  -4  -4  -6    9.38    0.40
  -4  -4  -6    9.80    0.46
  -4  -4  -6    9.33    0.39
  -4  -4  -6    9.42    0.40
   4   4   6    8.43    0.35
  -5  -4  -6   11.48    0.53
  -5  -4  -6   11.18    0.44
  -5  -4  -6   11.44    0.46
  -5  -4  -6   11.83    0.46
  -5  -4  -6   11.09    0.34
   5   4   6   10.72    0.39
  -6  -4  -6    0.38    0.20
  -6  -4  -6    0.25    0.10
  -6  -4  -6    0.35    0.14
  -6  -4  -6    0.55    0.16
  -6  -4  -6    0.32    0.14
   6   4   6    0.43    0.12
  -7  -4  -6    1.70    0.24
  -7  -4  -6    1.60    0.18
  -7  -4  -6    1.79    0.30
  -7  -4  -6    1.66    0.24
   7   4   6    1.97    0.21
  -8  -4  -6   -0.03    0.13
  -8  -4  -6   -0.10    0.13
  -8  -4  -6    0.12    0.15
  -8  -4  -6   -0.04    0.18
  -9  -4  -6    0.41    0.18
  -9  -4  -6    0.12    0.16
  -9  -4  -6    0.21    0.22
 -10  -4  -6   -0.17    0.20
 -10  -4  -6    0.05    0.21
   6  -5  -6    0.22    0.22
  -6   5   6    0.42    0.21
  -6   5   6    0.19    0.17
   5  -5  -6    0.35    0.20
  -5   5   6    0.69    0.20
  -5   5   6    0.53    0.22
   4  -5  -6    1.65    0.26
  -4   5   6    1.47    0.26
  -4   5   6    1.66    0.27
   3  -5  -6    8.00    0.46
   3  -5  -6    8.28    0.43
  -3   5   6    8.34    0.46
  -3   5   6    7.54    0.41
  -3   5   6    8.06    0.45
   2  -5  -6   12.07    0.49
   2  -5  -6   12.16    0.53
  -2   5   6   12.23    0.53
  -2   5   6   11.76    0.48
   1  -5  -6    2.33    0.23
   1  -5  -6    2.50    0.26
  -1   5   6    2.23    0.23
  -1   5   6    2.53    0.24
  -1   5   6    2.26    0.24
   0  -5  -6    0.14    0.08
   0  -5  -6    0.12    0.11
   0   5   6    0.14    0.10
   0   5   6    0.03    0.07
   0   5   6    0.13    0.10
  -1  -5  -6    1.78    0.20
  -1  -5  -6    1.95    0.22
   1   5   6    1.64    0.20
   1   5   6    1.55    0.19
   1   5   6    1.51    0.19
  -2  -5  -6    0.73    0.14
  -2  -5  -6    0.79    0.16
   2   5   6    0.92    0.16
   2   5   6    0.64    0.13
   2   5   6    0.83    0.12
  -3  -5  -6    3.87    0.28
  -3  -5  -6    3.67    0.26
   3   5   6    3.69    0.25
   3   5   6    3.42    0.23
   3   5   6    3.83    0.21
  -4  -5  -6    1.41    0.23
  -4  -5  -6    1.44    0.19
  -4  -5  -6    1.20    0.17
  -4  -5  -6    1.00    0.16
   4   5   6    1.32    0.17
   4   5   6    1.34    0.14
   4   5   6    1.69    0.19
  -5  -5  -6    0.48    0.13
  -5  -5  -6    0.55    0.19
  -5  -5  -6    0.42    0.13
  -5  -5  -6    0.37    0.10
  -5  -5  -6    0.37    0.12
   5   5   6    0.43    0.11
   5   5   6    0.39    0.11
  -6  -5  -6    1.55    0.21
  -6  -5  -6    1.76    0.29
  -6  -5  -6    1.20    0.19
  -6  -5  -6    1.48    0.21
  -6  -5  -6    1.55    0.18
   6   5   6    1.80    0.18
   6   5   6    1.69    0.18
  -7  -5  -6    2.31    0.26
  -7  -5  -6    2.23    0.26
  -7  -5  -6    2.31    0.23
  -7  -5  -6    2.56    0.36
  -8  -5  -6   -0.02    0.12
  -8  -5  -6   -0.10    0.13
  -8  -5  -6   -0.06    0.17
  -8  -5  -6    0.06    0.13
  -9  -5  -6    0.05    0.16
  -9  -5  -6    0.36    0.17
  -9  -5  -6    0.35    0.21
 -10  -5  -6    0.37    0.26
 -10  -5  -6    0.46    0.23
  -6   6   6    0.07    0.19
  -6   6   6    0.10    0.17
   5  -6  -6    0.17    0.19
  -5   6   6   -0.01    0.15
  -5   6   6    0.19    0.15
   4  -6  -6    0.25    0.20
  -4   6   6    0.09    0.14
  -4   6   6    0.13    0.16
   3  -6  -6   15.01    0.64
  -3   6   6   13.99    0.63
  -3   6   6   14.04    0.62
   2  -6  -6    1.22    0.22
   2  -6  -6    1.35    0.21
  -2   6   6    1.35    0.23
  -2   6   6    0.88    0.18
  -2   6   6    1.71    0.24
   1  -6  -6   10.18    0.45
   1  -6  -6   11.16    0.50
  -1   6   6   11.29    0.51
  -1   6   6   10.66    0.46
  -1   6   6    9.92    0.47
  -1   6   6   10.87    0.49
   0  -6  -6    2.20    0.24
   0  -6  -6    2.34    0.30
   0   6   6    2.90    0.29
   0   6   6    2.40    0.24
   0   6   6    2.36    0.24
  -1  -6  -6    1.30    0.20
   1   6   6    1.49    0.19
   1   6   6    1.73    0.22
   1   6   6    1.66    0.21
  -2  -6  -6    2.12    0.24
   2   6   6    2.33    0.23
   2   6   6    1.97    0.22
   2   6   6    1.77    0.18
   2   6   6    2.11    0.22
  -3  -6  -6   10.56    0.42
  -3  -6  -6   11.10    0.45
   3   6   6   11.04    0.40
   3   6   6   10.61    0.40
   3   6   6   11.00    0.41
  -4  -6  -6    4.36    0.28
  -4  -6  -6    4.27    0.29
   4   6   6    4.77    0.25
   4   6   6    3.52    0.23
   4   6   6    4.62    0.25
  -5  -6  -6    0.61    0.14
  -5  -6  -6    0.69    0.20
  -5  -6  -6    0.40    0.13
  -5  -6  -6    0.85    0.18
   5   6   6    0.37    0.10
   5   6   6    0.61    0.12
   5   6   6    0.60    0.12
  -6  -6  -6    2.24    0.24
  -6  -6  -6    2.37    0.32
  -6  -6  -6    1.97    0.23
  -6  -6  -6    2.20    0.24
  -6  -6  -6    2.07    0.23
   6   6   6    2.38    0.17
  -7  -6  -6    3.92    0.32
  -7  -6  -6    3.59    0.30
  -7  -6  -6    4.01    0.32
  -7  -6  -6    4.14    0.43
  -8  -6  -6    0.12    0.14
  -8  -6  -6    0.00    0.16
  -8  -6  -6   -0.02    0.12
  -9  -6  -6    0.74    0.26
  -9  -6  -6    0.34    0.17
  -9  -6  -6    0.47    0.20
 -10  -6  -6    0.99    0.29
 -10  -6  -6    2.12    0.30
 -10  -6  -6    1.84    0.32
   5  -7  -6    0.71    0.24
  -5   7   6    1.09    0.28
  -5   7   6    0.91    0.26
   4  -7  -6    0.29    0.21
  -4   7   6    0.65    0.22
  -4   7   6    0.45    0.21
   3  -7  -6    1.90    0.33
  -3   7   6    1.16    0.24
  -3   7   6    1.39    0.26
   2  -7  -6    0.05    0.14
  -2   7   6   -0.02    0.10
  -2   7   6   -0.09    0.11
  -2   7   6   -0.06    0.11
   1  -7  -6    0.79    0.21
  -1   7   6    0.69    0.17
  -1   7   6    0.48    0.18
  -1   7   6    0.89    0.20
  -1   7   6    0.68    0.17
   0  -7  -6    8.06    0.45
   0   7   6    8.24    0.43
   0   7   6    8.14    0.42
   0   7   6    8.42    0.42
   0   7   6    8.15    0.42
  -1  -7  -6    0.32    0.13
   1   7   6    0.57    0.15
   1   7   6    0.23    0.13
   1   7   6    0.41    0.13
   1   7   6    0.20    0.11
  -2  -7  -6    0.38    0.14
   2   7   6    0.21    0.10
   2   7   6    0.48    0.13
   2   7   6    0.62    0.15
   2   7   6    0.32    0.12
   2   7   6    0.39    0.13
  -3  -7  -6   -0.07    0.10
   3   7   6    0.12    0.09
   3   7   6    0.03    0.09
   3   7   6    0.09    0.10
   3   7   6    0.11    0.08
   3   7   6    0.05    0.09
  -4  -7  -6    6.16    0.35
  -4  -7  -6    5.74    0.32
   4   7   6    5.27    0.26
   4   7   6    5.41    0.28
   4   7   6    5.33    0.26
   4   7   6    5.68    0.32
  -5  -7  -6    0.31    0.13
  -5  -7  -6    0.19    0.11
   5   7   6    0.26    0.10
   5   7   6    0.20    0.07
   5   7   6    0.19    0.08
   5   7   6    0.23    0.08
  -6  -7  -6    0.82    0.17
  -6  -7  -6    0.64    0.21
  -6  -7  -6    1.01    0.18
  -7  -7  -6   -0.08    0.16
  -7  -7  -6   -0.06    0.14
  -7  -7  -6    0.14    0.12
  -7  -7  -6    0.10    0.12
  -8  -7  -6    0.73    0.18
  -8  -7  -6    0.84    0.25
  -8  -7  -6    0.65    0.18
  -9  -7  -6    0.18    0.15
  -9  -7  -6    0.16    0.20
  -9  -7  -6    0.12    0.16
   4  -8  -6    0.36    0.25
  -4   8   6    0.37    0.19
  -4   8   6    0.39    0.21
   3  -8  -6    0.17    0.19
  -3   8   6   -0.02    0.13
  -3   8   6    0.06    0.15
   2  -8  -6    0.40    0.20
  -2   8   6    0.81    0.21
  -2   8   6    0.48    0.17
  -2   8   6    0.58    0.27
   1  -8  -6    0.12    0.15
  -1   8   6    0.05    0.13
  -1   8   6    0.16    0.13
  -1   8   6    0.24    0.14
   0  -8  -6    0.23    0.18
   0   8   6    0.08    0.11
   0   8   6    0.07    0.11
   0   8   6    0.26    0.13
   0   8   6    0.22    0.14
  -1  -8  -6   -0.07    0.12
  -1  -8  -6   -0.12    0.09
   1   8   6   -0.05    0.10
   1   8   6   -0.08    0.08
   1   8   6    0.06    0.10
   1   8   6   -0.02    0.11
   1   8   6    0.16    0.11
  -2  -8  -6    1.68    0.23
   2   8   6    1.60    0.20
   2   8   6    1.61    0.23
   2   8   6    1.31    0.20
   2   8   6    1.36    0.20
   2   8   6    1.61    0.21
  -3  -8  -6    0.46    0.16
   3   8   6    1.04    0.17
   3   8   6    0.10    0.08
   3   8   6    0.74    0.16
   3   8   6    0.46    0.14
   3   8   6    0.57    0.12
  -4  -8  -6    0.37    0.14
   4   8   6    0.21    0.12
   4   8   6    0.30    0.10
   4   8   6    0.33    0.11
   4   8   6    0.56    0.15
   4   8   6    0.19    0.08
  -5  -8  -6    0.08    0.11
   5   8   6    0.03    0.08
   5   8   6   -0.01    0.07
  -6  -8  -6    0.47    0.16
   6   8   6    0.61    0.15
  -7  -8  -6    0.09    0.12
  -7  -8  -6   -0.10    0.16
  -8  -8  -6    0.47    0.17
  -8  -8  -6    0.70    0.26
  -8  -8  -6    0.87    0.19
  -9  -8  -6    2.19    0.26
  -9  -8  -6    2.12    0.28
  -9  -8  -6    1.53    0.32
   3  -9  -6    0.28    0.23
  -3   9   6    0.20    0.19
  -3   9   6    0.20    0.19
   2  -9  -6   -0.02    0.21
  -2   9   6    0.16    0.16
  -2   9   6    0.24    0.20
   1  -9  -6   -0.16    0.15
  -1   9   6   -0.05    0.10
  -1   9   6   -0.07    0.11
  -1   9   6    0.11    0.13
   0  -9  -6    0.39    0.20
   0   9   6    0.14    0.12
   0   9   6    0.43    0.16
   0   9   6    0.34    0.15
   0   9   6   -0.02    0.11
  -1  -9  -6    1.76    0.30
   1   9   6    1.49    0.24
   1   9   6    1.37    0.23
   1   9   6    1.91    0.27
   1   9   6    1.58    0.24
   1   9   6    1.40    0.22
  -2  -9  -6    0.10    0.14
   2   9   6   -0.08    0.10
   2   9   6    0.05    0.10
   2   9   6   -0.01    0.11
   2   9   6   -0.09    0.10
   2   9   6    0.08    0.08
  -3  -9  -6   -0.04    0.11
   3   9   6    0.17    0.12
   3   9   6    0.37    0.15
   3   9   6   -0.09    0.10
   3   9   6    0.19    0.16
   3   9   6    0.19    0.11
  -4  -9  -6   -0.17    0.10
   4   9   6    0.17    0.12
   4   9   6   -0.06    0.10
  -5  -9  -6    0.07    0.12
   5   9   6   -0.01    0.10
  -6  -9  -6   -0.09    0.10
   6   9   6    0.07    0.11
  -7  -9  -6    0.32    0.15
  -7  -9  -6    0.36    0.20
  -8  -9  -6    0.20    0.21
  -8  -9  -6   -0.04    0.12
  -9  -9  -6    0.06    0.14
  -9  -9  -6    0.22    0.21
   2 -10  -6   -0.17    0.20
   1 -10  -6    0.09    0.19
  -1  10   6   -0.07    0.14
   0 -10  -6    0.18    0.20
   0  10   6   -0.11    0.14
   0  10   6   -0.02    0.15
   0  10   6   -0.12    0.13
  -1 -10  -6    1.60    0.29
   1  10   6    1.43    0.26
   1  10   6    1.62    0.26
   1  10   6    2.12    0.31
  -2 -10  -6    0.05    0.16
   2  10   6   -0.16    0.12
   2  10   6    0.17    0.14
  -3 -10  -6    0.05    0.14
   3  10   6    0.12    0.13
   3  10   6   -0.08    0.11
  -4 -10  -6    0.28    0.16
   4  10   6    0.03    0.13
   4  10   6    0.00    0.12
  -5 -10  -6    0.03    0.13
   5  10   6   -0.03    0.11
   5  10   6    0.05    0.13
  -6 -10  -6    0.06    0.12
   6  10   6   -0.12    0.11
  -7 -10  -6    0.25    0.14
  -8 -10  -6    0.59    0.17
  -8 -10  -6    0.21    0.22
   1 -11  -6   -0.22    0.22
   0 -11  -6    0.12    0.21
   0  11   6   -0.12    0.13
   0  11   6   -0.06    0.18
  -1 -11  -6    0.07    0.19
   1  11   6    0.03    0.15
   1  11   6    0.19    0.17
  -2 -11  -6    0.55    0.22
   2  11   6    0.63    0.21
   2  11   6    0.52    0.20
  -3 -11  -6    0.05    0.17
   3  11   6   -0.05    0.14
   3  11   6    0.21    0.16
  -4 -11  -6    1.54    0.27
   4  11   6    1.61    0.28
   4  11   6    1.91    0.27
  -5 -11  -6    0.04    0.17
   5  11   6    0.41    0.18
   5  11   6    0.21    0.15
  -6 -11  -6    0.09    0.15
   6  11   6    0.08    0.15
  -7 -11  -6    0.09    0.14
   7  11   6   -0.02    0.16
  -2 -12  -6    0.33    0.22
   2  12   6    0.23    0.18
  -3 -12  -6    0.96    0.27
   3  12   6    0.65    0.22
  -4 -12  -6   -0.15    0.18
   4  12   6    0.01    0.18
   4  12   6    0.10    0.17
  -5 -12  -6   -0.09    0.16
   5  12   6    0.20    0.22
   5  12   6   -0.05    0.15
  -3  -7   7    0.14    0.14
  -2  -7   7   -0.11    0.14
  -1  -7   7   -0.14    0.14
   0   7  -7    0.02    0.13
   0  -7   7   -0.09    0.17
  -5  -6   7    0.21    0.14
  -4  -6   7    1.74    0.28
  -3  -6   7    0.14    0.14
  -2  -6   7    0.42    0.18
  -1  -6   7    0.40    0.20
   0   6  -7   -0.13    0.10
   0  -6   7    0.15    0.18
  -1   6  -7   -0.01    0.11
   1  -6   7    0.13    0.19
  -2   6  -7    0.68    0.22
   2  -6   7    1.01    0.31
   3  -6   7    1.14    0.32
   6   5  -7   -0.07    0.11
  -6  -5   7    0.04    0.11
  -5  -5   7   -0.03    0.10
  -4  -5   7    6.58    0.40
  -3  -5   7   -0.18    0.09
  -2  -5   7    0.05    0.11
  -1  -5   7    2.19    0.32
   0  -5   7    6.87    0.45
  -1   5  -7    1.85    0.22
   1  -5   7    1.50    0.28
  -2   5  -7    1.03    0.17
   2  -5   7    1.19    0.27
   3  -5   7    0.11    0.19
   4  -5   7    0.28    0.22
   6   4  -7    0.03    0.12
  -6  -4   7    0.12    0.11
   5   4  -7    0.02    0.11
  -5  -4   7   -0.01    0.09
  -4  -4   7    0.08    0.12
  -3  -4   7    9.76    0.47
  -2  -4   7   -0.02    0.11
  -2  -4   7    0.17    0.13
  -1  -4   7    4.24    0.34
  -1  -4   7    4.09    0.30
   0   4  -7   -0.05    0.08
   0  -4   7    0.02    0.11
  -1   4  -7    0.17    0.12
  -1   4  -7    0.44    0.11
   1  -4   7    0.22    0.17
  -2   4  -7    0.24    0.10
  -2   4  -7    0.24    0.14
  -2   4  -7    0.28    0.15
   2  -4   7    0.15    0.15
  -3   4  -7    0.13    0.17
  -3   4  -7    0.10    0.09
  -3   4  -7    0.06    0.15
   3  -4   7    0.05    0.16
  -4   4  -7    0.35    0.22
  -4   4  -7    0.48    0.19
   4  -4   7    0.39    0.20
  -5   4  -7    0.29    0.21
  -5   4  -7    0.16    0.21
   5  -4   7    0.18    0.19
  -7  -3   7   -0.03    0.13
  -7  -3   7    0.06    0.12
   6   3  -7    0.22    0.15
  -6  -3   7    0.51    0.16
   5   3  -7    0.29    0.13
  -5  -3   7    0.65    0.16
  -4  -3   7    0.84    0.18
  -3  -3   7   11.16    0.49
  -2  -3   7    3.99    0.30
  -2  -3   7    4.66    0.33
  -2  -3   7    4.66    0.33
  -1  -3   7    3.59    0.26
  -1  -3   7    3.52    0.29
  -1  -3   7    3.76    0.37
  -1  -3   7    3.21    0.24
   0   3  -7    0.72    0.16
   0  -3   7    0.64    0.16
   0  -3   7    0.56    0.14
  -1   3  -7    5.47    0.35
  -1   3  -7    5.75    0.36
   1  -3   7    5.71    0.37
  -2   3  -7    0.80    0.20
  -2   3  -7    0.62    0.10
  -2   3  -7    0.64    0.18
   2  -3   7    0.71    0.18
  -3   3  -7    2.20    0.18
  -3   3  -7    2.11    0.33
  -3   3  -7    1.95    0.29
   3  -3   7    2.18    0.33
  -4   3  -7    0.15    0.17
  -4   3  -7   -0.04    0.07
  -4   3  -7    0.02    0.13
   4  -3   7    0.09    0.15
  -5   3  -7   -0.01    0.18
  -5   3  -7    0.03    0.17
   5  -3   7   -0.16    0.15
  -6   3  -7   -0.02    0.17
  -6   3  -7   -0.04    0.18
   6  -3   7   -0.20    0.18
  -7  -2   7    0.50    0.18
  -7  -2   7    0.36    0.15
   6   2  -7    0.07    0.12
  -6  -2   7    0.22    0.14
  -6  -2   7    0.22    0.12
   5   2  -7    0.09    0.12
  -5  -2   7    0.18    0.12
   4   2  -7   -0.01    0.10
  -4  -2   7    0.01    0.10
   3   2  -7    0.21    0.09
  -3  -2   7    0.17    0.10
  -3  -2   7    0.05    0.10
  -3  -2   7    0.12    0.09
   2   2  -7    0.46    0.14
  -2  -2   7    0.50    0.13
  -2  -2   7    0.49    0.15
  -2  -2   7   -0.01    0.08
  -2  -2   7    0.40    0.13
   1   2  -7    1.77    0.24
  -1  -2   7    1.60    0.21
  -1  -2   7    1.81    0.25
  -1  -2   7    1.43    0.18
  -1  -2   7    1.87    0.19
   0   2  -7    2.34    0.24
   0   2  -7    2.29    0.25
   0  -2   7    1.79    0.22
   0  -2   7    1.74    0.16
   0  -2   7    1.73    0.23
   0  -2   7    2.37    0.23
  -1   2  -7    0.16    0.11
  -1   2  -7    0.08    0.10
  -1   2  -7    0.32    0.13
   1  -2   7    0.24    0.12
   1  -2   7    0.03    0.09
  -2   2  -7    0.02    0.11
  -2   2  -7    0.04    0.13
  -2   2  -7    0.05    0.10
   2  -2   7   -0.04    0.12
  -3   2  -7   -0.18    0.12
  -3   2  -7    0.03    0.05
  -3   2  -7    0.19    0.13
   3  -2   7    0.01    0.13
  -4   2  -7    8.53    0.49
  -4   2  -7    8.03    0.27
  -4   2  -7    8.02    0.52
   4  -2   7    9.99    0.52
  -5   2  -7    0.17    0.08
  -5   2  -7    0.00    0.17
  -5   2  -7    0.24    0.16
   5  -2   7    0.15    0.16
  -6   2  -7    0.18    0.21
  -6   2  -7    0.42    0.21
   6  -2   7    0.41    0.20
  -7   2  -7    0.62    0.28
  -7   2  -7    0.24    0.23
   7  -2   7    0.45    0.24
  -7  -1   7   -0.06    0.11
  -7  -1   7    0.00    0.11
   6   1  -7    0.27    0.15
  -6  -1   7   -0.01    0.10
  -6  -1   7   -0.03    0.10
   5   1  -7    0.27    0.14
  -5  -1   7    0.22    0.13
  -5  -1   7    0.28    0.14
   4   1  -7    0.20    0.11
   4   1  -7    0.14    0.11
  -4  -1   7    0.17    0.12
   3   1  -7    1.08    0.18
   3   1  -7    0.87    0.16
  -3  -1   7    0.73    0.15
  -3  -1   7    0.93    0.17
  -3  -1   7    0.96    0.18
  -3  -1   7    1.15    0.21
   2   1  -7    2.65    0.27
  -2  -1   7    2.02    0.21
  -2  -1   7    2.02    0.22
  -2  -1   7    2.64    0.29
  -2  -1   7    2.20    0.27
   1   1  -7    0.14    0.07
   1   1  -7   -0.05    0.10
  -1  -1   7    0.05    0.09
  -1  -1   7   -0.06    0.10
  -1  -1   7    0.16    0.07
  -1  -1   7    0.03    0.07
   0   1  -7    0.09    0.09
   0   1  -7    0.09    0.10
   0  -1   7    0.05    0.06
   0  -1   7   -0.11    0.08
   0  -1   7    0.07    0.08
   0  -1   7    0.11    0.09
  -1   1  -7    0.00    0.09
  -1   1  -7   -0.02    0.11
  -1   1  -7    0.01    0.08
   1  -1   7   -0.03    0.08
   1  -1   7    0.02    0.08
   1  -1   7   -0.05    0.09
  -2   1  -7   -0.07    0.11
  -2   1  -7    0.05    0.11
  -2   1  -7    0.19    0.10
   2  -1   7    0.03    0.11
   2  -1   7    0.07    0.09
  -3   1  -7    0.77    0.18
  -3   1  -7    0.75    0.20
  -3   1  -7    0.74    0.17
   3  -1   7    0.79    0.18
  -4   1  -7   11.10    0.55
  -4   1  -7    9.71    0.55
  -4   1  -7   11.19    0.54
   4  -1   7   11.58    0.54
  -5   1  -7   -0.06    0.06
  -5   1  -7   -0.07    0.11
  -5   1  -7   -0.33    0.14
   5  -1   7    0.07    0.13
  -6   1  -7    0.18    0.20
  -6   1  -7    0.09    0.14
   6  -1   7   -0.06    0.14
  -7   1  -7    0.12    0.19
  -7   1  -7   -0.19    0.22
   7  -1   7   -0.16    0.15
  -8   1  -7    1.77    0.37
  -8   1  -7    2.26    0.39
  -7   0   7    0.62    0.20
  -7   0   7    0.16    0.15
  -6   0   7    0.00    0.11
  -6   0   7    0.06    0.11
   5   0  -7    1.10    0.21
  -5   0   7    1.09    0.21
  -5   0   7    0.83    0.19
   4   0  -7    1.87    0.25
   4   0  -7    1.57    0.21
  -4   0   7    1.64    0.22
  -4   0   7    1.65    0.23
   3   0  -7    2.61    0.27
   3   0  -7    2.82    0.27
  -3   0   7    2.26    0.24
  -3   0   7    3.16    0.38
  -3   0   7    2.75    0.30
   2   0  -7   24.55    0.70
   2   0  -7   24.27    0.68
  -2   0   7   24.97    0.72
  -2   0   7   24.32    0.71
   1   0  -7    2.55    0.26
  -1   0   7    2.54    0.18
  -1   0   7    1.81    0.21
  -1   0   7    2.40    0.29
   0   0  -7    2.00    0.19
   0   0  -7    1.82    0.22
   0   0   7    1.74    0.20
   0   0   7    1.99    0.18
   0   0   7    1.47    0.13
   0   0   7    1.74    0.21
  -1   0  -7    0.16    0.11
  -1   0  -7    0.02    0.09
  -1   0  -7    0.00    0.07
   1   0   7    0.17    0.09
   1   0   7   -0.01    0.08
   1   0   7    0.00    0.10
  -2   0  -7    0.11    0.10
  -2   0  -7    0.26    0.14
  -2   0  -7    0.16    0.11
   2   0   7    0.03    0.09
   2   0   7    0.09    0.09
  -3   0  -7    1.74    0.24
  -3   0  -7    2.04    0.27
  -3   0  -7    2.20    0.29
   3   0   7    2.03    0.29
  -4   0  -7    4.83    0.37
  -4   0  -7    5.80    0.42
  -4   0  -7    5.24    0.38
   4   0   7    5.08    0.36
  -5   0  -7   10.26    0.57
  -5   0  -7   10.82    0.55
  -5   0  -7   10.26    0.53
   5   0   7   10.14    0.50
  -6   0  -7    0.87    0.25
  -6   0  -7    0.55    0.21
  -6   0  -7    0.72    0.26
   6   0   7    0.82    0.20
  -7   0  -7    0.05    0.19
  -7   0  -7    0.47    0.23
   7   0   7    0.36    0.18
  -8   0  -7    0.57    0.25
  -8   0  -7    0.28    0.28
  -7   1   7   -0.12    0.12
  -7   1   7    0.04    0.14
  -6   1   7    0.28    0.15
  -6   1   7    0.40    0.17
   5  -1  -7    5.96    0.38
  -5   1   7    5.78    0.39
  -5   1   7    5.90    0.39
   4  -1  -7    0.24    0.12
   4  -1  -7    0.18    0.13
  -4   1   7    0.26    0.14
  -4   1   7    0.29    0.14
   3  -1  -7    0.84    0.18
   3  -1  -7    0.84    0.18
  -3   1   7    0.79    0.17
  -3   1   7    0.69    0.17
   2  -1  -7    4.11    0.35
   2  -1  -7    3.17    0.29
  -2   1   7    2.86    0.29
  -2   1   7    3.27    0.31
   1  -1  -7   44.17    1.01
   1  -1  -7   42.55    0.78
  -1   1   7   43.64    1.03
  -1   1   7   43.75    1.02
   0  -1  -7    0.54    0.12
   0  -1  -7    0.37    0.12
   0   1   7    0.66    0.14
   0   1   7    0.81    0.18
  -1  -1  -7    0.84    0.16
  -1  -1  -7    0.68    0.15
   1   1   7    0.88    0.15
   1   1   7    0.88    0.18
  -2  -1  -7    3.30    0.28
  -2  -1  -7    3.35    0.27
  -2  -1  -7    3.23    0.26
   2   1   7    2.55    0.24
   2   1   7    3.11    0.26
  -3  -1  -7    3.78    0.31
  -3  -1  -7    3.02    0.28
  -3  -1  -7    3.76    0.29
   3   1   7    3.71    0.29
  -4  -1  -7   -0.16    0.14
  -4  -1  -7    0.00    0.11
  -4  -1  -7    0.15    0.14
   4   1   7    0.05    0.10
  -5  -1  -7    3.16    0.34
  -5  -1  -7    4.11    0.43
  -5  -1  -7    3.51    0.37
   5   1   7    2.98    0.29
  -6  -1  -7   -0.03    0.15
  -6  -1  -7   -0.11    0.14
  -6  -1  -7    0.21    0.20
  -6  -1  -7   -0.04    0.05
   6   1   7   -0.18    0.12
  -7  -1  -7    0.17    0.19
  -7  -1  -7    0.22    0.21
  -7  -1  -7    0.02    0.15
   7   1   7   -0.03    0.13
  -8  -1  -7    1.33    0.35
  -8  -1  -7    0.37    0.21
  -9  -1  -7    0.07    0.22
  -9  -1  -7   -0.07    0.19
  -7   2   7    0.01    0.16
  -7   2   7    0.23    0.18
  -6   2   7    0.80    0.21
  -6   2   7    0.80    0.22
   5  -2  -7    0.58    0.17
  -5   2   7    0.45    0.18
  -5   2   7    0.12    0.13
   4  -2  -7    2.21    0.26
   4  -2  -7    1.38    0.21
  -4   2   7    1.63    0.23
  -4   2   7    1.76    0.27
   3  -2  -7    0.00    0.09
   3  -2  -7   -0.19    0.10
  -3   2   7    0.08    0.12
  -3   2   7   -0.06    0.10
   2  -2  -7    1.44    0.20
   2  -2  -7    1.32    0.19
  -2   2   7    1.90    0.25
  -2   2   7    1.56    0.21
   1  -2  -7   15.55    0.54
   1  -2  -7   14.35    0.38
   1  -2  -7   15.01    0.52
  -1   2   7   14.71    0.53
  -1   2   7   14.98    0.54
   0  -2  -7    6.61    0.28
   0  -2  -7    6.53    0.35
   0  -2  -7    6.33    0.33
   0   2   7    7.14    0.35
   0   2   7    7.28    0.37
  -1  -2  -7    1.76    0.21
  -1  -2  -7    1.80    0.20
   1   2   7    1.70    0.19
   1   2   7    1.63    0.20
  -2  -2  -7    0.46    0.14
  -2  -2  -7    0.35    0.12
  -2  -2  -7    0.40    0.13
   2   2   7    0.49    0.13
   2   2   7    0.32    0.11
  -3  -2  -7    2.66    0.27
  -3  -2  -7    2.36    0.26
  -3  -2  -7    2.01    0.24
   3   2   7    2.27    0.24
  -4  -2  -7    1.24    0.23
  -4  -2  -7    1.25    0.21
  -4  -2  -7    1.09    0.19
   4   2   7    1.27    0.20
  -5  -2  -7    1.78    0.26
  -5  -2  -7    1.73    0.31
  -5  -2  -7    2.48    0.31
   5   2   7    1.50    0.24
  -6  -2  -7   -0.01    0.15
  -6  -2  -7    0.09    0.14
  -6  -2  -7    0.11    0.06
  -6  -2  -7    0.39    0.19
   6   2   7    0.00    0.11
  -7  -2  -7    0.55    0.20
  -7  -2  -7    0.87    0.27
  -7  -2  -7    1.01    0.25
   7   2   7    0.40    0.17
  -8  -2  -7    0.17    0.16
  -8  -2  -7    0.14    0.21
  -8  -2  -7   -0.12    0.15
  -9  -2  -7   -0.16    0.21
  -9  -2  -7   -0.15    0.18
  -7   3   7    0.02    0.17
  -7   3   7    0.00    0.16
  -6   3   7    1.25    0.26
  -6   3   7    1.59    0.29
   5  -3  -7    0.75    0.19
  -5   3   7    0.84    0.23
   4  -3  -7    1.52    0.26
  -4   3   7    1.31    0.26
  -4   3   7    1.48    0.25
   3  -3  -7    1.34    0.25
  -3   3   7    1.37    0.24
  -3   3   7    1.13    0.22
   2  -3  -7    0.94    0.21
   2  -3  -7    1.02    0.17
  -2   3   7    0.83    0.18
  -2   3   7    0.67    0.16
   1  -3  -7    0.04    0.09
   1  -3  -7    0.17    0.14
   1  -3  -7    0.03    0.08
  -1   3   7    0.10    0.12
  -1   3   7    0.12    0.12
   0  -3  -7    2.73    0.27
   0  -3  -7    2.70    0.30
   0  -3  -7    2.60    0.20
   0   3   7    2.70    0.27
   0   3   7    2.77    0.28
  -1  -3  -7    3.47    0.24
  -1  -3  -7    3.37    0.24
  -1  -3  -7    2.42    0.25
   1   3   7    3.22    0.24
   1   3   7    3.23    0.26
  -2  -3  -7    4.88    0.30
  -2  -3  -7    4.43    0.28
  -2  -3  -7    4.47    0.31
   2   3   7    4.71    0.15
   2   3   7    4.58    0.30
  -3  -3  -7    2.35    0.27
  -3  -3  -7    1.71    0.21
  -3  -3  -7    2.79    0.30
   3   3   7    1.59    0.19
  -4  -3  -7    0.27    0.14
  -4  -3  -7    0.53    0.17
  -4  -3  -7    0.04    0.10
   4   3   7    0.19    0.11
  -5  -3  -7    0.87    0.19
  -5  -3  -7    1.03    0.19
  -5  -3  -7    0.80    0.24
   5   3   7    1.39    0.20
  -6  -3  -7    9.61    0.49
  -6  -3  -7    9.03    0.49
  -6  -3  -7    8.51    0.28
  -6  -3  -7    9.28    0.54
   6   3   7    8.85    0.42
  -7  -3  -7    0.48    0.23
  -7  -3  -7    0.58    0.19
  -7  -3  -7    0.42    0.20
   7   3   7    0.96    0.19
  -8  -3  -7    1.15    0.25
  -8  -3  -7    1.28    0.27
  -8  -3  -7    0.73    0.25
  -9  -3  -7   -0.29    0.17
  -9  -3  -7    0.05    0.19
  -6   4   7    0.27    0.18
  -6   4   7    0.56    0.21
   5  -4  -7    0.19    0.15
  -5   4   7    0.11    0.15
  -5   4   7    0.01    0.12
   4  -4  -7    0.38    0.15
  -4   4   7    0.20    0.13
   3  -4  -7    0.33    0.14
   3  -4  -7    0.30    0.17
   3  -4  -7    0.37    0.12
  -3   4   7    0.36    0.17
  -3   4   7    0.37    0.15
   2  -4  -7    7.02    0.38
   2  -4  -7    7.12    0.41
  -2   4   7    7.20    0.42
  -2   4   7    6.93    0.41
   1  -4  -7    2.08    0.29
   1  -4  -7    1.40    0.20
  -1   4   7    1.37    0.22
  -1   4   7    1.77    0.26
   0  -4  -7    8.87    0.44
   0  -4  -7    8.06    0.39
   0   4   7    9.13    0.42
   0   4   7    8.79    0.43
   0   4   7    8.95    0.43
  -1  -4  -7    0.09    0.11
  -1  -4  -7    0.06    0.09
   1   4   7   -0.11    0.08
   1   4   7    0.02    0.09
  -2  -4  -7    2.95    0.23
  -2  -4  -7    2.74    0.26
  -2  -4  -7    3.10    0.30
   2   4   7    2.77    0.15
   2   4   7    2.41    0.24
  -3  -4  -7   10.27    0.45
  -3  -4  -7   10.67    0.46
   3   4   7   10.03    0.26
   3   4   7    9.70    0.41
  -4  -4  -7   -0.02    0.10
  -4  -4  -7   -0.02    0.09
  -4  -4  -7    0.06    0.13
   4   4   7   -0.08    0.09
  -5  -4  -7    0.18    0.13
  -5  -4  -7    0.41    0.20
  -5  -4  -7    0.38    0.14
   5   4   7    0.34    0.12
  -6  -4  -7   20.57    0.69
  -6  -4  -7   19.29    0.75
  -6  -4  -7   17.41    0.46
  -6  -4  -7   19.43    0.67
   6   4   7   19.23    0.58
  -7  -4  -7    0.74    0.20
  -7  -4  -7    0.54    0.12
  -7  -4  -7    0.61    0.23
  -7  -4  -7    0.44    0.17
   7   4   7    0.44    0.15
  -8  -4  -7    0.01    0.15
  -8  -4  -7   -0.20    0.13
  -8  -4  -7    0.15    0.18
  -9  -4  -7    0.10    0.22
  -9  -4  -7    0.09    0.16
  -9  -4  -7   -0.19    0.16
  -6   5   7    0.35    0.21
  -6   5   7    0.08    0.18
   5  -5  -7    0.28    0.19
  -5   5   7    0.27    0.17
  -5   5   7    0.42    0.19
   4  -5  -7    1.34    0.26
  -4   5   7    1.18    0.24
  -4   5   7    1.53    0.28
   3  -5  -7    3.17    0.33
   3  -5  -7    3.37    0.33
  -3   5   7    3.45    0.40
  -3   5   7    3.70    0.38
   2  -5  -7    0.92    0.20
   2  -5  -7    0.74    0.17
  -2   5   7    0.59    0.18
  -2   5   7    0.83    0.19
  -2   5   7    0.33    0.14
   1  -5  -7   28.51    0.83
   1  -5  -7   27.39    0.78
  -1   5   7   27.24    0.83
  -1   5   7   26.84    0.78
  -1   5   7   27.01    0.83
   0  -5  -7   22.83    0.69
   0  -5  -7   23.53    0.73
   0   5   7   24.99    0.73
   0   5   7   22.97    0.72
  -1  -5  -7    2.45    0.28
  -1  -5  -7    1.88    0.21
   1   5   7    2.02    0.23
   1   5   7    1.55    0.21
  -2  -5  -7    1.32    0.21
   2   5   7    1.45    0.21
   2   5   7    1.37    0.14
   2   5   7    1.52    0.19
  -3  -5  -7    2.60    0.28
  -3  -5  -7    2.81    0.30
   3   5   7    3.05    0.26
   3   5   7    2.85    0.17
   3   5   7    2.82    0.27
  -4  -5  -7    0.09    0.12
  -4  -5  -7    0.28    0.14
  -4  -5  -7    0.13    0.14
   4   5   7    0.09    0.05
   4   5   7    0.02    0.10
   4   5   7    0.19    0.11
  -5  -5  -7    0.09    0.13
  -5  -5  -7    0.08    0.16
  -5  -5  -7    0.32    0.15
  -5  -5  -7    0.14    0.13
   5   5   7    0.12    0.11
  -6  -5  -7    1.46    0.32
  -6  -5  -7    1.65    0.17
  -6  -5  -7    1.79    0.26
  -6  -5  -7    1.93    0.31
  -6  -5  -7    2.08    0.27
   6   5   7    1.70    0.20
  -7  -5  -7    7.52    0.35
  -7  -5  -7    8.99    0.49
  -7  -5  -7    8.73    0.48
  -7  -5  -7    9.18    0.55
  -8  -5  -7    0.02    0.14
  -8  -5  -7    0.15    0.16
  -8  -5  -7   -0.04    0.16
  -9  -5  -7    0.00    0.18
  -9  -5  -7    0.12    0.18
  -9  -5  -7   -0.11    0.15
   5  -6  -7    0.02    0.17
  -5   6   7   -0.19    0.14
  -5   6   7   -0.03    0.15
   4  -6  -7   -0.23    0.13
  -4   6   7    0.10    0.15
  -4   6   7   -0.01    0.14
   3  -6  -7    0.14    0.16
  -3   6   7    0.16    0.14
  -3   6   7   -0.04    0.13
   2  -6  -7    0.01    0.13
  -2   6   7   -0.13    0.12
  -2   6   7    0.02    0.12
  -2   6   7   -0.03    0.10
  -2   6   7    0.15    0.14
   1  -6  -7    6.23    0.38
   1  -6  -7    7.72    0.45
  -1   6   7    7.43    0.41
  -1   6   7    7.28    0.43
  -1   6   7    7.86    0.45
   0  -6  -7    1.09    0.21
   0   6   7    0.69    0.18
   0   6   7    0.79    0.19
   0   6   7    0.93    0.18
  -1  -6  -7    0.62    0.19
   1   6   7    0.60    0.15
   1   6   7    0.59    0.17
   1   6   7    0.77    0.17
  -2  -6  -7    2.05    0.23
   2   6   7    3.04    0.28
   2   6   7    2.58    0.21
   2   6   7    2.53    0.27
  -3  -6  -7    2.37    0.25
   3   6   7    2.68    0.25
   3   6   7    2.71    0.21
   3   6   7    2.34    0.24
  -4  -6  -7    0.08    0.13
  -4  -6  -7    0.18    0.13
  -4  -6  -7    0.07    0.14
   4   6   7    0.14    0.10
   4   6   7    0.22    0.09
   4   6   7    0.21    0.12
  -5  -6  -7    0.48    0.17
  -5  -6  -7    0.39    0.15
  -5  -6  -7    0.35    0.18
   5   6   7    0.36    0.12
   5   6   7    0.50    0.13
  -6  -6  -7    0.92    0.20
  -6  -6  -7    0.93    0.19
  -6  -6  -7    1.50    0.29
   6   6   7    1.21    0.17
   6   6   7    1.51    0.22
  -7  -6  -7    2.96    0.32
  -7  -6  -7    3.42    0.34
  -7  -6  -7    3.55    0.41
  -7  -6  -7    2.76    0.25
  -8  -6  -7   -0.05    0.17
  -8  -6  -7   -0.09    0.14
  -8  -6  -7    0.01    0.14
  -9  -6  -7    0.31    0.20
  -9  -6  -7    0.10    0.17
  -9  -6  -7    0.18    0.21
   5  -7  -7    0.18    0.21
  -5   7   7    0.32    0.23
  -5   7   7    0.11    0.19
   4  -7  -7    0.58    0.24
  -4   7   7    0.45    0.20
  -4   7   7    0.64    0.24
   3  -7  -7    2.83    0.36
  -3   7   7    3.19    0.42
  -3   7   7    3.41    0.37
   2  -7  -7    1.78    0.31
  -2   7   7    1.24    0.26
  -2   7   7    1.17    0.24
  -2   7   7    1.33    0.26
   1  -7  -7    0.76    0.21
  -1   7   7    0.56    0.18
  -1   7   7    0.66    0.19
  -1   7   7    0.37    0.16
  -1   7   7    0.58    0.17
   0  -7  -7    1.38    0.24
   0   7   7    1.36    0.21
   0   7   7    0.96    0.18
   0   7   7    1.98    0.28
   0   7   7    1.52    0.24
  -1  -7  -7    0.65    0.18
   1   7   7    0.86    0.18
   1   7   7    0.52    0.16
   1   7   7    0.73    0.17
  -2  -7  -7    0.16    0.14
   2   7   7    0.03    0.09
   2   7   7    0.30    0.13
   2   7   7    0.02    0.09
   2   7   7    0.25    0.14
  -3  -7  -7    0.19    0.12
   3   7   7    0.30    0.10
   3   7   7    0.28    0.12
   3   7   7    0.04    0.12
  -4  -7  -7    1.01    0.20
  -4  -7  -7    1.10    0.19
   4   7   7    0.90    0.15
   4   7   7    0.86    0.17
   4   7   7    1.31    0.18
  -5  -7  -7    1.50    0.27
  -5  -7  -7    1.45    0.23
   5   7   7    1.53    0.19
   5   7   7    1.73    0.19
   5   7   7    1.51    0.18
  -6  -7  -7    0.49    0.22
  -6  -7  -7    0.62    0.17
  -7  -7  -7   -0.08    0.12
  -7  -7  -7   -0.14    0.17
  -7  -7  -7    0.15    0.13
  -7  -7  -7    0.28    0.15
  -8  -7  -7    0.18    0.15
  -8  -7  -7    0.16    0.19
  -8  -7  -7   -0.13    0.16
  -9  -7  -7    0.71    0.20
  -9  -7  -7    0.84    0.24
  -9  -7  -7    0.94    0.30
   4  -8  -7    0.09    0.23
  -4   8   7    0.06    0.18
  -4   8   7    0.21    0.19
   3  -8  -7   -0.17    0.18
  -3   8   7   -0.12    0.14
  -3   8   7   -0.09    0.14
   2  -8  -7   -0.02    0.16
  -2   8   7    0.08    0.15
  -2   8   7    0.05    0.16
  -2   8   7    0.06    0.14
   1  -8  -7    0.03    0.18
  -1   8   7   -0.02    0.12
  -1   8   7    0.19    0.15
  -1   8   7   -0.21    0.11
  -1   8   7   -0.08    0.12
   0  -8  -7    0.29    0.19
   0   8   7    0.09    0.12
   0   8   7    0.24    0.13
   0   8   7    0.36    0.15
   0   8   7    0.33    0.17
  -1  -8  -7    0.43    0.19
   1   8   7    0.18    0.13
   1   8   7    0.22    0.12
   1   8   7    0.62    0.17
   1   8   7    0.34    0.15
  -2  -8  -7    0.18    0.15
   2   8   7    0.10    0.10
   2   8   7    0.01    0.08
   2   8   7    0.03    0.10
   2   8   7   -0.06    0.11
   2   8   7    0.26    0.12
  -3  -8  -7    0.28    0.15
   3   8   7    0.20    0.12
   3   8   7    0.52    0.15
   3   8   7    0.44    0.14
   3   8   7    0.65    0.17
  -4  -8  -7    4.43    0.34
   4   8   7    4.24    0.28
   4   8   7    4.06    0.26
   4   8   7    4.44    0.31
   4   8   7    3.92    0.27
  -5  -8  -7    0.46    0.17
   5   8   7    0.49    0.14
  -6  -8  -7   -0.02    0.12
  -6  -8  -7   -0.04    0.17
  -7  -8  -7    0.27    0.15
  -7  -8  -7    0.45    0.21
  -8  -8  -7    1.63    0.33
  -8  -8  -7    1.61    0.26
  -9  -8  -7   -0.09    0.16
  -9  -8  -7    0.20    0.23
  -9  -8  -7   -0.06    0.14
   3  -9  -7    0.06    0.21
  -3   9   7   -0.08    0.14
   2  -9  -7    0.00    0.20
  -2   9   7    0.13    0.17
  -2   9   7    0.40    0.20
  -2   9   7    0.07    0.16
   1  -9  -7    0.06    0.19
  -1   9   7   -0.17    0.13
  -1   9   7    0.04    0.12
  -1   9   7    0.05    0.13
   0  -9  -7    1.58    0.28
   0   9   7    1.77    0.29
   0   9   7    1.68    0.27
   0   9   7    1.40    0.25
   0   9   7    1.44    0.26
  -1  -9  -7    0.94    0.25
   1   9   7    0.66    0.19
   1   9   7    0.96    0.21
   1   9   7    0.93    0.21
   1   9   7    0.84    0.20
   1   9   7    0.95    0.21
  -2  -9  -7    0.69    0.22
   2   9   7    0.68    0.18
   2   9   7    0.64    0.18
   2   9   7    0.69    0.18
   2   9   7    0.39    0.16
  -3  -9  -7    1.14    0.22
   3   9   7    0.84    0.17
   3   9   7    0.76    0.18
   3   9   7    0.77    0.19
  -4  -9  -7    0.11    0.14
   4   9   7    0.04    0.10
   4   9   7   -0.03    0.11
  -5  -9  -7    0.64    0.19
   5   9   7    1.02    0.19
  -6  -9  -7    0.04    0.14
   6   9   7    0.12    0.10
  -7  -9  -7    0.49    0.23
  -7  -9  -7    0.18    0.15
  -8  -9  -7    0.13    0.14
  -8  -9  -7    0.03    0.21
   2 -10  -7    0.05    0.23
  -2  10   7    0.13    0.19
   1 -10  -7   -0.06    0.21
  -1  10   7   -0.14    0.16
   0 -10  -7    0.29    0.24
   0  10   7    0.53    0.21
   0  10   7   -0.04    0.13
  -1 -10  -7    0.59    0.23
   1  10   7    0.93    0.23
   1  10   7    0.93    0.22
   1  10   7    0.73    0.21
  -2 -10  -7    0.45    0.20
   2  10   7    0.49    0.18
   2  10   7    0.50    0.19
  -3 -10  -7    0.01    0.17
   3  10   7   -0.03    0.13
   3  10   7    0.21    0.15
  -4 -10  -7    0.69    0.21
   4  10   7    0.12    0.13
   4  10   7    0.24    0.14
  -5 -10  -7    1.10    0.24
   5  10   7    0.95    0.20
  -6 -10  -7    0.08    0.14
   6  10   7    0.10    0.12
  -7 -10  -7    0.93    0.28
  -7 -10  -7    0.70    0.19
  -8 -10  -7    0.26    0.23
  -8 -10  -7    0.25    0.17
   0 -11  -7    0.10    0.22
   0  11   7   -0.16    0.27
  -1 -11  -7    0.81    0.26
   1  11   7    0.16    0.16
   1  11   7   -0.17    0.16
  -2 -11  -7    0.38    0.22
   2  11   7    0.20    0.16
   2  11   7   -0.01    0.16
  -3 -11  -7    0.27    0.20
   3  11   7    0.15    0.16
   3  11   7    0.29    0.17
  -4 -11  -7   -0.02    0.17
   4  11   7   -0.08    0.13
   4  11   7    0.24    0.16
  -5 -11  -7    0.01    0.16
   5  11   7   -0.10    0.13
   5  11   7    0.42    0.17
  -6 -11  -7    0.18    0.16
   6  11   7    0.36    0.18
   7  11   7    0.75    0.21
  -3 -12  -7    0.18    0.20
   3  12   7    0.11    0.17
   3  12   7    0.06    0.22
  -4 -12  -7   -0.19    0.18
   4  12   7    0.02    0.16
   4  12   7   -0.03    0.17
  -2  -6   8   -0.15    0.13
  -1  -6   8    0.35    0.19
   0  -6   8    0.32    0.20
   1  -6   8    0.04    0.19
  -4  -5   8    0.62    0.19
  -3  -5   8   -0.02    0.12
  -2  -5   8   -0.04    0.13
  -1  -5   8    0.03    0.15
   0  -5   8    0.97    0.23
   1  -5   8    0.64    0.25
   2  -5   8    0.35    0.20
   3  -5   8    0.13    0.22
  -5  -4   8   -0.19    0.09
  -4  -4   8    0.09    0.12
  -3  -4   8    0.05    0.11
  -2  -4   8    0.71    0.21
  -1  -4   8    0.31    0.15
   0  -4   8    0.16    0.15
   1  -4   8    2.27    0.31
   2  -4   8    0.15    0.18
  -3   4  -8    0.18    0.18
   3  -4   8    0.53    0.23
  -4   4  -8   -0.13    0.18
   4  -4   8    0.25    0.22
  -6  -3   8    0.78    0.20
  -5  -3   8    0.15    0.13
  -4  -3   8    0.08    0.12
  -3  -3   8    3.26    0.36
  -2  -3   8   -0.10    0.11
  -2  -3   8    0.02    0.11
  -1  -3   8    0.47    0.15
  -1  -3   8    0.38    0.16
   0  -3   8    1.52    0.29
  -1   3  -8    4.64    0.34
  -1   3  -8    4.35    0.34
   1  -3   8    4.88    0.40
  -2   3  -8   -0.15    0.10
  -2   3  -8   -0.05    0.14
   2  -3   8    0.01    0.14
  -3   3  -8    0.07    0.14
  -3   3  -8    0.20    0.19
   3  -3   8    0.06    0.16
  -4   3  -8    0.30    0.18
  -4   3  -8    0.31    0.21
   4  -3   8    0.12    0.18
  -5   3  -8    0.09    0.19
  -5   3  -8    0.05    0.18
   5  -3   8   -0.26    0.18
  -6  -2   8   -0.17    0.11
  -6  -2   8   -0.04    0.10
  -5  -2   8    0.13    0.12
   4   2  -8    0.28    0.15
  -4  -2   8    0.47    0.16
  -3  -2   8    6.63    0.41
   2   2  -8    3.01    0.29
  -2  -2   8    3.23    0.27
  -2  -2   8    3.06    0.32
   1   2  -8    0.78    0.18
  -1  -2   8    0.74    0.18
  -1  -2   8    0.69    0.14
  -1  -2   8    0.87    0.20
   0   2  -8    0.05    0.09
   0   2  -8   -0.04    0.10
   0  -2   8   -0.03    0.09
   0  -2   8   -0.01    0.08
   0  -2   8   -0.07    0.09
  -1   2  -8    1.49    0.23
  -1   2  -8    1.65    0.22
  -1   2  -8    1.06    0.21
   1  -2   8    1.61    0.25
   1  -2   8    0.95    0.20
  -2   2  -8    0.78    0.19
  -2   2  -8    0.37    0.16
  -2   2  -8    0.84    0.21
   2  -2   8    0.49    0.17
  -3   2  -8    0.62    0.21
  -3   2  -8    0.35    0.17
   3  -2   8    0.33    0.15
  -4   2  -8   -0.12    0.15
  -4   2  -8   -0.03    0.14
   4  -2   8    0.01    0.15
  -5   2  -8    1.56    0.32
  -5   2  -8    1.71    0.35
   5  -2   8    1.78    0.29
  -6   2  -8    1.07    0.32
  -6   2  -8    1.27    0.29
   6  -2   8    1.19    0.29
  -6  -1   8    0.28    0.16
  -6  -1   8    0.17    0.15
  -5  -1   8    0.19    0.14
  -5  -1   8    0.19    0.15
   4   1  -8   -0.06    0.12
  -4  -1   8    0.02    0.11
   3   1  -8    0.43    0.15
   3   1  -8    0.81    0.17
  -3  -1   8    0.29    0.13
  -3  -1   8    0.60    0.18
   2   1  -8   19.40    0.62
  -2  -1   8   20.49    0.70
  -2  -1   8   18.90    0.66
  -2  -1   8   19.60    0.59
   1   1  -8   -0.06    0.10
  -1  -1   8    0.05    0.08
  -1  -1   8   -0.10    0.11
  -1  -1   8   -0.10    0.09
   0   1  -8    0.50    0.12
   0   1  -8    0.12    0.12
   0  -1   8    0.52    0.13
   0  -1   8    0.54    0.19
   0  -1   8    0.29    0.13
   0  -1   8    0.44    0.09
  -1   1  -8    0.24    0.12
  -1   1  -8    0.12    0.12
  -1   1  -8    0.12    0.11
   1  -1   8    0.26    0.12
   1  -1   8    0.32    0.16
  -2   1  -8    1.46    0.22
  -2   1  -8    2.18    0.29
  -2   1  -8    1.75    0.25
   2  -1   8    1.68    0.25
  -3   1  -8    0.16    0.14
  -3   1  -8    0.10    0.13
  -3   1  -8    0.06    0.15
   3  -1   8    0.06    0.11
  -4   1  -8    0.33    0.18
  -4   1  -8    0.12    0.19
  -4   1  -8    0.36    0.17
   4  -1   8    0.19    0.16
  -5   1  -8    0.25    0.21
  -5   1  -8   -0.15    0.13
   5  -1   8   -0.03    0.17
  -6   1  -8    0.43    0.24
  -6   1  -8    0.21    0.18
   6  -1   8    0.12    0.17
  -7   1  -8    0.11    0.21
  -7   1  -8    0.04    0.21
   7  -1   8   -0.20    0.16
  -6   0   8    0.53    0.19
  -6   0   8    0.64    0.20
  -5   0   8    0.28    0.14
  -5   0   8    0.21    0.15
   4   0  -8    1.72    0.27
  -4   0   8    1.42    0.25
  -4   0   8    1.44    0.26
   3   0  -8    0.10    0.13
   3   0  -8    0.01    0.10
  -3   0   8    0.03    0.12
   2   0  -8   24.72    0.73
   2   0  -8   26.06    0.76
  -2   0   8   25.67    0.77
  -2   0   8   23.69    0.67
  -2   0   8   26.68    0.80
   1   0  -8    3.50    0.29
  -1   0   8    2.64    0.28
  -1   0   8    3.32    0.21
  -1   0   8    2.80    0.29
   0   0  -8    0.82    0.18
   0   0  -8    0.67    0.14
   0   0   8    0.49    0.16
   0   0   8    0.55    0.15
   0   0   8    0.71    0.10
  -1   0  -8    0.12    0.11
  -1   0  -8    0.51    0.14
   1   0   8    0.17    0.12
   1   0   8    0.27    0.12
   1   0   8    0.42    0.15
  -2   0  -8    5.78    0.38
  -2   0  -8    5.94    0.37
  -2   0  -8    5.80    0.39
   2   0   8    6.23    0.39
  -3   0  -8    1.17    0.22
  -3   0  -8    1.09    0.22
  -3   0  -8    1.05    0.23
   3   0   8    1.16    0.23
  -4   0  -8    0.63    0.22
  -4   0  -8    0.29    0.18
  -4   0  -8    0.51    0.17
   4   0   8    0.47    0.17
  -5   0  -8    1.96    0.32
  -5   0  -8    2.16    0.34
  -5   0  -8    2.04    0.30
   5   0   8    1.93    0.28
  -6   0  -8   -0.01    0.15
  -6   0  -8    0.11    0.17
  -6   0  -8    0.04    0.19
   6   0   8    0.08    0.19
  -7   0  -8    0.20    0.23
  -7   0  -8    0.79    0.27
   7   0   8    0.25    0.18
  -8   0  -8   -0.01    0.19
  -8   0  -8   -0.34    0.20
  -6   1   8    0.04    0.15
  -6   1   8    0.17    0.15
  -5   1   8   -0.02    0.12
  -5   1   8    0.12    0.14
   4  -1  -8    0.02    0.13
  -4   1   8    0.24    0.16
  -4   1   8    0.18    0.14
   3  -1  -8   -0.21    0.10
   3  -1  -8    0.12    0.13
  -3   1   8    0.16    0.14
  -3   1   8    0.20    0.12
   2  -1  -8    0.12    0.13
   2  -1  -8    0.04    0.11
  -2   1   8    0.02    0.09
  -2   1   8    0.12    0.12
   1  -1  -8    2.06    0.27
  -1   1   8    2.18    0.27
  -1   1   8    2.18    0.28
   0  -1  -8    0.17    0.09
   0  -1  -8    0.15    0.15
   0   1   8    0.08    0.06
   0   1   8    0.11    0.10
   0   1   8    0.04    0.09
  -1  -1  -8    1.36    0.19
  -1  -1  -8    1.30    0.20
   1   1   8    1.32    0.20
   1   1   8    1.41    0.24
  -2  -1  -8    0.26    0.15
  -2  -1  -8    0.40    0.14
  -2  -1  -8    0.70    0.18
   2   1   8    0.11    0.13
  -3  -1  -8    0.00    0.11
  -3  -1  -8   -0.10    0.09
  -3  -1  -8   -0.08    0.13
   3   1   8    0.21    0.13
  -4  -1  -8    1.69    0.28
  -4  -1  -8    1.37    0.23
  -4  -1  -8    1.79    0.26
   4   1   8    1.74    0.25
  -5  -1  -8    0.02    0.17
  -5  -1  -8    0.27    0.17
  -5  -1  -8    0.28    0.17
   5   1   8    0.12    0.15
  -6  -1  -8    0.09    0.20
  -6  -1  -8   -0.01    0.16
  -6  -1  -8    0.13    0.16
   6   1   8   -0.09    0.13
  -7  -1  -8   -0.06    0.17
  -7  -1  -8    0.08    0.20
  -7  -1  -8   -0.06    0.18
   7   1   8    0.12    0.16
  -8  -1  -8    0.27    0.21
  -8  -1  -8    0.12    0.24
  -6   2   8    0.08    0.14
  -6   2   8    0.04    0.16
  -5   2   8    0.55    0.20
  -5   2   8    0.38    0.18
   4  -2  -8    0.36    0.14
  -4   2   8    0.04    0.13
  -4   2   8    0.51    0.18
   3  -2  -8    2.95    0.29
   3  -2  -8    2.86    0.29
  -3   2   8    3.44    0.34
  -3   2   8    2.97    0.32
   2  -2  -8    0.13    0.12
   2  -2  -8    0.01    0.08
  -2   2   8    0.04    0.12
  -2   2   8    0.00    0.08
  -2   2   8    0.01    0.10
   1  -2  -8    0.30    0.14
   1  -2  -8    0.07    0.11
   1  -2  -8    0.21    0.09
  -1   2   8   -0.08    0.12
  -1   2   8    0.14    0.11
   0  -2  -8   -0.14    0.10
   0  -2  -8    0.15    0.11
   0  -2  -8    0.38    0.12
   0   2   8    0.10    0.09
   0   2   8    0.12    0.14
  -1  -2  -8    0.41    0.14
  -1  -2  -8    0.47    0.13
  -1  -2  -8    0.31    0.12
   1   2   8    0.39    0.06
   1   2   8    0.52    0.17
  -2  -2  -8    0.66    0.20
  -2  -2  -8    0.65    0.17
   2   2   8    0.57    0.15
  -3  -2  -8    0.66    0.18
  -3  -2  -8    0.90    0.21
  -3  -2  -8    0.69    0.17
   3   2   8    0.55    0.15
  -4  -2  -8    1.49    0.24
  -4  -2  -8    1.91    0.28
  -4  -2  -8    1.77    0.26
   4   2   8    1.39    0.23
  -5  -2  -8   13.97    0.65
  -5  -2  -8   14.05    0.62
  -5  -2  -8   13.45    0.61
   5   2   8   15.38    0.60
  -6  -2  -8    0.28    0.21
  -6  -2  -8    0.38    0.18
  -6  -2  -8    0.43    0.21
   6   2   8    0.49    0.17
  -7  -2  -8    0.27    0.21
  -7  -2  -8   -0.02    0.16
  -7  -2  -8    0.03    0.22
   7   2   8   -0.04    0.15
  -8  -2  -8    0.36    0.26
  -8  -2  -8    0.39    0.22
  -8  -2  -8    0.34    0.23
  -6   3   8    0.15    0.18
  -6   3   8    0.10    0.16
  -5   3   8    0.41    0.20
  -5   3   8    0.58    0.20
   4  -3  -8    2.02    0.27
  -4   3   8    2.43    0.31
  -4   3   8    1.64    0.27
   3  -3  -8    0.21    0.14
  -3   3   8   -0.01    0.11
  -3   3   8    0.28    0.15
   2  -3  -8    2.61    0.32
   2  -3  -8    2.03    0.25
  -2   3   8    2.22    0.31
  -2   3   8    2.29    0.29
   1  -3  -8   12.80    0.39
   1  -3  -8   13.80    0.53
   1  -3  -8   13.18    0.55
  -1   3   8   13.83    0.57
  -1   3   8   14.27    0.57
  -1   3   8   12.03    0.52
   0  -3  -8    1.31    0.21
   0  -3  -8    0.82    0.19
   0  -3  -8    1.20    0.16
   0   3   8    1.09    0.23
  -1  -3  -8    0.25    0.13
  -1  -3  -8    0.39    0.13
  -1  -3  -8    0.46    0.14
   1   3   8    0.31    0.14
  -2  -3  -8    1.87    0.27
  -2  -3  -8    2.28    0.25
  -2  -3  -8    2.11    0.25
   2   3   8    2.09    0.27
  -3  -3  -8    1.54    0.25
  -3  -3  -8    1.26    0.21
  -3  -3  -8    1.17    0.20
   3   3   8    1.25    0.21
  -4  -3  -8    3.16    0.34
  -4  -3  -8    3.21    0.33
  -4  -3  -8    2.22    0.29
   4   3   8    3.32    0.32
  -5  -3  -8   -0.09    0.13
  -5  -3  -8    0.06    0.13
  -5  -3  -8   -0.01    0.16
   5   3   8   -0.04    0.11
  -6  -3  -8    9.33    0.53
  -6  -3  -8    8.23    0.50
  -6  -3  -8    8.54    0.53
   6   3   8    7.91    0.43
  -7  -3  -8    0.96    0.26
  -7  -3  -8    1.11    0.31
  -7  -3  -8    1.04    0.24
   7   3   8    1.29    0.24
  -8  -3  -8    0.25    0.23
  -8  -3  -8    0.47    0.22
  -8  -3  -8    0.27    0.17
  -9  -3  -8    0.99    0.32
  -9  -3  -8    1.20    0.30
  -9  -3  -8    1.27    0.32
  -6   4   8   -0.10    0.15
  -6   4   8    0.00    0.17
  -6   4   8    0.00    0.17
  -5   4   8   -0.08    0.13
  -5   4   8   -0.05    0.14
   4  -4  -8    1.58    0.28
  -4   4   8    1.38    0.27
  -4   4   8    1.56    0.26
   3  -4  -8    0.10    0.14
  -3   4   8    0.07    0.13
  -3   4   8   -0.03    0.12
   2  -4  -8   -0.04    0.12
  -2   4   8   -0.06    0.10
  -2   4   8   -0.03    0.12
   1  -4  -8   -0.07    0.12
   1  -4  -8   -0.06    0.10
  -1   4   8   -0.10    0.11
  -1   4   8    0.12    0.13
   0  -4  -8   58.89    1.19
   0  -4  -8   59.93    1.31
   0  -4  -8   60.99    1.36
   0   4   8   61.86    1.38
   0   4   8   62.15    1.36
  -1  -4  -8    0.90    0.17
  -1  -4  -8    0.35    0.15
  -1  -4  -8    0.52    0.16
   1   4   8    0.22    0.14
  -2  -4  -8    5.61    0.35
  -2  -4  -8    5.92    0.39
   2   4   8    5.36    0.20
   2   4   8    5.53    0.35
  -3  -4  -8    0.83    0.20
  -3  -4  -8    0.64    0.17
   3   4   8    1.15    0.20
  -4  -4  -8   -0.13    0.14
  -4  -4  -8   -0.01    0.12
  -4  -4  -8    0.02    0.13
   4   4   8    0.02    0.10
  -5  -4  -8   -0.14    0.11
  -5  -4  -8   -0.26    0.15
  -5  -4  -8   -0.08    0.12
   5   4   8   -0.09    0.10
  -6  -4  -8    3.18    0.38
  -6  -4  -8    3.95    0.40
  -6  -4  -8    3.02    0.34
   6   4   8    3.13    0.30
  -7  -4  -8    1.59    0.29
  -7  -4  -8    1.25    0.29
  -7  -4  -8    1.10    0.25
  -8  -4  -8   -0.05    0.17
  -8  -4  -8    0.21    0.20
  -8  -4  -8    0.13    0.17
  -9  -4  -8    0.17    0.23
  -9  -4  -8    0.09    0.19
  -9  -4  -8    0.25    0.23
   5  -5  -8    0.28    0.21
  -5   5   8    0.41    0.21
  -5   5   8    0.62    0.24
  -5   5   8   -0.12    0.17
   4  -5  -8    0.72    0.22
  -4   5   8    0.45    0.18
  -4   5   8    0.99    0.27
   3  -5  -8    4.05    0.42
  -3   5   8    3.74    0.44
  -3   5   8    2.80    0.34
   2  -5  -8    0.06    0.14
  -2   5   8   -0.01    0.13
  -2   5   8    0.12    0.13
   1  -5  -8    0.08    0.12
   1  -5  -8    0.07    0.14
  -1   5   8    0.30    0.16
  -1   5   8   -0.03    0.12
   0  -5  -8    2.24    0.30
   0  -5  -8    2.21    0.26
   0   5   8    2.11    0.29
   0   5   8    2.00    0.28
  -1  -5  -8    0.03    0.16
   1   5   8    0.00    0.12
   1   5   8   -0.06    0.12
  -2  -5  -8    2.56    0.29
  -2  -5  -8    2.95    0.30
   2   5   8    3.35    0.33
   2   5   8    3.01    0.30
   2   5   8    3.05    0.20
  -3  -5  -8    0.08    0.14
  -3  -5  -8    0.03    0.12
   3   5   8    0.08    0.06
   3   5   8    0.01    0.11
   3   5   8   -0.04    0.09
  -4  -5  -8    0.28    0.14
  -4  -5  -8    0.24    0.17
   4   5   8    0.27    0.14
  -5  -5  -8    0.32    0.15
  -5  -5  -8    0.03    0.13
  -5  -5  -8   -0.19    0.15
   5   5   8    0.21    0.13
  -6  -5  -8    0.17    0.19
  -6  -5  -8    0.18    0.16
  -6  -5  -8    0.38    0.17
   6   5   8    0.21    0.13
  -7  -5  -8   -0.02    0.18
  -7  -5  -8    0.08    0.16
  -7  -5  -8    0.04    0.15
  -8  -5  -8   -0.27    0.15
  -8  -5  -8   -0.18    0.13
  -8  -5  -8    0.02    0.19
  -9  -5  -8    0.05    0.21
  -9  -5  -8    0.03    0.24
  -9  -5  -8    0.22    0.19
   5  -6  -8    0.15    0.21
  -5   6   8    0.13    0.20
  -5   6   8    0.13    0.19
  -5   6   8    0.10    0.19
   4  -6  -8    0.22    0.19
  -4   6   8    0.17    0.19
  -4   6   8    0.20    0.17
  -4   6   8    0.04    0.17
   3  -6  -8    0.33    0.19
  -3   6   8    0.52    0.21
  -3   6   8    0.51    0.19
  -3   6   8    0.47    0.20
   2  -6  -8    0.46    0.19
  -2   6   8    0.11    0.15
  -2   6   8    0.34    0.17
   1  -6  -8    2.74    0.31
  -1   6   8    3.53    0.39
  -1   6   8    3.82    0.35
  -1   6   8    3.39    0.39
   0  -6  -8    0.74    0.18
   0   6   8    1.03    0.21
   0   6   8    0.77    0.20
  -1  -6  -8   10.80    0.52
   1   6   8   10.31    0.49
   1   6   8    9.82    0.49
  -2  -6  -8    1.44    0.23
   2   6   8    1.30    0.21
   2   6   8    1.27    0.16
   2   6   8    1.44    0.21
  -3  -6  -8   -0.08    0.12
  -3  -6  -8    0.16    0.13
   3   6   8    0.31    0.13
   3   6   8    0.03    0.10
   3   6   8    0.10    0.08
  -4  -6  -8    0.27    0.14
  -4  -6  -8    0.69    0.20
   4   6   8    0.24    0.08
   4   6   8    0.27    0.13
   4   6   8    0.23    0.12
  -5  -6  -8    0.11    0.15
  -5  -6  -8    0.29    0.19
   5   6   8    0.28    0.14
   5   6   8    0.33    0.14
  -6  -6  -8    2.51    0.36
  -6  -6  -8    3.10    0.34
  -6  -6  -8    2.85    0.33
   6   6   8    2.35    0.25
  -7  -6  -8    0.72    0.21
  -7  -6  -8    0.38    0.19
  -7  -6  -8    0.13    0.19
  -8  -6  -8   -0.06    0.20
  -8  -6  -8   -0.14    0.13
  -8  -6  -8    0.00    0.18
  -9  -6  -8    0.27    0.22
  -9  -6  -8    0.09    0.21
  -9  -6  -8    0.36    0.20
   4  -7  -8    0.44    0.23
  -4   7   8    1.07    0.33
  -4   7   8    0.39    0.21
  -4   7   8    0.93    0.26
   3  -7  -8   -0.03    0.19
  -3   7   8    0.05    0.16
  -3   7   8    0.04    0.16
  -3   7   8   -0.17    0.12
   2  -7  -8    0.04    0.17
  -2   7   8   -0.13    0.13
  -2   7   8   -0.25    0.11
  -2   7   8    0.10    0.15
   1  -7  -8    0.51    0.19
  -1   7   8    0.46    0.21
  -1   7   8    0.48    0.18
  -1   7   8    0.36    0.18
   0  -7  -8   -0.06    0.15
   0   7   8    0.00    0.12
   0   7   8   -0.01    0.11
   0   7   8   -0.13    0.12
  -1  -7  -8    0.61    0.22
   1   7   8    0.72    0.17
   1   7   8    0.53    0.17
   1   7   8    0.59    0.18
  -2  -7  -8    0.07    0.14
   2   7   8   -0.17    0.10
   2   7   8   -0.15    0.08
   2   7   8   -0.02    0.10
  -3  -7  -8    0.54    0.19
   3   7   8    0.59    0.17
   3   7   8    0.42    0.12
   3   7   8    0.59    0.16
  -4  -7  -8    1.41    0.27
  -4  -7  -8    1.33    0.23
   4   7   8    1.97    0.20
   4   7   8    1.80    0.23
   4   7   8    1.38    0.22
  -5  -7  -8    0.04    0.19
  -5  -7  -8    0.05    0.13
   5   7   8    0.05    0.11
   5   7   8    0.08    0.08
  -6  -7  -8    0.64    0.19
  -6  -7  -8    1.07    0.26
  -7  -7  -8    6.75    0.47
  -7  -7  -8    6.45    0.45
  -7  -7  -8    6.43    0.53
  -8  -7  -8    0.78    0.21
  -8  -7  -8    1.33    0.33
  -8  -7  -8    0.79    0.23
  -9  -7  -8   -0.02    0.16
  -9  -7  -8    0.00    0.19
  -9  -7  -8    0.10    0.22
   3  -8  -8    0.27    0.22
  -3   8   8    0.50    0.24
  -3   8   8    0.11    0.18
  -3   8   8    0.11    0.17
   2  -8  -8    0.47    0.23
  -2   8   8    0.23    0.17
  -2   8   8    0.40    0.19
  -2   8   8    0.00    0.16
   1  -8  -8    0.19    0.18
  -1   8   8    0.60    0.22
  -1   8   8    0.31    0.18
  -1   8   8    0.30    0.17
   0  -8  -8    1.69    0.30
   0   8   8    1.66    0.27
   0   8   8    1.28    0.24
   0   8   8    1.67    0.27
   0   8   8    1.34    0.25
  -1  -8  -8    0.24    0.17
   1   8   8    0.25    0.14
   1   8   8    0.49    0.18
   1   8   8    0.13    0.12
   1   8   8    0.19    0.14
  -2  -8  -8    2.67    0.31
   2   8   8    2.76    0.28
   2   8   8    2.49    0.29
   2   8   8    2.36    0.29
   2   8   8    2.76    0.30
   2   8   8    2.69    0.29
  -3  -8  -8    0.13    0.13
   3   8   8    0.23    0.12
   3   8   8    0.14    0.13
   3   8   8    0.30    0.14
  -4  -8  -8    0.05    0.14
   4   8   8    0.00    0.09
   4   8   8   -0.06    0.11
  -5  -8  -8    0.03    0.18
  -5  -8  -8    0.07    0.13
   5   8   8    0.27    0.10
  -6  -8  -8    0.92    0.27
  -6  -8  -8    1.30    0.24
  -7  -8  -8    0.14    0.20
  -7  -8  -8    0.27    0.17
  -8  -8  -8    3.60    0.48
  -8  -8  -8    2.41    0.32
   2  -9  -8    1.03    0.30
  -2   9   8    0.67    0.23
  -2   9   8    0.75    0.25
   1  -9  -8   -0.10    0.17
  -1   9   8   -0.12    0.14
  -1   9   8   -0.17    0.15
   0  -9  -8    0.18    0.20
   0   9   8    0.21    0.18
   0   9   8    0.08    0.15
   0   9   8    0.22    0.15
  -1  -9  -8    0.39    0.21
   1   9   8    0.04    0.12
   1   9   8    0.11    0.14
   1   9   8   -0.15    0.11
   1   9   8    0.20    0.16
  -2  -9  -8    0.67    0.23
   2   9   8    0.34    0.16
   2   9   8    0.57    0.19
   2   9   8    0.66    0.17
  -3  -9  -8    0.75    0.22
   3   9   8    0.42    0.16
   3   9   8    0.18    0.15
   3   9   8    0.33    0.17
  -4  -9  -8    1.02    0.22
   4   9   8    0.64    0.16
  -5  -9  -8    1.35    0.26
   5   9   8    0.76    0.17
  -6  -9  -8   -0.13    0.18
  -6  -9  -8   -0.08    0.13
   6   9   8    0.15    0.11
  -7  -9  -8    0.31    0.19
  -7  -9  -8    0.45    0.22
  -8  -9  -8   -0.16    0.19
  -8  -9  -8    0.15    0.17
   1 -10  -8    0.35    0.23
  -1  10   8    0.28    0.21
   0 -10  -8   -0.07    0.18
   0  10   8    0.00    0.15
  -1 -10  -8    1.19    0.28
   1  10   8    0.57    0.20
   1  10   8    1.03    0.24
   1  10   8    0.71    0.22
  -2 -10  -8   -0.04    0.19
   2  10   8   -0.04    0.13
   2  10   8    0.23    0.16
  -3 -10  -8    0.31    0.20
   3  10   8    0.34    0.15
   3  10   8    0.86    0.21
  -4 -10  -8    0.26    0.18
   4  10   8    0.21    0.14
  -5 -10  -8   -0.01    0.14
   5  10   8    0.13    0.12
  -6 -10  -8    0.10    0.16
   6  10   8   -0.03    0.12
  -7 -10  -8   -0.13    0.18
  -7 -10  -8    0.12    0.15
  -1 -11  -8   -0.20    0.21
   1  11   8   -0.07    0.16
   1  11   8    0.00    0.14
  -2 -11  -8    0.05    0.21
   2  11   8   -0.01    0.15
   2  11   8   -0.01    0.15
  -3 -11  -8    0.00    0.18
   3  11   8    0.05    0.16
   3  11   8   -0.11    0.14
  -4 -11  -8    0.24    0.18
   4  11   8    0.28    0.17
   4  11   8    0.12    0.16
  -5 -11  -8   -0.06    0.15
   5  11   8    0.15    0.16
  -6 -11  -8    0.03    0.17
   6  11   8    0.35    0.17
  -1  -5   9    0.09    0.16
   0  -5   9    0.28    0.21
  -3  -4   9    0.29    0.17
  -2  -4   9    0.11    0.15
  -1  -4   9   -0.02    0.12
   0  -4   9    1.92    0.33
   1  -4   9    0.70    0.22
   2  -4   9    0.55    0.24
  -3   4  -9    1.36    0.30
   3  -4   9    0.94    0.29
  -4  -3   9    0.22    0.16
  -3  -3   9    0.44    0.19
  -2  -3   9    0.21    0.14
  -1  -3   9    0.05    0.14
   0  -3   9    0.21    0.15
   1  -3   9    1.08    0.25
  -2   3  -9    0.25    0.18
   2  -3   9    0.77    0.27
  -3   3  -9    0.20    0.21
   3  -3   9    0.32    0.23
  -4   3  -9    0.53    0.24
   4  -3   9    0.32    0.21
  -5  -2   9    1.88    0.29
  -4  -2   9    0.09    0.13
  -3  -2   9    1.23    0.24
  -2  -2   9    0.30    0.15
   1   2  -9    0.24    0.14
  -1  -2   9    0.27    0.17
   0   2  -9   -0.15    0.10
   0  -2   9   -0.04    0.13
  -1   2  -9    2.42    0.30
  -1   2  -9    3.08    0.37
  -1   2  -9    2.58    0.30
   1  -2   9    2.65    0.34
  -2   2  -9    0.24    0.16
  -2   2  -9    0.18    0.16
  -2   2  -9    0.21    0.17
   2  -2   9    0.44    0.18
  -3   2  -9    0.09    0.15
  -3   2  -9    0.06    0.17
   3  -2   9   -0.01    0.17
  -4   2  -9    0.04    0.16
  -4   2  -9   -0.03    0.17
   4  -2   9   -0.15    0.16
  -5   2  -9    0.51    0.26
  -5   2  -9    0.52    0.26
   5  -2   9    0.16    0.19
  -5  -1   9   -0.13    0.12
  -5  -1   9    0.05    0.14
  -4  -1   9    0.56    0.18
  -3  -1   9    0.03    0.14
   2   1  -9    1.15    0.21
  -2  -1   9    1.00    0.23
   1   1  -9    1.88    0.27
  -1  -1   9    1.63    0.29
   0   1  -9    1.12    0.18
   0   1  -9    0.75    0.19
   0  -1   9    1.14    0.23
   0  -1   9    0.85    0.29
  -1   1  -9    0.28    0.13
  -1   1  -9    0.27    0.17
   1  -1   9    0.15    0.16
  -2   1  -9    0.11    0.13
  -2   1  -9    0.02    0.13
  -2   1  -9   -0.06    0.12
   2  -1   9   -0.19    0.10
  -3   1  -9    0.20    0.18
  -3   1  -9    0.52    0.22
  -3   1  -9    0.17    0.15
   3  -1   9    0.04    0.13
  -4   1  -9   -0.10    0.16
  -4   1  -9    0.20    0.17
  -4   1  -9   -0.23    0.15
   4  -1   9    0.28    0.19
  -5   1  -9   -0.11    0.16
  -5   1  -9    0.11    0.19
   5  -1   9   -0.13    0.17
  -6   1  -9   -0.05    0.21
  -6   1  -9    0.18    0.22
   6  -1   9    0.16    0.19
  -5   0   9    0.04    0.15
  -5   0   9   -0.08    0.13
  -4   0   9    0.69    0.21
  -4   0   9    0.32    0.16
   3   0  -9    0.77    0.22
  -3   0   9    0.78    0.20
   2   0  -9    2.53    0.28
  -2   0   9    3.52    0.27
  -2   0   9    3.89    0.42
   1   0  -9    0.26    0.14
  -1   0   9    0.24    0.10
  -1   0   9    0.20    0.13
  -1   0   9    0.19    0.15
   0   0  -9    0.90    0.21
   0   0  -9    0.97    0.16
   0   0   9    0.95    0.13
   0   0   9    0.91    0.21
   0   0   9    1.51    0.28
  -1   0  -9    1.15    0.20
  -1   0  -9    0.90    0.21
   1   0   9    0.66    0.17
  -2   0  -9    1.18    0.23
  -2   0  -9    0.67    0.19
  -2   0  -9    0.59    0.18
   2   0   9    1.17    0.26
  -3   0  -9   -0.03    0.13
  -3   0  -9    0.05    0.14
  -3   0  -9   -0.15    0.13
   3   0   9   -0.11    0.12
  -4   0  -9    0.17    0.15
  -4   0  -9    0.06    0.18
  -4   0  -9   -0.18    0.13
   4   0   9    0.01    0.14
  -5   0  -9    0.64    0.22
  -5   0  -9    1.27    0.30
  -5   0  -9    0.98    0.26
   5   0   9    0.34    0.18
  -6   0  -9   -0.16    0.20
  -6   0  -9    0.05    0.17
  -6   0  -9   -0.13    0.18
   6   0   9    0.06    0.19
  -7   0  -9   -0.08    0.21
  -7   0  -9    0.53    0.27
   7   0   9    0.11    0.18
  -5   1   9    0.59    0.22
  -5   1   9    0.45    0.20
  -4   1   9   -0.08    0.11
  -4   1   9    0.17    0.14
   3  -1  -9    0.04    0.13
  -3   1   9    0.07    0.12
   2  -1  -9    1.50    0.24
  -2   1   9    1.69    0.28
   1  -1  -9    5.14    0.45
  -1   1   9    3.81    0.33
  -1   1   9    4.74    0.44
  -1   1   9    4.07    0.25
   0  -1  -9    0.37    0.12
   0  -1  -9    0.37    0.18
   0   1   9    0.23    0.15
   0   1   9    0.28    0.08
  -1  -1  -9    0.72    0.16
  -1  -1  -9    0.37    0.16
   1   1   9    1.11    0.23
  -2  -1  -9    0.40    0.15
  -2  -1  -9    0.52    0.18
   2   1   9    0.26    0.15
  -3  -1  -9    3.73    0.36
  -3  -1  -9    3.96    0.41
  -3  -1  -9    4.21    0.35
   3   1   9    3.93    0.41
  -4  -1  -9    1.67    0.28
  -4  -1  -9    1.93    0.31
  -4  -1  -9    1.25    0.25
   4   1   9    1.43    0.26
  -5  -1  -9   -0.12    0.17
  -5  -1  -9    0.06    0.18
  -5  -1  -9    0.05    0.16
   5   1   9   -0.03    0.15
  -6  -1  -9    0.31    0.22
  -6  -1  -9    0.34    0.23
  -6  -1  -9    0.08    0.17
   6   1   9    0.29    0.18
  -7  -1  -9    0.07    0.22
  -7  -1  -9    0.02    0.20
  -7  -1  -9   -0.29    0.18
   7   1   9   -0.01    0.17
  -5   2   9    0.04    0.15
  -5   2   9    0.34    0.20
  -4   2   9    0.03    0.15
  -4   2   9    0.21    0.16
   3  -2  -9    0.31    0.15
  -3   2   9    0.71    0.21
  -3   2   9    0.78    0.21
   2  -2  -9    0.03    0.13
  -2   2   9    0.14    0.14
  -2   2   9    0.23    0.14
   1  -2  -9   28.16    0.86
  -1   2   9   28.40    0.88
   0  -2  -9    0.19    0.14
   0  -2  -9    0.22    0.12
   0  -2  -9    0.43    0.12
   0   2   9    0.06    0.14
  -1  -2  -9    1.01    0.19
  -1  -2  -9    1.60    0.26
  -1  -2  -9    1.47    0.21
   1   2   9    1.62    0.27
  -2  -2  -9    1.10    0.24
  -2  -2  -9    1.45    0.23
   2   2   9    1.43    0.24
  -3  -2  -9    0.42    0.18
  -3  -2  -9    0.20    0.18
  -3  -2  -9    0.70    0.21
   3   2   9    0.22    0.16
  -4  -2  -9    0.01    0.15
  -4  -2  -9    0.14    0.16
  -4  -2  -9   -0.09    0.14
   4   2   9   -0.07    0.14
  -5  -2  -9    0.80    0.23
  -5  -2  -9    0.87    0.25
  -5  -2  -9    0.32    0.19
   5   2   9    0.90    0.23
  -6  -2  -9    0.43    0.22
  -6  -2  -9    0.46    0.24
  -6  -2  -9    0.43    0.25
   6   2   9    0.47    0.19
  -7  -2  -9    0.07    0.21
  -7  -2  -9   -0.16    0.17
  -7  -2  -9    0.11    0.19
   7   2   9   -0.26    0.14
  -8  -2  -9   -0.02    0.23
  -8  -2  -9    0.26    0.24
  -8  -2  -9   -0.04    0.21
  -5   3   9    0.00    0.17
  -5   3   9    0.10    0.16
   4  -3  -9    0.65    0.21
  -4   3   9    0.52    0.19
  -4   3   9    0.79    0.22
   3  -3  -9   -0.07    0.12
  -3   3   9   -0.02    0.14
  -3   3   9    0.06    0.13
   2  -3  -9   -0.01    0.12
  -2   3   9    0.07    0.13
  -2   3   9    0.06    0.13
   1  -3  -9   16.30    0.64
   1  -3  -9   14.81    0.43
  -1   3   9   15.94    0.65
  -1   3   9   15.56    0.65
   0  -3  -9    5.11    0.37
   0  -3  -9    6.08    0.42
   0  -3  -9    5.66    0.29
   0   3   9    5.68    0.40
  -1  -3  -9    0.04    0.14
  -1  -3  -9    0.36    0.14
  -1  -3  -9    0.06    0.12
   1   3   9    0.03    0.12
  -2  -3  -9    5.28    0.35
  -2  -3  -9    5.45    0.41
  -2  -3  -9    6.01    0.38
   2   3   9    5.83    0.41
  -3  -3  -9    9.32    0.52
  -3  -3  -9    8.75    0.46
   3   3   9    7.55    0.46
  -4  -3  -9    3.11    0.35
  -4  -3  -9    2.61    0.31
  -4  -3  -9    2.80    0.33
   4   3   9    2.99    0.31
  -5  -3  -9    1.87    0.29
  -5  -3  -9    1.66    0.30
  -5  -3  -9    1.47    0.29
   5   3   9    1.68    0.26
  -6  -3  -9   -0.19    0.17
  -6  -3  -9    0.17    0.18
  -6  -3  -9    0.23    0.19
   6   3   9    0.39    0.18
  -7  -3  -9    0.40    0.25
  -7  -3  -9    0.26    0.22
  -7  -3  -9    0.48    0.22
  -8  -3  -9    0.45    0.29
  -8  -3  -9    0.73    0.27
  -8  -3  -9    0.39    0.24
  -5   4   9    0.55    0.24
  -5   4   9    0.41    0.22
   4  -4  -9    0.18    0.16
  -4   4   9    0.11    0.18
  -4   4   9   -0.05    0.15
   3  -4  -9   -0.18    0.13
  -3   4   9    0.00    0.13
  -3   4   9   -0.07    0.14
   2  -4  -9    0.10    0.08
   2  -4  -9   -0.09    0.14
  -2   4   9    0.12    0.13
  -2   4   9    0.05    0.14
   1  -4  -9    0.16    0.14
   1  -4  -9    0.12    0.10
  -1   4   9    0.24    0.15
  -1   4   9    0.07    0.13
   0  -4  -9    6.55    0.43
   0  -4  -9    5.65    0.31
   0   4   9    5.81    0.42
   0   4   9    6.64    0.43
  -1  -4  -9    1.51    0.21
  -1  -4  -9    1.11    0.21
  -1  -4  -9    1.29    0.27
   1   4   9    0.91    0.21
  -2  -4  -9   13.27    0.53
  -2  -4  -9   12.94    0.60
   2   4   9   13.53    0.58
   2   4   9   12.68    0.31
  -3  -4  -9    0.02    0.15
  -3  -4  -9    0.03    0.15
   3   4   9    0.13    0.13
  -4  -4  -9    1.22    0.24
  -4  -4  -9    1.56    0.28
  -4  -4  -9    1.52    0.28
   4   4   9    1.84    0.26
  -5  -4  -9   -0.03    0.15
  -5  -4  -9   -0.01    0.14
  -5  -4  -9    0.07    0.18
   5   4   9   -0.01    0.13
  -6  -4  -9    0.36    0.21
  -6  -4  -9    0.18    0.18
  -6  -4  -9    0.23    0.18
   6   4   9    0.28    0.17
  -7  -4  -9    0.32    0.20
  -7  -4  -9   -0.07    0.18
  -7  -4  -9    0.06    0.19
  -8  -4  -9   -0.01    0.22
  -8  -4  -9   -0.03    0.19
  -8  -4  -9   -0.06    0.18
   4  -5  -9    0.08    0.17
  -4   5   9    0.02    0.16
  -4   5   9   -0.14    0.13
   3  -5  -9   -0.13    0.15
  -3   5   9    0.00    0.17
  -3   5   9   -0.24    0.10
   2  -5  -9    1.49    0.30
  -2   5   9    1.10    0.26
  -2   5   9    0.99    0.26
   1  -5  -9   -0.11    0.13
  -1   5   9    0.02    0.13
  -1   5   9   -0.06    0.11
   0  -5  -9    0.23    0.13
   0  -5  -9    0.29    0.18
   0   5   9    0.40    0.16
   0   5   9    0.53    0.20
  -1  -5  -9    3.77    0.36
  -1  -5  -9    4.44    0.32
   1   5   9    4.41    0.38
   1   5   9    4.60    0.45
  -2  -5  -9    2.81    0.31
  -2  -5  -9    2.83    0.33
   2   5   9    3.16    0.34
   2   5   9    3.00    0.33
   2   5   9    3.45    0.20
  -3  -5  -9    0.63    0.19
  -3  -5  -9    0.91    0.21
   3   5   9    0.81    0.09
   3   5   9    0.60    0.18
  -4  -5  -9    0.96    0.22
  -4  -5  -9    1.02    0.24
   4   5   9    1.23    0.21
  -5  -5  -9   -0.04    0.15
  -5  -5  -9   -0.01    0.14
  -5  -5  -9    0.01    0.18
   5   5   9   -0.06    0.12
  -6  -5  -9    1.89    0.31
  -6  -5  -9    1.90    0.30
  -6  -5  -9    1.76    0.32
   6   5   9    1.75    0.25
  -7  -5  -9    0.22    0.23
  -7  -5  -9    0.69    0.22
  -7  -5  -9    0.37    0.23
  -8  -5  -9    0.00    0.20
  -8  -5  -9   -0.06    0.20
  -8  -5  -9   -0.20    0.16
   4  -6  -9    0.12    0.18
  -4   6   9   -0.18    0.15
  -4   6   9    0.18    0.18
  -4   6   9    0.22    0.19
   3  -6  -9    0.40    0.23
  -3   6   9    0.93    0.28
  -3   6   9    0.43    0.19
   2  -6  -9   -0.01    0.17
  -2   6   9    0.28    0.17
  -2   6   9    0.31    0.19
   1  -6  -9    0.25    0.18
  -1   6   9   -0.04    0.13
  -1   6   9    0.36    0.19
   0  -6  -9    3.40    0.42
   0   6   9    3.06    0.38
   0   6   9    3.21    0.37
  -1  -6  -9   14.02    0.64
   1   6   9   15.22    0.62
   1   6   9   14.38    0.62
  -2  -6  -9    0.90    0.22
  -2  -6  -9    0.71    0.22
   2   6   9    0.59    0.12
   2   6   9    0.89    0.22
   2   6   9    0.82    0.19
  -3  -6  -9    1.93    0.27
  -3  -6  -9    2.01    0.28
   3   6   9    2.16    0.29
   3   6   9    1.93    0.17
   3   6   9    2.10    0.29
  -4  -6  -9    0.18    0.16
  -4  -6  -9    0.07    0.14
   4   6   9    0.00    0.13
   4   6   9    0.07    0.12
   4   6   9    0.02    0.06
  -5  -6  -9    1.02    0.25
  -5  -6  -9    1.31    0.24
   5   6   9    0.93    0.31
   5   6   9    1.22    0.21
  -6  -6  -9   -0.12    0.18
  -6  -6  -9    0.19    0.19
  -6  -6  -9    0.35    0.16
  -7  -6  -9    3.62    0.43
  -7  -6  -9    3.22    0.39
  -7  -6  -9    2.94    0.36
  -8  -6  -9   -0.09    0.21
  -8  -6  -9    0.16    0.25
  -8  -6  -9   -0.09    0.16
   3  -7  -9    0.85    0.29
  -3   7   9    0.93    0.28
  -3   7   9    0.56    0.26
  -3   7   9    0.86    0.25
   2  -7  -9    0.32    0.20
  -2   7   9    0.15    0.17
  -2   7   9    0.20    0.16
  -2   7   9    0.45    0.22
   1  -7  -9   -0.13    0.15
  -1   7   9    0.26    0.17
  -1   7   9    0.09    0.15
   0  -7  -9    0.53    0.19
   0   7   9    0.59    0.18
   0   7   9    0.73    0.22
  -1  -7  -9    4.43    0.42
   1   7   9    4.79    0.39
   1   7   9    4.44    0.41
  -2  -7  -9    0.40    0.20
   2   7   9    0.66    0.19
   2   7   9    0.42    0.18
   2   7   9    0.47    0.13
  -3  -7  -9   -0.11    0.13
  -3  -7  -9   -0.13    0.14
   3   7   9    0.03    0.12
   3   7   9   -0.03    0.08
   3   7   9    0.05    0.13
  -4  -7  -9    0.30    0.19
  -4  -7  -9    0.18    0.16
   4   7   9    0.33    0.14
   4   7   9    0.16    0.08
   4   7   9    0.21    0.14
  -5  -7  -9    0.01    0.14
  -5  -7  -9   -0.01    0.17
   5   7   9    0.20    0.13
  -6  -7  -9   -0.10    0.14
  -6  -7  -9    0.21    0.21
  -7  -7  -9    1.00    0.30
  -7  -7  -9    0.53    0.21
  -8  -7  -9    0.66    0.25
  -8  -7  -9    0.26    0.20
  -8  -7  -9    0.32    0.27
  -3   8   9   -0.29    0.19
  -3   8   9    0.11    0.20
   2  -8  -9    0.20    0.23
  -2   8   9    0.27    0.19
  -2   8   9    0.45    0.24
  -2   8   9    0.21    0.21
   1  -8  -9   -0.10    0.18
  -1   8   9    0.07    0.16
  -1   8   9    0.11    0.15
  -1   8   9    0.27    0.18
   0  -8  -9    0.69    0.24
   0   8   9    0.36    0.16
   0   8   9    0.41    0.19
   0   8   9    0.68    0.24
  -1  -8  -9    3.57    0.39
   1   8   9    3.09    0.38
   1   8   9    3.74    0.40
  -2  -8  -9    1.65    0.27
   2   8   9    1.37    0.21
   2   8   9    1.72    0.29
   2   8   9    1.22    0.24
  -3  -8  -9   -0.23    0.15
   3   8   9   -0.09    0.12
   3   8   9    0.05    0.10
   3   8   9    0.10    0.16
  -4  -8  -9    0.09    0.16
   4   8   9    0.17    0.11
   4   8   9    0.01    0.13
  -5  -8  -9    0.11    0.17
  -5  -8  -9    0.66    0.25
   5   8   9    0.29    0.11
  -6  -8  -9   -0.12    0.14
  -6  -8  -9    0.03    0.20
  -7  -8  -9    0.33    0.24
  -7  -8  -9    0.18    0.17
  -8  -8  -9    0.14    0.18
  -8  -8  -9    0.59    0.29
  -2   9   9    1.75    0.35
  -2   9   9    0.69    0.25
   1  -9  -9    0.15    0.22
  -1   9   9    0.59    0.25
  -1   9   9    0.09    0.17
   0  -9  -9    0.10    0.19
   0   9   9   -0.07    0.16
   0   9   9    0.31    0.18
  -1  -9  -9    0.24    0.20
   1   9   9    0.02    0.14
   1   9   9    0.10    0.16
   1   9   9   -0.04    0.12
  -2  -9  -9    2.66    0.39
   2   9   9    2.64    0.32
   2   9   9    2.47    0.29
  -3  -9  -9    0.35    0.20
   3   9   9    0.04    0.12
   3   9   9    0.10    0.14
  -4  -9  -9   -0.03    0.15
   4   9   9   -0.06    0.10
  -5  -9  -9    0.17    0.19
  -5  -9  -9   -0.24    0.17
   5   9   9   -0.12    0.09
  -6  -9  -9    0.44    0.25
  -6  -9  -9    0.13    0.17
  -7  -9  -9    0.93    0.31
  -7  -9  -9    0.58    0.23
   0 -10  -9   -0.17    0.19
   0  10   9    0.22    0.20
  -1 -10  -9    0.38    0.23
   1  10   9    0.05    0.16
   1  10   9    0.13    0.18
  -2 -10  -9   -0.10    0.19
   2  10   9   -0.24    0.13
   2  10   9   -0.05    0.14
  -3 -10  -9   -0.13    0.16
   3  10   9    0.04    0.12
  -4 -10  -9    0.20    0.19
   4  10   9    0.09    0.13
  -5 -10  -9   -0.12    0.15
   5  10   9    0.13    0.11
  -6 -10  -9    0.03    0.17
  -6 -10  -9    0.16    0.23
   6  10   9    0.32    0.21
  -2 -11  -9    0.19    0.25
   2  11   9   -0.03    0.15
   2  11   9    0.10    0.17
  -3 -11  -9    0.51    0.23
   3  11   9    0.55    0.20
   3  11   9    0.45    0.20
  -4 -11  -9    0.04    0.19
   4  11   9   -0.05    0.14
  -5 -11  -9    0.51    0.22
   5  11   9    0.29    0.17
  -2  -3  10    0.50    0.21
  -1  -3  10    0.11    0.15
   0  -3  10   -0.16    0.15
   1  -3  10    0.14    0.19
  -2   3 -10    0.17    0.15
   2  -3  10    0.01    0.18
  -3  -2  10    0.27    0.16
  -2  -2  10    0.69    0.22
  -1  -2  10    0.12    0.16
   0   2 -10    0.01    0.13
   0  -2  10   -0.18    0.12
  -1   2 -10    0.06    0.13
  -1   2 -10    0.14    0.16
   1  -2  10   -0.05    0.14
  -2   2 -10    0.03    0.17
  -2   2 -10    0.30    0.18
   2  -2  10    0.32    0.22
  -3   2 -10    0.39    0.22
   3  -2  10    0.11    0.22
  -4   2 -10    0.40    0.24
   4  -2  10    0.47    0.25
  -4  -1  10    0.10    0.15
  -3  -1  10    0.31    0.19
  -2  -1  10   -0.08    0.11
   1   1 -10   -0.08    0.12
  -1  -1  10   -0.03    0.13
   0   1 -10    0.34    0.18
   0   1 -10    0.40    0.12
   0  -1  10    0.30    0.17
  -1   1 -10    3.15    0.33
  -1   1 -10    2.62    0.33
   1  -1  10    2.51    0.33
  -2   1 -10    0.50    0.19
  -2   1 -10    0.45    0.18
  -2   1 -10    0.33    0.17
   2  -1  10    0.61    0.26
  -3   1 -10    0.98    0.26
  -3   1 -10    0.92    0.25
  -3   1 -10    1.20    0.31
   3  -1  10    1.16    0.26
  -4   1 -10    0.22    0.20
  -4   1 -10   -0.04    0.17
  -4   1 -10    0.13    0.19
   4  -1  10    0.14    0.19
  -5   1 -10    0.31    0.22
  -5   1 -10    0.22    0.25
   5  -1  10    0.09    0.21
  -4   0  10    0.05    0.16
  -4   0  10    0.08    0.16
  -3   0  10    0.84    0.24
   2   0 -10    0.60    0.23
  -2   0  10    1.03    0.24
   1   0 -10    0.98    0.24
  -1   0  10    0.59    0.19
   0   0 -10    0.54    0.18
   0   0 -10    0.59    0.14
   0   0  10    0.55    0.19
  -1   0 -10   -0.07    0.12
  -1   0 -10    0.01    0.12
   1   0  10    0.06    0.15
  -2   0 -10    1.76    0.27
  -2   0 -10    2.42    0.37
   2   0  10    2.47    0.35
  -3   0 -10    0.26    0.18
  -3   0 -10    0.03    0.14
  -3   0 -10   -0.02    0.16
   3   0  10   -0.04    0.14
  -4   0 -10    0.07    0.16
  -4   0 -10    0.03    0.16
  -4   0 -10   -0.11    0.16
   4   0  10    0.11    0.19
  -5   0 -10    0.23    0.24
  -5   0 -10    0.56    0.27
  -5   0 -10    0.56    0.25
   5   0  10    0.65    0.25
  -6   0 -10    0.04    0.23
  -6   0 -10    0.22    0.27
  -6   0 -10    0.14    0.24
   6   0  10    0.41    0.22
  -4   1  10    0.42    0.20
  -4   1  10    0.56    0.22
  -3   1  10    0.09    0.15
   2  -1 -10    1.13    0.23
  -2   1  10    1.06    0.25
   1  -1 -10    0.52    0.17
  -1   1  10    0.46    0.17
   0  -1 -10    2.65    0.23
   0  -1 -10    3.89    0.42
   0   1  10    2.69    0.33
  -1  -1 -10    0.00    0.12
  -1  -1 -10    0.06    0.12
   1   1  10    0.22    0.16
  -2  -1 -10    3.54    0.37
  -2  -1 -10    3.58    0.35
   2   1  10    4.11    0.45
  -3  -1 -10    0.37    0.18
  -3  -1 -10    0.09    0.16
  -3  -1 -10    0.37    0.18
   3   1  10    0.18    0.19
  -4  -1 -10    0.74    0.23
  -4  -1 -10    0.96    0.26
  -4  -1 -10    1.01    0.25
   4   1  10    0.43    0.18
  -5  -1 -10    0.94    0.27
  -5  -1 -10    0.78    0.26
  -5  -1 -10    0.92    0.29
   5   1  10    0.69    0.26
  -6  -1 -10    1.43    0.32
  -6  -1 -10    1.09    0.30
  -6  -1 -10    1.03    0.32
   6   1  10    1.33    0.30
  -4   2  10    0.37    0.20
  -4   2  10    0.38    0.18
   3  -2 -10    1.12    0.28
  -3   2  10    0.60    0.22
  -3   2  10    1.18    0.26
   2  -2 -10   -0.04    0.15
  -2   2  10   -0.01    0.15
   1  -2 -10    0.19    0.17
  -1   2  10    0.43    0.18
   0  -2 -10    1.11    0.17
   0  -2 -10    0.90    0.21
   0   2  10    0.98    0.26
  -1  -2 -10    1.13    0.24
  -1  -2 -10    1.12    0.20
   1   2  10    1.21    0.26
  -2  -2 -10    0.12    0.14
  -2  -2 -10    0.24    0.17
   2   2  10    0.24    0.17
  -3  -2 -10    0.43    0.21
  -3  -2 -10   -0.01    0.15
   3   2  10    0.15    0.18
  -4  -2 -10    1.07    0.25
  -4  -2 -10    0.83    0.24
  -4  -2 -10    0.96    0.25
   4   2  10    0.74    0.24
  -5  -2 -10    0.29    0.20
  -5  -2 -10   -0.05    0.19
  -5  -2 -10    0.31    0.23
   5   2  10    0.07    0.17
  -6  -2 -10   -0.02    0.19
  -6  -2 -10   -0.10    0.20
  -6  -2 -10    0.13    0.20
   6   2  10   -0.06    0.15
  -7  -2 -10    0.20    0.26
  -7  -2 -10    0.45    0.24
  -7  -2 -10    0.25    0.24
  -4   3  10    0.02    0.16
  -4   3  10    0.19    0.17
   3  -3 -10    0.13    0.17
  -3   3  10    0.22    0.18
  -3   3  10    0.21    0.19
   2  -3 -10    0.40    0.18
  -2   3  10    0.44    0.20
  -2   3  10    0.42    0.20
   1  -3 -10   -0.05    0.14
  -1   3  10    0.11    0.17
  -1   3  10   -0.17    0.10
   0  -3 -10   -0.03    0.15
   0  -3 -10   -0.04    0.09
   0   3  10    0.04    0.13
  -1  -3 -10    0.11    0.19
  -1  -3 -10    0.16    0.12
   1   3  10   -0.04    0.12
  -2  -3 -10    0.75    0.24
  -2  -3 -10    0.69    0.19
   2   3  10    1.07    0.25
  -3  -3 -10    0.16    0.16
  -3  -3 -10    0.06    0.15
   3   3  10    0.00    0.15
  -4  -3 -10    2.60    0.35
  -4  -3 -10    3.32    0.38
  -4  -3 -10    3.26    0.41
   4   3  10    3.70    0.42
  -5  -3 -10    1.69    0.33
  -5  -3 -10    2.09    0.33
  -5  -3 -10    1.69    0.33
   5   3  10    1.87    0.29
  -6  -3 -10    0.34    0.25
  -6  -3 -10    0.40    0.23
  -6  -3 -10    0.15    0.21
   6   3  10    0.50    0.22
  -7  -3 -10   -0.06    0.20
  -7  -3 -10   -0.01    0.21
  -7  -3 -10    0.11    0.24
  -4   4  10    0.22    0.19
  -4   4  10    0.21    0.21
   3  -4 -10    0.66    0.23
  -3   4  10    1.21    0.26
  -3   4  10    1.16    0.27
   2  -4 -10    0.05    0.17
  -2   4  10    0.02    0.15
  -2   4  10    0.23    0.18
   1  -4 -10    1.01    0.26
   1  -4 -10    0.73    0.14
  -1   4  10    0.37    0.18
  -1   4  10    0.63    0.22
   0  -4 -10    2.29    0.24
   0  -4 -10    2.17    0.31
   0   4  10    2.03    0.31
   0   4  10    2.24    0.34
  -1  -4 -10    0.04    0.15
  -1  -4 -10    0.14    0.12
   1   4  10   -0.29    0.12
  -2  -4 -10    0.27    0.18
  -2  -4 -10    0.54    0.17
   2   4  10    0.71    0.20
  -3  -4 -10    2.13    0.30
  -3  -4 -10    2.31    0.35
   3   4  10    1.21    0.23
  -4  -4 -10    0.37    0.22
  -4  -4 -10    0.50    0.21
   4   4  10    0.56    0.19
  -5  -4 -10    0.16    0.19
  -5  -4 -10   -0.31    0.14
  -5  -4 -10    0.19    0.20
   5   4  10    0.08    0.16
  -6  -4 -10    0.66    0.28
  -6  -4 -10    0.49    0.21
  -6  -4 -10   -0.05    0.18
   6   4  10    0.27    0.16
  -7  -4 -10    0.75    0.27
  -7  -4 -10    0.43    0.27
  -7  -4 -10    0.39    0.22
  -4   5  10    0.71    0.27
  -4   5  10    0.17    0.20
   3  -5 -10    0.35    0.18
  -3   5  10    0.81    0.25
  -3   5  10    0.49    0.23
   2  -5 -10   -0.08    0.15
  -2   5  10    0.44    0.19
  -2   5  10    0.19    0.18
   1  -5 -10    0.19    0.17
   1  -5 -10    0.11    0.09
  -1   5  10   -0.05    0.14
  -1   5  10   -0.07    0.13
   0  -5 -10   11.51    0.61
   0  -5 -10   10.94    0.45
   0   5  10   11.29    0.59
   0   5  10   10.68    0.58
  -1  -5 -10    0.37    0.21
  -1  -5 -10    0.12    0.13
   1   5  10    0.13    0.17
   1   5  10    0.02    0.16
  -2  -5 -10    0.99    0.25
  -2  -5 -10    0.94    0.21
   2   5  10    0.80    0.11
   2   5  10    0.78    0.22
   2   5  10    1.17    0.23
  -3  -5 -10    1.65    0.28
  -3  -5 -10    1.27    0.27
   3   5  10    1.71    0.28
  -4  -5 -10    7.57    0.50
  -4  -5 -10    7.14    0.51
   4   5  10    7.58    0.46
  -5  -5 -10   -0.01    0.16
  -5  -5 -10    0.16    0.19
   5   5  10    0.19    0.16
  -6  -5 -10    0.07    0.20
  -6  -5 -10    0.17    0.18
  -6  -5 -10   -0.11    0.18
   6   5  10    0.26    0.20
  -7  -5 -10    0.27    0.23
  -7  -5 -10    0.07    0.24
  -7  -5 -10    0.18    0.21
  -8  -5 -10    0.41    0.23
  -8  -5 -10    0.43    0.29
  -8  -5 -10    0.23    0.24
   3  -6 -10    0.01    0.21
  -3   6  10   -0.01    0.20
  -3   6  10   -0.07    0.17
   2  -6 -10    0.03    0.18
  -2   6  10    0.23    0.19
  -2   6  10    0.09    0.16
   1  -6 -10    0.28    0.21
  -1   6  10    0.05    0.15
  -1   6  10    0.32    0.18
   0  -6 -10    3.27    0.37
   0  -6 -10    3.07    0.31
   0   6  10    3.03    0.38
   0   6  10    3.11    0.37
  -1  -6 -10    5.37    0.37
  -1  -6 -10    5.75    0.49
   1   6  10    5.43    0.43
   1   6  10    4.78    0.41
  -2  -6 -10    0.15    0.15
  -2  -6 -10    0.16    0.19
   2   6  10    0.14    0.16
   2   6  10    0.15    0.09
   2   6  10   -0.07    0.14
  -3  -6 -10    0.71    0.21
  -3  -6 -10    0.61    0.24
   3   6  10    1.01    0.24
   3   6  10    0.67    0.21
  -4  -6 -10    0.37    0.19
  -4  -6 -10   -0.04    0.16
   4   6  10    0.32    0.18
   4   6  10    0.50    0.17
  -5  -6 -10    0.74    0.24
  -5  -6 -10    0.66    0.24
   5   6  10    0.78    0.21
  -6  -6 -10    0.01    0.18
  -6  -6 -10    0.66    0.25
  -7  -6 -10   -0.05    0.16
  -7  -6 -10    0.24    0.24
  -7  -6 -10    0.07    0.21
  -8  -6 -10   -0.12    0.19
  -8  -6 -10    0.38    0.26
  -8  -6 -10    0.12    0.25
   2  -7 -10   -0.23    0.16
  -2   7  10   -0.21    0.14
  -2   7  10   -0.01    0.20
   1  -7 -10    0.60    0.28
  -1   7  10   -0.02    0.15
  -1   7  10    0.20    0.21
   0  -7 -10   -0.09    0.17
   0   7  10   -0.10    0.12
   0   7  10   -0.02    0.15
  -1  -7 -10    3.35    0.39
   1   7  10    4.60    0.48
   1   7  10    4.28    0.47
  -2  -7 -10    0.19    0.16
  -2  -7 -10    0.05    0.19
   2   7  10    0.27    0.17
   2   7  10    0.33    0.13
   2   7  10    0.17    0.15
  -3  -7 -10   -0.10    0.15
  -3  -7 -10    0.14    0.17
   3   7  10   -0.02    0.07
   3   7  10   -0.08    0.13
   3   7  10    0.00    0.14
  -4  -7 -10    0.49    0.21
  -4  -7 -10    0.29    0.19
   4   7  10    0.28    0.15
  -5  -7 -10   -0.13    0.16
  -5  -7 -10    0.13    0.19
  -6  -7 -10   -0.07    0.19
  -6  -7 -10    0.17    0.18
  -7  -7 -10   -0.17    0.20
  -7  -7 -10    0.24    0.21
   2  -8 -10    0.14    0.23
  -2   8  10    0.23    0.20
  -2   8  10    0.30    0.25
  -2   8  10    0.31    0.24
   1  -8 -10    0.15    0.21
  -1   8  10    0.46    0.23
  -1   8  10    0.36    0.20
  -1   8  10    0.44    0.23
   0  -8 -10    0.59    0.24
   0   8  10    0.27    0.19
   0   8  10   -0.02    0.16
  -1  -8 -10    0.54    0.26
   1   8  10    0.22    0.16
   1   8  10    0.37    0.20
  -2  -8 -10    0.19    0.20
   2   8  10    0.33    0.21
   2   8  10    0.28    0.17
   2   8  10    0.28    0.13
  -3  -8 -10    0.12    0.17
  -3  -8 -10    0.11    0.20
   3   8  10   -0.13    0.15
   3   8  10   -0.07    0.09
  -4  -8 -10    0.15    0.19
  -4  -8 -10    0.29    0.22
   4   8  10    0.43    0.22
  -5  -8 -10    0.54    0.21
  -5  -8 -10   -0.15    0.17
  -6  -8 -10    0.09    0.18
  -6  -8 -10    0.21    0.22
  -7  -8 -10    0.39    0.26
  -7  -8 -10    0.01    0.19
   0  -9 -10    0.39    0.23
   0   9  10    0.59    0.26
  -1  -9 -10    1.55    0.34
   1   9  10    1.17    0.24
   1   9  10    1.23    0.27
  -2  -9 -10    1.05    0.31
   2   9  10    0.71    0.19
   2   9  10    0.86    0.22
  -3  -9 -10    0.08    0.19
   3   9  10    0.08    0.12
  -4  -9 -10    0.12    0.21
  -4  -9 -10    0.28    0.20
  -5  -9 -10   -0.33    0.14
  -5  -9 -10   -0.07    0.20
  -6  -9 -10    0.28    0.21
  -6  -9 -10    0.69    0.28
  -1 -10 -10    0.08    0.23
   1  10  10   -0.14    0.15
   1  10  10   -0.30    0.25
  -2 -10 -10    1.14    0.30
   2  10  10    1.15    0.24
  -3 -10 -10    0.28    0.22
   3  10  10    0.51    0.18
  -4 -10 -10   -0.05    0.19
  -5 -10 -10    0.35    0.22
  -5 -10 -10    0.29    0.24
   0  -2  11    0.03    0.17
   1  -2  11    0.05    0.21
  -2  -1  11    0.23    0.19
  -1  -1  11    0.25    0.18
   0  -1  11    0.20    0.20
  -1   1 -11    0.03    0.12
  -1   1 -11    0.11    0.14
   1  -1  11    0.25    0.19
  -2   1 -11    0.38    0.18
  -2   1 -11    0.55    0.23
   2  -1  11    0.63    0.27
  -3   1 -11    0.26    0.22
  -3   1 -11   -0.16    0.17
   3  -1  11    0.04    0.18
  -3   0  11    0.03    0.15
  -2   0  11    0.17    0.17
  -1   0  11    1.86    0.34
   0   0 -11    0.02    0.15
   0   0  11    0.09    0.17
  -1   0 -11    0.00    0.15
  -1   0 -11    0.00    0.12
   1   0  11   -0.10    0.14
  -2   0 -11    0.20    0.21
  -2   0 -11    0.46    0.21
   2   0  11    0.41    0.21
  -3   0 -11    0.57    0.26
  -3   0 -11    0.09    0.18
  -3   0 -11    0.56    0.33
   3   0  11    0.10    0.17
  -4   0 -11   -0.09    0.20
  -4   0 -11    0.04    0.19
  -4   0 -11    0.12    0.22
   4   0  11   -0.18    0.18
  -3   1  11    0.22    0.18
  -3   1  11    0.00    0.16
  -2   1  11    0.00    0.16
   1  -1 -11    0.29    0.17
  -1   1  11    0.35    0.18
   0  -1 -11    0.28    0.16
   0   1  11    0.32    0.20
  -1  -1 -11   -0.01    0.13
  -1  -1 -11    0.12    0.19
   1   1  11    0.38    0.20
  -2  -1 -11    0.31    0.17
  -2  -1 -11    0.10    0.16
   2   1  11    0.48    0.23
  -3  -1 -11    0.25    0.18
  -3  -1 -11    0.18    0.21
   3   1  11    0.45    0.23
  -4  -1 -11   -0.11    0.18
  -4  -1 -11    0.45    0.23
  -4  -1 -11    0.23    0.21
   4   1  11    0.02    0.19
  -5  -1 -11    0.12    0.24
  -5  -1 -11    0.38    0.22
  -5  -1 -11    0.14    0.24
   5   1  11    0.08    0.19
  -3   2  11    0.71    0.26
  -3   2  11    0.80    0.26
   2  -2 -11    0.09    0.17
  -2   2  11   -0.21    0.12
  -2   2  11    0.02    0.15
   1  -2 -11    0.12    0.15
  -1   2  11    0.00    0.16
   0  -2 -11    0.15    0.16
   0   2  11    0.07    0.15
  -1  -2 -11    0.04    0.12
  -1  -2 -11    0.09    0.14
   1   2  11    0.03    0.16
  -2  -2 -11    1.08    0.23
  -2  -2 -11    1.22    0.28
   2   2  11    1.30    0.30
  -3  -2 -11    0.09    0.16
  -3  -2 -11   -0.08    0.17
   3   2  11    0.14    0.18
  -4  -2 -11    0.09    0.18
  -4  -2 -11   -0.04    0.17
  -4  -2 -11    0.47    0.21
   4   2  11    0.08    0.19
  -5  -2 -11    0.76    0.27
  -5  -2 -11    0.56    0.24
  -5  -2 -11    0.24    0.21
   5   2  11    0.75    0.25
  -6  -2 -11    0.62    0.28
  -6  -2 -11    0.14    0.24
  -6  -2 -11    0.24    0.27
   6   2  11    0.54    0.25
  -3   3  11   -0.19    0.12
  -3   3  11   -0.01    0.19
   2  -3 -11    0.30    0.19
  -2   3  11   -0.07    0.15
  -2   3  11    0.25    0.21
   1  -3 -11    1.00    0.26
  -1   3  11    0.15    0.18
  -1   3  11    0.23    0.17
   0  -3 -11    0.37    0.21
   0  -3 -11    0.06    0.11
   0   3  11    0.40    0.20
  -1  -3 -11   -0.07    0.11
  -1  -3 -11   -0.18    0.15
   1   3  11    0.01    0.16
  -2  -3 -11    0.41    0.23
  -2  -3 -11    0.00    0.13
   2   3  11   -0.10    0.14
  -3  -3 -11    1.53    0.28
  -3  -3 -11    1.94    0.33
   3   3  11    1.49    0.31
  -4  -3 -11   -0.07    0.18
  -4  -3 -11    0.13    0.19
   4   3  11    0.15    0.17
  -5  -3 -11   -0.08    0.17
  -5  -3 -11    0.01    0.21
  -5  -3 -11    0.20    0.21
   5   3  11    0.09    0.18
  -6  -3 -11    0.08    0.23
  -6  -3 -11    0.32    0.26
  -6  -3 -11    0.57    0.30
   6   3  11    0.06    0.20
  -3   4  11    0.33    0.21
  -3   4  11    0.26    0.22
   2  -4 -11    0.15    0.20
  -2   4  11   -0.02    0.16
  -2   4  11   -0.01    0.17
   1  -4 -11    0.14    0.18
  -1   4  11    0.08    0.16
  -1   4  11   -0.07    0.14
   0  -4 -11    0.83    0.16
   0  -4 -11    0.87    0.24
   0   4  11    0.83    0.26
   0   4  11    0.42    0.21
  -1  -4 -11    1.61    0.30
  -1  -4 -11    1.50    0.22
   1   4  11    2.05    0.32
  -2  -4 -11    0.37    0.17
  -2  -4 -11    0.06    0.18
   2   4  11   -0.05    0.16
  -3  -4 -11    1.36    0.30
  -3  -4 -11    2.11    0.32
   3   4  11    1.63    0.30
  -4  -4 -11    1.94    0.32
  -4  -4 -11    2.81    0.43
   4   4  11    2.23    0.35
  -5  -4 -11    0.02    0.21
  -5  -4 -11   -0.10    0.20
   5   4  11    0.05    0.17
  -6  -4 -11    0.57    0.25
  -6  -4 -11    0.04    0.23
  -6  -4 -11    0.82    0.29
   6   4  11    0.27    0.25
   2  -5 -11    0.38    0.24
  -2   5  11    0.38    0.21
  -2   5  11    0.09    0.18
   1  -5 -11    0.42    0.24
  -1   5  11    0.02    0.15
  -1   5  11    0.04    0.16
   0  -5 -11    0.86    0.25
   0  -5 -11    0.94    0.18
   0   5  11    0.32    0.19
   0   5  11    0.83    0.25
  -1  -5 -11    0.23    0.14
  -1  -5 -11   -0.08    0.17
   1   5  11   -0.18    0.12
   1   5  11    0.16    0.19
  -2  -5 -11    0.38    0.17
  -2  -5 -11    0.20    0.19
   2   5  11   -0.09    0.15
   2   5  11    0.01    0.16
  -3  -5 -11    0.01    0.14
  -3  -5 -11    0.18    0.21
   3   5  11    0.18    0.18
  -4  -5 -11    0.14    0.19
  -4  -5 -11   -0.06    0.17
   4   5  11   -0.05    0.16
  -5  -5 -11    0.19    0.21
  -5  -5 -11    0.16    0.21
   5   5  11    0.24    0.18
  -6  -5 -11    1.29    0.31
  -6  -5 -11    1.09    0.32
  -6  -5 -11    0.88    0.27
  -7  -5 -11   -0.01    0.21
  -7  -5 -11   -0.12    0.23
  -7  -5 -11   -0.08    0.24
   2  -6 -11    1.47    0.33
  -2   6  11    1.15    0.29
  -2   6  11    1.33    0.32
   1  -6 -11    0.04    0.20
  -1   6  11    0.04    0.21
  -1   6  11    0.07    0.16
   0  -6 -11    0.13    0.22
   0  -6 -11    0.14    0.13
   0   6  11    0.00    0.15
   0   6  11   -0.08    0.15
  -1  -6 -11    0.16    0.12
  -1  -6 -11   -0.20    0.18
   1   6  11    0.10    0.15
   1   6  11   -0.05    0.15
  -2  -6 -11    0.00    0.14
  -2  -6 -11   -0.18    0.17
   2   6  11   -0.07    0.15
   2   6  11   -0.09    0.13
  -3  -6 -11    0.43    0.20
  -3  -6 -11   -0.17    0.18
   3   6  11    0.12    0.17
   3   6  11   -0.13    0.13
  -4  -6 -11   -0.16    0.17
  -4  -6 -11    0.10    0.18
   4   6  11    0.02    0.16
  -5  -6 -11    0.41    0.24
  -5  -6 -11    0.00    0.18
   5   6  11    0.22    0.18
  -6  -6 -11    0.31    0.24
  -6  -6 -11   -0.28    0.19
  -7  -6 -11    0.26    0.25
   1  -7 -11    0.23    0.23
  -1   7  11    0.07    0.18
  -1   7  11   -0.11    0.14
   0  -7 -11    0.70    0.29
   0  -7 -11    0.75    0.19
   0   7  11    0.13    0.19
   0   7  11    0.38    0.19
  -1  -7 -11    0.46    0.24
  -1  -7 -11    0.08    0.14
   1   7  11    0.07    0.16
   1   7  11   -0.24    0.14
  -2  -7 -11   -0.10    0.19
  -2  -7 -11   -0.06    0.15
   2   7  11   -0.22    0.15
   2   7  11    0.10    0.17
  -3  -7 -11    0.45    0.20
  -3  -7 -11    0.01    0.18
   3   7  11    0.58    0.21
  -4  -7 -11    0.09    0.18
  -4  -7 -11    0.26    0.21
   4   7  11    0.10    0.15
  -5  -7 -11    0.52    0.27
  -5  -7 -11    0.22    0.22
  -6  -7 -11    0.13    0.23
  -6  -7 -11    0.30    0.23
   0  -8 -11   -0.07    0.21
   0   8  11    0.03    0.20
   0   8  11   -0.02    0.19
  -1  -8 -11    3.34    0.45
   1   8  11    3.25    0.45
  -2  -8 -11   -0.24    0.20
  -2  -8 -11    0.27    0.19
   2   8  11    0.28    0.22
  -3  -8 -11    0.63    0.23
  -3  -8 -11    0.41    0.22
   3   8  11    0.40    0.20
  -4  -8 -11    0.17    0.20
  -4  -8 -11    0.09    0.21
  -5  -8 -11    0.38    0.25
  -5  -8 -11    0.12    0.20
  -6  -8 -11   -0.02    0.20
  -6  -8 -11   -0.17    0.21
  -1  -9 -11    0.25    0.25
   1   9  11    0.28    0.21
  -2  -9 -11    0.94    0.30
   2   9  11    1.09    0.28
  -3  -9 -11    0.16    0.20
  -3  -9 -11   -0.22    0.18
  -4  -9 -11   -0.03    0.21
  -4  -9 -11   -0.05    0.20
  -5  -9 -11    0.12    0.22
  -5  -9 -11    0.23    0.23
  -1   1  12    0.07    0.19
   0  -1 -12    0.17    0.19
   0   1  12    0.55    0.26
  -1  -1 -12   -0.09    0.18
   1   1  12    0.19    0.20
  -2  -1 -12   -0.23    0.15
  -2  -1 -12    0.07    0.19
   2   1  12   -0.13    0.15
  -3  -1 -12   -0.02    0.19
  -3  -1 -12   -0.14    0.17
   3   1  12    0.06    0.19
  -1   2  12    0.51    0.23
   0  -2 -12    0.97    0.29
   0   2  12    1.21    0.31
  -1  -2 -12   -0.03    0.20
   1   2  12   -0.21    0.15
  -2  -2 -12    0.24    0.18
  -2  -2 -12    0.10    0.19
   2   2  12    0.10    0.22
  -3  -2 -12    0.25    0.22
  -3  -2 -12    0.03    0.21
   3   2  12    0.09    0.21
  -4  -2 -12    0.35    0.26
  -4  -2 -12   -0.09    0.20
   4   2  12    0.17    0.23
   1  -3 -12    0.28    0.24
  -1   3  12    0.32    0.23
  -1   3  12    0.34    0.20
   0  -3 -12    0.26    0.20
   0   3  12    0.83    0.24
  -1  -3 -12    0.10    0.19
   1   3  12   -0.17    0.16
  -2  -3 -12    0.10    0.17
  -2  -3 -12    0.00    0.20
   2   3  12    0.05    0.18
  -3  -3 -12    0.48    0.23
  -3  -3 -12    0.50    0.23
   3   3  12    0.39    0.21
  -4  -3 -12    0.55    0.26
  -4  -3 -12    0.23    0.23
   4   3  12    0.13    0.19
   1  -4 -12   -0.09    0.21
  -1   4  12   -0.02    0.18
  -1   4  12    0.13    0.20
   0  -4 -12    0.22    0.21
   0   4  12   -0.21    0.17
   0   4  12   -0.13    0.15
  -1  -4 -12    2.39    0.36
  -1  -4 -12    1.46    0.26
   1   4  12    1.44    0.29
  -2  -4 -12    0.12    0.20
  -2  -4 -12    0.11    0.16
   2   4  12    0.05    0.16
  -3  -4 -12    0.11    0.20
  -3  -4 -12   -0.07    0.17
   3   4  12    0.01    0.21
  -4  -4 -12   -0.02    0.21
  -4  -4 -12   -0.11    0.20
   4   4  12    0.17    0.19
  -5  -4 -12    0.20    0.24
  -5  -4 -12    0.22    0.23
   5   4  12    0.20    0.20
   1  -5 -12    0.10    0.23
  -1   5  12    0.10    0.19
  -1   5  12   -0.09    0.20
   0  -5 -12    0.03    0.20
   0   5  12    0.25    0.20
   0   5  12    0.07    0.16
  -1  -5 -12    0.17    0.20
  -1  -5 -12    0.08    0.14
   1   5  12   -0.19    0.14
   1   5  12   -0.10    0.14
  -2  -5 -12    0.06    0.22
  -2  -5 -12    0.25    0.17
   2   5  12   -0.08    0.15
   2   5  12    0.24    0.21
  -3  -5 -12    0.17    0.21
  -3  -5 -12    0.17    0.18
   3   5  12   -0.19    0.16
  -4  -5 -12    0.04    0.19
  -4  -5 -12    0.14    0.23
   4   5  12   -0.01    0.19
  -5  -5 -12    0.14    0.22
  -5  -5 -12    0.17    0.21
   5   5  12    0.18    0.20
   0  -6 -12    0.12    0.24
   0   6  12    0.01    0.17
   0   6  12    0.41    0.22
  -1  -6 -12    0.12    0.14
  -1  -6 -12    0.40    0.23
   1   6  12    0.02    0.17
   1   6  12    0.13    0.18
  -2  -6 -12    0.02    0.21
  -2  -6 -12   -0.01    0.15
   2   6  12   -0.04    0.17
   2   6  12    0.04    0.22
  -3  -6 -12   -0.03    0.21
  -3  -6 -12    0.01    0.17
   3   6  12    0.11    0.19
  -4  -6 -12    0.02    0.23
  -4  -6 -12    0.21    0.19
   4   6  12   -0.03    0.19
  -5  -6 -12    0.27    0.24
  -5  -6 -12    0.19    0.24
  -1  -7 -12    0.42    0.27
  -1  -7 -12    0.51    0.18
   1   7  12    0.33    0.21
   1   7  12    0.34    0.21
  -2  -7 -12    0.25    0.18
  -2  -7 -12    0.03    0.22
   2   7  12   -0.07    0.17
  -3  -7 -12    0.33    0.20
  -3  -7 -12    0.15    0.21
   3   7  12    0.00    0.19
  -4  -7 -12    1.19    0.29
  -4  -7 -12    0.47    0.25
   4   7  12    0.81    0.37
  -3  -8 -12    0.49    0.25
  -3  -8 -12    0.22    0.26
   3   8  12    0.05    0.25
   0   0   0    0.00    0.00
;
_shelx_hkl_checksum              39508
loop_
_space_group_symop_operation_xyz
'x, y, z'
'-x, -y, -z'
loop_
_atom_site_label
_atom_site_type_symbol
_atom_site_fract_x
_atom_site_fract_y
_atom_site_fract_z
_atom_site_U_iso_or_equiv
_atom_site_adp_type
_atom_site_occupancy
_atom_site_site_symmetry_order
_atom_site_calc_flag
_atom_site_refinement_flags_posn
_atom_site_refinement_flags_adp
C1 C 0.2317(3) 0.2892(2) 0.9921(2) 0.0661(6) Uani 1 1 d . .
H1 H 0.2386 0.2146 0.9537 0.079 Uiso 1 1 calc R U
C2 C 0.1518(3) 0.2820(3) 1.1242(3) 0.0769(7) Uani 1 1 d . .
H2 H 0.1041 0.2031 1.1739 0.092 Uiso 1 1 calc R U
C3 C 0.1415(3) 0.3888(3) 1.1835(3) 0.0763(7) Uani 1 1 d . .
H3 H 0.0874 0.3825 1.2733 0.092 Uiso 1 1 calc R U
C4 C 0.2108(3) 0.5054(3) 1.1108(3) 0.0783(7) Uani 1 1 d . .
H4 H 0.2045 0.5781 1.1514 0.094 Uiso 1 1 calc R U
C5 C 0.2903(3) 0.5155(3) 0.9769(3) 0.0672(6) Uani 1 1 d . .
H5 H 0.3360 0.5958 0.9276 0.081 Uiso 1 1 calc R U
C6 C 0.3025(2) 0.4066(2) 0.9155(2) 0.0520(5) Uani 1 1 d . .
C7 C 0.3891(2) 0.4227(2) 0.7714(2) 0.0527(5) Uani 1 1 d . .
C8 C 0.3955(2) 0.3117(2) 0.6955(2) 0.0539(5) Uani 1 1 d . .
H8 H 0.3949 0.2137 0.7655 0.065 Uiso 1 1 calc R U
C9 C 0.7022(2) 0.2227(2) 0.6356(2) 0.0486(5) Uani 1 1 d . .
C10 C 0.7377(2) 0.1647(2) 0.7758(2) 0.0571(5) Uani 1 1 d . .
H10 H 0.6509 0.1748 0.8467 0.068 Uiso 1 1 calc R U
C11 C 0.9001(2) 0.0928(2) 0.8096(2) 0.0574(5) Uani 1 1 d . .
H11 H 0.9212 0.0558 0.9037 0.069 Uiso 1 1 calc R U
C12 C 1.0337(2) 0.0735(2) 0.70820(19) 0.0475(5) Uani 1 1 d . .
C13 C 0.9985(2) 0.1313(2) 0.5681(2) 0.0491(5) Uani 1 1 d . .
H13 H 1.0858 0.1202 0.4977 0.059 Uiso 1 1 calc R U
C14 C 0.8372(2) 0.2044(2) 0.5323(2) 0.0508(5) Uani 1 1 d . .
H14 H 0.8169 0.2426 0.4380 0.061 Uiso 1 1 calc R U
C15 C 1.2042(2) -0.0053(2) 0.7519(2) 0.0563(5) Uani 1 1 d . .
C16 C 1.4886(2) -0.1093(3) 0.6855(2) 0.0704(6) Uani 1 1 d . .
H16A H 1.5313 -0.0489 0.7186 0.106 Uiso 1 1 calc R U
H16B H 1.5590 -0.1289 0.6044 0.106 Uiso 1 1 calc R U
H16C H 1.4882 -0.2029 0.7583 0.106 Uiso 1 1 calc R U
C17 C 0.2376(3) 0.3706(2) 0.6176(3) 0.0673(6) Uani 1 1 d . .
H17A H 0.2376 0.4663 0.5482 0.101 Uiso 1 1 calc R U
H17B H 0.1395 0.3821 0.6833 0.101 Uiso 1 1 calc R U
H17C H 0.2364 0.3005 0.5724 0.101 Uiso 1 1 calc R U
N1 N 0.5416(2) 0.2928(2) 0.5966(2) 0.0589(5) Uani 1 1 d . .
O1 O 0.45158(19) 0.52701(17) 0.71027(15) 0.0703(5) Uani 1 1 d . .
O2 O 1.2420(2) -0.0419(3) 0.86940(18) 0.1126(8) Uani 1 1 d . .
O3 O 1.31892(16) -0.02985(16) 0.64813(14) 0.0646(4) Uani 1 1 d . .
H1N H 0.533(3) 0.338(3) 0.510(2) 0.068(7) Uiso 1 1 d . .
loop_
_atom_site_aniso_label
_atom_site_aniso_U_11
_atom_site_aniso_U_22
_atom_site_aniso_U_33
_atom_site_aniso_U_23
_atom_site_aniso_U_13
_atom_site_aniso_U_12
C1 0.0612(13) 0.0636(13) 0.0765(15) -0.0269(11) 0.0057(11) -0.0224(11)
C2 0.0682(15) 0.0772(16) 0.0789(17) -0.0227(13) 0.0138(12) -0.0251(13)
C3 0.0563(14) 0.0860(17) 0.0753(16) -0.0282(14) 0.0055(12) -0.0077(13)
C4 0.0727(15) 0.0812(17) 0.0877(18) -0.0459(14) -0.0008(13) -0.0120(14)
C5 0.0595(13) 0.0637(13) 0.0807(16) -0.0269(12) -0.0037(12) -0.0164(11)
C6 0.0367(10) 0.0533(11) 0.0642(13) -0.0184(10) -0.0075(9) -0.0080(9)
C7 0.0412(10) 0.0511(11) 0.0632(13) -0.0125(10) -0.0111(9) -0.0112(9)
C8 0.0439(11) 0.0502(11) 0.0644(13) -0.0171(9) -0.0016(9) -0.0113(9)
C9 0.0473(11) 0.0440(10) 0.0533(12) -0.0158(9) -0.0032(9) -0.0111(9)
C10 0.0470(11) 0.0615(12) 0.0503(12) -0.0137(10) 0.0049(9) -0.0077(10)
C11 0.0536(12) 0.0642(12) 0.0441(11) -0.0105(9) -0.0025(9) -0.0107(10)
C12 0.0451(11) 0.0474(10) 0.0476(11) -0.0140(9) -0.0008(8) -0.0123(9)
C13 0.0466(11) 0.0507(11) 0.0519(12) -0.0213(9) 0.0044(9) -0.0153(9)
C14 0.0561(12) 0.0531(11) 0.0438(10) -0.0162(9) -0.0032(9) -0.0150(10)
C15 0.0516(12) 0.0606(12) 0.0488(12) -0.0127(10) 0.0011(10) -0.0132(10)
C16 0.0432(12) 0.0746(15) 0.0791(16) -0.0204(12) -0.0023(10) -0.0025(11)
C17 0.0530(12) 0.0679(14) 0.0887(16) -0.0303(12) -0.0101(11) -0.0180(11)
N1 0.0471(10) 0.0660(11) 0.0542(11) -0.0137(9) -0.0043(8) -0.0087(8)
O1 0.0832(11) 0.0688(9) 0.0668(10) -0.0152(8) -0.0069(8) -0.0378(9)
O2 0.0602(10) 0.183(2) 0.0548(10) -0.0271(12) -0.0056(8) 0.0090(11)
O3 0.0465(8) 0.0788(10) 0.0585(9) -0.0222(7) 0.0009(7) -0.0060(7)
loop_
_atom_type_symbol
_atom_type_description
_atom_type_scat_dispersion_real
_atom_type_scat_dispersion_imag
_atom_type_scat_source
C C 0.0033 0.0016 'International Tables Vol C Tables 4.2.6.8 and 6.1.1.4'
H H 0.0000 0.0000 'International Tables Vol C Tables 4.2.6.8 and 6.1.1.4'
N N 0.0061 0.0033 'International Tables Vol C Tables 4.2.6.8 and 6.1.1.4'
O O 0.0106 0.0060 'International Tables Vol C Tables 4.2.6.8 and 6.1.1.4'
loop_
_geom_angle_atom_site_label_1
_geom_angle_atom_site_label_2
_geom_angle_atom_site_label_3
_geom_angle
C2 C1 C6 120.6(2)
C2 C1 H1 119.7
C6 C1 H1 119.7
C3 C2 C1 120.9(2)
C3 C2 H2 119.6
C1 C2 H2 119.6
C2 C3 C4 119.8(2)
C2 C3 H3 120.1
C4 C3 H3 120.1
C3 C4 C5 120.2(2)
C3 C4 H4 119.9
C5 C4 H4 119.9
C4 C5 C6 120.5(2)
C4 C5 H5 119.7
C6 C5 H5 119.7
C1 C6 C5 118.0(2)
C1 C6 C7 123.61(18)
C5 C6 C7 118.42(19)
O1 C7 C6 120.58(18)
O1 C7 C8 118.99(18)
C6 C7 C8 120.40(17)
N1 C8 C17 109.01(17)
N1 C8 C7 113.19(16)
C17 C8 C7 107.94(15)
N1 C8 H8 108.9
C17 C8 H8 108.9
C7 C8 H8 108.9
N1 C9 C10 122.50(18)
N1 C9 C14 119.70(18)
C10 C9 C14 117.78(17)
C11 C10 C9 120.30(18)
C11 C10 H10 119.8
C9 C10 H10 119.8
C10 C11 C12 122.17(18)
C10 C11 H11 118.9
C12 C11 H11 118.9
C11 C12 C13 117.62(17)
C11 C12 C15 119.30(17)
C13 C12 C15 123.08(17)
C14 C13 C12 120.99(17)
C14 C13 H13 119.5
C12 C13 H13 119.5
C13 C14 C9 121.13(18)
C13 C14 H14 119.4
C9 C14 H14 119.4
O2 C15 O3 121.09(19)
O2 C15 C12 124.80(19)
O3 C15 C12 114.07(17)
O3 C16 H16A 109.5
O3 C16 H16B 109.5
H16A C16 H16B 109.5
O3 C16 H16C 109.5
H16A C16 H16C 109.5
H16B C16 H16C 109.5
C8 C17 H17A 109.5
C8 C17 H17B 109.5
H17A C17 H17B 109.5
C8 C17 H17C 109.5
H17A C17 H17C 109.5
H17B C17 H17C 109.5
C9 N1 C8 123.38(18)
C9 N1 H1N 115.9(15)
C8 N1 H1N 119.9(15)
C15 O3 C16 116.44(16)
loop_
_geom_bond_atom_site_label_1
_geom_bond_atom_site_label_2
_geom_bond_distance
C1 C2 1.373(3)
C1 C6 1.387(3)
C1 H1 0.9300
C2 C3 1.361(3)
C2 H2 0.9300
C3 C4 1.367(3)
C3 H3 0.9300
C4 C5 1.383(3)
C4 H4 0.9300
C5 C6 1.391(3)
C5 H5 0.9300
C6 C7 1.486(3)
C7 O1 1.220(2)
C7 C8 1.530(3)
C8 N1 1.437(3)
C8 C17 1.525(3)
C8 H8 0.9800
C9 N1 1.372(2)
C9 C10 1.395(3)
C9 C14 1.403(3)
C10 C11 1.371(3)
C10 H10 0.9300
C11 C12 1.385(3)
C11 H11 0.9300
C12 C13 1.393(3)
C12 C15 1.467(3)
C13 C14 1.370(3)
C13 H13 0.9300
C14 H14 0.9300
C15 O2 1.200(2)
C15 O3 1.321(2)
C16 O3 1.444(2)
C16 H16A 0.9600
C16 H16B 0.9600
C16 H16C 0.9600
C17 H17A 0.9600
C17 H17B 0.9600
C17 H17C 0.9600
N1 H1N 0.84(2)
loop_
_geom_torsion_atom_site_label_1
_geom_torsion_atom_site_label_2
_geom_torsion_atom_site_label_3
_geom_torsion_atom_site_label_4
_geom_torsion
C6 C1 C2 C3 -0.6(4)
C1 C2 C3 C4 0.3(4)
C2 C3 C4 C5 0.4(4)
C3 C4 C5 C6 -0.8(3)
C2 C1 C6 C5 0.3(3)
C2 C1 C6 C7 -179.25(19)
C4 C5 C6 C1 0.4(3)
C4 C5 C6 C7 179.97(19)
C1 C6 C7 O1 -178.64(19)
C5 C6 C7 O1 1.8(3)
C1 C6 C7 C8 3.6(3)
C5 C6 C7 C8 -175.92(17)
O1 C7 C8 N1 30.8(2)
C6 C7 C8 N1 -151.40(17)
O1 C7 C8 C17 -89.9(2)
C6 C7 C8 C17 87.9(2)
N1 C9 C10 C11 178.66(18)
C14 C9 C10 C11 0.1(3)
C9 C10 C11 C12 -0.6(3)
C10 C11 C12 C13 0.6(3)
C10 C11 C12 C15 -179.63(18)
C11 C12 C13 C14 -0.1(3)
C15 C12 C13 C14 -179.86(17)
C12 C13 C14 C9 -0.4(3)
N1 C9 C14 C13 -178.22(17)
C10 C9 C14 C13 0.4(3)
C11 C12 C15 O2 -8.3(3)
C13 C12 C15 O2 171.4(2)
C11 C12 C15 O3 173.87(17)
C13 C12 C15 O3 -6.4(3)
C10 C9 N1 C8 -0.6(3)
C14 C9 N1 C8 177.86(17)
C17 C8 N1 C9 -170.94(17)
C7 C8 N1 C9 68.9(2)
O2 C15 O3 C16 3.1(3)
C12 C15 O3 C16 -179.02(16)
