#------------------------------------------------------------------------------
#$Date: 2019-11-24 16:00:59 +0200 (Sun, 24 Nov 2019) $
#$Revision: 238458 $
#$URL: file:///home/coder/svn-repositories/cod/cif/1/55/53/1555309.cif $
#------------------------------------------------------------------------------
#
# This file is available in the Crystallography Open Database (COD),
# http://www.crystallography.net/
#
# All data on this site have been placed in the public domain by the
# contributors.
#
data_1555309
loop_
_publ_author_name
'Petrone, David A.'
'Yen, Andy'
'Zeidan, Nicolas'
'Lautens, Mark'
_publ_section_title
;
 Dearomative Indole Bisfunctionalization via a Diastereoselective
 Palladium-Catalyzed Arylcyanation.
;
_journal_issue                   19
_journal_name_full               'Organic letters'
_journal_page_first              4838
_journal_page_last               4841
_journal_paper_doi               10.1021/acs.orglett.5b02403
_journal_volume                  17
_journal_year                    2015
_chemical_formula_moiety         'C17 H12 N2 O'
_chemical_formula_sum            'C17 H12 N2 O'
_chemical_formula_weight         260.29
_space_group_crystal_system      triclinic
_space_group_IT_number           2
_space_group_name_Hall           '-P 1'
_space_group_name_H-M_alt        'P -1'
_atom_sites_solution_hydrogens   geom
_audit_creation_method           SHELXL-2014/7
_cell_angle_alpha                92.847(2)
_cell_angle_beta                 95.144(2)
_cell_angle_gamma                94.822(2)
_cell_formula_units_Z            2
_cell_length_a                   6.9324(2)
_cell_length_b                   8.0825(3)
_cell_length_c                   12.0884(3)
_cell_measurement_reflns_used    8396
_cell_measurement_temperature    147(2)
_cell_measurement_theta_max      66.40
_cell_measurement_theta_min      3.68
_cell_volume                     671.09(4)
_computing_cell_refinement       APEX2
_computing_data_collection       'APEX2 (Bruker, 2007)'
_computing_data_reduction        'SAINT (Bruker, 2007)'
_computing_molecular_graphics    'PLATON (Spek, 2009)'
_computing_publication_material  'SHELXTL (Sheldrick, 2008)'
_computing_structure_refinement  'SHELXL-2014/7 (Sheldrick, 2015)'
_computing_structure_solution    'SHELXT (Sheldrick, 2008)'
_diffrn_ambient_temperature      147(2)
_diffrn_measured_fraction_theta_full 0.973
_diffrn_measured_fraction_theta_max 0.973
_diffrn_measurement_device_type  'Bruker Kappa APEX-DUO CCD'
_diffrn_measurement_method       '\f and \w scans'
_diffrn_radiation_type           CuK\a
_diffrn_radiation_wavelength     1.54178
_diffrn_reflns_av_R_equivalents  0.0500
_diffrn_reflns_av_unetI/netI     0.0295
_diffrn_reflns_Laue_measured_fraction_full 0.973
_diffrn_reflns_Laue_measured_fraction_max 0.973
_diffrn_reflns_limit_h_max       8
_diffrn_reflns_limit_h_min       -8
_diffrn_reflns_limit_k_max       9
_diffrn_reflns_limit_k_min       -9
_diffrn_reflns_limit_l_max       14
_diffrn_reflns_limit_l_min       0
_diffrn_reflns_number            26954
_diffrn_reflns_point_group_measured_fraction_full 0.973
_diffrn_reflns_point_group_measured_fraction_max 0.973
_diffrn_reflns_theta_full        67.348
_diffrn_reflns_theta_max         67.348
_diffrn_reflns_theta_min         3.677
_diffrn_source                   'Bruker ImuS with multi-layer optics'
_exptl_absorpt_coefficient_mu    0.652
_exptl_absorpt_correction_T_max  0.7529
_exptl_absorpt_correction_T_min  0.6726
_exptl_absorpt_correction_type   multi-scan
_exptl_absorpt_process_details   'TWINABS (Bruker, 2007)'
_exptl_crystal_colour            colourless
_exptl_crystal_density_diffrn    1.288
_exptl_crystal_description       needle
_exptl_crystal_F_000             272
_exptl_crystal_size_max          0.180
_exptl_crystal_size_mid          0.035
_exptl_crystal_size_min          0.035
_refine_diff_density_max         0.198
_refine_diff_density_min         -0.171
_refine_diff_density_rms         0.036
_refine_ls_extinction_method     none
_refine_ls_goodness_of_fit_ref   1.043
_refine_ls_hydrogen_treatment    constr
_refine_ls_matrix_type           full
_refine_ls_number_parameters     183
_refine_ls_number_reflns         2339
_refine_ls_number_restraints     0
_refine_ls_restrained_S_all      1.043
_refine_ls_R_factor_all          0.0441
_refine_ls_R_factor_gt           0.0357
_refine_ls_shift/su_max          0.000
_refine_ls_shift/su_mean         0.000
_refine_ls_structure_factor_coef Fsqd
_refine_ls_weighting_details
'w=1/[\s^2^(Fo^2^)+(0.0406P)^2^+0.1820P] where P=(Fo^2^+2Fc^2^)/3'
_refine_ls_weighting_scheme      calc
_refine_ls_wR_factor_gt          0.0843
_refine_ls_wR_factor_ref         0.0885
_reflns_Friedel_coverage         0.000
_reflns_number_gt                2057
_reflns_number_total             2339
_reflns_threshold_expression     'I > 2\s(I)'
_cod_data_source_file            ol5b02403_si_002.cif
_cod_data_source_block           d1561twin
_cod_database_code               1555309
_shelx_shelxl_version_number     2014/7
_shelx_space_group_comment
; 
The symmetry employed for this shelxl refinement is uniquely defined 
by the following loop, which should always be used as a source of 
symmetry information in preference to the above space-group names. 
They are only intended as comments. 
;
_shelx_estimated_absorpt_t_min   0.892
_shelx_estimated_absorpt_t_max   0.978
_shelx_res_file
; 
  
    d1561twin.res created by SHELXL-2014/7 
  
  
TITL cu_d1561_0m in P-1 
CELL 1.54178 6.9324 8.0825 12.0884 92.847 95.144 94.822 
ZERR 2.00 0.0002 0.0003 0.0003 0.002 0.002 0.002 
LATT 1 
SFAC C H N O 
UNIT 34 24 4 2 
TEMP -126.140 
SIZE 0.035 0.035 0.180 
ACTA 
MERG 0 
L.S. 4 
FMAP 2 
PLAN 20 
HTAB 
BOND $H 
CONF 
WGHT    0.040600    0.182000 
BASF   0.29952 
FVAR       1.16411 
O1    4    0.729478    0.222652    0.277146    11.00000    0.01832    0.10493 = 
         0.03413    0.00416    0.00691    0.01035 
N1    3    0.410807    0.155042    0.206927    11.00000    0.02084    0.03308 = 
         0.02451    0.00439    0.00861    0.00718 
N2    3    0.143664    0.578295    0.272624    11.00000    0.05290    0.02698 = 
         0.03442    0.00198    0.01072    0.01072 
C1    1    0.557397    0.198185    0.290737    11.00000    0.02266    0.05392 = 
         0.03115    0.00685    0.00633    0.01121 
C2    1    0.460309    0.212057    0.394406    11.00000    0.02689    0.05325 = 
         0.02623    0.00863    0.00794    0.01254 
C3    1    0.543496    0.248639    0.502764    11.00000    0.02859    0.09923 = 
         0.02819    0.00839    0.00367    0.01776 
AFIX  43 
H3A   2    0.680595    0.264024    0.519370    11.00000   -1.20000 
AFIX   0 
C4    1    0.419509    0.261759    0.585264    11.00000    0.03901    0.10682 = 
         0.02037    0.00545    0.00428    0.01550 
AFIX  43 
H4A   2    0.472021    0.284619    0.660311    11.00000   -1.20000 
AFIX   0 
C5    1    0.218941    0.242057    0.560306    11.00000    0.03691    0.07358 = 
         0.03034    0.01017    0.01719    0.01386 
AFIX  43 
H5A   2    0.136580    0.253207    0.618452    11.00000   -1.20000 
AFIX   0 
C6    1    0.137084    0.206385    0.451897    11.00000    0.02577    0.04783 = 
         0.03186    0.00986    0.01068    0.00889 
AFIX  43 
H6A   2    0.000017    0.191829    0.434987    11.00000   -1.20000 
AFIX   0 
C7    1    0.261364    0.192674    0.369180    11.00000    0.02533    0.02980 = 
         0.02727    0.00986    0.00928    0.00649 
C8    1    0.213397    0.152298    0.245901    11.00000    0.01778    0.02292 = 
         0.03040    0.00348    0.00973    0.00295 
C9    1    0.114692    0.281750    0.174000    11.00000    0.01982    0.02502 = 
         0.02538   -0.00045    0.00358    0.00263 
AFIX  13 
H9A   2   -0.024777    0.242720    0.151830    11.00000   -1.20000 
AFIX   0 
C10   1    0.230031    0.281261    0.072476    11.00000    0.02475    0.02432 = 
         0.02297   -0.00342    0.00671    0.00105 
C11   1    0.405744    0.212492    0.097967    11.00000    0.02582    0.02247 = 
         0.02190   -0.00024    0.00717   -0.00156 
C12   1    0.543697    0.205986    0.022801    11.00000    0.02471    0.03606 = 
         0.02746   -0.00578    0.00929    0.00091 
AFIX  43 
H12A  2    0.662668    0.158496    0.040351    11.00000   -1.20000 
AFIX   0 
C13   1    0.501160    0.272043   -0.080000    11.00000    0.04104    0.03924 = 
         0.02359   -0.00279    0.01520   -0.00172 
AFIX  43 
H13A  2    0.594571    0.271875   -0.132895    11.00000   -1.20000 
AFIX   0 
C14   1    0.326917    0.337584   -0.106776    11.00000    0.05595    0.03617 = 
         0.02313    0.00058    0.01013    0.00970 
AFIX  43 
H14A  2    0.301039    0.379713   -0.178067    11.00000   -1.20000 
AFIX   0 
C15   1    0.189048    0.342640   -0.030709    11.00000    0.04055    0.03614 = 
         0.02370   -0.00262    0.00259    0.01104 
AFIX  43 
H15A  2    0.068732    0.387467   -0.049238    11.00000   -1.20000 
AFIX   0 
C16   1    0.102138   -0.016919    0.219411    11.00000    0.03638    0.02477 = 
         0.04999    0.00181    0.01732   -0.00319 
AFIX 137 
H16A  2   -0.027720   -0.015777    0.245335    11.00000   -1.50000 
H16B  2    0.172177   -0.101860    0.256942    11.00000   -1.50000 
H16C  2    0.090107   -0.042398    0.138849    11.00000   -1.50000 
AFIX   0 
C17   1    0.130358    0.448471    0.230692    11.00000    0.02675    0.02797 = 
         0.02250    0.00538    0.00691    0.00880 
  
HKLF 5 1 1 0 0 0 1 0 0 0 1 
  
REM  cu_d1561_0m in P-1 
REM R1 =  0.0357 for    2057 Fo > 4sig(Fo)  and  0.0441 for all    2339 data 
REM    183 parameters refined using      0 restraints 
  
END 
  
WGHT      0.0405      0.1825 
  
REM Instructions for potential hydrogen bonds 
EQIV $1 x-1, y, z 
HTAB C9 O1_$1 
EQIV $2 x, y-1, z 
HTAB C16 N2_$2 
  
REM Highest difference peak  0.198,  deepest hole -0.171,  1-sigma level  0.036 
Q1    1   0.2098  0.2527  0.4075  11.00000  0.05    0.20 
Q2    1   0.3519  0.1370  0.3896  11.00000  0.05    0.15 
Q3    1   0.1490  0.2473  0.0169  11.00000  0.05    0.14 
Q4    1   0.0958  0.2886  0.2973  11.00000  0.05    0.14 
Q5    1   0.3921  0.1439  0.2938  11.00000  0.05    0.14 
Q6    1   0.6697  0.1062  0.2418  11.00000  0.05    0.13 
Q7    1   0.2487  0.2621 -0.0729  11.00000  0.05    0.13 
Q8    1   0.2413  0.1951  0.3197  11.00000  0.05    0.13 
Q9    1   0.3963  0.4258 -0.1969  11.00000  0.05    0.13 
Q10   1   0.1449  0.3104  0.5094  11.00000  0.05    0.13 
Q11   1   0.7046  0.3374  0.5063  11.00000  0.05    0.12 
Q12   1   0.7004  0.2612  0.1819  11.00000  0.05    0.12 
Q13   1   0.4657  0.1311  0.4799  11.00000  0.05    0.12 
Q14   1   0.8121  0.3926  0.2626  11.00000  0.05    0.12 
Q15   1  -0.1394 -0.0456  0.3182  11.00000  0.05    0.11 
Q16   1   0.0171  0.3471  0.3626  11.00000  0.05    0.11 
Q17   1   0.6838  0.1674  0.5046  11.00000  0.05    0.11 
Q18   1   0.6110  0.3835 -0.1430  11.00000  0.05    0.11 
Q19   1  -0.1712 -0.1266  0.2542  11.00000  0.05    0.11 
Q20   1   0.0640  0.0185  0.4813  11.00000  0.05    0.10 
;
_shelx_res_checksum              62653
_shelx_hkl_file
; 
   1   0   0 1104.42 14.8609   1 
   2   0   0 15.3178 0.47519   1 
  -3   0   1 2047.03 23.3131  -2 
   3   0   0 2047.03 23.3131   1 
  -4   0   1 77.0718 5.21338  -2 
   4   0   0 77.0718 5.21338   1 
  -5   0   2 43.8498 5.47092  -2 
   5   0   0 43.8498 5.47092   1 
  -6   0   2 176.551 2.23221  -2 
   6   0   0 176.551 2.23221   1 
  -7   0   2 181.513 3.75738  -2 
   7   0   0 181.513 3.75738   1 
  -8   0   3 6.36888 2.65873  -2 
   8   0   0 6.36888 2.65873   1 
  -8   1   0 2.77090 1.29049   1 
  -7   1   2 88.0424 2.34612  -2 
  -7   1   0 88.0424 2.34612   1 
  -6   1   2 97.9111 1.96100  -2 
  -6   1   0 97.9111 1.96100   1 
  -5   1   0 2.54090 0.43633   1 
  -4   1   1 63.5749 1.20554  -2 
  -4   1   0 63.5749 1.20554   1 
  -3   1   1 56.4372 1.41029  -2 
  -3   1   0 56.4372 1.41029   1 
  -2   1   0 525.863 7.49510   1 
  -1   1   0 2429.08 98.1196  -2 
  -1   1   0 2429.08 98.1196   1 
   0   1   0 117.674 3.49268  -2 
   0   1   0 117.674 3.49268   1 
   1   1   0 4671.79 85.4257   1 
  -2  -1   1 31.7747 1.87955  -2 
   2   1   0 31.7747 1.87955   1 
  -3  -1   1 10.0359 1.00113  -2 
   3   1   0 10.0359 1.00113   1 
   4   1   0 346.154 5.49250   1 
  -5  -1   2 73.4046 2.28577  -2 
   5   1   0 73.4046 2.28577   1 
  -6  -1   2 278.861 4.01623  -2 
   6   1   0 278.861 4.01623   1 
   7   1   0 62.1927 1.99759   1 
  -8  -1   3 28.4829 2.50312  -2 
   8   1   0 28.4829 2.50312   1 
  -8   2   2 14.8509 2.18283  -2 
  -8   2   0 14.8509 2.18283   1 
  -7   2   2 84.1904 1.93634  -2 
  -7   2   0 84.1904 1.93634   1 
  -6   2   2 360.183 6.36243  -2 
  -6   2   0 360.183 6.36243   1 
  -5   2   1 35.2612 1.28750  -2 
  -5   2   0 35.2612 1.28750   1 
  -4   2   1 826.128 8.17230  -2 
  -4   2   0 826.128 8.17230   1 
  -3   2   0 331.732 3.47378   1 
  -2   2   0 9.82249 0.41564   1 
  -1   2   0 4150.09 57.3090  -2 
  -1   2   0 4150.09 57.3090   1 
   0   2   0 9999.99 139.626   1 
   1   2   0 3262.40 65.4485   1 
  -2  -2   1 41.0754 1.59016  -2 
   2   2   0 41.0754 1.59016   1 
   3   2   0 151.121 5.18186   1 
   4   2   0 111.616 2.34572   1 
  -5  -2   2 35.1727 1.28746  -2 
   5   2   0 35.1727 1.28746   1 
  -6  -2   2 13.8912 2.39733  -2 
   6   2   0 13.8912 2.39733   1 
  -7  -2   3 33.0389 2.64117  -2 
   7   2   0 33.0389 2.64117   1 
  -7   3   2 2.46711 1.91105  -2 
  -7   3   0 2.46711 1.91105   1 
  -6   3   1 39.3394 4.41628  -2 
  -6   3   0 39.3394 4.41628   1 
  -5   3   1 25.3788 0.93237  -2 
  -5   3   0 25.3788 0.93237   1 
  -4   3   1 25.0257 0.86667  -2 
  -4   3   0 25.0257 0.86667   1 
  -3   3   0 4.47685 0.42744   1 
  -2   3   0 579.964 5.93403  -2 
  -2   3   0 579.964 5.93403   1 
  -1   3   0 54.2483 1.14655  -2 
  -1   3   0 54.2483 1.14655   1 
   0   3   0 464.236 5.81848   1 
  -1  -3   1 1415.43 40.9066  -2 
   1   3   0 1415.43 40.9066   1 
  -2  -3   1 141.631 5.11324  -2 
   2   3   0 141.631 5.11324   1 
   3   3   0 58.8744 2.88977   1 
  -4  -3   2 94.4231 3.04892  -2 
   4   3   0 94.4231 3.04892   1 
  -5  -3   2 161.987 4.81991  -2 
   5   3   0 161.987 4.81991   1 
   6   3   0 84.0521 2.38518   1 
  -7  -3   3 125.663 3.79515  -2 
   7   3   0 125.663 3.79515   1 
  -7   4   2 95.1295 2.82909  -2 
  -7   4   0 95.1295 2.82909   1 
  -6   4   1 140.895 2.60288  -2 
  -6   4   0 140.895 2.60288   1 
  -5   4   1 57.9351 1.18319  -2 
  -5   4   0 57.9351 1.18319   1 
  -4   4   1 71.9570 3.41318  -2 
  -4   4   0 71.9570 3.41318   1 
  -3   4   0 305.832 12.3859  -2 
  -3   4   0 305.832 12.3859   1 
  -2   4   0 173.333 2.04283  -2 
  -2   4   0 173.333 2.04283   1 
  -1   4   0 39.2972 4.14156  -2 
  -1   4   0 39.2972 4.14156   1 
   0  -4   1 1437.32 38.7971  -2 
   0   4   0 1437.32 38.7971   1 
  -1  -4   1 37.2604 1.42393  -2 
   1   4   0 37.2604 1.42393   1 
   2   4   0 95.2723 3.89212   1 
  -3  -4   2 45.8304 7.03759  -2 
   3   4   0 45.8304 7.03759   1 
  -4  -4   2 80.2118 2.40505  -2 
   4   4   0 80.2118 2.40505   1 
  -5  -4   2 63.7432 5.42700  -2 
   5   4   0 63.7432 5.42700   1 
  -6  -4   3 17.0702 4.66402  -2 
   6   4   0 17.0702 4.66402   1 
  -7  -4   3 8.95150 1.98951  -2 
   7   4   0 8.95150 1.98951   1 
  -7   5   1 29.7777 2.56987  -2 
  -7   5   0 29.7777 2.56987   1 
  -6   5   1 61.0350 1.98016  -2 
  -6   5   0 61.0350 1.98016   1 
  -5   5   1 42.3295 1.49691  -2 
  -5   5   0 42.3295 1.49691   1 
  -4   5   0 0.44797 0.52016   1 
  -3   5   0 10.0859 0.83401  -2 
  -3   5   0 10.0859 0.83401   1 
  -2   5   0 123.957 1.65718  -2 
  -2   5   0 123.957 1.65718   1 
  -1   5   0 190.012 2.46077   1 
   0  -5   1 543.060 7.87708  -2 
   0   5   0 543.060 7.87708   1 
  -1  -5   1 36.3514 2.27712  -2 
   1   5   0 36.3514 2.27712   1 
   2   5   0 0.98405 0.90917   1 
  -3  -5   2 41.6985 2.31194  -2 
   3   5   0 41.6985 2.31194   1 
  -4  -5   2 7.76677 2.11980  -2 
   4   5   0 7.76677 2.11980   1 
   5   5   0 2.31396 1.46844   1 
  -6  -5   3 16.1513 2.83949  -2 
   6   5   0 16.1513 2.83949   1 
  -6   6   1 43.0928 2.32679  -2 
  -6   6   0 43.0928 2.32679   1 
  -5   6   1 17.1728 3.01338  -2 
  -5   6   0 17.1728 3.01338   1 
  -4   6   0 -0.8186 1.54512  -2 
  -4   6   0 -0.8186 1.54512   1 
  -3   6   0 12.9595 0.85630  -2 
  -3   6   0 12.9595 0.85630   1 
  -2   6   0 103.832 3.15481  -2 
  -2   6   0 103.832 3.15481   1 
   1  -6   1 179.324 2.70314  -2 
  -1   6   0 179.324 2.70314   1 
   0  -6   1 15.3344 0.99073  -2 
   0   6   0 15.3344 0.99073   1 
  -1  -6   1 15.6981 3.98721  -2 
   1   6   0 15.6981 3.98721   1 
  -2  -6   2 4.24457 3.40588  -2 
   2   6   0 4.24457 3.40588   1 
  -3  -6   2 49.6015 2.55433  -2 
   3   6   0 49.6015 2.55433   1 
  -4  -6   2 7.66764 5.83908  -2 
   4   6   0 7.66764 5.83908   1 
   5   6   0 18.0081 1.95420   1 
  -6   7   1 4.98931 2.25744  -2 
  -6   7   0 4.98931 2.25744   1 
  -5   7   0 8.31952 5.68693  -2 
  -5   7   0 8.31952 5.68693   1 
  -4   7   0 40.1908 1.69612  -2 
  -4   7   0 40.1908 1.69612   1 
  -3   7   0 61.7224 2.02706  -2 
  -3   7   0 61.7224 2.02706   1 
   2  -7   1 39.6245 6.71036  -2 
  -2   7   0 39.6245 6.71036   1 
   1  -7   1 248.785 3.99116  -2 
  -1   7   0 248.785 3.99116   1 
   0  -7   1 43.5541 2.06386  -2 
   0   7   0 43.5541 2.06386   1 
   1   7   0 8.08487 0.97294   1 
  -2  -7   2 22.1084 2.94431  -2 
   2   7   0 22.1084 2.94431   1 
  -3  -7   2 12.2230 2.72394  -2 
   3   7   0 12.2230 2.72394   1 
   4   7   0 2.26998 1.63688   1 
  -4   8   0 -0.7514 1.03079  -2 
  -4   8   0 -0.7514 1.03079   1 
  -3   8   0 0.38257 3.20970  -2 
  -3   8   0 0.38257 3.20970   1 
   2  -8   1 0.77544 1.66168  -2 
  -2   8   0 0.77544 1.66168   1 
   1  -8   1 15.5307 1.11252  -2 
  -1   8   0 15.5307 1.11252   1 
   0  -8   1 26.1286 2.22137  -2 
   0   8   0 26.1286 2.22137   1 
  -1  -8   2 26.8522 2.44536  -2 
   1   8   0 26.8522 2.44536   1 
  -2  -8   2 21.7248 1.36411  -2 
   2   8   0 21.7248 1.36411   1 
  -3  -8   2 31.3163 3.17697  -2 
   3   8   0 31.3163 3.17697   1 
  -3   9   0 -0.2242 0.89960   1 
   2  -9   1 3.00317 1.35920  -2 
  -2   9   0 3.00317 1.35920   1 
   1  -9   1 10.6498 1.87687  -2 
  -1   9   0 10.6498 1.87687   1 
   0   9   0 4.56919 1.02507   1 
  -1  -9   2 4.39752 1.41689  -2 
   1   9   0 4.39752 1.41689   1 
  -1  -9   1 14.8619 1.69892  -2 
  -1  -9   1 14.8619 1.69892   1 
   0  -9   1 3.72526 0.95724   1 
  -1   9   0 16.5070 2.28029  -2 
   1  -9   1 16.5070 2.28029   1 
  -2   9   0 11.1391 1.39743  -2 
   2  -9   1 11.1391 1.39743   1 
   3  -9   1 1.18288 0.98356   1 
  -3  -8   1 9.82994 3.43474  -2 
  -3  -8   1 9.82994 3.43474   1 
  -2  -8   1 108.124 3.01134  -2 
  -2  -8   1 108.124 3.01134   1 
  -1  -8   1 6.27296 2.14209  -2 
  -1  -8   1 6.27296 2.14209   1 
   0   8   0 13.9883 2.02636  -2 
   0  -8   1 13.9883 2.02636   1 
  -1   8   0 29.8877 1.23715  -2 
   1  -8   1 29.8877 1.23715   1 
  -2   8   0 0.20493 1.57595  -2 
   2  -8   1 0.20493 1.57595   1 
  -3   8   1 -3.0682 3.21717  -2 
   3  -8   1 -3.0682 3.21717   1 
  -4   8   1 2.55473 1.30299  -2 
   4  -8   1 2.55473 1.30299   1 
  -4  -7   1 4.13998 3.21015   1 
  -3  -7   1 16.7597 3.15486  -2 
  -3  -7   1 16.7597 3.15486   1 
  -2  -7   1 44.6484 3.12780  -2 
  -2  -7   1 44.6484 3.12780   1 
  -1  -7   1 85.2995 2.34274   1 
   0   7   0 85.0725 2.81556  -2 
   0  -7   1 85.0725 2.81556   1 
  -1   7   0 200.767 3.44800  -2 
   1  -7   1 200.767 3.44800   1 
  -2   7   0 91.9030 5.03706  -2 
   2  -7   1 91.9030 5.03706   1 
  -3   7   1 125.805 2.76877  -2 
   3  -7   1 125.805 2.76877   1 
  -4   7   1 16.5794 1.44709  -2 
   4  -7   1 16.5794 1.44709   1 
  -5   7   1 44.1081 5.76738  -2 
   5  -7   1 44.1081 5.76738   1 
  -5  -6   1 83.2565 4.25095   1 
  -4  -6   1 0.49611 1.99230   1 
  -3  -6   1 2.02281 1.60309  -2 
  -3  -6   1 2.02281 1.60309   1 
  -2  -6   1 9.87488 3.96582  -2 
  -2  -6   1 9.87488 3.96582   1 
   1   6   0 23.2637 3.10482  -2 
  -1  -6   1 23.2637 3.10482   1 
   0   6   0 27.0388 1.09101  -2 
   0  -6   1 27.0388 1.09101   1 
  -1   6   0 381.342 5.32736  -2 
   1  -6   1 381.342 5.32736   1 
  -2   6   1 83.7290 2.49058  -2 
   2  -6   1 83.7290 2.49058   1 
  -3   6   1 22.5313 0.97923  -2 
   3  -6   1 22.5313 0.97923   1 
  -4   6   1 91.6752 2.33930  -2 
   4  -6   1 91.6752 2.33930   1 
  -5   6   2 62.5865 3.33860  -2 
   5  -6   1 62.5865 3.33860   1 
  -6   6   2 -1.2341 1.67027  -2 
   6  -6   1 -1.2341 1.67027   1 
  -6  -5   2 2.44368 2.97737  -2 
  -6  -5   1 2.44368 2.97737   1 
  -5  -5   1 26.5626 2.19192   1 
  -4  -5   1 58.0840 2.89462  -2 
  -4  -5   1 58.0840 2.89462   1 
  -3  -5   1 157.668 3.97462  -2 
  -3  -5   1 157.668 3.97462   1 
  -2  -5   1 37.5833 1.49680   1 
   1   5   0 58.1507 2.62556  -2 
  -1  -5   1 58.1507 2.62556   1 
   0   5   0 412.939 7.55069  -2 
   0  -5   1 412.939 7.55069   1 
  -1   5   0 187.269 8.79686  -2 
   1  -5   1 187.269 8.79686   1 
  -2   5   1 69.7027 1.31360  -2 
   2  -5   1 69.7027 1.31360   1 
  -3   5   1 38.2539 0.96464  -2 
   3  -5   1 38.2539 0.96464   1 
   4  -5   1 2.22822 0.56147   1 
  -5   5   2 1.39125 1.23359  -2 
   5  -5   1 1.39125 1.23359   1 
  -6   5   2 65.4083 2.21224  -2 
   6  -5   1 65.4083 2.21224   1 
  -7   5   2 6.43006 3.03530  -2 
   7  -5   1 6.43006 3.03530   1 
  -7  -4   2 63.0742 2.93295  -2 
  -7  -4   1 63.0742 2.93295   1 
  -6  -4   2 35.4998 8.03506  -2 
  -6  -4   1 35.4998 8.03506   1 
  -5  -4   1 125.173 6.42060  -2 
  -5  -4   1 125.173 6.42060   1 
  -4  -4   1 36.9910 1.86118  -2 
  -4  -4   1 36.9910 1.86118   1 
  -3  -4   1 176.315 11.0996  -2 
  -3  -4   1 176.315 11.0996   1 
  -2  -4   1 27.7337 2.19917   1 
   1   4   0 20.3183 1.31688  -2 
  -1  -4   1 20.3183 1.31688   1 
   0   4   0 1690.61 57.4387  -2 
   0  -4   1 1690.61 57.4387   1 
   1  -4   1 1166.21 12.1988   1 
  -2   4   1 151.304 1.92239  -2 
   2  -4   1 151.304 1.92239   1 
  -3   4   1 97.6384 3.89958  -2 
   3  -4   1 97.6384 3.89958   1 
  -4   4   2 168.919 5.74202  -2 
   4  -4   1 168.919 5.74202   1 
  -5   4   2 72.3325 1.34145  -2 
   5  -4   1 72.3325 1.34145   1 
  -6   4   2 72.5716 2.05114  -2 
   6  -4   1 72.5716 2.05114   1 
  -7   4   3 23.7593 3.21410  -2 
   7  -4   1 23.7593 3.21410   1 
  -7  -3   2 72.7398 3.30278  -2 
  -7  -3   1 72.7398 3.30278   1 
  -6  -3   1 12.5272 1.13865   1 
  -5  -3   1 3.05750 2.00450  -2 
  -5  -3   1 3.05750 2.00450   1 
  -4  -3   1 256.403 4.87313  -2 
  -4  -3   1 256.403 4.87313   1 
  -3  -3   1 11.8917 1.99926   1 
   1   3   0 784.200 23.7845  -2 
  -1  -3   1 784.200 23.7845   1 
   0  -3   1 2.42677 0.37617   1 
  -1   3   1 540.238 6.76664  -2 
   1  -3   1 540.238 6.76664   1 
  -2   3   1 156.746 2.16814  -2 
   2  -3   1 156.746 2.16814   1 
   3  -3   1 14.7172 0.62923   1 
  -4   3   2 75.8243 1.26951  -2 
   4  -3   1 75.8243 1.26951   1 
  -5   3   2 119.783 1.93734  -2 
   5  -3   1 119.783 1.93734   1 
   6  -3   1 93.5778 2.14699   1 
  -7   3   3 20.6179 2.31087  -2 
   7  -3   1 20.6179 2.31087   1 
  -7  -2   2 100.975 3.80978  -2 
  -7  -2   1 100.975 3.80978   1 
  -6  -2   1 227.472 5.66487  -2 
  -6  -2   1 227.472 5.66487   1 
  -5  -2   1 22.8358 1.23391  -2 
  -5  -2   1 22.8358 1.23391   1 
  -4  -2   1 41.3608 1.32398   1 
  -3  -2   1 48.1881 2.45294   1 
   2   2   0 80.9436 2.45963  -2 
  -2  -2   1 80.9436 2.45963   1 
  -1  -2   1 313.304 6.88591   1 
   0  -2   1 2706.30 46.3008   1 
  -1   2   1 2923.01 44.6179  -2 
   1  -2   1 2923.01 44.6179   1 
   2  -2   1 603.698 5.98875   1 
   3  -2   1 4.33047 0.38435   1 
  -4   2   2 329.563 3.54936  -2 
   4  -2   1 329.563 3.54936   1 
  -5   2   2 65.3979 1.59084  -2 
   5  -2   1 65.3979 1.59084   1 
  -6   2   3 27.4223 2.41916  -2 
   6  -2   1 27.4223 2.41916   1 
  -7   2   3 7.51488 1.37595  -2 
   7  -2   1 7.51488 1.37595   1 
  -8   2   3 7.87239 3.88871  -2 
   8  -2   1 7.87239 3.88871   1 
  -8  -1   2 2.55411 1.82604  -2 
  -8  -1   1 2.55411 1.82604   1 
  -7  -1   1 48.2985 1.91631   1 
  -6  -1   1 248.133 4.22793  -2 
  -6  -1   1 248.133 4.22793   1 
  -5  -1   1 136.991 2.87335  -2 
  -5  -1   1 136.991 2.87335   1 
  -4  -1   1 0.38517 0.45140   1 
   3   1   0 10.5639 1.17324  -2 
  -3  -1   1 10.5639 1.17324   1 
   2   1   0 72.2557 3.02414  -2 
  -2  -1   1 72.2557 3.02414   1 
  -1  -1   1 182.879 4.80473   1 
   0   1   1 2950.31 80.9633  -2 
   0  -1   1 2950.31 80.9633   1 
  -1   1   1 214.460 8.48252  -2 
   1  -1   1 214.460 8.48252   1 
   2  -1   1 86.3578 1.27488   1 
  -3   1   2 90.1250 1.81514  -2 
   3  -1   1 90.1250 1.81514   1 
  -4   1   2 57.9966 1.51418  -2 
   4  -1   1 57.9966 1.51418   1 
   5  -1   1 28.2289 0.78157   1 
  -6   1   3 222.787 2.99185  -2 
   6  -1   1 222.787 2.99185   1 
  -7   1   3 48.9984 1.88413  -2 
   7  -1   1 48.9984 1.88413   1 
   8  -1   1 12.4203 1.70119   1 
  -8   0   2 2.55815 2.26657  -2 
  -8   0   1 2.55815 2.26657   1 
  -7   0   1 258.614 5.18968  -2 
  -7   0   1 258.614 5.18968   1 
  -6   0   1 1.94036 0.79678  -2 
  -6   0   1 1.94036 0.79678   1 
  -5   0   1 73.8668 4.74547  -2 
  -5   0   1 73.8668 4.74547   1 
   4   0   0 222.494 10.3898  -2 
  -4   0   1 222.494 10.3898   1 
   3   0   0 1455.17 19.1022  -2 
  -3   0   1 1455.17 19.1022   1 
  -2   0   1 1401.39 19.5481   1 
  -1   0   1 924.094 13.9353   1 
   0   0   1 93.3823 2.60344  -2 
   0   0   1 93.3823 2.60344   1 
   1   0   1 1063.17 14.3519   1 
   2   0   1 1197.13 17.0420   1 
  -3   0   2 345.354 4.46300  -2 
   3   0   1 345.354 4.46300   1 
   4   0   1 50.7326 1.21117   1 
  -5   0   3 146.999 7.39438  -2 
   5   0   1 146.999 7.39438   1 
  -6   0   3 15.9375 0.94952  -2 
   6   0   1 15.9375 0.94952   1 
  -7   0   3 10.0144 1.77645  -2 
   7   0   1 10.0144 1.77645   1 
   8   0   1 3.81596 2.19132   1 
  -8   1   1 15.2375 1.35402   1 
  -7   1   1 100.804 2.44659  -2 
  -7   1   1 100.804 2.44659   1 
  -6   1   1 533.786 5.65318  -2 
  -6   1   1 533.786 5.65318   1 
  -5   1   1 2.95819 0.40176   1 
  -4   1   0 48.6188 1.17254  -2 
  -4   1   1 48.6188 1.17254   1 
  -3   1   0 26.8535 0.99553  -2 
  -3   1   1 26.8535 0.99553   1 
  -2   1   1 1.33938 0.45882   1 
  -1   1   1 240.070 3.47287   1 
   0   1   1 3730.37 65.7067   1 
   1   1   1 24.7025 0.80565   1 
  -2  -1   2 1007.17 22.0100  -2 
   2   1   1 1007.17 22.0100   1 
  -3  -1   2 128.385 4.21354  -2 
   3   1   1 128.385 4.21354   1 
   4   1   1 115.505 2.14336   1 
  -5  -1   3 58.6727 1.89192  -2 
   5   1   1 58.6727 1.89192   1 
  -6  -1   3 36.0879 1.65772  -2 
   6   1   1 36.0879 1.65772   1 
   7   1   1 5.82440 0.88519   1 
  -8   2   1 48.6605 2.68149  -2 
  -8   2   1 48.6605 2.68149   1 
  -7   2   1 0.37671 1.03277  -2 
  -7   2   1 0.37671 1.03277   1 
  -6   2   1 4.37344 2.22927  -2 
  -6   2   1 4.37344 2.22927   1 
  -5   2   0 53.4864 1.54614  -2 
  -5   2   1 53.4864 1.54614   1 
  -4   2   0 352.381 3.76647  -2 
  -4   2   1 352.381 3.76647   1 
  -3   2   1 24.6542 0.62344   1 
  -2   2   1 10.2992 0.45702   1 
   1  -2   1 1475.99 22.0879  -2 
  -1   2   1 1475.99 22.0879   1 
   0   2   1 1319.45 18.3739   1 
   1   2   1 1191.33 20.2679   1 
  -2  -2   2 33.2927 1.50137  -2 
   2   2   1 33.2927 1.50137   1 
   3   2   1 27.2984 1.20908   1 
   4   2   1 54.7959 1.38439   1 
  -5  -2   3 52.2710 1.45477  -2 
   5   2   1 52.2710 1.45477   1 
  -6  -2   3 152.115 4.36794  -2 
   6   2   1 152.115 4.36794   1 
  -7  -2   4 12.8639 2.61191  -2 
   7   2   1 12.8639 2.61191   1 
  -7   3   1 40.1500 1.97861  -2 
  -7   3   1 40.1500 1.97861   1 
  -6   3   0 63.5314 5.49437  -2 
  -6   3   1 63.5314 5.49437   1 
  -5   3   0 55.8862 1.28360  -2 
  -5   3   1 55.8862 1.28360   1 
  -4   3   0 60.0113 1.11511  -2 
  -4   3   1 60.0113 1.11511   1 
  -3   3   1 22.8440 0.66109   1 
   2  -3   1 106.111 1.43193  -2 
  -2   3   1 106.111 1.43193   1 
   1  -3   1 315.008 4.01380  -2 
  -1   3   1 315.008 4.01380   1 
   0   3   1 2189.83 26.5581   1 
  -1  -3   2 477.584 9.67127  -2 
   1   3   1 477.584 9.67127   1 
  -2  -3   2 750.571 21.5847  -2 
   2   3   1 750.571 21.5847   1 
   3   3   1 83.5771 3.25268   1 
  -4  -3   3 15.9515 2.07452  -2 
   4   3   1 15.9515 2.07452   1 
  -5  -3   3 67.6652 3.09789  -2 
   5   3   1 67.6652 3.09789   1 
   6   3   1 25.8774 1.60717   1 
  -7  -3   4 1.80797 1.65409  -2 
   7   3   1 1.80797 1.65409   1 
  -7   4   1 33.6605 2.46999  -2 
  -7   4   1 33.6605 2.46999   1 
  -6   4   0 202.043 3.36604  -2 
  -6   4   1 202.043 3.36604   1 
  -5   4   0 50.1275 1.14077  -2 
  -5   4   1 50.1275 1.14077   1 
  -4   4   0 89.1586 4.27199  -2 
  -4   4   1 89.1586 4.27199   1 
   3  -4   1 39.2771 2.77471  -2 
  -3   4   1 39.2771 2.77471   1 
   2  -4   1 347.910 3.95669  -2 
  -2   4   1 347.910 3.95669   1 
  -1   4   1 6.73005 0.43910   1 
   0  -4   2 431.227 15.9733  -2 
   0   4   1 431.227 15.9733   1 
  -1  -4   2 416.044 7.65830  -2 
   1   4   1 416.044 7.65830   1 
   2   4   1 29.0600 2.26338   1 
  -3  -4   3 11.9669 4.32085  -2 
   3   4   1 11.9669 4.32085   1 
  -4  -4   3 52.6331 2.26543  -2 
   4   4   1 52.6331 2.26543   1 
  -5  -4   3 23.5156 4.69676  -2 
   5   4   1 23.5156 4.69676   1 
  -6  -4   4 50.6908 4.92504  -2 
   6   4   1 50.6908 4.92504   1 
  -7   5   0 37.1321 2.62643  -2 
  -7   5   1 37.1321 2.62643   1 
  -6   5   0 62.8625 1.97256  -2 
  -6   5   1 62.8625 1.97256   1 
  -5   5   0 78.4107 1.83789  -2 
  -5   5   1 78.4107 1.83789   1 
  -4   5   1 0.32310 0.53364   1 
   3  -5   1 42.0405 1.02774  -2 
  -3   5   1 42.0405 1.02774   1 
   2  -5   1 160.287 1.99157  -2 
  -2   5   1 160.287 1.99157   1 
  -1   5   1 101.048 1.59605   1 
   0  -5   2 29.9643 1.52146  -2 
   0   5   1 29.9643 1.52146   1 
  -1  -5   2 93.8838 3.32121  -2 
   1   5   1 93.8838 3.32121   1 
   2   5   1 37.8190 1.56992   1 
  -3  -5   3 3.73111 2.11091  -2 
   3   5   1 3.73111 2.11091   1 
  -4  -5   3 14.1081 2.54051  -2 
   4   5   1 14.1081 2.54051   1 
   5   5   1 70.1511 2.97542   1 
  -6  -5   4 2.32568 2.69400  -2 
   6   5   1 2.32568 2.69400   1 
  -6   6   0 93.6911 2.59960  -2 
  -6   6   1 93.6911 2.59960   1 
  -5   6   0 40.0789 2.91118  -2 
  -5   6   1 40.0789 2.91118   1 
   4  -6   1 91.5569 2.06500  -2 
  -4   6   1 91.5569 2.06500   1 
   3  -6   1 24.4692 0.91992  -2 
  -3   6   1 24.4692 0.91992   1 
   2  -6   1 203.050 4.56354  -2 
  -2   6   1 203.050 4.56354   1 
   1  -6   2 168.707 2.27285  -2 
  -1   6   1 168.707 2.27285   1 
   0  -6   2 134.037 2.05908  -2 
   0   6   1 134.037 2.05908   1 
  -1  -6   2 216.259 7.60158  -2 
   1   6   1 216.259 7.60158   1 
  -2  -6   3 19.1869 3.81692  -2 
   2   6   1 19.1869 3.81692   1 
  -3  -6   3 17.5721 1.89898  -2 
   3   6   1 17.5721 1.89898   1 
  -4  -6   3 59.9127 5.14016  -2 
   4   6   1 59.9127 5.14016   1 
  -5  -6   4 9.86621 6.92819  -2 
   5   6   1 9.86621 6.92819   1 
  -6   7   0 8.75182 2.27054  -2 
  -6   7   1 8.75182 2.27054   1 
   5  -7   1 84.8200 5.05074  -2 
  -5   7   1 84.8200 5.05074   1 
   4  -7   1 7.75114 1.47248  -2 
  -4   7   1 7.75114 1.47248   1 
   3  -7   1 63.7386 1.80239  -2 
  -3   7   1 63.7386 1.80239   1 
   2  -7   2 22.1156 5.62650  -2 
  -2   7   1 22.1156 5.62650   1 
   1  -7   2 376.328 4.86994  -2 
  -1   7   1 376.328 4.86994   1 
   0  -7   2 164.598 4.51867  -2 
   0   7   1 164.598 4.51867   1 
   1   7   1 27.5150 1.39503   1 
  -2  -7   3 54.4223 3.40409  -2 
   2   7   1 54.4223 3.40409   1 
  -3  -7   3 1.40062 2.60041  -2 
   3   7   1 1.40062 2.60041   1 
   4   7   1 10.9971 1.72703   1 
   4  -8   1 2.96043 1.55152  -2 
  -4   8   1 2.96043 1.55152   1 
   3  -8   1 -2.0808 2.77238  -2 
  -3   8   1 -2.0808 2.77238   1 
   2  -8   2 8.64967 1.80822  -2 
  -2   8   1 8.64967 1.80822   1 
   1  -8   2 12.4570 1.20348  -2 
  -1   8   1 12.4570 1.20348   1 
   0  -8   2 18.7423 2.08447  -2 
   0   8   1 18.7423 2.08447   1 
  -1  -8   3 41.4461 2.57601  -2 
   1   8   1 41.4461 2.57601   1 
  -2  -8   3 9.52433 1.21917  -2 
   2   8   1 9.52433 1.21917   1 
  -3  -8   3 7.54539 3.62532  -2 
   3   8   1 7.54539 3.62532   1 
   3  -9   2 34.8618 4.53109  -2 
  -3   9   1 34.8618 4.53109   1 
   2  -9   2 9.23140 1.34724  -2 
  -2   9   1 9.23140 1.34724   1 
   1  -9   2 13.2388 1.91687  -2 
  -1   9   1 13.2388 1.91687   1 
   0   9   1 -0.1051 1.02535   1 
  -1  -9   3 2.28194 1.38688  -2 
   1   9   1 2.28194 1.38688   1 
   1   9   0 5.85421 1.57621  -2 
  -1  -9   2 5.85421 1.57621   1 
   0  -9   2 0.96295 1.15403   1 
  -1   9   1 9.81912 2.18379  -2 
   1  -9   2 9.81912 2.18379   1 
  -2   9   1 4.54618 1.40758  -2 
   2  -9   2 4.54618 1.40758   1 
   3  -9   2 0.01407 1.20728   1 
   3   8   0 26.9104 3.66144  -2 
  -3  -8   2 26.9104 3.66144   1 
   2   8   0 33.3827 1.68618  -2 
  -2  -8   2 33.3827 1.68618   1 
   1   8   0 64.2987 2.99218  -2 
  -1  -8   2 64.2987 2.99218   1 
   0   8   1 50.1137 2.36391  -2 
   0  -8   2 50.1137 2.36391   1 
  -1   8   1 25.7918 1.34356  -2 
   1  -8   2 25.7918 1.34356   1 
  -2   8   1 7.17564 2.28541  -2 
   2  -8   2 7.17564 2.28541   1 
  -3   8   2 -1.8720 2.51537  -2 
   3  -8   2 -1.8720 2.51537   1 
  -4   8   2 7.89640 1.41686  -2 
   4  -8   2 7.89640 1.41686   1 
   3   7   0 16.8570 3.07531  -2 
  -3  -7   2 16.8570 3.07531   1 
   2   7   0 44.4569 2.99242  -2 
  -2  -7   2 44.4569 2.99242   1 
  -1  -7   2 4.67313 0.85096   1 
   0   7   1 373.594 6.87095  -2 
   0  -7   2 373.594 6.87095   1 
  -1   7   1 342.771 4.82029  -2 
   1  -7   2 342.771 4.82029   1 
  -2   7   1 9.67641 5.19652  -2 
   2  -7   2 9.67641 5.19652   1 
  -3   7   2 119.129 2.52771  -2 
   3  -7   2 119.129 2.52771   1 
  -4   7   2 115.892 3.16365  -2 
   4  -7   2 115.892 3.16365   1 
  -5   7   2 11.8186 5.21742  -2 
   5  -7   2 11.8186 5.21742   1 
  -4  -6   2 8.73038 3.63259   1 
   3   6   0 19.8981 2.03151  -2 
  -3  -6   2 19.8981 2.03151   1 
   2   6   0 9.55979 3.02064  -2 
  -2  -6   2 9.55979 3.02064   1 
   1   6   1 213.170 13.7152  -2 
  -1  -6   2 213.170 13.7152   1 
   0   6   1 228.414 3.77287  -2 
   0  -6   2 228.414 3.77287   1 
  -1   6   1 332.589 4.86215  -2 
   1  -6   2 332.589 4.86215   1 
  -2   6   2 25.0243 2.81974  -2 
   2  -6   2 25.0243 2.81974   1 
  -3   6   2 31.8921 1.22643  -2 
   3  -6   2 31.8921 1.22643   1 
  -4   6   2 45.5837 2.12383  -2 
   4  -6   2 45.5837 2.12383   1 
  -5   6   3 6.63999 3.63424  -2 
   5  -6   2 6.63999 3.63424   1 
  -6   6   3 26.8253 1.86823  -2 
   6  -6   2 26.8253 1.86823   1 
  -6  -5   1 2.16217 2.92736  -2 
  -6  -5   2 2.16217 2.92736   1 
  -5  -5   2 11.9765 1.89771   1 
   4   5   0 2.52535 2.90103  -2 
  -4  -5   2 2.52535 2.90103   1 
   3   5   0 55.7800 3.22596  -2 
  -3  -5   2 55.7800 3.22596   1 
  -2  -5   2 41.0476 1.94797   1 
   1   5   1 137.346 3.57967  -2 
  -1  -5   2 137.346 3.57967   1 
   0   5   1 12.6556 1.32916  -2 
   0  -5   2 12.6556 1.32916   1 
  -1   5   1 309.889 12.6326  -2 
   1  -5   2 309.889 12.6326   1 
  -2   5   2 8.58688 0.88452  -2 
   2  -5   2 8.58688 0.88452   1 
  -3   5   2 25.6545 1.01282  -2 
   3  -5   2 25.6545 1.01282   1 
  -4   5   2 59.2701 6.54641  -2 
   4  -5   2 59.2701 6.54641   1 
  -5   5   3 60.5809 1.73851  -2 
   5  -5   2 60.5809 1.73851   1 
  -6   5   3 20.0777 2.00668  -2 
   6  -5   2 20.0777 2.00668   1 
  -7   5   3 43.8593 5.19291  -2 
   7  -5   2 43.8593 5.19291   1 
  -7  -4   1 36.9772 2.34812  -2 
  -7  -4   2 36.9772 2.34812   1 
  -6  -4   1 38.0817 5.02709  -2 
  -6  -4   2 38.0817 5.02709   1 
   5   4   0 26.3439 4.63558  -2 
  -5  -4   2 26.3439 4.63558   1 
   4   4   0 169.183 4.56788  -2 
  -4  -4   2 169.183 4.56788   1 
   3   4   0 73.1239 8.06940  -2 
  -3  -4   2 73.1239 8.06940   1 
  -2  -4   2 3.88704 0.89453   1 
   1   4   1 188.852 5.39175  -2 
  -1  -4   2 188.852 5.39175   1 
   0   4   1 322.571 12.0754  -2 
   0  -4   2 322.571 12.0754   1 
   1  -4   2 483.718 5.95936   1 
  -2   4   2 39.7243 0.92200  -2 
   2  -4   2 39.7243 0.92200   1 
  -3   4   2 180.875 4.77203  -2 
   3  -4   2 180.875 4.77203   1 
  -4   4   3 112.296 4.88733  -2 
   4  -4   2 112.296 4.88733   1 
  -5   4   3 27.4020 1.06642  -2 
   5  -4   2 27.4020 1.06642   1 
  -6   4   3 8.70054 1.52604  -2 
   6  -4   2 8.70054 1.52604   1 
  -7   4   4 18.8271 2.62882  -2 
   7  -4   2 18.8271 2.62882   1 
  -7  -3   1 53.6243 3.54461  -2 
  -7  -3   2 53.6243 3.54461   1 
   6   3   0 55.6783 9.21987  -2 
  -6  -3   2 55.6783 9.21987   1 
   5   3   0 114.708 3.41838  -2 
  -5  -3   2 114.708 3.41838   1 
   4   3   0 119.857 3.37361  -2 
  -4  -3   2 119.857 3.37361   1 
  -3  -3   2 300.952 7.26765   1 
   2   3   1 303.641 10.2820  -2 
  -2  -3   2 303.641 10.2820   1 
   1   3   1 197.055 6.96141  -2 
  -1  -3   2 197.055 6.96141   1 
   0  -3   2 142.483 2.33338   1 
  -1   3   2 766.006 8.83201  -2 
   1  -3   2 766.006 8.83201   1 
  -2   3   2 291.014 3.27678  -2 
   2  -3   2 291.014 3.27678   1 
   3  -3   2 27.7880 0.75746   1 
  -4   3   3 151.851 1.76338  -2 
   4  -3   2 151.851 1.76338   1 
  -5   3   3 82.1588 1.66550  -2 
   5  -3   2 82.1588 1.66550   1 
  -6   3   3 50.6091 6.19888  -2 
   6  -3   2 50.6091 6.19888   1 
  -7   3   4 69.0466 3.02291  -2 
   7  -3   2 69.0466 3.02291   1 
  -7  -2   1 80.0101 2.80704  -2 
  -7  -2   2 80.0101 2.80704   1 
   6   2   0 5.10211 2.38985  -2 
  -6  -2   2 5.10211 2.38985   1 
   5   2   0 27.9421 1.12560  -2 
  -5  -2   2 27.9421 1.12560   1 
  -4  -2   2 0.44350 0.58320   1 
  -3  -2   2 447.633 10.2590   1 
   2   2   1 29.5195 1.36068  -2 
  -2  -2   2 29.5195 1.36068   1 
  -1  -2   2 112.827 3.40134   1 
   0  -2   2 1877.75 29.4752   1 
  -1   2   2 337.793 4.90800  -2 
   1  -2   2 337.793 4.90800   1 
   2  -2   2 185.277 1.88892   1 
   3  -2   2 1177.96 10.9647   1 
  -4   2   3 15.9178 0.79636  -2 
   4  -2   2 15.9178 0.79636   1 
  -5   2   3 46.5644 1.74024  -2 
   5  -2   2 46.5644 1.74024   1 
  -6   2   4 64.6218 2.74757  -2 
   6  -2   2 64.6218 2.74757   1 
  -7   2   4 64.8844 2.09486  -2 
   7  -2   2 64.8844 2.09486   1 
  -8  -1   1 2.25714 1.82067  -2 
  -8  -1   2 2.25714 1.82067   1 
  -7  -1   2 37.3425 1.70527   1 
   6   1   0 123.438 2.47698  -2 
  -6  -1   2 123.438 2.47698   1 
   5   1   0 61.8475 1.62285  -2 
  -5  -1   2 61.8475 1.62285   1 
  -4  -1   2 344.108 4.78339   1 
   3   1   1 194.712 4.72865  -2 
  -3  -1   2 194.712 4.72865   1 
   2   1   1 467.292 10.0267  -2 
  -2  -1   2 467.292 10.0267   1 
  -1  -1   2 18.7890 0.72028   1 
   0   1   2 127.173 3.76316  -2 
   0  -1   2 127.173 3.76316   1 
  -1   1   2 1364.79 20.1084  -2 
   1  -1   2 1364.79 20.1084   1 
   2  -1   2 277.683 2.99654   1 
  -3   1   3 614.502 9.27315  -2 
   3  -1   2 614.502 9.27315   1 
  -4   1   3 406.883 6.40325  -2 
   4  -1   2 406.883 6.40325   1 
   5  -1   2 66.2522 1.16490   1 
  -6   1   4 262.436 3.57516  -2 
   6  -1   2 262.436 3.57516   1 
  -7   1   4 0.59495 1.67632  -2 
   7  -1   2 0.59495 1.67632   1 
   8  -1   2 15.6269 2.55245   1 
  -8   0   1 6.98678 2.34286  -2 
  -8   0   2 6.98678 2.34286   1 
   7   0   0 269.895 5.81214  -2 
  -7   0   2 269.895 5.81214   1 
   6   0   0 194.777 2.56184  -2 
  -6   0   2 194.777 2.56184   1 
   5   0   0 92.7957 5.13907  -2 
  -5   0   2 92.7957 5.13907   1 
  -4   0   2 9.67097 0.57330   1 
   3   0   1 219.900 3.21301  -2 
  -3   0   2 219.900 3.21301   1 
  -2   0   2 149.675 3.03615   1 
  -1   0   2 416.361 7.19804   1 
   0   0   2 169.256 3.20047  -2 
   0   0   2 169.256 3.20047   1 
   1   0   2 1672.38 23.2987   1 
   2   0   2 224.419 3.10691   1 
  -3   0   3 424.869 5.43675  -2 
   3   0   2 424.869 5.43675   1 
   4   0   2 426.817 5.69960   1 
  -5   0   4 0.61901 4.19835  -2 
   5   0   2 0.61901 4.19835   1 
  -6   0   4 109.151 1.83174  -2 
   6   0   2 109.151 1.83174   1 
  -7   0   4 10.6107 1.68411  -2 
   7   0   2 10.6107 1.68411   1 
   8   0   2 17.4339 3.32159   1 
  -8   1   2 71.3858 2.05355   1 
  -7   1   0 41.7153 1.89660  -2 
  -7   1   2 41.7153 1.89660   1 
  -6   1   0 228.921 3.23109  -2 
  -6   1   2 228.921 3.23109   1 
  -5   1   2 397.066 3.50595   1 
   4  -1   1 68.4033 1.39669  -2 
  -4   1   2 68.4033 1.39669   1 
   3  -1   1 204.731 3.32928  -2 
  -3   1   2 204.731 3.32928   1 
  -2   1   2 93.6550 1.36173   1 
   1  -1   2 1212.34 31.9405  -2 
  -1   1   2 1212.34 31.9405   1 
   0  -1   2 103.855 4.23142  -2 
   0   1   2 103.855 4.23142   1 
   1   1   2 984.415 14.8007   1 
  -2  -1   3 76.0746 1.71683  -2 
   2   1   2 76.0746 1.71683   1 
  -3  -1   3 170.599 3.54316  -2 
   3   1   2 170.599 3.54316   1 
   4   1   2 12.6791 0.63218   1 
  -5  -1   4 338.585 5.03443  -2 
   5   1   2 338.585 5.03443   1 
  -6  -1   4 317.649 4.88538  -2 
   6   1   2 317.649 4.88538   1 
  -7  -1   4 21.4928 4.91708  -2 
   7   1   2 21.4928 4.91708   1 
  -8   2   0 5.39680 2.47882  -2 
  -8   2   2 5.39680 2.47882   1 
  -7   2   0 71.2103 1.75249  -2 
  -7   2   2 71.2103 1.75249   1 
  -6   2   0 476.215 10.0260  -2 
  -6   2   2 476.215 10.0260   1 
   5  -2   1 78.2841 1.55198  -2 
  -5   2   2 78.2841 1.55198   1 
   4  -2   1 807.222 8.38377  -2 
  -4   2   2 807.222 8.38377   1 
  -3   2   2 141.971 1.61634   1 
  -2   2   2 35.8416 0.69228   1 
   1  -2   2 321.423 4.91992  -2 
  -1   2   2 321.423 4.91992   1 
   0   2   2 1414.31 18.2772   1 
   1   2   2 984.944 13.2487   1 
  -2  -2   3 345.333 5.87327  -2 
   2   2   2 345.333 5.87327   1 
   3   2   2 135.163 2.64025   1 
   4   2   2 55.8080 1.29963   1 
  -5  -2   4 10.4373 1.00256  -2 
   5   2   2 10.4373 1.00256   1 
  -6  -2   4 88.3918 3.43631  -2 
   6   2   2 88.3918 3.43631   1 
   7   2   2 0.87260 0.78846   1 
  -7   3   0 -0.6625 2.02207  -2 
  -7   3   2 -0.6625 2.02207   1 
   6  -3   1 273.974 11.6153  -2 
  -6   3   2 273.974 11.6153   1 
   5  -3   1 284.449 3.07792  -2 
  -5   3   2 284.449 3.07792   1 
   4  -3   1 37.5915 1.00561  -2 
  -4   3   2 37.5915 1.00561   1 
  -3   3   2 68.5833 1.08564   1 
   2  -3   2 127.211 1.76498  -2 
  -2   3   2 127.211 1.76498   1 
   1  -3   2 471.296 5.97048  -2 
  -1   3   2 471.296 5.97048   1 
   0   3   2 401.699 4.33471   1 
  -1  -3   3 88.5141 2.01881  -2 
   1   3   2 88.5141 2.01881   1 
  -2  -3   3 786.552 22.6350  -2 
   2   3   2 786.552 22.6350   1 
   3   3   2 27.5464 1.01062   1 
  -4  -3   4 3.62614 1.91699  -2 
   4   3   2 3.62614 1.91699   1 
  -5  -3   4 279.448 5.34254  -2 
   5   3   2 279.448 5.34254   1 
   6   3   2 1.34184 0.83307   1 
  -7  -3   5 8.99011 1.65044  -2 
   7   3   2 8.99011 1.65044   1 
  -7   4   0 73.7346 3.21012  -2 
  -7   4   2 73.7346 3.21012   1 
   6  -4   1 109.780 2.42591  -2 
  -6   4   2 109.780 2.42591   1 
   5  -4   1 166.052 1.99935  -2 
  -5   4   2 166.052 1.99935   1 
   4  -4   1 108.713 4.12222  -2 
  -4   4   2 108.713 4.12222   1 
   3  -4   2 107.322 2.74218  -2 
  -3   4   2 107.322 2.74218   1 
   2  -4   2 64.5822 1.08923  -2 
  -2   4   2 64.5822 1.08923   1 
  -1   4   2 2.27841 0.41381   1 
   0  -4   3 148.535 7.20451  -2 
   0   4   2 148.535 7.20451   1 
  -1  -4   3 1107.32 30.1383  -2 
   1   4   2 1107.32 30.1383   1 
   2   4   2 39.4651 1.52123   1 
  -3  -4   4 9.75803 4.67049  -2 
   3   4   2 9.75803 4.67049   1 
  -4  -4   4 21.2991 1.89565  -2 
   4   4   2 21.2991 1.89565   1 
  -5  -4   4 93.3295 4.93126  -2 
   5   4   2 93.3295 4.93126   1 
  -6  -4   5 4.93119 5.24359  -2 
   6   4   2 4.93119 5.24359   1 
   7  -5   1 22.3898 3.12367  -2 
  -7   5   2 22.3898 3.12367   1 
   6  -5   1 155.457 3.07915  -2 
  -6   5   2 155.457 3.07915   1 
   5  -5   1 0.90627 1.36905  -2 
  -5   5   2 0.90627 1.36905   1 
  -4   5   2 1.53781 0.57379   1 
   3  -5   2 11.6664 0.83395  -2 
  -3   5   2 11.6664 0.83395   1 
   2  -5   2 17.5425 0.89817  -2 
  -2   5   2 17.5425 0.89817   1 
  -1   5   2 11.7216 0.58379   1 
   0  -5   3 310.083 3.67412  -2 
   0   5   2 310.083 3.67412   1 
  -1  -5   3 56.7447 2.62664  -2 
   1   5   2 56.7447 2.62664   1 
   2   5   2 318.689 4.50239   1 
  -3  -5   4 -1.3779 2.25990  -2 
   3   5   2 -1.3779 2.25990   1 
  -4  -5   4 15.5722 2.69232  -2 
   4   5   2 15.5722 2.69232   1 
   5   5   2 7.32148 1.55830   1 
  -6  -5   5 30.2596 2.82063  -2 
   6   5   2 30.2596 2.82063   1 
   6  -6   1 0.50099 1.62503  -2 
  -6   6   2 0.50099 1.62503   1 
   5  -6   1 105.161 3.62056  -2 
  -5   6   2 105.161 3.62056   1 
   4  -6   2 47.7129 1.86857  -2 
  -4   6   2 47.7129 1.86857   1 
   3  -6   2 44.2021 1.08740  -2 
  -3   6   2 44.2021 1.08740   1 
   2  -6   2 12.7506 2.45686  -2 
  -2   6   2 12.7506 2.45686   1 
   1  -6   3 172.438 2.63818  -2 
  -1   6   2 172.438 2.63818   1 
   0  -6   3 103.424 2.04068  -2 
   0   6   2 103.424 2.04068   1 
  -1  -6   3 102.753 6.82081  -2 
   1   6   2 102.753 6.82081   1 
  -2  -6   4 180.022 6.47610  -2 
   2   6   2 180.022 6.47610   1 
  -3  -6   4 104.857 2.84686  -2 
   3   6   2 104.857 2.84686   1 
  -4  -6   4 -0.6835 3.72475  -2 
   4   6   2 -0.6835 3.72475   1 
  -5  -6   5 24.2323 7.60985  -2 
   5   6   2 24.2323 7.60985   1 
   5  -7   2 1.03799 3.37907  -2 
  -5   7   2 1.03799 3.37907   1 
   4  -7   2 125.692 2.50436  -2 
  -4   7   2 125.692 2.50436   1 
   3  -7   2 133.204 2.08912  -2 
  -3   7   2 133.204 2.08912   1 
  -2   7   2 2.80640 0.61430   1 
   1  -7   3 42.3489 1.57156  -2 
  -1   7   2 42.3489 1.57156   1 
   0  -7   3 90.4842 2.48185  -2 
   0   7   2 90.4842 2.48185   1 
   1   7   2 36.4704 1.50675   1 
  -2  -7   4 42.5287 2.25973  -2 
   2   7   2 42.5287 2.25973   1 
  -3  -7   4 35.7514 3.49882  -2 
   3   7   2 35.7514 3.49882   1 
   4   7   2 19.3264 1.92389   1 
   4  -8   2 10.0516 1.45344  -2 
  -4   8   2 10.0516 1.45344   1 
   3  -8   2 7.80856 2.78200  -2 
  -3   8   2 7.80856 2.78200   1 
   2  -8   3 85.9135 2.35665  -2 
  -2   8   2 85.9135 2.35665   1 
   1  -8   3 40.0094 1.50310  -2 
  -1   8   2 40.0094 1.50310   1 
   0  -8   3 23.4014 2.12087  -2 
   0   8   2 23.4014 2.12087   1 
  -1  -8   4 5.30386 1.69915  -2 
   1   8   2 5.30386 1.69915   1 
  -2  -8   4 0.20538 1.10786  -2 
   2   8   2 0.20538 1.10786   1 
  -3  -8   4 7.34196 3.53115  -2 
   3   8   2 7.34196 3.53115   1 
  -3   9   2 1.30512 1.16011   1 
   2  -9   3 39.0821 1.65828  -2 
  -2   9   2 39.0821 1.65828   1 
   1  -9   3 49.2390 2.30332  -2 
  -1   9   2 49.2390 2.30332   1 
   0  -9   4 -1.0341 4.21696  -2 
   0   9   2 -1.0341 4.21696   1 
  -1  -9   4 11.9388 1.48392  -2 
   1   9   2 11.9388 1.48392   1 
   1   9   1 3.23707 1.46931  -2 
  -1  -9   3 3.23707 1.46931   1 
   0  -9   3 28.0411 1.67822   1 
  -1   9   2 30.2751 2.12381  -2 
   1  -9   3 30.2751 2.12381   1 
  -2   9   2 81.3116 2.38112  -2 
   2  -9   3 81.3116 2.38112   1 
   3  -9   3 5.16746 1.51376   1 
   3   8   1 6.81130 4.22094  -2 
  -3  -8   3 6.81130 4.22094   1 
   2   8   1 6.41321 1.22846  -2 
  -2  -8   3 6.41321 1.22846   1 
   1   8   1 71.0567 3.20135  -2 
  -1  -8   3 71.0567 3.20135   1 
   0   8   2 28.4911 2.15345  -2 
   0  -8   3 28.4911 2.15345   1 
  -1   8   2 77.2868 2.09373  -2 
   1  -8   3 77.2868 2.09373   1 
  -2   8   2 117.451 3.81514  -2 
   2  -8   3 117.451 3.81514   1 
  -3   8   3 3.00979 4.31112  -2 
   3  -8   3 3.00979 4.31112   1 
  -4   8   3 11.0229 1.46845  -2 
   4  -8   3 11.0229 1.46845   1 
  -4  -7   3 9.81831 2.97249   1 
   3   7   1 6.28091 3.03957  -2 
  -3  -7   3 6.28091 3.03957   1 
   2   7   1 52.1459 3.66795  -2 
  -2  -7   3 52.1459 3.66795   1 
  -1  -7   3 54.5264 1.94071   1 
   0   7   2 93.8029 3.42129  -2 
   0  -7   3 93.8029 3.42129   1 
  -1   7   2 92.3071 2.31267  -2 
   1  -7   3 92.3071 2.31267   1 
  -2   7   2 27.6205 5.55562  -2 
   2  -7   3 27.6205 5.55562   1 
  -3   7   3 85.9432 2.16498  -2 
   3  -7   3 85.9432 2.16498   1 
  -4   7   3 1.75499 1.65132  -2 
   4  -7   3 1.75499 1.65132   1 
  -5   7   3 5.25295 3.67297  -2 
   5  -7   3 5.25295 3.67297   1 
   4   6   1 41.2113 7.55102  -2 
  -4  -6   3 41.2113 7.55102   1 
   3   6   1 34.3162 2.84820  -2 
  -3  -6   3 34.3162 2.84820   1 
   2   6   1 21.9279 3.56873  -2 
  -2  -6   3 21.9279 3.56873   1 
   1   6   2 115.933 7.30614  -2 
  -1  -6   3 115.933 7.30614   1 
   0   6   2 162.990 3.19899  -2 
   0  -6   3 162.990 3.19899   1 
  -1   6   2 77.7941 2.82552  -2 
   1  -6   3 77.7941 2.82552   1 
  -2   6   3 42.8605 3.64843  -2 
   2  -6   3 42.8605 3.64843   1 
  -3   6   3 88.0772 1.67210  -2 
   3  -6   3 88.0772 1.67210   1 
  -4   6   3 48.8955 2.11615  -2 
   4  -6   3 48.8955 2.11615   1 
  -5   6   4 4.38362 3.44941  -2 
   5  -6   3 4.38362 3.44941   1 
  -6   6   4 10.8852 1.65097  -2 
   6  -6   3 10.8852 1.65097   1 
   6   5   0 31.5859 3.96009  -2 
  -6  -5   3 31.5859 3.96009   1 
  -5  -5   3 5.59914 2.07095   1 
   4   5   1 8.96866 2.80679  -2 
  -4  -5   3 8.96866 2.80679   1 
   3   5   1 8.67212 2.28258  -2 
  -3  -5   3 8.67212 2.28258   1 
  -2  -5   3 11.0141 1.31033   1 
   1   5   2 26.6570 2.42126  -2 
  -1  -5   3 26.6570 2.42126   1 
   0   5   2 315.483 5.08994  -2 
   0  -5   3 315.483 5.08994   1 
   1  -5   3 130.080 1.83704   1 
  -2   5   3 85.8353 1.52118  -2 
   2  -5   3 85.8353 1.52118   1 
  -3   5   3 12.2940 1.03438  -2 
   3  -5   3 12.2940 1.03438   1 
   4  -5   3 9.36565 0.76314   1 
  -5   5   4 246.115 3.52881  -2 
   5  -5   3 246.115 3.52881   1 
  -6   5   4 37.1418 2.07795  -2 
   6  -5   3 37.1418 2.07795   1 
   7  -5   3 5.09029 1.63630   1 
   7   4   0 10.1343 2.26225  -2 
  -7  -4   3 10.1343 2.26225   1 
   6   4   0 11.8566 4.70920  -2 
  -6  -4   3 11.8566 4.70920   1 
   5   4   1 32.8808 5.17506  -2 
  -5  -4   3 32.8808 5.17506   1 
   4   4   1 120.467 3.35455  -2 
  -4  -4   3 120.467 3.35455   1 
  -3  -4   3 24.7760 1.49742   1 
  -2  -4   3 130.254 4.11531   1 
   1   4   2 455.274 11.5371  -2 
  -1  -4   3 455.274 11.5371   1 
   0  -4   3 183.920 3.25386   1 
   1  -4   3 104.863 1.87890   1 
  -2   4   3 1.72228 0.67286  -2 
   2  -4   3 1.72228 0.67286   1 
  -3   4   3 340.145 8.06115  -2 
   3  -4   3 340.145 8.06115   1 
  -4   4   4 21.5811 2.82961  -2 
   4  -4   3 21.5811 2.82961   1 
  -5   4   4 6.24346 1.19017  -2 
   5  -4   3 6.24346 1.19017   1 
  -6   4   4 84.5389 3.15191  -2 
   6  -4   3 84.5389 3.15191   1 
  -7   4   5 4.44371 2.28763  -2 
   7  -4   3 4.44371 2.28763   1 
   7   3   0 52.1808 3.40674  -2 
  -7  -3   3 52.1808 3.40674   1 
  -6  -3   3 131.380 2.99687   1 
   5   3   1 50.5580 3.15909  -2 
  -5  -3   3 50.5580 3.15909   1 
   4   3   1 43.6618 3.13233  -2 
  -4  -3   3 43.6618 3.13233   1 
  -3  -3   3 108.470 4.76244   1 
   2   3   2 352.669 11.6903  -2 
  -2  -3   3 352.669 11.6903   1 
   1   3   2 96.8084 3.17489  -2 
  -1  -3   3 96.8084 3.17489   1 
   0  -3   3 8.98568 0.58155   1 
  -1   3   3 119.517 2.08447  -2 
   1  -3   3 119.517 2.08447   1 
  -2   3   3 31.6163 0.89085  -2 
   2  -3   3 31.6163 0.89085   1 
   3  -3   3 1.14830 0.40080   1 
  -4   3   4 63.0240 1.25859  -2 
   4  -3   3 63.0240 1.25859   1 
  -5   3   4 375.245 4.40885  -2 
   5  -3   3 375.245 4.40885   1 
  -6   3   4 161.854 8.68794  -2 
   6  -3   3 161.854 8.68794   1 
  -7   3   5 6.35269 1.66645  -2 
   7  -3   3 6.35269 1.66645   1 
   7   2   0 68.2686 3.34445  -2 
  -7  -2   3 68.2686 3.34445   1 
   6   2   1 317.723 7.25194  -2 
  -6  -2   3 317.723 7.25194   1 
   5   2   1 31.2096 1.41897  -2 
  -5  -2   3 31.2096 1.41897   1 
  -4  -2   3 498.808 7.34458   1 
  -3  -2   3 16.1087 1.12057   1 
   2   2   2 177.289 3.79640  -2 
  -2  -2   3 177.289 3.79640   1 
  -1  -2   3 168.647 2.46069   1 
   0  -2   3 9.32905 0.42880   1 
  -1   2   3 515.932 5.69405  -2 
   1  -2   3 515.932 5.69405   1 
   2  -2   3 663.567 5.85454   1 
   3  -2   3 0.61305 0.32065   1 
  -4   2   4 29.7065 0.91120  -2 
   4  -2   3 29.7065 0.91120   1 
  -5   2   4 42.6879 1.90997  -2 
   5  -2   3 42.6879 1.90997   1 
  -6   2   5 61.8972 3.34748  -2 
   6  -2   3 61.8972 3.34748   1 
  -7   2   5 20.7133 1.52129  -2 
   7  -2   3 20.7133 1.52129   1 
   8   1   0 57.4857 2.79332  -2 
  -8  -1   3 57.4857 2.79332   1 
  -7  -1   3 0.61357 0.84191   1 
   6   1   1 88.3138 2.29719  -2 
  -6  -1   3 88.3138 2.29719   1 
   5   1   1 130.547 2.57643  -2 
  -5  -1   3 130.547 2.57643   1 
  -4  -1   3 6.24869 0.52831   1 
   3   1   2 348.531 5.79260  -2 
  -3  -1   3 348.531 5.79260   1 
   2   1   2 117.856 2.74050  -2 
  -2  -1   3 117.856 2.74050   1 
  -1  -1   3 930.719 14.1522   1 
   0   1   3 1025.60 22.0586  -2 
   0  -1   3 1025.60 22.0586   1 
  -1   1   3 548.435 8.54004  -2 
   1  -1   3 548.435 8.54004   1 
   2  -1   3 0.61496 0.27990   1 
  -3   1   4 239.613 3.44468  -2 
   3  -1   3 239.613 3.44468   1 
  -4   1   4 10.1027 1.15969  -2 
   4  -1   3 10.1027 1.15969   1 
   5  -1   3 8.00480 0.59525   1 
  -6   1   5 141.196 2.57195  -2 
   6  -1   3 141.196 2.57195   1 
  -7   1   5 21.9803 1.68252  -2 
   7  -1   3 21.9803 1.68252   1 
   8   0   0 2.31914 2.23472  -2 
  -8   0   3 2.31914 2.23472   1 
   7   0   1 4.76486 1.88503  -2 
  -7   0   3 4.76486 1.88503   1 
   6   0   1 17.9842 1.03287  -2 
  -6   0   3 17.9842 1.03287   1 
   5   0   1 215.221 11.9171  -2 
  -5   0   3 215.221 11.9171   1 
  -4   0   3 595.570 6.99681   1 
   3   0   2 422.932 5.69350  -2 
  -3   0   3 422.932 5.69350   1 
  -2   0   3 1009.65 13.2716   1 
  -1   0   3 779.812 10.9251   1 
   0   0   3 51.9216 1.34448  -2 
   0   0   3 51.9216 1.34448   1 
   1   0   3 22.6474 0.57507   1 
   2   0   3 93.6122 1.33424   1 
  -3   0   4 753.101 8.01423  -2 
   3   0   3 753.101 8.01423   1 
  -4   0   4 138.958 6.61215  -2 
   4   0   3 138.958 6.61215   1 
  -5   0   5 122.158 7.20576  -2 
   5   0   3 122.158 7.20576   1 
  -6   0   5 25.4729 1.09066  -2 
   6   0   3 25.4729 1.09066   1 
  -7   0   5 -0.0005 1.56517  -2 
   7   0   3 -0.0005 1.56517   1 
  -8   1   3 0.81934 1.05177   1 
   7  -1   1 38.8509 1.62598  -2 
  -7   1   3 38.8509 1.62598   1 
   6  -1   1 90.1521 1.75902  -2 
  -6   1   3 90.1521 1.75902   1 
  -5   1   3 20.2773 0.64796   1 
   4  -1   2 288.101 3.92765  -2 
  -4   1   3 288.101 3.92765   1 
   3  -1   2 263.642 4.09506  -2 
  -3   1   3 263.642 4.09506   1 
  -2   1   3 4.23004 0.29919   1 
   1  -1   3 728.285 10.3180  -2 
  -1   1   3 728.285 10.3180   1 
   0  -1   3 633.439 11.8608  -2 
   0   1   3 633.439 11.8608   1 
   1   1   3 350.056 4.51308   1 
  -2  -1   4 679.439 9.91551  -2 
   2   1   3 679.439 9.91551   1 
  -3  -1   4 239.382 3.65902  -2 
   3   1   3 239.382 3.65902   1 
   4   1   3 55.1240 1.16777   1 
  -5  -1   5 36.1426 1.53968  -2 
   5   1   3 36.1426 1.53968   1 
  -6  -1   5 51.1800 2.06864  -2 
   6   1   3 51.1800 2.06864   1 
   7   1   3 21.6875 1.26743   1 
   7  -2   1 4.20895 1.12823  -2 
  -7   2   3 4.20895 1.12823   1 
   6  -2   1 45.7210 3.13836  -2 
  -6   2   3 45.7210 3.13836   1 
   5  -2   2 30.5514 1.30009  -2 
  -5   2   3 30.5514 1.30009   1 
   4  -2   2 14.0484 0.69361  -2 
  -4   2   3 14.0484 0.69361   1 
  -3   2   3 105.583 1.38766   1 
  -2   2   3 31.2218 0.55519   1 
   1  -2   3 389.814 3.75002  -2 
  -1   2   3 389.814 3.75002   1 
   0   2   3 75.4567 1.00334   1 
   1   2   3 790.715 9.78187   1 
  -2  -2   4 3.44903 0.64864  -2 
   2   2   3 3.44903 0.64864   1 
   3   2   3 20.6810 0.94597   1 
   4   2   3 167.042 2.53619   1 
  -5  -2   5 143.432 2.37358  -2 
   5   2   3 143.432 2.37358   1 
  -6  -2   5 55.7485 3.19935  -2 
   6   2   3 55.7485 3.19935   1 
  -7  -2   6 21.2289 4.55072  -2 
   7   2   3 21.2289 4.55072   1 
   7  -3   1 26.9747 2.16547  -2 
  -7   3   3 26.9747 2.16547   1 
   6  -3   2 77.9970 9.85760  -2 
  -6   3   3 77.9970 9.85760   1 
   5  -3   2 157.609 2.09445  -2 
  -5   3   3 157.609 2.09445   1 
   4  -3   2 163.915 1.87681  -2 
  -4   3   3 163.915 1.87681   1 
  -3   3   3 28.2869 0.74450   1 
   2  -3   3 67.3337 1.12434  -2 
  -2   3   3 67.3337 1.12434   1 
   1  -3   3 51.2221 1.15623  -2 
  -1   3   3 51.2221 1.15623   1 
   0   3   3 140.644 1.73360   1 
  -1  -3   4 73.8269 2.13584  -2 
   1   3   3 73.8269 2.13584   1 
  -2  -3   4 191.392 5.24429  -2 
   2   3   3 191.392 5.24429   1 
   3   3   3 5.66838 0.67436   1 
  -4  -3   5 9.72395 1.55150  -2 
   4   3   3 9.72395 1.55150   1 
  -5  -3   5 181.059 4.11544  -2 
   5   3   3 181.059 4.11544   1 
   6   3   3 12.1108 1.01851   1 
  -7  -3   6 4.88595 1.48892  -2 
   7   3   3 4.88595 1.48892   1 
   7  -4   1 37.1366 3.48722  -2 
  -7   4   3 37.1366 3.48722   1 
   6  -4   2 11.0639 2.01679  -2 
  -6   4   3 11.0639 2.01679   1 
   5  -4   2 14.8492 0.94195  -2 
  -5   4   3 14.8492 0.94195   1 
   4  -4   2 160.688 4.65107  -2 
  -4   4   3 160.688 4.65107   1 
   3  -4   3 196.085 3.08610  -2 
  -3   4   3 196.085 3.08610   1 
   2  -4   3 1.46708 0.55549  -2 
  -2   4   3 1.46708 0.55549   1 
  -1   4   3 14.5776 0.59266   1 
   0   4   3 2.75346 0.51395   1 
  -1  -4   4 1170.92 15.0190  -2 
   1   4   3 1170.92 15.0190   1 
   2   4   3 89.7653 1.74411   1 
  -3  -4   5 33.1053 4.98375  -2 
   3   4   3 33.1053 4.98375   1 
  -4  -4   5 157.018 3.83585  -2 
   4   4   3 157.018 3.83585   1 
  -5  -4   5 24.1161 2.40015  -2 
   5   4   3 24.1161 2.40015   1 
  -6  -4   6 17.4900 4.30313  -2 
   6   4   3 17.4900 4.30313   1 
   7  -5   2 46.5663 5.08508  -2 
  -7   5   3 46.5663 5.08508   1 
   6  -5   2 35.7212 1.96380  -2 
  -6   5   3 35.7212 1.96380   1 
   5  -5   2 35.7135 1.59353  -2 
  -5   5   3 35.7135 1.59353   1 
  -4   5   3 21.2896 0.82462   1 
   3  -5   3 30.1569 0.97939  -2 
  -3   5   3 30.1569 0.97939   1 
   2  -5   3 193.914 2.20963  -2 
  -2   5   3 193.914 2.20963   1 
  -1   5   3 32.8290 0.71889   1 
   0  -5   4 111.688 2.12324  -2 
   0   5   3 111.688 2.12324   1 
  -1  -5   4 21.6356 1.58279  -2 
   1   5   3 21.6356 1.58279   1 
   2   5   3 385.179 5.23696   1 
  -3  -5   5 74.5751 3.19727  -2 
   3   5   3 74.5751 3.19727   1 
  -4  -5   5 36.3884 3.01394  -2 
   4   5   3 36.3884 3.01394   1 
   5   5   3 113.355 2.86137   1 
  -6  -5   6 4.92315 2.96885  -2 
   6   5   3 4.92315 2.96885   1 
   6  -6   2 16.8254 1.81141  -2 
  -6   6   3 16.8254 1.81141   1 
   5  -6   2 5.04083 2.75139  -2 
  -5   6   3 5.04083 2.75139   1 
   4  -6   3 109.451 2.23504  -2 
  -4   6   3 109.451 2.23504   1 
   3  -6   3 54.1439 1.18179  -2 
  -3   6   3 54.1439 1.18179   1 
   2  -6   3 17.3544 2.61187  -2 
  -2   6   3 17.3544 2.61187   1 
   1  -6   4 10.6918 1.77589  -2 
  -1   6   3 10.6918 1.77589   1 
   0  -6   4 118.445 2.22170  -2 
   0   6   3 118.445 2.22170   1 
  -1  -6   4 42.4006 5.88928  -2 
   1   6   3 42.4006 5.88928   1 
  -2  -6   5 269.141 7.93833  -2 
   2   6   3 269.141 7.93833   1 
  -3  -6   5 5.04760 1.68579  -2 
   3   6   3 5.04760 1.68579   1 
  -4  -6   5 17.6372 5.62742  -2 
   4   6   3 17.6372 5.62742   1 
  -5  -6   6 26.4262 7.00643  -2 
   5   6   3 26.4262 7.00643   1 
   5  -7   3 6.62925 3.14245  -2 
  -5   7   3 6.62925 3.14245   1 
   4  -7   3 10.3082 1.64986  -2 
  -4   7   3 10.3082 1.64986   1 
   3  -7   3 108.668 1.95364  -2 
  -3   7   3 108.668 1.95364   1 
  -2   7   3 6.33790 0.66146   1 
   1  -7   4 5.48643 1.31341  -2 
  -1   7   3 5.48643 1.31341   1 
   0  -7   4 56.1456 2.10096  -2 
   0   7   3 56.1456 2.10096   1 
   1   7   3 40.3656 1.36452   1 
  -2  -7   5 41.1308 2.05190  -2 
   2   7   3 41.1308 2.05190   1 
  -3  -7   5 129.591 3.66994  -2 
   3   7   3 129.591 3.66994   1 
   4   7   3 24.1537 1.93833   1 
   4  -8   3 6.91085 1.50857  -2 
  -4   8   3 6.91085 1.50857   1 
   3  -8   3 -0.4420 2.45620  -2 
  -3   8   3 -0.4420 2.45620   1 
   2  -8   4 119.179 3.04738  -2 
  -2   8   3 119.179 3.04738   1 
   1  -8   4 53.8165 1.74880  -2 
  -1   8   3 53.8165 1.74880   1 
   0  -8   4 7.04722 2.56658  -2 
   0   8   3 7.04722 2.56658   1 
  -1  -8   5 9.03099 3.58610  -2 
   1   8   3 9.03099 3.58610   1 
  -2  -8   5 25.6343 2.47329  -2 
   2   8   3 25.6343 2.47329   1 
  -3  -8   5 6.34619 3.93805  -2 
   3   8   3 6.34619 3.93805   1 
   2  -9   4 13.7562 3.25670  -2 
  -2   9   3 13.7562 3.25670   1 
   1  -9   4 105.267 3.14351  -2 
  -1   9   3 105.267 3.14351   1 
   0  -9   5 82.4628 5.17490  -2 
   0   9   3 82.4628 5.17490   1 
   1   9   2 4.25263 1.64586  -2 
  -1  -9   4 4.25263 1.64586   1 
   0  -9   4 0.20617 0.84124   1 
  -1   9   3 181.634 4.60389  -2 
   1  -9   4 181.634 4.60389   1 
  -2   9   3 7.03112 2.23140  -2 
   2  -9   4 7.03112 2.23140   1 
   3   8   2 9.12487 4.64179  -2 
  -3  -8   4 9.12487 4.64179   1 
   2   8   2 1.05889 2.14765  -2 
  -2  -8   4 1.05889 2.14765   1 
   1   8   2 7.30716 4.91598  -2 
  -1  -8   4 7.30716 4.91598   1 
   0   8   3 8.83931 5.01837  -2 
   0  -8   4 8.83931 5.01837   1 
  -1   8   3 35.3472 1.94349  -2 
   1  -8   4 35.3472 1.94349   1 
  -2   8   3 225.571 6.80982  -2 
   2  -8   4 225.571 6.80982   1 
  -3   8   4 10.9320 4.07748  -2 
   3  -8   4 10.9320 4.07748   1 
  -4   8   4 24.8411 1.96657  -2 
   4  -8   4 24.8411 1.96657   1 
  -4  -7   4 1.18780 1.74784   1 
   3   7   2 39.8283 4.23861  -2 
  -3  -7   4 39.8283 4.23861   1 
   2   7   2 17.9357 3.25725  -2 
  -2  -7   4 17.9357 3.25725   1 
  -1  -7   4 3.86607 1.02006   1 
   0   7   3 44.5376 2.24405  -2 
   0  -7   4 44.5376 2.24405   1 
  -1   7   3 5.42112 1.59421  -2 
   1  -7   4 5.42112 1.59421   1 
  -2   7   3 22.9511 5.48188  -2 
   2  -7   4 22.9511 5.48188   1 
  -3   7   4 34.9153 2.09090  -2 
   3  -7   4 34.9153 2.09090   1 
  -4   7   4 60.7023 2.40084  -2 
   4  -7   4 60.7023 2.40084   1 
  -5   7   4 31.5124 5.81251  -2 
   5  -7   4 31.5124 5.81251   1 
   5   6   1 22.4032 4.20507  -2 
  -5  -6   4 22.4032 4.20507   1 
   4   6   2 -6.1498 6.88563  -2 
  -4  -6   4 -6.1498 6.88563   1 
   3   6   2 57.6306 3.30203  -2 
  -3  -6   4 57.6306 3.30203   1 
   2   6   2 79.5208 4.37232  -2 
  -2  -6   4 79.5208 4.37232   1 
   1   6   3 45.5902 7.88174  -2 
  -1  -6   4 45.5902 7.88174   1 
   0   6   3 112.338 2.29403  -2 
   0  -6   4 112.338 2.29403   1 
  -1   6   3 15.9871 2.18408  -2 
   1  -6   4 15.9871 2.18408   1 
  -2   6   4 122.340 5.05366  -2 
   2  -6   4 122.340 5.05366   1 
  -3   6   4 38.7660 1.26436  -2 
   3  -6   4 38.7660 1.26436   1 
  -4   6   4 84.6822 2.56405  -2 
   4  -6   4 84.6822 2.56405   1 
  -5   6   5 74.6600 5.32583  -2 
   5  -6   4 74.6600 5.32583   1 
  -6   6   5 -0.5205 1.68167  -2 
   6  -6   4 -0.5205 1.68167   1 
   6   5   1 4.25681 3.31840  -2 
  -6  -5   4 4.25681 3.31840   1 
   5   5   1 33.7126 8.64252  -2 
  -5  -5   4 33.7126 8.64252   1 
   4   5   2 46.0935 4.30944  -2 
  -4  -5   4 46.0935 4.30944   1 
   3   5   2 0.48780 2.80446  -2 
  -3  -5   4 0.48780 2.80446   1 
  -2  -5   4 7.76726 1.27572   1 
   1   5   3 14.2470 2.52663  -2 
  -1  -5   4 14.2470 2.52663   1 
   0   5   3 243.531 4.67929  -2 
   0  -5   4 243.531 4.67929   1 
   1  -5   4 26.8878 0.79561   1 
  -2   5   4 59.7467 1.58763  -2 
   2  -5   4 59.7467 1.58763   1 
  -3   5   4 46.8469 1.51664  -2 
   3  -5   4 46.8469 1.51664   1 
   4  -5   4 14.6445 1.03823   1 
  -5   5   5 97.8412 2.18894  -2 
   5  -5   4 97.8412 2.18894   1 
  -6   5   5 73.7365 2.29879  -2 
   6  -5   4 73.7365 2.29879   1 
   7   4   1 0.93459 2.88046  -2 
  -7  -4   4 0.93459 2.88046   1 
   6   4   1 121.867 6.54512  -2 
  -6  -4   4 121.867 6.54512   1 
   5   4   2 112.549 6.43192  -2 
  -5  -4   4 112.549 6.43192   1 
   4   4   2 40.6298 2.17465  -2 
  -4  -4   4 40.6298 2.17465   1 
  -3  -4   4 1.48578 1.12102   1 
  -2  -4   4 9.96879 1.09949   1 
   1   4   3 593.008 12.4122  -2 
  -1  -4   4 593.008 12.4122   1 
   0  -4   4 33.8848 1.09900   1 
   1  -4   4 85.2135 1.69189   1 
  -2   4   4 60.4918 1.41091  -2 
   2  -4   4 60.4918 1.41091   1 
  -3   4   4 27.2897 2.71533  -2 
   3  -4   4 27.2897 2.71533   1 
  -4   4   5 32.2970 5.89877  -2 
   4  -4   4 32.2970 5.89877   1 
  -5   4   5 71.0677 1.74907  -2 
   5  -4   4 71.0677 1.74907   1 
  -6   4   5 128.288 3.24004  -2 
   6  -4   4 128.288 3.24004   1 
  -7   4   6 18.0932 3.09847  -2 
   7  -4   4 18.0932 3.09847   1 
   7   3   1 -0.7066 1.71276  -2 
  -7  -3   4 -0.7066 1.71276   1 
  -6  -3   4 53.4793 1.97985   1 
   5   3   2 302.135 7.13457  -2 
  -5  -3   4 302.135 7.13457   1 
   4   3   2 5.07550 2.45564  -2 
  -4  -3   4 5.07550 2.45564   1 
  -3  -3   4 -0.5380 0.84560   1 
   2   3   3 262.732 13.1883  -2 
  -2  -3   4 262.732 13.1883   1 
   1   3   3 30.5768 1.54944  -2 
  -1  -3   4 30.5768 1.54944   1 
   0  -3   4 802.265 9.34574   1 
  -1   3   4 617.170 9.15001  -2 
   1  -3   4 617.170 9.15001   1 
  -2   3   4 526.082 6.45073  -2 
   2  -3   4 526.082 6.45073   1 
   3  -3   4 4.60905 0.56087   1 
  -4   3   5 1.52646 1.28831  -2 
   4  -3   4 1.52646 1.28831   1 
  -5   3   5 6.81760 1.42933  -2 
   5  -3   4 6.81760 1.42933   1 
   6  -3   4 7.73918 0.77654   1 
  -7   3   6 9.29774 1.86316  -2 
   7  -3   4 9.29774 1.86316   1 
   7   2   1 14.5673 2.58527  -2 
  -7  -2   4 14.5673 2.58527   1 
   6   2   2 181.027 5.09225  -2 
  -6  -2   4 181.027 5.09225   1 
   5   2   2 18.9041 1.29528  -2 
  -5  -2   4 18.9041 1.29528   1 
  -4  -2   4 101.691 2.08940   1 
  -3  -2   4 2.47544 0.88183   1 
   2   2   3 2.78455 0.67645  -2 
  -2  -2   4 2.78455 0.67645   1 
  -1  -2   4 110.438 1.66832   1 
   0  -2   4 675.831 7.74570   1 
  -1   2   4 121.034 1.75412  -2 
   1  -2   4 121.034 1.75412   1 
  -2   2   4 32.0567 3.50526  -2 
   2  -2   4 32.0567 3.50526   1 
   3  -2   4 128.449 1.66524   1 
  -4   2   5 62.0335 1.19921  -2 
   4  -2   4 62.0335 1.19921   1 
  -5   2   5 86.6465 2.11624  -2 
   5  -2   4 86.6465 2.11624   1 
  -6   2   6 215.673 6.09233  -2 
   6  -2   4 215.673 6.09233   1 
  -7   2   6 11.0179 1.38305  -2 
   7  -2   4 11.0179 1.38305   1 
  -7  -1   4 1.19041 0.82151   1 
   6   1   2 584.277 9.92660  -2 
  -6  -1   4 584.277 9.92660   1 
   5   1   2 455.146 9.24499  -2 
  -5  -1   4 455.146 9.24499   1 
  -4  -1   4 292.120 3.70645   1 
   3   1   3 326.172 6.05005  -2 
  -3  -1   4 326.172 6.05005   1 
   2   1   3 1290.11 20.9916  -2 
  -2  -1   4 1290.11 20.9916   1 
  -1  -1   4 34.6377 0.77934   1 
   0   1   4 9.01536 0.95752  -2 
   0  -1   4 9.01536 0.95752   1 
  -1   1   4 1686.51 20.0375  -2 
   1  -1   4 1686.51 20.0375   1 
   2  -1   4 63.2884 0.99834   1 
  -3   1   5 149.786 2.65748  -2 
   3  -1   4 149.786 2.65748   1 
  -4   1   5 298.619 3.55374  -2 
   4  -1   4 298.619 3.55374   1 
   5  -1   4 5.76055 0.59821   1 
  -6   1   6 2.47371 1.35342  -2 
   6  -1   4 2.47371 1.35342   1 
  -7   1   6 18.7855 1.94106  -2 
   7  -1   4 18.7855 1.94106   1 
  -8   0   4 6.92925 2.30857   1 
   7   0   2 9.90394 1.72254  -2 
  -7   0   4 9.90394 1.72254   1 
   6   0   2 215.499 2.97896  -2 
  -6   0   4 215.499 2.97896   1 
   5   0   2 9.74215 6.25705  -2 
  -5   0   4 9.74215 6.25705   1 
   4   0   3 72.3104 4.97181  -2 
  -4   0   4 72.3104 4.97181   1 
   3   0   3 1598.15 19.0258  -2 
  -3   0   4 1598.15 19.0258   1 
  -2   0   4 108.048 1.32261   1 
  -1   0   4 7.80894 0.37887   1 
   0   0   4 990.941 15.6198  -2 
   0   0   4 990.941 15.6198   1 
   1   0   4 816.281 9.37488   1 
   2   0   4 1.44414 0.35657   1 
  -3   0   5 1.56147 0.53815  -2 
   3   0   4 1.56147 0.53815   1 
   4   0   4 4.07201 0.50136   1 
   5   0   4 1.31852 0.54452   1 
  -6   0   6 107.291 2.01427  -2 
   6   0   4 107.291 2.01427   1 
  -7   0   6 16.0870 2.06107  -2 
   7   0   4 16.0870 2.06107   1 
  -8   1   4 0.54786 1.34681   1 
   7  -1   2 5.94244 1.56021  -2 
  -7   1   4 5.94244 1.56021   1 
   6  -1   2 591.504 6.15523  -2 
  -6   1   4 591.504 6.15523   1 
  -5   1   4 550.910 4.76968   1 
   4  -1   3 21.1228 0.94803  -2 
  -4   1   4 21.1228 0.94803   1 
   3  -1   3 329.477 4.21028  -2 
  -3   1   4 329.477 4.21028   1 
  -2   1   4 1797.09 17.1156   1 
   1  -1   4 1090.71 11.0384  -2 
  -1   1   4 1090.71 11.0384   1 
   0  -1   4 3.41351 0.62832  -2 
   0   1   4 3.41351 0.62832   1 
   1   1   4 1062.34 12.8682   1 
  -2  -1   5 41.3841 1.38707  -2 
   2   1   4 41.3841 1.38707   1 
  -3  -1   5 92.1631 1.94240  -2 
   3   1   4 92.1631 1.94240   1 
   4   1   4 123.981 1.66100   1 
  -5  -1   6 97.7268 2.19795  -2 
   5   1   4 97.7268 2.19795   1 
  -6  -1   6 33.2682 1.72177  -2 
   6   1   4 33.2682 1.72177   1 
   7   1   4 3.06164 0.96665   1 
   7  -2   2 39.5269 1.76820  -2 
  -7   2   4 39.5269 1.76820   1 
   6  -2   2 89.0501 3.65718  -2 
  -6   2   4 89.0501 3.65718   1 
   5  -2   3 43.2312 1.53164  -2 
  -5   2   4 43.2312 1.53164   1 
   4  -2   3 56.7309 0.94406  -2 
  -4   2   4 56.7309 0.94406   1 
  -3   2   4 90.4713 1.23535   1 
  -2   2   4 47.1120 0.71945   1 
   1  -2   4 87.0165 1.07341  -2 
  -1   2   4 87.0165 1.07341   1 
   0   2   4 4.21720 0.36652   1 
   1   2   4 2.21047 0.40932   1 
  -2  -2   5 117.978 1.85889  -2 
   2   2   4 117.978 1.85889   1 
   3   2   4 2.22858 0.48733   1 
   4   2   4 72.7642 1.62158   1 
  -5  -2   6 62.3032 1.49045  -2 
   5   2   4 62.3032 1.49045   1 
  -6  -2   6 9.88610 2.26738  -2 
   6   2   4 9.88610 2.26738   1 
  -7  -2   7 9.92818 6.42148  -2 
   7   2   4 9.92818 6.42148   1 
   7  -3   2 27.4736 1.85415  -2 
  -7   3   4 27.4736 1.85415   1 
  -6   3   4 332.731 4.17314   1 
   5  -3   3 817.979 7.82310  -2 
  -5   3   4 817.979 7.82310   1 
   4  -3   3 128.077 1.64668  -2 
  -4   3   4 128.077 1.64668   1 
  -3   3   4 93.3117 1.35059   1 
   2  -3   4 1036.07 10.0548  -2 
  -2   3   4 1036.07 10.0548   1 
   1  -3   4 477.923 5.01450  -2 
  -1   3   4 477.923 5.01450   1 
   0   3   4 15.6809 0.62361   1 
  -1  -3   5 224.081 3.41155  -2 
   1   3   4 224.081 3.41155   1 
  -2  -3   5 150.334 3.21094  -2 
   2   3   4 150.334 3.21094   1 
   3   3   4 12.2131 0.72525   1 
  -4  -3   6 225.625 4.72808  -2 
   4   3   4 225.625 4.72808   1 
  -5  -3   6 79.5134 2.76072  -2 
   5   3   4 79.5134 2.76072   1 
   6   3   4 0.00839 0.77883   1 
   7  -4   2 19.8426 3.22584  -2 
  -7   4   4 19.8426 3.22584   1 
   6  -4   3 66.4310 2.65919  -2 
  -6   4   4 66.4310 2.65919   1 
   5  -4   3 6.69368 0.91992  -2 
  -5   4   4 6.69368 0.91992   1 
   4  -4   3 49.9811 2.98264  -2 
  -4   4   4 49.9811 2.98264   1 
   3  -4   4 19.7445 1.31323  -2 
  -3   4   4 19.7445 1.31323   1 
   2  -4   4 130.768 1.62446  -2 
  -2   4   4 130.768 1.62446   1 
  -1   4   4 0.30505 0.37118   1 
   0   4   4 13.4098 0.68553   1 
  -1  -4   5 234.363 2.84961  -2 
   1   4   4 234.363 2.84961   1 
   2   4   4 225.801 2.88794   1 
  -3  -4   6 80.3051 8.99977  -2 
   3   4   4 80.3051 8.99977   1 
  -4  -4   6 135.258 2.67234  -2 
   4   4   4 135.258 2.67234   1 
  -5  -4   6 212.606 6.29585  -2 
   5   4   4 212.606 6.29585   1 
  -6  -4   7 15.4314 7.92252  -2 
   6   4   4 15.4314 7.92252   1 
  -7   5   4 0.26756 2.23600   1 
   6  -5   3 79.1262 2.30372  -2 
  -6   5   4 79.1262 2.30372   1 
   5  -5   3 617.237 6.37827  -2 
  -5   5   4 617.237 6.37827   1 
  -4   5   4 68.9546 1.32134   1 
   3  -5   4 105.824 1.62423  -2 
  -3   5   4 105.824 1.62423   1 
   2  -5   4 91.6583 1.42135  -2 
  -2   5   4 91.6583 1.42135   1 
  -1   5   4 13.3944 0.53951   1 
   0  -5   5 2.95054 0.98301  -2 
   0   5   4 2.95054 0.98301   1 
  -1  -5   5 244.098 4.04243  -2 
   1   5   4 244.098 4.04243   1 
   2   5   4 39.6332 1.30936   1 
  -3  -5   6 35.1761 2.05801  -2 
   3   5   4 35.1761 2.05801   1 
  -4  -5   6 168.931 4.03506  -2 
   4   5   4 168.931 4.03506   1 
   5   5   4 2.36518 0.92572   1 
   6  -6   3 8.57647 1.54441  -2 
  -6   6   4 8.57647 1.54441   1 
   5  -6   3 5.67359 2.47785  -2 
  -5   6   4 5.67359 2.47785   1 
   4  -6   4 176.869 2.76862  -2 
  -4   6   4 176.869 2.76862   1 
   3  -6   4 59.5740 1.27363  -2 
  -3   6   4 59.5740 1.27363   1 
   2  -6   4 64.1081 3.30518  -2 
  -2   6   4 64.1081 3.30518   1 
   1  -6   5 127.241 2.63959  -2 
  -1   6   4 127.241 2.63959   1 
   0  -6   5 49.9542 1.35437  -2 
   0   6   4 49.9542 1.35437   1 
  -1  -6   5 273.131 7.93924  -2 
   1   6   4 273.131 7.93924   1 
  -2  -6   6 64.0952 4.64173  -2 
   2   6   4 64.0952 4.64173   1 
  -3  -6   6 66.9030 2.01806  -2 
   3   6   4 66.9030 2.01806   1 
  -4  -6   6 35.7285 5.86082  -2 
   4   6   4 35.7285 5.86082   1 
   5   6   4 67.2518 5.36064   1 
   5  -7   4 31.7624 3.55180  -2 
  -5   7   4 31.7624 3.55180   1 
   4  -7   4 136.265 3.00293  -2 
  -4   7   4 136.265 3.00293   1 
   3  -7   4 21.8024 1.66353  -2 
  -3   7   4 21.8024 1.66353   1 
  -2   7   4 2.41149 0.63424   1 
   1  -7   5 52.3579 1.69289  -2 
  -1   7   4 52.3579 1.69289   1 
   0  -7   5 73.3099 2.20203  -2 
   0   7   4 73.3099 2.20203   1 
   1   7   4 3.14781 0.70734   1 
  -2  -7   6 76.9210 2.50349  -2 
   2   7   4 76.9210 2.50349   1 
  -3  -7   6 90.3525 3.00643  -2 
   3   7   4 90.3525 3.00643   1 
   4   7   4 1.13204 1.38969   1 
   4  -8   4 15.8399 1.69787  -2 
  -4   8   4 15.8399 1.69787   1 
   3  -8   4 12.9374 2.67137  -2 
  -3   8   4 12.9374 2.67137   1 
   2  -8   5 58.9229 2.22386  -2 
  -2   8   4 58.9229 2.22386   1 
   1  -8   5 6.75134 0.98354  -2 
  -1   8   4 6.75134 0.98354   1 
   0  -8   5 3.04149 2.83368  -2 
   0   8   4 3.04149 2.83368   1 
  -1  -8   6 34.8006 3.39839  -2 
   1   8   4 34.8006 3.39839   1 
  -2  -8   6 87.0085 2.66206  -2 
   2   8   4 87.0085 2.66206   1 
   1  -9   5 3.29244 2.55441  -2 
  -1   9   4 3.29244 2.55441   1 
   0   9   4 3.20459 0.86923   1 
   0  -9   5 0.59268 1.05957   1 
  -1   9   4 5.11212 4.03058  -2 
   1  -9   5 5.11212 4.03058   1 
   3   8   3 13.5323 6.18795  -2 
  -3  -8   5 13.5323 6.18795   1 
   2   8   3 25.3872 3.10597  -2 
  -2  -8   5 25.3872 3.10597   1 
   1   8   3 7.72207 2.17275  -2 
  -1  -8   5 7.72207 2.17275   1 
   0   8   4 2.77540 4.99345  -2 
   0  -8   5 2.77540 4.99345   1 
  -1   8   4 2.37556 1.81717  -2 
   1  -8   5 2.37556 1.81717   1 
  -2   8   4 60.9256 4.63026  -2 
   2  -8   5 60.9256 4.63026   1 
   3  -8   5 58.5382 2.72096   1 
  -4   8   5 27.0457 3.21755  -2 
   4  -8   5 27.0457 3.21755   1 
  -4  -7   5 103.921 4.71569   1 
   3   7   3 61.0630 4.56240  -2 
  -3  -7   5 61.0630 4.56240   1 
   2   7   3 37.6086 4.23293  -2 
  -2  -7   5 37.6086 4.23293   1 
  -1  -7   5 55.8586 2.38141   1 
   0   7   4 66.8009 3.06043  -2 
   0  -7   5 66.8009 3.06043   1 
  -1   7   4 82.1211 2.96031  -2 
   1  -7   5 82.1211 2.96031   1 
  -2   7   4 0.67045 5.51717  -2 
   2  -7   5 0.67045 5.51717   1 
  -3   7   5 21.4735 2.13217  -2 
   3  -7   5 21.4735 2.13217   1 
  -4   7   5 100.216 2.92416  -2 
   4  -7   5 100.216 2.92416   1 
  -5   7   5 14.7590 5.43077  -2 
   5  -7   5 14.7590 5.43077   1 
   5   6   2 19.9251 4.15204  -2 
  -5  -6   5 19.9251 4.15204   1 
   4   6   3 7.38847 5.23152  -2 
  -4  -6   5 7.38847 5.23152   1 
   3   6   3 13.6336 2.26902  -2 
  -3  -6   5 13.6336 2.26902   1 
   2   6   3 145.939 5.52241  -2 
  -2  -6   5 145.939 5.52241   1 
   1   6   4 116.725 11.0322  -2 
  -1  -6   5 116.725 11.0322   1 
   0   6   4 49.0319 1.47398  -2 
   0  -6   5 49.0319 1.47398   1 
  -1   6   4 60.8325 3.78826  -2 
   1  -6   5 60.8325 3.78826   1 
  -2   6   5 81.2812 6.52341  -2 
   2  -6   5 81.2812 6.52341   1 
  -3   6   5 228.712 3.88223  -2 
   3  -6   5 228.712 3.88223   1 
  -4   6   5 24.7150 1.93288  -2 
   4  -6   5 24.7150 1.93288   1 
  -5   6   6 7.49164 4.57421  -2 
   5  -6   5 7.49164 4.57421   1 
   6   5   2 24.6691 5.76128  -2 
  -6  -5   5 24.6691 5.76128   1 
  -5  -5   5 126.019 4.66540   1 
   4   5   3 26.9462 4.15390  -2 
  -4  -5   5 26.9462 4.15390   1 
   3   5   3 74.3992 3.92015  -2 
  -3  -5   5 74.3992 3.92015   1 
  -2  -5   5 41.3614 2.06592   1 
   1   5   4 106.378 3.38884  -2 
  -1  -5   5 106.378 3.38884   1 
   0   5   4 3.15665 1.40421  -2 
   0  -5   5 3.15665 1.40421   1 
   1  -5   5 11.0145 0.67500   1 
  -2   5   5 140.073 2.48683  -2 
   2  -5   5 140.073 2.48683   1 
  -3   5   5 59.5589 2.03973  -2 
   3  -5   5 59.5589 2.03973   1 
   4  -5   5 45.2327 1.50326   1 
  -5   5   6 14.9234 2.49681  -2 
   5  -5   5 14.9234 2.49681   1 
  -6   5   6 7.88774 1.89755  -2 
   6  -5   5 7.88774 1.89755   1 
   6   4   2 7.10299 7.94372  -2 
  -6  -4   5 7.10299 7.94372   1 
   5   4   3 35.4935 5.02187  -2 
  -5  -4   5 35.4935 5.02187   1 
   4   4   3 76.9982 2.84785  -2 
  -4  -4   5 76.9982 2.84785   1 
  -3  -4   5 61.5297 2.47258   1 
  -2  -4   5 3.27463 0.85679   1 
   1   4   4 243.014 3.81316  -2 
  -1  -4   5 243.014 3.81316   1 
   0  -4   5 192.376 3.31808   1 
   1  -4   5 3.63616 0.54788   1 
  -2   4   5 60.8151 1.22535  -2 
   2  -4   5 60.8151 1.22535   1 
  -3   4   5 30.1814 2.53038  -2 
   3  -4   5 30.1814 2.53038   1 
   4  -4   5 3.40018 0.82431   1 
  -5   4   6 7.73587 1.26981  -2 
   5  -4   5 7.73587 1.26981   1 
  -6   4   6 28.9355 2.46708  -2 
   6  -4   5 28.9355 2.46708   1 
   7  -4   5 18.7967 4.70200   1 
   7   3   2 5.58311 1.85400  -2 
  -7  -3   5 5.58311 1.85400   1 
  -6  -3   5 97.1294 2.92108   1 
   5   3   3 221.860 5.52418  -2 
  -5  -3   5 221.860 5.52418   1 
   4   3   3 10.9671 2.78192  -2 
  -4  -3   5 10.9671 2.78192   1 
  -3  -3   5 32.4767 1.20240   1 
   2   3   4 202.711 7.62542  -2 
  -2  -3   5 202.711 7.62542   1 
   1   3   4 131.807 2.48243  -2 
  -1  -3   5 131.807 2.48243   1 
   0  -3   5 43.1472 1.12395   1 
  -1   3   5 90.9873 1.94906  -2 
   1  -3   5 90.9873 1.94906   1 
  -2   3   5 385.164 4.94777  -2 
   2  -3   5 385.164 4.94777   1 
   3  -3   5 0.27608 0.46880   1 
  -4   3   6 47.8954 1.67788  -2 
   4  -3   5 47.8954 1.67788   1 
  -5   3   6 193.724 3.15892  -2 
   5  -3   5 193.724 3.15892   1 
   6  -3   5 34.4423 1.47166   1 
  -7   3   7 6.31776 2.07310  -2 
   7  -3   5 6.31776 2.07310   1 
   7   2   2 11.4701 4.05357  -2 
  -7  -2   5 11.4701 4.05357   1 
   6   2   3 52.6462 3.06206  -2 
  -6  -2   5 52.6462 3.06206   1 
   5   2   3 74.2895 1.70452  -2 
  -5  -2   5 74.2895 1.70452   1 
  -4  -2   5 1.36611 0.57625   1 
  -3  -2   5 3.44516 0.56158   1 
   2   2   4 257.834 3.70278  -2 
  -2  -2   5 257.834 3.70278   1 
  -1  -2   5 66.1578 1.24384   1 
   0  -2   5 648.679 7.10204   1 
  -1   2   5 234.309 3.00001  -2 
   1  -2   5 234.309 3.00001   1 
  -2   2   5 407.389 10.4691  -2 
   2  -2   5 407.389 10.4691   1 
  -3   2   6 149.029 7.71540  -2 
   3  -2   5 149.029 7.71540   1 
  -4   2   6 74.8941 1.55696  -2 
   4  -2   5 74.8941 1.55696   1 
  -5   2   6 49.4215 2.39205  -2 
   5  -2   5 49.4215 2.39205   1 
  -6   2   7 55.8242 4.58215  -2 
   6  -2   5 55.8242 4.58215   1 
  -7   2   7 6.78852 1.33200  -2 
   7  -2   5 6.78852 1.33200   1 
  -7  -1   5 3.83709 0.86047   1 
   6   1   3 105.821 2.73097  -2 
  -6  -1   5 105.821 2.73097   1 
   5   1   3 83.3069 2.30983  -2 
  -5  -1   5 83.3069 2.30983   1 
  -4  -1   5 49.7720 1.09124   1 
   3   1   4 64.0122 1.74154  -2 
  -3  -1   5 64.0122 1.74154   1 
   2   1   4 18.3649 1.22778  -2 
  -2  -1   5 18.3649 1.22778   1 
  -1  -1   5 761.115 8.70849   1 
   0   1   5 219.270 3.05487  -2 
   0  -1   5 219.270 3.05487   1 
  -1   1   5 363.686 4.58063  -2 
   1  -1   5 363.686 4.58063   1 
   2  -1   5 13.6818 0.54547   1 
  -3   1   6 132.751 2.51731  -2 
   3  -1   5 132.751 2.51731   1 
  -4   1   6 84.6783 1.65364  -2 
   4  -1   5 84.6783 1.65364   1 
   5  -1   5 48.1249 1.12088   1 
  -6   1   7 170.544 2.57818  -2 
   6  -1   5 170.544 2.57818   1 
  -7   1   7 0.82012 1.81346  -2 
   7  -1   5 0.82012 1.81346   1 
   7   0   3 -0.6974 1.56357  -2 
  -7   0   5 -0.6974 1.56357   1 
   6   0   3 18.8547 1.19050  -2 
  -6   0   5 18.8547 1.19050   1 
   5   0   3 123.340 9.28336  -2 
  -5   0   5 123.340 9.28336   1 
  -4   0   5 108.269 1.39008   1 
   3   0   4 0.55069 0.59964  -2 
  -3   0   5 0.55069 0.59964   1 
  -2   0   5 563.344 6.03976   1 
  -1   0   5 136.239 1.64424   1 
   0   0   5 1.48092 0.44659  -2 
   0   0   5 1.48092 0.44659   1 
   1   0   5 118.579 1.51050   1 
   2   0   5 77.9504 1.20945   1 
  -3   0   6 111.262 1.75570  -2 
   3   0   5 111.262 1.75570   1 
  -4   0   6 43.5866 2.86605  -2 
   4   0   5 43.5866 2.86605   1 
  -5   0   7 137.757 8.36279  -2 
   5   0   5 137.757 8.36279   1 
  -6   0   7 15.4241 1.05423  -2 
   6   0   5 15.4241 1.05423   1 
  -7   0   7 -2.7454 2.44839  -2 
   7   0   5 -2.7454 2.44839   1 
   7  -1   3 17.4687 1.58962  -2 
  -7   1   5 17.4687 1.58962   1 
   6  -1   3 68.1531 1.73944  -2 
  -6   1   5 68.1531 1.73944   1 
  -5   1   5 72.3599 1.21475   1 
   4  -1   4 302.009 3.06738  -2 
  -4   1   5 302.009 3.06738   1 
   3  -1   4 75.5434 1.59185  -2 
  -3   1   5 75.5434 1.59185   1 
  -2   1   5 23.6914 0.63934   1 
   1  -1   5 391.731 3.92697  -2 
  -1   1   5 391.731 3.92697   1 
   0  -1   5 133.314 1.99719  -2 
   0   1   5 133.314 1.99719   1 
   1   1   5 168.705 2.29638   1 
  -2  -1   6 90.7498 1.81364  -2 
   2   1   5 90.7498 1.81364   1 
  -3  -1   6 83.2995 1.95814  -2 
   3   1   5 83.2995 1.95814   1 
   4   1   5 58.7529 1.23815   1 
  -5  -1   7 94.6049 2.32514  -2 
   5   1   5 94.6049 2.32514   1 
  -6  -1   7 22.9322 1.54611  -2 
   6   1   5 22.9322 1.54611   1 
   7   1   5 3.13546 0.90605   1 
   7  -2   3 14.9110 1.48572  -2 
  -7   2   5 14.9110 1.48572   1 
   6  -2   3 82.3218 5.09998  -2 
  -6   2   5 82.3218 5.09998   1 
   5  -2   4 39.8863 1.45685  -2 
  -5   2   5 39.8863 1.45685   1 
   4  -2   4 42.3781 0.92953  -2 
  -4   2   5 42.3781 0.92953   1 
  -3   2   5 131.144 1.78109   1 
  -2   2   5 190.858 1.95836   1 
   1  -2   5 190.327 1.96808  -2 
  -1   2   5 190.327 1.96808   1 
   0   2   5 35.1430 0.79863   1 
   1   2   5 542.694 5.87608   1 
  -2  -2   6 113.071 1.89035  -2 
   2   2   5 113.071 1.89035   1 
   3   2   5 69.5182 1.19630   1 
   4   2   5 17.3599 0.92203   1 
  -5  -2   7 289.833 3.50157  -2 
   5   2   5 289.833 3.50157   1 
  -6  -2   7 40.7618 3.42482  -2 
   6   2   5 40.7618 3.42482   1 
   7   2   5 0.93194 1.00703   1 
   7  -3   3 4.09647 2.02187  -2 
  -7   3   5 4.09647 2.02187   1 
  -6   3   5 1.37593 0.77293   1 
   5  -3   4 2.63496 1.12205  -2 
  -5   3   5 2.63496 1.12205   1 
   4  -3   4 0.52632 0.85223  -2 
  -4   3   5 0.52632 0.85223   1 
  -3   3   5 50.5717 0.85929   1 
   2  -3   5 222.876 2.80160  -2 
  -2   3   5 222.876 2.80160   1 
   1  -3   5 81.8226 1.33620  -2 
  -1   3   5 81.8226 1.33620   1 
   0   3   5 22.2665 0.75354   1 
  -1  -3   6 243.675 3.72193  -2 
   1   3   5 243.675 3.72193   1 
  -2  -3   6 43.4084 1.31138  -2 
   2   3   5 43.4084 1.31138   1 
   3   3   5 2.51037 0.63763   1 
  -4  -3   7 57.8173 2.60736  -2 
   4   3   5 57.8173 2.60736   1 
  -5  -3   7 16.8319 1.64908  -2 
   5   3   5 16.8319 1.64908   1 
   6   3   5 9.69095 0.96456   1 
   7  -4   3 11.4913 2.96630  -2 
  -7   4   5 11.4913 2.96630   1 
   6  -4   4 94.8556 2.74998  -2 
  -6   4   5 94.8556 2.74998   1 
   5  -4   4 167.061 2.49189  -2 
  -5   4   5 167.061 2.49189   1 
   4  -4   4 67.7628 6.61571  -2 
  -4   4   5 67.7628 6.61571   1 
   3  -4   5 18.0413 1.30172  -2 
  -3   4   5 18.0413 1.30172   1 
   2  -4   5 93.3833 1.20121  -2 
  -2   4   5 93.3833 1.20121   1 
  -1   4   5 29.5031 0.71055   1 
   0   4   5 47.2122 0.92688   1 
  -1  -4   6 479.204 4.29137  -2 
   1   4   5 479.204 4.29137   1 
  -2  -4   6 15.4174 9.04812  -2 
   2   4   5 15.4174 9.04812   1 
   3   4   5 66.6246 1.72158   1 
  -4  -4   7 77.5794 2.06336  -2 
   4   4   5 77.5794 2.06336   1 
  -5  -4   7 6.75896 5.63677  -2 
   5   4   5 6.75896 5.63677   1 
   6   4   5 -0.8805 0.75305   1 
  -7   5   5 41.5524 4.69749   1 
   6  -5   4 67.1625 2.26985  -2 
  -6   5   5 67.1625 2.26985   1 
   5  -5   4 196.693 2.92089  -2 
  -5   5   5 196.693 2.92089   1 
  -4   5   5 119.890 1.73504   1 
   3  -5   5 56.1142 1.36112  -2 
  -3   5   5 56.1142 1.36112   1 
   2  -5   5 191.144 2.23910  -2 
  -2   5   5 191.144 2.23910   1 
  -1   5   5 6.33262 0.54221   1 
   0  -5   6 42.8274 1.35037  -2 
   0   5   5 42.8274 1.35037   1 
  -1  -5   6 24.0836 1.87402  -2 
   1   5   5 24.0836 1.87402   1 
   2   5   5 31.8328 1.26129   1 
  -3  -5   7 234.499 5.12624  -2 
   3   5   5 234.499 5.12624   1 
  -4  -5   7 53.9397 2.65408  -2 
   4   5   5 53.9397 2.65408   1 
   5   5   5 22.1549 1.32791   1 
   6  -6   4 -0.4158 1.75936  -2 
  -6   6   5 -0.4158 1.75936   1 
   5  -6   4 151.718 4.45408  -2 
  -5   6   5 151.718 4.45408   1 
   4  -6   5 29.7505 1.63718  -2 
  -4   6   5 29.7505 1.63718   1 
   3  -6   5 254.411 3.15544  -2 
  -3   6   5 254.411 3.15544   1 
   2  -6   5 93.2080 7.21549  -2 
  -2   6   5 93.2080 7.21549   1 
   1  -6   6 11.4860 2.17828  -2 
  -1   6   5 11.4860 2.17828   1 
   0  -6   6 62.9299 1.48074  -2 
   0   6   5 62.9299 1.48074   1 
  -1  -6   6 10.8466 5.01198  -2 
   1   6   5 10.8466 5.01198   1 
  -2  -6   7 29.2353 4.97092  -2 
   2   6   5 29.2353 4.97092   1 
  -3  -6   7 19.1767 1.54064  -2 
   3   6   5 19.1767 1.54064   1 
  -4  -6   7 12.7447 5.21188  -2 
   4   6   5 12.7447 5.21188   1 
   5  -7   5 35.8189 3.40891  -2 
  -5   7   5 35.8189 3.40891   1 
   4  -7   5 189.476 3.83181  -2 
  -4   7   5 189.476 3.83181   1 
   3  -7   5 15.9170 1.92980  -2 
  -3   7   5 15.9170 1.92980   1 
  -2   7   5 1.66624 0.67896   1 
   1  -7   6 68.7389 1.83758  -2 
  -1   7   5 68.7389 1.83758   1 
   0  -7   6 1.61494 1.51533  -2 
   0   7   5 1.61494 1.51533   1 
   1   7   5 33.6925 1.25243   1 
  -2  -7   7 23.5796 1.62375  -2 
   2   7   5 23.5796 1.62375   1 
  -3  -7   7 132.720 3.39884  -2 
   3   7   5 132.720 3.39884   1 
   4  -8   5 62.8043 3.66229  -2 
  -4   8   5 62.8043 3.66229   1 
   3  -8   5 40.1188 2.04758  -2 
  -3   8   5 40.1188 2.04758   1 
   2  -8   6 7.23820 2.26929  -2 
  -2   8   5 7.23820 2.26929   1 
   1  -8   6 7.99222 1.27788  -2 
  -1   8   5 7.99222 1.27788   1 
   0  -8   6 6.93939 3.05141  -2 
   0   8   5 6.93939 3.05141   1 
  -1  -8   7 7.16190 1.64194  -2 
   1   8   5 7.16190 1.64194   1 
  -2  -8   7 90.4599 2.90208  -2 
   2   8   5 90.4599 2.90208   1 
   2   8   4 42.0544 3.69803  -2 
  -2  -8   6 42.0544 3.69803   1 
   1   8   4 12.5573 2.30628  -2 
  -1  -8   6 12.5573 2.30628   1 
   0   8   5 -2.3631 5.43566  -2 
   0  -8   6 -2.3631 5.43566   1 
  -1   8   5 5.06718 1.76866  -2 
   1  -8   6 5.06718 1.76866   1 
  -2   8   5 10.7410 2.46094  -2 
   2  -8   6 10.7410 2.46094   1 
   3  -8   6 7.81841 0.94146   1 
  -4  -7   6 21.4429 2.42833   1 
   3   7   4 167.677 5.07523  -2 
  -3  -7   6 167.677 5.07523   1 
   2   7   4 62.4636 4.53641  -2 
  -2  -7   6 62.4636 4.53641   1 
  -1  -7   6 2.49717 0.88787   1 
   0   7   5 8.43969 2.57746  -2 
   0  -7   6 8.43969 2.57746   1 
  -1   7   5 70.5275 2.54927  -2 
   1  -7   6 70.5275 2.54927   1 
  -2   7   5 6.79060 5.47872  -2 
   2  -7   6 6.79060 5.47872   1 
  -3   7   6 22.3419 2.17674  -2 
   3  -7   6 22.3419 2.17674   1 
  -4   7   6 38.5030 2.19786  -2 
   4  -7   6 38.5030 2.19786   1 
   5   6   3 18.0498 5.71778  -2 
  -5  -6   6 18.0498 5.71778   1 
   4   6   4 63.7708 5.97287  -2 
  -4  -6   6 63.7708 5.97287   1 
   3   6   4 127.770 3.35350  -2 
  -3  -6   6 127.770 3.35350   1 
   2   6   4 64.9331 10.6754  -2 
  -2  -6   6 64.9331 10.6754   1 
   1   6   5 40.6836 9.44606  -2 
  -1  -6   6 40.6836 9.44606   1 
   0   6   5 46.9138 1.73618  -2 
   0  -6   6 46.9138 1.73618   1 
  -1   6   5 29.7567 2.60643  -2 
   1  -6   6 29.7567 2.60643   1 
  -2   6   6 47.6090 6.09993  -2 
   2  -6   6 47.6090 6.09993   1 
  -3   6   6 172.438 3.12646  -2 
   3  -6   6 172.438 3.12646   1 
  -4   6   6 48.1439 2.98999  -2 
   4  -6   6 48.1439 2.98999   1 
  -5   6   7 29.6431 5.78383  -2 
   5  -6   6 29.6431 5.78383   1 
   6   5   3 6.70586 5.08029  -2 
  -6  -5   6 6.70586 5.08029   1 
  -5  -5   6 74.2781 2.67376   1 
   4   5   4 93.2888 3.53552  -2 
  -4  -5   6 93.2888 3.53552   1 
   3   5   4 46.2884 3.69011  -2 
  -3  -5   6 46.2884 3.69011   1 
  -2  -5   6 64.5003 1.80028   1 
   1   5   5 20.2795 3.52119  -2 
  -1  -5   6 20.2795 3.52119   1 
   0   5   5 36.8355 1.88171  -2 
   0  -5   6 36.8355 1.88171   1 
   1  -5   6 1.60605 0.58015   1 
  -2   5   6 15.8598 1.54489  -2 
   2  -5   6 15.8598 1.54489   1 
  -3   5   6 53.2635 1.91503  -2 
   3  -5   6 53.2635 1.91503   1 
   4  -5   6 135.479 2.59594   1 
  -5   5   7 62.2922 2.48036  -2 
   5  -5   6 62.2922 2.48036   1 
  -6   5   7 62.4597 2.83560  -2 
   6  -5   6 62.4597 2.83560   1 
   6   4   3 15.3909 7.52220  -2 
  -6  -4   6 15.3909 7.52220   1 
   5   4   4 96.3661 5.96976  -2 
  -5  -4   6 96.3661 5.96976   1 
   4   4   4 63.9273 2.23777  -2 
  -4  -4   6 63.9273 2.23777   1 
   3   4   4 50.7513 4.66691  -2 
  -3  -4   6 50.7513 4.66691   1 
  -2  -4   6 28.9143 1.29415   1 
   1   4   5 260.486 3.51973  -2 
  -1  -4   6 260.486 3.51973   1 
   0   4   5 186.787 9.65422  -2 
   0  -4   6 186.787 9.65422   1 
   1  -4   6 0.29187 0.49039   1 
  -2   4   6 84.8709 1.65499  -2 
   2  -4   6 84.8709 1.65499   1 
  -3   4   6 334.306 6.99054  -2 
   3  -4   6 334.306 6.99054   1 
  -4   4   7 67.4776 5.81857  -2 
   4  -4   6 67.4776 5.81857   1 
  -5   4   7 54.3196 1.72121  -2 
   5  -4   6 54.3196 1.72121   1 
  -6   4   7 17.6491 2.20261  -2 
   6  -4   6 17.6491 2.20261   1 
   7   3   3 13.0838 1.84868  -2 
  -7  -3   6 13.0838 1.84868   1 
  -6  -3   6 5.11139 1.02905   1 
   5   3   4 119.636 4.00919  -2 
  -5  -3   6 119.636 4.00919   1 
   4   3   4 134.870 3.99991  -2 
  -4  -3   6 134.870 3.99991   1 
  -3  -3   6 46.5767 1.34260   1 
   2   3   5 94.3370 2.91603  -2 
  -2  -3   6 94.3370 2.91603   1 
   1   3   5 131.583 2.84543  -2 
  -1  -3   6 131.583 2.84543   1 
   0  -3   6 126.656 2.01891   1 
  -1   3   6 442.695 5.93950  -2 
   1  -3   6 442.695 5.93950   1 
  -2   3   6 266.866 3.35121  -2 
   2  -3   6 266.866 3.35121   1 
   3  -3   6 6.99650 0.65472   1 
  -4   3   7 679.530 8.04000  -2 
   4  -3   6 679.530 8.04000   1 
  -5   3   7 233.293 3.54702  -2 
   5  -3   6 233.293 3.54702   1 
   6  -3   6 0.89349 1.10663   1 
   7   2   3 21.2848 2.84897  -2 
  -7  -2   6 21.2848 2.84897   1 
   6   2   4 23.5837 3.72647  -2 
  -6  -2   6 23.5837 3.72647   1 
   5   2   4 37.7967 1.54357  -2 
  -5  -2   6 37.7967 1.54357   1 
  -4  -2   6 87.6723 1.92130   1 
  -3  -2   6 288.984 3.70314   1 
   2   2   5 99.5557 1.85637  -2 
  -2  -2   6 99.5557 1.85637   1 
  -1  -2   6 737.506 8.54826   1 
   0  -2   6 76.8294 1.22551   1 
  -1   2   6 366.159 4.41846  -2 
   1  -2   6 366.159 4.41846   1 
  -2   2   6 302.724 11.6557  -2 
   2  -2   6 302.724 11.6557   1 
   3  -2   6 79.4318 1.27783   1 
  -4   2   7 327.148 4.34356  -2 
   4  -2   6 327.148 4.34356   1 
  -5   2   7 374.564 5.73325  -2 
   5  -2   6 374.564 5.73325   1 
  -6   2   8 30.5299 4.10013  -2 
   6  -2   6 30.5299 4.10013   1 
  -7   2   8 40.8354 2.53041  -2 
   7  -2   6 40.8354 2.53041   1 
  -7  -1   6 1.28373 0.76299   1 
   6   1   4 21.6142 1.77067  -2 
  -6  -1   6 21.6142 1.77067   1 
   5   1   4 144.315 2.86514  -2 
  -5  -1   6 144.315 2.86514   1 
  -4  -1   6 342.424 3.45012   1 
   3   1   5 78.9026 2.25066  -2 
  -3  -1   6 78.9026 2.25066   1 
   2   1   5 156.962 2.75969  -2 
  -2  -1   6 156.962 2.75969   1 
  -1  -1   6 139.916 1.95760   1 
   0   1   6 122.129 2.06767  -2 
   0  -1   6 122.129 2.06767   1 
  -1   1   6 695.259 7.72976  -2 
   1  -1   6 695.259 7.72976   1 
   2  -1   6 153.415 2.26703   1 
  -3   1   7 77.2534 1.45901  -2 
   3  -1   6 77.2534 1.45901   1 
  -4   1   7 294.044 3.94624  -2 
   4  -1   6 294.044 3.94624   1 
   5  -1   6 155.912 2.43448   1 
  -6   1   8 0.15520 2.27210  -2 
   6  -1   6 0.15520 2.27210   1 
  -7   1   8 17.9205 2.13305  -2 
   7  -1   6 17.9205 2.13305   1 
   7   0   4 17.2999 1.89990  -2 
  -7   0   6 17.2999 1.89990   1 
   6   0   4 47.7706 1.53452  -2 
  -6   0   6 47.7706 1.53452   1 
   5   0   4 52.8422 8.20319  -2 
  -5   0   6 52.8422 8.20319   1 
  -4   0   6 0.49410 0.49337   1 
   3   0   5 49.8564 1.39493  -2 
  -3   0   6 49.8564 1.39493   1 
  -2   0   6 0.78705 0.45749   1 
  -1   0   6 383.620 4.20765   1 
   0   0   6 1496.11 16.2326  -2 
   0   0   6 1496.11 16.2326   1 
   1   0   6 141.543 1.93273   1 
   2   0   6 379.634 4.34552   1 
  -3   0   7 63.7980 1.08922  -2 
   3   0   6 63.7980 1.08922   1 
  -4   0   7 98.7531 3.71979  -2 
   4   0   6 98.7531 3.71979   1 
  -5   0   8 235.132 7.65127  -2 
   5   0   6 235.132 7.65127   1 
  -6   0   8 35.9736 1.55679  -2 
   6   0   6 35.9736 1.55679   1 
  -7   0   8 55.9750 4.71845  -2 
   7   0   6 55.9750 4.71845   1 
   7  -1   4 7.37143 1.49622  -2 
  -7   1   6 7.37143 1.49622   1 
   6  -1   4 -0.6355 1.25716  -2 
  -6   1   6 -0.6355 1.25716   1 
  -5   1   6 105.819 1.67699   1 
   4  -1   5 62.7938 1.39918  -2 
  -4   1   6 62.7938 1.39918   1 
   3  -1   5 78.4165 1.57923  -2 
  -3   1   6 78.4165 1.57923   1 
  -2   1   6 328.949 3.58820   1 
   1  -1   6 294.281 3.39989  -2 
  -1   1   6 294.281 3.39989   1 
   0  -1   6 96.5250 1.74492  -2 
   0   1   6 96.5250 1.74492   1 
   1   1   6 134.202 2.03118   1 
  -2  -1   7 235.469 3.56835  -2 
   2   1   6 235.469 3.56835   1 
  -3  -1   7 3.90584 0.96935  -2 
   3   1   6 3.90584 0.96935   1 
   4   1   6 144.114 2.01048   1 
  -5  -1   8 70.7177 2.08572  -2 
   5   1   6 70.7177 2.08572   1 
  -6  -1   8 17.7440 1.53492  -2 
   6   1   6 17.7440 1.53492   1 
   7  -2   4 10.8995 1.46359  -2 
  -7   2   6 10.8995 1.46359   1 
   6  -2   4 84.5380 4.71158  -2 
  -6   2   6 84.5380 4.71158   1 
   5  -2   5 101.653 2.06154  -2 
  -5   2   6 101.653 2.06154   1 
   4  -2   5 152.027 1.82238  -2 
  -4   2   6 152.027 1.82238   1 
  -3   2   6 161.869 1.77547   1 
  -2   2   6 17.8578 0.71880   1 
   1  -2   6 443.659 4.69431  -2 
  -1   2   6 443.659 4.69431   1 
   0   2   6 63.6361 1.12072   1 
   1   2   6 25.1885 0.85277   1 
  -2  -2   7 205.045 2.35342  -2 
   2   2   6 205.045 2.35342   1 
   3   2   6 10.2448 0.63868   1 
   4   2   6 4.34298 0.72121   1 
  -5  -2   8 57.7993 1.57901  -2 
   5   2   6 57.7993 1.57901   1 
  -6  -2   8 3.10362 3.51499  -2 
   6   2   6 3.10362 3.51499   1 
   7  -3   4 3.91308 1.88952  -2 
  -7   3   6 3.91308 1.88952   1 
  -6   3   6 2.79324 0.96219   1 
   5  -3   5 88.0933 1.99179  -2 
  -5   3   6 88.0933 1.99179   1 
   4  -3   5 18.9561 1.10067  -2 
  -4   3   6 18.9561 1.10067   1 
  -3   3   6 18.3236 0.61944   1 
   2  -3   6 143.018 1.65690  -2 
  -2   3   6 143.018 1.65690   1 
   1  -3   6 195.050 2.70410  -2 
  -1   3   6 195.050 2.70410   1 
   0   3   6 -0.1126 0.42695   1 
  -1  -3   7 0.97345 0.90312  -2 
   1   3   6 0.97345 0.90312   1 
  -2  -3   7 12.5956 1.02581  -2 
   2   3   6 12.5956 1.02581   1 
   3   3   6 86.8975 1.70213   1 
  -4  -3   8 55.1942 2.34185  -2 
   4   3   6 55.1942 2.34185   1 
  -5  -3   8 27.1979 1.88423  -2 
   5   3   6 27.1979 1.88423   1 
   6   3   6 -0.7210 0.77188   1 
   7  -4   4 10.2088 3.72766  -2 
  -7   4   6 10.2088 3.72766   1 
   6  -4   5 11.2482 2.17013  -2 
  -6   4   6 11.2482 2.17013   1 
   5  -4   5 4.49865 1.12818  -2 
  -5   4   6 4.49865 1.12818   1 
   4  -4   5 57.7106 6.28595  -2 
  -4   4   6 57.7106 6.28595   1 
   3  -4   6 145.719 2.58693  -2 
  -3   4   6 145.719 2.58693   1 
   2  -4   6 164.177 1.84798  -2 
  -2   4   6 164.177 1.84798   1 
  -1   4   6 153.586 1.68093   1 
   0   4   6 0.12455 0.44049   1 
  -1  -4   7 60.0753 1.08453  -2 
   1   4   6 60.0753 1.08453   1 
  -2  -4   7 94.9587 11.6617  -2 
   2   4   6 94.9587 11.6617   1 
  -3  -4   8 44.8985 10.7290  -2 
   3   4   6 44.8985 10.7290   1 
  -4  -4   8 100.966 2.15792  -2 
   4   4   6 100.966 2.15792   1 
  -5  -4   8 4.56256 5.59882  -2 
   5   4   6 4.56256 5.59882   1 
   6  -5   5 9.88472 1.63007  -2 
  -6   5   6 9.88472 1.63007   1 
   5  -5   5 11.8146 1.85150  -2 
  -5   5   6 11.8146 1.85150   1 
  -4   5   6 164.425 2.32456   1 
   3  -5   6 28.7009 1.21083  -2 
  -3   5   6 28.7009 1.21083   1 
   2  -5   6 7.41013 1.26297  -2 
  -2   5   6 7.41013 1.26297   1 
  -1   5   6 102.329 1.46117   1 
   0  -5   7 27.5225 1.29547  -2 
   0   5   6 27.5225 1.29547   1 
  -1  -5   7 97.0975 2.21052  -2 
   1   5   6 97.0975 2.21052   1 
   2   5   6 -0.1728 0.68898   1 
  -3  -5   8 196.401 3.64645  -2 
   3   5   6 196.401 3.64645   1 
  -4  -5   8 17.0182 1.70415  -2 
   4   5   6 17.0182 1.70415   1 
   5   5   6 1.00786 0.72565   1 
   5  -6   5 3.96296 2.79373  -2 
  -5   6   6 3.96296 2.79373   1 
   4  -6   6 30.5440 2.48744  -2 
  -4   6   6 30.5440 2.48744   1 
   3  -6   6 136.407 2.22137  -2 
  -3   6   6 136.407 2.22137   1 
   2  -6   6 19.0594 5.95965  -2 
  -2   6   6 19.0594 5.95965   1 
   1  -6   7 55.0697 2.35187  -2 
  -1   6   6 55.0697 2.35187   1 
   0  -6   7 104.048 1.88412  -2 
   0   6   6 104.048 1.88412   1 
  -1  -6   7 1.74275 3.39438  -2 
   1   6   6 1.74275 3.39438   1 
  -2  -6   8 6.08996 5.97170  -2 
   2   6   6 6.08996 5.97170   1 
  -3  -6   8 12.8197 1.24110  -2 
   3   6   6 12.8197 1.24110   1 
  -4  -6   8 56.8668 7.39091  -2 
   4   6   6 56.8668 7.39091   1 
  -5   7   6 0.31455 1.08232   1 
   4  -7   6 101.390 2.78017  -2 
  -4   7   6 101.390 2.78017   1 
   3  -7   6 40.8475 2.12908  -2 
  -3   7   6 40.8475 2.12908   1 
  -2   7   6 19.1036 1.06143   1 
   1  -7   7 9.45263 1.41301  -2 
  -1   7   6 9.45263 1.41301   1 
   0  -7   7 56.2127 2.13715  -2 
   0   7   6 56.2127 2.13715   1 
   1   7   6 -0.1565 0.68007   1 
  -2  -7   8 2.98482 1.45753  -2 
   2   7   6 2.98482 1.45753   1 
  -3  -7   8 7.48139 1.71645  -2 
   3   7   6 7.48139 1.71645   1 
   3  -8   6 122.427 5.98993  -2 
  -3   8   6 122.427 5.98993   1 
   2  -8   7 18.0764 2.13798  -2 
  -2   8   6 18.0764 2.13798   1 
   1  -8   7 4.90063 1.17040  -2 
  -1   8   6 4.90063 1.17040   1 
   0  -8   7 10.4018 2.96725  -2 
   0   8   6 10.4018 2.96725   1 
  -1  -8   8 13.4605 4.48471  -2 
   1   8   6 13.4605 4.48471   1 
   2   8   5 45.0775 3.49053  -2 
  -2  -8   7 45.0775 3.49053   1 
   1   8   5 12.4873 4.01819  -2 
  -1  -8   7 12.4873 4.01819   1 
   0  -8   7 8.82967 1.31056   1 
  -1   8   6 3.51491 1.68692  -2 
   1  -8   7 3.51491 1.68692   1 
  -2   8   6 6.14719 3.36240  -2 
   2  -8   7 6.14719 3.36240   1 
   3  -8   7 -0.9895 1.78568   1 
   3   7   5 157.149 6.94067  -2 
  -3  -7   7 157.149 6.94067   1 
   2   7   5 47.8447 3.05295  -2 
  -2  -7   7 47.8447 3.05295   1 
  -1  -7   7 8.69541 1.26029   1 
   0   7   6 78.8046 3.76180  -2 
   0  -7   7 78.8046 3.76180   1 
  -1   7   6 4.86445 2.34411  -2 
   1  -7   7 4.86445 2.34411   1 
  -2   7   6 52.1352 5.66477  -2 
   2  -7   7 52.1352 5.66477   1 
  -3   7   7 7.72844 1.85003  -2 
   3  -7   7 7.72844 1.85003   1 
  -4   7   7 22.7598 1.59022  -2 
   4  -7   7 22.7598 1.59022   1 
  -5  -6   7 0.26565 2.46270   1 
   4   6   5 23.6473 7.05410  -2 
  -4  -6   7 23.6473 7.05410   1 
   3   6   5 9.12789 1.78044  -2 
  -3  -6   7 9.12789 1.78044   1 
   2   6   5 42.0322 7.39739  -2 
  -2  -6   7 42.0322 7.39739   1 
  -1  -6   7 6.06099 0.97180   1 
   0   6   6 101.285 2.47030  -2 
   0  -6   7 101.285 2.47030   1 
  -1   6   6 31.3163 2.69321  -2 
   1  -6   7 31.3163 2.69321   1 
  -2   6   7 142.256 8.56812  -2 
   2  -6   7 142.256 8.56812   1 
  -3   6   7 12.9757 1.89938  -2 
   3  -6   7 12.9757 1.89938   1 
  -4   6   7 13.1086 3.07924  -2 
   4  -6   7 13.1086 3.07924   1 
   5  -6   7 10.3881 1.33419   1 
  -5  -5   7 22.0132 1.51605   1 
   4   5   5 122.035 4.55022  -2 
  -4  -5   7 122.035 4.55022   1 
   3   5   5 425.478 9.25924  -2 
  -3  -5   7 425.478 9.25924   1 
  -2  -5   7 62.8091 1.97283   1 
   1   5   6 48.0819 2.33405  -2 
  -1  -5   7 48.0819 2.33405   1 
   0   5   6 50.3525 1.84489  -2 
   0  -5   7 50.3525 1.84489   1 
   1  -5   7 55.6064 1.34895   1 
  -2   5   7 104.925 2.58614  -2 
   2  -5   7 104.925 2.58614   1 
  -3   5   7 2.66894 1.53292  -2 
   3  -5   7 2.66894 1.53292   1 
   4  -5   7 3.17490 0.94405   1 
  -5   5   8 112.221 3.76244  -2 
   5  -5   7 112.221 3.76244   1 
   6   4   4 2.66096 6.56470  -2 
  -6  -4   7 2.66096 6.56470   1 
   5   4   5 6.50506 4.34057  -2 
  -5  -4   7 6.50506 4.34057   1 
   4   4   5 48.1703 2.31913  -2 
  -4  -4   7 48.1703 2.31913   1 
   3   4   5 36.5307 5.62752  -2 
  -3  -4   7 36.5307 5.62752   1 
  -2  -4   7 27.1058 1.35720   1 
   1   4   6 126.690 2.00184  -2 
  -1  -4   7 126.690 2.00184   1 
   0   4   6 56.0737 5.78068  -2 
   0  -4   7 56.0737 5.78068   1 
   1  -4   7 2.45175 0.54189   1 
  -2   4   7 197.252 2.76623  -2 
   2  -4   7 197.252 2.76623   1 
  -3   4   7 215.965 5.59535  -2 
   3  -4   7 215.965 5.59535   1 
  -4   4   8 39.9506 2.93397  -2 
   4  -4   7 39.9506 2.93397   1 
  -5   4   8 39.1528 2.00409  -2 
   5  -4   7 39.1528 2.00409   1 
  -6   4   8 111.883 2.83961  -2 
   6  -4   7 111.883 2.83961   1 
  -6  -3   7 31.8900 1.54460   1 
   5   3   5 38.9843 1.97810  -2 
  -5  -3   7 38.9843 1.97810   1 
   4   3   5 45.5760 2.45439  -2 
  -4  -3   7 45.5760 2.45439   1 
  -3  -3   7 317.957 4.32048   1 
   2   3   6 27.9778 1.52787  -2 
  -2  -3   7 27.9778 1.52787   1 
   1   3   6 2.03688 1.17884  -2 
  -1  -3   7 2.03688 1.17884   1 
   0  -3   7 15.1330 0.64783   1 
  -1   3   7 230.379 3.04773  -2 
   1  -3   7 230.379 3.04773   1 
  -2   3   7 83.6533 1.65427  -2 
   2  -3   7 83.6533 1.65427   1 
   3  -3   7 15.7858 0.82836   1 
  -4   3   8 63.2412 2.04356  -2 
   4  -3   7 63.2412 2.04356   1 
  -5   3   8 54.8360 1.98582  -2 
   5  -3   7 54.8360 1.98582   1 
   6  -3   7 2.44948 0.98315   1 
  -7  -2   7 5.42764 0.93829   1 
   6   2   5 90.9787 4.11439  -2 
  -6  -2   7 90.9787 4.11439   1 
   5   2   5 413.891 5.74187  -2 
  -5  -2   7 413.891 5.74187   1 
  -4  -2   7 67.3355 1.65965   1 
  -3  -2   7 37.1310 1.03115   1 
   2   2   6 312.916 3.62448  -2 
  -2  -2   7 312.916 3.62448   1 
  -1  -2   7 25.2171 0.84228   1 
   0  -2   7 103.663 1.55854   1 
  -1   2   7 104.494 1.94953  -2 
   1  -2   7 104.494 1.94953   1 
  -2   2   7 632.073 22.3011  -2 
   2  -2   7 632.073 22.3011   1 
   3  -2   7 1.75023 0.55442   1 
  -4   2   8 262.479 3.94798  -2 
   4  -2   7 262.479 3.94798   1 
  -5   2   8 184.856 3.36759  -2 
   5  -2   7 184.856 3.36759   1 
  -6   2   9 6.71163 3.83680  -2 
   6  -2   7 6.71163 3.83680   1 
  -7  -1   7 0.35634 0.89647   1 
   6   1   5 12.6380 1.74288  -2 
  -6  -1   7 12.6380 1.74288   1 
   5   1   5 61.2241 1.86947  -2 
  -5  -1   7 61.2241 1.86947   1 
  -4  -1   7 57.6937 1.17372   1 
   3   1   6 3.86185 1.02092  -2 
  -3  -1   7 3.86185 1.02092   1 
   2   1   6 219.115 3.84596  -2 
  -2  -1   7 219.115 3.84596   1 
  -1  -1   7 166.724 2.25813   1 
   0   1   7 29.6897 1.18776  -2 
   0  -1   7 29.6897 1.18776   1 
  -1   1   7 233.814 3.40853  -2 
   1  -1   7 233.814 3.40853   1 
   2  -1   7 66.2989 1.13720   1 
  -3   1   8 70.4114 1.79418  -2 
   3  -1   7 70.4114 1.79418   1 
  -4   1   8 30.2496 1.62773  -2 
   4  -1   7 30.2496 1.62773   1 
   5  -1   7 91.2214 2.22939   1 
  -6   1   9 21.2726 1.97842  -2 
   6  -1   7 21.2726 1.97842   1 
   7   0   5 -0.4466 2.14329  -2 
  -7   0   7 -0.4466 2.14329   1 
   6   0   5 8.84262 1.11442  -2 
  -6   0   7 8.84262 1.11442   1 
  -5   0   7 27.4309 1.07431   1 
  -4   0   7 200.083 2.54771   1 
   3   0   6 35.5056 0.91644  -2 
  -3   0   7 35.5056 0.91644   1 
  -2   0   7 67.7268 1.33625   1 
  -1   0   7 15.5981 0.65241   1 
   0   0   7 7.97114 0.59280  -2 
   0   0   7 7.97114 0.59280   1 
   1   0   7 173.573 2.62169   1 
   2   0   7 5.04158 0.47642   1 
  -3   0   8 9.48071 0.78545  -2 
   3   0   7 9.48071 0.78545   1 
  -4   0   8 215.085 6.46261  -2 
   4   0   7 215.085 6.46261   1 
  -5   0   9 46.3186 4.53100  -2 
   5   0   7 46.3186 4.53100   1 
  -6   0   9 14.6179 1.67792  -2 
   6   0   7 14.6179 1.67792   1 
   7  -1   5 -0.7875 1.59584  -2 
  -7   1   7 -0.7875 1.59584   1 
   6  -1   5 70.0103 1.92347  -2 
  -6   1   7 70.0103 1.92347   1 
  -5   1   7 20.9035 0.91954   1 
   4  -1   6 288.896 3.50385  -2 
  -4   1   7 288.896 3.50385   1 
   3  -1   6 54.7073 1.26599  -2 
  -3   1   7 54.7073 1.26599   1 
  -2   1   7 9.85133 0.64084   1 
   1  -1   7 279.066 3.80341  -2 
  -1   1   7 279.066 3.80341   1 
   0  -1   7 23.4579 1.14198  -2 
   0   1   7 23.4579 1.14198   1 
   1   1   7 70.4304 1.29288   1 
  -2  -1   8 392.048 4.14655  -2 
   2   1   7 392.048 4.14655   1 
  -3  -1   8 28.7360 1.29781  -2 
   3   1   7 28.7360 1.29781   1 
   4   1   7 116.800 1.88404   1 
  -5  -1   9 165.898 3.06252  -2 
   5   1   7 165.898 3.06252   1 
  -6  -1   9 4.75077 1.67500  -2 
   6   1   7 4.75077 1.67500   1 
   7  -2   5 1.79060 1.46597  -2 
  -7   2   7 1.79060 1.46597   1 
   6  -2   5 67.9887 9.06875  -2 
  -6   2   7 67.9887 9.06875   1 
   5  -2   6 171.712 3.25345  -2 
  -5   2   7 171.712 3.25345   1 
   4  -2   6 147.466 2.06141  -2 
  -4   2   7 147.466 2.06141   1 
  -3   2   7 5.77237 0.53585   1 
   2  -2   7 253.605 11.9166  -2 
  -2   2   7 253.605 11.9166   1 
   1  -2   7 206.228 2.52689  -2 
  -1   2   7 206.228 2.52689   1 
   0   2   7 0.03224 0.38331   1 
   1   2   7 15.0737 0.57527   1 
  -2  -2   8 109.186 1.55446  -2 
   2   2   7 109.186 1.55446   1 
  -3  -2   8 79.9948 10.7926  -2 
   3   2   7 79.9948 10.7926   1 
   4   2   7 87.1266 1.91835   1 
  -5  -2   9 57.6017 1.67591  -2 
   5   2   7 57.6017 1.67591   1 
  -6  -2   9 19.3926 3.44042  -2 
   6   2   7 19.3926 3.44042   1 
   7  -3   5 4.72432 1.81764  -2 
  -7   3   7 4.72432 1.81764   1 
  -6   3   7 0.90184 1.11517   1 
   5  -3   6 229.054 3.44209  -2 
  -5   3   7 229.054 3.44209   1 
   4  -3   6 291.424 3.08280  -2 
  -4   3   7 291.424 3.08280   1 
  -3   3   7 38.1821 0.93066   1 
   2  -3   7 133.308 1.86157  -2 
  -2   3   7 133.308 1.86157   1 
   1  -3   7 155.956 1.97658  -2 
  -1   3   7 155.956 1.97658   1 
   0   3   7 2.18960 0.44316   1 
  -1  -3   8 9.95515 1.00087  -2 
   1   3   7 9.95515 1.00087   1 
  -2  -3   8 152.793 2.25193  -2 
   2   3   7 152.793 2.25193   1 
   3   3   7 10.1812 0.76769   1 
  -4  -3   9 54.3091 2.32987  -2 
   4   3   7 54.3091 2.32987   1 
  -5  -3   9 38.2977 1.88582  -2 
   5   3   7 38.2977 1.88582   1 
   6   3   7 0.09662 1.10691   1 
   6  -4   6 38.2761 2.25181  -2 
  -6   4   7 38.2761 2.25181   1 
   5  -4   6 72.4625 1.67151  -2 
  -5   4   7 72.4625 1.67151   1 
   4  -4   6 49.4153 6.46477  -2 
  -4   4   7 49.4153 6.46477   1 
   3  -4   7 112.488 2.23403  -2 
  -3   4   7 112.488 2.23403   1 
   2  -4   7 112.355 1.75527  -2 
  -2   4   7 112.355 1.75527   1 
  -1   4   7 139.920 1.67970   1 
   0  -4   8 46.4367 2.85459  -2 
   0   4   7 46.4367 2.85459   1 
  -1  -4   8 100.006 1.62987  -2 
   1   4   7 100.006 1.62987   1 
  -2  -4   8 48.9132 4.20518  -2 
   2   4   7 48.9132 4.20518   1 
  -3  -4   9 45.1178 4.23020  -2 
   3   4   7 45.1178 4.23020   1 
  -4  -4   9 69.9998 1.76355  -2 
   4   4   7 69.9998 1.76355   1 
  -5  -4   9 18.4482 4.81118  -2 
   5   4   7 18.4482 4.81118   1 
   6  -5   6 62.8903 2.88925  -2 
  -6   5   7 62.8903 2.88925   1 
   5  -5   6 30.8167 2.64059  -2 
  -5   5   7 30.8167 2.64059   1 
  -4   5   7 3.45811 0.70741   1 
   3  -5   7 0.66007 1.32692  -2 
  -3   5   7 0.66007 1.32692   1 
   2  -5   7 47.3858 1.68141  -2 
  -2   5   7 47.3858 1.68141   1 
  -1   5   7 164.379 2.16953   1 
   0  -5   8 41.1923 1.36915  -2 
   0   5   7 41.1923 1.36915   1 
  -1  -5   8 2.35100 1.41409  -2 
   1   5   7 2.35100 1.41409   1 
   2   5   7 5.18539 0.85224   1 
  -3  -5   9 28.6593 1.94196  -2 
   3   5   7 28.6593 1.94196   1 
  -4  -5   9 5.50879 1.72937  -2 
   4   5   7 5.50879 1.72937   1 
   5  -6   6 64.8789 3.75027  -2 
  -5   6   7 64.8789 3.75027   1 
   4  -6   7 41.4062 2.72911  -2 
  -4   6   7 41.4062 2.72911   1 
   3  -6   7 9.54445 1.36015  -2 
  -3   6   7 9.54445 1.36015   1 
   2  -6   7 103.295 7.42561  -2 
  -2   6   7 103.295 7.42561   1 
   1  -6   8 20.4272 1.93266  -2 
  -1   6   7 20.4272 1.93266   1 
   0  -6   8 24.5125 1.16716  -2 
   0   6   7 24.5125 1.16716   1 
  -1  -6   8 38.8057 4.78357  -2 
   1   6   7 38.8057 4.78357   1 
  -2  -6   9 -1.3574 3.21626  -2 
   2   6   7 -1.3574 3.21626   1 
  -3  -6   9 4.37903 1.19113  -2 
   3   6   7 4.37903 1.19113   1 
   4  -7   7 14.9980 1.81944  -2 
  -4   7   7 14.9980 1.81944   1 
   3  -7   7 14.2629 2.11421  -2 
  -3   7   7 14.2629 2.11421   1 
  -2   7   7 7.46921 0.91412   1 
   1  -7   8 22.0277 1.71075  -2 
  -1   7   7 22.0277 1.71075   1 
   0  -7   8 36.1890 1.67546  -2 
   0   7   7 36.1890 1.67546   1 
   1   7   7 20.5847 1.08838   1 
  -2  -7   9 0.06075 1.66145  -2 
   2   7   7 0.06075 1.66145   1 
  -2   8   7 19.0820 2.27669   1 
   1  -8   8 3.66859 2.04503  -2 
  -1   8   7 3.66859 2.04503   1 
   0   8   7 24.3659 2.40256   1 
  -1  -8   8 36.3447 2.42862   1 
   0  -8   8 5.83017 1.09069   1 
  -1   8   7 3.77362 2.03054  -2 
   1  -8   8 3.77362 2.03054   1 
   3   7   6 9.06448 2.16386  -2 
  -3  -7   8 9.06448 2.16386   1 
   2   7   6 0.74393 2.36117  -2 
  -2  -7   8 0.74393 2.36117   1 
  -1  -7   8 1.17335 0.96927   1 
   0   7   7 26.3574 2.66723  -2 
   0  -7   8 26.3574 2.66723   1 
  -1   7   7 35.7274 2.64449  -2 
   1  -7   8 35.7274 2.64449   1 
  -2   7   7 4.75809 4.59228  -2 
   2  -7   8 4.75809 4.59228   1 
  -3   7   8 8.68195 1.72006  -2 
   3  -7   8 8.68195 1.72006   1 
   4   6   6 98.0730 7.96628  -2 
  -4  -6   8 98.0730 7.96628   1 
   3   6   6 18.2907 2.00000  -2 
  -3  -6   8 18.2907 2.00000   1 
   2   6   6 32.4457 6.93727  -2 
  -2  -6   8 32.4457 6.93727   1 
  -1  -6   8 35.6600 1.50751   1 
   0   6   7 53.5670 1.88462  -2 
   0  -6   8 53.5670 1.88462   1 
  -1   6   7 19.0088 4.51786  -2 
   1  -6   8 19.0088 4.51786   1 
  -2   6   8 72.9368 7.04151  -2 
   2  -6   8 72.9368 7.04151   1 
  -3   6   8 3.30283 1.49606  -2 
   3  -6   8 3.30283 1.49606   1 
  -4   6   8 20.4255 2.65328  -2 
   4  -6   8 20.4255 2.65328   1 
  -5  -5   8 -0.5704 0.90495   1 
   4   5   6 36.7010 2.32438  -2 
  -4  -5   8 36.7010 2.32438   1 
   3   5   6 271.602 7.51377  -2 
  -3  -5   8 271.602 7.51377   1 
  -2  -5   8 16.8868 1.09336   1 
   1   5   7 6.76970 1.97338  -2 
  -1  -5   8 6.76970 1.97338   1 
   0   5   7 79.9877 1.94963  -2 
   0  -5   8 79.9877 1.94963   1 
   1  -5   8 28.2018 0.98192   1 
  -2   5   8 15.4876 1.77534  -2 
   2  -5   8 15.4876 1.77534   1 
  -3   5   8 18.7965 1.73690  -2 
   3  -5   8 18.7965 1.73690   1 
   4  -5   8 97.3993 2.54304   1 
  -5   5   9 0.10708 2.15820  -2 
   5  -5   8 0.10708 2.15820   1 
   6   4   5 -0.2507 5.41476  -2 
  -6  -4   8 -0.2507 5.41476   1 
   5   4   6 -2.2248 7.83915  -2 
  -5  -4   8 -2.2248 7.83915   1 
   4   4   6 221.247 4.16001  -2 
  -4  -4   8 221.247 4.16001   1 
   3   4   6 17.4142 5.22665  -2 
  -3  -4   8 17.4142 5.22665   1 
  -2  -4   8 69.0187 1.85513   1 
   1   4   7 47.2708 1.21688  -2 
  -1  -4   8 47.2708 1.21688   1 
   0   4   7 15.6861 5.77887  -2 
   0  -4   8 15.6861 5.77887   1 
   1  -4   8 4.18410 0.65819   1 
  -2   4   8 27.8846 1.37032  -2 
   2  -4   8 27.8846 1.37032   1 
  -3   4   8 52.0532 2.63023  -2 
   3  -4   8 52.0532 2.63023   1 
  -4   4   9 58.1198 5.20250  -2 
   4  -4   8 58.1198 5.20250   1 
  -5   4   9 43.3590 1.92120  -2 
   5  -4   8 43.3590 1.92120   1 
  -6  -3   8 12.2414 1.25590   1 
   5   3   6 52.5261 2.37715  -2 
  -5  -3   8 52.5261 2.37715   1 
   4   3   6 79.7536 2.89131  -2 
  -4  -3   8 79.7536 2.89131   1 
  -3  -3   8 323.116 4.37760   1 
   2   3   7 144.927 2.64448  -2 
  -2  -3   8 144.927 2.64448   1 
   1   3   7 5.10826 1.34748  -2 
  -1  -3   8 5.10826 1.34748   1 
   0  -3   8 312.947 3.40212   1 
  -1   3   8 54.8163 1.58296  -2 
   1  -3   8 54.8163 1.58296   1 
  -2   3   8 172.430 2.66361  -2 
   2  -3   8 172.430 2.66361   1 
   3  -3   8 35.4696 1.11357   1 
  -4   3   9 122.005 2.63412  -2 
   4  -3   8 122.005 2.63412   1 
  -5   3   9 91.2113 2.92884  -2 
   5  -3   8 91.2113 2.92884   1 
   6  -3   8 7.90237 1.09048   1 
   6   2   6 -2.0273 3.07685  -2 
  -6  -2   8 -2.0273 3.07685   1 
   5   2   6 31.1510 1.48670  -2 
  -5  -2   8 31.1510 1.48670   1 
   4   2   6 68.2803 6.31716  -2 
  -4  -2   8 68.2803 6.31716   1 
  -3  -2   8 87.2320 1.55205   1 
   2   2   7 226.309 2.66007  -2 
  -2  -2   8 226.309 2.66007   1 
  -1  -2   8 339.180 3.24145   1 
   0  -2   8 126.630 1.60400   1 
  -1   2   8 147.660 1.97124  -2 
   1  -2   8 147.660 1.97124   1 
  -2   2   8 95.1936 6.21855  -2 
   2  -2   8 95.1936 6.21855   1 
   3  -2   8 226.755 2.69827   1 
  -4   2   9 21.8783 1.62058  -2 
   4  -2   8 21.8783 1.62058   1 
  -5   2   9 15.4817 3.33578  -2 
   5  -2   8 15.4817 3.33578   1 
  -6   2  10 1.37541 5.40091  -2 
   6  -2   8 1.37541 5.40091   1 
  -7  -1   8 21.3798 1.43496   1 
   6   1   6 15.6328 1.83724  -2 
  -6  -1   8 15.6328 1.83724   1 
   5   1   6 151.973 3.18289  -2 
  -5  -1   8 151.973 3.18289   1 
  -4  -1   8 149.997 2.06145   1 
   3   1   7 11.7282 1.20551  -2 
  -3  -1   8 11.7282 1.20551   1 
   2   1   7 243.504 3.04835  -2 
  -2  -1   8 243.504 3.04835   1 
  -1  -1   8 64.3928 1.02074   1 
   0   1   8 6.03375 0.96722  -2 
   0  -1   8 6.03375 0.96722   1 
  -1   1   8 73.0523 1.38602  -2 
   1  -1   8 73.0523 1.38602   1 
   2  -1   8 5.62050 0.56929   1 
  -3   1   9 18.0178 1.56217  -2 
   3  -1   8 18.0178 1.56217   1 
  -4   1   9 390.247 5.84638  -2 
   4  -1   8 390.247 5.84638   1 
   5  -1   8 88.2106 2.29811   1 
  -6   1  10 28.3595 2.00154  -2 
   6  -1   8 28.3595 2.00154   1 
   7   0   6 53.6950 3.60300  -2 
  -7   0   8 53.6950 3.60300   1 
   6   0   6 35.6957 1.40844  -2 
  -6   0   8 35.6957 1.40844   1 
  -5   0   8 135.455 2.10600   1 
   4   0   7 205.617 9.77742  -2 
  -4   0   8 205.617 9.77742   1 
   3   0   7 23.3174 0.90788  -2 
  -3   0   8 23.3174 0.90788   1 
  -2   0   8 13.5220 0.66099   1 
  -1   0   8 412.005 3.93950   1 
   0   0   8 6.25457 0.59319  -2 
   0   0   8 6.25457 0.59319   1 
   1   0   8 188.633 2.08516   1 
   2   0   8 53.5200 1.11750   1 
  -3   0   9 34.9421 1.18334  -2 
   3   0   8 34.9421 1.18334   1 
  -4   0   9 66.1986 3.52096  -2 
   4   0   8 66.1986 3.52096   1 
  -5   0  10 25.9285 7.01744  -2 
   5   0   8 25.9285 7.01744   1 
  -6   0  10 10.1003 1.38591  -2 
   6   0   8 10.1003 1.38591   1 
   7  -1   6 15.2350 1.79725  -2 
  -7   1   8 15.2350 1.79725   1 
   6  -1   6 2.15828 1.56744  -2 
  -6   1   8 2.15828 1.56744   1 
  -5   1   8 151.883 2.42230   1 
   4  -1   7 14.0795 1.29253  -2 
  -4   1   8 14.0795 1.29253   1 
   3  -1   7 135.702 2.08678  -2 
  -3   1   8 135.702 2.08678   1 
  -2   1   8 86.4654 1.35197   1 
   1  -1   8 42.5537 1.08021  -2 
  -1   1   8 42.5537 1.08021   1 
   0  -1   8 7.18986 0.91520  -2 
   0   1   8 7.18986 0.91520   1 
   1   1   8 262.992 2.75035   1 
  -2  -1   9 67.9420 1.60039  -2 
   2   1   8 67.9420 1.60039   1 
  -3  -1   9 110.668 2.01041  -2 
   3   1   8 110.668 2.01041   1 
   4   1   8 40.7789 1.08791   1 
  -5  -1  10 138.521 3.90891  -2 
   5   1   8 138.521 3.90891   1 
  -6  -1  10 47.4903 3.36364  -2 
   6   1   8 47.4903 3.36364   1 
   7  -2   6 34.9901 2.96591  -2 
  -7   2   8 34.9901 2.96591   1 
   6  -2   6 18.3849 8.28661  -2 
  -6   2   8 18.3849 8.28661   1 
   5  -2   7 236.398 4.35857  -2 
  -5   2   8 236.398 4.35857   1 
   4  -2   7 350.385 4.12921  -2 
  -4   2   8 350.385 4.12921   1 
  -3   2   8 15.6536 0.85688   1 
  -2   2   8 49.9599 1.22559   1 
   1  -2   8 271.273 2.79211  -2 
  -1   2   8 271.273 2.79211   1 
   0   2   8 3.73697 0.51816   1 
   1   2   8 77.4424 1.26374   1 
  -2  -2   9 31.3839 1.02911  -2 
   2   2   8 31.3839 1.02911   1 
  -3  -2   9 45.2151 5.35314  -2 
   3   2   8 45.2151 5.35314   1 
  -4  -2  10 16.7132 4.86724  -2 
   4   2   8 16.7132 4.86724   1 
  -5  -2  10 61.3170 1.66425  -2 
   5   2   8 61.3170 1.66425   1 
  -6   3   8 1.49896 1.01573   1 
   5  -3   7 29.1366 1.75531  -2 
  -5   3   8 29.1366 1.75531   1 
   4  -3   7 80.3688 2.01927  -2 
  -4   3   8 80.3688 2.01927   1 
  -3   3   8 2.78189 0.64363   1 
   2  -3   8 72.0943 1.55127  -2 
  -2   3   8 72.0943 1.55127   1 
   1  -3   8 127.086 1.90531  -2 
  -1   3   8 127.086 1.90531   1 
   0   3   8 29.9853 0.86403   1 
  -1  -3   9 170.406 2.39366  -2 
   1   3   8 170.406 2.39366   1 
  -2  -3   9 241.117 3.23751  -2 
   2   3   8 241.117 3.23751   1 
   3   3   8 32.0569 1.05338   1 
  -4  -3  10 2.86357 1.65162  -2 
   4   3   8 2.86357 1.65162   1 
  -5  -3  10 43.6601 2.27821  -2 
   5   3   8 43.6601 2.27821   1 
   6  -4   7 49.9648 2.52244  -2 
  -6   4   8 49.9648 2.52244   1 
   5  -4   7 32.1685 1.96887  -2 
  -5   4   8 32.1685 1.96887   1 
   4  -4   7 68.7894 4.28579  -2 
  -4   4   8 68.7894 4.28579   1 
   3  -4   8 38.4700 2.14142  -2 
  -3   4   8 38.4700 2.14142   1 
   2  -4   8 49.8980 1.33196  -2 
  -2   4   8 49.8980 1.33196   1 
  -1   4   8 308.158 3.42043   1 
   0  -4   9 115.177 4.38711  -2 
   0   4   8 115.177 4.38711   1 
  -1  -4   9 30.7387 1.10245  -2 
   1   4   8 30.7387 1.10245   1 
  -2  -4   9 80.5764 6.95322  -2 
   2   4   8 80.5764 6.95322   1 
  -3  -4  10 11.0014 3.66066  -2 
   3   4   8 11.0014 3.66066   1 
  -4  -4  10 84.7788 2.10240  -2 
   4   4   8 84.7788 2.10240   1 
   5   4   8 23.4797 1.78194   1 
   5  -5   7 91.8968 3.00399  -2 
  -5   5   8 91.8968 3.00399   1 
  -4   5   8 0.93490 0.91607   1 
   3  -5   8 7.68907 1.35522  -2 
  -3   5   8 7.68907 1.35522   1 
   2  -5   8 10.1476 1.46831  -2 
  -2   5   8 10.1476 1.46831   1 
  -1   5   8 116.794 1.86745   1 
   0  -5   9 18.1601 1.32654  -2 
   0   5   8 18.1601 1.32654   1 
  -1  -5   9 104.565 2.32882  -2 
   1   5   8 104.565 2.32882   1 
   2   5   8 6.58105 0.81253   1 
  -3  -5  10 0.36704 1.66891  -2 
   3   5   8 0.36704 1.66891   1 
  -4  -5  10 1.66554 1.81716  -2 
   4   5   8 1.66554 1.81716   1 
  -5   6   8 20.8075 1.82495   1 
   4  -6   8 42.1155 2.95030  -2 
  -4   6   8 42.1155 2.95030   1 
   3  -6   8 0.39284 1.45825  -2 
  -3   6   8 0.39284 1.45825   1 
   2  -6   8 173.046 5.25017  -2 
  -2   6   8 173.046 5.25017   1 
   1  -6   9 9.68515 2.19704  -2 
  -1   6   8 9.68515 2.19704   1 
   0  -6   9 19.1320 1.23184  -2 
   0   6   8 19.1320 1.23184   1 
  -1  -6   9 11.4454 4.41039  -2 
   1   6   8 11.4454 4.41039   1 
  -2  -6  10 7.94164 3.90203  -2 
   2   6   8 7.94164 3.90203   1 
  -3  -6  10 28.1442 1.48953  -2 
   3   6   8 28.1442 1.48953   1 
   3  -7   8 8.72236 1.79243  -2 
  -3   7   8 8.72236 1.79243   1 
  -2   7   8 0.43691 0.89622   1 
   1  -7   9 108.959 3.40496  -2 
  -1   7   8 108.959 3.40496   1 
   0  -7   9 8.95139 2.36971  -2 
   0   7   8 8.95139 2.36971   1 
   1   7   8 2.59328 0.84198   1 
   2   7   7 0.03129 2.03489  -2 
  -2  -7   9 0.03129 2.03489   1 
  -1  -7   9 -1.3557 0.99766   1 
   0   7   8 1.48837 2.90765  -2 
   0  -7   9 1.48837 2.90765   1 
  -1   7   8 41.6161 1.92724  -2 
   1  -7   9 41.6161 1.92724   1 
   2  -7   9 4.41439 1.01892   1 
   3  -7   9 3.42670 1.92046   1 
  -4  -6   9 0.79284 1.02100   1 
   3   6   7 10.1005 1.76796  -2 
  -3  -6   9 10.1005 1.76796   1 
  -2  -6   9 2.94662 1.14342   1 
  -1  -6   9 -0.7500 0.94946   1 
   0   6   8 39.9203 2.14613  -2 
   0  -6   9 39.9203 2.14613   1 
  -1   6   8 15.5797 3.71015  -2 
   1  -6   9 15.5797 3.71015   1 
  -2   6   9 4.34863 5.84742  -2 
   2  -6   9 4.34863 5.84742   1 
  -3   6   9 30.6813 1.72646  -2 
   3  -6   9 30.6813 1.72646   1 
  -4   6   9 10.3458 4.95754  -2 
   4  -6   9 10.3458 4.95754   1 
  -5  -5   9 -0.6321 2.53399   1 
   4   5   7 15.8849 1.96428  -2 
  -4  -5   9 15.8849 1.96428   1 
   3   5   7 58.2838 2.74054  -2 
  -3  -5   9 58.2838 2.74054   1 
  -2  -5   9 38.4697 1.50861   1 
   1   5   8 52.0936 2.34525  -2 
  -1  -5   9 52.0936 2.34525   1 
   0   5   8 20.1579 1.61524  -2 
   0  -5   9 20.1579 1.61524   1 
   1  -5   9 0.85128 0.85039   1 
  -2   5   9 26.7818 1.82324  -2 
   2  -5   9 26.7818 1.82324   1 
  -3   5   9 15.8587 1.82605  -2 
   3  -5   9 15.8587 1.82605   1 
   4  -5   9 91.4999 2.28622   1 
   5   4   7 20.2142 7.16731  -2 
  -5  -4   9 20.2142 7.16731   1 
   4   4   7 147.785 3.16004  -2 
  -4  -4   9 147.785 3.16004   1 
   3   4   7 101.280 11.1396  -2 
  -3  -4   9 101.280 11.1396   1 
  -2  -4   9 179.180 2.89397   1 
   1   4   8 70.7153 1.48203  -2 
  -1  -4   9 70.7153 1.48203   1 
   0   4   8 96.1656 7.92357  -2 
   0  -4   9 96.1656 7.92357   1 
   1  -4   9 65.7415 1.74293   1 
  -2   4   9 139.342 2.72418  -2 
   2  -4   9 139.342 2.72418   1 
  -3   4   9 63.1474 3.11609  -2 
   3  -4   9 63.1474 3.11609   1 
  -4   4  10 3.24120 4.68522  -2 
   4  -4   9 3.24120 4.68522   1 
  -5   4  10 36.1791 2.12884  -2 
   5  -4   9 36.1791 2.12884   1 
  -6  -3   9 -0.2066 0.84768   1 
   5   3   7 16.8048 1.82126  -2 
  -5  -3   9 16.8048 1.82126   1 
   4   3   7 25.0048 2.08071  -2 
  -4  -3   9 25.0048 2.08071   1 
  -3  -3   9 137.849 2.68573   1 
   2   3   8 410.576 5.58199  -2 
  -2  -3   9 410.576 5.58199   1 
   1   3   8 103.410 1.95699  -2 
  -1  -3   9 103.410 1.95699   1 
   0  -3   9 6.86143 0.73516   1 
  -1   3   9 97.4222 2.19320  -2 
   1  -3   9 97.4222 2.19320   1 
  -2   3   9 133.197 2.31208  -2 
   2  -3   9 133.197 2.31208   1 
   3  -3   9 0.77596 0.81001   1 
  -4   3  10 20.7158 2.01109  -2 
   4  -3   9 20.7158 2.01109   1 
  -5   3  10 43.5732 2.23848  -2 
   5  -3   9 43.5732 2.23848   1 
   6   2   7 32.1587 4.99320  -2 
  -6  -2   9 32.1587 4.99320   1 
   5   2   7 130.656 2.84386  -2 
  -5  -2   9 130.656 2.84386   1 
   4   2   7 135.340 11.8543  -2 
  -4  -2   9 135.340 11.8543   1 
   3   2   8 36.2158 3.89399  -2 
  -3  -2   9 36.2158 3.89399   1 
   2   2   8 18.6155 0.98534  -2 
  -2  -2   9 18.6155 0.98534   1 
  -1  -2   9 26.8419 0.80851   1 
   0  -2   9 159.476 2.19470   1 
  -1   2   9 28.6482 1.11628  -2 
   1  -2   9 28.6482 1.11628   1 
  -2   2   9 133.634 5.77916  -2 
   2  -2   9 133.634 5.77916   1 
   3  -2   9 63.6839 1.56943   1 
  -4   2  10 47.1472 2.05135  -2 
   4  -2   9 47.1472 2.05135   1 
  -5   2  10 5.86711 3.48520  -2 
   5  -2   9 5.86711 3.48520   1 
   6   1   7 13.9360 2.21813  -2 
  -6  -1   9 13.9360 2.21813   1 
   5   1   7 76.1917 2.16552  -2 
  -5  -1   9 76.1917 2.16552   1 
  -4  -1   9 29.9139 1.05531   1 
   3   1   8 170.443 2.74434  -2 
  -3  -1   9 170.443 2.74434   1 
   2   1   8 102.859 1.94318  -2 
  -2  -1   9 102.859 1.94318   1 
  -1  -1   9 80.0620 1.29742   1 
   0   1   9 27.1092 1.17232  -2 
   0  -1   9 27.1092 1.17232   1 
  -1   1   9 253.746 3.06100  -2 
   1  -1   9 253.746 3.06100   1 
   2  -1   9 41.6167 1.11538   1 
  -3   1  10 51.9481 2.10178  -2 
   3  -1   9 51.9481 2.10178   1 
  -4   1  10 4.00859 1.65008  -2 
   4  -1   9 4.00859 1.65008   1 
   5  -1   9 4.42032 1.05850   1 
   6   0   7 7.64051 1.41030  -2 
  -6   0   9 7.64051 1.41030   1 
  -5   0   9 15.3926 0.99139   1 
   4   0   8 83.1368 6.54175  -2 
  -4   0   9 83.1368 6.54175   1 
   3   0   8 13.6064 0.97624  -2 
  -3   0   9 13.6064 0.97624   1 
  -2   0   9 1.37431 0.63147   1 
  -1   0   9 37.8688 0.92255   1 
   0   0   9 21.5604 0.81534  -2 
   0   0   9 21.5604 0.81534   1 
   1   0   9 4.16000 0.64628   1 
   2   0   9 3.97483 0.69622   1 
  -3   0  10 45.9223 1.68695  -2 
   3   0   9 45.9223 1.68695   1 
  -4   0  10 107.701 5.02924  -2 
   4   0   9 107.701 5.02924   1 
  -5   0  11 23.3978 5.62202  -2 
   5   0   9 23.3978 5.62202   1 
   6  -1   7 17.6495 1.79848  -2 
  -6   1   9 17.6495 1.79848   1 
  -5   1   9 62.6310 1.78815   1 
   4  -1   8 322.560 4.64510  -2 
  -4   1   9 322.560 4.64510   1 
   3  -1   8 48.6978 1.89866  -2 
  -3   1   9 48.6978 1.89866   1 
  -2   1   9 3.77140 0.62594   1 
   1  -1   9 394.216 3.89247  -2 
  -1   1   9 394.216 3.89247   1 
   0  -1   9 13.7933 1.01521  -2 
   0   1   9 13.7933 1.01521   1 
   1   1   9 20.5610 0.89065   1 
  -2  -1  10 379.706 4.55641  -2 
   2   1   9 379.706 4.55641   1 
  -3  -1  10 52.0186 1.75734  -2 
   3   1   9 52.0186 1.75734   1 
   4   1   9 10.4857 0.89595   1 
  -5  -1  11 11.2101 2.39785  -2 
   5   1   9 11.2101 2.39785   1 
   6  -2   7 17.5308 4.81043  -2 
  -6   2   9 17.5308 4.81043   1 
   5  -2   8 35.0368 3.51758  -2 
  -5   2   9 35.0368 3.51758   1 
   4  -2   8 37.0109 1.41128  -2 
  -4   2   9 37.0109 1.41128   1 
  -3   2   9 19.1511 0.97680   1 
  -2   2   9 116.857 1.86291   1 
   1  -2   9 30.6950 1.00524  -2 
  -1   2   9 30.6950 1.00524   1 
   0   2   9 26.4203 0.95652   1 
   1   2   9 59.3239 1.26745   1 
  -2  -2  10 72.7738 1.51955  -2 
   2   2   9 72.7738 1.51955   1 
  -3  -2  10 7.59864 3.95444  -2 
   3   2   9 7.59864 3.95444   1 
  -4  -2  11 22.8038 8.67557  -2 
   4   2   9 22.8038 8.67557   1 
  -5  -2  11 85.6115 1.94935  -2 
   5   2   9 85.6115 1.94935   1 
  -6   3   9 -0.2487 0.88995   1 
   5  -3   8 156.080 4.38589  -2 
  -5   3   9 156.080 4.38589   1 
   4  -3   8 100.805 2.17520  -2 
  -4   3   9 100.805 2.17520   1 
  -3   3   9 186.718 2.65763   1 
   2  -3   9 55.8461 1.65706  -2 
  -2   3   9 55.8461 1.65706   1 
   1  -3   9 172.879 2.53975  -2 
  -1   3   9 172.879 2.53975   1 
   0   3   9 1.82594 0.62535   1 
  -1  -3  10 9.82296 1.30083  -2 
   1   3   9 9.82296 1.30083   1 
  -2  -3  10 173.902 2.85668  -2 
   2   3   9 173.902 2.85668   1 
   3   3   9 29.5590 1.04240   1 
  -4  -3  11 29.1822 2.05741  -2 
   4   3   9 29.1822 2.05741   1 
  -6   4   9 9.31977 2.73767   1 
   5  -4   8 21.8207 1.76176  -2 
  -5   4   9 21.8207 1.76176   1 
   4  -4   8 33.2765 7.42069  -2 
  -4   4   9 33.2765 7.42069   1 
   3  -4   9 85.7177 2.98061  -2 
  -3   4   9 85.7177 2.98061   1 
   2  -4   9 314.066 3.90203  -2 
  -2   4   9 314.066 3.90203   1 
  -1   4   9 6.58520 0.78767   1 
   0  -4  10 2.03186 3.16253  -2 
   0   4   9 2.03186 3.16253   1 
  -1  -4  10 379.252 4.41951  -2 
   1   4   9 379.252 4.41951   1 
  -2  -4  10 -1.2877 7.31278  -2 
   2   4   9 -1.2877 7.31278   1 
  -3  -4  11 13.7949 6.71129  -2 
   3   4   9 13.7949 6.71129   1 
  -4  -4  11 6.26770 1.33797  -2 
   4   4   9 6.26770 1.33797   1 
   5  -5   8 3.20871 2.38040  -2 
  -5   5   9 3.20871 2.38040   1 
  -4   5   9 13.8989 1.11188   1 
   3  -5   9 33.7797 2.13824  -2 
  -3   5   9 33.7797 2.13824   1 
   2  -5   9 35.5189 1.79241  -2 
  -2   5   9 35.5189 1.79241   1 
  -1   5   9 101.722 2.02656   1 
   0  -5  10 0.32864 1.52010  -2 
   0   5   9 0.32864 1.52010   1 
  -1  -5  10 4.49445 1.63366  -2 
   1   5   9 4.49445 1.63366   1 
   2   5   9 70.8209 1.73924   1 
  -3  -5  11 30.6642 2.20152  -2 
   3   5   9 30.6642 2.20152   1 
   4  -6   9 4.26444 4.92262  -2 
  -4   6   9 4.26444 4.92262   1 
   3  -6   9 43.5976 1.66492  -2 
  -3   6   9 43.5976 1.66492   1 
   2  -6   9 6.06274 3.71964  -2 
  -2   6   9 6.06274 3.71964   1 
   1  -6  10 3.85405 2.54215  -2 
  -1   6   9 3.85405 2.54215   1 
   0  -6  10 39.1577 1.58005  -2 
   0   6   9 39.1577 1.58005   1 
  -1  -6  10 15.7301 6.99359  -2 
   1   6   9 15.7301 6.99359   1 
   2   6   9 6.42601 1.01595   1 
  -2   7   9 6.25500 0.92799   1 
   0  -7  10 15.8048 4.17974  -2 
   0   7   9 15.8048 4.17974   1 
  -1  -7  10 10.4666 1.58504   1 
   0  -7  10 6.92814 1.39200   1 
  -1   7   9 4.27873 2.64925  -2 
   1  -7  10 4.27873 2.64925   1 
   3   6   8 51.9255 2.17777  -2 
  -3  -6  10 51.9255 2.17777   1 
  -2  -6  10 19.0781 1.57342   1 
  -1  -6  10 1.30501 0.81137   1 
   0   6   9 27.7142 1.94115  -2 
   0  -6  10 27.7142 1.94115   1 
  -1   6   9 5.72022 3.22767  -2 
   1  -6  10 5.72022 3.22767   1 
   2  -6  10 1.33180 1.27192   1 
  -3   6  10 12.0631 2.22584  -2 
   3  -6  10 12.0631 2.22584   1 
   4   5   8 4.80889 2.37039  -2 
  -4  -5  10 4.80889 2.37039   1 
   3   5   8 0.55518 1.93846  -2 
  -3  -5  10 0.55518 1.93846   1 
  -2  -5  10 25.7448 1.43026   1 
   1   5   9 3.91418 1.82121  -2 
  -1  -5  10 3.91418 1.82121   1 
   0   5   9 4.86285 1.66134  -2 
   0  -5  10 4.86285 1.66134   1 
   1  -5  10 45.2711 1.88709   1 
  -2   5  10 45.0319 2.89391  -2 
   2  -5  10 45.0319 2.89391   1 
  -3   5  10 31.6668 1.80124  -2 
   3  -5  10 31.6668 1.80124   1 
   4  -5  10 6.49636 1.18064   1 
  -5  -4  10 4.21680 0.91777   1 
   4   4   8 134.356 3.03627  -2 
  -4  -4  10 134.356 3.03627   1 
   3   4   8 13.1948 9.37654  -2 
  -3  -4  10 13.1948 9.37654   1 
  -2  -4  10 6.21698 1.05711   1 
   1   4   9 304.507 3.81095  -2 
  -1  -4  10 304.507 3.81095   1 
   0   4   9 8.59526 6.80014  -2 
   0  -4  10 8.59526 6.80014   1 
  -1   4  10 34.9615 7.62623  -2 
   1  -4  10 34.9615 7.62623   1 
  -2   4  10 47.0897 1.75579  -2 
   2  -4  10 47.0897 1.75579   1 
  -3   4  10 74.8586 5.27520  -2 
   3  -4  10 74.8586 5.27520   1 
   4  -4  10 37.9824 1.49487   1 
   5   3   8 20.4443 2.00638  -2 
  -5  -3  10 20.4443 2.00638   1 
   4   3   8 -2.4651 1.90002  -2 
  -4  -3  10 -2.4651 1.90002   1 
  -3  -3  10 3.15807 0.87732   1 
   2   3   9 366.028 5.83078  -2 
  -2  -3  10 366.028 5.83078   1 
   1   3   9 24.9040 1.55657  -2 
  -1  -3  10 24.9040 1.55657   1 
   0  -3  10 156.811 2.34548   1 
  -1   3  10 300.882 4.36101  -2 
   1  -3  10 300.882 4.36101   1 
  -2   3  10 104.203 2.28627  -2 
   2  -3  10 104.203 2.28627   1 
   3  -3  10 10.6547 1.02192   1 
  -4   3  11 23.9912 2.64528  -2 
   4  -3  10 23.9912 2.64528   1 
  -5   3  11 22.0945 2.14330  -2 
   5  -3  10 22.0945 2.14330   1 
  -6  -2  10 0.26693 1.02065   1 
   5   2   8 45.9592 1.71277  -2 
  -5  -2  10 45.9592 1.71277   1 
  -4  -2  10 0.46277 0.81075   1 
   3   2   9 4.37234 3.64651  -2 
  -3  -2  10 4.37234 3.64651   1 
   2   2   9 41.2700 1.38537  -2 
  -2  -2  10 41.2700 1.38537   1 
   1   2   9 549.651 20.5893  -2 
  -1  -2  10 549.651 20.5893   1 
   0  -2  10 72.9691 1.63441   1 
  -1   2  10 166.301 2.54496  -2 
   1  -2  10 166.301 2.54496   1 
  -2   2  10 232.092 8.10139  -2 
   2  -2  10 232.092 8.10139   1 
  -3   2  11 8.89383 7.44364  -2 
   3  -2  10 8.89383 7.44364   1 
  -4   2  11 8.08307 1.62360  -2 
   4  -2  10 8.08307 1.62360   1 
  -5   2  11 -6.5383 5.43369  -2 
   5  -2  10 -6.5383 5.43369   1 
   6   1   8 31.3819 2.50189  -2 
  -6  -1  10 31.3819 2.50189   1 
   5   1   8 55.8200 2.44369  -2 
  -5  -1  10 55.8200 2.44369   1 
  -4  -1  10 74.6903 1.74469   1 
   3   1   9 109.989 2.51863  -2 
  -3  -1  10 109.989 2.51863   1 
   2   1   9 857.474 9.06994  -2 
  -2  -1  10 857.474 9.06994   1 
  -1  -1  10 11.6438 0.80234   1 
   0   1  10 149.542 2.28387  -2 
   0  -1  10 149.542 2.28387   1 
  -1   1  10 115.061 2.13063  -2 
   1  -1  10 115.061 2.13063   1 
   2  -1  10 7.25846 0.86652   1 
  -3   1  11 22.9403 2.02675  -2 
   3  -1  10 22.9403 2.02675   1 
  -4   1  11 1.85665 1.77513  -2 
   4  -1  10 1.85665 1.77513   1 
   5  -1  10 2.38999 0.77179   1 
   6   0   8 25.2124 1.70416  -2 
  -6   0  10 25.2124 1.70416   1 
   5   0   8 23.3368 7.31202  -2 
  -5   0  10 23.3368 7.31202   1 
   4   0   9 52.9267 5.04523  -2 
  -4   0  10 52.9267 5.04523   1 
   3   0   9 35.9415 1.26089  -2 
  -3   0  10 35.9415 1.26089   1 
  -2   0  10 172.366 2.64698   1 
  -1   0  10 710.993 6.48185   1 
   0   0  10 87.7172 1.50834  -2 
   0   0  10 87.7172 1.50834   1 
   1   0  10 106.522 1.80051   1 
   2   0  10 158.291 2.72630   1 
  -3   0  11 24.5920 1.46641  -2 
   3   0  10 24.5920 1.46641   1 
  -4   0  11 44.4510 7.19466  -2 
   4   0  10 44.4510 7.19466   1 
   5   0  10 3.45069 0.75597   1 
   6  -1   8 55.4786 2.51641  -2 
  -6   1  10 55.4786 2.51641   1 
  -5   1  10 0.36003 0.98699   1 
   4  -1   9 4.35788 1.53121  -2 
  -4   1  10 4.35788 1.53121   1 
   3  -1   9 101.693 2.40952  -2 
  -3   1  10 101.693 2.40952   1 
  -2   1  10 268.914 3.39790   1 
   1  -1  10 52.7896 1.53445  -2 
  -1   1  10 52.7896 1.53445   1 
   0  -1  10 177.828 2.51781  -2 
   0   1  10 177.828 2.51781   1 
   1   1  10 0.63738 0.70928   1 
  -2  -1  11 25.1222 1.78139  -2 
   2   1  10 25.1222 1.78139   1 
  -3  -1  11 32.2962 2.15215  -2 
   3   1  10 32.2962 2.15215   1 
   4   1  10 1.41375 0.92647   1 
   5   1  10 4.44101 1.45257   1 
   6  -2   8 2.61026 6.10024  -2 
  -6   2  10 2.61026 6.10024   1 
   5  -2   9 13.9148 5.05574  -2 
  -5   2  10 13.9148 5.05574   1 
   4  -2   9 38.1861 1.53357  -2 
  -4   2  10 38.1861 1.53357   1 
  -3   2  10 66.3173 1.75998   1 
  -2   2  10 67.6018 1.52852   1 
   1  -2  10 359.270 3.88564  -2 
  -1   2  10 359.270 3.88564   1 
   0   2  10 55.3131 1.56457   1 
   1   2  10 60.6434 1.68950   1 
  -2  -2  11 78.1639 1.70571  -2 
   2   2  10 78.1639 1.70571   1 
  -3  -2  11 47.1448 7.03001  -2 
   3   2  10 47.1448 7.03001   1 
   4   2  10 24.4914 1.65014   1 
   5  -3   9 22.9286 1.89139  -2 
  -5   3  10 22.9286 1.89139   1 
   4  -3   9 33.8746 2.66362  -2 
  -4   3  10 33.8746 2.66362   1 
  -3   3  10 0.75876 0.77721   1 
   2  -3  10 47.8538 1.91792  -2 
  -2   3  10 47.8538 1.91792   1 
   1  -3  10 137.039 2.50445  -2 
  -1   3  10 137.039 2.50445   1 
   0   3  10 118.064 2.16223   1 
  -1  -3  11 39.4731 1.87665  -2 
   1   3  10 39.4731 1.87665   1 
  -2  -3  11 45.9999 1.77774  -2 
   2   3  10 45.9999 1.77774   1 
   3   3  10 4.50887 0.81699   1 
  -4  -3  12 -0.9650 2.38226  -2 
   4   3  10 -0.9650 2.38226   1 
   5  -4   9 26.2565 2.54532  -2 
  -5   4  10 26.2565 2.54532   1 
   4  -4   9 0.76474 6.67232  -2 
  -4   4  10 0.76474 6.67232   1 
   3  -4  10 171.792 5.59249  -2 
  -3   4  10 171.792 5.59249   1 
   2  -4  10 80.0906 1.92568  -2 
  -2   4  10 80.0906 1.92568   1 
  -1   4  10 11.9375 0.89772   1 
   0  -4  11 154.243 5.96872  -2 
   0   4  10 154.243 5.96872   1 
  -1  -4  11 25.2125 1.60118  -2 
   1   4  10 25.2125 1.60118   1 
  -2  -4  11 18.6657 7.06720  -2 
   2   4  10 18.6657 7.06720   1 
   3   4  10 9.06324 0.85350   1 
  -4   5  10 1.65549 0.84644   1 
   3  -5  10 14.1113 1.67180  -2 
  -3   5  10 14.1113 1.67180   1 
   2  -5  10 48.7511 2.60661  -2 
  -2   5  10 48.7511 2.60661   1 
  -1   5  10 11.0916 1.14990   1 
   0  -5  11 22.9121 1.98602  -2 
   0   5  10 22.9121 1.98602   1 
  -1  -5  11 20.8317 3.05376  -2 
   1   5  10 20.8317 3.05376   1 
   2   5  10 2.97069 0.76191   1 
   3  -6  10 23.8899 2.65142  -2 
  -3   6  10 23.8899 2.65142   1 
   2  -6  10 -1.9902 3.32080  -2 
  -2   6  10 -1.9902 3.32080   1 
   1  -6  11 2.03673 4.00681  -2 
  -1   6  10 2.03673 4.00681   1 
   0  -6  11 14.0967 1.64661  -2 
   0   6  10 14.0967 1.64661   1 
   1   6  10 0.96843 1.18156   1 
  -2  -6  11 0.74558 1.01849   1 
  -1  -6  11 85.1627 2.25552   1 
   0   6  10 15.1453 1.69620  -2 
   0  -6  11 15.1453 1.69620   1 
   1  -6  11 0.37192 1.07293   1 
   2  -6  11 4.76855 1.26523   1 
   3   5   9 20.2323 2.21118  -2 
  -3  -5  11 20.2323 2.21118   1 
  -2  -5  11 32.7689 1.47139   1 
   1   5  10 16.2446 3.45132  -2 
  -1  -5  11 16.2446 3.45132   1 
   0   5  10 49.4904 2.38416  -2 
   0  -5  11 49.4904 2.38416   1 
   1  -5  11 20.1027 1.32833   1 
  -2   5  11 51.9705 3.08674  -2 
   2  -5  11 51.9705 3.08674   1 
  -3   5  11 0.37190 2.08643  -2 
   3  -5  11 0.37190 2.08643   1 
   4   4   9 1.61400 1.76125  -2 
  -4  -4  11 1.61400 1.76125   1 
   3   4   9 8.39416 8.58938  -2 
  -3  -4  11 8.39416 8.58938   1 
   2   4  10 52.4195 9.14555  -2 
  -2  -4  11 52.4195 9.14555   1 
   1   4  10 56.8276 1.75362  -2 
  -1  -4  11 56.8276 1.75362   1 
   0   4  10 114.382 8.83408  -2 
   0  -4  11 114.382 8.83408   1 
  -1   4  11 42.7126 7.56219  -2 
   1  -4  11 42.7126 7.56219   1 
  -2   4  11 8.36127 1.94547  -2 
   2  -4  11 8.36127 1.94547   1 
  -3   4  11 24.5460 6.58286  -2 
   3  -4  11 24.5460 6.58286   1 
  -5  -3  11 7.19644 1.46306   1 
   4   3   9 41.4144 2.80761  -2 
  -4  -3  11 41.4144 2.80761   1 
  -3  -3  11 44.0606 1.60778   1 
   2   3  10 109.178 2.96463  -2 
  -2  -3  11 109.178 2.96463   1 
   1   3  10 62.8105 1.88766  -2 
  -1  -3  11 62.8105 1.88766   1 
   0  -3  11 93.4929 2.03327   1 
  -1   3  11 127.696 3.98420  -2 
   1  -3  11 127.696 3.98420   1 
  -2   3  11 73.7396 2.96769  -2 
   2  -3  11 73.7396 2.96769   1 
   3  -3  11 -0.2957 0.92455   1 
  -4   3  12 5.59240 3.18406  -2 
   4  -3  11 5.59240 3.18406   1 
   5   2   9 109.285 2.19784  -2 
  -5  -2  11 109.285 2.19784   1 
  -4  -2  11 4.29062 0.92995   1 
  -3  -2  11 0.69635 0.95760   1 
   2   2  10 51.9686 1.68363  -2 
  -2  -2  11 51.9686 1.68363   1 
   1   2  10 153.420 8.77604  -2 
  -1  -2  11 153.420 8.77604   1 
   0   2  11 148.019 6.51005  -2 
   0  -2  11 148.019 6.51005   1 
  -1   2  11 108.832 2.39069  -2 
   1  -2  11 108.832 2.39069   1 
  -2   2  11 122.860 6.66907  -2 
   2  -2  11 122.860 6.66907   1 
  -3   2  12 4.35689 4.96566  -2 
   3  -2  11 4.35689 4.96566   1 
  -4   2  12 8.78359 1.32072  -2 
   4  -2  11 8.78359 1.32072   1 
   5   1   9 11.2489 2.53068  -2 
  -5  -1  11 11.2489 2.53068   1 
  -4  -1  11 9.36164 0.98323   1 
   3   1  10 16.9253 1.57086  -2 
  -3  -1  11 16.9253 1.57086   1 
   2   1  10 50.5389 1.97761  -2 
  -2  -1  11 50.5389 1.97761   1 
  -1  -1  11 152.702 2.60093   1 
   0   1  11 43.0626 1.82885  -2 
   0  -1  11 43.0626 1.82885   1 
  -1   1  11 294.429 4.22284  -2 
   1  -1  11 294.429 4.22284   1 
   2  -1  11 84.2577 2.10843   1 
  -3   1  12 5.05163 2.50700  -2 
   3  -1  11 5.05163 2.50700   1 
  -4   1  12 7.74689 1.51040  -2 
   4  -1  11 7.74689 1.51040   1 
   5   0   9 15.7330 6.03190  -2 
  -5   0  11 15.7330 6.03190   1 
  -4   0  11 8.70438 1.13572   1 
   3   0  10 38.7401 1.48757  -2 
  -3   0  11 38.7401 1.48757   1 
  -2   0  11 159.300 2.45069   1 
   1   0  11 29.1000 5.73240  -2 
  -1   0  11 29.1000 5.73240   1 
   0   0  11 65.3195 1.59458  -2 
   0   0  11 65.3195 1.59458   1 
  -1   0  11 48.1484 4.81985  -2 
   1   0  11 48.1484 4.81985   1 
   2   0  11 4.48636 0.87895   1 
  -3   0  12 6.54925 1.46451  -2 
   3   0  11 6.54925 1.46451   1 
  -4   0  12 12.1033 5.81169  -2 
   4   0  11 12.1033 5.81169   1 
  -5   1  11 6.33134 1.05791   1 
   4  -1  10 1.72170 2.03787  -2 
  -4   1  11 1.72170 2.03787   1 
   3  -1  10 45.0672 2.13299  -2 
  -3   1  11 45.0672 2.13299   1 
  -2   1  11 108.676 2.09166   1 
   1  -1  11 352.510 4.50278  -2 
  -1   1  11 352.510 4.50278   1 
   0  -1  11 46.1485 1.84314  -2 
   0   1  11 46.1485 1.84314   1 
   1   1  11 42.0269 1.53399   1 
  -2  -1  12 105.738 3.46180  -2 
   2   1  11 105.738 3.46180   1 
  -3  -1  12 1.08087 2.08121  -2 
   3   1  11 1.08087 2.08121   1 
   4   1  11 5.65064 0.82013   1 
   5  -2  10 4.18884 7.08856  -2 
  -5   2  11 4.18884 7.08856   1 
   4  -2  10 6.86126 1.67724  -2 
  -4   2  11 6.86126 1.67724   1 
  -3   2  11 5.94547 0.90232   1 
   2  -2  11 186.108 7.80807  -2 
  -2   2  11 186.108 7.80807   1 
   1  -2  11 85.0182 1.84838  -2 
  -1   2  11 85.0182 1.84838   1 
   0  -2  11 350.376 15.3669  -2 
   0   2  11 350.376 15.3669   1 
  -1  -2  12 48.9991 7.63546  -2 
   1   2  11 48.9991 7.63546   1 
  -2  -2  12 71.8825 2.07481  -2 
   2   2  11 71.8825 2.07481   1 
  -3  -2  12 3.60002 5.42179  -2 
   3   2  11 3.60002 5.42179   1 
   4   2  11 9.30136 1.09485   1 
   5  -3  10 33.7983 2.81317  -2 
  -5   3  11 33.7983 2.81317   1 
   4  -3  10 38.3674 2.46115  -2 
  -4   3  11 38.3674 2.46115   1 
  -3   3  11 42.5747 1.76686   1 
   2  -3  11 33.4036 2.90522  -2 
  -2   3  11 33.4036 2.90522   1 
   1  -3  11 251.585 3.91321  -2 
  -1   3  11 251.585 3.91321   1 
   0   3  11 10.0136 0.94905   1 
  -1  -3  12 24.5148 2.36659  -2 
   1   3  11 24.5148 2.36659   1 
  -2  -3  12 55.4518 2.49329  -2 
   2   3  11 55.4518 2.49329   1 
   3   3  11 1.22430 0.91890   1 
   4  -4  10 29.1377 5.09827  -2 
  -4   4  11 29.1377 5.09827   1 
   3  -4  11 14.8502 4.07809  -2 
  -3   4  11 14.8502 4.07809   1 
   2  -4  11 7.33688 1.76803  -2 
  -2   4  11 7.33688 1.76803   1 
   1  -4  11 14.3278 7.43924  -2 
  -1   4  11 14.3278 7.43924   1 
   0  -4  12 117.277 10.2797  -2 
   0   4  11 117.277 10.2797   1 
  -1  -4  12 62.3744 2.59731  -2 
   1   4  11 62.3744 2.59731   1 
   2   4  11 34.0605 1.65258   1 
   3  -5  11 -0.4269 2.03783  -2 
  -3   5  11 -0.4269 2.03783   1 
   2  -5  11 23.2055 2.39932  -2 
  -2   5  11 23.2055 2.39932   1 
  -1   5  11 9.65938 0.93042   1 
   0  -5  12 28.3361 1.92584  -2 
   0   5  11 28.3361 1.92584   1 
  -1  -5  12 8.58396 2.56676  -2 
   1   5  11 8.58396 2.56676   1 
  -2  -5  12 3.22774 1.40327   1 
   1   5  11 15.3692 2.80496  -2 
  -1  -5  12 15.3692 2.80496   1 
   0   5  11 56.9724 2.37258  -2 
   0  -5  12 56.9724 2.37258   1 
   1  -5  12 0.49199 0.87793   1 
   2  -5  12 1.96301 1.47770   1 
  -3  -4  12 18.0160 1.14021   1 
  -2  -4  12 9.74858 1.09839   1 
   1   4  11 41.4708 2.16085  -2 
  -1  -4  12 41.4708 2.16085   1 
   0   4  11 82.3766 7.54051  -2 
   0  -4  12 82.3766 7.54051   1 
   1  -4  12 6.69085 1.20929   1 
  -2   4  12 73.3378 2.45409  -2 
   2  -4  12 73.3378 2.45409   1 
   4   3  10 6.35516 3.58915  -2 
  -4  -3  12 6.35516 3.58915   1 
  -3  -3  12 13.4341 1.02540   1 
   2   3  11 24.7778 2.15959  -2 
  -2  -3  12 24.7778 2.15959   1 
   1   3  11 43.0278 2.37275  -2 
  -1  -3  12 43.0278 2.37275   1 
   0  -3  12 2.38402 1.16898   1 
  -1   3  12 53.4245 3.35994  -2 
   1  -3  12 53.4245 3.35994   1 
  -2   3  12 32.4190 2.46512  -2 
   2  -3  12 32.4190 2.46512   1 
   3  -3  12 4.64267 1.12187   1 
  -4  -2  12 28.1556 1.29635   1 
  -3  -2  12 2.91877 1.07699   1 
   2   2  11 138.647 2.80259  -2 
  -2  -2  12 138.647 2.80259   1 
   1   2  11 64.4465 8.41019  -2 
  -1  -2  12 64.4465 8.41019   1 
   0  -2  12 24.1773 1.45091   1 
  -1   2  12 10.8910 1.69600  -2 
   1  -2  12 10.8910 1.69600   1 
  -2   2  12 19.5396 5.37663  -2 
   2  -2  12 19.5396 5.37663   1 
   3  -2  12 12.3472 1.63015   1 
  -4  -1  12 1.64813 0.84829   1 
   3   1  11 -1.3212 1.85630  -2 
  -3  -1  12 -1.3212 1.85630   1 
   2   1  11 46.3113 2.47772  -2 
  -2  -1  12 46.3113 2.47772   1 
  -1  -1  12 1.40622 0.97887   1 
   0   1  12 8.67715 2.22038  -2 
   0  -1  12 8.67715 2.22038   1 
  -1   1  12 26.0263 2.18486  -2 
   1  -1  12 26.0263 2.18486   1 
   2  -1  12 3.90660 1.07031   1 
  -3   1  13 14.3448 2.14420  -2 
   3  -1  12 14.3448 2.14420   1 
  -5   0  12 34.1579 1.86641   1 
  -4   0  12 32.7964 1.60500   1 
   3   0  11 6.01073 1.82790  -2 
  -3   0  12 6.01073 1.82790   1 
   2   0  11 21.7469 7.89768  -2 
  -2   0  12 21.7469 7.89768   1 
  -1   0  12 116.368 2.54686   1 
   0   0  12 -0.1394 0.90399  -2 
   0   0  12 -0.1394 0.90399   1 
  -1   0  12 78.5217 8.08467  -2 
   1   0  12 78.5217 8.08467   1 
  -2   0  13 4.31886 7.07319  -2 
   2   0  12 4.31886 7.07319   1 
  -3   0  13 44.1955 1.85988  -2 
   3   0  12 44.1955 1.85988   1 
  -5   1  12 26.6712 2.83146   1 
   4  -1  11 9.42119 1.76407  -2 
  -4   1  12 9.42119 1.76407   1 
   3  -1  11 10.3393 2.33403  -2 
  -3   1  12 10.3393 2.33403   1 
  -2   1  12 82.9155 2.21170   1 
   1  -1  12 56.4245 2.55857  -2 
  -1   1  12 56.4245 2.55857   1 
   0  -1  12 10.4275 1.95460  -2 
   0   1  12 10.4275 1.95460   1 
   1   1  12 1.70348 1.22288   1 
  -2  -1  13 26.6894 2.65977  -2 
   2   1  12 26.6894 2.65977   1 
  -3  -1  13 11.5271 2.19918  -2 
   3   1  12 11.5271 2.19918   1 
   4  -2  11 8.39726 1.58880  -2 
  -4   2  12 8.39726 1.58880   1 
   3  -2  11 19.0004 7.41697  -2 
  -3   2  12 19.0004 7.41697   1 
   2  -2  12 18.1681 6.50140  -2 
  -2   2  12 18.1681 6.50140   1 
   1  -2  12 28.0194 1.92202  -2 
  -1   2  12 28.0194 1.92202   1 
   0  -2  12 156.716 10.2071  -2 
   0   2  12 156.716 10.2071   1 
  -1  -2  13 14.3104 6.74561  -2 
   1   2  12 14.3104 6.74561   1 
  -2  -2  13 1.61839 1.24824  -2 
   2   2  12 1.61839 1.24824   1 
   3   2  12 87.2177 2.88455   1 
   4  -3  11 23.3012 2.80483  -2 
  -4   3  12 23.3012 2.80483   1 
  -3   3  12 6.66131 1.33343   1 
   2  -3  12 50.5160 2.81533  -2 
  -2   3  12 50.5160 2.81533   1 
   1  -3  12 82.5710 2.94717  -2 
  -1   3  12 82.5710 2.94717   1 
   0   3  12 113.785 2.59394   1 
  -1  -3  13 3.64489 2.12716  -2 
   1   3  12 3.64489 2.12716   1 
  -2  -3  13 4.27306 1.68926  -2 
   2   3  12 4.27306 1.68926   1 
  -3   4  12 12.2422 1.61596   1 
   2  -4  12 35.4679 2.06186  -2 
  -2   4  12 35.4679 2.06186   1 
  -1   4  12 72.1332 2.31644   1 
   0  -4  13 54.1412 5.66261  -2 
   0   4  12 54.1412 5.66261   1 
  -1  -4  13 97.4499 3.27396  -2 
   1   4  12 97.4499 3.27396   1 
  -2  -4  13 -1.5144 1.14810   1 
   1   4  12 143.942 3.93394  -2 
  -1  -4  13 143.942 3.93394   1 
   0  -4  13 9.26430 1.00673   1 
   1  -4  13 8.62661 1.02956   1 
  -3  -3  13 -1.4390 1.12628   1 
   2   3  12 3.83788 2.93895  -2 
  -2  -3  13 3.83788 2.93895   1 
   1   3  12 3.32706 2.26693  -2 
  -1  -3  13 3.32706 2.26693   1 
   0  -3  13 7.05296 0.99781   1 
  -1   3  13 16.7631 2.39207  -2 
   1  -3  13 16.7631 2.39207   1 
  -2   3  13 16.5423 2.99247  -2 
   2  -3  13 16.5423 2.99247   1 
  -3  -2  13 3.50239 0.94476   1 
   2   2  12 3.20702 1.19948  -2 
  -2  -2  13 3.20702 1.19948   1 
   1   2  12 31.0111 7.09024  -2 
  -1  -2  13 31.0111 7.09024   1 
   0  -2  13 7.23915 1.01935   1 
  -1   2  13 3.06597 1.44510  -2 
   1  -2  13 3.06597 1.44510   1 
  -2   2  13 7.32991 4.09426  -2 
   2  -2  13 7.32991 4.09426   1 
  -4  -1  13 2.31418 1.20030   1 
   3   1  12 14.2831 1.58956  -2 
  -3  -1  13 14.2831 1.58956   1 
   2   1  12 16.8748 2.26195  -2 
  -2  -1  13 16.8748 2.26195   1 
  -1  -1  13 2.08549 1.03619   1 
   0   1  13 4.76689 1.99576  -2 
   0  -1  13 4.76689 1.99576   1 
  -1   1  13 28.4547 2.60961  -2 
   1  -1  13 28.4547 2.60961   1 
   2  -1  13 8.00073 1.03564   1 
  -4   0  13 -1.4453 1.01628   1 
   3   0  12 46.4820 1.68316  -2 
  -3   0  13 46.4820 1.68316   1 
   2   0  12 10.8996 7.17761  -2 
  -2   0  13 10.8996 7.17761   1 
   1   0  13 -0.1371 7.81137  -2 
  -1   0  13 -0.1371 7.81137   1 
   0   0  13 5.45191 1.57176  -2 
   0   0  13 5.45191 1.57176   1 
  -1   0  13 24.5806 5.17586  -2 
   1   0  13 24.5806 5.17586   1 
   2   0  13 1.31873 0.91993   1 
   3  -1  12 7.78843 2.15684  -2 
  -3   1  13 7.78843 2.15684   1 
  -2   1  13 -0.2175 1.07263   1 
   1  -1  13 19.3946 2.68681  -2 
  -1   1  13 19.3946 2.68681   1 
   0  -1  13 13.0503 2.66640  -2 
   0   1  13 13.0503 2.66640   1 
   1   1  13 24.3658 1.56051   1 
  -2  -1  14 22.8745 3.14023  -2 
   2   1  13 22.8745 3.14023   1 
  -3   2  13 -0.5364 0.94297   1 
   2  -2  13 11.5417 6.07305  -2 
  -2   2  13 11.5417 6.07305   1 
   1  -2  13 1.53283 1.73812  -2 
  -1   2  13 1.53283 1.73812   1 
   0   2  13 0.79703 0.86009   1 
   1   2  13 1.74177 0.95599   1 
   2  -3  13 44.7327 3.48862  -2 
  -2   3  13 44.7327 3.48862   1 
   1  -3  13 30.5396 3.13661  -2 
  -1   3  13 30.5396 3.13661   1 
   0   3  13 2.37535 0.89378   1 
  -1  -2  14 0.90304 0.88388   1 
   0  -2  14 -0.9330 1.01052   1 
   2   1  13 14.8513 3.89842  -2 
  -2  -1  14 14.8513 3.89842   1 
  -1  -1  14 14.3886 1.19224   1 
   0   1  14 44.5036 6.06598  -2 
   0  -1  14 44.5036 6.06598   1 
  -2   0  14 6.37416 1.22051   1 
  -1   0  14 -0.3814 0.99490   1 
   0   0  14 5.70708 1.68688  -2 
   0   0  14 5.70708 1.68688   1 
   1   0  14 41.5446 2.95669   1 
  -2   1  14 1.84451 1.19765   1 
  -1   1  14 3.75676 1.68804   1 
   0  -1  14 37.1627 3.23848  -2 
   0   1  14 37.1627 3.23848   1 
   0   0   0    0.00    0.00   0 
;
_shelx_hkl_checksum              37573
loop_
_space_group_symop_operation_xyz
'x, y, z'
'-x, -y, -z'
loop_
_atom_site_label
_atom_site_type_symbol
_atom_site_fract_x
_atom_site_fract_y
_atom_site_fract_z
_atom_site_U_iso_or_equiv
_atom_site_adp_type
_atom_site_occupancy
_atom_site_site_symmetry_order
_atom_site_calc_flag
_atom_site_refinement_flags_posn
_atom_site_refinement_flags_adp
O1 O 0.72948(18) 0.2227(2) 0.27715(11) 0.0519(5) Uani 1 1 d . .
N1 N 0.4108(2) 0.15504(19) 0.20693(11) 0.0254(3) Uani 1 1 d . .
N2 N 0.1437(3) 0.5783(2) 0.27262(13) 0.0373(4) Uani 1 1 d . .
C1 C 0.5574(3) 0.1982(3) 0.29074(15) 0.0351(5) Uani 1 1 d . .
C2 C 0.4603(3) 0.2121(3) 0.39441(14) 0.0344(5) Uani 1 1 d . .
C3 C 0.5435(3) 0.2486(3) 0.50276(17) 0.0511(6) Uani 1 1 d . .
H3A H 0.6806 0.2640 0.5194 0.061 Uiso 1 1 calc R U
C4 C 0.4195(3) 0.2618(4) 0.58526(16) 0.0547(7) Uani 1 1 d . .
H4A H 0.4720 0.2846 0.6603 0.066 Uiso 1 1 calc R U
C5 C 0.2189(3) 0.2421(3) 0.56031(16) 0.0453(6) Uani 1 1 d . .
H5A H 0.1366 0.2532 0.6185 0.054 Uiso 1 1 calc R U
C6 C 0.1371(3) 0.2064(3) 0.45190(14) 0.0341(4) Uani 1 1 d . .
H6A H 0.0000 0.1918 0.4350 0.041 Uiso 1 1 calc R U
C7 C 0.2614(3) 0.1927(2) 0.36918(14) 0.0266(4) Uani 1 1 d . .
C8 C 0.2134(2) 0.1523(2) 0.24590(13) 0.0231(4) Uani 1 1 d . .
C9 C 0.1147(2) 0.2818(2) 0.17400(13) 0.0233(4) Uani 1 1 d . .
H9A H -0.0248 0.2427 0.1518 0.028 Uiso 1 1 calc R U
C10 C 0.2300(2) 0.2813(2) 0.07248(13) 0.0240(4) Uani 1 1 d . .
C11 C 0.4057(2) 0.2125(2) 0.09797(13) 0.0234(4) Uani 1 1 d . .
C12 C 0.5437(3) 0.2060(2) 0.02280(14) 0.0294(4) Uani 1 1 d . .
H12A H 0.6627 0.1585 0.0404 0.035 Uiso 1 1 calc R U
C13 C 0.5012(3) 0.2720(2) -0.08000(14) 0.0343(4) Uani 1 1 d . .
H13A H 0.5946 0.2719 -0.1329 0.041 Uiso 1 1 calc R U
C14 C 0.3269(3) 0.3376(2) -0.10678(15) 0.0377(5) Uani 1 1 d . .
H14A H 0.3010 0.3797 -0.1781 0.045 Uiso 1 1 calc R U
C15 C 0.1890(3) 0.3426(2) -0.03071(14) 0.0332(4) Uani 1 1 d . .
H15A H 0.0687 0.3875 -0.0492 0.040 Uiso 1 1 calc R U
C16 C 0.1021(3) -0.0169(2) 0.21941(17) 0.0366(5) Uani 1 1 d . .
H16A H -0.0277 -0.0158 0.2453 0.055 Uiso 1 1 calc R U
H16B H 0.1722 -0.1019 0.2569 0.055 Uiso 1 1 calc R U
H16C H 0.0901 -0.0424 0.1388 0.055 Uiso 1 1 calc R U
C17 C 0.1304(2) 0.4485(2) 0.23069(13) 0.0250(4) Uani 1 1 d . .
loop_
_atom_site_aniso_label
_atom_site_aniso_U_11
_atom_site_aniso_U_22
_atom_site_aniso_U_33
_atom_site_aniso_U_23
_atom_site_aniso_U_13
_atom_site_aniso_U_12
O1 0.0183(7) 0.1049(14) 0.0341(7) 0.0042(8) 0.0069(6) 0.0103(7)
N1 0.0208(7) 0.0331(8) 0.0245(7) 0.0044(6) 0.0086(6) 0.0072(6)
N2 0.0529(11) 0.0270(9) 0.0344(9) 0.0020(7) 0.0107(8) 0.0107(7)
C1 0.0227(9) 0.0539(13) 0.0312(10) 0.0069(9) 0.0063(8) 0.0112(9)
C2 0.0269(10) 0.0533(13) 0.0262(9) 0.0086(8) 0.0079(7) 0.0125(9)
C3 0.0286(10) 0.099(2) 0.0282(10) 0.0084(11) 0.0037(8) 0.0178(11)
C4 0.0390(12) 0.107(2) 0.0204(10) 0.0054(11) 0.0043(9) 0.0155(13)
C5 0.0369(12) 0.0736(16) 0.0303(10) 0.0102(10) 0.0172(8) 0.0139(11)
C6 0.0258(9) 0.0478(12) 0.0319(10) 0.0099(8) 0.0107(7) 0.0089(9)
C7 0.0253(9) 0.0298(10) 0.0273(9) 0.0099(7) 0.0093(7) 0.0065(8)
C8 0.0178(8) 0.0229(9) 0.0304(9) 0.0035(7) 0.0097(7) 0.0030(7)
C9 0.0198(8) 0.0250(9) 0.0254(9) -0.0004(7) 0.0036(7) 0.0026(7)
C10 0.0248(9) 0.0243(9) 0.0230(8) -0.0034(7) 0.0067(7) 0.0010(7)
C11 0.0258(9) 0.0225(9) 0.0219(8) -0.0002(6) 0.0072(7) -0.0016(7)
C12 0.0247(9) 0.0361(10) 0.0275(9) -0.0058(8) 0.0093(7) 0.0009(8)
C13 0.0410(11) 0.0392(11) 0.0236(9) -0.0028(8) 0.0152(8) -0.0017(9)
C14 0.0560(13) 0.0362(11) 0.0231(9) 0.0006(8) 0.0101(9) 0.0097(10)
C15 0.0406(11) 0.0361(11) 0.0237(9) -0.0026(8) 0.0026(8) 0.0110(9)
C16 0.0364(11) 0.0248(10) 0.0500(11) 0.0018(8) 0.0173(9) -0.0032(8)
C17 0.0267(9) 0.0280(10) 0.0225(8) 0.0054(7) 0.0069(7) 0.0088(7)
loop_
_atom_type_symbol
_atom_type_description
_atom_type_scat_dispersion_real
_atom_type_scat_dispersion_imag
_atom_type_scat_source
C C 0.0181 0.0091 'International Tables Vol C Tables 4.2.6.8 and 6.1.1.4'
H H 0.0000 0.0000 'International Tables Vol C Tables 4.2.6.8 and 6.1.1.4'
N N 0.0311 0.0180 'International Tables Vol C Tables 4.2.6.8 and 6.1.1.4'
O O 0.0492 0.0322 'International Tables Vol C Tables 4.2.6.8 and 6.1.1.4'
loop_
_geom_angle_atom_site_label_1
_geom_angle_atom_site_label_2
_geom_angle_atom_site_label_3
_geom_angle
C1 N1 C11 125.13(15)
C1 N1 C8 113.13(13)
C11 N1 C8 109.48(13)
O1 C1 N1 124.90(16)
O1 C1 C2 129.29(18)
N1 C1 C2 105.78(15)
C7 C2 C3 121.66(16)
C7 C2 C1 109.49(16)
C3 C2 C1 128.74(17)
C4 C3 C2 117.51(19)
C4 C3 H3A 121.2
C2 C3 H3A 121.2
C3 C4 C5 121.04(19)
C3 C4 H4A 119.5
C5 C4 H4A 119.5
C6 C5 C4 121.08(17)
C6 C5 H5A 119.5
C4 C5 H5A 119.5
C7 C6 C5 117.90(18)
C7 C6 H6A 121.1
C5 C6 H6A 121.1
C2 C7 C6 120.79(16)
C2 C7 C8 109.98(14)
C6 C7 C8 129.21(16)
N1 C8 C7 101.33(13)
N1 C8 C16 110.82(13)
C7 C8 C16 113.16(14)
N1 C8 C9 102.99(12)
C7 C8 C9 118.94(13)
C16 C8 C9 108.72(14)
C17 C9 C10 111.03(14)
C17 C9 C8 112.61(13)
C10 C9 C8 102.06(12)
C17 C9 H9A 110.3
C10 C9 H9A 110.3
C8 C9 H9A 110.3
C15 C10 C11 120.15(15)
C15 C10 C9 130.17(16)
C11 C10 C9 109.60(14)
C12 C11 C10 121.71(16)
C12 C11 N1 128.97(16)
C10 C11 N1 109.32(14)
C11 C12 C13 117.18(16)
C11 C12 H12A 121.4
C13 C12 H12A 121.4
C14 C13 C12 121.61(16)
C14 C13 H13A 119.2
C12 C13 H13A 119.2
C13 C14 C15 120.64(17)
C13 C14 H14A 119.7
C15 C14 H14A 119.7
C10 C15 C14 118.68(17)
C10 C15 H15A 120.7
C14 C15 H15A 120.7
C8 C16 H16A 109.5
C8 C16 H16B 109.5
H16A C16 H16B 109.5
C8 C16 H16C 109.5
H16A C16 H16C 109.5
H16B C16 H16C 109.5
N2 C17 C9 178.68(18)
loop_
_geom_bond_atom_site_label_1
_geom_bond_atom_site_label_2
_geom_bond_distance
O1 C1 1.220(2)
N1 C1 1.379(2)
N1 C11 1.417(2)
N1 C8 1.4856(19)
N2 C17 1.135(2)
C1 C2 1.479(2)
C2 C7 1.380(3)
C2 C3 1.390(3)
C3 C4 1.380(3)
C3 H3A 0.9500
C4 C5 1.390(3)
C4 H4A 0.9500
C5 C6 1.387(3)
C5 H5A 0.9500
C6 C7 1.383(2)
C6 H6A 0.9500
C7 C8 1.511(2)
C8 C16 1.518(2)
C8 C9 1.556(2)
C9 C17 1.472(2)
C9 C10 1.524(2)
C9 H9A 1.0000
C10 C15 1.380(2)
C10 C11 1.397(2)
C11 C12 1.379(2)
C12 C13 1.394(3)
C12 H12A 0.9500
C13 C14 1.378(3)
C13 H13A 0.9500
C14 C15 1.386(3)
C14 H14A 0.9500
C15 H15A 0.9500
C16 H16A 0.9800
C16 H16B 0.9800
C16 H16C 0.9800
loop_
_geom_torsion_atom_site_label_1
_geom_torsion_atom_site_label_2
_geom_torsion_atom_site_label_3
_geom_torsion_atom_site_label_4
_geom_torsion
C11 N1 C1 O1 -35.3(3)
C8 N1 C1 O1 -173.33(19)
C11 N1 C1 C2 143.07(17)
C8 N1 C1 C2 5.0(2)
O1 C1 C2 C7 172.7(2)
N1 C1 C2 C7 -5.5(2)
O1 C1 C2 C3 -3.5(4)
N1 C1 C2 C3 178.3(2)
C7 C2 C3 C4 1.3(3)
C1 C2 C3 C4 177.1(2)
C2 C3 C4 C5 -1.2(4)
C3 C4 C5 C6 0.9(4)
C4 C5 C6 C7 -0.6(3)
C3 C2 C7 C6 -1.1(3)
C1 C2 C7 C6 -177.67(17)
C3 C2 C7 C8 -179.49(19)
C1 C2 C7 C8 3.9(2)
C5 C6 C7 C2 0.7(3)
C5 C6 C7 C8 178.79(19)
C1 N1 C8 C7 -2.67(18)
C11 N1 C8 C7 -147.25(14)
C1 N1 C8 C16 -123.01(17)
C11 N1 C8 C16 92.41(17)
C1 N1 C8 C9 120.88(15)
C11 N1 C8 C9 -23.70(17)
C2 C7 C8 N1 -0.95(18)
C6 C7 C8 N1 -179.16(18)
C2 C7 C8 C16 117.73(17)
C6 C7 C8 C16 -60.5(2)
C2 C7 C8 C9 -112.83(17)
C6 C7 C8 C9 69.0(2)
N1 C8 C9 C17 -94.65(15)
C7 C8 C9 C17 16.3(2)
C16 C8 C9 C17 147.76(14)
N1 C8 C9 C10 24.46(15)
C7 C8 C9 C10 135.43(15)
C16 C8 C9 C10 -93.13(15)
C17 C9 C10 C15 -74.9(2)
C8 C9 C10 C15 164.86(18)
C17 C9 C10 C11 101.82(16)
C8 C9 C10 C11 -18.40(17)
C15 C10 C11 C12 1.0(3)
C9 C10 C11 C12 -176.08(16)
C15 C10 C11 N1 -178.52(16)
C9 C10 C11 N1 4.36(19)
C1 N1 C11 C12 53.9(3)
C8 N1 C11 C12 -166.74(17)
C1 N1 C11 C10 -126.55(17)
C8 N1 C11 C10 12.78(18)
C10 C11 C12 C13 0.4(3)
N1 C11 C12 C13 179.85(17)
C11 C12 C13 C14 -1.5(3)
C12 C13 C14 C15 1.2(3)
C11 C10 C15 C14 -1.3(3)
C9 C10 C15 C14 175.12(18)
C13 C14 C15 C10 0.2(3)
