#------------------------------------------------------------------------------
#$Date: 2019-11-24 19:34:56 +0200 (Sun, 24 Nov 2019) $
#$Revision: 239183 $
#$URL: file:///home/coder/svn-repositories/cod/cif/1/55/58/1555856.cif $
#------------------------------------------------------------------------------
#
# This file is available in the Crystallography Open Database (COD),
# http://www.crystallography.net/
#
# All data on this site have been placed in the public domain by the
# contributors.
#
data_1555856
loop_
_publ_author_name
'Stephens, David E.'
'Nguyen, Vu T.'
'Chhetri, Bhuwan'
'Clark, Emily R.'
'Arman, Hadi D.'
'Larionov, Oleg V.'
_publ_section_title
;
 Organocatalytic Synthesis of Methylene-Bridged N-Heterobiaryls.
;
_journal_issue                   22
_journal_name_full               'Organic letters'
_journal_page_first              5808
_journal_page_last               5811
_journal_paper_doi               10.1021/acs.orglett.6b02719
_journal_volume                  18
_journal_year                    2016
_chemical_formula_moiety         'C21 H16 N2 O'
_chemical_formula_sum            'C21 H16 N2 O'
_chemical_formula_weight         312.36
_space_group_crystal_system      triclinic
_space_group_IT_number           2
_space_group_name_Hall           '-P 1'
_space_group_name_H-M_alt        'P -1'
_atom_sites_solution_hydrogens   difmap
_atom_sites_solution_primary     direct
_audit_creation_date             2016-05-04
_audit_creation_method
;
Olex2 1.2
(compiled 2016.02.19 svn.r3266 for OlexSys, GUI svn.r5155)
;
_cell_angle_alpha                91.619(4)
_cell_angle_beta                 101.145(4)
_cell_angle_gamma                98.005(3)
_cell_formula_units_Z            2
_cell_length_a                   7.5003(3)
_cell_length_b                   8.4300(2)
_cell_length_c                   12.7367(7)
_cell_measurement_reflns_used    4643
_cell_measurement_temperature    98(2)
_cell_measurement_theta_max      40.1250
_cell_measurement_theta_min      1.6500
_cell_volume                     781.16(6)
_computing_molecular_graphics    'Olex2 (Dolomanov et al., 2009)'
_computing_publication_material  'Olex2 (Dolomanov et al., 2009)'
_computing_structure_refinement  'ShelXL (Sheldrick, 2015)'
_computing_structure_solution    'ShelXT (Sheldrick, 2015)'
_diffrn_ambient_temperature      98.0
_diffrn_detector_area_resol_mean 28.5714
_diffrn_measured_fraction_theta_full 0.999
_diffrn_measured_fraction_theta_max 0.999
_diffrn_measurement_device_type  'Rigaku Saturn724 (2x2 bin mode)'
_diffrn_measurement_method       'profile data from \w-scans'
_diffrn_radiation_type           MoK\a
_diffrn_radiation_wavelength     0.71073
_diffrn_reflns_av_unetI/netI     0.0214
_diffrn_reflns_Laue_measured_fraction_full 0.999
_diffrn_reflns_Laue_measured_fraction_max 0.999
_diffrn_reflns_limit_h_max       9
_diffrn_reflns_limit_h_min       -9
_diffrn_reflns_limit_k_max       10
_diffrn_reflns_limit_k_min       -10
_diffrn_reflns_limit_l_max       16
_diffrn_reflns_limit_l_min       -16
_diffrn_reflns_number            5227
_diffrn_reflns_point_group_measured_fraction_full 0.999
_diffrn_reflns_point_group_measured_fraction_max 0.999
_diffrn_reflns_theta_full        26.000
_diffrn_reflns_theta_max         27.485
_diffrn_reflns_theta_min         2.444
_diffrn_source                   'Sealed Tube'
_exptl_absorpt_coefficient_mu    0.083
_exptl_absorpt_correction_T_max  1.0000
_exptl_absorpt_correction_T_min  0.8276
_exptl_absorpt_correction_type   multi-scan
_exptl_absorpt_process_details   'ABSCOR (Higashi, 1995)'
_exptl_crystal_colour            'clear colourless'
_exptl_crystal_colour_lustre     clear
_exptl_crystal_colour_primary    colourless
_exptl_crystal_density_diffrn    1.328
_exptl_crystal_description       block
_exptl_crystal_F_000             328
_exptl_crystal_size_max          0.2
_exptl_crystal_size_mid          0.17
_exptl_crystal_size_min          0.13
_refine_diff_density_max         0.338
_refine_diff_density_min         -0.211
_refine_diff_density_rms         0.055
_refine_ls_extinction_method     none
_refine_ls_goodness_of_fit_ref   1.027
_refine_ls_hydrogen_treatment    refxyz
_refine_ls_matrix_type           full
_refine_ls_number_parameters     266
_refine_ls_number_reflns         5227
_refine_ls_number_restraints     0
_refine_ls_restrained_S_all      1.027
_refine_ls_R_factor_all          0.0608
_refine_ls_R_factor_gt           0.0514
_refine_ls_shift/su_max          0.000
_refine_ls_shift/su_mean         0.000
_refine_ls_structure_factor_coef Fsqd
_refine_ls_weighting_details
'w=1/[\s^2^(Fo^2^)+(0.0600P)^2^+0.4000P] where P=(Fo^2^+2Fc^2^)/3'
_refine_ls_weighting_scheme      calc
_refine_ls_wR_factor_gt          0.1247
_refine_ls_wR_factor_ref         0.1289
_reflns_Friedel_coverage         0.000
_reflns_number_gt                4430
_reflns_number_total             5227
_reflns_threshold_expression     'I > 2\s(I)'
_iucr_refine_instructions_details
;

    cd1442_twin1_hklf4.res created by SHELXL-2014/7

TITL cd1442_twin1_hklf4_a.res in P-1
REM Old TITL cd1442_twin1_hklf4 in P-1 #2
REM SHELXT solution in P-1
REM R1 0.154, Rweak 0.009, Alpha 0.048, Orientation as input
REM Formula found by SHELXT: C21 N2 O
CELL 0.71073 7.5003 8.43 12.7367 91.619 101.145 98.005
ZERR 2 0.0003 0.0002 0.0007 0.004 0.004 0.003
LATT 1
SFAC C H N O
UNIT 42 32 4 2
 
L.S. 5
PLAN  10
TEMP -175.15
BOND $H
fmap 2
MORE -1
ACTA 52
CONF
SHEL 10 0.77
OMIT 3 -10 -6
OMIT 7 0 2
OMIT 4 1 -10
OMIT -5 -4 4
OMIT -3 4 15
REM <olex2.extras>
REM <HklSrc "%.\\cd1442_twin1_hklf5.hkl">
REM </olex2.extras>
 
WGHT    0.060000    0.400000
BASF   0.35290
FVAR       6.94820
N2    3    0.539833    0.456610    0.800602    11.00000    0.01578    0.02477 =
         0.01770    0.00008    0.00195    0.00589
N1    3    0.156091    0.293480    0.686785    11.00000    0.02177    0.02200 =
         0.01917   -0.00176    0.00121    0.00399
O1    4    0.482114    0.049521    0.744369    11.00000    0.05448    0.03058 =
         0.04375   -0.00780   -0.01776    0.01860
C14   1    0.731296    0.535739    0.978366    11.00000    0.01307    0.02569 =
         0.01732    0.00034    0.00497    0.00408
C19   1    0.641506    0.571959    0.874476    11.00000    0.01191    0.02553 =
         0.01759    0.00040    0.00466    0.00517
C13   1    0.711803    0.372420    1.006919    11.00000    0.01412    0.02816 =
         0.01578    0.00246    0.00420    0.00675
C18   1    0.655220    0.733285    0.845352    11.00000    0.01594    0.02767 =
         0.01863    0.00391    0.00442    0.00535
C12   1    0.609982    0.260311    0.931223    11.00000    0.01748    0.02202 =
         0.02392    0.00343    0.00372    0.00690
C11   1    0.528281    0.307760    0.829604    11.00000    0.01340    0.02324 =
         0.02083   -0.00386    0.00060    0.00546
C3    1    0.273562    0.156339    0.551600    11.00000    0.01774    0.01975 =
         0.02429   -0.00075    0.00422    0.00248
C4    1    0.128767    0.175872    0.472103    11.00000    0.02061    0.01748 =
         0.01953    0.00109    0.00479   -0.00226
C10   1    0.006138    0.309044    0.609730    11.00000    0.01793    0.01928 =
         0.01902   -0.00028    0.00094    0.00068
C2    1    0.281584    0.217317    0.657090    11.00000    0.01904    0.01933 =
         0.02049   -0.00036   -0.00170    0.00120
C15   1    0.832017    0.663894    1.049253    11.00000    0.01514    0.03133 =
         0.01628   -0.00089    0.00112    0.00371
C16   1    0.843015    0.818753    1.018291    11.00000    0.01694    0.02726 =
         0.02558   -0.00627    0.00388   -0.00080
C17   1    0.754391    0.853806    0.915511    11.00000    0.02004    0.02197 =
         0.02894    0.00236    0.00854    0.00249
C9    1   -0.136110    0.381701    0.641007    11.00000    0.02292    0.02606 =
         0.02073   -0.00303    0.00364    0.00406
C21   1    0.801007    0.326671    1.115964    11.00000    0.02072    0.03143 =
         0.01776    0.00388    0.00064    0.00822
C6    1   -0.174024    0.275898    0.426917    11.00000    0.02523    0.02706 =
         0.01750    0.00124   -0.00031    0.00285
C5    1   -0.012970    0.253608    0.501053    11.00000    0.01885    0.01581 =
         0.01726    0.00244    0.00291   -0.00009
C20   1    0.118068    0.116429    0.358794    11.00000    0.02884    0.03182 =
         0.01916    0.00092    0.00687    0.00456
C1    1    0.433591    0.180412    0.744157    11.00000    0.02347    0.02407 =
         0.02578   -0.00201   -0.00106    0.00671
C7    1   -0.308331    0.347222    0.459833    11.00000    0.02130    0.03125 =
         0.02757    0.00173   -0.00443    0.00550
C8    1   -0.290019    0.399241    0.567553    11.00000    0.02094    0.02793 =
         0.03112   -0.00084    0.00332    0.00684
H9    2   -0.120515    0.421419    0.713978    11.00000   -1.20000
H16   2    0.905473    0.905807    1.066826    11.00000   -1.20000
H12   2    0.590331    0.148533    0.946026    11.00000   -1.20000
H18   2    0.589185    0.755390    0.774930    11.00000   -1.20000
H17   2    0.761351    0.963858    0.895269    11.00000   -1.20000
H8    2   -0.383009    0.449575    0.589291    11.00000   -1.20000
H3    2    0.372183    0.098469    0.538400    11.00000   -1.20000
H7    2   -0.413371    0.359314    0.407295    11.00000   -1.20000
H15   2    0.890195    0.643882    1.120798    11.00000   -1.20000
H21A  2    0.764701    0.212104    1.123197    11.00000   -1.50000
H20A  2    0.114426    0.204211    0.312643    11.00000   -1.50000
H20B  2    0.002251    0.038428    0.332356    11.00000   -1.50000
H21B  2    0.769404    0.391878    1.171776    11.00000   -1.50000
H6    2   -0.187642    0.236415    0.354109    11.00000   -1.20000
H21C  2    0.938363    0.344223    1.124381    11.00000   -1.50000
H20C  2    0.221976    0.061742    0.352363    11.00000   -1.50000
HKLF 5
 
REM  cd1442_twin1_hklf4_a.res in P-1
REM R1 =  0.0514 for    4430 Fo > 4sig(Fo)  and  0.0608 for all    5227 data
REM    266 parameters refined using      0 restraints
 
END  
     
WGHT      0.0832      0.2203 

REM Highest difference peak  0.338,  deepest hole -0.211,  1-sigma level  0.055
Q1    1   0.4651  0.2458  0.7924  11.00000  0.05    0.34
Q2    1   0.2467  0.1747  0.6045  11.00000  0.05    0.34
Q3    1   0.6501  0.3199  0.9716  11.00000  0.05    0.33
Q4    1   0.7619  0.3591  1.0566  11.00000  0.05    0.31
Q5    1   0.6900  0.4613  1.0030  11.00000  0.05    0.30
Q6    1   0.7536  0.4271  0.9825  11.00000  0.05    0.30
Q7    1   0.6879  0.5604  0.9272  11.00000  0.05    0.30
Q8    1   0.5906  0.3005  0.8761  11.00000  0.05    0.29
Q9    1   0.3585  0.2018  0.7003  11.00000  0.05    0.29
Q10   1   0.2029  0.1794  0.5141  11.00000  0.05    0.29

  REM The information below was added by Olex2.
  REM
  REM R1 = 0.0514 for 4430 Fo > 4sig(Fo) and 0.0608 for all 11681 data
  REM n/a parameters refined using n/a restraints
  REM Highest difference peak 0.34, deepest hole -0.21
  REM Mean Shift 0, Max Shift 0.000.
  
  REM +++ Tabular Listing of Refinement Information +++
  REM R1_all = 0.0608
  REM R1_gt = 0.0514
  REM wR_ref = 0.1289
  REM GOOF = 1.027
  REM Shift_max = 0.000
  REM Shift_mean = 0
  REM Reflections_all = 11681
  REM Reflections_gt = 4430
  REM Parameters = n/a
  REM Hole = -0.21
  REM Peak = 0.34
  REM Flack = n/a
  
  
;
_cod_data_source_file            ol6b02719_si_002.cif
_cod_data_source_block           cd1442_twin1_hklf4
_cod_database_code               1555856
_shelx_space_group_comment
;
The symmetry employed for this shelxl refinement is uniquely defined
by the following loop, which should always be used as a source of
symmetry information in preference to the above space-group names.
They are only intended as comments.
;
_olex2_refinement_description
;
1. Twinned data refinement
 Scales: 0.6471(12) 0.3529(12)
2. Fixed Uiso
 At 1.2 times of:
  All C(H,H,H,H,H,H,H,H,H,H) groups
 At 1.5 times of:
  All C(H,H,H,H,H,H) groups
;
_shelx_shelxl_version_number     2014/7
_olex2_exptl_crystal_mounting_method 'nylon loop'
_olex2_submission_special_instructions 'No special instructions were received'
loop_
_space_group_symop_operation_xyz
'x, y, z'
'-x, -y, -z'
loop_
_atom_site_label
_atom_site_type_symbol
_atom_site_fract_x
_atom_site_fract_y
_atom_site_fract_z
_atom_site_U_iso_or_equiv
_atom_site_adp_type
_atom_site_occupancy
_atom_site_site_symmetry_order
_atom_site_calc_flag
_atom_site_refinement_flags_posn
N2 N 0.5398(2) 0.4566(2) 0.80060(13) 0.0193(3) Uani 1 1 d .
N1 N 0.1561(2) 0.29348(19) 0.68678(14) 0.0214(4) Uani 1 1 d .
O1 O 0.4821(3) 0.0495(2) 0.74437(15) 0.0457(5) Uani 1 1 d .
C14 C 0.7313(3) 0.5357(2) 0.97837(15) 0.0183(4) Uani 1 1 d .
C19 C 0.6415(2) 0.5720(2) 0.87448(15) 0.0179(4) Uani 1 1 d .
C13 C 0.7118(2) 0.3724(2) 1.00692(15) 0.0188(4) Uani 1 1 d .
C18 C 0.6552(3) 0.7333(2) 0.84535(16) 0.0204(4) Uani 1 1 d .
C12 C 0.6100(3) 0.2603(2) 0.93122(16) 0.0208(4) Uani 1 1 d .
C11 C 0.5283(2) 0.3078(2) 0.82960(16) 0.0194(4) Uani 1 1 d .
C3 C 0.2736(3) 0.1563(2) 0.55160(16) 0.0207(4) Uani 1 1 d .
C4 C 0.1288(3) 0.1759(2) 0.47210(16) 0.0196(4) Uani 1 1 d .
C10 C 0.0061(3) 0.3090(2) 0.60973(16) 0.0193(4) Uani 1 1 d .
C2 C 0.2816(3) 0.2173(2) 0.65709(16) 0.0206(4) Uani 1 1 d .
C15 C 0.8320(3) 0.6639(2) 1.04925(16) 0.0212(4) Uani 1 1 d .
C16 C 0.8430(3) 0.8188(2) 1.01829(17) 0.0239(4) Uani 1 1 d .
C17 C 0.7544(3) 0.8538(2) 0.91551(18) 0.0232(4) Uani 1 1 d .
C9 C -0.1361(3) 0.3817(3) 0.64101(17) 0.0234(4) Uani 1 1 d .
C21 C 0.8010(3) 0.3267(3) 1.11596(17) 0.0233(4) Uani 1 1 d .
C6 C -0.1740(3) 0.2759(3) 0.42692(17) 0.0240(4) Uani 1 1 d .
C5 C -0.0130(3) 0.2536(2) 0.50105(16) 0.0176(4) Uani 1 1 d .
C20 C 0.1181(3) 0.1164(3) 0.35879(17) 0.0263(5) Uani 1 1 d .
C1 C 0.4336(3) 0.1804(2) 0.74416(17) 0.0250(5) Uani 1 1 d .
C7 C -0.3083(3) 0.3472(3) 0.45983(19) 0.0278(5) Uani 1 1 d .
C8 C -0.2900(3) 0.3992(3) 0.56755(18) 0.0267(5) Uani 1 1 d .
H9 H -0.121(3) 0.421(3) 0.714(2) 0.032 Uiso 1 1 d R
H16 H 0.905(3) 0.906(3) 1.067(2) 0.032 Uiso 1 1 d R
H12 H 0.590(3) 0.149(3) 0.946(2) 0.032 Uiso 1 1 d R
H18 H 0.589(3) 0.755(3) 0.775(2) 0.032 Uiso 1 1 d R
H17 H 0.761(3) 0.964(3) 0.895(2) 0.032 Uiso 1 1 d R
H8 H -0.383(3) 0.450(3) 0.589(2) 0.032 Uiso 1 1 d R
H3 H 0.372(3) 0.098(3) 0.538(2) 0.032 Uiso 1 1 d R
H7 H -0.413(4) 0.359(3) 0.407(2) 0.032 Uiso 1 1 d R
H15 H 0.890(3) 0.644(3) 1.121(2) 0.032 Uiso 1 1 d R
H21A H 0.765(4) 0.212(3) 1.123(2) 0.040 Uiso 1 1 d R
H20A H 0.114(4) 0.204(3) 0.313(2) 0.040 Uiso 1 1 d R
H20B H 0.002(4) 0.038(3) 0.332(2) 0.040 Uiso 1 1 d R
H21B H 0.769(4) 0.392(3) 1.172(2) 0.040 Uiso 1 1 d R
H6 H -0.188(3) 0.236(3) 0.354(2) 0.032 Uiso 1 1 d R
H21C H 0.938(4) 0.344(3) 1.124(2) 0.040 Uiso 1 1 d R
H20C H 0.222(4) 0.062(3) 0.352(2) 0.040 Uiso 1 1 d R
loop_
_atom_site_aniso_label
_atom_site_aniso_U_11
_atom_site_aniso_U_22
_atom_site_aniso_U_33
_atom_site_aniso_U_23
_atom_site_aniso_U_13
_atom_site_aniso_U_12
N2 0.0158(8) 0.0248(8) 0.0177(8) 0.0001(7) 0.0020(6) 0.0059(6)
N1 0.0218(8) 0.0220(8) 0.0192(9) -0.0018(7) 0.0012(7) 0.0040(7)
O1 0.0545(12) 0.0306(9) 0.0437(11) -0.0078(8) -0.0178(9) 0.0186(8)
C14 0.0131(8) 0.0257(9) 0.0173(10) 0.0003(8) 0.0050(7) 0.0041(7)
C19 0.0119(8) 0.0255(10) 0.0176(9) 0.0004(8) 0.0047(7) 0.0052(7)
C13 0.0141(9) 0.0282(10) 0.0158(10) 0.0025(8) 0.0042(7) 0.0068(8)
C18 0.0159(9) 0.0277(10) 0.0186(10) 0.0039(8) 0.0044(7) 0.0054(8)
C12 0.0175(9) 0.0220(9) 0.0239(10) 0.0034(8) 0.0037(8) 0.0069(8)
C11 0.0134(9) 0.0232(9) 0.0208(10) -0.0039(8) 0.0006(7) 0.0055(7)
C3 0.0177(9) 0.0198(9) 0.0243(11) -0.0008(8) 0.0042(8) 0.0025(8)
C4 0.0206(9) 0.0175(9) 0.0195(10) 0.0011(7) 0.0048(8) -0.0023(7)
C10 0.0179(9) 0.0193(9) 0.0190(10) -0.0003(8) 0.0009(7) 0.0007(7)
C2 0.0190(10) 0.0193(9) 0.0205(10) -0.0004(7) -0.0017(8) 0.0012(7)
C15 0.0151(9) 0.0313(11) 0.0163(10) -0.0009(8) 0.0011(7) 0.0037(8)
C16 0.0169(9) 0.0273(10) 0.0256(11) -0.0063(8) 0.0039(8) -0.0008(8)
C17 0.0200(10) 0.0220(10) 0.0289(11) 0.0024(8) 0.0085(8) 0.0025(8)
C9 0.0229(10) 0.0261(10) 0.0207(10) -0.0030(8) 0.0036(8) 0.0041(8)
C21 0.0207(10) 0.0314(11) 0.0178(10) 0.0039(8) 0.0006(8) 0.0082(8)
C6 0.0252(11) 0.0271(10) 0.0175(10) 0.0012(8) -0.0003(8) 0.0028(8)
C5 0.0189(9) 0.0158(9) 0.0173(9) 0.0024(7) 0.0029(7) -0.0001(7)
C20 0.0288(12) 0.0318(11) 0.0192(11) 0.0009(9) 0.0069(8) 0.0046(9)
C1 0.0235(10) 0.0241(10) 0.0258(11) -0.0020(8) -0.0011(8) 0.0067(8)
C7 0.0213(11) 0.0313(11) 0.0276(12) 0.0017(9) -0.0044(9) 0.0055(9)
C8 0.0209(10) 0.0279(11) 0.0311(12) -0.0008(9) 0.0033(9) 0.0068(9)
loop_
_atom_type_symbol
_atom_type_description
_atom_type_scat_dispersion_real
_atom_type_scat_dispersion_imag
_atom_type_scat_source
C C 0.0033 0.0016 'International Tables Vol C Tables 4.2.6.8 and 6.1.1.4'
H H 0.0000 0.0000 'International Tables Vol C Tables 4.2.6.8 and 6.1.1.4'
N N 0.0061 0.0033 'International Tables Vol C Tables 4.2.6.8 and 6.1.1.4'
O O 0.0106 0.0060 'International Tables Vol C Tables 4.2.6.8 and 6.1.1.4'
loop_
_geom_angle_atom_site_label_1
_geom_angle_atom_site_label_2
_geom_angle_atom_site_label_3
_geom_angle
C11 N2 C19 116.71(17)
C2 N1 C10 116.74(17)
C19 C14 C13 118.45(17)
C15 C14 C19 118.41(18)
C15 C14 C13 123.12(18)
N2 C19 C14 122.76(18)
N2 C19 C18 117.78(17)
C18 C19 C14 119.45(18)
C14 C13 C21 121.01(18)
C12 C13 C14 117.27(17)
C12 C13 C21 121.71(19)
C19 C18 H18 117.9(14)
C17 C18 C19 120.58(19)
C17 C18 H18 121.5(14)
C13 C12 C11 120.13(18)
C13 C12 H12 121.2(15)
C11 C12 H12 118.7(15)
N2 C11 C12 124.66(18)
N2 C11 C1 116.25(17)
C12 C11 C1 118.90(18)
C4 C3 C2 119.93(19)
C4 C3 H3 122.0(15)
C2 C3 H3 118.1(15)
C3 C4 C5 117.53(18)
C3 C4 C20 121.39(19)
C5 C4 C20 121.08(18)
N1 C10 C9 117.87(18)
N1 C10 C5 122.77(18)
C9 C10 C5 119.35(18)
N1 C2 C3 124.52(18)
N1 C2 C1 116.90(18)
C3 C2 C1 118.32(18)
C14 C15 H15 120.4(15)
C16 C15 C14 120.62(19)
C16 C15 H15 118.9(15)
C15 C16 C17 120.74(19)
C15 C16 H16 120.9(15)
C17 C16 H16 118.3(15)
C18 C17 C16 120.20(19)
C18 C17 H17 120.0(15)
C16 C17 H17 119.8(15)
C10 C9 H9 118.8(15)
C8 C9 C10 120.4(2)
C8 C9 H9 120.8(15)
C13 C21 H21A 109.6(16)
C13 C21 H21B 110.4(16)
C13 C21 H21C 110.4(15)
H21A C21 H21B 112(2)
H21A C21 H21C 107(2)
H21B C21 H21C 108(2)
C5 C6 H6 118.2(15)
C7 C6 C5 120.6(2)
C7 C6 H6 121.1(15)
C10 C5 C4 118.43(17)
C6 C5 C4 123.10(18)
C6 C5 C10 118.46(18)
C4 C20 H20A 110.0(16)
C4 C20 H20B 110.9(15)
C4 C20 H20C 111.4(16)
H20A C20 H20B 107(2)
H20A C20 H20C 110(2)
H20B C20 H20C 108(2)
O1 C1 C11 120.07(18)
O1 C1 C2 120.01(19)
C2 C1 C11 119.91(17)
C6 C7 C8 120.6(2)
C6 C7 H7 117.4(16)
C8 C7 H7 121.9(16)
C9 C8 C7 120.5(2)
C9 C8 H8 119.6(15)
C7 C8 H8 119.9(15)
loop_
_geom_bond_atom_site_label_1
_geom_bond_atom_site_label_2
_geom_bond_distance
N2 C19 1.370(2)
N2 C11 1.314(3)
N1 C10 1.366(2)
N1 C2 1.317(3)
O1 C1 1.209(3)
C14 C19 1.426(3)
C14 C13 1.429(3)
C14 C15 1.417(3)
C19 C18 1.415(3)
C13 C12 1.367(3)
C13 C21 1.506(3)
C18 C17 1.366(3)
C18 H18 0.97(2)
C12 C11 1.415(3)
C12 H12 0.96(2)
C11 C1 1.505(3)
C3 C4 1.366(3)
C3 C2 1.412(3)
C3 H3 0.98(3)
C4 C5 1.424(3)
C4 C20 1.498(3)
C10 C9 1.416(3)
C10 C5 1.422(3)
C2 C1 1.502(3)
C15 C16 1.370(3)
C15 H15 0.96(3)
C16 C17 1.408(3)
C16 H16 0.95(2)
C17 H17 0.97(3)
C9 C8 1.367(3)
C9 H9 0.96(3)
C21 H21A 0.98(3)
C21 H21B 0.97(3)
C21 H21C 1.00(3)
C6 C5 1.421(3)
C6 C7 1.367(3)
C6 H6 0.96(3)
C20 H20A 0.96(3)
C20 H20B 1.01(3)
C20 H20C 0.97(3)
C7 C8 1.404(3)
C7 H7 0.95(3)
C8 H8 0.95(3)
loop_
_geom_hbond_atom_site_label_D
_geom_hbond_atom_site_label_H
_geom_hbond_atom_site_label_A
_geom_hbond_distance_DH
_geom_hbond_distance_HA
_geom_hbond_distance_DA
_geom_hbond_angle_DHA
_geom_hbond_site_symmetry_A
C15 H15 N1 0.96(3) 2.59(3) 3.354(3) 136(2) 2_667
loop_
_geom_torsion_atom_site_label_1
_geom_torsion_atom_site_label_2
_geom_torsion_atom_site_label_3
_geom_torsion_atom_site_label_4
_geom_torsion
N2 C19 C18 C17 179.92(18)
N2 C11 C1 O1 147.3(2)
N2 C11 C1 C2 -31.3(3)
N1 C10 C9 C8 -179.5(2)
N1 C10 C5 C4 1.3(3)
N1 C10 C5 C6 -179.82(18)
N1 C2 C1 O1 135.8(2)
N1 C2 C1 C11 -45.6(3)
C14 C19 C18 C17 0.4(3)
C14 C13 C12 C11 -0.2(3)
C14 C15 C16 C17 0.1(3)
C19 N2 C11 C12 1.2(3)
C19 N2 C11 C1 -173.69(17)
C19 C14 C13 C12 1.1(3)
C19 C14 C13 C21 -179.13(17)
C19 C14 C15 C16 -0.2(3)
C19 C18 C17 C16 -0.6(3)
C13 C14 C19 N2 -1.0(3)
C13 C14 C19 C18 178.50(18)
C13 C14 C15 C16 -178.66(19)
C13 C12 C11 N2 -1.0(3)
C13 C12 C11 C1 173.76(18)
C12 C11 C1 O1 -27.9(3)
C12 C11 C1 C2 153.55(19)
C11 N2 C19 C14 -0.2(3)
C11 N2 C19 C18 -179.67(17)
C3 C4 C5 C10 1.3(3)
C3 C4 C5 C6 -177.55(19)
C3 C2 C1 O1 -38.7(3)
C3 C2 C1 C11 139.9(2)
C4 C3 C2 N1 0.5(3)
C4 C3 C2 C1 174.47(18)
C10 N1 C2 C3 2.1(3)
C10 N1 C2 C1 -172.00(17)
C10 C9 C8 C7 -0.8(3)
C2 N1 C10 C9 176.20(18)
C2 N1 C10 C5 -2.9(3)
C2 C3 C4 C5 -2.2(3)
C2 C3 C4 C20 178.45(18)
C15 C14 C19 N2 -179.51(18)
C15 C14 C19 C18 0.0(3)
C15 C14 C13 C12 179.61(18)
C15 C14 C13 C21 -0.7(3)
C15 C16 C17 C18 0.3(3)
C9 C10 C5 C4 -177.84(18)
C9 C10 C5 C6 1.1(3)
C21 C13 C12 C11 -179.97(18)
C6 C7 C8 C9 1.0(3)
C5 C10 C9 C8 -0.3(3)
C5 C6 C7 C8 -0.2(3)
C20 C4 C5 C10 -179.28(18)
C20 C4 C5 C6 1.9(3)
C7 C6 C5 C4 178.1(2)
C7 C6 C5 C10 -0.8(3)
loop_
_refln_index_h
_refln_index_k
_refln_index_l
_refln_F_squared_meas
_refln_F_squared_sigma
_refln_scale_group_code
0 0 -1 41.5574 8.52191 -2
0 0 -1 41.5574 8.52191 1
0 0 -2 97116 545.375 -2
0 0 -2 97116 545.375 1
0 0 -3 1246.37 31.7525 -2
0 0 -3 1246.37 31.7525 1
0 0 -4 47.9694 39.6838 -2
0 0 -4 47.9694 39.6838 1
0 0 -5 83.5194 43.802 -2
0 0 -5 83.5194 43.802 1
0 0 -6 4962.57 90.5499 -2
0 0 -6 4962.57 90.5499 1
0 0 -7 545.969 58.4489 -2
0 0 -7 545.969 58.4489 1
0 0 -8 1523.44 35.257 -2
0 0 -8 1523.44 35.257 1
0 0 -9 3478.24 47.066 -2
0 0 -9 3478.24 47.066 1
0 0 -10 3743.21 46.4887 -2
0 0 -10 3743.21 46.4887 1
0 0 -11 2674.7 37.6267 -2
0 0 -11 2674.7 37.6267 1
0 0 -12 493.837 95.47 -2
0 0 -12 493.837 95.47 1
0 0 -13 736.492 105.3 -2
0 0 -13 736.492 105.3 1
0 0 -14 90.6819 108.511 -2
0 0 -14 90.6819 108.511 1
0 0 -15 181.264 122.83 -2
0 0 -15 181.264 122.83 1
0 0 -16 2167.16 167.881 -2
0 0 -16 2167.16 167.881 1
0 0 -17 210.15 176.77 -2
0 0 -17 210.15 176.77 1
0 0 -18 323.709 176.294 -2
0 0 -18 323.709 176.294 1
0 0 -19 131.691 184.362 -2
0 0 -19 131.691 184.362 1
0 0 -20 313.055 205.003 -2
0 0 -20 313.055 205.003 1
0 0 -21 1676.79 254.954 -2
0 0 -21 1676.79 254.954 1
0 0 -22 440.907 272.195 -2
0 0 -22 440.907 272.195 1
0 -1 -22 962.74 277.281 -2
0 1 -22 962.74 277.281 1
0 -1 -21 686.656 240.528 -2
0 1 -21 686.656 240.528 1
0 -1 -20 360.814 204.878 -2
0 1 -20 360.814 204.878 1
0 -1 -19 360.211 211.009 -2
0 1 -19 360.211 211.009 1
0 -1 -18 410.279 197.157 -2
0 1 -18 410.279 197.157 1
0 -1 -17 264.357 159.392 -2
0 1 -17 264.357 159.392 1
0 -1 -16 1789.9 157.381 -2
0 1 -16 1789.9 157.381 1
0 -1 -15 2962.98 150.252 -2
0 1 -15 2962.98 150.252 1
0 -1 -14 130.454 111.494 -2
0 1 -14 130.454 111.494 1
0 -1 -13 645.98 105.152 -2
0 1 -13 645.98 105.152 1
0 -1 -12 2673.79 114.775 -2
0 1 -12 2673.79 114.775 1
0 1 11 3846.3 45.0731 -2
0 -1 11 3846.3 45.0731 1
0 -1 -10 3895.83 108.591 -2
0 1 -10 3895.83 108.591 1
0 -1 -9 1373.3 76.8501 -2
0 1 -9 1373.3 76.8501 1
0 -1 -8 3211.45 84.9898 -2
0 1 -8 3211.45 84.9898 1
0 -1 -7 14470.3 133.779 -2
0 1 -7 14470.3 133.779 1
0 -1 -6 55949.1 230.108 -2
0 1 -6 55949.1 230.108 1
0 -1 -5 40370.6 172.691 -2
0 1 -5 40370.6 172.691 1
0 -1 -4 26965.1 127.69 -2
0 1 -4 26965.1 127.69 1
0 -1 -3 21797.8 64.6304 -2
0 1 -3 21797.8 64.6304 1
0 1 -2 1658.61 19.4311 1
0 -1 -2 37163.5 81.8544 -2
0 1 -2 37163.5 81.8544 1
0 1 -1 80558.2 187.595 1
0 -1 0 23542.6 77.6396 1
0 -1 -1 1307.22 14.4422 1
0 1 2 64596.6 326.947 1
0 1 -2 62268.4 293.809 -2
0 -1 -2 62268.4 293.809 1
0 -1 -3 1729.99 30.2844 1
0 1 -3 12717.5 37.7118 -2
0 -1 -3 12717.5 37.7118 1
0 1 -4 48119.4 79.1527 -2
0 -1 -4 48119.4 79.1527 1
0 -1 5 24055.6 75.6457 -2
0 1 5 24055.6 75.6457 1
0 1 -6 31099.8 90.3169 -2
0 -1 -6 31099.8 90.3169 1
0 -1 7 8159.89 53.8782 -2
0 1 7 8159.89 53.8782 1
0 -1 8 5527.31 49.4162 -2
0 1 8 5527.31 49.4162 1
0 -1 9 2527.65 42.031 -2
0 1 9 2527.65 42.031 1
0 -1 10 5643.44 51.3815 -2
0 1 10 5643.44 51.3815 1
0 -1 11 2241.76 40.3186 -2
0 1 11 2241.76 40.3186 1
0 1 -12 2456.3 39.2118 -2
0 -1 -12 2456.3 39.2118 1
0 1 -13 873.411 105.594 -2
0 -1 -13 873.411 105.594 1
0 1 -14 207.14 113.031 -2
0 -1 -14 207.14 113.031 1
0 1 -15 3297.28 163.094 -2
0 -1 -15 3297.28 163.094 1
0 1 -16 1522.3 155.648 -2
0 -1 -16 1522.3 155.648 1
0 1 -17 405.816 150.43 -2
0 -1 -17 405.816 150.43 1
0 1 -18 301.972 161.395 -2
0 -1 -18 301.972 161.395 1
0 1 -19 213.718 181.986 -2
0 -1 -19 213.718 181.986 1
0 1 -20 322.452 206.132 -2
0 -1 -20 322.452 206.132 1
0 1 -21 733.873 238.928 -2
0 -1 -21 733.873 238.928 1
0 1 -22 811.268 276.742 -2
0 -1 -22 811.268 276.742 1
0 -2 -22 385.997 275.384 -2
0 2 -22 385.997 275.384 1
0 -2 -21 563.534 240.728 -2
0 2 -21 563.534 240.728 1
0 -2 -20 711.317 232.77 -2
0 2 -20 711.317 232.77 1
0 -2 -19 1187.6 227.016 -2
0 2 -19 1187.6 227.016 1
0 -2 -18 4145.78 211.511 -2
0 2 -18 4145.78 211.511 1
0 -2 -17 99.8891 159.512 -2
0 2 -17 99.8891 159.512 1
0 -2 -16 3203.01 160.805 -2
0 2 -16 3203.01 160.805 1
0 -2 -15 994.549 132.623 -2
0 2 -15 994.549 132.623 1
0 -2 -14 171.893 113.195 -2
0 2 -14 171.893 113.195 1
0 -2 -13 2547.93 121.438 -2
0 2 -13 2547.93 121.438 1
0 -2 -12 5874.45 134.806 -2
0 2 -12 5874.45 134.806 1
0 2 -11 177.511 69.185 1
0 2 -10 2866.88 89.6221 1
0 2 -9 1478.7 72.2213 1
0 2 -8 28.7937 52.0764 1
0 2 -7 1955.68 65.6846 1
0 2 -6 5638.79 83.6632 1
0 2 -5 172.82 40.4916 1
0 2 -4 14054.5 43.2347 1
0 -2 3 8475.38 30.5904 1
0 -2 2 76042.8 91.2106 1
0 2 -1 30799.2 39.8703 1
0 2 0 147165 379.839 1
0 2 1 2042.5 21.0062 1
0 2 2 962.87 13.9748 1
0 -2 -3 1721.18 17.2339 1
0 2 4 215.954 15.9296 1
0 2 5 42242.5 142.991 1
0 2 -5 41447.5 140.682 -2
0 -2 -5 41447.5 140.682 1
0 2 6 32104.6 129.272 1
0 2 -6 33682 142.056 -2
0 -2 -6 33682 142.056 1
0 -2 -7 483.122 25.5736 1
0 2 8 6041.35 52.0687 1
0 2 9 13096.6 92.7942 1
0 2 -9 12443.4 122.187 -2
0 -2 -9 12443.4 122.187 1
0 -2 -10 9056.06 66.5884 1
0 2 11 1754.55 41.7821 1
0 2 12 180.406 33.9472 1
0 -2 -13 55.6698 73.8007 1
0 2 -14 207.358 104.79 -2
0 -2 -14 207.358 104.79 1
0 2 -15 628.439 120.132 -2
0 -2 -15 628.439 120.132 1
0 2 -16 2963.86 149.165 -2
0 -2 -16 2963.86 149.165 1
0 2 -17 69.4695 144.786 -2
0 -2 -17 69.4695 144.786 1
0 2 -18 2193.09 174.983 -2
0 -2 -18 2193.09 174.983 1
0 -2 -19 171.577 150.136 1
0 -2 -20 103.614 170.758 1
0 3 -22 173.43 208.356 1
0 3 -21 -16.3169 176.44 1
0 3 -20 232.536 168.368 1
0 3 -19 2027.91 166.791 1
0 3 -18 9529.93 224.573 1
0 3 -17 1127.07 133.244 1
0 3 -16 2871.37 141.788 1
0 3 -15 325.443 97.573 1
0 3 -14 91.3548 87.9133 1
0 3 -13 1371.17 98.471 1
0 3 -12 394.036 80.8939 1
0 3 -11 101.585 70.3948 1
0 3 -10 16.173 65.2635 1
0 3 -9 365.166 65.0916 1
0 3 -8 726.084 62.7758 1
0 3 -7 6148.95 98.204 1
0 3 -6 531.729 48.4791 1
0 3 -5 5982.48 51.0449 1
0 3 -4 6446.32 48.0484 1
0 3 -3 3870.83 28.7225 1
0 3 -2 18.5255 14.8877 1
0 -3 1 282.927 12.7279 1
0 -3 0 3874.21 27.1291 1
0 3 1 18.4068 14.1066 1
0 3 2 4404.24 26.5723 1
0 3 3 4842.21 29.6365 1
0 3 4 80613.9 97.1284 1
0 3 5 4858.68 37.6065 1
0 3 6 1765.23 29.8648 1
0 3 7 403.044 29.1599 1
0 -3 -8 111.372 28.9347 1
0 3 9 3199.17 48.2941 1
0 -3 -10 36.8843 32.7024 1
0 3 11 4673.4 60.4239 1
0 -3 -12 238.105 40.9006 1
0 3 13 147.424 42.0212 1
0 -3 -14 299.119 88.2552 1
0 -3 -15 180.661 92.4955 1
0 -3 -16 103.77 106.51 1
0 -3 -17 325.332 121.938 1
0 -3 -18 168.91 134.756 1
0 3 20 213.467 179.769 1
0 3 21 172.115 196.914 1
0 4 -22 149.625 210.056 1
0 4 -21 365.697 193.727 1
0 4 -20 115.105 169.746 1
0 4 -19 547.669 153.98 1
0 -4 -17 992.901 178.505 -2
0 4 -18 992.901 178.505 1
0 4 -17 1074.81 137.691 1
0 4 -16 91.7689 110.324 1
0 -4 -14 218.076 127.268 -2
0 4 -15 218.076 127.268 1
0 4 -14 28.6117 97.0776 1
0 -4 -12 2709.78 126.565 -2
0 4 -13 2709.78 126.565 1
0 -4 -11 13285.4 180.258 -2
0 4 -12 13285.4 180.258 1
0 -4 -10 9253.89 147.198 -2
0 4 -11 9253.89 147.198 1
0 -4 -9 5978.06 123.681 -2
0 4 -10 5978.06 123.681 1
0 4 -9 3926.13 104.577 1
0 -4 -7 4202.01 99.6596 -2
0 4 -8 4202.01 99.6596 1
0 4 -7 291.241 53.5424 1
0 4 -6 794.483 39.6802 1
0 -4 -5 918.829 61.1794 -2
0 4 -6 918.829 61.1794 1
0 4 -5 350.242 32.0244 1
0 -4 -4 7037.92 89.7356 -2
0 4 -5 7037.92 89.7356 1
0 4 -4 3382.18 50.9435 1
0 -4 -3 4509.27 76.3085 -2
0 4 -4 4509.27 76.3085 1
0 -4 3 1969.49 42.1475 1
0 -4 -2 2946.6 63.2407 -2
0 4 -3 2946.6 63.2407 1
0 -4 2 24254.8 113.406 1
0 -4 -1 23991.1 117.037 -2
0 4 -2 23991.1 117.037 1
0 4 -1 44.0455 17.7674 1
0 4 0 1047.07 21.9598 1
0 4 1 991.104 20.5031 1
0 -4 2 12142.8 103.11 -2
0 4 1 12142.8 103.11 1
0 4 2 1651.89 21.9399 1
0 4 3 2206.47 23.6018 1
0 4 4 12898.9 58.2092 1
0 -4 5 12544.4 108.941 -2
0 4 4 12544.4 108.941 1
0 4 5 426.853 53.7698 1
0 -4 6 871.167 32.5929 -2
0 4 5 871.167 32.5929 1
0 -4 7 1483.59 51.7193 -2
0 4 6 1483.59 51.7193 1
0 -4 8 2428.32 41.9097 -2
0 4 7 2428.32 41.9097 1
0 -4 9 2302.72 43.5908 -2
0 4 8 2302.72 43.5908 1
0 -4 10 4031.11 51.6658 -2
0 4 9 4031.11 51.6658 1
0 -4 11 4550.31 55.8354 -2
0 4 10 4550.31 55.8354 1
0 4 -12 9314.63 73.7439 -2
0 -4 -11 9314.63 73.7439 1
0 -4 13 1895.44 55.6059 -2
0 4 12 1895.44 55.6059 1
0 4 -14 561.499 76.0708 -2
0 -4 -13 561.499 76.0708 1
0 -4 15 379.269 83.3504 -2
0 4 14 379.269 83.3504 1
0 4 -16 891.943 96.3913 -2
0 -4 -15 891.943 96.3913 1
0 -4 17 769.12 106.902 -2
0 4 16 769.12 106.902 1
0 -4 18 1274.13 195.015 -2
0 4 17 1274.13 195.015 1
0 -4 19 765.557 209.451 -2
0 4 18 765.557 209.451 1
0 -4 20 326.648 224.573 -2
0 4 19 326.648 224.573 1
0 -4 21 481.755 256.077 -2
0 4 20 481.755 256.077 1
0 -4 22 1332.74 291.125 -2
0 4 21 1332.74 291.125 1
0 -5 -20 556.337 296.277 -2
0 5 -21 556.337 296.277 1
0 -5 -19 313.548 243.124 -2
0 5 -20 313.548 243.124 1
0 -5 -18 174.176 205.444 -2
0 5 -19 174.176 205.444 1
0 -5 -17 668.589 188.934 -2
0 5 -18 668.589 188.934 1
0 -5 -16 305.264 170.168 -2
0 5 -17 305.264 170.168 1
0 -5 -15 1203.31 162.114 -2
0 5 -16 1203.31 162.114 1
0 -5 -14 471.309 141.703 -2
0 5 -15 471.309 141.703 1
0 -5 -13 1953.02 144.471 -2
0 5 -14 1953.02 144.471 1
0 -5 -12 741.77 121.07 -2
0 5 -13 741.77 121.07 1
0 -5 -11 1154.22 113.507 -2
0 5 -12 1154.22 113.507 1
0 -5 -10 2967.63 123.737 -2
0 5 -11 2967.63 123.737 1
0 -5 -9 765.743 94.9176 -2
0 5 -10 765.743 94.9176 1
0 -5 -8 9011.81 156.776 -2
0 5 -9 9011.81 156.776 1
0 -5 -7 21237.5 210.095 -2
0 5 -8 21237.5 210.095 1
0 -5 -6 923.324 45.2807 -2
0 5 -7 923.324 45.2807 1
0 -5 -5 391.732 38.2346 -2
0 5 -6 391.732 38.2346 1
0 -5 -4 3928.5 53.2506 -2
0 5 -5 3928.5 53.2506 1
0 -5 -3 2129.2 44.7005 -2
0 5 -4 2129.2 44.7005 1
0 5 2 4015.35 50.3081 -2
0 -5 3 4015.35 50.3081 1
0 5 1 495.976 33.9223 -2
0 -5 2 495.976 33.9223 1
0 5 0 3077.48 38.154 -2
0 -5 1 3077.48 38.154 1
0 5 -1 1877.52 32.4766 -2
0 -5 0 1877.52 32.4766 1
0 5 -2 469.256 24.3513 -2
0 -5 -1 469.256 24.3513 1
0 -5 3 2967.99 29.994 -2
0 5 2 2967.99 29.994 1
0 -5 4 1506.85 52.9581 -2
0 5 3 1506.85 52.9581 1
0 -5 5 6535.89 38.5921 -2
0 5 4 6535.89 38.5921 1
0 -5 6 612.466 26.7947 -2
0 5 5 612.466 26.7947 1
0 -5 7 378.631 50.1498 -2
0 5 6 378.631 50.1498 1
0 -5 8 8994.88 104.834 -2
0 5 7 8994.88 104.834 1
0 -5 9 5332.29 90.4412 -2
0 5 8 5332.29 90.4412 1
0 -5 10 626.325 61.2985 -2
0 5 9 626.325 61.2985 1
0 -5 11 5032.32 96.5257 -2
0 5 10 5032.32 96.5257 1
0 -5 12 1489.51 75.8868 -2
0 5 11 1489.51 75.8868 1
0 5 -13 488.494 56.3674 -2
0 -5 -12 488.494 56.3674 1
0 5 -14 1170.03 87.3448 -2
0 -5 -13 1170.03 87.3448 1
0 -5 15 437.529 148.858 -2
0 5 14 437.529 148.858 1
0 -5 16 1085.61 170.79 -2
0 5 15 1085.61 170.79 1
0 -5 17 124.285 175.275 -2
0 5 16 124.285 175.275 1
0 -5 18 715.817 200.562 -2
0 5 17 715.817 200.562 1
0 -5 19 223.267 217.522 -2
0 5 18 223.267 217.522 1
0 -5 20 670.614 245.933 -2
0 5 19 670.614 245.933 1
0 -5 21 360.805 263.313 -2
0 5 20 360.805 263.313 1
0 -6 -20 480.768 317.791 -2
0 6 -21 480.768 317.791 1
0 -6 -19 253.224 258.948 -2
0 6 -20 253.224 258.948 1
0 -6 -18 335.063 223.02 -2
0 6 -19 335.063 223.02 1
0 -6 -17 450.776 202.107 -2
0 6 -18 450.776 202.107 1
0 -6 -16 1129.77 195.637 -2
0 6 -17 1129.77 195.637 1
0 -6 -15 1860.78 192.358 -2
0 6 -16 1860.78 192.358 1
0 -6 -14 3104.09 194.868 -2
0 6 -15 3104.09 194.868 1
0 -6 -13 5135.72 203.183 -2
0 6 -14 5135.72 203.183 1
0 -6 -12 1750.29 146.842 -2
0 6 -13 1750.29 146.842 1
0 -6 -11 8336.13 209.161 -2
0 6 -12 8336.13 209.161 1
0 -6 -10 8239.79 186.426 -2
0 6 -11 8239.79 186.426 1
0 -6 -9 4061.8 148.158 -2
0 6 -10 4061.8 148.158 1
0 -6 -8 2506.94 120.524 -2
0 6 -9 2506.94 120.524 1
0 -6 -7 875.936 55.0808 -2
0 6 -8 875.936 55.0808 1
0 -6 -6 4298.5 74.1768 -2
0 6 -7 4298.5 74.1768 1
0 -6 -5 850.691 47.0898 -2
0 6 -6 850.691 47.0898 1
0 -6 -4 4012.71 66.2204 -2
0 6 -5 4012.71 66.2204 1
0 6 3 699.842 43.1683 -2
0 -6 4 699.842 43.1683 1
0 6 2 285.403 38.8285 -2
0 -6 3 285.403 38.8285 1
0 6 1 5839.21 72.5328 -2
0 -6 2 5839.21 72.5328 1
0 -6 0 757.596 40.3902 -2
0 6 -1 757.596 40.3902 1
0 -6 1 1242.38 36.5115 -2
0 6 0 1242.38 36.5115 1
0 6 -2 5099.98 51.5534 -2
0 -6 -1 5099.98 51.5534 1
0 -6 3 446.364 24.989 -2
0 6 2 446.364 24.989 1
0 -6 4 903.955 18.3367 -2
0 6 3 903.955 18.3367 1
0 -6 5 5391.73 25.9385 -2
0 6 4 5391.73 25.9385 1
0 -6 6 528.623 14.7069 -2
0 6 5 528.623 14.7069 1
0 -6 7 2249.69 35.3288 -2
0 6 6 2249.69 35.3288 1
0 -6 8 1365.92 71.0568 -2
0 6 7 1365.92 71.0568 1
0 -6 9 1241.02 72.4781 -2
0 6 8 1241.02 72.4781 1
0 -6 10 6210.74 113.639 -2
0 6 9 6210.74 113.639 1
0 -6 11 4636.29 106.438 -2
0 6 10 4636.29 106.438 1
0 -6 12 4534.86 108.125 -2
0 6 11 4534.86 108.125 1
0 -6 13 1222.35 87.143 -2
0 6 12 1222.35 87.143 1
0 -6 14 3103.58 180.657 -2
0 6 13 3103.58 180.657 1
0 -6 15 6014.73 234.303 -2
0 6 14 6014.73 234.303 1
0 -6 16 3421.16 215.511 -2
0 6 15 3421.16 215.511 1
0 -6 17 1449.57 208.497 -2
0 6 16 1449.57 208.497 1
0 -6 18 367.681 206.625 -2
0 6 17 367.681 206.625 1
0 -6 19 153.453 221.411 -2
0 6 18 153.453 221.411 1
0 -6 20 241.661 251.777 -2
0 6 19 241.661 251.777 1
0 -6 21 239.732 279.365 -2
0 6 20 239.732 279.365 1
0 -7 -19 433.61 283.92 -2
0 7 -20 433.61 283.92 1
0 -7 -18 478.539 243.18 -2
0 7 -19 478.539 243.18 1
0 -7 -17 605.01 215.948 -2
0 7 -18 605.01 215.948 1
0 -7 -16 952.359 203.132 -2
0 7 -17 952.359 203.132 1
0 -7 -15 1127.42 185.948 -2
0 7 -16 1127.42 185.948 1
0 -7 -14 203.867 161.509 -2
0 7 -15 203.867 161.509 1
0 -7 -13 798.302 153.003 -2
0 7 -14 798.302 153.003 1
0 -7 -12 52.8734 131.162 -2
0 7 -13 52.8734 131.162 1
0 -7 -11 502.313 127.095 -2
0 7 -12 502.313 127.095 1
0 -7 -10 339.14 112.601 -2
0 7 -11 339.14 112.601 1
0 -7 -9 581.349 107.383 -2
0 7 -10 581.349 107.383 1
0 -7 -8 86.6333 95.9581 -2
0 7 -9 86.6333 95.9581 1
0 -7 -7 8664.2 92.5681 -2
0 7 -8 8664.2 92.5681 1
0 -7 -6 853.582 51.8118 -2
0 7 -7 853.582 51.8118 1
0 -7 -5 4266.12 65.5776 -2
0 7 -6 4266.12 65.5776 1
0 -7 -4 2653.47 56.4654 -2
0 7 -5 2653.47 56.4654 1
0 7 3 6785.14 72.7156 -2
0 -7 4 6785.14 72.7156 1
0 7 2 207.815 43.048 -2
0 -7 3 207.815 43.048 1
0 -7 -1 1572.17 48.5536 -2
0 7 -2 1572.17 48.5536 1
0 -7 0 6126.57 65.8766 -2
0 7 -1 6126.57 65.8766 1
0 7 -1 4848.88 59.3813 -2
0 -7 0 4848.88 59.3813 1
0 -7 2 3276 45.9756 -2
0 7 1 3276 45.9756 1
0 7 2 68.4722 29.0963 1
0 7 -3 184.212 50.9345 -2
0 -7 -2 184.212 50.9345 1
0 7 3 7820.7 42.2594 1
0 7 -4 10707 103.835 -2
0 -7 -3 10707 103.835 1
0 7 -5 4655.2 70.5587 -2
0 -7 -4 4655.2 70.5587 1
0 7 -6 2587.58 63.294 -2
0 -7 -5 2587.58 63.294 1
0 -7 7 792.027 68.7469 -2
0 7 6 792.027 68.7469 1
0 -7 8 4630.58 97.3832 -2
0 7 7 4630.58 97.3832 1
0 -7 9 228.983 68.9419 -2
0 7 8 228.983 68.9419 1
0 -7 10 480.232 73.9682 -2
0 7 9 480.232 73.9682 1
0 -7 11 340.384 78.1323 -2
0 7 10 340.384 78.1323 1
0 -7 12 1069.14 87.8133 -2
0 7 11 1069.14 87.8133 1
0 -7 13 158.952 139.576 -2
0 7 12 158.952 139.576 1
0 -7 14 1339.12 168.021 -2
0 7 13 1339.12 168.021 1
0 -7 15 364.698 167.307 -2
0 7 14 364.698 167.307 1
0 -7 16 1939.43 206.176 -2
0 7 15 1939.43 206.176 1
0 -7 17 1220.97 211.955 -2
0 7 16 1220.97 211.955 1
0 -7 18 1072.95 223.598 -2
0 7 17 1072.95 223.598 1
0 -7 19 479.717 242.597 -2
0 7 18 479.717 242.597 1
0 -7 20 535.174 272.178 -2
0 7 19 535.174 272.178 1
0 -8 -18 791.609 269.529 -2
0 8 -19 791.609 269.529 1
0 -8 -17 695.138 240.102 -2
0 8 -18 695.138 240.102 1
0 -8 -16 445.462 209.768 -2
0 8 -17 445.462 209.768 1
0 -8 -15 1363.38 205.247 -2
0 8 -16 1363.38 205.247 1
0 -8 -14 6531.56 224.776 -2
0 8 -15 6531.56 224.776 1
0 -8 -13 1343.49 171.972 -2
0 8 -14 1343.49 171.972 1
0 -8 -12 554.049 152.414 -2
0 8 -13 554.049 152.414 1
0 -8 -11 500.318 135.73 -2
0 8 -12 500.318 135.73 1
0 -8 -10 -38.9311 122.531 -2
0 8 -11 -38.9311 122.531 1
0 -8 -9 833.803 114.938 -2
0 8 -10 833.803 114.938 1
0 -8 -8 747.88 107.988 -2
0 8 -9 747.88 107.988 1
0 -8 -7 1025.88 62.7171 -2
0 8 -8 1025.88 62.7171 1
0 8 -7 1520.64 64.3828 1
0 -8 -6 1749.71 103.617 -2
0 8 -7 1749.71 103.617 1
0 8 -6 1644.46 64.7547 1
0 -8 -5 2197.21 100.377 -2
0 8 -6 2197.21 100.377 1
0 -8 5 1157.66 60.415 1
0 -8 -4 1589 88.4113 -2
0 8 -5 1589 88.4113 1
0 -8 4 276.229 40.79 1
0 -8 3 165.681 39.7133 1
0 8 -2 6869.97 70.8367 1
0 -8 1 644.713 38.7465 1
0 -8 0 1242.23 40.7032 1
0 -8 -1 73.0974 30.2492 1
0 -8 -2 79.4028 22.3284 1
0 -8 -3 125.697 48.5115 1
0 8 4 257.369 74.3065 1
0 8 -5 841.614 86.6835 -2
0 -8 -4 841.614 86.6835 1
0 8 5 689.062 79.3526 1
0 8 -6 1467.31 75.3481 -2
0 -8 -5 1467.31 75.3481 1
0 8 6 55.8052 75.2102 1
0 -8 7 948.484 75.1953 -2
0 8 6 948.484 75.1953 1
0 8 7 1312.89 93.4378 1
0 8 -8 1457.43 83.3991 -2
0 -8 -7 1457.43 83.3991 1
0 8 8 106.776 81.8957 1
0 -8 9 423.587 82.9768 -2
0 8 8 423.587 82.9768 1
0 -8 10 753.157 135.434 -2
0 8 9 753.157 135.434 1
0 -8 11 371.222 137.688 -2
0 8 10 371.222 137.688 1
0 -8 12 961.516 153.224 -2
0 8 11 961.516 153.224 1
0 -8 13 2125.23 174.217 -2
0 8 12 2125.23 174.217 1
0 -8 14 1098.68 174.325 -2
0 8 13 1098.68 174.325 1
0 -8 15 12663.7 270.274 -2
0 8 14 12663.7 270.274 1
0 -8 16 2226 217.115 -2
0 8 15 2226 217.115 1
0 -8 17 613.955 223.547 -2
0 8 16 613.955 223.547 1
0 8 -18 540.293 167.191 -2
0 -8 -17 540.293 167.191 1
0 -8 19 605.642 185.432 -2
0 8 18 605.642 185.432 1
0 9 -18 58.7152 197.491 1
0 9 -17 204.48 180.613 1
0 9 -16 96.2618 167.813 1
0 9 -15 560.298 151.801 1
0 9 -14 803.49 146.42 1
0 9 -13 94.0902 130.193 1
0 9 -12 979.237 136.636 1
0 9 -11 307.777 116.349 1
0 9 -10 224.342 103.773 1
0 9 -9 44.1408 95.3443 1
0 9 -8 2238.6 111.141 1
0 9 -7 358.944 86.9652 1
0 9 -6 931.795 53.7595 1
0 9 -5 59.1433 76.2777 1
0 -9 4 1216.79 52.8714 1
0 9 -3 166.58 46.4058 1
0 -9 2 1105.86 49.8786 1
0 -9 1 2773.06 58.121 1
0 -9 0 1506.37 47.7856 1
0 -9 -1 25.0044 73.1021 1
0 -9 -2 60.6369 74.4226 1
0 -9 -3 48.1992 79.1892 1
0 -9 -4 2050.96 101.773 1
0 -9 -5 10.0535 86.1869 1
0 9 6 103.847 66.4091 1
0 -9 -7 2869.69 128.473 1
0 -9 9 2596.33 155.617 -2
0 9 7 2596.33 155.617 1
0 -9 -8 1191.48 114.069 1
0 -9 10 1486.74 149.822 -2
0 9 8 1486.74 149.822 1
0 -9 -9 68.34 109.07 1
0 -9 11 246.98 144.825 -2
0 9 9 246.98 144.825 1
0 -9 -10 75.0979 117.088 1
0 -9 12 666.573 163.94 -2
0 9 10 666.573 163.94 1
0 -9 -11 244.875 127.577 1
0 -9 13 513.663 174.894 -2
0 9 11 513.663 174.894 1
0 9 12 2341.92 116.678 1
0 -9 -13 5177.82 144.845 1
0 -9 -14 2154.26 131.855 1
0 9 15 110.087 125.793 1
0 9 16 752.082 143.08 1
0 -9 -17 165.806 150.75 1
0 -10 -15 1216.71 261.067 -2
0 10 -17 1216.71 261.067 1
0 -10 -14 500.56 231.16 -2
0 10 -16 500.56 231.16 1
0 -10 -13 1665.04 229.189 -2
0 10 -15 1665.04 229.189 1
0 -10 -12 784.102 199.01 -2
0 10 -14 784.102 199.01 1
0 -10 -11 381.691 175.774 -2
0 10 -13 381.691 175.774 1
0 -10 -10 660.591 165.236 -2
0 10 -12 660.591 165.236 1
0 -10 -9 173.549 150.79 -2
0 10 -11 173.549 150.79 1
0 -10 -8 464.125 140.494 -2
0 10 -10 464.125 140.494 1
0 -10 -7 1375.89 137.172 -2
0 10 -9 1375.89 137.172 1
0 -10 -6 1176.09 126.749 -2
0 10 -8 1176.09 126.749 1
0 -10 -5 648.383 112.739 -2
0 10 -7 648.383 112.739 1
0 -10 -4 1972.35 112.396 -2
0 10 -6 1972.35 112.396 1
0 -10 -3 1035.19 97.977 -2
0 10 -5 1035.19 97.977 1
0 10 -4 198.919 75.6718 1
0 10 2 1240.24 102.345 -2
0 -10 4 1240.24 102.345 1
0 10 -3 788.311 77.0336 1
0 10 1 1626.79 105.428 -2
0 -10 3 1626.79 105.428 1
0 10 -2 314.682 51.7864 1
0 10 -1 482.22 102.661 -2
0 -10 1 482.22 102.661 1
0 10 -2 1271.75 106.796 -2
0 -10 0 1271.75 106.796 1
0 10 -3 2311.24 119.501 -2
0 -10 -1 2311.24 119.501 1
0 -10 -2 2399.45 111.722 1
0 10 -5 2204.37 128.461 -2
0 -10 -3 2204.37 128.461 1
0 10 -6 3789.05 147.409 -2
0 -10 -4 3789.05 147.409 1
0 10 -7 949.95 128.918 -2
0 -10 -5 949.95 128.918 1
0 10 -8 1073.64 134.461 -2
0 -10 -6 1073.64 134.461 1
0 10 -9 2352.51 147.868 -2
0 -10 -7 2352.51 147.868 1
0 10 -10 777.294 144.845 -2
0 -10 -8 777.294 144.845 1
0 -10 11 152.924 110.972 -2
0 10 9 152.924 110.972 1
0 10 -12 232.892 118.761 -2
0 -10 -10 232.892 118.761 1
0 -10 13 381.257 130.396 -2
0 10 11 381.257 130.396 1
0 10 -14 586.924 140.836 -2
0 -10 -12 586.924 140.836 1
0 10 -15 1272.52 154.79 -2
0 -10 -13 1272.52 154.79 1
0 10 -16 354.719 161.193 -2
0 -10 -14 354.719 161.193 1
0 -10 17 779.355 178.794 -2
0 10 15 779.355 178.794 1
0 -11 -14 271.378 273.667 -2
0 11 -16 271.378 273.667 1
0 -11 -13 477.233 243.534 -2
0 11 -15 477.233 243.534 1
0 -11 -11 93.0494 212.124 -2
0 11 -13 93.0494 212.124 1
0 -11 -10 523.735 192.82 -2
0 11 -12 523.735 192.82 1
0 -11 -9 216.424 172.987 -2
0 11 -11 216.424 172.987 1
0 -11 -8 283.172 164.086 -2
0 11 -10 283.172 164.086 1
0 -11 -7 280.496 152.216 -2
0 11 -9 280.496 152.216 1
0 -11 -6 399.206 143.952 -2
0 11 -8 399.206 143.952 1
0 -11 -5 642.298 134.122 -2
0 11 -7 642.298 134.122 1
0 -11 -4 3186.93 145.151 -2
0 11 -6 3186.93 145.151 1
0 -11 -3 3339.41 138.183 -2
0 11 -5 3339.41 138.183 1
0 11 0 939.1 126.169 -2
0 -11 2 939.1 126.169 1
0 11 -1 581.583 120.239 -2
0 -11 1 581.583 120.239 1
0 11 -2 795.204 125.982 -2
0 -11 0 795.204 125.982 1
0 11 -3 1909.61 136.673 -2
0 -11 -1 1909.61 136.673 1
0 11 -4 2050.99 147.414 -2
0 -11 -2 2050.99 147.414 1
0 11 -5 1797.41 149.003 -2
0 -11 -3 1797.41 149.003 1
0 11 -6 2400.19 159.727 -2
0 -11 -4 2400.19 159.727 1
0 11 -7 794.884 151.165 -2
0 -11 -5 794.884 151.165 1
0 11 -8 297.903 156.775 -2
0 -11 -6 297.903 156.775 1
0 11 -9 216.007 159.946 -2
0 -11 -7 216.007 159.946 1
0 11 -10 374.773 167.264 -2
0 -11 -8 374.773 167.264 1
0 11 -11 144.16 170.646 -2
0 -11 -9 144.16 170.646 1
0 11 -12 564.378 187.771 -2
0 -11 -10 564.378 187.771 1
0 11 -13 374.84 198.113 -2
0 -11 -11 374.84 198.113 1
0 11 -14 484.308 156.082 -2
0 -11 -12 484.308 156.082 1
0 11 -15 575.728 171.673 -2
0 -11 -13 575.728 171.673 1
0 11 -16 273.038 184.998 -2
0 -11 -14 273.038 184.998 1
0 -12 -13 223.965 307.045 -2
0 12 -15 223.965 307.045 1
0 -12 -12 217.648 273.363 -2
0 12 -14 217.648 273.363 1
0 -12 -11 296.876 250.238 -2
0 12 -13 296.876 250.238 1
0 -12 -10 331.806 227.702 -2
0 12 -12 331.806 227.702 1
0 -12 -9 877.032 223.36 -2
0 12 -11 877.032 223.36 1
0 -12 -8 236.623 206.527 -2
0 12 -10 236.623 206.527 1
0 12 -3 965.06 161.77 -2
0 -12 -1 965.06 161.77 1
0 12 -4 4806.06 197.892 -2
0 -12 -2 4806.06 197.892 1
0 12 -5 4642.2 205.637 -2
0 -12 -3 4642.2 205.637 1
0 12 -6 2911 199.048 -2
0 -12 -4 2911 199.048 1
0 12 -7 311.217 173.988 -2
0 -12 -5 311.217 173.988 1
0 12 -8 190.403 176.822 -2
0 -12 -6 190.403 176.822 1
0 12 -9 130.985 189.078 -2
0 -12 -7 130.985 189.078 1
0 12 -10 88.0967 201.451 -2
0 -12 -8 88.0967 201.451 1
0 12 -11 861.114 225.554 -2
0 -12 -9 861.114 225.554 1
0 12 -12 356.939 232.353 -2
0 -12 -10 356.939 232.353 1
0 12 -13 287.823 250.367 -2
0 -12 -11 287.823 250.367 1
0 12 -14 431.015 267.495 -2
0 -12 -12 431.015 267.495 1
0 13 -8 1154.95 226.417 -2
0 -13 -6 1154.95 226.417 1
0 13 -9 491.755 233.319 -2
0 -13 -7 491.755 233.319 1
0 13 -10 253.328 248.069 -2
0 -13 -8 253.328 248.069 1
0 13 -11 540.15 265.484 -2
0 -13 -9 540.15 265.484 1
0 13 -12 671.709 282.295 -2
0 -13 -10 671.709 282.295 1
1 -13 -11 105.288 237.339 1
1 -13 -10 280 218.903 1
1 -13 -9 118.156 204.781 1
1 -13 -8 1688.83 202.536 1
1 -13 -7 454.108 182.756 1
1 -13 -6 230.133 170.599 1
1 -13 -5 535.846 166.098 1
1 -13 -4 227.685 157.644 1
1 -13 -3 70.7446 154.493 1
1 -13 -2 113.914 154.608 1
-1 12 -14 407.911 278.08 -2
1 -12 -13 407.911 278.08 1
-1 12 -13 643.319 258.305 -2
1 -12 -12 643.319 258.305 1
-1 12 -12 788.269 238.242 -2
1 -12 -11 788.269 238.242 1
-1 12 -11 639.815 222.009 -2
1 -12 -10 639.815 222.009 1
-1 12 -10 861.466 207.015 -2
1 -12 -9 861.466 207.015 1
-1 12 -9 1123.59 197.039 -2
1 -12 -8 1123.59 197.039 1
-1 12 -8 682.076 186.831 -2
1 -12 -7 682.076 186.831 1
-1 12 -7 368.631 178.438 -2
1 -12 -6 368.631 178.438 1
-1 12 -6 1583.15 177.38 -2
1 -12 -5 1583.15 177.38 1
-1 12 -5 844.3 166.032 -2
1 -12 -4 844.3 166.032 1
-1 12 -4 1986.88 163.505 -2
1 -12 -3 1986.88 163.505 1
-1 12 -3 522.573 155.861 -2
1 -12 -2 522.573 155.861 1
1 -12 -1 177.478 123.764 1
-1 12 -1 240.395 142.236 -2
1 -12 0 240.395 142.236 1
-1 12 0 325.255 148.598 -2
1 -12 1 325.255 148.598 1
1 -12 -6 278.174 160.16 -2
-1 12 -7 278.174 160.16 1
1 -12 -7 646.701 172.629 -2
-1 12 -8 646.701 172.629 1
1 -12 -8 629.933 182.665 -2
-1 12 -9 629.933 182.665 1
1 -12 -9 361.938 195.327 -2
-1 12 -10 361.938 195.327 1
1 -12 -10 621.847 214.881 -2
-1 12 -11 621.847 214.881 1
1 -12 -11 355.937 227.086 -2
-1 12 -12 355.937 227.086 1
1 -12 -12 935.446 254.23 -2
-1 12 -13 935.446 254.23 1
1 -12 -13 326.211 278.013 -2
-1 12 -14 326.211 278.013 1
-1 11 -16 640.218 268.396 -2
1 -11 -15 640.218 268.396 1
-1 11 -15 541.534 178.295 -2
1 -11 -14 541.534 178.295 1
1 -11 14 297.357 164.225 -2
-1 11 13 297.357 164.225 1
1 -11 13 213.195 150.11 -2
-1 11 12 213.195 150.11 1
-1 11 -12 843.692 202.307 -2
1 -11 -11 843.692 202.307 1
-1 11 -11 467.152 187.619 -2
1 -11 -10 467.152 187.619 1
-1 11 -10 489.374 180.027 -2
1 -11 -9 489.374 180.027 1
-1 11 -9 453.592 166.352 -2
1 -11 -8 453.592 166.352 1
-1 11 -8 174.721 156.592 -2
1 -11 -7 174.721 156.592 1
-1 11 -7 919.931 155.038 -2
1 -11 -6 919.931 155.038 1
-1 11 -6 1087.39 153.449 -2
1 -11 -5 1087.39 153.449 1
-1 11 -5 1218.16 147.745 -2
1 -11 -4 1218.16 147.745 1
-1 11 -4 469.947 132.195 -2
1 -11 -3 469.947 132.195 1
-1 11 -3 782.62 129.063 -2
1 -11 -2 782.62 129.063 1
-1 11 -2 310.289 127.361 -2
1 -11 -1 310.289 127.361 1
-1 11 -1 632.069 131.596 -2
1 -11 0 632.069 131.596 1
-1 11 0 719.044 122.111 -2
1 -11 1 719.044 122.111 1
-1 11 1 236.125 123.636 -2
1 -11 2 236.125 123.636 1
-1 11 2 470.635 79.7549 -2
1 -11 3 470.635 79.7549 1
1 -11 -3 292.356 83.1073 -2
-1 11 -4 292.356 83.1073 1
1 -11 -4 630.914 123.572 -2
-1 11 -5 630.914 123.572 1
1 -11 -5 504.359 132.448 -2
-1 11 -6 504.359 132.448 1
1 -11 -6 489.917 136.755 -2
-1 11 -7 489.917 136.755 1
1 -11 -7 385.81 141.507 -2
-1 11 -8 385.81 141.507 1
1 -11 -8 259.56 145.911 -2
-1 11 -9 259.56 145.911 1
1 -11 -9 375.779 164.28 -2
-1 11 -10 375.779 164.28 1
1 -11 -10 424.578 179.37 -2
-1 11 -11 424.578 179.37 1
1 -11 -11 1215.34 203.5 -2
-1 11 -12 1215.34 203.5 1
1 -11 -12 200.775 212.848 -2
-1 11 -13 200.775 212.848 1
1 -11 -13 293.617 226.249 -2
-1 11 -14 293.617 226.249 1
1 -11 -14 569.603 252.011 -2
-1 11 -15 569.603 252.011 1
1 -11 -15 610.936 287.796 -2
-1 11 -16 610.936 287.796 1
1 -10 17 422.17 182.077 -2
-1 10 16 422.17 182.077 1
-1 10 -16 321.428 169.897 -2
1 -10 -15 321.428 169.897 1
-1 10 -15 1760.65 166.319 -2
1 -10 -14 1760.65 166.319 1
1 -10 14 2148.72 160.883 -2
-1 10 13 2148.72 160.883 1
1 -10 13 494.647 133.366 -2
-1 10 12 494.647 133.366 1
-1 10 -12 204.45 111.78 -2
1 -10 -11 204.45 111.78 1
-1 10 -11 321.004 114.679 -2
1 -10 -10 321.004 114.679 1
-1 10 -10 665.243 111.692 -2
1 -10 -9 665.243 111.692 1
-1 10 -9 259.946 140.998 -2
1 -10 -8 259.946 140.998 1
-1 10 -8 1411.94 153.789 -2
1 -10 -7 1411.94 153.789 1
-1 10 -7 2398.94 164.444 -2
1 -10 -6 2398.94 164.444 1
-1 10 -6 4971.96 188.626 -2
1 -10 -5 4971.96 188.626 1
-1 10 -5 7250.28 198.766 -2
1 -10 -4 7250.28 198.766 1
-1 10 -4 3737.91 162.643 -2
1 -10 -3 3737.91 162.643 1
-1 10 -3 2236.49 138.098 -2
1 -10 -2 2236.49 138.098 1
-1 10 -2 83.2777 102.249 -2
1 -10 -1 83.2777 102.249 1
1 -10 1 1305.34 71.0255 -2
-1 10 0 1305.34 71.0255 1
-1 10 0 606.036 67.1155 -2
1 -10 1 606.036 67.1155 1
-1 10 1 135.15 64.0278 -2
1 -10 2 135.15 64.0278 1
-1 10 2 1886.88 80.0044 -2
1 -10 3 1886.88 80.0044 1
1 -10 -3 1950.25 84.8171 -2
-1 10 -4 1950.25 84.8171 1
1 -10 -4 4303.84 145.05 -2
-1 10 -5 4303.84 145.05 1
1 -10 -5 2545.82 94.6244 -2
-1 10 -6 2545.82 94.6244 1
1 -10 -6 1557.09 135.62 -2
-1 10 -7 1557.09 135.62 1
1 -10 -7 619.28 131.05 -2
-1 10 -8 619.28 131.05 1
1 -10 -8 149.325 135.2 -2
-1 10 -9 149.325 135.2 1
1 -10 -9 377.834 143.173 -2
-1 10 -10 377.834 143.173 1
1 -10 -10 343.982 151.908 -2
-1 10 -11 343.982 151.908 1
1 -10 -11 176.928 164.852 -2
-1 10 -12 176.928 164.852 1
1 -10 -12 772.587 187.698 -2
-1 10 -13 772.587 187.698 1
1 -10 -13 2829.58 231.03 -2
-1 10 -14 2829.58 231.03 1
1 -10 -14 2868.1 256.35 -2
-1 10 -15 2868.1 256.35 1
1 -10 -15 395.734 238.726 -2
-1 10 -16 395.734 238.726 1
1 -10 -16 588.092 276.59 -2
-1 10 -17 588.092 276.59 1
-1 9 -18 407.109 181.555 -2
1 -9 -17 407.109 181.555 1
-1 9 -17 719.253 168.093 -2
1 -9 -16 719.253 168.093 1
1 -9 16 722.849 154.789 -2
-1 9 15 722.849 154.789 1
1 -9 15 1490.03 147.754 -2
-1 9 14 1490.03 147.754 1
1 -9 14 1111.88 135.166 -2
-1 9 13 1111.88 135.166 1
-1 9 -13 2253.4 134.052 -2
1 -9 -12 2253.4 134.052 1
1 -9 12 238.102 109.924 -2
-1 9 11 238.102 109.924 1
1 -9 11 764.252 105.368 -2
-1 9 10 764.252 105.368 1
-1 9 -10 1483.24 105.433 -2
1 -9 -9 1483.24 105.433 1
-1 9 -9 1737.26 103.472 -2
1 -9 -8 1737.26 103.472 1
1 -9 8 675.504 89.1589 -2
-1 9 7 675.504 89.1589 1
-1 9 -7 4746.83 155.719 -2
1 -9 -6 4746.83 155.719 1
-1 9 -6 718.33 112.403 -2
1 -9 -5 718.33 112.403 1
-1 9 -5 1456.52 117.902 -2
1 -9 -4 1456.52 117.902 1
-1 9 -4 1813.13 116.982 -2
1 -9 -3 1813.13 116.982 1
1 -9 3 684.804 53.5664 -2
-1 9 2 684.804 53.5664 1
-1 9 -2 137.383 53.0423 -2
1 -9 -1 137.383 53.0423 1
1 -9 1 1098.27 60.8881 -2
-1 9 0 1098.27 60.8881 1
1 -9 0 2139.39 69.6678 -2
-1 9 -1 2139.39 69.6678 1
1 -9 -1 244.966 58.7631 -2
-1 9 -2 244.966 58.7631 1
-1 9 2 1224.25 67.8416 -2
1 -9 3 1224.25 67.8416 1
-1 9 3 1101.09 67.5378 -2
1 -9 4 1101.09 67.5378 1
-1 9 4 806.399 67.2688 -2
1 -9 5 806.399 67.2688 1
1 -9 -5 1327.21 72.2165 -2
-1 9 -6 1327.21 72.2165 1
1 -9 -6 2487.12 78.8951 -2
-1 9 -7 2487.12 78.8951 1
1 -9 -7 951.467 76.6613 -2
-1 9 -8 951.467 76.6613 1
1 -9 -8 1898.63 86.5905 -2
-1 9 -9 1898.63 86.5905 1
1 -9 -9 2457.57 151.013 -2
-1 9 -10 2457.57 151.013 1
1 -9 -10 368.026 138.077 -2
-1 9 -11 368.026 138.077 1
1 -9 -11 233.689 140.6 -2
-1 9 -12 233.689 140.6 1
1 -9 -12 1434.33 171.033 -2
-1 9 -13 1434.33 171.033 1
1 -9 -13 1258.52 186.071 -2
-1 9 -14 1258.52 186.071 1
1 -9 -14 1329.18 203.979 -2
-1 9 -15 1329.18 203.979 1
1 -9 -15 333.808 208.746 -2
-1 9 -16 333.808 208.746 1
1 -9 -16 988.487 238.214 -2
-1 9 -17 988.487 238.214 1
1 -9 -17 779.013 264.539 -2
-1 9 -18 779.013 264.539 1
-1 8 -19 560.047 178.585 -2
1 -8 -18 560.047 178.585 1
-1 8 -18 164.199 162.958 -2
1 -8 -17 164.199 162.958 1
1 -8 17 607.962 151.837 -2
-1 8 16 607.962 151.837 1
-1 8 -16 549.964 137.348 -2
1 -8 -15 549.964 137.348 1
-1 8 -15 311.58 125.341 -2
1 -8 -14 311.58 125.341 1
1 -8 14 744.064 118.498 -2
-1 8 13 744.064 118.498 1
-1 8 -13 355.96 106.943 -2
1 -8 -12 355.96 106.943 1
-1 8 -12 710.045 103.249 -2
1 -8 -11 710.045 103.249 1
1 -8 11 540.562 94.6135 -2
-1 8 10 540.562 94.6135 1
-1 8 -10 285.797 83.9315 -2
1 -8 -9 285.797 83.9315 1
1 -8 9 751.326 83.8506 -2
-1 8 8 751.326 83.8506 1
1 -8 8 1017.68 79.485 -2
-1 8 7 1017.68 79.485 1
1 -8 -6 1508.29 93.768 1
1 -8 7 1504.56 120.581 -2
-1 8 6 1504.56 120.581 1
-1 8 -6 11290.3 66.3099 -2
1 -8 -5 11290.3 66.3099 1
1 -8 -4 3410.81 106.479 1
1 -8 5 3373.64 59.98 -2
-1 8 4 3373.64 59.98 1
1 -8 -3 6359.73 125.126 1
1 -8 4 6526.58 77.4428 -2
-1 8 3 6526.58 77.4428 1
1 -8 -2 3114.77 97.113 1
1 -8 3 6576.9 82.8367 -2
-1 8 2 6576.9 82.8367 1
1 -8 -1 827.633 72.0237 1
1 -8 2 2271.09 67.6488 -2
-1 8 1 2271.09 67.6488 1
1 -8 0 1682.27 78.3428 1
1 -8 1 2673.43 71.5302 -2
-1 8 0 2673.43 71.5302 1
1 -8 1 2474.81 83.5934 1
1 -8 0 3121.44 78.5155 -2
-1 8 -1 3121.44 78.5155 1
1 -8 2 2564.02 80.0974 1
1 -8 -1 3136.66 86.1475 -2
-1 8 -2 3136.66 86.1475 1
1 -8 3 7198.37 115.522 1
1 -8 -2 8992.58 124.799 -2
-1 8 -3 8992.58 124.799 1
1 -8 4 321.11 61.9203 1
1 -8 -3 3590.84 102.612 -2
-1 8 -4 3590.84 102.612 1
1 -8 5 233.449 58.6714 1
1 -8 -4 2057.28 100.327 -2
-1 8 -5 2057.28 100.327 1
-1 8 -6 352.64 67.2835 1
1 -8 -5 5317.78 121.766 -2
-1 8 -6 5317.78 121.766 1
-1 8 -7 55.7514 60.2413 1
1 -8 -6 782.836 95.9907 -2
-1 8 -7 782.836 95.9907 1
-1 8 -8 1871.65 80.0457 1
1 -8 -7 1812.32 109.731 -2
-1 8 -8 1812.32 109.731 1
-1 8 -9 257.393 70.7942 1
1 -8 -8 648.018 109.818 -2
-1 8 -9 648.018 109.818 1
1 -8 -9 297.112 115.801 -2
-1 8 -10 297.112 115.801 1
1 -8 -10 897.07 127.37 -2
-1 8 -11 897.07 127.37 1
1 -8 -11 461.496 134.195 -2
-1 8 -12 461.496 134.195 1
1 -8 -12 349.975 142.43 -2
-1 8 -13 349.975 142.43 1
1 -8 -13 562.129 156.348 -2
-1 8 -14 562.129 156.348 1
1 -8 -14 371.418 170.057 -2
-1 8 -15 371.418 170.057 1
-1 8 -16 353.992 159.552 1
1 -8 -16 546.7 204.115 -2
-1 8 -17 546.7 204.115 1
-1 8 -18 251.377 183.044 1
1 -8 -18 717.312 254.371 -2
-1 8 -19 717.312 254.371 1
-1 7 19 322.973 144.298 1
1 -7 -18 308.907 129.204 1
1 -7 -17 802.384 123.285 1
-1 7 16 623.589 158.596 1
-1 7 15 573.529 145.99 1
-1 7 14 73.0264 127.815 1
-1 7 13 73.2969 117.713 1
-1 7 12 59.555 112.102 1
-1 7 11 237.308 105.634 1
-1 7 10 118.14 97.1061 1
-1 7 9 459.504 65.0037 1
1 -7 -8 15.6023 56.945 1
-1 7 7 345.999 57.5229 1
-1 7 6 135.971 53.2807 1
1 -7 -5 105.092 29.8346 1
-1 7 4 23611.3 94.6196 1
1 -7 -3 36134.5 128.31 1
1 -7 -2 7489.03 66.8017 1
-1 7 1 4713.79 57.044 1
-1 7 0 7851.1 71.9965 1
-1 7 -1 927.653 40.9693 1
1 -7 2 1654.45 44.4468 1
1 -7 3 375.783 40.431 1
-1 7 -4 414.088 42.7279 1
-1 7 -5 905.139 47.6321 1
-1 7 -6 2720.56 60.91 1
-1 7 -7 573.405 47.0287 1
-1 7 -8 39.3693 45.2488 1
-1 7 -9 32.8849 50.7189 1
-1 7 -10 80.057 91.16 1
-1 7 -11 55.3384 96.8044 1
-1 7 -12 1045.74 119.927 1
-1 7 -13 727.2 118.932 1
-1 7 -14 68.8014 118.379 1
-1 7 -15 543.681 135.34 1
-1 7 -16 99.6868 142.134 1
-1 7 -17 110.695 152.913 1
-1 7 -18 1908.33 184.629 1
-1 7 -19 251.387 189.457 1
-1 7 -20 92.7712 212.552 1
1 -6 20 359.981 262.816 -2
-1 6 20 359.981 262.816 1
1 -6 19 216.959 234.805 -2
-1 6 19 216.959 234.805 1
1 -6 18 173.886 208.996 -2
-1 6 18 173.886 208.996 1
1 -6 17 1081.81 197.727 -2
-1 6 17 1081.81 197.727 1
1 -6 16 1300.22 181.53 -2
-1 6 16 1300.22 181.53 1
1 -6 15 8762.77 220.93 -2
-1 6 15 8762.77 220.93 1
1 -6 14 575.084 150.914 -2
-1 6 14 575.084 150.914 1
1 -6 13 409.339 133.473 -2
-1 6 13 409.339 133.473 1
1 -6 12 1633.45 135.801 -2
-1 6 12 1633.45 135.801 1
1 -6 11 1277.36 123.508 -2
-1 6 11 1277.36 123.508 1
1 -6 10 1476.75 118.433 -2
-1 6 10 1476.75 118.433 1
1 -6 9 4102.53 132.614 -2
-1 6 9 4102.53 132.614 1
1 -6 8 2563.67 111.701 -2
-1 6 8 2563.67 111.701 1
1 -6 7 1420.1 98.638 -2
-1 6 7 1420.1 98.638 1
1 -6 6 7547.37 90.1257 -2
-1 6 6 7547.37 90.1257 1
1 -6 5 3130.15 68.1144 -2
-1 6 5 3130.15 68.1144 1
-1 6 4 2527.37 58.1759 1
1 -6 -3 1131.84 31.7523 1
1 -6 -2 192.662 29.2216 1
1 -6 -1 653.096 32.2266 1
1 -6 0 1025.94 56.2702 1
1 -6 0 1631.03 55.4093 -2
-1 6 0 1631.03 55.4093 1
1 -6 1 9314.6 72.502 1
1 -6 2 418.426 47.401 1
1 -6 -2 534.569 55.9054 -2
-1 6 -2 534.569 55.9054 1
1 -6 3 7.65032 46.3244 1
1 -6 -3 633.558 60.394 -2
-1 6 -3 633.558 60.394 1
1 -6 4 130.134 46.6611 1
1 -6 -4 1453.32 73.0397 -2
-1 6 -4 1453.32 73.0397 1
-1 6 -5 1939.5 63.9383 1
1 -6 -5 3061.11 92.3634 -2
-1 6 -5 3061.11 92.3634 1
-1 6 -6 16099 135.847 1
1 -6 -6 15688.3 162.938 -2
-1 6 -6 15688.3 162.938 1
-1 6 -7 2195.1 54.7049 1
-1 6 -8 350.956 59.1659 1
1 -6 -8 1725.14 96.4243 -2
-1 6 -8 1725.14 96.4243 1
1 -6 -9 2934.65 110.577 -2
-1 6 -9 2934.65 110.577 1
1 -6 -10 1049.99 106.276 -2
-1 6 -10 1049.99 106.276 1
1 -6 -11 1641.08 121.102 -2
-1 6 -11 1641.08 121.102 1
1 -6 -12 2795.02 138.646 -2
-1 6 -12 2795.02 138.646 1
1 -6 -13 569.491 128.007 -2
-1 6 -13 569.491 128.007 1
1 -6 -14 730.7 142.081 -2
-1 6 -14 730.7 142.081 1
1 -6 -15 4651.94 184.769 -2
-1 6 -15 4651.94 184.769 1
1 -6 -16 856.252 173.948 -2
-1 6 -16 856.252 173.948 1
1 -6 -17 556.301 187.435 -2
-1 6 -17 556.301 187.435 1
1 -6 -18 407.314 207.813 -2
-1 6 -18 407.314 207.813 1
1 -6 -19 278.177 228.77 -2
-1 6 -19 278.177 228.77 1
1 -6 -20 586.88 261.602 -2
-1 6 -20 586.88 261.602 1
1 -5 21 1849.07 291.384 -2
-1 5 21 1849.07 291.384 1
1 -5 20 371.224 247.316 -2
-1 5 20 371.224 247.316 1
1 -5 19 427.402 227.888 -2
-1 5 19 427.402 227.888 1
1 -5 18 852.083 212.096 -2
-1 5 18 852.083 212.096 1
1 -5 17 1165.16 196.342 -2
-1 5 17 1165.16 196.342 1
1 -5 16 6194.74 233.392 -2
-1 5 16 6194.74 233.392 1
1 -5 15 1805.96 174.85 -2
-1 5 15 1805.96 174.85 1
1 -5 14 344.611 141.665 -2
-1 5 14 344.611 141.665 1
1 -5 13 438.793 128.471 -2
-1 5 13 438.793 128.471 1
1 -5 12 1278.16 131.292 -2
-1 5 12 1278.16 131.292 1
1 -5 11 1208.09 122.397 -2
-1 5 11 1208.09 122.397 1
1 -5 10 830.599 113.495 -2
-1 5 10 830.599 113.495 1
1 -5 9 260.953 94.709 -2
-1 5 9 260.953 94.709 1
1 -5 8 2002.77 106.603 -2
-1 5 8 2002.77 106.603 1
1 -5 7 2082.04 62.7032 -2
-1 5 7 2082.04 62.7032 1
1 -5 6 32752.1 159.46 -2
-1 5 6 32752.1 159.46 1
1 -5 5 1168.62 51.2646 -2
-1 5 5 1168.62 51.2646 1
1 -5 4 1337.83 52.3626 -2
-1 5 4 1337.83 52.3626 1
1 -5 3 4161.53 62.7186 -2
-1 5 3 4161.53 62.7186 1
1 -5 2 1551.41 32.9123 -2
-1 5 2 1551.41 32.9123 1
1 -5 1 7797.61 61.0406 -2
-1 5 1 7797.61 61.0406 1
1 -5 0 1194.84 37.1281 -2
-1 5 0 1194.84 37.1281 1
1 -5 -1 11563.1 72.7921 -2
-1 5 -1 11563.1 72.7921 1
1 -5 -2 907.485 39.5462 -2
-1 5 -2 907.485 39.5462 1
1 -5 -3 8292.65 68.5013 -2
-1 5 -3 8292.65 68.5013 1
-1 5 4 1388.24 46.4667 -2
1 -5 4 1388.24 46.4667 1
1 -5 -5 2241.1 52.607 -2
-1 5 -5 2241.1 52.607 1
1 -5 -6 61275.1 192.515 -2
-1 5 -6 61275.1 192.515 1
1 -5 -7 2535.51 60.7525 -2
-1 5 -7 2535.51 60.7525 1
1 -5 -8 3019.95 70.7763 -2
-1 5 -8 3019.95 70.7763 1
1 -5 -9 849.834 90.5094 -2
-1 5 -9 849.834 90.5094 1
1 -5 -10 1050.29 102.881 -2
-1 5 -10 1050.29 102.881 1
1 -5 -11 569.488 106.114 -2
-1 5 -11 569.488 106.114 1
1 -5 -12 1194.43 121.777 -2
-1 5 -12 1194.43 121.777 1
1 -5 -13 658.071 122.96 -2
-1 5 -13 658.071 122.96 1
1 -5 -14 151.942 127.985 -2
-1 5 -14 151.942 127.985 1
1 -5 -15 1158.91 152.976 -2
-1 5 -15 1158.91 152.976 1
1 -5 -16 3580.91 200.144 -2
-1 5 -16 3580.91 200.144 1
1 -5 -17 888.313 183.808 -2
-1 5 -17 888.313 183.808 1
1 -5 -18 647.19 196.886 -2
-1 5 -18 647.19 196.886 1
1 -5 -19 179.8 210.175 -2
-1 5 -19 179.8 210.175 1
1 -5 -20 387.404 244.532 -2
-1 5 -20 387.404 244.532 1
1 -5 -21 904.855 290.046 -2
-1 5 -21 904.855 290.046 1
1 -4 21 2336.01 296.249 -2
-1 4 21 2336.01 296.249 1
1 -4 20 1108.5 248.78 -2
-1 4 20 1108.5 248.78 1
1 -4 19 388.983 214.53 -2
-1 4 19 388.983 214.53 1
1 -4 18 783.54 201.191 -2
-1 4 18 783.54 201.191 1
-1 4 -17 2974.87 142.907 -2
1 -4 -17 2974.87 142.907 1
-1 4 -16 7771.41 161.794 -2
1 -4 -16 7771.41 161.794 1
-1 4 -15 3466.62 120.767 -2
1 -4 -15 3466.62 120.767 1
-1 4 -14 235.146 82.2253 -2
1 -4 -14 235.146 82.2253 1
-1 4 -13 91.5333 73.0764 -2
1 -4 -13 91.5333 73.0764 1
-1 4 -12 4009.12 101.435 -2
1 -4 -12 4009.12 101.435 1
1 -4 11 7010.41 114.369 -2
-1 4 11 7010.41 114.369 1
1 -4 10 2843.37 80.9293 -2
-1 4 10 2843.37 80.9293 1
-1 4 -9 3338.04 79.5605 -2
1 -4 -9 3338.04 79.5605 1
1 -4 8 2456.18 50.0943 -2
-1 4 8 2456.18 50.0943 1
1 -4 7 7869 90.7909 -2
-1 4 7 7869 90.7909 1
1 -4 6 616.475 43.8797 -2
-1 4 6 616.475 43.8797 1
1 -4 5 9307.25 92.8228 -2
-1 4 5 9307.25 92.8228 1
1 -4 4 4459.61 67.8149 -2
-1 4 4 4459.61 67.8149 1
-1 4 -3 198.638 35.5211 -2
1 -4 -3 198.638 35.5211 1
1 -4 2 4309.91 63.8615 -2
-1 4 2 4309.91 63.8615 1
1 -4 1 20047.7 105.087 -2
-1 4 1 20047.7 105.087 1
1 -4 0 52029.1 165.129 -2
-1 4 0 52029.1 165.129 1
-1 4 1 16122.9 98.074 -2
1 -4 1 16122.9 98.074 1
1 -4 -2 8125.45 75.6455 -2
-1 4 -2 8125.45 75.6455 1
1 -4 -3 168.503 34.5244 -2
-1 4 -3 168.503 34.5244 1
1 -4 -4 8190.26 81.681 -2
-1 4 -4 8190.26 81.681 1
1 -4 -5 11642.7 100.32 -2
-1 4 -5 11642.7 100.32 1
1 -4 -6 383.33 43.025 -2
-1 4 -6 383.33 43.025 1
1 -4 -7 6351.18 88.4502 -2
-1 4 -7 6351.18 88.4502 1
1 -4 -8 4174.6 119.782 -2
-1 4 -8 4174.6 119.782 1
1 -4 -9 3487.69 119.911 -2
-1 4 -9 3487.69 119.911 1
1 -4 -10 4410.6 133.835 -2
-1 4 -10 4410.6 133.835 1
1 -4 -11 14805.5 226.721 -2
-1 4 -11 14805.5 226.721 1
1 -4 -12 6727.43 178.293 -2
-1 4 -12 6727.43 178.293 1
1 -4 -13 113.615 108.124 -2
-1 4 -13 113.615 108.124 1
1 -4 -14 307.385 119.205 -2
-1 4 -14 307.385 119.205 1
1 -4 -15 1704.7 157.452 -2
-1 4 -15 1704.7 157.452 1
1 -4 -16 4964.51 215.93 -2
-1 4 -16 4964.51 215.93 1
1 -4 -17 1674.46 185.621 -2
-1 4 -17 1674.46 185.621 1
1 -4 -18 840.117 192.963 -2
-1 4 -18 840.117 192.963 1
1 -4 -19 593.466 205.93 -2
-1 4 -19 593.466 205.93 1
1 -4 -20 754.911 240.495 -2
-1 4 -20 754.911 240.495 1
1 -4 -21 1505.43 281.395 -2
-1 4 -21 1505.43 281.395 1
1 -3 21 420.926 257.469 -2
-1 3 21 420.926 257.469 1
1 -3 20 436.978 228.813 -2
-1 3 20 436.978 228.813 1
-1 3 -19 934.022 188.377 -2
1 -3 -19 934.022 188.377 1
-1 3 -18 926.077 167.917 -2
1 -3 -18 926.077 167.917 1
-1 3 -17 901.08 149.514 -2
1 -3 -17 901.08 149.514 1
-1 3 -16 1805.38 141.022 -2
1 -3 -16 1805.38 141.022 1
-1 3 -15 675.858 118.799 -2
1 -3 -15 675.858 118.799 1
-1 3 -14 126.541 102.367 -2
1 -3 -14 126.541 102.367 1
-1 3 -13 3402.72 121.554 -2
1 -3 -13 3402.72 121.554 1
-1 3 -12 2538.73 105.849 -2
1 -3 -12 2538.73 105.849 1
-1 3 -11 9553.76 140.455 -2
1 -3 -11 9553.76 140.455 1
-1 3 -10 972.575 76.2859 -2
1 -3 -10 972.575 76.2859 1
-1 3 -9 93.2583 62.455 -2
1 -3 -9 93.2583 62.455 1
1 -3 8 409.489 35.1752 -2
-1 3 8 409.489 35.1752 1
1 -3 7 4715.55 53.177 -2
-1 3 7 4715.55 53.177 1
1 -3 6 24422.3 86.9623 -2
-1 3 6 24422.3 86.9623 1
1 -3 5 7273.74 64.1903 -2
-1 3 5 7273.74 64.1903 1
1 -3 4 11974.5 74.7779 -2
-1 3 4 11974.5 74.7779 1
1 -3 3 211.518 49.7886 -2
-1 3 3 211.518 49.7886 1
-1 3 2 84.4028 26.6132 1
-1 3 1 3214.92 39.706 1
-1 3 0 123.603 22.9973 1
-1 3 -1 35283.1 100.275 1
1 -3 2 2013.64 47.2207 1
1 -3 -2 2036.79 53.6856 -2
-1 3 -2 2036.79 53.6856 1
1 -3 3 19.8454 32.8967 1
1 -3 -3 84.2464 48.6802 -2
-1 3 -3 84.2464 48.6802 1
-1 3 -4 4467.93 65.759 1
1 -3 -4 9579.1 98.4756 -2
-1 3 -4 9579.1 98.4756 1
-1 3 -5 645.654 42.428 1
1 -3 -5 4706.36 83.3567 -2
-1 3 -5 4706.36 83.3567 1
1 -3 -6 24955.3 112.073 -2
-1 3 -6 24955.3 112.073 1
-1 3 -7 863.585 53.9667 1
1 -3 -7 3254.32 93.0054 -2
-1 3 -7 3254.32 93.0054 1
1 -3 -8 267.472 69.9086 -2
-1 3 -8 267.472 69.9086 1
1 -3 -9 136.88 73.5958 -2
-1 3 -9 136.88 73.5958 1
1 -3 -10 1713.83 96.6748 -2
-1 3 -10 1713.83 96.6748 1
1 -3 -11 5796.32 135.843 -2
-1 3 -11 5796.32 135.843 1
1 -3 -12 3598.38 127.658 -2
-1 3 -12 3598.38 127.658 1
1 -3 -13 2214.98 121.251 -2
-1 3 -13 2214.98 121.251 1
1 -3 -14 228.097 112.905 -2
-1 3 -14 228.097 112.905 1
1 -3 -15 270.599 127.891 -2
-1 3 -15 270.599 127.891 1
1 -3 -16 2029.99 160.753 -2
-1 3 -16 2029.99 160.753 1
1 -3 -17 691.473 163.233 -2
-1 3 -17 691.473 163.233 1
1 -3 -18 1017.02 185 -2
-1 3 -18 1017.02 185 1
1 -3 -19 1680.01 209.952 -2
-1 3 -19 1680.01 209.952 1
1 -3 -20 461.101 224.606 -2
-1 3 -20 461.101 224.606 1
1 -3 -21 439.99 281.069 -2
-1 3 -21 439.99 281.069 1
1 -3 -22 602.189 337.661 -2
-1 3 -22 602.189 337.661 1
-1 2 -21 444.259 234.667 -2
1 -2 -21 444.259 234.667 1
-1 2 -20 508.739 202.631 -2
1 -2 -20 508.739 202.631 1
-1 2 -19 1091.36 185.454 -2
1 -2 -19 1091.36 185.454 1
-1 2 -18 373.629 159.762 -2
1 -2 -18 373.629 159.762 1
-1 2 -17 2363.13 161.348 -2
1 -2 -17 2363.13 161.348 1
-1 2 -16 983.384 137.677 -2
1 -2 -16 983.384 137.677 1
-1 2 -15 149.268 118.484 -2
1 -2 -15 149.268 118.484 1
1 -2 -14 957.452 96.1688 1
-1 2 -13 2733.59 116.859 -2
1 -2 -13 2733.59 116.859 1
1 -2 -12 12504.8 155.264 1
1 -2 -11 27713.2 206.349 1
1 -2 -10 1428.17 70.2496 1
1 -2 -9 45.1395 50.8801 1
1 -2 -8 -15.6164 43.3684 1
1 -2 -7 7745.76 51.1604 1
1 -2 7 9452.85 63.0676 -2
-1 2 7 9452.85 63.0676 1
1 -2 -6 110.696 20.9778 1
1 -2 6 328.013 31.49 -2
-1 2 6 328.013 31.49 1
1 -2 -5 663.451 23.4543 1
1 -2 5 1649.37 37.9596 -2
-1 2 5 1649.37 37.9596 1
1 -2 -4 11977.3 54.9729 1
-1 2 3 4520.9 30.7575 1
1 -2 -2 22890.2 60.7885 1
1 -2 -1 1427.39 22.6235 1
1 -2 0 44278.3 78.8388 1
1 -2 1 655.663 17.2866 1
1 -2 2 6512.91 45.5306 1
-1 2 -3 2927.94 38.5018 1
-1 2 -4 1887.55 35.527 1
-1 2 -5 1801.4 39.1732 1
-1 2 -6 359.339 51.4167 1
-1 2 -7 3775.08 83.2312 1
-1 2 -8 2023.26 71.071 1
-1 2 -9 16720.1 163.86 1
-1 2 -10 38784 259.764 1
-1 2 -11 10284 155.677 1
-1 2 -12 1011.36 87.0871 1
-1 2 -13 1171.79 96.4685 1
-1 2 -14 724.4 97.4116 1
-1 2 -15 13.2399 101.846 1
-1 2 -16 463.451 111.006 1
-1 2 -17 570.817 126.028 1
-1 2 -18 84.6788 131.126 1
-1 2 -19 308.656 149.61 1
-1 2 -20 127.227 170.62 1
-1 2 -21 188.362 187.711 1
-1 2 -22 213.356 211.24 1
1 -1 -22 58.2782 206.071 1
1 -1 -21 170.281 181.829 1
1 -1 -20 61.1964 157.447 1
1 -1 -19 446.151 140.599 1
1 -1 -18 923.263 137.205 1
1 -1 -17 1744.2 130.286 1
1 -1 -16 1004.1 111.282 1
1 -1 -15 29.5105 88.7913 1
1 -1 -14 43.4744 73.9248 1
1 -1 -13 148.679 74.2475 1
1 -1 -12 6913.32 124.418 1
1 -1 -11 1693.37 79.4541 1
1 -1 -10 14.4394 56.6571 1
1 -1 -9 -21.7197 51.4211 1
1 -1 -8 3220.04 74.7541 1
1 -1 -7 3597.74 70.5668 1
1 -1 -6 38209.3 169.914 1
1 -1 -5 9474.47 38.6007 1
1 -1 -4 8815.68 37.1009 1
1 -1 -3 4264.03 24.6863 1
1 -1 -2 203.168 16.8388 1
1 -1 -1 475.694 11.7527 1
1 -1 0 39001.8 75.3381 1
-1 1 -1 42427.1 60.93 1
-1 1 -2 660.356 17.1807 1
-1 1 -3 2706.68 35.7996 1
-1 1 -4 15901.1 73.7916 1
-1 1 -5 4851.82 73.9761 1
-1 1 -6 24629.5 155.789 1
-1 1 -7 1561.95 60.4515 1
-1 1 -8 2787.81 74.4598 1
-1 1 -9 1155.22 68.7589 1
-1 1 -10 54.4858 63.7421 1
-1 1 -11 3502.85 101.106 1
-1 1 -12 1430.57 87.9166 1
1 -1 13 279.052 40.7486 1
-1 1 -14 789.876 95.5968 1
-1 1 -15 392.324 97.0503 1
-1 1 -16 1517.3 122.763 1
-1 1 -17 351.544 119.981 1
-1 1 -18 249.714 132.412 1
-1 1 -19 132.845 148.725 1
-1 1 -20 156.768 165.984 1
-1 1 -21 125.233 181.291 1
-1 1 -22 195.809 221.119 1
1 0 -23 188.536 238.745 1
1 0 -22 162.715 204.484 1
-1 0 -20 481.38 221.563 -2
1 0 -21 481.38 221.563 1
-1 0 -19 232.033 196.499 -2
1 0 -20 232.033 196.499 1
-1 0 -18 297.215 176.21 -2
1 0 -19 297.215 176.21 1
-1 0 -17 517.795 159.089 -2
1 0 -18 517.795 159.089 1
-1 0 -16 1123.32 147.723 -2
1 0 -17 1123.32 147.723 1
-1 0 -15 5625.53 179.987 -2
1 0 -16 5625.53 179.987 1
-1 0 -14 485.845 138.943 -2
1 0 -15 485.845 138.943 1
1 0 -14 348.378 88.2771 1
1 0 -13 230.491 75.8903 1
-1 0 -11 1955.43 100.901 -2
1 0 -12 1955.43 100.901 1
-1 0 -10 9478.74 138.836 -2
1 0 -11 9478.74 138.836 1
-1 0 -9 382.931 73.3157 -2
1 0 -10 382.931 73.3157 1
-1 0 -8 916.845 68.9282 -2
1 0 -9 916.845 68.9282 1
-1 0 -7 1455.58 67.433 -2
1 0 -8 1455.58 67.433 1
-1 0 -6 14194.6 117.381 -2
1 0 -7 14194.6 117.381 1
-1 0 -5 25737 138.755 -2
1 0 -6 25737 138.755 1
-1 0 -4 31159.3 139.856 -2
1 0 -5 31159.3 139.856 1
-1 0 -3 21538.4 110.946 -2
1 0 -4 21538.4 110.946 1
-1 0 3 56853.2 151.851 1
1 0 -2 161030 629.655 1
-1 0 1 68528.9 230.341 1
1 0 0 2021.39 17.6508 1
-1 0 -1 57038.9 119.874 1
1 0 2 13006.9 37.1988 1
-1 0 -3 23012.7 72.4877 1
-1 0 -4 6985.55 68.7719 1
-1 0 -5 182.578 39.9273 1
-1 0 -6 411.824 42.8679 1
-1 0 -7 74.7795 43.2668 1
-1 0 -8 1556.12 62.7837 1
1 0 -10 307.686 68.685 -2
-1 0 -9 307.686 68.685 1
-1 0 -10 12779.9 140.79 1
-1 0 11 14277.2 105.251 -2
1 0 10 14277.2 105.251 1
1 0 -12 1918.1 52.8293 -2
-1 0 -11 1918.1 52.8293 1
1 0 -13 540.651 49.3147 -2
-1 0 -12 540.651 49.3147 1
1 0 -14 372.71 100.763 -2
-1 0 -13 372.71 100.763 1
1 0 -15 433.738 114.122 -2
-1 0 -14 433.738 114.122 1
1 0 -16 8290.62 176.234 -2
-1 0 -15 8290.62 176.234 1
1 0 -17 707.45 146.876 -2
-1 0 -16 707.45 146.876 1
1 0 -18 322.854 161.471 -2
-1 0 -17 322.854 161.471 1
1 0 -19 294.381 195.546 -2
-1 0 -18 294.381 195.546 1
1 0 -20 207.026 212.265 -2
-1 0 -19 207.026 212.265 1
1 0 -21 320.859 223.127 -2
-1 0 -20 320.859 223.127 1
1 0 -22 442.294 256.233 -2
-1 0 -21 442.294 256.233 1
-1 -1 -22 829.25 290.262 -2
1 1 -23 829.25 290.262 1
-1 -1 -21 336.43 250.791 -2
1 1 -22 336.43 250.791 1
-1 -1 -20 859.326 228.118 -2
1 1 -21 859.326 228.118 1
-1 -1 -19 279.365 200.075 -2
1 1 -20 279.365 200.075 1
-1 -1 -18 -11.4956 176.561 -2
1 1 -19 -11.4956 176.561 1
-1 -1 -17 542.313 166.852 -2
1 1 -18 542.313 166.852 1
-1 -1 -16 2328.22 198.413 -2
1 1 -17 2328.22 198.413 1
-1 -1 -15 99.8946 146.442 -2
1 1 -16 99.8946 146.442 1
-1 -1 -14 3254.97 163.607 -2
1 1 -15 3254.97 163.607 1
-1 -1 -13 1048.97 121.553 -2
1 1 -14 1048.97 121.553 1
-1 -1 -12 595.883 102.762 -2
1 1 -13 595.883 102.762 1
-1 -1 -11 3189.4 121.504 -2
1 1 -12 3189.4 121.504 1
-1 -1 -10 11098.1 173.442 -2
1 1 -11 11098.1 173.442 1
-1 -1 -9 2422.19 101.299 -2
1 1 -10 2422.19 101.299 1
-1 -1 -8 1004.35 78.6956 -2
1 1 -9 1004.35 78.6956 1
-1 -1 -7 13821.1 160.11 -2
1 1 -8 13821.1 160.11 1
-1 -1 -6 1330.67 69.4627 -2
1 1 -7 1330.67 69.4627 1
1 1 5 3633.21 26.8019 -2
-1 -1 6 3633.21 26.8019 1
1 1 4 37322.4 80.8454 -2
-1 -1 5 37322.4 80.8454 1
1 1 -4 3449.97 30.279 1
-1 -1 -3 14437 54.5036 -2
1 1 -4 14437 54.5036 1
-1 -1 -2 46084.4 68.0107 -2
1 1 -3 46084.4 68.0107 1
-1 -1 -1 53292.3 87.7828 -2
1 1 -2 53292.3 87.7828 1
1 1 -1 1793.78 19.956 1
-1 -1 0 8031.66 39.264 -2
1 1 -1 8031.66 39.264 1
1 1 0 11704.4 34.2553 1
-1 -1 1 12178.4 41.3467 -2
1 1 0 12178.4 41.3467 1
-1 -1 -1 1638.8 18.4984 1
-1 -1 2 32959.6 139.448 -2
1 1 1 32959.6 139.448 1
1 1 2 2591.52 21.9179 1
-1 -1 3 29360.4 140.484 -2
1 1 2 29360.4 140.484 1
-1 -1 4 21530.3 54.9622 -2
1 1 3 21530.3 54.9622 1
1 1 -5 24797.9 87.9112 -2
-1 -1 -4 24797.9 87.9112 1
1 1 -6 6070.99 53.392 -2
-1 -1 -5 6070.99 53.392 1
1 1 -7 2257.21 43.7609 -2
-1 -1 -6 2257.21 43.7609 1
-1 -1 8 8323.56 72.0129 -2
1 1 7 8323.56 72.0129 1
-1 -1 9 1502.38 45.4649 -2
1 1 8 1502.38 45.4649 1
-1 -1 10 4512.9 65.6118 -2
1 1 9 4512.9 65.6118 1
1 1 -11 19079.2 118.146 -2
-1 -1 -10 19079.2 118.146 1
1 1 -12 5372.61 72.9684 -2
-1 -1 -11 5372.61 72.9684 1
-1 -1 13 450.588 52.5388 -2
1 1 12 450.588 52.5388 1
1 1 -14 1447.74 61.04 -2
-1 -1 -13 1447.74 61.04 1
1 1 -15 5241.85 159.428 -2
-1 -1 -14 5241.85 159.428 1
1 1 -16 219.679 128.829 -2
-1 -1 -15 219.679 128.829 1
1 1 -17 3486.48 178.011 -2
-1 -1 -16 3486.48 178.011 1
1 1 -18 729.985 203.222 -2
-1 -1 -17 729.985 203.222 1
1 1 -19 152.842 177.07 -2
-1 -1 -18 152.842 177.07 1
1 1 -20 192.79 194.684 -2
-1 -1 -19 192.79 194.684 1
1 1 -21 1230.65 233.411 -2
-1 -1 -20 1230.65 233.411 1
-1 -2 -21 248.273 260.617 -2
1 2 -22 248.273 260.617 1
-1 -2 -20 477.752 233.404 -2
1 2 -21 477.752 233.404 1
-1 -2 -19 324.047 206.527 -2
1 2 -20 324.047 206.527 1
-1 -2 -18 171.395 185.273 -2
1 2 -19 171.395 185.273 1
-1 -2 -17 411.732 201.65 -2
1 2 -18 411.732 201.65 1
-1 -2 -16 960.692 183.672 -2
1 2 -17 960.692 183.672 1
-1 -2 -15 618.056 153.985 -2
1 2 -16 618.056 153.985 1
-1 -2 -14 816.966 135.525 -2
1 2 -15 816.966 135.525 1
-1 -2 -13 1591.5 133.129 -2
1 2 -14 1591.5 133.129 1
-1 -2 -12 1056.39 115.587 -2
1 2 -13 1056.39 115.587 1
-1 -2 -11 5234.59 163.285 -2
1 2 -12 5234.59 163.285 1
-1 -2 -10 8400.22 167.367 -2
1 2 -11 8400.22 167.367 1
1 2 9 12937 68.0237 -2
-1 -2 10 12937 68.0237 1
-1 -2 -8 682.298 30.8239 -2
1 2 -9 682.298 30.8239 1
-1 -2 -7 5377.75 55.4735 -2
1 2 -8 5377.75 55.4735 1
-1 -2 -6 664.176 32.6877 -2
1 2 -7 664.176 32.6877 1
1 2 5 2963.41 45.2602 -2
-1 -2 6 2963.41 45.2602 1
1 2 4 17887.3 68.6399 -2
-1 -2 5 17887.3 68.6399 1
-1 -2 -3 4456.94 30.5667 -2
1 2 -4 4456.94 30.5667 1
-1 -2 -2 23636.4 80.6326 -2
1 2 -3 23636.4 80.6326 1
1 2 1 227230 936.217 -2
-1 -2 2 227230 936.217 1
1 2 -1 469497 2382.05 -2
-1 -2 0 469497 2382.05 1
-1 -2 2 106001 839.157 -2
1 2 1 106001 839.157 1
-1 -2 3 15434.4 86.6064 -2
1 2 2 15434.4 86.6064 1
1 2 -4 7229.78 32.161 -2
-1 -2 -3 7229.78 32.161 1
-1 -2 5 31455.6 84.7735 -2
1 2 4 31455.6 84.7735 1
-1 -2 6 4785.88 54.0221 -2
1 2 5 4785.88 54.0221 1
-1 -2 7 1135.52 38.1603 -2
1 2 6 1135.52 38.1603 1
-1 -2 8 3108.3 54.3087 -2
1 2 7 3108.3 54.3087 1
1 2 -9 1082.4 44.2003 -2
-1 -2 -8 1082.4 44.2003 1
-1 -2 10 29404.9 155.478 -2
1 2 9 29404.9 155.478 1
1 2 -11 10891.3 106.151 -2
-1 -2 -10 10891.3 106.151 1
-1 -2 12 6743.64 89.4542 -2
1 2 11 6743.64 89.4542 1
1 2 -13 1454.11 61.9225 -2
-1 -2 -12 1454.11 61.9225 1
1 2 -14 1251.16 65.1519 -2
-1 -2 -13 1251.16 65.1519 1
1 2 -15 470.367 124.635 -2
-1 -2 -14 470.367 124.635 1
1 2 -16 692.444 164.618 -2
-1 -2 -15 692.444 164.618 1
1 2 -17 813.169 151.341 -2
-1 -2 -16 813.169 151.341 1
1 2 -18 357.891 157.34 -2
-1 -2 -17 357.891 157.34 1
1 2 -19 152.8 173.094 -2
-1 -2 -18 152.8 173.094 1
1 2 -20 415.044 204.129 -2
-1 -2 -19 415.044 204.129 1
-1 -3 -21 269.117 266.159 -2
1 3 -22 269.117 266.159 1
-1 -3 -20 2557.58 254.806 -2
1 3 -21 2557.58 254.806 1
-1 -3 -19 1052.98 223.755 -2
1 3 -20 1052.98 223.755 1
-1 -3 -18 907.741 217.661 -2
1 3 -19 907.741 217.661 1
-1 -3 -17 556.588 202.77 -2
1 3 -18 556.588 202.77 1
-1 -3 -16 2137.66 183.566 -2
1 3 -17 2137.66 183.566 1
-1 -3 -15 1029.78 153.887 -2
1 3 -16 1029.78 153.887 1
-1 -3 -14 865.171 134.435 -2
1 3 -15 865.171 134.435 1
-1 -3 -13 142.966 115.005 -2
1 3 -14 142.966 115.005 1
-1 -3 -12 530.341 113.198 -2
1 3 -13 530.341 113.198 1
-1 -3 -11 294.162 97.5005 -2
1 3 -12 294.162 97.5005 1
-1 -3 -10 3596.88 118.952 -2
1 3 -11 3596.88 118.952 1
-1 -3 -9 212.038 81.4746 -2
1 3 -10 212.038 81.4746 1
-1 -3 -8 1122.06 82.9614 -2
1 3 -9 1122.06 82.9614 1
-1 -3 -7 134.124 65.8673 -2
1 3 -8 134.124 65.8673 1
-1 -3 -6 387.301 62.7039 -2
1 3 -7 387.301 62.7039 1
-1 -3 -5 9502.08 110.335 -2
1 3 -6 9502.08 110.335 1
-1 -3 -4 2027.63 32.9828 -2
1 3 -5 2027.63 32.9828 1
1 3 -4 14063 56.6228 1
-1 -3 -3 42587 114.584 -2
1 3 -4 42587 114.584 1
1 3 -3 6984.25 26.045 1
-1 -3 -2 7431.39 52.6576 -2
1 3 -3 7431.39 52.6576 1
-1 -3 2 51324.3 103.166 1
-1 -3 -1 54533.9 118.706 -2
1 3 -2 54533.9 118.706 1
-1 -3 1 5536.16 45.4396 1
-1 -3 0 8037.13 35.6751 -2
1 3 -1 8037.13 35.6751 1
-1 -3 1 8407.16 29.0245 -2
1 3 0 8407.16 29.0245 1
1 3 1 7210.24 79.6684 1
-1 -3 2 32898.9 156.61 -2
1 3 1 32898.9 156.61 1
1 3 2 68.2178 41.0719 1
-1 -3 3 4015.1 68.6672 -2
1 3 2 4015.1 68.6672 1
-1 -3 4 60946.8 154.676 -2
1 3 3 60946.8 154.676 1
-1 -3 5 3199.56 20.7018 -2
1 3 4 3199.56 20.7018 1
1 3 -6 10180.9 41.7218 -2
-1 -3 -5 10180.9 41.7218 1
-1 -3 7 345.778 29.8132 -2
1 3 6 345.778 29.8132 1
-1 -3 8 302.049 36.6898 -2
1 3 7 302.049 36.6898 1
-1 -3 9 1583.19 47.366 -2
1 3 8 1583.19 47.366 1
-1 -3 10 171.845 44.6655 -2
1 3 9 171.845 44.6655 1
-1 -3 11 2703.76 61.7723 -2
1 3 10 2703.76 61.7723 1
1 3 -12 290.578 54.9182 -2
-1 -3 -11 290.578 54.9182 1
-1 -3 13 839.352 61.1184 -2
1 3 12 839.352 61.1184 1
-1 -3 14 231.632 61.865 -2
1 3 13 231.632 61.865 1
1 3 -15 532.102 113.018 -2
-1 -3 -14 532.102 113.018 1
1 3 -16 825.582 126.879 -2
-1 -3 -15 825.582 126.879 1
1 3 -17 1012.6 146.978 -2
-1 -3 -16 1012.6 146.978 1
1 3 -18 421.518 157.58 -2
-1 -3 -17 421.518 157.58 1
-1 -3 20 1670.32 225.278 -2
1 3 19 1670.32 225.278 1
-1 -3 21 4677.03 281.864 -2
1 3 20 4677.03 281.864 1
-1 -3 22 669.652 278.7 -2
1 3 21 669.652 278.7 1
-1 -4 -21 507.257 276.065 -2
1 4 -22 507.257 276.065 1
-1 -4 -20 1418.12 254.031 -2
1 4 -21 1418.12 254.031 1
-1 -4 -19 2323.82 246.742 -2
1 4 -20 2323.82 246.742 1
-1 -4 -18 575.261 253.69 -2
1 4 -19 575.261 253.69 1
-1 -4 -17 2190.27 210.577 -2
1 4 -18 2190.27 210.577 1
-1 -4 -16 228.536 168.275 -2
1 4 -17 228.536 168.275 1
-1 -4 -15 456.095 154.334 -2
1 4 -16 456.095 154.334 1
1 4 -15 51.9905 101.675 1
1 4 -14 56.2252 96.4977 1
1 4 -13 149.98 83.6523 1
1 4 -12 537.869 82.1252 1
1 4 -11 50.4425 71.1246 1
1 4 -10 2744.57 98.1068 1
1 4 -9 14126.3 160.353 1
1 4 -8 15539.4 156.552 1
1 4 -7 7821.04 110.204 1
1 4 -6 700.237 28.0858 1
1 4 -5 122.844 14.5941 1
1 4 -4 4592.97 24.6177 1
1 4 -3 5886.56 35.4147 1
1 4 -2 133261 208.732 1
1 4 -1 11750.9 39.8838 1
1 4 0 4081.27 24.7038 1
1 4 1 133.398 31.8822 1
1 4 2 528.016 34.9433 1
1 4 3 1637.13 42.1313 1
1 4 4 5089.08 60.9072 1
1 4 5 5455.77 34.1023 1
-1 -4 -6 1217.6 21.4508 1
1 4 7 2340.53 36.9408 1
-1 -4 -8 277.12 30.3983 1
1 4 9 65.6202 53.7043 1
-1 -4 10 1777.08 55.6209 -2
1 4 9 1777.08 55.6209 1
1 4 10 271.703 58.9242 1
-1 -4 11 443.491 55.9083 -2
1 4 10 443.491 55.9083 1
1 4 11 34.0498 61.0381 1
-1 -4 12 561.893 63.2653 -2
1 4 11 561.893 63.2653 1
1 4 12 35.9322 63.4744 1
-1 -4 13 165.061 67.9546 -2
1 4 12 165.061 67.9546 1
1 4 13 788.355 75.483 1
1 4 -14 874.33 79.1297 -2
-1 -4 -13 874.33 79.1297 1
-1 -4 -14 2306.87 106.829 1
-1 -4 15 2493.71 155.241 -2
1 4 14 2493.71 155.241 1
-1 -4 -15 64.1264 100.988 1
-1 -4 16 367.064 154.635 -2
1 4 15 367.064 154.635 1
-1 -4 17 404.08 165.732 -2
1 4 16 404.08 165.732 1
1 4 17 161.46 144.197 1
1 4 18 709.959 163.212 1
1 4 19 4770.8 216.795 1
1 4 20 1734.51 211.244 1
1 5 -21 84.1537 188.279 1
1 5 -20 71.917 172.734 1
1 5 -19 100.762 162.896 1
1 5 -18 1010.6 151.035 1
1 5 -17 247.227 132.168 1
1 5 -16 688.829 126.31 1
1 5 -15 1861.62 128.387 1
1 5 -14 463.49 104.323 1
1 5 -13 408.958 91.9172 1
1 5 -12 9.31242 83.6763 1
1 5 -11 1327.72 95.8426 1
1 5 -10 21.9669 73.7759 1
1 5 -9 11028.2 151.619 1
1 5 -8 11906.3 146.875 1
1 5 -7 4355.84 94.3551 1
1 5 -6 1262.09 31.5768 1
1 5 -5 4907.73 31.6286 1
1 5 -4 624.502 22.0359 1
1 5 -3 1147.72 24.8684 1
1 5 -2 73.9252 19.5728 1
1 5 -1 4020.29 34.3532 1
1 5 0 1048.15 21.232 1
1 5 1 1543.71 63.5271 1
1 5 2 7523.31 74.6767 1
1 5 3 7504.03 76.509 1
1 5 4 3454.09 59.7507 1
1 5 5 3731.11 63.2467 1
1 5 6 232.602 42.5023 1
1 5 7 801.138 25.6922 1
1 5 8 3735.4 71.0034 1
1 5 9 232.47 50.1762 1
1 5 10 548.824 40.4366 1
1 5 11 474.193 45.2006 1
1 5 12 495.942 63.6391 1
1 5 13 2164.92 78.0216 1
1 5 14 2016.49 141.394 1
1 5 15 482.559 135.913 1
1 5 16 121.288 145.786 1
1 5 17 469.511 169.068 1
1 5 18 248.033 174.677 1
1 5 19 168.398 194.356 1
1 5 20 227.869 214.103 1
-1 -6 -19 596.4 273.357 -2
1 6 -21 596.4 273.357 1
-1 -6 -18 1325.09 301.334 -2
1 6 -20 1325.09 301.334 1
1 6 -19 122.805 172.123 1
-1 -6 -16 1334.55 206.019 -2
1 6 -18 1334.55 206.019 1
-1 -6 -15 -16.0781 175.401 -2
1 6 -17 -16.0781 175.401 1
-1 -6 -14 207.779 156.795 -2
1 6 -16 207.779 156.795 1
-1 -6 -13 1016.34 154.897 -2
1 6 -15 1016.34 154.897 1
-1 -6 -12 163.133 134.357 -2
1 6 -14 163.133 134.357 1
-1 -6 -11 11206.4 194.406 -2
1 6 -13 11206.4 194.406 1
-1 -6 -10 5390.65 150.618 -2
1 6 -12 5390.65 150.618 1
-1 -6 -9 978.259 108.772 -2
1 6 -11 978.259 108.772 1
-1 -6 -8 105.685 92.9352 -2
1 6 -10 105.685 92.9352 1
-1 -6 -7 2667.29 105.558 -2
1 6 -9 2667.29 105.558 1
-1 -6 -6 375.143 82.5337 -2
1 6 -8 375.143 82.5337 1
-1 -6 -5 333.187 73.3663 -2
1 6 -7 333.187 73.3663 1
1 6 -6 97.3542 30.4245 1
-1 -6 -4 2643.76 81.477 -2
1 6 -6 2643.76 81.477 1
1 6 -5 126.014 30.231 1
-1 -6 -3 6440.77 92.4036 -2
1 6 -5 6440.77 92.4036 1
-1 -6 4 56.5711 33.9964 1
-1 -6 -2 4301.28 58.8429 -2
1 6 -4 4301.28 58.8429 1
-1 -6 3 1004.71 41.2141 1
-1 -6 -1 5093.62 58.1829 -2
1 6 -3 5093.62 58.1829 1
-1 -6 2 16.115 36.5492 1
-1 -6 0 3634.11 49.153 -2
1 6 -2 3634.11 49.153 1
1 6 -1 462.802 26.859 1
-1 -6 1 898.638 70.1156 -2
1 6 -1 898.638 70.1156 1
-1 -6 0 7318.4 47.0258 1
-1 -6 2 6349.14 107.425 -2
1 6 0 6349.14 107.425 1
-1 -6 -1 8795.62 99.7984 1
-1 -6 3 8997.73 122.658 -2
1 6 1 8997.73 122.658 1
-1 -6 4 8100.7 119.697 -2
1 6 2 8100.7 119.697 1
-1 -6 5 12910.8 104.211 -2
1 6 3 12910.8 104.211 1
-1 -6 6 4310.77 77.1174 -2
1 6 4 4310.77 77.1174 1
-1 -6 7 117.173 59.6461 -2
1 6 5 117.173 59.6461 1
-1 -6 8 684.845 65.9292 -2
1 6 6 684.845 65.9292 1
-1 -6 9 5428.58 91.6289 -2
1 6 7 5428.58 91.6289 1
-1 -6 10 224.803 66.0221 -2
1 6 8 224.803 66.0221 1
-1 -6 11 1161.73 75.7781 -2
1 6 9 1161.73 75.7781 1
-1 -6 12 2705.44 86.7494 -2
1 6 10 2705.44 86.7494 1
-1 -6 13 5688.57 105.339 -2
1 6 11 5688.57 105.339 1
-1 -6 14 163.114 84.7756 -2
1 6 12 163.114 84.7756 1
-1 -6 15 458.316 93.9685 -2
1 6 13 458.316 93.9685 1
-1 -6 16 189.761 158.904 -2
1 6 14 189.761 158.904 1
-1 -6 17 2.16247 189.537 -2
1 6 15 2.16247 189.537 1
-1 -6 18 639.644 197.552 -2
1 6 16 639.644 197.552 1
-1 -6 19 344.101 216.498 -2
1 6 17 344.101 216.498 1
-1 -6 20 540.488 243.506 -2
1 6 18 540.488 243.506 1
-1 -6 21 662.829 275.436 -2
1 6 19 662.829 275.436 1
-1 -7 -18 725.778 306.611 -2
1 7 -20 725.778 306.611 1
-1 -7 -17 533.662 264.284 -2
1 7 -19 533.662 264.284 1
-1 -7 -16 640.944 222.207 -2
1 7 -18 640.944 222.207 1
-1 -7 -15 225.938 195.437 -2
1 7 -17 225.938 195.437 1
-1 -7 -14 286.748 172.663 -2
1 7 -16 286.748 172.663 1
-1 -7 -13 460.536 163.808 -2
1 7 -15 460.536 163.808 1
-1 -7 -12 1425.89 167.474 -2
1 7 -14 1425.89 167.474 1
-1 -7 -11 597.484 138.29 -2
1 7 -13 597.484 138.29 1
-1 -7 -10 1323.41 137.796 -2
1 7 -12 1323.41 137.796 1
-1 -7 -9 1599.42 129.268 -2
1 7 -11 1599.42 129.268 1
-1 -7 -8 1229.88 117.787 -2
1 7 -10 1229.88 117.787 1
-1 -7 -7 1809.47 114.016 -2
1 7 -9 1809.47 114.016 1
-1 -7 -6 45.795 85.1868 -2
1 7 -8 45.795 85.1868 1
-1 -7 -5 382.886 82.5932 -2
1 7 -7 382.886 82.5932 1
-1 -7 -4 514.407 38.8121 -2
1 7 -6 514.407 38.8121 1
-1 -7 -3 1040.38 42.7464 -2
1 7 -5 1040.38 42.7464 1
1 7 2 12375 84.4992 -2
-1 -7 4 12375 84.4992 1
1 7 1 8284.8 65.7721 -2
-1 -7 3 8284.8 65.7721 1
-1 -7 0 2647.21 45.693 -2
1 7 -2 2647.21 45.693 1
-1 -7 1 862.241 36.0952 -2
1 7 -1 862.241 36.0952 1
-1 -7 2 4585.37 43.6658 -2
1 7 0 4585.37 43.6658 1
1 7 -3 14592 123.333 -2
-1 -7 -1 14592 123.333 1
1 7 -4 22004.9 151.025 -2
-1 -7 -2 22004.9 151.025 1
-1 -7 5 622.474 59.0519 -2
1 7 3 622.474 59.0519 1
-1 -7 6 434.154 63.1961 -2
1 7 4 434.154 63.1961 1
-1 -7 7 346.633 65.0911 -2
1 7 5 346.633 65.0911 1
-1 -7 8 172.448 66.4492 -2
1 7 6 172.448 66.4492 1
-1 -7 9 895.712 76.5133 -2
1 7 7 895.712 76.5133 1
-1 -7 10 1927.06 91.4079 -2
1 7 8 1927.06 91.4079 1
-1 -7 11 2225.75 96.4295 -2
1 7 9 2225.75 96.4295 1
-1 -7 12 1957.78 99.1263 -2
1 7 10 1957.78 99.1263 1
-1 -7 13 320.34 88.9334 -2
1 7 11 320.34 88.9334 1
-1 -7 14 1028.36 102.848 -2
1 7 12 1028.36 102.848 1
-1 -7 15 590.038 106.373 -2
1 7 13 590.038 106.373 1
-1 -7 16 336.499 180.889 -2
1 7 14 336.499 180.889 1
-1 -7 17 203.106 189.548 -2
1 7 15 203.106 189.548 1
-1 -7 18 631.63 216.367 -2
1 7 16 631.63 216.367 1
-1 -7 19 443.659 235.893 -2
1 7 17 443.659 235.893 1
-1 -7 20 458.514 265.738 -2
1 7 18 458.514 265.738 1
-1 -8 -17 578.381 304.598 -2
1 8 -19 578.381 304.598 1
-1 -8 -16 552.651 256.577 -2
1 8 -18 552.651 256.577 1
-1 -8 -15 396.401 217.485 -2
1 8 -17 396.401 217.485 1
-1 -8 -14 308.048 195.176 -2
1 8 -16 308.048 195.176 1
-1 -8 -13 5281.28 237.218 -2
1 8 -15 5281.28 237.218 1
-1 -8 -12 2780.07 192.073 -2
1 8 -14 2780.07 192.073 1
-1 -8 -11 6726.54 240.274 -2
1 8 -13 6726.54 240.274 1
-1 -8 -10 907.414 148.272 -2
1 8 -12 907.414 148.272 1
-1 -8 -9 2534.26 156.147 -2
1 8 -11 2534.26 156.147 1
-1 -8 -8 2022.51 144.038 -2
1 8 -10 2022.51 144.038 1
-1 -8 -7 400.467 111.962 -2
1 8 -9 400.467 111.962 1
-1 -8 -6 380.948 103.66 -2
1 8 -8 380.948 103.66 1
-1 -8 -5 1518.04 109.738 -2
1 8 -7 1518.04 109.738 1
-1 -8 -4 447.963 44.2252 -2
1 8 -6 447.963 44.2252 1
-1 -8 -3 4529.73 70.2823 -2
1 8 -5 4529.73 70.2823 1
-1 -8 -2 2074.67 60.0804 -2
1 8 -4 2074.67 60.0804 1
1 8 1 2458.37 60.9557 -2
-1 -8 3 2458.37 60.9557 1
-1 -8 0 1460.78 48.0801 -2
1 8 -2 1460.78 48.0801 1
-1 -8 1 129.026 36.9889 -2
1 8 -1 129.026 36.9889 1
-1 -8 2 655.42 36.472 -2
1 8 0 655.42 36.472 1
1 8 -3 2001.41 75.9744 -2
-1 -8 -1 2001.41 75.9744 1
-1 -8 4 1782.26 73.1765 -2
1 8 2 1782.26 73.1765 1
1 8 -5 2201.98 80.3777 -2
-1 -8 -3 2201.98 80.3777 1
1 8 -6 613.77 68.5314 -2
-1 -8 -4 613.77 68.5314 1
-1 -8 7 1076.09 66.1304 -2
1 8 5 1076.09 66.1304 1
-1 -8 8 205.842 76.6228 -2
1 8 6 205.842 76.6228 1
-1 -8 9 441.555 80.9301 -2
1 8 7 441.555 80.9301 1
-1 -8 10 1166.03 95.0224 -2
1 8 8 1166.03 95.0224 1
-1 -8 11 2196.86 107.034 -2
1 8 9 2196.86 107.034 1
-1 -8 12 810.389 99.9734 -2
1 8 10 810.389 99.9734 1
-1 -8 13 4959.81 139.862 -2
1 8 11 4959.81 139.862 1
-1 -8 14 2406.71 126.681 -2
1 8 12 2406.71 126.681 1
-1 -8 15 7458.02 270.281 -2
1 8 13 7458.02 270.281 1
-1 -8 16 772.311 204.101 -2
1 8 14 772.311 204.101 1
-1 -8 17 789.631 222.097 -2
1 8 15 789.631 222.097 1
-1 -8 18 669.007 240.223 -2
1 8 16 669.007 240.223 1
-1 -8 19 283.786 257.522 -2
1 8 17 283.786 257.522 1
-1 -9 -16 723.258 303.84 -2
1 9 -18 723.258 303.84 1
-1 -9 -15 2684.33 272.5 -2
1 9 -17 2684.33 272.5 1
-1 -9 -14 2816.14 238.668 -2
1 9 -16 2816.14 238.668 1
-1 -9 -13 627.195 197.963 -2
1 9 -15 627.195 197.963 1
-1 -9 -12 200.436 174.71 -2
1 9 -14 200.436 174.71 1
-1 -9 -11 809.542 170.664 -2
1 9 -13 809.542 170.664 1
-1 -9 -10 2052.32 171.086 -2
1 9 -12 2052.32 171.086 1
-1 -9 -9 868.664 147.224 -2
1 9 -11 868.664 147.224 1
-1 -9 -8 710.054 136.444 -2
1 9 -10 710.054 136.444 1
-1 -9 -7 1627.94 133.809 -2
1 9 -9 1627.94 133.809 1
-1 -9 -6 1998.84 125.946 -2
1 9 -8 1998.84 125.946 1
-1 -9 -5 620.374 105.646 -2
1 9 -7 620.374 105.646 1
-1 -9 -4 379.584 95.0336 -2
1 9 -6 379.584 95.0336 1
-1 -9 -3 989.49 92.5972 -2
1 9 -5 989.49 92.5972 1
1 9 2 420.869 55.5569 -2
-1 -9 4 420.869 55.5569 1
1 9 1 436.13 54.7675 -2
-1 -9 3 436.13 54.7675 1
1 9 0 1498.63 56.8729 -2
-1 -9 2 1498.63 56.8729 1
1 9 -1 171.26 80.7904 -2
-1 -9 1 171.26 80.7904 1
1 9 -2 897.98 69.724 -2
-1 -9 0 897.98 69.724 1
1 9 -3 268.271 67.1996 -2
-1 -9 -1 268.271 67.1996 1
-1 -9 4 255.762 70.2145 -2
1 9 2 255.762 70.2145 1
-1 -9 5 1420.72 77.6979 -2
1 9 3 1420.72 77.6979 1
1 9 -6 252.343 71.9656 -2
-1 -9 -4 252.343 71.9656 1
-1 -9 7 745.886 79.8715 -2
1 9 5 745.886 79.8715 1
-1 -9 8 1647.51 90.4662 -2
1 9 6 1647.51 90.4662 1
-1 -9 9 1232.69 78.145 -2
1 9 7 1232.69 78.145 1
1 9 -10 345.416 77.7629 -2
-1 -9 -8 345.416 77.7629 1
-1 -9 11 599.227 83.7622 -2
1 9 9 599.227 83.7622 1
-1 -9 12 2996.83 102.568 -2
1 9 10 2996.83 102.568 1
-1 -9 13 1681.56 194.448 -2
1 9 11 1681.56 194.448 1
-1 -9 14 318.024 191.872 -2
1 9 12 318.024 191.872 1
-1 -9 15 442.756 209.571 -2
1 9 13 442.756 209.571 1
1 9 -16 1788.64 159.856 -2
-1 -9 -14 1788.64 159.856 1
1 9 -17 2133.23 176.117 -2
-1 -9 -15 2133.23 176.117 1
-1 -9 18 592.27 182.716 -2
1 9 16 592.27 182.716 1
-1 -10 -15 1264.82 315.799 -2
1 10 -17 1264.82 315.799 1
-1 -10 -14 2324.18 274.901 -2
1 10 -16 2324.18 274.901 1
-1 -10 -13 1570.26 233.745 -2
1 10 -15 1570.26 233.745 1
1 10 -14 302.646 160.917 1
1 10 -13 244.731 147.687 1
1 10 -12 95.2038 134.059 1
1 10 -11 34.0413 120.419 1
1 10 -10 37.9179 113.808 1
1 10 -9 460.668 110.078 1
1 10 -8 32.2175 98.2172 1
1 10 -7 1069.51 97.3919 1
1 10 -6 118.082 82.9528 1
1 10 -5 26.6538 79.131 1
1 10 -4 138.119 72.4091 1
-1 -10 2 1552.58 84.8408 1
-1 -10 1 185.449 80.9647 1
-1 -10 0 257.94 81.6456 1
-1 -10 -1 423.115 89.6088 1
-1 -10 -2 165.923 91.7624 1
-1 -10 -3 150.937 68.8092 1
1 10 4 1853.69 84.1356 1
1 10 5 593.79 77.8361 1
1 10 6 155.93 109.273 1
1 10 -8 275.248 121.906 -2
-1 -10 -6 275.248 121.906 1
1 10 7 61.5565 111.427 1
1 10 -9 543.105 136.921 -2
-1 -10 -7 543.105 136.921 1
1 10 -10 329.207 145.331 -2
-1 -10 -8 329.207 145.331 1
-1 -10 11 386.285 114.217 -2
1 10 9 386.285 114.217 1
-1 -10 12 236.112 122.852 -2
1 10 10 236.112 122.852 1
-1 -10 13 532.642 132.18 -2
1 10 11 532.642 132.18 1
-1 -10 14 2232.85 150.746 -2
1 10 12 2232.85 150.746 1
1 10 -15 2302.23 161.403 -2
-1 -10 -13 2302.23 161.403 1
1 10 -16 3130.04 179.499 -2
-1 -10 -14 3130.04 179.499 1
1 10 -17 890.989 182.558 -2
-1 -10 -15 890.989 182.558 1
1 11 -16 181.561 222.573 1
1 11 -15 243.267 203.002 1
1 11 -14 120.842 181.559 1
1 11 -13 161.311 164.245 1
1 11 -12 64.7857 156.796 1
1 11 -11 157.106 144.171 1
1 11 -10 241.262 133.685 1
1 11 -9 584.522 128.18 1
1 11 -8 23.2727 112.599 1
1 11 -7 1230.86 118.195 1
-1 -11 -1 237.773 103.773 1
-1 -11 -2 98.3917 105.483 1
-1 -11 -3 444.837 114.776 1
-1 -11 -4 343.35 115.355 1
-1 -11 -5 708.801 127.663 1
-1 -11 -6 94.4924 125.166 1
-1 -11 -7 84.998 132.348 1
-1 -11 -8 146.701 139.954 1
-1 -11 -9 239.144 154.764 1
-1 -11 -10 223.384 159.083 1
-1 -11 -11 122.154 169.263 1
-1 -11 -12 152.005 184.023 1
-1 -11 -13 78.42 198.329 1
-1 -11 16 642.49 266.945 -2
1 11 13 642.49 266.945 1
-1 -11 -14 489.918 220.806 1
1 12 -7 795.7 179.684 -2
-1 -12 -4 795.7 179.684 1
1 12 -8 645.683 181.798 -2
-1 -12 -5 645.683 181.798 1
1 12 -9 290.067 189.82 -2
-1 -12 -6 290.067 189.82 1
1 12 -10 486.142 206.334 -2
-1 -12 -7 486.142 206.334 1
1 12 -11 564.882 218.428 -2
-1 -12 -8 564.882 218.428 1
1 12 -12 697.609 229.712 -2
-1 -12 -9 697.609 229.712 1
1 12 -13 672.134 245.778 -2
-1 -12 -10 672.134 245.778 1
1 12 -14 460.381 261.795 -2
-1 -12 -11 460.381 261.795 1
1 12 -15 1212.72 287.123 -2
-1 -12 -12 1212.72 287.123 1
-2 14 -10 381.537 301.872 -2
2 -14 -9 381.537 301.872 1
-2 14 -9 689.587 285.278 -2
2 -14 -8 689.587 285.278 1
-2 14 -8 1643.2 285.293 -2
2 -14 -7 1643.2 285.293 1
-2 14 -7 1916.66 280.651 -2
2 -14 -6 1916.66 280.651 1
-2 14 -6 314.191 254.784 -2
2 -14 -5 314.191 254.784 1
-2 14 -5 252.287 251.86 -2
2 -14 -4 252.287 251.86 1
-2 13 -12 487.957 287.444 -2
2 -13 -11 487.957 287.444 1
-2 13 -11 395.294 262.756 -2
2 -13 -10 395.294 262.756 1
-2 13 -10 436.164 245.063 -2
2 -13 -9 436.164 245.063 1
-2 13 -9 712.697 235.299 -2
2 -13 -8 712.697 235.299 1
-2 13 -8 329.084 218.331 -2
2 -13 -7 329.084 218.331 1
-2 13 -7 175.771 206.044 -2
2 -13 -6 175.771 206.044 1
-2 13 -6 458.777 198.756 -2
2 -13 -5 458.777 198.756 1
-2 13 -5 898.467 199.92 -2
2 -13 -4 898.467 199.92 1
-2 13 -4 750.642 196.224 -2
2 -13 -3 750.642 196.224 1
-2 13 -3 1073.26 193.309 -2
2 -13 -2 1073.26 193.309 1
-2 13 -2 207.481 178.744 -2
2 -13 -1 207.481 178.744 1
-2 13 -1 241.776 187.017 -2
2 -13 0 241.776 187.017 1
2 -13 -10 225.252 258.896 -2
-2 13 -11 225.252 258.896 1
2 -13 -11 317.571 288.606 -2
-2 13 -12 317.571 288.606 1
-2 12 -14 445.598 272.421 -2
2 -12 -13 445.598 272.421 1
-2 12 -13 355.383 254.099 -2
2 -12 -12 355.383 254.099 1
-2 12 -12 232.376 236.37 -2
2 -12 -11 232.376 236.37 1
-2 12 -11 934.675 224.091 -2
2 -12 -10 934.675 224.091 1
-2 12 -10 399.877 204.946 -2
2 -12 -9 399.877 204.946 1
-2 12 -9 528.542 198.269 -2
2 -12 -8 528.542 198.269 1
-2 12 -8 531.65 184.675 -2
2 -12 -7 531.65 184.675 1
-2 12 -7 1440.83 181.898 -2
2 -12 -6 1440.83 181.898 1
-2 12 -6 2257.83 182.284 -2
2 -12 -5 2257.83 182.284 1
-2 12 -5 869.006 164.576 -2
2 -12 -4 869.006 164.576 1
-2 12 -4 2477.47 174.546 -2
2 -12 -3 2477.47 174.546 1
-2 12 -3 2336.75 169.772 -2
2 -12 -2 2336.75 169.772 1
-2 12 -2 2464.29 170.851 -2
2 -12 -1 2464.29 170.851 1
-2 12 -1 229.17 147.105 -2
2 -12 0 229.17 147.105 1
-2 12 0 228.234 151.917 -2
2 -12 1 228.234 151.917 1
-2 12 1 5022.44 176.419 -2
2 -12 2 5022.44 176.419 1
-2 12 2 4876.36 175.238 -2
2 -12 3 4876.36 175.238 1
2 -12 -4 1047.68 150.068 -2
-2 12 -5 1047.68 150.068 1
2 -12 -5 4397.8 178.999 -2
-2 12 -6 4397.8 178.999 1
-2 12 -7 2770.63 164.68 1
-2 12 -8 961.505 158.993 1
2 -12 -8 560.309 181.542 -2
-2 12 -9 560.309 181.542 1
2 -12 -9 315.143 185.9 -2
-2 12 -10 315.143 185.9 1
2 -12 -10 594.944 206.696 -2
-2 12 -11 594.944 206.696 1
2 -12 -11 587.744 226.053 -2
-2 12 -12 587.744 226.053 1
2 -12 -12 199.111 240.546 -2
-2 12 -13 199.111 240.546 1
2 -12 -13 375.791 266.39 -2
-2 12 -14 375.791 266.39 1
2 -11 -15 375.294 213.446 1
2 -11 15 943.248 277.356 -2
-2 11 15 943.248 277.356 1
2 -11 -14 218.042 197.234 1
2 -11 14 731.085 250.028 -2
-2 11 14 731.085 250.028 1
2 -11 -13 332.856 178.882 1
2 -11 13 759.078 229.241 -2
-2 11 13 759.078 229.241 1
2 -11 -12 135.726 165.413 1
2 -11 -11 216.111 159.884 1
2 -11 -10 61.0116 148.255 1
2 -11 -9 2025.42 158.02 1
2 -11 -8 31.0775 131.807 1
2 -11 -7 51.1582 127.188 1
2 -11 -6 -0.76577 117.612 1
2 -11 -5 311.132 117.141 1
2 -11 -4 2227.15 136.161 1
2 -11 -3 743.231 110.888 1
2 -11 -2 1065.37 117.969 1
2 -11 -1 375.367 103.737 1
2 -11 0 87.1443 97.4995 1
2 -11 1 21.2269 66.0222 1
2 -11 2 512.463 69.7854 1
2 -11 3 522.802 70.5434 1
-2 11 -4 89.4488 71.0747 1
-2 11 -5 2344.02 85.5681 1
-2 11 -6 20.0221 76.1314 1
-2 11 -7 110.986 120.162 1
-2 11 -8 129.902 129.048 1
-2 11 -9 161.79 136.165 1
-2 11 -10 449.837 150.891 1
-2 11 -11 1008.35 164.989 1
-2 11 -12 153.2 158.319 1
-2 11 -13 877.866 184.848 1
-2 11 -14 104.82 191.083 1
-2 11 -15 295.354 211.48 1
-2 11 -16 289.855 224.064 1
2 -10 16 1107.38 178.825 -2
-2 10 16 1107.38 178.825 1
2 -10 15 1558.58 165.612 -2
-2 10 15 1558.58 165.612 1
-2 10 -14 516.934 148.394 -2
2 -10 -14 516.934 148.394 1
2 -10 13 1172.05 144.382 -2
-2 10 13 1172.05 144.382 1
2 -10 12 374.053 129.435 -2
-2 10 12 374.053 129.435 1
-2 10 -11 1462.74 129.501 -2
2 -10 -11 1462.74 129.501 1
2 -10 10 4269.55 139.857 -2
-2 10 10 4269.55 139.857 1
-2 10 -9 1195.66 160.337 -2
2 -10 -9 1195.66 160.337 1
-2 10 -8 686.946 149.837 -2
2 -10 -8 686.946 149.837 1
-2 10 -7 1057.86 142.174 -2
2 -10 -7 1057.86 142.174 1
-2 10 -6 479.603 131.665 -2
2 -10 -6 479.603 131.665 1
-2 10 -5 1546.42 137.514 -2
2 -10 -5 1546.42 137.514 1
-2 10 -4 2034.65 135.732 -2
2 -10 -4 2034.65 135.732 1
-2 10 -3 810.659 119.509 -2
2 -10 -3 810.659 119.509 1
2 -10 2 1207.71 70.2559 -2
-2 10 2 1207.71 70.2559 1
2 -10 1 150.484 64.8616 -2
-2 10 1 150.484 64.8616 1
2 -10 0 126.442 65.8554 -2
-2 10 0 126.442 65.8554 1
-2 10 1 142.903 66.9387 -2
2 -10 1 142.903 66.9387 1
2 -10 2 461.124 91.2088 1
2 -10 -2 948.963 102.071 -2
-2 10 -2 948.963 102.071 1
-2 10 3 616.023 76.3801 -2
2 -10 3 616.023 76.3801 1
-2 10 4 1978.55 88.9372 -2
2 -10 4 1978.55 88.9372 1
-2 10 -5 2877.94 108.405 1
2 -10 -5 3094.28 135.614 -2
-2 10 -5 3094.28 135.614 1
2 -10 -6 734.95 85.1741 -2
-2 10 -6 734.95 85.1741 1
-2 10 -7 1550.12 102.599 1
2 -10 -7 1543.58 133.691 -2
-2 10 -7 1543.58 133.691 1
2 -10 -8 443.659 87.1249 -2
-2 10 -8 443.659 87.1249 1
2 -10 -9 1219.35 147.346 -2
-2 10 -9 1219.35 147.346 1
2 -10 -10 2301.17 163.41 -2
-2 10 -10 2301.17 163.41 1
2 -10 -11 1407.75 169.055 -2
-2 10 -11 1407.75 169.055 1
2 -10 -12 425.307 171.615 -2
-2 10 -12 425.307 171.615 1
2 -10 -13 1560.61 192.849 -2
-2 10 -13 1560.61 192.849 1
2 -10 -14 87.6181 199.515 -2
-2 10 -14 87.6181 199.515 1
2 -10 -15 984.926 227.698 -2
-2 10 -15 984.926 227.698 1
2 -10 -16 927.987 253.538 -2
-2 10 -16 927.987 253.538 1
-2 9 -18 298.313 189.644 -2
2 -9 -18 298.313 189.644 1
2 -9 17 1047.62 179.559 -2
-2 9 17 1047.62 179.559 1
2 -9 16 1368.79 166.138 -2
-2 9 16 1368.79 166.138 1
2 -9 15 3781.1 174.759 -2
-2 9 15 3781.1 174.759 1
2 -9 14 3142.49 160.818 -2
-2 9 14 3142.49 160.818 1
2 -9 13 354.363 124.417 -2
-2 9 13 354.363 124.417 1
2 -9 12 243.031 115.574 -2
-2 9 12 243.031 115.574 1
2 -9 11 762.83 109.992 -2
-2 9 11 762.83 109.992 1
2 -9 10 2416.22 118.687 -2
-2 9 10 2416.22 118.687 1
-2 9 -9 933.442 102.22 -2
2 -9 -9 933.442 102.22 1
-2 9 -8 991.537 100.328 -2
2 -9 -8 991.537 100.328 1
2 -9 7 2102.28 105.292 -2
-2 9 7 2102.28 105.292 1
-2 9 -6 1029.27 126.983 -2
2 -9 -6 1029.27 126.983 1
-2 9 -5 1197.09 66.8071 -2
2 -9 -5 1197.09 66.8071 1
-2 9 -4 788.395 63.0121 -2
2 -9 -4 788.395 63.0121 1
-2 9 -3 401.652 59.8181 -2
2 -9 -3 401.652 59.8181 1
-2 9 -2 611.62 60.8189 -2
2 -9 -2 611.62 60.8189 1
2 -9 1 259.236 59.5842 -2
-2 9 1 259.236 59.5842 1
-2 9 0 21.4914 58.6896 -2
2 -9 0 21.4914 58.6896 1
2 -9 -1 276.865 60.688 -2
-2 9 -1 276.865 60.688 1
2 -9 -2 906.779 68.1837 -2
-2 9 -2 906.779 68.1837 1
-2 9 3 821.031 67.998 -2
2 -9 3 821.031 67.998 1
-2 9 4 1295.03 77.5064 -2
2 -9 4 1295.03 77.5064 1
-2 9 5 803.714 75.0082 -2
2 -9 5 803.714 75.0082 1
2 -9 -6 1392.18 83.197 -2
-2 9 -6 1392.18 83.197 1
2 -9 -7 1942.56 86.8094 -2
-2 9 -7 1942.56 86.8094 1
2 -9 -8 888.188 82.7295 -2
-2 9 -8 888.188 82.7295 1
2 -9 -9 1640.11 90.4253 -2
-2 9 -9 1640.11 90.4253 1
2 -9 -10 1185.69 97.7853 -2
-2 9 -10 1185.69 97.7853 1
2 -9 -11 1505.85 160.947 -2
-2 9 -11 1505.85 160.947 1
2 -9 -12 659.722 159.216 -2
-2 9 -12 659.722 159.216 1
2 -9 -13 176.204 163.686 -2
-2 9 -13 176.204 163.686 1
2 -9 -14 1538.88 189.244 -2
-2 9 -14 1538.88 189.244 1
2 -9 -15 2513.23 223.006 -2
-2 9 -15 2513.23 223.006 1
2 -9 -16 620.521 221.389 -2
-2 9 -16 620.521 221.389 1
2 -9 -17 1259.88 257.324 -2
-2 9 -17 1259.88 257.324 1
2 -9 -18 344.278 266.309 -2
-2 9 -18 344.278 266.309 1
2 -8 19 412.654 191.705 -2
-2 8 19 412.654 191.705 1
2 -8 18 283.228 174.161 -2
-2 8 18 283.228 174.161 1
2 -8 17 207.85 156.026 -2
-2 8 17 207.85 156.026 1
2 -8 16 1017.77 151.384 -2
-2 8 16 1017.77 151.384 1
-2 8 -15 103.351 121.566 -2
2 -8 -15 103.351 121.566 1
2 -8 14 364.426 121.17 -2
-2 8 14 364.426 121.17 1
2 -8 13 213.038 112.041 -2
-2 8 13 213.038 112.041 1
2 -8 12 328.827 105.06 -2
-2 8 12 328.827 105.06 1
2 -8 11 2845.88 123.028 -2
-2 8 11 2845.88 123.028 1
2 -8 10 1709.17 106.804 -2
-2 8 10 1709.17 106.804 1
-2 8 -9 1194.37 96.8632 -2
2 -8 -9 1194.37 96.8632 1
-2 8 -8 32.4218 76.3617 -2
2 -8 -8 32.4218 76.3617 1
2 -8 7 2296.11 97.7044 -2
-2 8 7 2296.11 97.7044 1
2 -8 6 5105.64 79.8632 -2
-2 8 6 5105.64 79.8632 1
2 -8 5 18871 150.991 -2
-2 8 5 18871 150.991 1
2 -8 4 5485.67 90.2158 -2
-2 8 4 5485.67 90.2158 1
2 -8 3 748.756 59.5582 -2
-2 8 3 748.756 59.5582 1
-2 8 -2 2237.13 68.6669 -2
2 -8 -2 2237.13 68.6669 1
-2 8 -1 1315.06 62.8829 -2
2 -8 -1 1315.06 62.8829 1
2 -8 0 5115.92 90.4702 -2
-2 8 0 5115.92 90.4702 1
2 -8 -1 1305.84 67.4309 -2
-2 8 -1 1305.84 67.4309 1
-2 8 2 2292.69 75.5134 -2
2 -8 2 2292.69 75.5134 1
-2 8 3 478.275 61.4615 -2
2 -8 3 478.275 61.4615 1
2 -8 -4 4048.7 93.1364 -2
-2 8 -4 4048.7 93.1364 1
-2 8 5 9016.87 124.619 -2
2 -8 5 9016.87 124.619 1
2 -8 -6 2715.35 77.9359 -2
-2 8 -6 2715.35 77.9359 1
2 -8 -7 1349.31 78.4217 -2
-2 8 -7 1349.31 78.4217 1
2 -8 -8 40.0592 69.438 -2
-2 8 -8 40.0592 69.438 1
2 -8 -9 666.316 79.3471 -2
-2 8 -9 666.316 79.3471 1
2 -8 -10 1276.29 90.6563 -2
-2 8 -10 1276.29 90.6563 1
2 -8 -11 2358.37 159.284 -2
-2 8 -11 2358.37 159.284 1
2 -8 -12 651.675 148.274 -2
-2 8 -12 651.675 148.274 1
2 -8 -13 266.081 154.306 -2
-2 8 -13 266.081 154.306 1
2 -8 -14 355.152 161.236 -2
-2 8 -14 355.152 161.236 1
2 -8 -15 510.598 176.258 -2
-2 8 -15 510.598 176.258 1
2 -8 -16 1105.26 205.327 -2
-2 8 -16 1105.26 205.327 1
2 -8 -17 185.194 213.079 -2
-2 8 -17 185.194 213.079 1
2 -8 -18 244.844 241.395 -2
-2 8 -18 244.844 241.395 1
2 -8 -19 486.635 271.018 -2
-2 8 -19 486.635 271.018 1
-2 7 -19 453.801 175.762 -2
2 -7 -19 453.801 175.762 1
2 -7 18 328.054 157.042 -2
-2 7 18 328.054 157.042 1
2 -7 17 708.549 143.639 -2
-2 7 17 708.549 143.639 1
2 -7 16 1106.58 135.736 -2
-2 7 16 1106.58 135.736 1
-2 7 -15 702.023 122.422 -2
2 -7 -15 702.023 122.422 1
2 -7 14 636.222 112.55 -2
-2 7 14 636.222 112.55 1
2 -7 13 664.083 105.989 -2
-2 7 13 664.083 105.989 1
2 -7 12 1104.62 102.494 -2
-2 7 12 1104.62 102.494 1
2 -7 11 538.638 89.3664 -2
-2 7 11 538.638 89.3664 1
2 -7 10 668.566 83.9885 -2
-2 7 10 668.566 83.9885 1
-2 7 -9 535.631 78.0532 -2
2 -7 -9 535.631 78.0532 1
-2 7 -8 60.6925 70.2678 -2
2 -7 -8 60.6925 70.2678 1
2 -7 7 3396.23 91.8008 -2
-2 7 7 3396.23 91.8008 1
-2 7 -6 22051.4 166.876 -2
2 -7 -6 22051.4 166.876 1
2 -7 5 5226.05 95.7934 -2
-2 7 5 5226.05 95.7934 1
2 -7 4 666.232 44.3336 -2
-2 7 4 666.232 44.3336 1
2 -7 3 1209.65 54.2727 -2
-2 7 3 1209.65 54.2727 1
-2 7 -2 1349.58 54.0094 -2
2 -7 -2 1349.58 54.0094 1
-2 7 -1 404.987 48.7025 -2
2 -7 -1 404.987 48.7025 1
2 -7 0 1946.93 57.7016 -2
-2 7 0 1946.93 57.7016 1
2 -7 -1 687.713 52.9271 -2
-2 7 -1 687.713 52.9271 1
-2 7 2 800.658 53.7223 -2
2 -7 2 800.658 53.7223 1
2 -7 -3 965.038 57.3311 -2
-2 7 -3 965.038 57.3311 1
2 -7 -4 598.567 56.3333 -2
-2 7 -4 598.567 56.3333 1
2 -7 -5 3092.79 72.8435 -2
-2 7 -5 3092.79 72.8435 1
2 -7 -6 15369.7 126.748 -2
-2 7 -6 15369.7 126.748 1
2 -7 -7 2181.3 73.5239 -2
-2 7 -7 2181.3 73.5239 1
2 -7 -8 107.884 64.1855 -2
-2 7 -8 107.884 64.1855 1
2 -7 -9 894.891 74.7549 -2
-2 7 -9 894.891 74.7549 1
2 -7 -10 914.417 79.1307 -2
-2 7 -10 914.417 79.1307 1
2 -7 -11 1162.03 127.636 -2
-2 7 -11 1162.03 127.636 1
2 -7 -12 2087.18 147.843 -2
-2 7 -12 2087.18 147.843 1
2 -7 -13 522.597 144.025 -2
-2 7 -13 522.597 144.025 1
2 -7 -14 254.13 148.857 -2
-2 7 -14 254.13 148.857 1
2 -7 -15 914.394 162.865 -2
-2 7 -15 914.394 162.865 1
2 -7 -16 1047.94 184.806 -2
-2 7 -16 1047.94 184.806 1
2 -7 -17 831.025 202.69 -2
-2 7 -17 831.025 202.69 1
2 -7 -18 294.981 219.131 -2
-2 7 -18 294.981 219.131 1
2 -7 -19 482.303 244.032 -2
-2 7 -19 482.303 244.032 1
-2 6 -20 925.273 181.556 -2
2 -6 -20 925.273 181.556 1
-2 6 -19 298.038 163.335 -2
2 -6 -19 298.038 163.335 1
-2 6 -18 187.308 147.545 -2
2 -6 -18 187.308 147.545 1
2 -6 17 584.842 136.21 -2
-2 6 17 584.842 136.21 1
-2 6 -16 824.693 124.275 -2
2 -6 -16 824.693 124.275 1
2 -6 15 659.239 112.468 -2
-2 6 15 659.239 112.468 1
2 -6 14 84.1063 145.744 -2
-2 6 14 84.1063 145.744 1
2 -6 13 286.031 137.354 -2
-2 6 13 286.031 137.354 1
2 -6 12 2242.8 142.657 -2
-2 6 12 2242.8 142.657 1
2 -6 11 2095.08 91.0029 -2
-2 6 11 2095.08 91.0029 1
2 -6 10 678.554 77.3781 -2
-2 6 10 678.554 77.3781 1
2 -6 9 1244.25 75.8353 -2
-2 6 9 1244.25 75.8353 1
2 -6 8 525.559 66.6371 -2
-2 6 8 525.559 66.6371 1
-2 6 -7 10475.4 105.495 -2
2 -6 -7 10475.4 105.495 1
2 -6 -6 15091.5 165.616 1
2 -6 6 17709.4 177.201 -2
-2 6 6 17709.4 177.201 1
2 -6 -5 18367.5 178.401 1
2 -6 5 16945.8 167.797 -2
-2 6 5 16945.8 167.797 1
2 -6 -4 2338.78 58.3792 1
2 -6 -3 6125.2 107.144 1
-2 6 2 46.6744 32.9529 1
-2 6 1 -6.77553 32.0574 1
-2 6 0 4649.81 60.4244 1
2 -6 1 141.062 35.1416 1
2 -6 2 809.44 41.2591 1
-2 6 -3 31.2916 35.4377 1
-2 6 -4 157.742 39.5635 1
-2 6 -5 59.353 40.6993 1
-2 6 -6 8218.24 86.7873 1
-2 6 -7 14082.5 111.665 1
-2 6 -8 441.858 68.5931 1
2 -6 -8 710.131 96.7794 -2
-2 6 -8 710.131 96.7794 1
-2 6 -9 881.705 59.1724 1
2 -6 -10 733.914 107.105 -2
-2 6 -10 733.914 107.105 1
-2 6 -11 245.338 89.8537 1
-2 6 -12 3337.36 136.182 1
-2 6 -13 461.653 114.245 1
-2 6 -14 77.724 121.699 1
-2 6 -15 504.41 130.016 1
-2 6 -16 998.52 149.844 1
-2 6 -17 281.368 154.137 1
-2 6 -18 127.924 163.475 1
-2 6 -19 288.678 176.086 1
-2 6 -20 1198.54 220.32 1
-2 5 21 125.416 147.929 1
-2 5 20 213.985 132.544 1
2 -5 -19 38.7973 121.863 1
-2 5 18 2657.95 191.472 1
-2 5 17 129.438 144.298 1
-2 5 16 320.676 131.65 1
-2 5 15 229.93 119.188 1
-2 5 14 209.263 108.867 1
-2 5 13 167 98.3329 1
-2 5 12 307.449 97.6657 1
-2 5 11 647.383 92.5345 1
-2 5 10 463.112 80.4705 1
-2 5 9 56.6423 70.0481 1
2 -5 -8 30.6774 46.6266 1
-2 5 7 145.698 44.9957 1
-2 5 6 3752.26 64.37 1
-2 5 5 152.859 38.2667 1
-2 5 4 56.6859 36.1307 1
-2 5 3 343.549 37.0368 1
2 -5 -2 9574.88 113.176 1
-2 5 1 21513.9 103.57 1
-2 5 0 22595.2 107.394 1
-2 5 -1 7485.83 68.7908 1
-2 5 -2 4548.33 57.3008 1
2 -5 3 2400.66 46.6455 1
-2 5 -4 674.405 38.4078 1
-2 5 -5 14129.6 99.4518 1
-2 5 -6 5858.53 70.7859 1
-2 5 -7 7174.95 81.9142 1
-2 5 -8 2545.13 64.5151 1
-2 5 -9 4.75973 50.5987 1
-2 5 -10 134.465 80.8262 1
-2 5 -11 39.0528 80.6412 1
-2 5 -12 5.91443 90.2487 1
-2 5 -13 -13.8283 101.913 1
-2 5 -14 95.6755 115.016 1
-2 5 -15 85.5866 119.112 1
-2 5 -16 334.9 135.355 1
-2 5 -17 753.655 153.271 1
-2 5 -18 113.714 150.782 1
-2 5 -19 191.422 169.55 1
-2 5 -20 235.211 195.774 1
-2 4 -21 1186.36 283.259 -2
2 -4 -22 1186.36 283.259 1
2 -4 20 1592.69 183.55 -2
-2 4 21 1592.69 183.55 1
2 -4 19 1222.86 232.583 -2
-2 4 20 1222.86 232.583 1
2 -4 18 1249.01 210.484 -2
-2 4 19 1249.01 210.484 1
-2 4 -17 2526.77 135.611 -2
2 -4 -18 2526.77 135.611 1
2 -4 16 4768.32 134.648 -2
-2 4 17 4768.32 134.648 1
2 -4 15 3281.03 117.001 -2
-2 4 16 3281.03 117.001 1
-2 4 -14 1453.91 98.0956 -2
2 -4 -15 1453.91 98.0956 1
2 -4 13 349.518 82.9025 -2
-2 4 14 349.518 82.9025 1
2 -4 12 1083.09 80.8278 -2
-2 4 13 1083.09 80.8278 1
-2 4 -11 234.884 68.8782 -2
2 -4 -12 234.884 68.8782 1
2 -4 10 526.995 64.7297 -2
-2 4 11 526.995 64.7297 1
2 -4 9 370.868 91.276 -2
-2 4 10 370.868 91.276 1
2 -4 8 646.926 86.1191 -2
-2 4 9 646.926 86.1191 1
2 -4 7 742.636 82.027 -2
-2 4 8 742.636 82.027 1
-2 4 7 7621.21 113.955 1
-2 4 -5 8271.12 77.3269 -2
2 -4 -6 8271.12 77.3269 1
-2 4 5 2575.22 68.5733 1
-2 4 -4 5402.34 89.5333 -2
2 -4 -5 5402.34 89.5333 1
2 -4 -4 908.717 37.4499 1
2 -4 -3 41.4483 31.0662 1
-2 4 2 142.965 30.7641 1
2 -4 -1 770.456 49.0303 1
-2 4 0 27028.1 107.95 1
-2 4 -1 1211.76 35.5951 1
2 -4 2 1524.4 38.6902 1
-2 4 -3 301.063 32.8577 1
-2 4 -4 6325.26 65.13 1
-2 4 -5 4605.81 60.5379 1
-2 4 -6 1634.64 62.6664 1
2 -4 -7 5260.91 100.782 -2
-2 4 -6 5260.91 100.782 1
-2 4 -7 541.061 43.1511 1
2 -4 -9 1216.11 61.6803 -2
-2 4 -8 1216.11 61.6803 1
2 -4 -10 295.85 87.492 -2
-2 4 -9 295.85 87.492 1
2 -4 -11 545.197 94.5256 -2
-2 4 -10 545.197 94.5256 1
2 -4 -12 316.437 94.584 -2
-2 4 -11 316.437 94.584 1
2 -4 -13 583.353 109.289 -2
-2 4 -12 583.353 109.289 1
2 -4 -14 161.163 115.396 -2
-2 4 -13 161.163 115.396 1
2 -4 -15 798.473 131.04 -2
-2 4 -14 798.473 131.04 1
2 -4 -16 3424.74 161.724 -2
-2 4 -15 3424.74 161.724 1
2 -4 -17 5242.18 192.958 -2
-2 4 -16 5242.18 192.958 1
2 -4 -18 2543.19 196.866 -2
-2 4 -17 2543.19 196.866 1
2 -4 -19 572.66 196.264 -2
-2 4 -18 572.66 196.264 1
2 -4 -20 2035.44 232.619 -2
-2 4 -19 2035.44 232.619 1
2 -4 -21 2205.75 256.057 -2
-2 4 -20 2205.75 256.057 1
2 -4 -22 1438.48 295.776 -2
-2 4 -21 1438.48 295.776 1
2 -3 21 348.384 193.996 -2
-2 3 22 348.384 193.996 1
-2 3 -20 434.237 174.107 -2
2 -3 -21 434.237 174.107 1
2 -3 19 562.566 153.668 -2
-2 3 20 562.566 153.668 1
-2 3 -18 1818.79 201.548 -2
2 -3 -19 1818.79 201.548 1
-2 3 -17 3408.64 194.908 -2
2 -3 -18 3408.64 194.908 1
-2 3 -16 5552.96 193.875 -2
2 -3 -17 5552.96 193.875 1
-2 3 -15 2350.09 150.018 -2
2 -3 -16 2350.09 150.018 1
-2 3 -14 208.121 111.925 -2
2 -3 -15 208.121 111.925 1
-2 3 -13 452.692 106.239 -2
2 -3 -14 452.692 106.239 1
-2 3 -12 749.51 101.959 -2
2 -3 -13 749.51 101.959 1
-2 3 -11 9957.61 172.055 -2
2 -3 -12 9957.61 172.055 1
-2 3 -10 8969.52 156.83 -2
2 -3 -11 8969.52 156.83 1
-2 3 -9 1075 82.5785 -2
2 -3 -10 1075 82.5785 1
-2 3 -8 441.841 69.8605 -2
2 -3 -9 441.841 69.8605 1
-2 3 -7 271.35 65.8659 -2
2 -3 -8 271.35 65.8659 1
2 -3 6 3753.03 64.4669 -2
-2 3 7 3753.03 64.4669 1
2 -3 5 12691.5 137.745 -2
-2 3 6 12691.5 137.745 1
2 -3 4 15208.2 98.9328 -2
-2 3 5 15208.2 98.9328 1
-2 3 -3 5192.88 60.1758 -2
2 -3 -4 5192.88 60.1758 1
-2 3 -2 17831.3 84.1331 -2
2 -3 -3 17831.3 84.1331 1
2 -3 1 6230.45 54.3874 -2
-2 3 2 6230.45 54.3874 1
2 -3 -1 13672.1 105.942 1
-2 3 1 9669.12 94.4013 -2
2 -3 0 9669.12 94.4013 1
2 -3 1 1804.09 53.393 1
2 -3 -2 4970.4 75.4774 -2
-2 3 -1 4970.4 75.4774 1
2 -3 -3 11097 72.548 -2
-2 3 -2 11097 72.548 1
-2 3 4 9568.67 67.9748 -2
2 -3 3 9568.67 67.9748 1
2 -3 -5 13696.7 88.6408 -2
-2 3 -4 13696.7 88.6408 1
2 -3 -6 11766.3 88.846 -2
-2 3 -5 11766.3 88.846 1
2 -3 -7 6446.35 78.9716 -2
-2 3 -6 6446.35 78.9716 1
2 -3 -8 276.591 49.0216 -2
-2 3 -7 276.591 49.0216 1
2 -3 -9 690.9 85.0597 -2
-2 3 -8 690.9 85.0597 1
2 -3 -10 2256.54 108.665 -2
-2 3 -9 2256.54 108.665 1
2 -3 -11 5727.68 143.862 -2
-2 3 -10 5727.68 143.862 1
2 -3 -12 5176.56 144.933 -2
-2 3 -11 5176.56 144.933 1
2 -3 -13 416.101 105.098 -2
-2 3 -12 416.101 105.098 1
2 -3 -14 419.747 115.006 -2
-2 3 -13 419.747 115.006 1
2 -3 -15 210.695 120.642 -2
-2 3 -14 210.695 120.642 1
2 -3 -16 4160.06 180.159 -2
-2 3 -15 4160.06 180.159 1
2 -3 -17 9436.81 246.85 -2
-2 3 -16 9436.81 246.85 1
2 -3 -18 3739.16 213.52 -2
-2 3 -17 3739.16 213.52 1
2 -3 -19 1261.23 197.841 -2
-2 3 -18 1261.23 197.841 1
2 -3 -20 364.757 211.239 -2
-2 3 -19 364.757 211.239 1
2 -3 -21 330.324 239.238 -2
-2 3 -20 330.324 239.238 1
2 -3 -22 157.42 278.269 -2
-2 3 -21 157.42 278.269 1
-2 2 -21 430.331 276.217 -2
2 -2 -22 430.331 276.217 1
-2 2 -20 437.489 232.229 -2
2 -2 -21 437.489 232.229 1
-2 2 -19 401.266 199.39 -2
2 -2 -20 401.266 199.39 1
-2 2 -18 509.288 174.453 -2
2 -2 -19 509.288 174.453 1
-2 2 -17 7243.66 234.594 -2
2 -2 -18 7243.66 234.594 1
-2 2 -16 2636.3 170.951 -2
2 -2 -17 2636.3 170.951 1
-2 2 -15 3075.66 165.22 -2
2 -2 -16 3075.66 165.22 1
-2 2 -14 757.502 123.535 -2
2 -2 -15 757.502 123.535 1
-2 2 -13 2102.31 132.12 -2
2 -2 -14 2102.31 132.12 1
-2 2 -12 1473.48 115.108 -2
2 -2 -13 1473.48 115.108 1
-2 2 -11 13097.6 203.63 -2
2 -2 -12 13097.6 203.63 1
-2 2 -10 4179.02 126.897 -2
2 -2 -11 4179.02 126.897 1
-2 2 -9 9664.47 162.121 -2
2 -2 -10 9664.47 162.121 1
-2 2 -8 804.901 76.3671 -2
2 -2 -9 804.901 76.3671 1
-2 2 -7 6449.53 56.2725 -2
2 -2 -8 6449.53 56.2725 1
-2 2 -6 5821.44 53.9301 -2
2 -2 -7 5821.44 53.9301 1
-2 2 -5 5654.88 57.0197 -2
2 -2 -6 5654.88 57.0197 1
-2 2 -4 51316.9 135.273 -2
2 -2 -5 51316.9 135.273 1
-2 2 -3 2559.55 48.8293 -2
2 -2 -4 2559.55 48.8293 1
-2 2 -2 10359.9 73.7667 -2
2 -2 -3 10359.9 73.7667 1
-2 2 -1 2977.02 35.4704 -2
2 -2 -2 2977.02 35.4704 1
-2 2 0 10122.2 67.3049 -2
2 -2 -1 10122.2 67.3049 1
-2 2 1 12492.4 122.363 -2
2 -2 0 12492.4 122.363 1
-2 2 2 2867.32 50.2192 -2
2 -2 1 2867.32 50.2192 1
2 -2 -3 16338.9 106.693 -2
-2 2 -2 16338.9 106.693 1
2 -2 -4 2589.94 53.418 -2
-2 2 -3 2589.94 53.418 1
2 -2 -5 82414.6 247.047 -2
-2 2 -4 82414.6 247.047 1
2 -2 -6 8409.36 89.0769 -2
-2 2 -5 8409.36 89.0769 1
2 -2 -7 3248.55 66.808 -2
-2 2 -6 3248.55 66.808 1
2 -2 -8 3779.32 107.716 -2
-2 2 -7 3779.32 107.716 1
2 -2 -9 619.037 81.7234 -2
-2 2 -8 619.037 81.7234 1
2 -2 -10 15377.3 209.708 -2
-2 2 -9 15377.3 209.708 1
2 -2 -11 2941.19 118.75 -2
-2 2 -10 2941.19 118.75 1
2 -2 -12 15554.8 223.947 -2
-2 2 -11 15554.8 223.947 1
2 -2 -13 930.975 109.403 -2
-2 2 -12 930.975 109.403 1
2 -2 -14 1938.52 130.942 -2
-2 2 -13 1938.52 130.942 1
2 -2 -15 448.633 115.461 -2
-2 2 -14 448.633 115.461 1
2 -2 -16 1704.98 152.087 -2
-2 2 -15 1704.98 152.087 1
2 -2 -17 1809.13 167.022 -2
-2 2 -16 1809.13 167.022 1
2 -2 -18 3731.28 207.564 -2
-2 2 -17 3731.28 207.564 1
2 -2 -19 312.07 186.622 -2
-2 2 -18 312.07 186.622 1
2 -2 -20 631.477 205.955 -2
-2 2 -19 631.477 205.955 1
2 -2 -21 405.215 241.413 -2
-2 2 -20 405.215 241.413 1
2 -2 -22 436.364 293.366 -2
-2 2 -21 436.364 293.366 1
-2 1 -22 542.592 310.676 -2
2 -1 -23 542.592 310.676 1
-2 1 -21 408.962 248.935 -2
2 -1 -22 408.962 248.935 1
-2 1 -20 349.628 220.289 -2
2 -1 -21 349.628 220.289 1
-2 1 -19 268.962 190.735 -2
2 -1 -20 268.962 190.735 1
-2 1 -18 1209.38 183.317 -2
2 -1 -19 1209.38 183.317 1
-2 1 -17 503.341 158.117 -2
2 -1 -18 503.341 158.117 1
-2 1 -16 2225.24 160.497 -2
2 -1 -17 2225.24 160.497 1
-2 1 -15 1077.23 140.484 -2
2 -1 -16 1077.23 140.484 1
-2 1 -14 193.409 117.83 -2
2 -1 -15 193.409 117.83 1
-2 1 -13 1739.41 124.047 -2
2 -1 -14 1739.41 124.047 1
-2 1 -12 2930.55 120.846 -2
2 -1 -13 2930.55 120.846 1
-2 1 -11 324.193 92.4749 -2
2 -1 -12 324.193 92.4749 1
-2 1 -10 331.09 82.8166 -2
2 -1 -11 331.09 82.8166 1
-2 1 -9 1323.68 84.5208 -2
2 -1 -10 1323.68 84.5208 1
-2 1 -8 664.278 73.3267 -2
2 -1 -9 664.278 73.3267 1
-2 1 -7 5467.89 100.992 -2
2 -1 -8 5467.89 100.992 1
-2 1 -6 3418.13 79.4581 -2
2 -1 -7 3418.13 79.4581 1
2 -1 -6 126.959 13.5615 1
-2 1 -5 660.117 54.5944 -2
2 -1 -6 660.117 54.5944 1
-2 1 -4 41661.6 163.834 -2
2 -1 -5 41661.6 163.834 1
2 -1 -4 14657.7 96.0688 1
-2 1 -3 22218.8 121.441 -2
2 -1 -4 22218.8 121.441 1
2 -1 -3 96922.5 890.385 1
2 -1 -2 184104 688.304 1
2 -1 -1 142875 532.659 1
2 -1 0 45490.1 150.012 1
2 -1 1 28936.4 123.73 1
-2 1 -2 11.4926 25.9937 1
-2 1 -3 15482.5 76.4906 1
-2 1 -4 87995.2 188.161 1
-2 1 -5 947.086 51.1246 1
2 -1 -6 962.536 56.6383 -2
-2 1 -5 962.536 56.6383 1
2 -1 -7 3951.35 75.985 -2
-2 1 -6 3951.35 75.985 1
2 -1 -8 9365.82 117.424 -2
-2 1 -7 9365.82 117.424 1
2 -1 -9 1419.93 78.5295 -2
-2 1 -8 1419.93 78.5295 1
2 -1 -10 810.928 79.1101 -2
-2 1 -9 810.928 79.1101 1
2 -1 -11 282.077 78.1948 -2
-2 1 -10 282.077 78.1948 1
2 -1 -12 403.514 87.4944 -2
-2 1 -11 403.514 87.4944 1
2 -1 -13 1900.37 105.509 -2
-2 1 -12 1900.37 105.509 1
2 -1 -14 798.122 105.863 -2
-2 1 -13 798.122 105.863 1
2 -1 -15 85.4132 110.437 -2
-2 1 -14 85.4132 110.437 1
2 -1 -16 1505 138.39 -2
-2 1 -15 1505 138.39 1
2 -1 -17 1561.12 153.517 -2
-2 1 -16 1561.12 153.517 1
2 -1 -18 531.511 161.802 -2
-2 1 -17 531.511 161.802 1
2 -1 -19 835.094 182.082 -2
-2 1 -18 835.094 182.082 1
2 -1 -20 346.598 202.419 -2
-2 1 -19 346.598 202.419 1
2 -1 -21 931.681 248.561 -2
-2 1 -20 931.681 248.561 1
2 -1 -22 470.411 310.408 -2
-2 1 -21 470.411 310.408 1
-2 0 -21 470.333 246.482 -2
2 0 -22 470.333 246.482 1
-2 0 -20 588.282 222.893 -2
2 0 -21 588.282 222.893 1
-2 0 -19 1048.18 198.505 -2
2 0 -20 1048.18 198.505 1
2 0 -19 1753.19 154.028 1
2 0 -18 399.977 128.57 1
2 0 -17 1120.48 122.711 1
2 0 -16 169.15 103.705 1
2 0 -15 1041.69 103.519 1
2 0 -14 333.563 85.9134 1
2 0 -13 63.9243 74.3918 1
2 0 -12 2032.1 90.3772 1
2 0 -11 1014.16 72.5964 1
2 0 -10 3275.25 87.4931 1
2 0 -9 3756.74 84.8393 1
2 0 -8 3579.58 77.7728 1
2 0 -7 20440 147.983 1
2 0 -6 816.228 50.4998 1
2 0 -5 608.875 47.5883 1
2 0 -4 1519.9 29.2743 1
2 0 -3 79311.1 543.872 1
-2 0 2 425435 1526.08 1
-2 0 1 39285.4 83.4264 1
-2 0 0 34472.1 84.2195 1
-2 0 -2 194.619 25.4899 1
-2 0 -3 65.0771 25.3274 1
-2 0 -4 11762.6 94.1708 1
-2 0 -5 545.911 40.6887 1
-2 0 -6 1187.43 52.5998 1
-2 0 -7 3790.55 78.8992 1
-2 0 -8 21731 168.627 1
-2 0 -9 47169.5 250.704 1
-2 0 -10 14060.5 156.807 1
-2 0 -11 341.324 43.8011 1
2 0 12 113.891 44.7843 1
2 0 13 564.268 51.9158 1
-2 0 -14 625.372 100.326 1
-2 0 -15 56.2521 92.9966 1
-2 0 -16 447.738 112.437 1
-2 0 -17 50.5074 118.72 1
-2 0 -18 119.445 138.451 1
-2 0 -19 1102.42 167.644 1
-2 0 -20 198.311 176.558 1
-2 0 -21 118.05 202.236 1
2 1 -23 165.127 225.49 1
2 1 -22 421.816 199.997 1
2 1 -21 143.674 171.53 1
2 1 -20 185.674 155.87 1
2 1 -19 95.744 138.623 1
2 1 -18 44.7563 124.49 1
2 1 -17 84.0613 110.777 1
2 1 -16 153.48 99.5327 1
2 1 -15 1740.02 109.018 1
2 1 -14 401.939 85.7422 1
2 1 -13 9766.86 157.986 1
2 1 -12 1234.69 85.5801 1
2 1 -11 836.991 76.6822 1
2 1 -10 28.1961 62.4482 1
2 1 -9 2244.88 77.0921 1
2 1 -8 9407.17 118.075 1
2 1 -7 43728.8 221.287 1
2 1 -6 7931.16 41.6268 1
2 1 -5 45.5462 17.247 1
2 1 -4 1323.83 18.4823 1
2 1 -3 626.378 15.2661 1
2 1 -2 40637.4 55.0804 1
-2 -1 1 18.527 11.0422 1
2 1 0 19.6629 11.4775 1
-2 -1 -1 966.823 24.2932 1
-2 -1 -2 84.3742 27.0602 1
-2 -1 -3 361.596 30.3401 1
-2 -1 -4 521.392 34.9587 1
-2 -1 -5 83.9854 34.841 1
-2 -1 -6 1003.02 48.3871 1
-2 -1 -7 2498.21 65.0721 1
-2 -1 -8 25494.1 116.336 1
-2 -1 -9 743.199 41.4782 1
2 1 10 13342.2 97.9979 1
2 1 11 53.7394 41.0876 1
2 1 12 944.711 50.2646 1
-2 -1 -13 115.223 49.3112 1
-2 -1 -14 2242.78 107.89 1
-2 -1 -15 119.525 98.5281 1
-2 -1 -16 742.223 116.042 1
-2 -1 -17 56.8106 120.627 1
-2 -1 -18 189.54 146.873 1
-2 -1 -19 223.629 157.589 1
-2 -2 -20 541.974 249.774 -2
2 2 -22 541.974 249.774 1
-2 -2 -19 2909.64 238.934 -2
2 2 -21 2909.64 238.934 1
-2 -2 -18 3410.63 222.357 -2
2 2 -20 3410.63 222.357 1
-2 -2 -17 3132.49 201.163 -2
2 2 -19 3132.49 201.163 1
-2 -2 -16 995.5 169.139 -2
2 2 -18 995.5 169.139 1
-2 -2 -15 1333.06 159.696 -2
2 2 -17 1333.06 159.696 1
-2 -2 -14 2771.66 163.436 -2
2 2 -16 2771.66 163.436 1
-2 -2 -13 1254.63 160.121 -2
2 2 -15 1254.63 160.121 1
-2 -2 -12 485.117 126.983 -2
2 2 -14 485.117 126.983 1
-2 -2 -11 567.578 112.968 -2
2 2 -13 567.578 112.968 1
-2 -2 -10 1512.58 113.103 -2
2 2 -12 1512.58 113.103 1
-2 -2 -9 1600.26 99.2126 -2
2 2 -11 1600.26 99.2126 1
-2 -2 -8 12682.5 155.564 -2
2 2 -10 12682.5 155.564 1
-2 -2 -7 4016.81 100.111 -2
2 2 -9 4016.81 100.111 1
-2 -2 -6 10849.1 126.979 -2
2 2 -8 10849.1 126.979 1
2 2 -7 16820 85.0498 1
-2 -2 -5 17445 141.654 -2
2 2 -7 17445 141.654 1
2 2 -6 3156.42 44.4238 1
-2 -2 -4 9794.21 110.152 -2
2 2 -6 9794.21 110.152 1
2 2 -5 3350.69 20.0048 1
-2 -2 -3 8328.81 99.1874 -2
2 2 -5 8328.81 99.1874 1
2 2 -4 2227.94 43.5269 1
-2 -2 -2 12798.2 102.172 -2
2 2 -4 12798.2 102.172 1
2 2 -3 13480.6 65.4529 1
2 2 -2 7952.86 29.2235 1
2 2 -1 7163.37 28.0199 1
-2 -2 1 10267.6 86.9543 -2
2 2 -1 10267.6 86.9543 1
2 2 0 1919.55 21.4372 1
-2 -2 2 6005.96 76.5108 -2
2 2 0 6005.96 76.5108 1
2 2 1 8163.44 71.1517 1
-2 -2 3 14515.4 106.995 -2
2 2 1 14515.4 106.995 1
-2 -2 -2 19138.3 62.6606 1
-2 -2 4 19253.7 123.65 -2
2 2 2 19253.7 123.65 1
-2 -2 -3 8853.62 49.0339 1
-2 -2 5 10118.9 97.2264 -2
2 2 3 10118.9 97.2264 1
-2 -2 -4 12008.6 76.1024 1
-2 -2 6 13537.6 113.865 -2
2 2 4 13537.6 113.865 1
-2 -2 -5 3998 56.3203 1
-2 -2 7 12751.5 114.741 -2
2 2 5 12751.5 114.741 1
-2 -2 8 10715 68.5531 -2
2 2 6 10715 68.5531 1
2 2 -9 4234.08 55.7509 -2
-2 -2 -7 4234.08 55.7509 1
-2 -2 10 23529.4 108.463 -2
2 2 8 23529.4 108.463 1
2 2 -11 2707.29 57.0655 -2
-2 -2 -9 2707.29 57.0655 1
2 2 -12 2856.8 61.2262 -2
-2 -2 -10 2856.8 61.2262 1
2 2 -13 394.595 55.2931 -2
-2 -2 -11 394.595 55.2931 1
-2 -2 14 319.832 61.8722 -2
2 2 12 319.832 61.8722 1
2 2 -15 733.914 69.3481 -2
-2 -2 -13 733.914 69.3481 1
2 2 -16 3728.02 141.75 -2
-2 -2 -14 3728.02 141.75 1
2 2 -17 1486.53 148.303 -2
-2 -2 -15 1486.53 148.303 1
2 2 -18 932.141 185.251 -2
-2 -2 -16 932.141 185.251 1
2 2 -19 2019.15 184.923 -2
-2 -2 -17 2019.15 184.923 1
-2 -3 -20 425.712 259.025 -2
2 3 -22 425.712 259.025 1
-2 -3 -19 3024.78 259.019 -2
2 3 -21 3024.78 259.019 1
-2 -3 -18 1922.53 230.151 -2
2 3 -20 1922.53 230.151 1
-2 -3 -17 1707.41 205.895 -2
2 3 -19 1707.41 205.895 1
-2 -3 -16 73.7514 172.179 -2
2 3 -18 73.7514 172.179 1
-2 -3 -15 153.157 164.904 -2
2 3 -17 153.157 164.904 1
-2 -3 -14 2281.78 193.763 -2
2 3 -16 2281.78 193.763 1
-2 -3 -13 2211.03 172.468 -2
2 3 -15 2211.03 172.468 1
-2 -3 -12 185.046 122.783 -2
2 3 -14 185.046 122.783 1
-2 -3 -11 416.796 114.098 -2
2 3 -13 416.796 114.098 1
-2 -3 -10 170.842 99.7096 -2
2 3 -12 170.842 99.7096 1
-2 -3 -9 203.196 91.8634 -2
2 3 -11 203.196 91.8634 1
-2 -3 -8 274.116 84.5204 -2
2 3 -10 274.116 84.5204 1
-2 -3 -7 2395.45 105.168 -2
2 3 -9 2395.45 105.168 1
-2 -3 -6 2870.72 101.682 -2
2 3 -8 2870.72 101.682 1
-2 -3 -5 3759.04 55.2475 -2
2 3 -7 3759.04 55.2475 1
-2 -3 -4 1525.16 18.6719 -2
2 3 -6 1525.16 18.6719 1
-2 -3 -3 6756.34 68.5601 -2
2 3 -5 6756.34 68.5601 1
-2 -3 -2 15773.4 100.167 -2
2 3 -4 15773.4 100.167 1
-2 -3 -1 25968.3 118.973 -2
2 3 -3 25968.3 118.973 1
-2 -3 0 707.747 16.7727 -2
2 3 -2 707.747 16.7727 1
-2 -3 1 9118.15 43.6223 -2
2 3 -1 9118.15 43.6223 1
-2 -3 2 1137.87 28.671 -2
2 3 0 1137.87 28.671 1
-2 -3 3 31975.6 66.6932 -2
2 3 1 31975.6 66.6932 1
-2 -3 4 8874.37 76.7725 -2
2 3 2 8874.37 76.7725 1
-2 -3 5 4025.69 27.6939 -2
2 3 3 4025.69 27.6939 1
-2 -3 6 3950.6 37.2328 -2
2 3 4 3950.6 37.2328 1
2 3 -7 2661.43 38.4241 -2
-2 -3 -5 2661.43 38.4241 1
-2 -3 8 1920.82 40.2365 -2
2 3 6 1920.82 40.2365 1
-2 -3 9 1326.25 47.2581 -2
2 3 7 1326.25 47.2581 1
-2 -3 10 386.265 44.927 -2
2 3 8 386.265 44.927 1
-2 -3 11 177.626 48.3602 -2
2 3 9 177.626 48.3602 1
2 3 -12 187.362 52.6958 -2
-2 -3 -10 187.362 52.6958 1
2 3 -13 410.25 60.0355 -2
-2 -3 -11 410.25 60.0355 1
-2 -3 14 274.842 64.018 -2
2 3 12 274.842 64.018 1
-2 -3 15 3559.46 95.504 -2
2 3 13 3559.46 95.504 1
2 3 -16 3836.86 166.226 -2
-2 -3 -14 3836.86 166.226 1
2 3 -17 521.762 138.701 -2
-2 -3 -15 521.762 138.701 1
-2 -3 19 1317.06 201.382 -2
2 3 17 1317.06 201.382 1
-2 -3 20 1455.25 223.012 -2
2 3 18 1455.25 223.012 1
-2 -3 21 4090.23 280.571 -2
2 3 19 4090.23 280.571 1
-2 -3 22 527.917 271.218 -2
2 3 20 527.917 271.218 1
-2 -4 -20 454.812 271.663 -2
2 4 -22 454.812 271.663 1
-2 -4 -19 233.005 236.946 -2
2 4 -21 233.005 236.946 1
-2 -4 -18 346.487 218.224 -2
2 4 -20 346.487 218.224 1
-2 -4 -17 498.207 197.938 -2
2 4 -19 498.207 197.938 1
-2 -4 -16 235.754 178.892 -2
2 4 -18 235.754 178.892 1
-2 -4 -15 91.84 190.118 -2
2 4 -17 91.84 190.118 1
-2 -4 -14 1967.94 203.328 -2
2 4 -16 1967.94 203.328 1
-2 -4 -13 265.432 146.465 -2
2 4 -15 265.432 146.465 1
-2 -4 -12 357.322 130.542 -2
2 4 -14 357.322 130.542 1
-2 -4 -11 142.617 115.07 -2
2 4 -13 142.617 115.07 1
-2 -4 -10 241.768 104.196 -2
2 4 -12 241.768 104.196 1
-2 -4 -9 8404.61 186.064 -2
2 4 -11 8404.61 186.064 1
-2 -4 -8 9343.56 182.562 -2
2 4 -10 9343.56 182.562 1
-2 -4 -7 506.356 85.2787 -2
2 4 -9 506.356 85.2787 1
-2 -4 -6 1022.72 32.7597 -2
2 4 -8 1022.72 32.7597 1
-2 -4 -5 391.546 41.4128 -2
2 4 -7 391.546 41.4128 1
-2 -4 -4 273.815 38.9213 -2
2 4 -6 273.815 38.9213 1
-2 -4 -3 3281.69 59.0853 -2
2 4 -5 3281.69 59.0853 1
-2 -4 -2 29166.7 153.462 -2
2 4 -4 29166.7 153.462 1
-2 -4 -1 50606.1 190.819 -2
2 4 -3 50606.1 190.819 1
-2 -4 0 57261.8 111.406 -2
2 4 -2 57261.8 111.406 1
-2 -4 1 40196.8 107.752 -2
2 4 -1 40196.8 107.752 1
2 4 -2 37156.3 111.159 -2
-2 -4 0 37156.3 111.159 1
-2 -4 3 32090.5 164.756 -2
2 4 1 32090.5 164.756 1
-2 -4 4 14006 115.531 -2
2 4 2 14006 115.531 1
-2 -4 5 2163.93 60.4266 -2
2 4 3 2163.93 60.4266 1
-2 -4 6 265.814 45.9191 -2
2 4 4 265.814 45.9191 1
-2 -4 7 366.618 49.2059 -2
2 4 5 366.618 49.2059 1
2 4 -8 1717.39 31.3023 -2
-2 -4 -6 1717.39 31.3023 1
-2 -4 9 363.931 34.2111 -2
2 4 7 363.931 34.2111 1
-2 -4 10 4884.85 64.3507 -2
2 4 8 4884.85 64.3507 1
-2 -4 11 6152.57 75.4692 -2
2 4 9 6152.57 75.4692 1
-2 -4 12 146.798 47.4303 -2
2 4 10 146.798 47.4303 1
2 4 -13 262.481 53.0849 -2
-2 -4 -11 262.481 53.0849 1
-2 -4 14 606.961 60.699 -2
2 4 12 606.961 60.699 1
-2 -4 15 240.111 64.0062 -2
2 4 13 240.111 64.0062 1
-2 -4 16 3271.76 194.879 -2
2 4 14 3271.76 194.879 1
-2 -4 17 120.415 162.283 -2
2 4 15 120.415 162.283 1
-2 -4 18 174.477 178.73 -2
2 4 16 174.477 178.73 1
-2 -4 19 685.452 201.553 -2
2 4 17 685.452 201.553 1
-2 -4 20 541.535 225.184 -2
2 4 18 541.535 225.184 1
-2 -4 21 382.58 251.583 -2
2 4 19 382.58 251.583 1
-2 -4 22 1087.39 297.489 -2
2 4 20 1087.39 297.489 1
-2 -5 -19 448.424 253.704 -2
2 5 -21 448.424 253.704 1
-2 -5 -18 221.286 225.715 -2
2 5 -20 221.286 225.715 1
-2 -5 -17 913.213 216.701 -2
2 5 -19 913.213 216.701 1
-2 -5 -16 766.766 207.214 -2
2 5 -18 766.766 207.214 1
-2 -5 -15 474.236 220.104 -2
2 5 -17 474.236 220.104 1
-2 -5 -14 918.061 181.713 -2
2 5 -16 918.061 181.713 1
-2 -5 -13 803.34 159.312 -2
2 5 -15 803.34 159.312 1
-2 -5 -12 514.289 137.336 -2
2 5 -14 514.289 137.336 1
-2 -5 -11 1031.54 131.162 -2
2 5 -13 1031.54 131.162 1
-2 -5 -10 2610.98 131.66 -2
2 5 -12 2610.98 131.66 1
-2 -5 -9 2315.78 120.745 -2
2 5 -11 2315.78 120.745 1
-2 -5 -8 5577.33 137.325 -2
2 5 -10 5577.33 137.325 1
-2 -5 -7 636.24 90.1813 -2
2 5 -9 636.24 90.1813 1
-2 -5 -6 1023.62 85.9023 -2
2 5 -8 1023.62 85.9023 1
-2 -5 -5 1851.46 85.8286 -2
2 5 -7 1851.46 85.8286 1
-2 -5 -4 894.888 47.8476 -2
2 5 -6 894.888 47.8476 1
-2 -5 -3 6059.38 67.2203 -2
2 5 -5 6059.38 67.2203 1
-2 -5 -2 10769.3 78.0105 -2
2 5 -4 10769.3 78.0105 1
-2 -5 3 37.8862 18.1693 1
-2 -5 -1 148.609 39.4816 -2
2 5 -3 148.609 39.4816 1
-2 -5 2 270.697 28.9596 1
-2 -5 0 447.262 37.7871 -2
2 5 -2 447.262 37.7871 1
2 5 -1 3491.84 46.2597 1
-2 -5 1 4540.35 49.3528 -2
2 5 -1 4540.35 49.3528 1
-2 -5 0 146.121 18.6722 1
-2 -5 2 278.807 59.2124 -2
2 5 0 278.807 59.2124 1
-2 -5 3 131.646 63.7672 -2
2 5 1 131.646 63.7672 1
-2 -5 4 7673.17 81.0805 -2
2 5 2 7673.17 81.0805 1
-2 -5 5 3592.02 66.3487 -2
2 5 3 3592.02 66.3487 1
-2 -5 6 578.697 52.5608 -2
2 5 4 578.697 52.5608 1
-2 -5 7 970.911 57.7177 -2
2 5 5 970.911 57.7177 1
-2 -5 8 1299.6 62.9063 -2
2 5 6 1299.6 62.9063 1
-2 -5 9 853.489 64.44 -2
2 5 7 853.489 64.44 1
-2 -5 10 4304.61 87.3496 -2
2 5 8 4304.61 87.3496 1
-2 -5 11 1619.01 75.1986 -2
2 5 9 1619.01 75.1986 1
-2 -5 12 1551.65 78.0114 -2
2 5 10 1551.65 78.0114 1
-2 -5 13 771.05 78.5979 -2
2 5 11 771.05 78.5979 1
-2 -5 14 544.088 85.6655 -2
2 5 12 544.088 85.6655 1
-2 -5 15 1376.55 98.0801 -2
2 5 13 1376.55 98.0801 1
-2 -5 16 890.266 165.485 -2
2 5 14 890.266 165.485 1
-2 -5 17 267.741 177.236 -2
2 5 15 267.741 177.236 1
-2 -5 18 214.254 190.894 -2
2 5 16 214.254 190.894 1
-2 -5 19 775.941 214.394 -2
2 5 17 775.941 214.394 1
-2 -5 20 299.539 229.442 -2
2 5 18 299.539 229.442 1
-2 -5 21 701.861 259.378 -2
2 5 19 701.861 259.378 1
-2 -6 -19 394.167 270.608 -2
2 6 -21 394.167 270.608 1
2 6 -20 174.24 185.525 1
-2 -6 -17 572.159 225.188 -2
2 6 -19 572.159 225.188 1
-2 -6 -16 616.455 207.776 -2
2 6 -18 616.455 207.776 1
-2 -6 -15 904.438 238.587 -2
2 6 -17 904.438 238.587 1
2 6 -16 265.061 131.691 1
2 6 -15 681.062 120.162 1
2 6 -14 56.6963 103.302 1
2 6 -13 101.745 99.8342 1
2 6 -12 -3.84589 89.0422 1
2 6 -11 26.7301 83.9684 1
2 6 -10 1263.46 88.7537 1
2 6 -9 2226.32 94.6549 1
2 6 -8 496.631 72.4809 1
2 6 -7 346.054 64.1651 1
2 6 -6 -7.19218 38.1148 1
2 6 -5 1527.19 47.6689 1
2 6 -4 19812.8 111.303 1
2 6 -3 20585.4 70.6201 1
2 6 -2 14461.8 62.8906 1
2 6 -1 567.442 23.8748 1
-2 -6 0 201.592 36.2401 1
2 6 1 8012.21 126.648 1
2 6 2 20542.7 189.089 1
2 6 3 164.499 63.379 1
-2 -6 5 862.798 85.3607 -2
2 6 3 862.798 85.3607 1
2 6 4 62.0259 45.1341 1
2 6 5 1210.08 77.6156 1
-2 -6 7 1256.76 96.1665 -2
2 6 5 1256.76 96.1665 1
2 6 6 285.009 68.4017 1
-2 -6 8 582.602 96.4944 -2
2 6 6 582.602 96.4944 1
2 6 7 2645.94 96.3308 1
-2 -6 9 3760.51 124.684 -2
2 6 7 3760.51 124.684 1
2 6 8 -4.08294 71.2216 1
-2 -6 10 740.612 105.9 -2
2 6 8 740.612 105.9 1
2 6 9 51.5757 75.5845 1
-2 -6 11 195.816 111.301 -2
2 6 9 195.816 111.301 1
2 6 10 40.6053 83.0519 1
-2 -6 12 35.318 120.223 -2
2 6 10 35.318 120.223 1
2 6 11 274.234 87.8109 1
-2 -6 13 444.161 133.675 -2
2 6 11 444.161 133.675 1
2 6 12 390.355 95.2776 1
-2 -6 14 449.568 144.723 -2
2 6 12 449.568 144.723 1
2 6 13 94.5005 101.375 1
-2 -6 15 558.321 156.307 -2
2 6 13 558.321 156.307 1
-2 -6 16 484.524 169.273 -2
2 6 14 484.524 169.273 1
-2 -6 17 804.258 189.962 -2
2 6 15 804.258 189.962 1
-2 -6 18 373.255 203.249 -2
2 6 16 373.255 203.249 1
-2 -6 19 452.554 221.73 -2
2 6 17 452.554 221.73 1
2 6 18 549.743 206.875 1
2 6 19 93.5314 227.073 1
2 7 -20 220.991 199.835 1
2 7 -19 402.523 181.906 1
2 7 -18 284.497 160.376 1
2 7 -17 101.902 146.621 1
2 7 -16 125.787 142.445 1
2 7 -15 608.527 131.357 1
2 7 -14 213.439 114.52 1
2 7 -13 920.016 119.03 1
2 7 -12 59.4955 99.267 1
2 7 -11 50.1923 89.6328 1
2 7 -10 173.988 85.4167 1
2 7 -9 85.0083 76.4871 1
2 7 -8 638.889 79.3277 1
2 7 -7 48.5764 64.2613 1
2 7 -6 122.747 45.0528 1
2 7 -5 672.698 46.3744 1
2 7 -4 200.877 40.2377 1
2 7 -3 712.963 28.8097 1
-2 -7 2 156.774 26.7282 1
-2 -7 1 6646.29 47.3481 1
2 7 0 714.655 44.9096 1
2 7 1 13937 105.768 1
2 7 2 334.313 72.1479 1
2 7 3 1424.07 84.6005 1
2 7 4 1589.57 65.5184 1
2 7 5 19.3552 72.6608 1
-2 -7 8 456.972 102.187 -2
2 7 5 456.972 102.187 1
2 7 6 168.916 76.8437 1
-2 -7 9 210.2 107.044 -2
2 7 6 210.2 107.044 1
2 7 7 947.059 89.588 1
-2 -7 10 1087.32 121.014 -2
2 7 7 1087.32 121.014 1
2 7 8 1020.82 94.1375 1
-2 -7 11 1475.49 131.815 -2
2 7 8 1475.49 131.815 1
2 7 9 86.8774 88.358 1
-2 -7 12 342.076 132.044 -2
2 7 9 342.076 132.044 1
2 7 10 158.842 91.5403 1
-2 -7 13 803.176 145.024 -2
2 7 10 803.176 145.024 1
2 7 11 136.214 76.0138 1
2 7 12 663.676 86.7342 1
2 7 13 119.166 90.0977 1
2 7 14 38.9855 149.887 1
2 7 15 164.256 164.166 1
2 7 16 532.052 181.435 1
2 7 17 1113.4 208.041 1
2 7 18 543.994 224.881 1
-2 -8 -16 593.018 256.493 -2
2 8 -19 593.018 256.493 1
-2 -8 -15 681.731 235.178 -2
2 8 -18 681.731 235.178 1
-2 -8 -14 372.857 244.02 -2
2 8 -17 372.857 244.02 1
-2 -8 -13 524.645 218.14 -2
2 8 -16 524.645 218.14 1
-2 -8 -12 4077.81 223.481 -2
2 8 -15 4077.81 223.481 1
-2 -8 -11 5542.77 212.688 -2
2 8 -14 5542.77 212.688 1
-2 -8 -10 4917.25 184.995 -2
2 8 -13 4917.25 184.995 1
-2 -8 -9 934.996 145.584 -2
2 8 -12 934.996 145.584 1
-2 -8 -8 1192.1 133.994 -2
2 8 -11 1192.1 133.994 1
-2 -8 -7 2552.94 135.511 -2
2 8 -10 2552.94 135.511 1
-2 -8 -6 395.254 109.243 -2
2 8 -9 395.254 109.243 1
-2 -8 -5 289.44 98.1393 -2
2 8 -8 289.44 98.1393 1
-2 -8 -4 484.245 93.0817 -2
2 8 -7 484.245 93.0817 1
-2 -8 -3 1411.52 93.6469 -2
2 8 -6 1411.52 93.6469 1
-2 -8 -2 2669.63 73.6009 -2
2 8 -5 2669.63 73.6009 1
2 8 -4 199.094 56.1397 1
-2 -8 -1 327.43 93.3355 -2
2 8 -4 327.43 93.3355 1
-2 -8 3 51.2311 31.8475 1
-2 -8 0 242.057 92.2851 -2
2 8 -3 242.057 92.2851 1
-2 -8 2 121.335 32.9806 1
-2 -8 1 207.233 90.9968 -2
2 8 -2 207.233 90.9968 1
2 8 -1 17.3554 24.4176 1
-2 -8 2 239.064 90.4639 -2
2 8 -1 239.064 90.4639 1
-2 -8 0 338.539 61.4246 1
-2 -8 3 368.92 95.4811 -2
2 8 0 368.92 95.4811 1
-2 -8 -1 228.428 64.2791 1
-2 -8 4 434.343 92.1873 -2
2 8 1 434.343 92.1873 1
-2 -8 5 2358.87 71.9817 -2
2 8 2 2358.87 71.9817 1
-2 -8 6 2033.89 75.454 -2
2 8 3 2033.89 75.454 1
-2 -8 7 185.979 102.305 -2
2 8 4 185.979 102.305 1
-2 -8 8 103.831 78.1732 -2
2 8 5 103.831 78.1732 1
-2 -8 9 214.207 81.9513 -2
2 8 6 214.207 81.9513 1
-2 -8 10 2857.12 101.568 -2
2 8 7 2857.12 101.568 1
-2 -8 11 787.151 93.3517 -2
2 8 8 787.151 93.3517 1
-2 -8 12 564.935 97.0945 -2
2 8 9 564.935 97.0945 1
-2 -8 13 5227.3 131.104 -2
2 8 10 5227.3 131.104 1
-2 -8 14 8578.18 153.977 -2
2 8 11 8578.18 153.977 1
-2 -8 15 5252.94 144.756 -2
2 8 12 5252.94 144.756 1
-2 -8 16 405.594 131.082 -2
2 8 13 405.594 131.082 1
-2 -8 17 463.603 216.517 -2
2 8 14 463.603 216.517 1
-2 -8 18 496.381 237.482 -2
2 8 15 496.381 237.482 1
-2 -8 19 366.981 258.115 -2
2 8 16 366.981 258.115 1
-2 -9 -16 561.859 288.743 -2
2 9 -19 561.859 288.743 1
-2 -9 -15 821.485 258.552 -2
2 9 -18 821.485 258.552 1
-2 -9 -14 1331.29 249.697 -2
2 9 -17 1331.29 249.697 1
-2 -9 -13 1072.96 260.359 -2
2 9 -16 1072.96 260.359 1
-2 -9 -12 1291.99 239.083 -2
2 9 -15 1291.99 239.083 1
-2 -9 -11 1014.43 209.239 -2
2 9 -14 1014.43 209.239 1
-2 -9 -10 1546.77 193.346 -2
2 9 -13 1546.77 193.346 1
-2 -9 -9 553.989 167.333 -2
2 9 -12 553.989 167.333 1
-2 -9 -8 2212.57 169.778 -2
2 9 -11 2212.57 169.778 1
-2 -9 -7 735.175 140.403 -2
2 9 -10 735.175 140.403 1
-2 -9 -6 826.825 132.583 -2
2 9 -9 826.825 132.583 1
-2 -9 -5 2812.14 144.618 -2
2 9 -8 2812.14 144.618 1
-2 -9 -4 700.844 114.484 -2
2 9 -7 700.844 114.484 1
-2 -9 -3 648.409 107.648 -2
2 9 -6 648.409 107.648 1
-2 -9 -2 1528.04 121.812 -2
2 9 -5 1528.04 121.812 1
-2 -9 -1 655.95 85.0147 -2
2 9 -4 655.95 85.0147 1
-2 -9 0 125.299 59.2584 -2
2 9 -3 125.299 59.2584 1
-2 -9 1 668.026 66.1641 -2
2 9 -2 668.026 66.1641 1
2 9 -2 1162.09 72.6765 -2
-2 -9 1 1162.09 72.6765 1
-2 -9 3 181.596 68.3542 -2
2 9 0 181.596 68.3542 1
2 9 -4 913.713 76.7776 -2
-2 -9 -1 913.713 76.7776 1
2 9 -5 2215.74 87.4187 -2
-2 -9 -2 2215.74 87.4187 1
-2 -9 6 479.009 76.3496 -2
2 9 3 479.009 76.3496 1
2 9 -7 741.024 82.3393 -2
-2 -9 -4 741.024 82.3393 1
2 9 -8 4804.47 121.559 -2
-2 -9 -5 4804.47 121.559 1
-2 -9 9 1285.08 98.3213 -2
2 9 6 1285.08 98.3213 1
-2 -9 10 1153.25 106.606 -2
2 9 7 1153.25 106.606 1
-2 -9 11 3701.5 135.259 -2
2 9 8 3701.5 135.259 1
-2 -9 12 689.618 114.483 -2
2 9 9 689.618 114.483 1
-2 -9 13 1290.11 124.954 -2
2 9 10 1290.11 124.954 1
-2 -9 14 1225.81 130.872 -2
2 9 11 1225.81 130.872 1
-2 -9 15 912.382 140.434 -2
2 9 12 912.382 140.434 1
-2 -9 16 1086.27 238.031 -2
2 9 13 1086.27 238.031 1
-2 -9 17 980.887 255.591 -2
2 9 14 980.887 255.591 1
-2 -9 18 625.038 265.737 -2
2 9 15 625.038 265.737 1
-2 -10 -14 794.396 271.977 -2
2 10 -17 794.396 271.977 1
-2 -10 -13 1130.94 258.164 -2
2 10 -16 1130.94 258.164 1
-2 -10 -12 3362.84 277.867 -2
2 10 -15 3362.84 277.867 1
-2 -10 -11 2361.03 271.849 -2
2 10 -14 2361.03 271.849 1
-2 -10 -10 561.738 230.821 -2
2 10 -13 561.738 230.821 1
-2 -10 -9 276.279 203.634 -2
2 10 -12 276.279 203.634 1
-2 -10 -8 165.304 180.273 -2
2 10 -11 165.304 180.273 1
-2 -10 -7 415.625 172.206 -2
2 10 -10 415.625 172.206 1
-2 -10 -6 1998.82 180.059 -2
2 10 -9 1998.82 180.059 1
-2 -10 -5 197.89 145.708 -2
2 10 -8 197.89 145.708 1
-2 -10 -4 902.133 163.741 -2
2 10 -7 902.133 163.741 1
-2 -10 -3 1290.08 130.398 -2
2 10 -6 1290.08 130.398 1
-2 -10 2 3545.5 165.978 -2
2 10 -1 3545.5 165.978 1
2 10 -3 283.295 80.7121 -2
-2 -10 0 283.295 80.7121 1
2 10 -4 423.873 83.6256 -2
-2 -10 -1 423.873 83.6256 1
-2 -10 5 764.286 90.8774 -2
2 10 2 764.286 90.8774 1
2 10 -6 683.938 93.0731 -2
-2 -10 -3 683.938 93.0731 1
2 10 -7 1296.58 100.459 -2
-2 -10 -4 1296.58 100.459 1
-2 -10 8 158.431 93.036 -2
2 10 5 158.431 93.036 1
-2 -10 9 1924.25 115.574 -2
2 10 6 1924.25 115.574 1
-2 -10 10 461.967 106.079 -2
2 10 7 461.967 106.079 1
2 10 -11 117.311 106.809 -2
-2 -10 -8 117.311 106.809 1
-2 -10 12 231.58 116.965 -2
2 10 9 231.58 116.965 1
-2 -10 13 747.114 110.606 -2
2 10 10 747.114 110.606 1
-2 -10 14 2023.08 128.393 -2
2 10 11 2023.08 128.393 1
-2 -10 15 2289.67 173.702 -2
2 10 12 2289.67 173.702 1
-2 -10 16 2041.27 186.968 -2
2 10 13 2041.27 186.968 1
-2 -10 17 387.585 187.605 -2
2 10 14 387.585 187.605 1
-2 -11 -13 841.354 289.384 -2
2 11 -16 841.354 289.384 1
-2 -11 -12 327.122 261.478 -2
2 11 -15 327.122 261.478 1
-2 -11 -11 318.093 244.748 -2
2 11 -14 318.093 244.748 1
-2 -11 -10 411.792 225.918 -2
2 11 -13 411.792 225.918 1
-2 -11 -9 578.932 212.619 -2
2 11 -12 578.932 212.619 1
-2 -11 -8 351.193 196.349 -2
2 11 -11 351.193 196.349 1
-2 -11 -7 999.228 186.495 -2
2 11 -10 999.228 186.495 1
-2 -11 5 835.856 154.65 -2
2 11 2 835.856 154.65 1
2 11 -6 1591.85 111.312 -2
-2 -11 -3 1591.85 111.312 1
2 11 -7 2577.21 121.567 -2
-2 -11 -4 2577.21 121.567 1
2 11 -8 2089.86 123.217 -2
-2 -11 -5 2089.86 123.217 1
2 11 -9 268.632 114.234 -2
-2 -11 -6 268.632 114.234 1
2 11 -10 1181.86 124.683 -2
-2 -11 -7 1181.86 124.683 1
2 11 -11 468.669 178.352 -2
-2 -11 -8 468.669 178.352 1
2 11 -12 414.558 191.858 -2
-2 -11 -9 414.558 191.858 1
2 11 -13 414.665 202.655 -2
-2 -11 -10 414.665 202.655 1
2 11 -14 344.861 224.878 -2
-2 -11 -11 344.861 224.878 1
2 11 -15 476.75 247.007 -2
-2 -11 -12 476.75 247.007 1
2 11 -16 764.63 274.051 -2
-2 -11 -13 764.63 274.051 1
-2 -12 -7 262.394 180.083 1
-2 -12 -8 132.306 185.85 1
-2 -12 -9 281.319 200.584 1
-2 -12 -10 691.696 216.55 1
-2 -12 -11 1612.09 246.388 1
-3 14 -9 1920.55 298.153 -2
3 -14 -9 1920.55 298.153 1
-3 14 -8 1348.03 287.304 -2
3 -14 -8 1348.03 287.304 1
-3 14 -7 563.968 271.558 -2
3 -14 -7 563.968 271.558 1
-3 14 -6 298.008 257.891 -2
3 -14 -6 298.008 257.891 1
-3 14 -5 541.865 257.938 -2
3 -14 -5 541.865 257.938 1
-3 14 -4 370.061 235.568 -2
3 -14 -4 370.061 235.568 1
-3 14 -3 285.362 227.647 -2
3 -14 -3 285.362 227.647 1
-3 14 -2 313.588 240.972 -2
3 -14 -2 313.588 240.972 1
-3 13 -11 149.836 272.698 -2
3 -13 -11 149.836 272.698 1
-3 13 -10 439.168 256.844 -2
3 -13 -10 439.168 256.844 1
-3 13 -9 339.816 240.907 -2
3 -13 -9 339.816 240.907 1
-3 13 -8 334.877 229.949 -2
3 -13 -8 334.877 229.949 1
-3 13 -7 176.474 212.046 -2
3 -13 -7 176.474 212.046 1
-3 13 -6 1846.3 225.986 -2
3 -13 -6 1846.3 225.986 1
-3 13 -5 288.714 203.393 -2
3 -13 -5 288.714 203.393 1
-3 13 -4 701.238 205.227 -2
3 -13 -4 701.238 205.227 1
-3 13 -3 902.601 203.911 -2
3 -13 -3 902.601 203.911 1
-3 13 -2 340.088 181.052 -2
3 -13 -2 340.088 181.052 1
-3 13 -1 999.648 195.356 -2
3 -13 -1 999.648 195.356 1
-3 13 0 320.584 191.275 -2
3 -13 0 320.584 191.275 1
-3 13 1 1519.28 188.205 -2
3 -13 1 1519.28 188.205 1
-3 13 2 384.489 190.46 -2
3 -13 2 384.489 190.46 1
3 -13 -8 587.444 224.209 -2
-3 13 -8 587.444 224.209 1
3 -13 -9 137.072 230.119 -2
-3 13 -9 137.072 230.119 1
3 -13 -10 375.801 245.637 -2
-3 13 -10 375.801 245.637 1
3 -13 -11 202.782 265.995 -2
-3 13 -11 202.782 265.995 1
3 -13 -12 117.802 292.187 -2
-3 13 -12 117.802 292.187 1
-3 12 -13 243.622 265.763 -2
3 -12 -13 243.622 265.763 1
-3 12 -12 375.57 249.432 -2
3 -12 -12 375.57 249.432 1
-3 12 -11 346.274 234.589 -2
3 -12 -11 346.274 234.589 1
-3 12 -10 603.674 227.375 -2
3 -12 -10 603.674 227.375 1
-3 12 -9 15.7771 203.453 -2
3 -12 -9 15.7771 203.453 1
-3 12 -8 252.879 191.521 -2
3 -12 -8 252.879 191.521 1
-3 12 -7 273.183 188.362 -2
3 -12 -7 273.183 188.362 1
-3 12 -6 357.31 177.786 -2
3 -12 -6 357.31 177.786 1
-3 12 -5 876.736 174.885 -2
3 -12 -5 876.736 174.885 1
-3 12 -4 197.156 168.849 -2
3 -12 -4 197.156 168.849 1
-3 12 -3 651.194 172.297 -2
3 -12 -3 651.194 172.297 1
-3 12 -2 706.99 171.267 -2
3 -12 -2 706.99 171.267 1
-3 12 -1 1285.06 165.866 -2
3 -12 -1 1285.06 165.866 1
-3 12 0 4229.08 205.717 -2
3 -12 0 4229.08 205.717 1
-3 12 1 858.576 168.584 -2
3 -12 1 858.576 168.584 1
-3 12 2 907.676 157.881 -2
3 -12 2 907.676 157.881 1
-3 12 3 624.026 113.119 -2
3 -12 3 624.026 113.119 1
3 -12 -4 207.328 108.878 -2
-3 12 -4 207.328 108.878 1
3 -12 -5 1309.86 120.862 -2
-3 12 -5 1309.86 120.862 1
3 -12 -6 650.16 160.594 -2
-3 12 -6 650.16 160.594 1
3 -12 -7 352.991 168.686 -2
-3 12 -7 352.991 168.686 1
3 -12 -8 73.2176 175.254 -2
-3 12 -8 73.2176 175.254 1
3 -12 -9 223.313 191.286 -2
-3 12 -9 223.313 191.286 1
3 -12 -10 359.364 203.945 -2
-3 12 -10 359.364 203.945 1
3 -12 -11 307.723 218.703 -2
-3 12 -11 307.723 218.703 1
3 -12 -12 544.36 234.006 -2
-3 12 -12 544.36 234.006 1
3 -12 -13 244.419 249.128 -2
-3 12 -13 244.419 249.128 1
3 -12 -14 407.824 278.499 -2
-3 12 -14 407.824 278.499 1
-3 11 -15 449.995 195.005 -2
3 -11 -15 449.995 195.005 1
-3 11 -14 498.912 178.298 -2
3 -11 -14 498.912 178.298 1
-3 11 -13 1018.98 238.18 -2
3 -11 -13 1018.98 238.18 1
-3 11 -12 883.835 221.213 -2
3 -11 -12 883.835 221.213 1
-3 11 -11 330.231 199.939 -2
3 -11 -11 330.231 199.939 1
-3 11 -10 368.186 189.217 -2
3 -11 -10 368.186 189.217 1
-3 11 -9 621.832 180.854 -2
3 -11 -9 621.832 180.854 1
-3 11 -8 413.662 174.679 -2
3 -11 -8 413.662 174.679 1
-3 11 -7 214.12 158.707 -2
3 -11 -7 214.12 158.707 1
-3 11 -6 306.891 151.67 -2
3 -11 -6 306.891 151.67 1
-3 11 -5 885.973 153.002 -2
3 -11 -5 885.973 153.002 1
-3 11 -4 480.925 143.681 -2
3 -11 -4 480.925 143.681 1
-3 11 -3 1076.34 150.88 -2
3 -11 -3 1076.34 150.88 1
-3 11 -2 236.252 137.784 -2
3 -11 -2 236.252 137.784 1
3 -11 1 1043.89 89.8477 -2
-3 11 1 1043.89 89.8477 1
-3 11 0 164.488 81.9336 -2
3 -11 0 164.488 81.9336 1
3 -11 -1 1109.28 91.0853 -2
-3 11 -1 1109.28 91.0853 1
3 -11 -2 222.474 86.4492 -2
-3 11 -2 222.474 86.4492 1
3 -11 -3 1255.66 98.2646 -2
-3 11 -3 1255.66 98.2646 1
3 -11 -4 918.594 101.607 -2
-3 11 -4 918.594 101.607 1
3 -11 -5 1690.75 107.563 -2
-3 11 -5 1690.75 107.563 1
3 -11 -6 354.217 103.445 -2
-3 11 -6 354.217 103.445 1
3 -11 -7 401.1 102.297 -2
-3 11 -7 401.1 102.297 1
3 -11 -8 123.643 149.873 -2
-3 11 -8 123.643 149.873 1
3 -11 -9 759.101 167.214 -2
-3 11 -9 759.101 167.214 1
3 -11 -10 495.74 175.677 -2
-3 11 -10 495.74 175.677 1
3 -11 -11 388.117 187.688 -2
-3 11 -11 388.117 187.688 1
3 -11 -12 1430.68 211.826 -2
-3 11 -12 1430.68 211.826 1
3 -11 -13 1768.05 224.952 -2
-3 11 -13 1768.05 224.952 1
3 -11 -14 796.59 230.867 -2
-3 11 -14 796.59 230.867 1
3 -11 -15 597.474 255.722 -2
-3 11 -15 597.474 255.722 1
3 -10 16 446.454 185.076 -2
-3 10 16 446.454 185.076 1
-3 10 -15 2028.93 178.821 -2
3 -10 -15 2028.93 178.821 1
3 -10 14 1338.2 162.709 -2
-3 10 14 1338.2 162.709 1
-3 10 -13 1786.6 154.403 -2
3 -10 -13 1786.6 154.403 1
3 -10 12 1854.12 144.735 -2
-3 10 12 1854.12 144.735 1
3 -10 11 474.603 127.837 -2
-3 10 11 474.603 127.837 1
-3 10 -10 140.697 116.452 -2
3 -10 -10 140.697 116.452 1
-3 10 -9 1072.5 161.04 -2
3 -10 -9 1072.5 161.04 1
-3 10 -8 407.844 149.58 -2
3 -10 -8 407.844 149.58 1
-3 10 -7 755.928 141.437 -2
3 -10 -7 755.928 141.437 1
-3 10 -6 3923.34 164.169 -2
3 -10 -6 3923.34 164.169 1
-3 10 -5 3842.93 157.698 -2
3 -10 -5 3842.93 157.698 1
-3 10 -4 2552.16 84.6634 -2
3 -10 -4 2552.16 84.6634 1
3 -10 3 474.713 72.7509 -2
-3 10 3 474.713 72.7509 1
-3 10 -2 390.336 74.4177 -2
3 -10 -2 390.336 74.4177 1
-3 10 -1 933.147 76.9924 -2
3 -10 -1 933.147 76.9924 1
-3 10 0 685.607 76.771 -2
3 -10 0 685.607 76.771 1
3 -10 -1 589.826 76.0857 -2
-3 10 -1 589.826 76.0857 1
-3 10 2 337.235 77.3946 -2
3 -10 2 337.235 77.3946 1
3 -10 -3 806.403 79.6048 -2
-3 10 -3 806.403 79.6048 1
3 -10 4 4280.28 125.962 1
3 -10 -4 4114.31 137.776 -2
-3 10 -4 4114.31 137.776 1
-3 10 -5 5936.93 142.152 1
3 -10 -5 6921.12 167.629 -2
-3 10 -5 6921.12 167.629 1
-3 10 -6 7621.23 164.274 1
3 -10 -6 7741.75 182.484 -2
-3 10 -6 7741.75 182.484 1
-3 10 -7 75.5889 98.6534 1
3 -10 -7 414.625 139.545 -2
-3 10 -7 414.625 139.545 1
-3 10 -8 85.2885 104.102 1
3 -10 -8 209.7 140.674 -2
-3 10 -8 209.7 140.674 1
3 -10 -9 779.652 102.001 -2
-3 10 -9 779.652 102.001 1
-3 10 -10 126.542 124.448 1
3 -10 -10 225.428 149.8 -2
-3 10 -10 225.428 149.8 1
3 -10 -11 626.046 163.97 -2
-3 10 -11 626.046 163.97 1
3 -10 -12 3702.8 205.684 -2
-3 10 -12 3702.8 205.684 1
-3 10 -13 3399.92 203.819 1
-3 10 -14 669.588 182.187 1
-3 10 -15 480.281 195.895 1
-3 10 -16 89.2504 211.135 1
3 -9 -18 91.942 154.677 1
-3 9 17 968.845 146.267 1
3 -9 -16 667.698 182.312 1
3 -9 15 944.78 227.894 -2
-3 9 16 944.78 227.894 1
3 -9 -15 263.164 158.511 1
3 -9 14 352.286 206.66 -2
-3 9 15 352.286 206.66 1
3 -9 -14 815.121 157.774 1
3 -9 13 890.231 198.224 -2
-3 9 14 890.231 198.224 1
3 -9 -13 33.9209 136.704 1
3 -9 12 239.796 177.698 -2
-3 9 13 239.796 177.698 1
3 -9 -12 842.849 141.735 1
3 -9 11 1058.81 170.248 -2
-3 9 12 1058.81 170.248 1
3 -9 -11 345.62 123.397 1
3 -9 10 624.493 154.306 -2
-3 9 11 624.493 154.306 1
3 -9 9 771.086 104.812 -2
-3 9 10 771.086 104.812 1
-3 9 -8 519.982 98.8542 -2
3 -9 -9 519.982 98.8542 1
3 -9 -8 396.923 106.055 1
3 -9 7 1084.16 134.891 -2
-3 9 8 1084.16 134.891 1
3 -9 -7 242.827 99.5409 1
3 -9 6 772.663 92.5893 -2
-3 9 7 772.663 92.5893 1
3 -9 -6 110.804 97.6754 1
3 -9 5 702.811 89.2137 -2
-3 9 6 702.811 89.2137 1
3 -9 -5 293.76 94.3148 1
3 -9 4 628.354 86.0294 -2
-3 9 5 628.354 86.0294 1
-3 9 4 1362.53 62.7415 1
-3 9 3 8.04171 52.7436 1
-3 9 2 137.624 53.2404 1
3 -9 -1 327.382 53.1359 1
-3 9 0 755.254 57.6163 1
-3 9 -1 5536.76 87.8833 1
-3 9 -2 2156.92 70.6756 1
-3 9 -3 2623.9 73.4663 1
-3 9 -4 395.146 58.3892 1
-3 9 -5 1065.89 53.1246 1
-3 9 -6 1280.15 74.6778 1
-3 9 -7 1126.36 75.8454 1
-3 9 -8 931.897 76.0835 1
-3 9 -9 679.072 80.9403 1
-3 9 -10 654.734 84.1667 1
-3 9 -11 605.787 127.56 1
-3 9 -12 61.8359 136.518 1
-3 9 -13 -31.3543 154.015 1
-3 9 -14 189.054 163.544 1
-3 9 -15 383.69 176.818 1
-3 9 -16 104.313 183.765 1
-3 9 -17 134.491 204.83 1
3 -8 18 476.038 187.618 -2
-3 8 19 476.038 187.618 1
-3 8 -17 570.593 167.031 -2
3 -8 -18 570.593 167.031 1
-3 8 -16 445.267 148.732 -2
3 -8 -17 445.267 148.732 1
-3 8 -15 522.57 139.146 -2
3 -8 -16 522.57 139.146 1
3 -8 14 340.003 126.244 -2
-3 8 15 340.003 126.244 1
-3 8 -13 241.715 116.724 -2
3 -8 -14 241.715 116.724 1
-3 8 -12 1928.4 119.242 -2
3 -8 -13 1928.4 119.242 1
-3 8 -11 2857.81 117.636 -2
3 -8 -12 2857.81 117.636 1
-3 8 -10 1203.26 101.854 -2
3 -8 -11 1203.26 101.854 1
-3 8 -9 104.037 87.7791 -2
3 -8 -10 104.037 87.7791 1
3 -8 8 156.232 84.9243 -2
-3 8 9 156.232 84.9243 1
-3 8 -7 243.44 82.1154 -2
3 -8 -8 243.44 82.1154 1
3 -8 6 1928.11 89.0613 -2
-3 8 7 1928.11 89.0613 1
-3 8 -5 9951.77 174.105 -2
3 -8 -6 9951.77 174.105 1
-3 8 -4 13917.4 114.182 -2
3 -8 -5 13917.4 114.182 1
-3 8 -3 7421.05 92.3486 -2
3 -8 -4 7421.05 92.3486 1
3 -8 2 509.279 60.1103 -2
-3 8 3 509.279 60.1103 1
-3 8 -1 2520.18 69.3137 -2
3 -8 -2 2520.18 69.3137 1
-3 8 0 3221 76.2162 -2
3 -8 -1 3221 76.2162 1
-3 8 1 5786.99 85.6669 -2
3 -8 0 5786.99 85.6669 1
-3 8 2 2034.08 70.2835 -2
3 -8 1 2034.08 70.2835 1
-3 8 3 589.54 65.366 -2
3 -8 2 589.54 65.366 1
-3 8 4 5422.94 89.3671 -2
3 -8 3 5422.94 89.3671 1
-3 8 5 13670.1 122.187 -2
3 -8 4 13670.1 122.187 1
-3 8 -5 5135.78 84.3368 1
3 -8 -6 8962.86 153.875 -2
-3 8 -5 8962.86 153.875 1
-3 8 -6 274.584 85.6907 1
3 -8 -7 950.329 107.241 -2
-3 8 -6 950.329 107.241 1
3 -8 -8 183.617 74.3546 -2
-3 8 -7 183.617 74.3546 1
-3 8 -8 80.0012 83.3745 1
3 -8 -9 135.618 120.547 -2
-3 8 -8 135.618 120.547 1
-3 8 -9 68.4311 90.1924 1
3 -8 -10 137.684 127.929 -2
-3 8 -9 137.684 127.929 1
3 -8 -11 1027.45 95.1563 -2
-3 8 -10 1027.45 95.1563 1
3 -8 -12 1531.27 144.865 -2
-3 8 -11 1531.27 144.865 1
3 -8 -13 1332.3 155.029 -2
-3 8 -12 1332.3 155.029 1
3 -8 -14 331.521 159.897 -2
-3 8 -13 331.521 159.897 1
3 -8 -15 246.687 174.067 -2
-3 8 -14 246.687 174.067 1
3 -8 -16 371.905 188.593 -2
-3 8 -15 371.905 188.593 1
3 -8 -17 503.121 200.964 -2
-3 8 -16 503.121 200.964 1
3 -8 -18 675.563 230.35 -2
-3 8 -17 675.563 230.35 1
3 -8 -19 494.426 263.106 -2
-3 8 -18 494.426 263.106 1
-3 7 -19 369.225 192.705 -2
3 -7 -20 369.225 192.705 1
3 -7 18 285.857 171.397 -2
-3 7 19 285.857 171.397 1
3 -7 17 673.907 156.725 -2
-3 7 18 673.907 156.725 1
-3 7 -16 373.091 139.1 -2
3 -7 -17 373.091 139.1 1
-3 7 -15 730.43 130.296 -2
3 -7 -16 730.43 130.296 1
-3 7 -14 180.34 117.173 -2
3 -7 -15 180.34 117.173 1
3 -7 13 391.024 108.063 -2
-3 7 14 391.024 108.063 1
3 -7 12 669.928 103.218 -2
-3 7 13 669.928 103.218 1
3 -7 11 3518.93 122.327 -2
-3 7 12 3518.93 122.327 1
3 -7 10 364.887 88.9926 -2
-3 7 11 364.887 88.9926 1
-3 7 -9 4639 119.521 -2
3 -7 -10 4639 119.521 1
3 -7 8 2649.85 99.5929 -2
-3 7 9 2649.85 99.5929 1
3 -7 7 4089.97 106.443 -2
-3 7 8 4089.97 106.443 1
3 -7 6 3691.98 100.998 -2
-3 7 7 3691.98 100.998 1
3 -7 5 9381.64 133.406 -2
-3 7 6 9381.64 133.406 1
-3 7 -4 11133.1 136.804 -2
3 -7 -5 11133.1 136.804 1
-3 7 -3 3278.41 125.83 -2
3 -7 -4 3278.41 125.83 1
3 -7 2 234.809 52.3535 -2
-3 7 3 234.809 52.3535 1
-3 7 -1 1362.4 62.5853 -2
3 -7 -2 1362.4 62.5853 1
3 -7 0 128.511 52.6217 -2
-3 7 1 128.511 52.6217 1
-3 7 1 114.377 54.5134 -2
3 -7 0 114.377 54.5134 1
-3 7 2 2360.82 67.6881 -2
3 -7 1 2360.82 67.6881 1
-3 7 3 325.428 58.0252 -2
3 -7 2 325.428 58.0252 1
-3 7 4 2564.28 75.8683 -2
3 -7 3 2564.28 75.8683 1
3 -7 -5 7199.68 108.927 -2
-3 7 -4 7199.68 108.927 1
3 -7 -6 5230.53 98.4086 -2
-3 7 -5 5230.53 98.4086 1
3 -7 -7 2522.64 84.7953 -2
-3 7 -6 2522.64 84.7953 1
3 -7 -8 2236.56 83.6828 -2
-3 7 -7 2236.56 83.6828 1
3 -7 -9 3836.13 100.387 -2
-3 7 -8 3836.13 100.387 1
3 -7 -10 5849.55 118.2 -2
-3 7 -9 5849.55 118.2 1
3 -7 -11 442.84 87.1929 -2
-3 7 -10 442.84 87.1929 1
3 -7 -12 3543.37 172.777 -2
-3 7 -11 3543.37 172.777 1
3 -7 -13 612.138 136.586 -2
-3 7 -12 612.138 136.586 1
3 -7 -14 371.455 148.657 -2
-3 7 -13 371.455 148.657 1
3 -7 -15 314.725 161.476 -2
-3 7 -14 314.725 161.476 1
3 -7 -16 1018.16 183.3 -2
-3 7 -15 1018.16 183.3 1
3 -7 -17 336.407 190.729 -2
-3 7 -16 336.407 190.729 1
3 -7 -18 606.191 217.011 -2
-3 7 -17 606.191 217.011 1
3 -7 -19 381.744 234.159 -2
-3 7 -18 381.744 234.159 1
3 -7 -20 295.211 266.391 -2
-3 7 -19 295.211 266.391 1
-3 6 -20 127.945 273.675 -2
3 -6 -21 127.945 273.675 1
-3 6 -19 297.866 174.206 -2
3 -6 -20 297.866 174.206 1
3 -6 18 240.975 158.821 -2
-3 6 19 240.975 158.821 1
3 -6 17 712.449 147.549 -2
-3 6 18 712.449 147.549 1
3 -6 16 2519.83 151.85 -2
-3 6 17 2519.83 151.85 1
3 -6 15 863.465 124.921 -2
-3 6 16 863.465 124.921 1
3 -6 14 237.692 107.967 -2
-3 6 15 237.692 107.967 1
3 -6 13 926.288 107.19 -2
-3 6 14 926.288 107.19 1
3 -6 12 1783.01 108.294 -2
-3 6 13 1783.01 108.294 1
3 -6 11 674.95 90.3114 -2
-3 6 12 674.95 90.3114 1
3 -6 10 5738.63 127.121 -2
-3 6 11 5738.63 127.121 1
3 -6 9 3404.89 103.968 -2
-3 6 10 3404.89 103.968 1
3 -6 8 521.642 73.4021 -2
-3 6 9 521.642 73.4021 1
-3 6 -7 3315.12 92.8528 -2
3 -6 -8 3315.12 92.8528 1
3 -6 6 15126.1 154.968 -2
-3 6 7 15126.1 154.968 1
3 -6 5 19433.6 170.437 -2
-3 6 6 19433.6 170.437 1
-3 6 -4 10282.2 126.184 -2
3 -6 -5 10282.2 126.184 1
-3 6 -3 234.105 56.532 -2
3 -6 -4 234.105 56.532 1
-3 6 -2 266.608 77.5782 -2
3 -6 -3 266.608 77.5782 1
-3 6 -1 260.198 75.2501 -2
3 -6 -2 260.198 75.2501 1
-3 6 0 995.746 55.8801 -2
3 -6 -1 995.746 55.8801 1
3 -6 -1 627.793 53.449 -2
-3 6 0 627.793 53.449 1
3 -6 -2 260.488 49.982 -2
-3 6 -1 260.488 49.982 1
-3 6 3 451.735 55.146 -2
3 -6 2 451.735 55.146 1
-3 6 4 680.044 58.0549 -2
3 -6 3 680.044 58.0549 1
-3 6 5 17567.4 159.821 -2
3 -6 4 17567.4 159.821 1
3 -6 -6 18074.2 162.054 -2
-3 6 -5 18074.2 162.054 1
3 -6 -7 7897.01 116.286 -2
-3 6 -6 7897.01 116.286 1
3 -6 -8 3669.2 94.3219 -2
-3 6 -7 3669.2 94.3219 1
3 -6 -9 600.686 71.1905 -2
-3 6 -8 600.686 71.1905 1
3 -6 -10 3915.16 105.338 -2
-3 6 -9 3915.16 105.338 1
3 -6 -11 3123.69 105.604 -2
-3 6 -10 3123.69 105.604 1
3 -6 -12 895.702 133.389 -2
-3 6 -11 895.702 133.389 1
3 -6 -13 1262.67 141.638 -2
-3 6 -12 1262.67 141.638 1
3 -6 -14 1567.4 156.003 -2
-3 6 -13 1567.4 156.003 1
3 -6 -15 369.012 152.279 -2
-3 6 -14 369.012 152.279 1
3 -6 -16 1546.65 177.887 -2
-3 6 -15 1546.65 177.887 1
3 -6 -17 1338.7 188.177 -2
-3 6 -16 1338.7 188.177 1
3 -6 -18 434.298 196.753 -2
-3 6 -17 434.298 196.753 1
3 -6 -19 262.01 216.711 -2
-3 6 -18 262.01 216.711 1
3 -6 -20 288.763 247.533 -2
-3 6 -19 288.763 247.533 1
3 -5 20 298.558 187.805 -2
-3 5 21 298.558 187.805 1
3 -5 19 345.957 166.523 -2
-3 5 20 345.957 166.523 1
-3 5 -18 312.699 148.621 -2
3 -5 -19 312.699 148.621 1
3 -5 17 1172.9 139.043 -2
-3 5 18 1172.9 139.043 1
3 -5 16 352.575 124.663 -2
-3 5 17 352.575 124.663 1
3 -5 15 2813.37 133.201 -2
-3 5 16 2813.37 133.201 1
3 -5 14 351.154 103.741 -2
-3 5 15 351.154 103.741 1
3 -5 13 487.2 98.248 -2
-3 5 14 487.2 98.248 1
3 -5 12 292.621 87.1774 -2
-3 5 13 292.621 87.1774 1
-3 5 -11 262.114 78.9312 -2
3 -5 -12 262.114 78.9312 1
3 -5 10 398.657 72.9954 -2
-3 5 11 398.657 72.9954 1
3 -5 9 562.238 69.504 -2
-3 5 10 562.238 69.504 1
3 -5 8 2841.2 79.6219 -2
-3 5 9 2841.2 79.6219 1
3 -5 7 6827.78 93.9103 -2
-3 5 8 6827.78 93.9103 1
-3 5 -6 12633.2 111.965 -2
3 -5 -7 12633.2 111.965 1
-3 5 -5 1653.17 60.8126 -2
3 -5 -6 1653.17 60.8126 1
-3 5 -4 9467.42 90.9763 -2
3 -5 -5 9467.42 90.9763 1
-3 5 -3 3581.11 63.2278 -2
3 -5 -4 3581.11 63.2278 1
-3 5 -2 773.511 70.7545 -2
3 -5 -3 773.511 70.7545 1
-3 5 -1 14045.2 137.749 -2
3 -5 -2 14045.2 137.749 1
3 -5 -1 7857.82 109.562 1
3 -5 -1 4240.66 62.9208 -2
-3 5 0 4240.66 62.9208 1
-3 5 2 9682.8 81.2411 -2
3 -5 1 9682.8 81.2411 1
3 -5 2 70.4916 48.6325 1
3 -5 -3 561.15 68.6717 -2
-3 5 -2 561.15 68.6717 1
3 -5 3 7675.41 109.599 1
3 -5 -4 6827.86 110.284 -2
-3 5 -3 6827.86 110.284 1
-3 5 5 15268.5 104.835 -2
3 -5 4 15268.5 104.835 1
-3 5 -5 3141.6 90.2059 1
3 -5 -6 2935.63 96.5147 -2
-3 5 -5 2935.63 96.5147 1
-3 5 -6 4625.28 99.8701 1
3 -5 -7 10391 150.066 -2
-3 5 -6 10391 150.066 1
3 -5 -8 4132.87 79.5609 -2
-3 5 -7 4132.87 79.5609 1
3 -5 -9 3128.39 78.2125 -2
-3 5 -8 3128.39 78.2125 1
3 -5 -10 1048.25 73.6116 -2
-3 5 -9 1048.25 73.6116 1
3 -5 -11 549.47 112.729 -2
-3 5 -10 549.47 112.729 1
3 -5 -12 301.637 114.959 -2
-3 5 -11 301.637 114.959 1
3 -5 -13 505.6 118.633 -2
-3 5 -12 505.6 118.633 1
3 -5 -14 485.493 130.007 -2
-3 5 -13 485.493 130.007 1
3 -5 -15 351.13 140.193 -2
-3 5 -14 351.13 140.193 1
3 -5 -16 4044.59 186.171 -2
-3 5 -15 4044.59 186.171 1
3 -5 -17 977.635 167.541 -2
-3 5 -16 977.635 167.541 1
3 -5 -18 965.933 185.938 -2
-3 5 -17 965.933 185.938 1
3 -5 -19 405.643 204.415 -2
-3 5 -18 405.643 204.415 1
3 -5 -20 570.556 232.62 -2
-3 5 -19 570.556 232.62 1
3 -5 -21 463.343 263.666 -2
-3 5 -20 463.343 263.666 1
3 -4 20 1358.17 184.771 -2
-3 4 21 1358.17 184.771 1
3 -4 19 1034.5 160.804 -2
-3 4 20 1034.5 160.804 1
3 -4 18 368.266 143.891 -2
-3 4 19 368.266 143.891 1
3 -4 17 1088.04 134.912 -2
-3 4 18 1088.04 134.912 1
3 -4 16 1693.49 125.621 -2
-3 4 17 1693.49 125.621 1
-3 4 -15 715.61 108.314 -2
3 -4 -16 715.61 108.314 1
3 -4 14 1654.29 106.318 -2
-3 4 15 1654.29 106.318 1
3 -4 13 294.723 87.9202 -2
-3 4 14 294.723 87.9202 1
3 -4 12 939.517 85.7128 -2
-3 4 13 939.517 85.7128 1
-3 4 -11 492.005 75.1098 -2
3 -4 -12 492.005 75.1098 1
3 -4 10 1220.78 74.5717 -2
-3 4 11 1220.78 74.5717 1
-3 4 -9 1112.38 67.8079 -2
3 -4 -10 1112.38 67.8079 1
3 -4 -9 8947.09 138.357 1
3 -4 8 9288.51 137.095 -2
-3 4 9 9288.51 137.095 1
3 -4 -8 1169.45 74.3062 1
3 -4 7 1179.06 87.0759 -2
-3 4 8 1179.06 87.0759 1
3 -4 -7 40164.8 239.799 1
3 -4 6 39094.2 211.258 -2
-3 4 7 39094.2 211.258 1
-3 4 6 12704.6 94.9228 1
3 -4 -5 1663.51 45.5797 1
-3 4 4 2985.18 51.1563 1
3 -4 -3 12264.2 83.3963 1
3 -4 -2 14471 132.677 1
3 -4 -1 593.478 53.1082 1
3 -4 0 5484.49 86.3911 1
-3 4 -1 2620.52 49.359 1
3 -4 2 3868.25 55.3287 1
-3 4 -3 164.825 34.2943 1
-3 4 -4 2399.66 52.9503 1
-3 4 -5 9.45124 38.8067 1
-3 4 -6 93.7977 40.5168 1
-3 4 -7 24.2264 42.2193 1
-3 4 -8 619.836 51.7232 1
-3 4 -9 1321.49 63.6722 1
-3 4 -10 1286.14 97.1013 1
-3 4 -11 697.402 97.0569 1
-3 4 -12 147.323 90.9102 1
-3 4 -13 61.9899 99.1229 1
-3 4 -14 2660.01 144.29 1
-3 4 -15 1396.8 139.974 1
-3 4 -16 2154.6 152.702 1
-3 4 -17 1032.3 158.318 1
-3 4 -18 29.8637 159.254 1
-3 4 -19 1310.2 182.726 1
-3 4 -20 2125.7 218.606 1
-3 3 22 236.027 149.391 1
-3 3 21 113.434 132.655 1
-3 3 20 344.993 95.9325 1
3 -3 -19 159.01 85.7497 1
3 -3 -18 209.092 94.8211 1
3 -3 -17 74.8358 125.201 1
3 -3 -16 178.775 119.39 1
3 -3 -15 3063.69 134.618 1
3 -3 -14 10260.1 180.88 1
3 -3 -13 6961.11 148.262 1
3 -3 -12 172.302 85.5886 1
3 -3 -11 133.888 71.9611 1
3 -3 -10 5.21802 44.2717 1
3 -3 -9 30.8146 42.2687 1
-3 3 8 11258 92.4028 1
-3 3 7 113.019 35.5753 1
-3 3 6 325.046 36.1021 1
-3 3 5 503.032 33.817 1
-3 3 4 7306.04 62.1278 1
-3 3 3 1341.79 36.0392 1
3 -3 -2 46101.4 208.738 1
3 -3 -1 13712 117.452 1
3 -3 0 263.998 44.9952 1
-3 3 -1 11.0729 30.1051 1
3 -3 2 96.279 31.8933 1
-3 3 -3 48.9161 32.8454 1
-3 3 -4 102.765 35.2591 1
-3 3 -5 3056.39 55.6123 1
-3 3 -6 727.942 43.838 1
-3 3 -7 1125.86 50.2379 1
-3 3 -8 348.621 48.413 1
-3 3 -9 112.53 72.875 1
-3 3 -10 151.63 78.7025 1
-3 3 -11 1823.52 104.022 1
-3 3 -12 328.348 89.324 1
-3 3 -13 58.9583 99.1194 1
-3 3 -14 1384.98 121.556 1
-3 3 -15 932.442 127.914 1
-3 3 -16 121.798 125.52 1
-3 3 -17 194.175 140.358 1
-3 3 -18 340.637 156.796 1
-3 3 -19 510.148 168.167 1
-3 3 -20 211.536 197.185 1
-3 3 -21 275.792 228.456 1
-3 2 -20 1608.24 183.801 -2
3 -2 -22 1608.24 183.801 1
-3 2 -19 3567.78 173.432 -2
3 -2 -21 3567.78 173.432 1
-3 2 -18 1589.56 145.148 -2
3 -2 -20 1589.56 145.148 1
-3 2 -17 735.729 181.324 -2
3 -2 -19 735.729 181.324 1
-3 2 -16 2767.84 173.24 -2
3 -2 -18 2767.84 173.24 1
-3 2 -15 1911.43 151.328 -2
3 -2 -17 1911.43 151.328 1
-3 2 -14 445.244 127.365 -2
3 -2 -16 445.244 127.365 1
-3 2 -13 1564.79 125.858 -2
3 -2 -15 1564.79 125.858 1
-3 2 -12 2171.41 121.24 -2
3 -2 -14 2171.41 121.24 1
-3 2 -11 5498.22 134.765 -2
3 -2 -13 5498.22 134.765 1
-3 2 -10 963.127 94.4606 -2
3 -2 -12 963.127 94.4606 1
-3 2 -9 152.735 79.3128 -2
3 -2 -11 152.735 79.3128 1
-3 2 -8 2520.18 92.9396 -2
3 -2 -10 2520.18 92.9396 1
3 -2 -9 78.6461 19.5574 1
-3 2 -7 838.865 75.4803 -2
3 -2 -9 838.865 75.4803 1
3 -2 -8 2948.42 42.5898 1
-3 2 -6 3178.85 60.4817 -2
3 -2 -8 3178.85 60.4817 1
-3 2 -5 11327.3 81.1416 -2
3 -2 -7 11327.3 81.1416 1
3 -2 -6 2136.87 61.0865 1
-3 2 5 2408.63 53.7434 1
-3 2 -3 9651.6 99.4929 -2
3 -2 -5 9651.6 99.4929 1
3 -2 -4 11.1143 25.4554 1
3 -2 -3 3623.85 40.3124 1
-3 2 2 2588.14 26.0332 1
3 -2 -1 4976.48 40.4184 1
3 -2 0 395.68 43.8284 1
3 -2 1 220.958 42.474 1
-3 2 -2 2798.39 37.455 1
-3 2 -3 15080.2 91.7457 1
-3 2 -4 385.499 35.2091 1
-3 2 -5 8320.87 76.3529 1
-3 2 -6 500.833 40.7341 1
3 -2 -9 1240.24 56.5748 -2
-3 2 -7 1240.24 56.5748 1
3 -2 -10 2058.09 90.7294 -2
-3 2 -8 2058.09 90.7294 1
3 -2 -11 112.661 86.7293 -2
-3 2 -9 112.661 86.7293 1
3 -2 -12 903.736 99.1368 -2
-3 2 -10 903.736 99.1368 1
3 -2 -13 3790.8 123.381 -2
-3 2 -11 3790.8 123.381 1
3 -2 -14 1205.31 110.004 -2
-3 2 -12 1205.31 110.004 1
3 -2 -15 1000.76 121.294 -2
-3 2 -13 1000.76 121.294 1
3 -2 -16 344.873 127.253 -2
-3 2 -14 344.873 127.253 1
3 -2 -17 1014.92 141.24 -2
-3 2 -15 1014.92 141.24 1
3 -2 -18 1595.9 166.396 -2
-3 2 -16 1595.9 166.396 1
3 -2 -19 1004.69 181.665 -2
-3 2 -17 1004.69 181.665 1
3 -2 -20 1578.89 206.586 -2
-3 2 -18 1578.89 206.586 1
3 -2 -21 4955.41 260.4 -2
-3 2 -19 4955.41 260.4 1
3 -2 -22 2366.75 273.028 -2
-3 2 -20 2366.75 273.028 1
3 -2 -23 774.708 321.414 -2
-3 2 -21 774.708 321.414 1
-3 1 -21 389.823 306.696 -2
3 -1 -23 389.823 306.696 1
-3 1 -20 986.432 261.906 -2
3 -1 -22 986.432 261.906 1
-3 1 -19 669.165 156.624 -2
3 -1 -21 669.165 156.624 1
-3 1 -18 575.909 191.965 -2
3 -1 -20 575.909 191.965 1
-3 1 -17 3395.5 208.064 -2
3 -1 -19 3395.5 208.064 1
-3 1 -16 314.188 154.313 -2
3 -1 -18 314.188 154.313 1
-3 1 -15 716.659 145.657 -2
3 -1 -17 716.659 145.657 1
-3 1 -14 123.883 129.681 -2
3 -1 -16 123.883 129.681 1
-3 1 -13 182.006 115.852 -2
3 -1 -15 182.006 115.852 1
-3 1 -12 1467.37 122.795 -2
3 -1 -14 1467.37 122.795 1
-3 1 -11 1408.45 114.41 -2
3 -1 -13 1408.45 114.41 1
-3 1 -10 276.599 91.0381 -2
3 -1 -12 276.599 91.0381 1
-3 1 -9 982.745 96.2668 -2
3 -1 -11 982.745 96.2668 1
-3 1 -8 1341.14 91.4971 -2
3 -1 -10 1341.14 91.4971 1
-3 1 -7 1126.97 80.979 -2
3 -1 -9 1126.97 80.979 1
-3 1 -6 3208.8 26.7265 -2
3 -1 -8 3208.8 26.7265 1
-3 1 -5 1273.12 46.646 -2
3 -1 -7 1273.12 46.646 1
-3 1 -4 1636.07 48.0559 -2
3 -1 -6 1636.07 48.0559 1
-3 1 -3 20034.1 147.96 -2
3 -1 -5 20034.1 147.96 1
-3 1 -2 12100.1 105.502 -2
3 -1 -4 12100.1 105.502 1
-3 1 -1 23437.3 71.2946 -2
3 -1 -3 23437.3 71.2946 1
-3 1 2 109002 141.215 1
-3 1 0 107813 965.639 -2
3 -1 -2 107813 965.639 1
3 -1 -1 31113.7 67.4138 1
-3 1 1 47693.7 178.272 -2
3 -1 -1 47693.7 178.272 1
-3 1 2 66425.9 214.056 -2
3 -1 0 66425.9 214.056 1
3 -1 -3 21382.8 135.81 -2
-3 1 -1 21382.8 135.81 1
3 -1 -4 17169.6 89.2325 -2
-3 1 -2 17169.6 89.2325 1
3 -1 -5 30057.6 119.586 -2
-3 1 -3 30057.6 119.586 1
3 -1 -6 2487.79 53.7474 -2
-3 1 -4 2487.79 53.7474 1
3 -1 -7 980.333 48.1082 -2
-3 1 -5 980.333 48.1082 1
3 -1 -8 3151.44 92.9218 -2
-3 1 -6 3151.44 92.9218 1
3 -1 -9 2193.79 88.1746 -2
-3 1 -7 2193.79 88.1746 1
3 -1 -10 1284.96 87.2165 -2
-3 1 -8 1284.96 87.2165 1
3 -1 -11 1128.66 98.2318 -2
-3 1 -9 1128.66 98.2318 1
3 -1 -12 123.386 85.9407 -2
-3 1 -10 123.386 85.9407 1
3 -1 -13 1106.72 104.045 -2
-3 1 -11 1106.72 104.045 1
3 -1 -14 2207.37 124.263 -2
-3 1 -12 2207.37 124.263 1
3 -1 -15 124.972 109.54 -2
-3 1 -13 124.972 109.54 1
-3 1 16 156.719 80.1338 -2
3 -1 14 156.719 80.1338 1
3 -1 -17 1109.34 146.336 -2
-3 1 -15 1109.34 146.336 1
3 -1 -18 576.258 156.772 -2
-3 1 -16 576.258 156.772 1
3 -1 -19 2185.41 196.054 -2
-3 1 -17 2185.41 196.054 1
3 -1 -20 545.734 202.201 -2
-3 1 -18 545.734 202.201 1
3 -1 -21 802.493 227.044 -2
-3 1 -19 802.493 227.044 1
3 -1 -22 1564.06 274.74 -2
-3 1 -20 1564.06 274.74 1
3 -1 -23 9.09392 333.531 -2
-3 1 -21 9.09392 333.531 1
-3 0 -21 217.131 285.721 -2
3 0 -23 217.131 285.721 1
-3 0 -20 197.942 240.005 -2
3 0 -22 197.942 240.005 1
-3 0 -19 1357.79 227.645 -2
3 0 -21 1357.79 227.645 1
-3 0 -18 1440.81 203.763 -2
3 0 -20 1440.81 203.763 1
-3 0 -17 2936.99 210.742 -2
3 0 -19 2936.99 210.742 1
-3 0 -16 5033.41 218.835 -2
3 0 -18 5033.41 218.835 1
-3 0 -15 1886.82 163.71 -2
3 0 -17 1886.82 163.71 1
-3 0 -14 2145.56 158.037 -2
3 0 -16 2145.56 158.037 1
-3 0 -13 4025.58 172.396 -2
3 0 -15 4025.58 172.396 1
-3 0 -12 0.9931 109.399 -2
3 0 -14 0.9931 109.399 1
-3 0 -11 279.027 103.101 -2
3 0 -13 279.027 103.101 1
-3 0 -10 1074.59 105.965 -2
3 0 -12 1074.59 105.965 1
-3 0 -9 523.853 93.5467 -2
3 0 -11 523.853 93.5467 1
-3 0 -8 5010.73 135.85 -2
3 0 -10 5010.73 135.85 1
-3 0 -7 1513.63 91.0181 -2
3 0 -9 1513.63 91.0181 1
-3 0 -6 819.036 45.4059 -2
3 0 -8 819.036 45.4059 1
-3 0 -5 16107.7 66.7167 -2
3 0 -7 16107.7 66.7167 1
-3 0 -4 447.009 34.0241 -2
3 0 -6 447.009 34.0241 1
-3 0 -3 24534.1 117.805 -2
3 0 -5 24534.1 117.805 1
-3 0 -2 27000.5 120.527 -2
3 0 -4 27000.5 120.527 1
-3 0 -1 12929.2 107.848 -2
3 0 -3 12929.2 107.848 1
-3 0 0 28013.9 159.395 -2
3 0 -2 28013.9 159.395 1
-3 0 1 1197.24 53.4309 -2
3 0 -1 1197.24 53.4309 1
3 0 0 12923.8 43.2879 1
3 0 -2 22438.5 149.184 -2
-3 0 0 22438.5 149.184 1
3 0 -3 20328.3 146.379 -2
-3 0 -1 20328.3 146.379 1
3 0 -4 33761.9 143.99 -2
-3 0 -2 33761.9 143.99 1
3 0 -5 29500.8 142.873 -2
-3 0 -3 29500.8 142.873 1
3 0 -6 559.48 41.1605 -2
-3 0 -4 559.48 41.1605 1
3 0 -7 12190.6 144.071 -2
-3 0 -5 12190.6 144.071 1
3 0 -8 619.498 65.8473 -2
-3 0 -6 619.498 65.8473 1
3 0 -9 1756.51 84.3368 -2
-3 0 -7 1756.51 84.3368 1
3 0 -10 9367.92 159.507 -2
-3 0 -8 9367.92 159.507 1
3 0 -11 596.11 87.488 -2
-3 0 -9 596.11 87.488 1
3 0 -12 1447.25 96.2522 -2
-3 0 -10 1447.25 96.2522 1
3 0 -13 341.991 91.211 -2
-3 0 -11 341.991 91.211 1
-3 0 14 128.845 67.1093 -2
3 0 12 128.845 67.1093 1
3 0 -15 7642.9 118.671 -2
-3 0 -13 7642.9 118.671 1
-3 0 16 3294.88 102.776 -2
3 0 14 3294.88 102.776 1
3 0 -17 1386.76 149.797 -2
-3 0 -15 1386.76 149.797 1
3 0 -18 2804.56 182.93 -2
-3 0 -16 2804.56 182.93 1
3 0 -19 1737.81 191.831 -2
-3 0 -17 1737.81 191.831 1
3 0 -20 850.783 199.657 -2
-3 0 -18 850.783 199.657 1
3 0 -21 2394.11 252.181 -2
-3 0 -19 2394.11 252.181 1
3 0 -22 348.178 300.543 -2
-3 0 -20 348.178 300.543 1
-3 -1 -20 236.074 244.254 -2
3 1 -22 236.074 244.254 1
-3 -1 -19 391.534 217.116 -2
3 1 -21 391.534 217.116 1
-3 -1 -18 1951.61 213.904 -2
3 1 -20 1951.61 213.904 1
-3 -1 -17 814.317 181.317 -2
3 1 -19 814.317 181.317 1
-3 -1 -16 390.042 161.544 -2
3 1 -18 390.042 161.544 1
-3 -1 -15 467.059 153.191 -2
3 1 -17 467.059 153.191 1
-3 -1 -14 328.834 137.569 -2
3 1 -16 328.834 137.569 1
-3 -1 -13 617.676 130.667 -2
3 1 -15 617.676 130.667 1
-3 -1 -12 4203.14 146.487 -2
3 1 -14 4203.14 146.487 1
-3 -1 -11 2.78216 102.576 -2
3 1 -13 2.78216 102.576 1
-3 -1 -10 219.09 95.3611 -2
3 1 -12 219.09 95.3611 1
-3 -1 -9 2774.96 112.05 -2
3 1 -11 2774.96 112.05 1
-3 -1 -8 20505.4 201.452 -2
3 1 -10 20505.4 201.452 1
-3 -1 -7 25665.2 206.235 -2
3 1 -9 25665.2 206.235 1
3 1 -8 4050.77 37.5121 1
-3 -1 -6 4086.85 53.9019 -2
3 1 -8 4086.85 53.9019 1
3 1 -7 97.3461 23.1925 1
-3 -1 -5 147.914 31.9296 -2
3 1 -7 147.914 31.9296 1
3 1 -6 1023.18 23.5629 1
-3 -1 -4 10719.3 111.28 -2
3 1 -6 10719.3 111.28 1
3 1 -5 645.632 29.7202 1
-3 -1 -3 2133.63 37.8752 -2
3 1 -5 2133.63 37.8752 1
3 1 -4 2727.85 34.0519 1
-3 -1 -2 4308.06 59.9224 -2
3 1 -4 4308.06 59.9224 1
3 1 -3 3979.12 36.2192 1
-3 -1 2 22.4684 14.3423 1
-3 -1 1 988.044 19.1568 1
3 1 0 7543.51 40.9918 1
3 1 1 1900.65 36.7233 1
3 1 -3 3585.82 64.1775 -2
-3 -1 -1 3585.82 64.1775 1
-3 -1 -2 2975.52 52.715 1
3 1 -4 4008.9 72.9838 -2
-3 -1 -2 4008.9 72.9838 1
-3 -1 -3 2760.34 54.2293 1
3 1 -6 18405.3 113.503 -2
-3 -1 -4 18405.3 113.503 1
3 1 -7 94.5395 50.6069 -2
-3 -1 -5 94.5395 50.6069 1
3 1 -8 2946.74 69.4248 -2
-3 -1 -6 2946.74 69.4248 1
3 1 -9 48095.8 220.338 -2
-3 -1 -7 48095.8 220.338 1
3 1 -10 33540.8 208.793 -2
-3 -1 -8 33540.8 208.793 1
-3 -1 11 5731.91 77.2745 -2
3 1 9 5731.91 77.2745 1
-3 -1 12 226.402 56.6807 -2
3 1 10 226.402 56.6807 1
3 1 -13 149.395 58.2311 -2
-3 -1 -11 149.395 58.2311 1
-3 -1 14 2713.51 78.4482 -2
3 1 12 2713.51 78.4482 1
-3 -1 15 1084.91 75.8778 -2
3 1 13 1084.91 75.8778 1
3 1 -16 516.348 78.1882 -2
-3 -1 -14 516.348 78.1882 1
3 1 -17 630.195 136.851 -2
-3 -1 -15 630.195 136.851 1
3 1 -18 456.224 157.624 -2
-3 -1 -16 456.224 157.624 1
3 1 -19 579.561 177.268 -2
-3 -1 -17 579.561 177.268 1
3 1 -20 1761.37 216.876 -2
-3 -1 -18 1761.37 216.876 1
3 2 -22 217.251 203.322 1
3 2 -21 287.255 181.603 1
3 2 -20 2750.31 191.758 1
3 2 -19 196.359 143.818 1
3 2 -18 369.034 135.575 1
3 2 -17 660.965 127.812 1
3 2 -16 1700.01 127.783 1
3 2 -15 616.821 105.151 1
3 2 -14 832.022 99.8299 1
3 2 -13 482.4 87.7289 1
3 2 -12 6.41798 75.2833 1
3 2 -11 52.2473 70.0743 1
3 2 -10 2395.43 88.8665 1
3 2 -9 2240.98 43.1825 1
3 2 -8 203.001 19.2765 1
3 2 -7 305.716 18.3917 1
3 2 -6 789.286 18.4535 1
3 2 -5 523.518 15.1584 1
3 2 -4 5781.17 30.6124 1
3 2 -3 7979.05 37.8108 1
3 2 -2 20008.3 55.3055 1
-3 -2 1 533.493 26.3492 1
3 2 0 471.031 26.5281 1
3 2 1 25573.5 96.5847 1
3 2 2 16988.6 63.0808 1
3 2 3 18350.4 68.0484 1
-3 -2 -4 339.235 23.8836 1
3 2 5 2551.79 42.2642 1
3 2 6 859.811 38.6733 1
-3 -2 -7 55402.2 175.341 1
3 2 8 13779.1 96.2352 1
-3 -2 -9 22699.3 126.914 1
3 2 10 8.20002 43.7198 1
3 2 11 727.86 52.4987 1
3 2 12 285.944 54.7917 1
3 2 13 80.2811 57.8047 1
3 2 14 94.0975 63.3862 1
-3 -2 -15 56.6897 106.717 1
-3 -2 -16 95.0483 117.762 1
3 2 20 464.759 212.554 1
3 3 -22 218.834 206.985 1
3 3 -21 163.671 183.739 1
3 3 -20 233.224 166.82 1
3 3 -19 403.593 149.732 1
3 3 -18 56.4214 134.538 1
3 3 -17 113.508 121.261 1
3 3 -16 457.077 113.386 1
3 3 -15 1095.23 112.464 1
3 3 -14 999.664 101.831 1
3 3 -13 4452.08 126.825 1
3 3 -12 281.432 77.7507 1
3 3 -11 2511.02 96.4679 1
3 3 -10 3669.37 48.4133 1
3 3 -9 244.267 19.8808 1
3 3 -8 1514.83 17.464 1
3 3 -7 5298.49 56.8363 1
3 3 -6 3302.67 47.8305 1
3 3 -5 17690.5 94.2143 1
3 3 -4 18862.8 94.9235 1
3 3 -3 9.10946 25.9704 1
-3 -3 2 10266.5 45.0062 1
3 3 -1 243.495 44.3428 1
3 3 0 1073.4 54.9001 1
3 3 1 4628.83 36.5947 1
3 3 2 1050.64 21.4565 1
3 3 3 2326.77 29.7081 1
-3 -3 -4 48.0182 20.9151 1
3 3 5 395.874 26.6772 1
3 3 6 319.754 28.6858 1
3 3 7 4397.12 49.418 1
3 3 8 304.894 34.0953 1
3 3 9 841.763 46.5063 1
3 3 10 2230.01 59.1776 1
-3 -3 -11 263.083 49.6704 1
3 3 12 3324.05 72.9173 1
-3 -3 -13 358.237 62.0181 1
3 3 14 55.1675 66.4013 1
3 3 15 549.37 130.53 1
3 3 16 2299.71 164.87 1
3 3 17 3486.92 189.643 1
3 3 18 2640.41 202.073 1
3 3 19 384.341 197.555 1
3 3 20 61.7642 218.289 1
-3 -4 -19 563.631 258.313 -2
3 4 -22 563.631 258.313 1
-3 -4 -18 899.895 240.145 -2
3 4 -21 899.895 240.145 1
-3 -4 -17 764.207 218.989 -2
3 4 -20 764.207 218.989 1
-3 -4 -16 121.691 191.942 -2
3 4 -19 121.691 191.942 1
-3 -4 -15 781.574 180.733 -2
3 4 -18 781.574 180.733 1
-3 -4 -14 372.962 161.67 -2
3 4 -17 372.962 161.67 1
-3 -4 -13 848.916 151.05 -2
3 4 -16 848.916 151.05 1
-3 -4 -12 2877.93 161.019 -2
3 4 -15 2877.93 161.019 1
-3 -4 -11 2526.09 146.538 -2
3 4 -14 2526.09 146.538 1
-3 -4 -10 484.734 126.237 -2
3 4 -13 484.734 126.237 1
-3 -4 -9 1759.62 48.9474 -2
3 4 -12 1759.62 48.9474 1
3 4 -11 12480.2 74.5626 1
-3 -4 -8 16663.5 214.435 -2
3 4 -11 16663.5 214.435 1
-3 -4 -7 14344.4 198.356 -2
3 4 -10 14344.4 198.356 1
-3 -4 -6 24061.2 212.976 -2
3 4 -9 24061.2 212.976 1
3 4 -8 1606.36 56.4195 1
-3 -4 -5 4631 110.919 -2
3 4 -8 4631 110.919 1
-3 -4 -4 1053.5 48.0323 -2
3 4 -7 1053.5 48.0323 1
3 4 -6 8.19581 42.0328 1
-3 -4 -3 94.8606 62.7155 -2
3 4 -6 94.8606 62.7155 1
-3 -4 -2 432.004 40.3575 -2
3 4 -5 432.004 40.3575 1
-3 -4 -1 248.329 37.25 -2
3 4 -4 248.329 37.25 1
3 4 -3 2524.08 56.3013 1
-3 -4 0 2622.09 72.4017 -2
3 4 -3 2622.09 72.4017 1
3 4 -2 200.117 21.4161 1
-3 -4 1 1413.49 68.343 -2
3 4 -2 1413.49 68.343 1
-3 -4 2 2563.92 75.7624 -2
3 4 -1 2563.92 75.7624 1
3 4 -3 1438.6 34.3674 -2
-3 -4 0 1438.6 34.3674 1
3 4 1 297.765 47.4053 1
-3 -4 4 360.766 22.8658 -2
3 4 1 360.766 22.8658 1
-3 -4 5 374.631 44.2305 -2
3 4 2 374.631 44.2305 1
-3 -4 6 114.798 44.3572 -2
3 4 3 114.798 44.3572 1
-3 -4 7 1535.57 55.335 -2
3 4 4 1535.57 55.335 1
-3 -4 8 5542.6 35.079 -2
3 4 5 5542.6 35.079 1
3 4 -9 15831.9 66.4225 -2
-3 -4 -6 15831.9 66.4225 1
-3 -4 10 13475.6 70.7476 -2
3 4 7 13475.6 70.7476 1
3 4 -11 13242.2 79.9578 -2
-3 -4 -8 13242.2 79.9578 1
3 4 -12 1839.3 55.1187 -2
-3 -4 -9 1839.3 55.1187 1
-3 -4 13 471.438 56.5752 -2
3 4 10 471.438 56.5752 1
-3 -4 14 4009.43 97.2828 -2
3 4 11 4009.43 97.2828 1
-3 -4 15 4420.9 106.087 -2
3 4 12 4420.9 106.087 1
-3 -4 16 760.866 95.0971 -2
3 4 13 760.866 95.0971 1
-3 -4 17 345.604 161.628 -2
3 4 14 345.604 161.628 1
-3 -4 18 614.846 182.314 -2
3 4 15 614.846 182.314 1
-3 -4 19 99.6234 199.119 -2
3 4 16 99.6234 199.119 1
-3 -4 20 1519.1 232.184 -2
3 4 17 1519.1 232.184 1
-3 -4 21 1552.46 257.644 -2
3 4 18 1552.46 257.644 1
-3 -4 22 328.252 279.83 -2
3 4 19 328.252 279.83 1
-3 -5 -18 288.636 251.457 -2
3 5 -21 288.636 251.457 1
-3 -5 -17 517.08 232.064 -2
3 5 -20 517.08 232.064 1
-3 -5 -16 176.05 202.592 -2
3 5 -19 176.05 202.592 1
-3 -5 -15 205.482 183.104 -2
3 5 -18 205.482 183.104 1
-3 -5 -14 956.27 182.442 -2
3 5 -17 956.27 182.442 1
-3 -5 -13 4168.23 210.314 -2
3 5 -16 4168.23 210.314 1
-3 -5 -12 468.521 151.138 -2
3 5 -15 468.521 151.138 1
-3 -5 -11 1838.38 161.633 -2
3 5 -14 1838.38 161.633 1
-3 -5 -10 938.688 150.808 -2
3 5 -13 938.688 150.808 1
-3 -5 -9 300.408 133.416 -2
3 5 -12 300.408 133.416 1
-3 -5 -8 1561.53 154.887 -2
3 5 -11 1561.53 154.887 1
-3 -5 -7 645.309 130.736 -2
3 5 -10 645.309 130.736 1
-3 -5 -6 6598.91 186.024 -2
3 5 -9 6598.91 186.024 1
-3 -5 -5 3150.79 78.1926 -2
3 5 -8 3150.79 78.1926 1
-3 -5 -4 120.021 48.5471 -2
3 5 -7 120.021 48.5471 1
-3 -5 -3 882.161 53.5797 -2
3 5 -6 882.161 53.5797 1
-3 -5 -2 2374.12 63.3764 -2
3 5 -5 2374.12 63.3764 1
-3 -5 -1 148.649 41.7276 -2
3 5 -4 148.649 41.7276 1
-3 -5 0 2969.51 59.356 -2
3 5 -3 2969.51 59.356 1
-3 -5 1 1400.66 25.5309 -2
3 5 -2 1400.66 25.5309 1
-3 -5 2 2483.21 98.6414 -2
3 5 -1 2483.21 98.6414 1
3 5 -3 5746.47 47.9789 -2
-3 -5 0 5746.47 47.9789 1
-3 -5 4 215.737 70.879 -2
3 5 1 215.737 70.879 1
-3 -5 5 1448.75 63.4984 -2
3 5 2 1448.75 63.4984 1
-3 -5 6 1681.3 67.4901 -2
3 5 3 1681.3 67.4901 1
-3 -5 7 173.833 56.1594 -2
3 5 4 173.833 56.1594 1
-3 -5 8 2420.18 79.4904 -2
3 5 5 2420.18 79.4904 1
-3 -5 9 5882.21 107.115 -2
3 5 6 5882.21 107.115 1
-3 -5 10 557.02 68.4681 -2
3 5 7 557.02 68.4681 1
-3 -5 11 783.962 75.3864 -2
3 5 8 783.962 75.3864 1
-3 -5 12 230.42 75.1385 -2
3 5 9 230.42 75.1385 1
-3 -5 13 549.42 82.3783 -2
3 5 10 549.42 82.3783 1
-3 -5 14 3082.8 110.922 -2
3 5 11 3082.8 110.922 1
-3 -5 15 490.493 94.5195 -2
3 5 12 490.493 94.5195 1
-3 -5 16 3545.74 125.057 -2
3 5 13 3545.74 125.057 1
-3 -5 17 791.589 177.301 -2
3 5 14 791.589 177.301 1
-3 -5 18 171.552 183.486 -2
3 5 15 171.552 183.486 1
-3 -5 19 310.348 207.209 -2
3 5 16 310.348 207.209 1
-3 -5 20 606.697 230.163 -2
3 5 17 606.697 230.163 1
-3 -5 21 422.799 257.478 -2
3 5 18 422.799 257.478 1
-3 -6 -18 282.331 272.438 -2
3 6 -21 282.331 272.438 1
-3 -6 -17 451.505 248.061 -2
3 6 -20 451.505 248.061 1
-3 -6 -16 259.529 223.076 -2
3 6 -19 259.529 223.076 1
-3 -6 -15 9.63924 196.242 -2
3 6 -18 9.63924 196.242 1
-3 -6 -14 166.637 184.775 -2
3 6 -17 166.637 184.775 1
-3 -6 -13 956.905 180.383 -2
3 6 -16 956.905 180.383 1
-3 -6 -12 1416.07 175.289 -2
3 6 -15 1416.07 175.289 1
-3 -6 -11 251.074 149.261 -2
3 6 -14 251.074 149.261 1
-3 -6 -10 265.634 150.779 -2
3 6 -13 265.634 150.779 1
-3 -6 -9 371.794 145.702 -2
3 6 -12 371.794 145.702 1
-3 -6 -8 978.971 144.951 -2
3 6 -11 978.971 144.951 1
-3 -6 -7 759.131 145.545 -2
3 6 -10 759.131 145.545 1
-3 -6 -6 2751.41 148.167 -2
3 6 -9 2751.41 148.167 1
-3 -6 -5 794.027 65.2781 -2
3 6 -8 794.027 65.2781 1
-3 -6 -4 1770.52 71.1318 -2
3 6 -7 1770.52 71.1318 1
-3 -6 -3 1281.53 62.4473 -2
3 6 -6 1281.53 62.4473 1
-3 -6 -2 4928.58 85.5992 -2
3 6 -5 4928.58 85.5992 1
-3 -6 -1 17721.6 143.703 -2
3 6 -4 17721.6 143.703 1
-3 -6 3 10382.7 53.0347 1
-3 -6 0 14607.9 50.5194 -2
3 6 -3 14607.9 50.5194 1
-3 -6 1 24784 92.8538 -2
3 6 -2 24784 92.8538 1
-3 -6 2 23649.5 131.996 -2
3 6 -1 23649.5 131.996 1
-3 -6 3 17918.7 227.007 -2
3 6 0 17918.7 227.007 1
-3 -6 4 12221.3 197.224 -2
3 6 1 12221.3 197.224 1
-3 -6 5 2307.57 111.176 -2
3 6 2 2307.57 111.176 1
-3 -6 6 858.505 68.0694 -2
3 6 3 858.505 68.0694 1
-3 -6 7 1100.96 71.41 -2
3 6 4 1100.96 71.41 1
-3 -6 8 1312.86 77.0914 -2
3 6 5 1312.86 77.0914 1
-3 -6 9 1348.15 79.8329 -2
3 6 6 1348.15 79.8329 1
-3 -6 10 278.084 74.4154 -2
3 6 7 278.084 74.4154 1
-3 -6 11 389.604 79.7204 -2
3 6 8 389.604 79.7204 1
-3 -6 12 394.842 82.2003 -2
3 6 9 394.842 82.2003 1
-3 -6 13 299.95 87.4363 -2
3 6 10 299.95 87.4363 1
-3 -6 14 204.223 91.3018 -2
3 6 11 204.223 91.3018 1
-3 -6 15 1833.59 116.71 -2
3 6 12 1833.59 116.71 1
-3 -6 16 745.245 119.237 -2
3 6 13 745.245 119.237 1
-3 -6 17 291.144 188.423 -2
3 6 14 291.144 188.423 1
-3 -6 18 105.398 202.882 -2
3 6 15 105.398 202.882 1
-3 -6 19 402.553 229.192 -2
3 6 16 402.553 229.192 1
-3 -6 20 759.201 255.57 -2
3 6 17 759.201 255.57 1
-3 -6 21 468.142 278.476 -2
3 6 18 468.142 278.476 1
-3 -7 -17 1183.22 269.619 -2
3 7 -20 1183.22 269.619 1
-3 -7 -16 425.709 242.71 -2
3 7 -19 425.709 242.71 1
-3 -7 -15 437.803 219.59 -2
3 7 -18 437.803 219.59 1
-3 -7 -14 419.099 199.398 -2
3 7 -17 419.099 199.398 1
-3 -7 -13 77.3102 181.286 -2
3 7 -16 77.3102 181.286 1
-3 -7 -12 1819.13 184.693 -2
3 7 -15 1819.13 184.693 1
-3 -7 -11 147.903 159.571 -2
3 7 -14 147.903 159.571 1
-3 -7 -10 1188.05 155.851 -2
3 7 -13 1188.05 155.851 1
-3 -7 -9 81.5016 140.478 -2
3 7 -12 81.5016 140.478 1
-3 -7 -8 967.364 142.32 -2
3 7 -11 967.364 142.32 1
-3 -7 -7 62.0503 125.189 -2
3 7 -10 62.0503 125.189 1
-3 -7 -6 577.217 119.979 -2
3 7 -9 577.217 119.979 1
-3 -7 -5 1659.02 109.542 -2
3 7 -8 1659.02 109.542 1
-3 -7 -4 2747.71 75.6873 -2
3 7 -7 2747.71 75.6873 1
-3 -7 -3 413.655 59.9793 -2
3 7 -6 413.655 59.9793 1
-3 -7 -2 8235.25 89.8238 -2
3 7 -5 8235.25 89.8238 1
-3 -7 -1 1660.75 58.8187 -2
3 7 -4 1660.75 58.8187 1
-3 -7 3 790.852 28.243 1
-3 -7 0 1364.57 53.0734 -2
3 7 -3 1364.57 53.0734 1
3 7 -2 1261.68 34.4316 1
-3 -7 1 3348.92 123.233 -2
3 7 -2 3348.92 123.233 1
3 7 -2 4299.17 66.3918 -2
-3 -7 1 4299.17 66.3918 1
-3 -7 3 708.238 53.3179 -2
3 7 0 708.238 53.3179 1
-3 -7 4 1220.92 98.8062 -2
3 7 1 1220.92 98.8062 1
-3 -7 5 4245.82 127.072 -2
3 7 2 4245.82 127.072 1
-3 -7 6 219.68 92.1308 -2
3 7 3 219.68 92.1308 1
-3 -7 7 1172.33 75.2173 -2
3 7 4 1172.33 75.2173 1
-3 -7 8 873.163 76.3946 -2
3 7 5 873.163 76.3946 1
-3 -7 9 409.221 76.7302 -2
3 7 6 409.221 76.7302 1
-3 -7 10 381.05 81.2699 -2
3 7 7 381.05 81.2699 1
-3 -7 11 732.506 89.2056 -2
3 7 8 732.506 89.2056 1
-3 -7 12 137.482 90.7826 -2
3 7 9 137.482 90.7826 1
-3 -7 13 833.897 101.027 -2
3 7 10 833.897 101.027 1
-3 -7 14 483.485 112.687 -2
3 7 11 483.485 112.687 1
-3 -7 15 2307.75 131.372 -2
3 7 12 2307.75 131.372 1
3 7 13 16.7016 130.398 1
-3 -7 16 347.404 182.977 -2
3 7 13 347.404 182.977 1
-3 -7 17 401.424 201.035 -2
3 7 14 401.424 201.035 1
-3 -7 18 297.876 223.288 -2
3 7 15 297.876 223.288 1
-3 -7 19 341.661 244.269 -2
3 7 16 341.661 244.269 1
-3 -7 20 1546.23 284.792 -2
3 7 17 1546.23 284.792 1
3 8 -19 123.474 206.928 1
3 8 -18 705.146 193.335 1
3 8 -17 91.9642 165.984 1
3 8 -16 276.298 153.637 1
3 8 -15 78.3292 138.763 1
3 8 -14 308.24 132.828 1
3 8 -13 1084 130.571 1
3 8 -12 730.654 114.732 1
3 8 -11 -18.9177 100.821 1
3 8 -10 112.25 94.2818 1
3 8 -9 288.333 87.5903 1
3 8 -8 6.35724 77.9386 1
3 8 -7 601.272 59.0867 1
3 8 -6 630.502 56.5909 1
3 8 -5 8777.35 94.4325 1
3 8 -4 10844.1 96.8336 1
3 8 -3 6217.36 73.5881 1
-3 -8 2 485.274 44.343 1
3 8 -1 2724.34 62.1524 1
3 8 0 1909.46 60.9516 1
3 8 1 104.026 50.6676 1
3 8 2 1764.59 66.7165 1
3 8 3 -11.7786 85.708 1
3 8 4 242.651 88.6091 1
3 8 5 171.845 90.9879 1
3 8 6 109.228 96.7908 1
-3 -8 9 258.513 126.683 -2
3 8 6 258.513 126.683 1
3 8 7 670.916 107.133 1
-3 -8 10 828.782 139.178 -2
3 8 7 828.782 139.178 1
3 8 8 867.544 111.321 1
-3 -8 11 947.946 149.216 -2
3 8 8 947.946 149.216 1
3 8 9 2445.71 134.96 1
-3 -8 12 3325.95 174.577 -2
3 8 9 3325.95 174.577 1
3 8 10 68.8393 113.918 1
-3 -8 13 1039.91 172.082 -2
3 8 10 1039.91 172.082 1
3 8 11 1299.89 139.873 1
-3 -8 14 1737.9 183.015 -2
3 8 11 1737.9 183.015 1
3 8 12 371.323 141.166 1
-3 -8 15 937.586 190.591 -2
3 8 12 937.586 190.591 1
3 8 13 80.1696 149.124 1
-3 -8 16 462.409 203.845 -2
3 8 13 462.409 203.845 1
-3 -8 17 475.516 224.976 -2
3 8 14 475.516 224.976 1
-3 -8 18 836.375 248.537 -2
3 8 15 836.375 248.537 1
-3 -8 19 287.009 273.639 -2
3 8 16 287.009 273.639 1
3 9 -18 952.276 221.346 1
3 9 -17 641.622 199.772 1
3 9 -16 29.5081 176.068 1
3 9 -15 141.328 159.265 1
3 9 -14 526.597 149.742 1
3 9 -13 168.167 131.877 1
3 9 -12 102.6 120.085 1
3 9 -11 194.051 113.225 1
3 9 -10 50.229 102.899 1
3 9 -9 544.598 103.503 1
3 9 -8 62.9897 91.7326 1
3 9 -7 715.465 91.5772 1
3 9 -6 100.763 58.7524 1
3 9 -5 1148.41 64.3914 1
3 9 -4 82.8426 89.904 1
3 9 -3 218.061 88.7469 1
3 9 -2 41.5478 90.2717 1
3 9 -1 45.8986 92.4843 1
3 9 0 2988.2 75.2042 1
3 9 1 2088.94 74.3302 1
3 9 2 885.758 67.5944 1
3 9 3 488.333 68.7006 1
3 9 4 775.493 74.6046 1
3 9 5 232.534 108.001 1
3 9 6 1620.02 126.164 1
-3 -9 11 658.175 107.009 -2
3 9 7 658.175 107.009 1
-3 -9 12 755.859 113.499 -2
3 9 8 755.859 113.499 1
3 9 9 166.085 128.309 1
-3 -9 13 293.391 176.765 -2
3 9 9 293.391 176.765 1
3 9 10 84.2222 131.071 1
-3 -9 14 616.611 193.436 -2
3 9 10 616.611 193.436 1
3 9 11 72.9141 140.83 1
-3 -9 15 596.592 202.121 -2
3 9 11 596.592 202.121 1
3 9 12 59.0823 154.525 1
-3 -9 16 468.022 218.079 -2
3 9 12 468.022 218.079 1
-3 -9 17 520.397 239.688 -2
3 9 13 520.397 239.688 1
-3 -9 18 915.565 265.219 -2
3 9 14 915.565 265.219 1
-3 -10 -13 521.169 278.25 -2
3 10 -17 521.169 278.25 1
-3 -10 -12 1455.93 256.354 -2
3 10 -16 1455.93 256.354 1
-3 -10 -11 884.314 229.806 -2
3 10 -15 884.314 229.806 1
-3 -10 -10 516.526 207.396 -2
3 10 -14 516.526 207.396 1
-3 -10 -9 334.626 194.453 -2
3 10 -13 334.626 194.453 1
-3 -10 -8 212.266 176.212 -2
3 10 -12 212.266 176.212 1
-3 -10 -7 355.655 165.774 -2
3 10 -11 355.655 165.774 1
-3 -10 -6 314.093 152.5 -2
3 10 -10 314.093 152.5 1
-3 -10 -5 282.378 140.584 -2
3 10 -9 282.378 140.584 1
-3 -10 0 519.843 134.403 -2
3 10 -4 519.843 134.403 1
-3 -10 1 636.213 133.709 -2
3 10 -3 636.213 133.709 1
-3 -10 2 153.018 126.908 -2
3 10 -2 153.018 126.908 1
-3 -10 3 569.807 136.097 -2
3 10 -1 569.807 136.097 1
-3 -10 4 414.084 132.542 -2
3 10 0 414.084 132.542 1
-3 -10 5 1013.58 141.228 -2
3 10 1 1013.58 141.228 1
-3 -10 6 1770.98 99.3465 -2
3 10 2 1770.98 99.3465 1
-3 -10 -3 119.9 102.327 1
-3 -10 7 148.258 139.381 -2
3 10 3 148.258 139.381 1
-3 -10 8 82.8766 95.814 -2
3 10 4 82.8766 95.814 1
3 10 -9 335.708 102.489 -2
-3 -10 -5 335.708 102.489 1
-3 -10 10 633.577 107.657 -2
3 10 6 633.577 107.657 1
-3 -10 11 311.613 113.802 -2
3 10 7 311.613 113.802 1
-3 -10 12 234.298 121.113 -2
3 10 8 234.298 121.113 1
-3 -10 13 207.153 131.181 -2
3 10 9 207.153 131.181 1
-3 -10 14 355.338 142.911 -2
3 10 10 355.338 142.911 1
-3 -10 15 641.845 128.338 -2
3 10 11 641.845 128.338 1
-3 -10 16 944.514 144.632 -2
3 10 12 944.514 144.632 1
3 10 -17 410.062 192.278 -2
-3 -10 -13 410.062 192.278 1
-3 -11 2 584.962 156.867 -2
3 11 -2 584.962 156.867 1
-3 -11 3 906.174 163.129 -2
3 11 -1 906.174 163.129 1
-3 -11 4 280.826 151.768 -2
3 11 0 280.826 151.768 1
-3 -11 5 868.912 167.958 -2
3 11 1 868.912 167.958 1
-3 -11 6 655.993 165.186 -2
3 11 2 655.993 165.186 1
-3 -11 7 441.151 166.236 -2
3 11 3 441.151 166.236 1
-3 -11 8 327.192 164.85 -2
3 11 4 327.192 164.85 1
-3 -11 9 972.656 186.25 -2
3 11 5 972.656 186.25 1
3 11 -10 950.346 130.489 -2
-3 -11 -6 950.346 130.489 1
-3 -11 11 190.547 133.29 -2
3 11 7 190.547 133.29 1
-3 -11 12 1201.84 148.429 -2
3 11 8 1201.84 148.429 1
-3 -11 13 421.08 153.676 -2
3 11 9 421.08 153.676 1
3 11 -14 185.46 164.508 -2
-3 -11 -10 185.46 164.508 1
3 11 -15 234.417 259.191 -2
-3 -11 -11 234.417 259.191 1
3 11 -16 400.609 284.162 -2
-3 -11 -12 400.609 284.162 1
-3 -12 7 1877.29 208.596 -2
3 12 3 1877.29 208.596 1
-3 -12 8 231.959 190.804 -2
3 12 4 231.959 190.804 1
-3 -12 9 636.087 206.149 -2
3 12 5 636.087 206.149 1
-3 -12 10 600.83 216.716 -2
3 12 6 600.83 216.716 1
-4 14 -8 870.659 289.868 -2
4 -14 -8 870.659 289.868 1
-4 14 -7 592.747 276.309 -2
4 -14 -7 592.747 276.309 1
-4 14 -6 464.935 273.467 -2
4 -14 -6 464.935 273.467 1
-4 14 -5 457.434 251.376 -2
4 -14 -5 457.434 251.376 1
-4 14 -4 626.606 239.714 -2
4 -14 -4 626.606 239.714 1
-4 14 -3 560.929 241.696 -2
4 -14 -3 560.929 241.696 1
-4 14 -2 282.383 248.286 -2
4 -14 -2 282.383 248.286 1
-4 14 -1 295.762 238.961 -2
4 -14 -1 295.762 238.961 1
-4 14 0 463.859 226.626 -2
4 -14 0 463.859 226.626 1
-4 13 -10 1053.61 277.359 -2
4 -13 -11 1053.61 277.359 1
4 -13 -10 181.871 205.027 1
-4 13 -8 575.497 239.192 -2
4 -13 -9 575.497 239.192 1
4 -13 -8 356.828 187.322 1
4 -13 -7 725.115 188.456 1
4 -13 -6 159.326 173.618 1
4 -13 -5 123.499 169.67 1
4 -13 -4 304.333 164.372 1
4 -13 -3 126.709 153.686 1
4 -13 -2 80.0023 159.54 1
4 -13 -1 22.4782 160.905 1
4 -13 0 1303.43 160.035 1
4 -13 1 3697.47 176.796 1
4 -13 2 1098.05 163.483 1
4 -13 3 160.814 146.677 1
-4 13 -5 24.8798 171.133 1
-4 13 -6 413.943 179.38 1
-4 13 -7 166.727 179.813 1
4 -13 -10 380.435 246.158 -2
-4 13 -9 380.435 246.158 1
4 -13 -11 822.011 267.864 -2
-4 13 -10 822.011 267.864 1
4 -13 -12 677.812 283.868 -2
-4 13 -11 677.812 283.868 1
-4 12 -12 498.502 269.336 -2
4 -12 -13 498.502 269.336 1
-4 12 -11 824.34 251.414 -2
4 -12 -12 824.34 251.414 1
-4 12 -10 442.121 231.268 -2
4 -12 -11 442.121 231.268 1
-4 12 -9 509.174 214.033 -2
4 -12 -10 509.174 214.033 1
-4 12 -8 454.831 208.41 -2
4 -12 -9 454.831 208.41 1
-4 12 -7 893.544 197.042 -2
4 -12 -8 893.544 197.042 1
-4 12 -6 276.782 183.648 -2
4 -12 -7 276.782 183.648 1
-4 12 -5 435.854 183.708 -2
4 -12 -6 435.854 183.708 1
-4 12 -4 2157.96 195.864 -2
4 -12 -5 2157.96 195.864 1
-4 12 -3 832.255 175.581 -2
4 -12 -4 832.255 175.581 1
-4 12 -2 834.289 168.685 -2
4 -12 -3 834.289 168.685 1
-4 12 -1 1790.39 172.888 -2
4 -12 -2 1790.39 172.888 1
-4 12 0 1442.76 176.529 -2
4 -12 -1 1442.76 176.529 1
-4 12 1 1849.76 179.763 -2
4 -12 0 1849.76 179.763 1
-4 12 2 2293.02 116.013 -2
4 -12 1 2293.02 116.013 1
-4 12 3 1169.55 116.731 -2
4 -12 2 1169.55 116.731 1
4 -12 -4 825.786 118.665 -2
-4 12 -3 825.786 118.665 1
4 -12 -5 1702.15 125.04 -2
-4 12 -4 1702.15 125.04 1
4 -12 -6 355.055 125.656 -2
-4 12 -5 355.055 125.656 1
4 -12 -7 278 125.204 -2
-4 12 -6 278 125.204 1
4 -12 -8 300.591 184.986 -2
-4 12 -7 300.591 184.986 1
4 -12 -9 254.794 189.824 -2
-4 12 -8 254.794 189.824 1
4 -12 -10 361.281 202.583 -2
-4 12 -9 361.281 202.583 1
4 -12 -11 294.361 212.729 -2
-4 12 -10 294.361 212.729 1
4 -12 -12 1287.49 243.642 -2
-4 12 -11 1287.49 243.642 1
4 -12 -13 383.229 251.798 -2
-4 12 -12 383.229 251.798 1
-4 11 -14 288.999 265.176 -2
4 -11 -15 288.999 265.176 1
-4 11 -13 1050.58 258.613 -2
4 -11 -14 1050.58 258.613 1
-4 11 -12 222.72 229.04 -2
4 -11 -13 222.72 229.04 1
-4 11 -11 900.356 225.507 -2
4 -11 -12 900.356 225.507 1
-4 11 -10 1921.51 224.221 -2
4 -11 -11 1921.51 224.221 1
-4 11 -9 407.928 192.21 -2
4 -11 -10 407.928 192.21 1
-4 11 -8 503.688 183.614 -2
4 -11 -9 503.688 183.614 1
-4 11 -7 547.221 175.803 -2
4 -11 -8 547.221 175.803 1
-4 11 -6 1124.15 175.821 -2
4 -11 -7 1124.15 175.821 1
-4 11 -5 2759.44 188.662 -2
4 -11 -6 2759.44 188.662 1
-4 11 -4 353.933 155.672 -2
4 -11 -5 353.933 155.672 1
-4 11 -3 1057.92 160.89 -2
4 -11 -4 1057.92 160.89 1
-4 11 -2 251.941 94.3408 -2
4 -11 -3 251.941 94.3408 1
-4 11 -1 87.5339 88.8099 -2
4 -11 -2 87.5339 88.8099 1
-4 11 0 1025.63 99.0207 -2
4 -11 -1 1025.63 99.0207 1
-4 11 1 1740.51 107.305 -2
4 -11 0 1740.51 107.305 1
4 -11 -2 158.547 93.2667 -2
-4 11 -1 158.547 93.2667 1
4 -11 -3 363.628 94.8442 -2
-4 11 -2 363.628 94.8442 1
4 -11 -4 595.594 99.5435 -2
-4 11 -3 595.594 99.5435 1
-4 11 5 297.784 99.2158 -2
4 -11 4 297.784 99.2158 1
4 -11 -6 1820.32 118.419 -2
-4 11 -5 1820.32 118.419 1
4 -11 -7 470.84 113.863 -2
-4 11 -6 470.84 113.863 1
4 -11 -8 637.013 117.906 -2
-4 11 -7 637.013 117.906 1
4 -11 -9 352.432 120.741 -2
-4 11 -8 352.432 120.741 1
4 -11 -10 257.481 125.334 -2
-4 11 -9 257.481 125.334 1
4 -11 -11 1368.22 199.931 -2
-4 11 -10 1368.22 199.931 1
4 -11 -12 1126.37 211.141 -2
-4 11 -11 1126.37 211.141 1
4 -11 -13 433.99 218.684 -2
-4 11 -12 433.99 218.684 1
4 -11 -14 1217.54 247.185 -2
-4 11 -13 1217.54 247.185 1
4 -11 -15 253.17 256.866 -2
-4 11 -14 253.17 256.866 1
4 -10 15 799.185 191.017 -2
-4 10 16 799.185 191.017 1
4 -10 14 787.869 176.52 -2
-4 10 15 787.869 176.52 1
-4 10 -13 223.296 156.675 -2
4 -10 -14 223.296 156.675 1
4 -10 12 206.699 146.033 -2
-4 10 13 206.699 146.033 1
4 -10 11 1478.04 146.637 -2
-4 10 12 1478.04 146.637 1
-4 10 -10 178.313 175.313 -2
4 -10 -11 178.313 175.313 1
-4 10 -9 573.867 172.445 -2
4 -10 -10 573.867 172.445 1
-4 10 -8 719.289 167.728 -2
4 -10 -9 719.289 167.728 1
-4 10 -7 109.508 150.18 -2
4 -10 -8 109.508 150.18 1
-4 10 -6 619.328 153.449 -2
4 -10 -7 619.328 153.449 1
-4 10 -5 475.906 88.8255 -2
4 -10 -6 475.906 88.8255 1
4 -10 4 1253.15 92.4557 -2
-4 10 5 1253.15 92.4557 1
4 -10 3 225.198 83.7151 -2
-4 10 4 225.198 83.7151 1
-4 10 -2 777.441 87.4727 -2
4 -10 -3 777.441 87.4727 1
4 -10 1 1492.09 93.7802 -2
-4 10 2 1492.09 93.7802 1
-4 10 0 2397.1 100.446 -2
4 -10 -1 2397.1 100.446 1
-4 10 1 1333.77 93.4082 -2
4 -10 0 1333.77 93.4082 1
-4 10 2 890.596 91.347 -2
4 -10 1 890.596 91.347 1
-4 10 3 540.616 88.5254 -2
4 -10 2 540.616 88.5254 1
4 -10 -4 201.219 86.9936 -2
-4 10 -3 201.219 86.9936 1
4 -10 -5 2017.68 107.636 -2
-4 10 -4 2017.68 107.636 1
4 -10 -6 330.323 90.9818 -2
-4 10 -5 330.323 90.9818 1
4 -10 -7 384.227 98.8716 -2
-4 10 -6 384.227 98.8716 1
4 -10 -8 281.113 99.3155 -2
-4 10 -7 281.113 99.3155 1
4 -10 -9 1217.69 116.7 -2
-4 10 -8 1217.69 116.7 1
4 -10 -10 409.407 114.702 -2
-4 10 -9 409.407 114.702 1
4 -10 -11 464.57 120.933 -2
-4 10 -10 464.57 120.933 1
4 -10 -12 724.032 131.32 -2
-4 10 -11 724.032 131.32 1
4 -10 -13 383.718 191.167 -2
-4 10 -12 383.718 191.167 1
4 -10 -14 410.775 207.057 -2
-4 10 -13 410.775 207.057 1
4 -10 -15 1024.15 234.396 -2
-4 10 -14 1024.15 234.396 1
4 -10 -16 752.843 250.264 -2
-4 10 -15 752.843 250.264 1
4 -9 17 1106.21 308.356 -2
-4 9 18 1106.21 308.356 1
-4 9 -16 888.134 190.052 -2
4 -9 -17 888.134 190.052 1
-4 9 -15 1232.02 173.441 -2
4 -9 -16 1232.02 173.441 1
-4 9 -14 591.44 155.325 -2
4 -9 -15 591.44 155.325 1
4 -9 13 540.641 144.052 -2
-4 9 14 540.641 144.052 1
-4 9 -12 413.953 128.692 -2
4 -9 -13 413.953 128.692 1
4 -9 11 509.852 122.077 -2
-4 9 12 509.852 122.077 1
-4 9 -10 345.397 113.587 -2
4 -9 -11 345.397 113.587 1
4 -9 9 336.326 107.464 -2
-4 9 10 336.326 107.464 1
-4 9 -8 534.858 102.678 -2
4 -9 -9 534.858 102.678 1
-4 9 -7 1058.15 143.196 -2
4 -9 -8 1058.15 143.196 1
-4 9 -6 568.14 134.171 -2
4 -9 -7 568.14 134.171 1
-4 9 -5 452.973 78.5633 -2
4 -9 -6 452.973 78.5633 1
-4 9 -4 400.957 76.3021 -2
4 -9 -5 400.957 76.3021 1
-4 9 -3 1339.36 82.5654 -2
4 -9 -4 1339.36 82.5654 1
-4 9 -2 341.769 73.5485 -2
4 -9 -3 341.769 73.5485 1
-4 9 -1 757.929 77.1414 -2
4 -9 -2 757.929 77.1414 1
4 -9 0 2074.22 86.9843 -2
-4 9 1 2074.22 86.9843 1
-4 9 1 1742.98 82.1587 -2
4 -9 0 1742.98 82.1587 1
-4 9 2 1436.96 85.5726 -2
4 -9 1 1436.96 85.5726 1
-4 9 3 552.208 76.1227 -2
4 -9 2 552.208 76.1227 1
-4 9 4 1962.96 90.777 -2
4 -9 3 1962.96 90.777 1
-4 9 5 481.493 82.6644 -2
4 -9 4 481.493 82.6644 1
4 -9 -6 743.463 85.1481 -2
-4 9 -5 743.463 85.1481 1
4 -9 -7 765.831 89.2554 -2
-4 9 -6 765.831 89.2554 1
4 -9 -8 497.088 88.7835 -2
-4 9 -7 497.088 88.7835 1
4 -9 -9 766.785 99.1489 -2
-4 9 -8 766.785 99.1489 1
4 -9 -10 282.966 101.176 -2
-4 9 -9 282.966 101.176 1
4 -9 -11 284.602 108.127 -2
-4 9 -10 284.602 108.127 1
4 -9 -12 702.88 117.678 -2
-4 9 -11 702.88 117.678 1
4 -9 -13 197.293 168.013 -2
-4 9 -12 197.293 168.013 1
4 -9 -14 928.778 183.491 -2
-4 9 -13 928.778 183.491 1
4 -9 -15 216.004 200.659 -2
-4 9 -14 216.004 200.659 1
4 -9 -16 685.079 222.026 -2
-4 9 -15 685.079 222.026 1
4 -9 -17 596.832 240.852 -2
-4 9 -16 596.832 240.852 1
-4 8 -17 613.506 183.499 -2
4 -8 -18 613.506 183.499 1
-4 8 -16 655.435 164.823 -2
4 -8 -17 655.435 164.823 1
4 -8 15 347.746 147.148 -2
-4 8 16 347.746 147.148 1
-4 8 -14 343.84 134.802 -2
4 -8 -15 343.84 134.802 1
4 -8 13 412.602 126.398 -2
-4 8 14 412.602 126.398 1
4 -8 12 375.54 114.957 -2
-4 8 13 375.54 114.957 1
4 -8 11 500.879 110.118 -2
-4 8 12 500.879 110.118 1
4 -8 10 829.31 105.582 -2
-4 8 11 829.31 105.582 1
4 -8 9 222.629 94.904 -2
-4 8 10 222.629 94.904 1
-4 8 -8 1049.72 93.7165 -2
4 -8 -9 1049.72 93.7165 1
-4 8 -7 909.171 88.9571 -2
4 -8 -8 909.171 88.9571 1
4 -8 -7 3307.63 128.661 1
4 -8 6 3431.21 136.495 -2
-4 8 7 3431.21 136.495 1
4 -8 -6 268.797 94.1711 1
4 -8 -5 902.625 94.4412 1
4 -8 -4 2224.32 107.67 1
4 -8 3 4052.31 111.902 -2
-4 8 4 4052.31 111.902 1
4 -8 -3 633.053 85.1713 1
4 -8 2 4062.29 111.695 -2
-4 8 3 4062.29 111.695 1
4 -8 -2 6785.15 139.954 1
4 -8 1 6860.34 132.484 -2
-4 8 2 6860.34 132.484 1
4 -8 -1 335.353 83.1741 1
4 -8 0 699.654 90.3586 -2
-4 8 1 699.654 90.3586 1
4 -8 0 798.533 83.5362 1
4 -8 -1 1011.63 96.8582 -2
-4 8 0 1011.63 96.8582 1
4 -8 1 164.557 78.3591 1
4 -8 -2 3282.87 113.351 -2
-4 8 -1 3282.87 113.351 1
4 -8 2 6914 135.442 1
4 -8 -3 6838.01 136.867 -2
-4 8 -2 6838.01 136.867 1
4 -8 3 3219.02 111.403 1
4 -8 -4 3456.94 123.897 -2
-4 8 -3 3456.94 123.897 1
4 -8 4 16639.6 190.271 1
4 -8 -5 15546 192.492 -2
-4 8 -4 15546 192.492 1
-4 8 -5 1736.55 103.698 1
4 -8 -6 1659.99 119.218 -2
-4 8 -5 1659.99 119.218 1
-4 8 -6 893.204 101.744 1
4 -8 -7 2465.62 127.167 -2
-4 8 -6 2465.62 127.167 1
-4 8 -7 88.9801 88.7031 1
4 -8 -8 354.727 113.558 -2
-4 8 -7 354.727 113.558 1
-4 8 -8 1693.43 80.8866 1
-4 8 -9 45.9437 74.9811 1
-4 8 -10 80.9199 82.2111 1
-4 8 -11 350.249 89.3181 1
-4 8 -12 18.3622 130.362 1
-4 8 -13 443.833 142.009 1
-4 8 -14 65.2682 154.134 1
-4 8 -15 2.11997 169.806 1
-4 8 -16 183.367 189.018 1
-4 8 -17 581.045 202.545 1
4 -7 -20 188.451 158.586 1
-4 7 19 548.729 141.323 1
4 -7 -18 806.727 128.638 1
4 -7 -17 220.425 113.833 1
-4 7 16 142.685 103.706 1
4 -7 -15 394.905 136.912 1
4 -7 13 832.773 174.699 -2
-4 7 15 832.773 174.699 1
4 -7 -14 187.175 121.405 1
4 -7 12 521.528 156.45 -2
-4 7 14 521.528 156.45 1
4 -7 -13 92.8671 112.874 1
4 -7 11 759.238 149.082 -2
-4 7 13 759.238 149.082 1
4 -7 10 4561.63 115.891 -2
-4 7 12 4561.63 115.891 1
-4 7 -9 766.031 91.7623 -2
4 -7 -11 766.031 91.7623 1
4 -7 8 538.871 85.8295 -2
-4 7 10 538.871 85.8295 1
-4 7 9 -44.2391 88.557 1
-4 7 -7 228.799 112.812 -2
4 -7 -9 228.799 112.812 1
-4 7 -6 3575.34 92.4363 -2
4 -7 -8 3575.34 92.4363 1
4 -7 5 853.093 73.8463 -2
-4 7 7 853.093 73.8463 1
-4 7 6 896.955 61.7563 1
4 -7 -5 1052.54 87.0525 1
4 -7 -4 2005.28 94.8409 1
4 -7 -3 2090.92 90.9901 1
4 -7 -2 21.7579 46.6562 1
-4 7 1 795.523 54.9373 1
-4 7 0 576.087 51.6524 1
-4 7 -1 2170.26 65.2489 1
-4 7 -2 6055.14 86.6285 1
-4 7 -3 3451.77 74.3545 1
-4 7 -4 299.368 52.5903 1
-4 7 -5 1618.01 67.7165 1
-4 7 -6 488.18 61.6878 1
-4 7 -7 266.961 60.1832 1
-4 7 -8 68.126 62.0313 1
-4 7 -9 156.817 69.1953 1
-4 7 -10 6930.37 122.464 1
-4 7 -11 1000 90.5612 1
-4 7 -12 72.7352 123.184 1
-4 7 -13 88.0043 126.431 1
-4 7 -14 -17.0893 142.488 1
-4 7 -15 473.416 163.946 1
-4 7 -16 129.526 174.707 1
-4 7 -17 344.614 182.087 1
-4 7 -18 172.79 205.656 1
-4 6 -19 700.936 272.439 -2
4 -6 -21 700.936 272.439 1
4 -6 18 470.392 174.721 -2
-4 6 20 470.392 174.721 1
4 -6 17 626.097 156.792 -2
-4 6 19 626.097 156.792 1
-4 6 -16 357.977 139.371 -2
4 -6 -18 357.977 139.371 1
-4 6 -15 531.199 128.045 -2
4 -6 -17 531.199 128.045 1
-4 6 -14 380.062 116.631 -2
4 -6 -16 380.062 116.631 1
-4 6 -13 228.419 105.312 -2
4 -6 -15 228.419 105.312 1
-4 6 -12 741.677 102.041 -2
4 -6 -14 741.677 102.041 1
-4 6 -11 5013.59 120.267 -2
4 -6 -13 5013.59 120.267 1
-4 6 -10 1268.12 91.3215 -2
4 -6 -12 1268.12 91.3215 1
-4 6 -9 168.27 78.3243 -2
4 -6 -11 168.27 78.3243 1
-4 6 -8 188.524 74.3484 -2
4 -6 -10 188.524 74.3484 1
-4 6 -7 220.784 70.5198 -2
4 -6 -9 220.784 70.5198 1
-4 6 -6 916.163 72.8759 -2
4 -6 -8 916.163 72.8759 1
4 -6 5 7582.8 100.795 -2
-4 6 7 7582.8 100.795 1
4 -6 4 26677.2 154.915 -2
-4 6 6 26677.2 154.915 1
-4 6 -3 3611.52 115.641 -2
4 -6 -5 3611.52 115.641 1
-4 6 -2 2552.82 99.9632 -2
4 -6 -4 2552.82 99.9632 1
-4 6 -1 569.764 81.6985 -2
4 -6 -3 569.764 81.6985 1
-4 6 0 1744.36 94.6436 -2
4 -6 -2 1744.36 94.6436 1
4 -6 -1 31.3599 65.3686 1
4 -6 -1 81.2198 71.0409 -2
-4 6 1 81.2198 71.0409 1
-4 6 0 2933.29 88.2549 1
-4 6 2 2728.8 98.5591 -2
4 -6 0 2728.8 98.5591 1
4 -6 1 550.228 70.7586 1
4 -6 -3 696.215 79.0614 -2
-4 6 -1 696.215 79.0614 1
4 -6 2 4537.71 100.727 1
4 -6 -4 4581.21 114.776 -2
-4 6 -2 4581.21 114.776 1
-4 6 5 5964.52 87.4266 -2
4 -6 3 5964.52 87.4266 1
4 -6 4 53723.4 295.034 1
4 -6 -6 52773.8 292.582 -2
-4 6 -4 52773.8 292.582 1
-4 6 -5 11374.5 158.186 1
4 -6 -7 11044.2 158.683 -2
-4 6 -5 11044.2 158.683 1
-4 6 -6 504.145 78.4536 1
4 -6 -8 768.091 101.838 -2
-4 6 -6 768.091 101.838 1
4 -6 -9 121.355 68.5145 -2
-4 6 -7 121.355 68.5145 1
4 -6 -10 289.828 71.6847 -2
-4 6 -8 289.828 71.6847 1
4 -6 -11 168.209 77.2103 -2
-4 6 -9 168.209 77.2103 1
4 -6 -12 1394.88 94.4139 -2
-4 6 -10 1394.88 94.4139 1
4 -6 -13 2374.64 155.776 -2
-4 6 -11 2374.64 155.776 1
4 -6 -14 476.541 141.444 -2
-4 6 -12 476.541 141.444 1
4 -6 -15 222.622 145.261 -2
-4 6 -13 222.622 145.261 1
4 -6 -16 581.039 163.528 -2
-4 6 -14 581.039 163.528 1
4 -6 -17 169.267 176.652 -2
-4 6 -15 169.267 176.652 1
4 -6 -18 440.114 193.674 -2
-4 6 -16 440.114 193.674 1
4 -6 -19 139.438 202.635 -2
-4 6 -17 139.438 202.635 1
4 -6 -20 269.961 238.621 -2
-4 6 -18 269.961 238.621 1
-4 5 -19 957.926 189.109 -2
4 -5 -21 957.926 189.109 1
-4 5 -18 374.299 163.321 -2
4 -5 -20 374.299 163.321 1
4 -5 17 604.318 151.442 -2
-4 5 19 604.318 151.442 1
4 -5 16 563.291 134.013 -2
-4 5 18 563.291 134.013 1
4 -5 15 375.168 120.123 -2
-4 5 17 375.168 120.123 1
4 -5 14 1501.43 121.094 -2
-4 5 16 1501.43 121.094 1
4 -5 13 397.787 100.808 -2
-4 5 15 397.787 100.808 1
4 -5 12 604.22 95.5957 -2
-4 5 14 604.22 95.5957 1
4 -5 11 292.561 86.5497 -2
-4 5 13 292.561 86.5497 1
4 -5 10 2072.62 95.9798 -2
-4 5 12 2072.62 95.9798 1
-4 5 -9 539.501 75.3699 -2
4 -5 -11 539.501 75.3699 1
-4 5 -8 4229.15 102.925 -2
4 -5 -10 4229.15 102.925 1
4 -5 7 2630.26 86.4387 -2
-4 5 9 2630.26 86.4387 1
4 -5 6 1873.3 77.566 -2
-4 5 8 1873.3 77.566 1
4 -5 5 1932.85 75.1965 -2
-4 5 7 1932.85 75.1965 1
4 -5 4 1868.11 70.4676 -2
-4 5 6 1868.11 70.4676 1
-4 5 -3 4932.41 87.174 -2
4 -5 -5 4932.41 87.174 1
-4 5 -2 1306.14 90.7794 -2
4 -5 -4 1306.14 90.7794 1
-4 5 -1 226.044 73.8914 -2
4 -5 -3 226.044 73.8914 1
-4 5 0 11428.3 167.919 -2
4 -5 -2 11428.3 167.919 1
-4 5 1 8752.25 152.049 -2
4 -5 -1 8752.25 152.049 1
-4 5 2 8978.34 105.108 -2
4 -5 0 8978.34 105.108 1
-4 5 3 518.099 56.2661 -2
4 -5 1 518.099 56.2661 1
-4 5 4 1950.62 68.3392 -2
4 -5 2 1950.62 68.3392 1
-4 5 5 7705.34 107.381 -2
4 -5 3 7705.34 107.381 1
4 -5 -6 2913.25 79.3559 -2
-4 5 -4 2913.25 79.3559 1
4 -5 -7 1161.65 68.7283 -2
-4 5 -5 1161.65 68.7283 1
4 -5 -8 1206.38 70.6474 -2
-4 5 -6 1206.38 70.6474 1
4 -5 -9 3147.44 90.9251 -2
-4 5 -7 3147.44 90.9251 1
4 -5 -10 5830.92 112.768 -2
-4 5 -8 5830.92 112.768 1
4 -5 -11 460.494 76.792 -2
-4 5 -9 460.494 76.792 1
4 -5 -12 1365.87 92.9062 -2
-4 5 -10 1365.87 92.9062 1
4 -5 -13 508.272 132.883 -2
-4 5 -11 508.272 132.883 1
4 -5 -14 160.646 133.337 -2
-4 5 -12 160.646 133.337 1
4 -5 -15 350.279 137.612 -2
-4 5 -13 350.279 137.612 1
4 -5 -16 2993.15 189.209 -2
-4 5 -14 2993.15 189.209 1
4 -5 -17 434.233 171.589 -2
-4 5 -15 434.233 171.589 1
4 -5 -18 282.787 182.676 -2
-4 5 -16 282.787 182.676 1
4 -5 -19 515.79 198.363 -2
-4 5 -17 515.79 198.363 1
4 -5 -20 178.257 225.302 -2
-4 5 -18 178.257 225.302 1
4 -5 -21 1043.14 272.152 -2
-4 5 -19 1043.14 272.152 1
4 -4 20 384.024 203.147 -2
-4 4 22 384.024 203.147 1
4 -4 19 353.52 182.939 -2
-4 4 21 353.52 182.939 1
4 -4 18 297.013 156.584 -2
-4 4 20 297.013 156.584 1
4 -4 17 283.692 140.118 -2
-4 4 19 283.692 140.118 1
4 -4 16 376.917 129.185 -2
-4 4 18 376.917 129.185 1
4 -4 15 2426.79 137.265 -2
-4 4 17 2426.79 137.265 1
-4 4 -14 2691.22 129.664 -2
4 -4 -16 2691.22 129.664 1
4 -4 13 6381.02 149.444 -2
-4 4 15 6381.02 149.444 1
4 -4 12 6847.61 142.882 -2
-4 4 14 6847.61 142.882 1
4 -4 11 270.645 80.4906 -2
-4 4 13 270.645 80.4906 1
4 -4 10 1311.53 84.1223 -2
-4 4 12 1311.53 84.1223 1
4 -4 9 1238.47 79.4196 -2
-4 4 11 1238.47 79.4196 1
-4 4 -8 1036.8 72.4835 -2
4 -4 -10 1036.8 72.4835 1
-4 4 -7 106.394 57.9093 -2
4 -4 -9 106.394 57.9093 1
-4 4 -6 34605.2 206.109 -2
4 -4 -8 34605.2 206.109 1
-4 4 -5 1443.07 63.9909 -2
4 -4 -7 1443.07 63.9909 1
-4 4 -4 3703.27 76.5192 -2
4 -4 -6 3703.27 76.5192 1
4 -4 3 1300.91 55.4089 -2
-4 4 5 1300.91 55.4089 1
4 -4 2 810.423 49.0724 -2
-4 4 4 810.423 49.0724 1
-4 4 -1 1316.97 80.2562 -2
4 -4 -3 1316.97 80.2562 1
-4 4 0 779.565 74.8401 -2
4 -4 -2 779.565 74.8401 1
-4 4 1 1890.81 87.7947 -2
4 -4 -1 1890.81 87.7947 1
-4 4 2 472.523 72.5386 -2
4 -4 0 472.523 72.5386 1
-4 4 3 1852.68 62.9345 -2
4 -4 1 1852.68 62.9345 1
-4 4 4 641.125 54.3967 -2
4 -4 2 641.125 54.3967 1
-4 4 5 848.063 56.2022 -2
4 -4 3 848.063 56.2022 1
4 -4 -6 1796.26 68.855 -2
-4 4 -4 1796.26 68.855 1
4 -4 -7 765.954 58.4253 -2
-4 4 -5 765.954 58.4253 1
4 -4 -8 18447 162.542 -2
-4 4 -6 18447 162.542 1
4 -4 -9 152.932 61.9328 -2
-4 4 -7 152.932 61.9328 1
4 -4 -10 841.515 71.966 -2
-4 4 -8 841.515 71.966 1
4 -4 -11 2229.71 90.4109 -2
-4 4 -9 2229.71 90.4109 1
4 -4 -12 1158.18 124.03 -2
-4 4 -10 1158.18 124.03 1
4 -4 -13 261.227 120.958 -2
-4 4 -11 261.227 120.958 1
4 -4 -14 3952.28 176.558 -2
-4 4 -12 3952.28 176.558 1
4 -4 -15 11577.6 252.485 -2
-4 4 -13 11577.6 252.485 1
4 -4 -16 4756.03 200.714 -2
-4 4 -14 4756.03 200.714 1
4 -4 -17 4489.65 211.734 -2
-4 4 -15 4489.65 211.734 1
4 -4 -18 542.456 177.575 -2
-4 4 -16 542.456 177.575 1
4 -4 -19 428.119 184.296 -2
-4 4 -17 428.119 184.296 1
4 -4 -20 195.875 217.063 -2
-4 4 -18 195.875 217.063 1
4 -4 -21 392.379 246.237 -2
-4 4 -19 392.379 246.237 1
4 -4 -22 490.656 284.189 -2
-4 4 -20 490.656 284.189 1
-4 3 -20 297.534 196.534 -2
4 -3 -22 297.534 196.534 1
4 -3 19 481.242 172.99 -2
-4 3 21 481.242 172.99 1
4 -3 18 661.295 152.851 -2
-4 3 20 661.295 152.851 1
4 -3 17 340.605 134.096 -2
-4 3 19 340.605 134.096 1
4 -3 16 1191.85 126.04 -2
-4 3 18 1191.85 126.04 1
4 -3 15 3371.97 129.354 -2
-4 3 17 3371.97 129.354 1
-4 3 -14 271.772 96.5752 -2
4 -3 -16 271.772 96.5752 1
-4 3 -13 3024.42 106.183 -2
4 -3 -15 3024.42 106.183 1
-4 3 -12 8950.93 127.503 -2
4 -3 -14 8950.93 127.503 1
-4 3 -11 4904.61 142.552 -2
4 -3 -13 4904.61 142.552 1
-4 3 -10 2274.28 111.784 -2
4 -3 -12 2274.28 111.784 1
-4 3 -9 615.879 88.3279 -2
4 -3 -11 615.879 88.3279 1
4 -3 8 11896.6 110.391 -2
-4 3 10 11896.6 110.391 1
-4 3 -7 9380.48 95.207 -2
4 -3 -9 9380.48 95.207 1
-4 3 -6 3356.54 66.7843 -2
4 -3 -8 3356.54 66.7843 1
4 -3 5 1738.88 55.5101 -2
-4 3 7 1738.88 55.5101 1
4 -3 4 168.389 43.1958 -2
-4 3 6 168.389 43.1958 1
-4 3 -3 1952.68 48.4872 -2
4 -3 -5 1952.68 48.4872 1
4 -3 -4 5452.22 91.2038 1
4 -3 2 6946.93 80.1209 -2
-4 3 4 6946.93 80.1209 1
-4 3 -1 2247.71 74.3691 -2
4 -3 -3 2247.71 74.3691 1
-4 3 0 467.952 63.0298 -2
4 -3 -2 467.952 63.0298 1
4 -3 -1 1406.03 59.2177 1
-4 3 2 668.747 65.2769 -2
4 -3 0 668.747 65.2769 1
-4 3 -1 4072.71 58.3542 1
-4 3 -2 3475.87 80.9381 1
-4 3 4 6138.49 102.206 -2
4 -3 2 6138.49 102.206 1
-4 3 -3 873.796 43.6683 1
-4 3 -4 134.573 54.1846 1
4 -3 -6 214.657 71.3675 -2
-4 3 -4 214.657 71.3675 1
4 -3 -7 1203.89 56.3572 -2
-4 3 -5 1203.89 56.3572 1
-4 3 -6 3414.25 95.8795 1
4 -3 -8 4239.46 106.118 -2
-4 3 -6 4239.46 106.118 1
-4 3 -7 184.786 67.9421 1
4 -3 -9 5456.19 122.74 -2
-4 3 -7 5456.19 122.74 1
-4 3 -8 9153.75 152.166 1
4 -3 -10 12753.5 163.091 -2
-4 3 -8 12753.5 163.091 1
4 -3 -11 786.078 96.0817 -2
-4 3 -9 786.078 96.0817 1
4 -3 -12 1515.65 114.523 -2
-4 3 -10 1515.65 114.523 1
4 -3 -13 2735.4 136.276 -2
-4 3 -11 2735.4 136.276 1
4 -3 -14 4911.34 157.041 -2
-4 3 -12 4911.34 157.041 1
4 -3 -15 3988.3 155.559 -2
-4 3 -13 3988.3 155.559 1
4 -3 -16 419.733 136.603 -2
-4 3 -14 419.733 136.603 1
4 -3 -17 4685.02 187.774 -2
-4 3 -15 4685.02 187.774 1
4 -3 -18 919.262 171.813 -2
-4 3 -16 919.262 171.813 1
4 -3 -19 395.935 179.837 -2
-4 3 -17 395.935 179.837 1
4 -3 -20 442.693 211.179 -2
-4 3 -18 442.693 211.179 1
4 -3 -21 363.65 236.709 -2
-4 3 -19 363.65 236.709 1
4 -3 -22 501.853 278.745 -2
-4 3 -20 501.853 278.745 1
4 -2 20 641.553 284.237 -2
-4 2 22 641.553 284.237 1
4 -2 -21 162.451 128.709 1
4 -2 -20 343.922 117.162 1
4 -2 -19 615.726 105.388 1
4 -2 -18 196.037 92.2113 1
4 -2 -17 163.032 86.3341 1
4 -2 -16 491.052 80.4258 1
4 -2 -15 638.597 74.3345 1
4 -2 -14 223.319 64.0955 1
4 -2 -13 1379.06 68.784 1
4 -2 -12 132.628 53.8479 1
4 -2 -11 183.881 49.2045 1
4 -2 -10 4815.84 39.7118 1
4 -2 -9 15718.2 156.464 1
4 -2 -8 26900.1 189.708 1
4 -2 -7 6212.97 98.3421 1
-4 2 6 39.7147 30.0776 1
-4 2 5 554.535 31.1453 1
-4 2 4 27080 97.2371 1
-4 2 3 8357.47 53.1377 1
4 -2 -2 1654.07 56.3316 1
4 -2 -1 11.8437 22.1349 1
4 -2 0 3491.23 71.2445 1
4 -2 1 1190.5 54.3317 1
-4 2 -2 32659.2 138.399 1
-4 2 -3 9093.59 80.7632 1
-4 2 -4 2606.95 53.8452 1
-4 2 -5 16.1524 38.1791 1
-4 2 -6 50.4531 44.0617 1
-4 2 -7 51.3365 45.684 1
-4 2 -8 1015.54 73.5409 1
-4 2 -9 2756.13 97.4581 1
-4 2 -10 36.696 83.1214 1
-4 2 -11 760.212 97.8028 1
-4 2 -12 916.719 102.796 1
-4 2 -13 3433.97 133.909 1
-4 2 -14 134.262 114.317 1
-4 2 -15 164.56 126.039 1
-4 2 -16 113.644 132.049 1
-4 2 -17 43.327 148.684 1
-4 2 -18 2857.53 192.124 1
-4 2 -19 1142.67 189.823 1
4 -1 -23 195.069 235.264 1
4 -1 -22 111.321 206.291 1
4 -1 -21 26.8965 191.863 1
4 -1 -20 192.393 116.984 1
4 -1 -19 846.565 105.081 1
4 -1 -18 181.121 87.2502 1
4 -1 -17 114.088 79.2224 1
4 -1 -16 71.2078 71.0001 1
4 -1 -15 20.4473 64.1254 1
4 -1 -14 89.2339 58.7993 1
4 -1 -13 123.121 52.8827 1
4 -1 -12 81.4814 48.3575 1
4 -1 -11 37.399 45.7451 1
4 -1 -10 10220.6 95.4395 1
4 -1 -9 2114.54 55.4797 1
4 -1 -8 510.996 40.0077 1
4 -1 -7 20.4114 42.3502 1
4 -1 -6 4181.97 73.4464 1
4 -1 -5 17743.4 128.984 1
-4 1 4 195166 261.143 1
-4 1 3 26873.6 67.1623 1
4 -1 -2 34273.2 175.323 1
4 -1 -1 3455.99 65.6233 1
4 -1 0 77.1591 40.3577 1
-4 1 -1 5893.75 89.4072 1
-4 1 -2 757.831 37.2497 1
-4 1 -3 98.6474 32.5731 1
-4 1 -4 11.8153 35.5329 1
-4 1 -5 697.178 43.3674 1
-4 1 -6 2514.6 59.201 1
-4 1 -7 79.7798 59.8788 1
-4 1 -8 32.1088 58.7288 1
-4 1 -9 1302.82 83.3712 1
-4 1 -10 91.02 79.1972 1
-4 1 -11 20.2566 81.3761 1
-4 1 -12 -14.5886 81.723 1
-4 1 -13 1946.81 122.952 1
4 -1 14 1139.58 76.9636 1
-4 1 -15 137.781 116.354 1
-4 1 -16 255.785 133.607 1
-4 1 -17 1459.15 163.856 1
-4 1 -18 212.875 160.952 1
-4 1 -19 80.5352 191.631 1
-4 1 -20 150.585 224.685 1
-4 0 -20 613.869 294.721 -2
4 0 -23 613.869 294.721 1
-4 0 -19 1476.95 263.896 -2
4 0 -22 1476.95 263.896 1
-4 0 -18 2270.47 235.27 -2
4 0 -21 2270.47 235.27 1
-4 0 -17 3552.56 217.422 -2
4 0 -20 3552.56 217.422 1
-4 0 -16 1378.95 120.869 -2
4 0 -19 1378.95 120.869 1
-4 0 -15 283.912 100.876 -2
4 0 -18 283.912 100.876 1
-4 0 -14 820.123 93.1188 -2
4 0 -17 820.123 93.1188 1
-4 0 -13 1092.12 88.3432 -2
4 0 -16 1092.12 88.3432 1
-4 0 -12 1016.72 79.685 -2
4 0 -15 1016.72 79.685 1
-4 0 -11 1342.24 74.1976 -2
4 0 -14 1342.24 74.1976 1
-4 0 -10 247.254 61.6225 -2
4 0 -13 247.254 61.6225 1
-4 0 -9 2427.86 69.5506 -2
4 0 -12 2427.86 69.5506 1
-4 0 -8 1865.25 61.4369 -2
4 0 -11 1865.25 61.4369 1
-4 0 -7 19178.8 115.912 -2
4 0 -10 19178.8 115.912 1
4 0 -9 717.814 25.8601 1
-4 0 -6 901.834 48.2053 -2
4 0 -9 901.834 48.2053 1
4 0 -8 9236.46 71.7569 1
-4 0 -5 8520 76.749 -2
4 0 -8 8520 76.749 1
-4 0 -4 1566.02 46.9294 -2
4 0 -7 1566.02 46.9294 1
-4 0 -3 6544.05 61.2883 -2
4 0 -6 6544.05 61.2883 1
-4 0 -2 10252.2 89.1113 -2
4 0 -5 10252.2 89.1113 1
4 0 -4 18492.5 114.563 1
4 0 -3 923.942 41.8802 1
4 0 -2 487.135 39.7339 1
-4 0 1 1344.78 33.3066 1
-4 0 0 1279.91 53.0808 1
-4 0 -1 3600.11 68.4619 1
-4 0 -2 17.7241 30.1077 1
-4 0 -3 3276.1 52.2559 1
-4 0 -4 166.12 47.0539 1
4 0 -7 896.178 73.7889 -2
-4 0 -4 896.178 73.7889 1
-4 0 -5 181.883 49.4674 1
-4 0 -6 197.403 54.2391 1
4 0 -10 12782.8 139.403 -2
-4 0 -7 12782.8 139.403 1
4 0 -11 2639.47 95.672 -2
-4 0 -8 2639.47 95.672 1
4 0 -12 1770.4 100.412 -2
-4 0 -9 1770.4 100.412 1
4 0 -13 324.583 94.7896 -2
-4 0 -10 324.583 94.7896 1
4 0 -14 1852.63 110.231 -2
-4 0 -11 1852.63 110.231 1
4 0 -15 2002.98 85.7617 -2
-4 0 -12 2002.98 85.7617 1
4 0 -16 1102.07 86.4033 -2
-4 0 -13 1102.07 86.4033 1
-4 0 17 687.581 92.9206 -2
4 0 14 687.581 92.9206 1
4 0 -18 279.61 148.019 -2
-4 0 -15 279.61 148.019 1
4 0 -19 1393.42 180.605 -2
-4 0 -16 1393.42 180.605 1
4 0 -20 3902.73 220.208 -2
-4 0 -17 3902.73 220.208 1
4 0 -21 4195.81 248.502 -2
-4 0 -18 4195.81 248.502 1
-4 -1 -19 2721.68 272.384 -2
4 1 -22 2721.68 272.384 1
-4 -1 -18 400.744 216.86 -2
4 1 -21 400.744 216.86 1
-4 -1 -17 2172.98 219.927 -2
4 1 -20 2172.98 219.927 1
-4 -1 -16 306.939 172.781 -2
4 1 -19 306.939 172.781 1
-4 -1 -15 229.343 157.951 -2
4 1 -18 229.343 157.951 1
-4 -1 -14 1066.4 98.0067 -2
4 1 -17 1066.4 98.0067 1
-4 -1 -13 2816.78 102.694 -2
4 1 -16 2816.78 102.694 1
-4 -1 -12 648.27 77.6164 -2
4 1 -15 648.27 77.6164 1
-4 -1 -11 647.87 69.8303 -2
4 1 -14 647.87 69.8303 1
-4 -1 -10 982.363 68.1328 -2
4 1 -13 982.363 68.1328 1
-4 -1 -9 198.317 55.0402 -2
4 1 -12 198.317 55.0402 1
-4 -1 -8 824.727 55.7945 -2
4 1 -11 824.727 55.7945 1
4 1 -10 1.09039 12.4588 1
-4 -1 -7 1077.81 53.5551 -2
4 1 -10 1077.81 53.5551 1
-4 -1 -6 6862.13 53.5664 -2
4 1 -9 6862.13 53.5664 1
-4 -1 -5 7912.41 59.9075 -2
4 1 -8 7912.41 59.9075 1
-4 -1 -4 255.439 27.7955 -2
4 1 -7 255.439 27.7955 1
-4 -1 -3 8669.18 62.7664 -2
4 1 -6 8669.18 62.7664 1
-4 -1 -2 8091.05 60.2507 -2
4 1 -5 8091.05 60.2507 1
-4 -1 -1 46420.9 205.269 -2
4 1 -4 46420.9 205.269 1
4 1 0 469.549 22.6005 -2
-4 -1 3 469.549 22.6005 1
4 1 -1 2839.58 68.3919 -2
-4 -1 2 2839.58 68.3919 1
4 1 -2 1884 61.6785 -2
-4 -1 1 1884 61.6785 1
4 1 -3 343.038 23.4322 -2
-4 -1 0 343.038 23.4322 1
4 1 -4 25533 103.421 -2
-4 -1 -1 25533 103.421 1
4 1 -5 9655.37 65.7987 -2
-4 -1 -2 9655.37 65.7987 1
4 1 -6 14383.7 146.753 -2
-4 -1 -3 14383.7 146.753 1
4 1 -7 282.616 56.2706 -2
-4 -1 -4 282.616 56.2706 1
4 1 -8 14615.9 153.74 -2
-4 -1 -5 14615.9 153.74 1
4 1 -9 11482.9 144.271 -2
-4 -1 -6 11482.9 144.271 1
4 1 -10 648.143 75.4723 -2
-4 -1 -7 648.143 75.4723 1
4 1 -11 1380.21 94.2889 -2
-4 -1 -8 1380.21 94.2889 1
-4 -1 12 320.508 63.9704 -2
4 1 9 320.508 63.9704 1
4 1 -13 649.305 68.844 -2
-4 -1 -10 649.305 68.844 1
-4 -1 14 1091.23 76.6421 -2
4 1 11 1091.23 76.6421 1
-4 -1 15 436.267 78.0095 -2
4 1 12 436.267 78.0095 1
4 1 -16 1645.23 94.5164 -2
-4 -1 -13 1645.23 94.5164 1
-4 -1 17 1318.76 98.839 -2
4 1 14 1318.76 98.839 1
4 1 -18 251.405 151.99 -2
-4 -1 -15 251.405 151.99 1
4 1 -19 357.838 174.205 -2
-4 -1 -16 357.838 174.205 1
-4 -2 -19 2594.81 278.467 -2
4 2 -22 2594.81 278.467 1
-4 -2 -18 3030.68 256.496 -2
4 2 -21 3030.68 256.496 1
-4 -2 -17 3576.39 239.999 -2
4 2 -20 3576.39 239.999 1
-4 -2 -16 2800.58 218.213 -2
4 2 -19 2800.58 218.213 1
-4 -2 -15 642.465 172.978 -2
4 2 -18 642.465 172.978 1
-4 -2 -14 784.45 162.35 -2
4 2 -17 784.45 162.35 1
-4 -2 -13 527.549 144.264 -2
4 2 -16 527.549 144.264 1
-4 -2 -12 337.323 75.3687 -2
4 2 -15 337.323 75.3687 1
-4 -2 -11 71.6183 63.3951 -2
4 2 -14 71.6183 63.3951 1
-4 -2 -10 484.367 61.2785 -2
4 2 -13 484.367 61.2785 1
-4 -2 -9 284.258 52.6018 -2
4 2 -12 284.258 52.6018 1
-4 -2 -8 123.467 47.1984 -2
4 2 -11 123.467 47.1984 1
-4 -2 -7 1565.83 35.3789 -2
4 2 -10 1565.83 35.3789 1
-4 -2 -6 3254.82 44.4583 -2
4 2 -9 3254.82 44.4583 1
-4 -2 -5 866.139 31.0054 -2
4 2 -8 866.139 31.0054 1
-4 -2 -4 2884.16 38.3906 -2
4 2 -7 2884.16 38.3906 1
-4 -2 -3 717.712 25.8174 -2
4 2 -6 717.712 25.8174 1
-4 -2 -2 12607.4 106.559 -2
4 2 -5 12607.4 106.559 1
4 2 1 14610.6 62.0234 -2
-4 -2 4 14610.6 62.0234 1
4 2 0 2313.62 43.7778 -2
-4 -2 3 2313.62 43.7778 1
4 2 -1 2626.66 37.7495 -2
-4 -2 2 2626.66 37.7495 1
-4 -2 2 4463.61 64.811 -2
4 2 -1 4463.61 64.811 1
-4 -2 3 3120.41 99.1471 -2
4 2 0 3120.41 99.1471 1
-4 -2 4 29310.1 138.796 -2
4 2 1 29310.1 138.796 1
-4 -2 5 22251.9 101.423 -2
4 2 2 22251.9 101.423 1
4 2 -6 672.396 35.7772 -2
-4 -2 -3 672.396 35.7772 1
-4 -2 7 4173.88 57.3437 -2
4 2 4 4173.88 57.3437 1
-4 -2 8 1268.54 45.1329 -2
4 2 5 1268.54 45.1329 1
-4 -2 9 2169.58 64.0628 -2
4 2 6 2169.58 64.0628 1
4 2 -10 2816.32 74.6461 -2
-4 -2 -7 2816.32 74.6461 1
4 2 -11 99.3835 55.5466 -2
-4 -2 -8 99.3835 55.5466 1
4 2 -12 424.359 60.7738 -2
-4 -2 -9 424.359 60.7738 1
-4 -2 13 536.574 68.1075 -2
4 2 10 536.574 68.1075 1
-4 -2 14 74.1776 68.3602 -2
4 2 11 74.1776 68.3602 1
-4 -2 15 649.096 78.4656 -2
4 2 12 649.096 78.4656 1
-4 -2 16 673.595 84.8205 -2
4 2 13 673.595 84.8205 1
4 2 -17 980.98 96.6166 -2
-4 -2 -14 980.98 96.6166 1
-4 -2 21 6247.88 300.378 -2
4 2 18 6247.88 300.378 1
-4 -2 22 1646 280.607 -2
4 2 19 1646 280.607 1
-4 -3 -19 489.991 260.347 -2
4 3 -22 489.991 260.347 1
-4 -3 -18 1934.49 243.226 -2
4 3 -21 1934.49 243.226 1
-4 -3 -17 2347.12 227.905 -2
4 3 -20 2347.12 227.905 1
-4 -3 -16 634.068 191.64 -2
4 3 -19 634.068 191.64 1
-4 -3 -15 195.263 169.738 -2
4 3 -18 195.263 169.738 1
-4 -3 -14 346.27 157.419 -2
4 3 -17 346.27 157.419 1
-4 -3 -13 1168.92 157.986 -2
4 3 -16 1168.92 157.986 1
-4 -3 -12 1128.64 146.408 -2
4 3 -15 1128.64 146.408 1
-4 -3 -11 514.449 127.042 -2
4 3 -14 514.449 127.042 1
-4 -3 -10 731.509 123.221 -2
4 3 -13 731.509 123.221 1
-4 -3 -9 608.274 50.8325 -2
4 3 -12 608.274 50.8325 1
-4 -3 -8 1132.78 43.5385 -2
4 3 -11 1132.78 43.5385 1
4 3 -10 36.7996 20.1295 1
-4 -3 -7 557.048 93.9208 -2
4 3 -10 557.048 93.9208 1
4 3 -9 1929.95 54.7296 1
-4 -3 -6 2094 100.397 -2
4 3 -9 2094 100.397 1
-4 -3 -5 4234.62 60.2526 -2
4 3 -8 4234.62 60.2526 1
4 3 -7 8290.05 95.4824 1
-4 -3 -4 7682.34 117.684 -2
4 3 -7 7682.34 117.684 1
-4 -3 -3 2376.99 50.3416 -2
4 3 -6 2376.99 50.3416 1
-4 -3 -2 1215.82 46.1603 -2
4 3 -5 1215.82 46.1603 1
-4 -3 4 231.679 14.575 1
-4 -3 -1 1789.14 46.858 -2
4 3 -4 1789.14 46.858 1
-4 -3 3 468.845 29.9838 1
-4 -3 0 1115.7 62.9983 -2
4 3 -3 1115.7 62.9983 1
-4 -3 1 636.673 62.5401 -2
4 3 -2 636.673 62.5401 1
-4 -3 2 952.178 69.4817 -2
4 3 -1 952.178 69.4817 1
-4 -3 3 1673.06 77.5655 -2
4 3 0 1673.06 77.5655 1
-4 -3 4 3075.69 53.3271 -2
4 3 1 3075.69 53.3271 1
-4 -3 -2 2078.48 48.6765 1
-4 -3 5 1976.54 50.9684 -2
4 3 2 1976.54 50.9684 1
-4 -3 6 4255.04 44.8733 -2
4 3 3 4255.04 44.8733 1
-4 -3 7 4281.42 47.4694 -2
4 3 4 4281.42 47.4694 1
4 3 -8 6580.99 55.8072 -2
-4 -3 -5 6580.99 55.8072 1
4 3 -9 1791.24 47.5328 -2
-4 -3 -6 1791.24 47.5328 1
-4 -3 10 902.524 46.4314 -2
4 3 7 902.524 46.4314 1
-4 -3 11 1984.47 54.4798 -2
4 3 8 1984.47 54.4798 1
-4 -3 12 559.401 52.2878 -2
4 3 9 559.401 52.2878 1
-4 -3 13 1227.32 58.9096 -2
4 3 10 1227.32 58.9096 1
-4 -3 14 685.246 62.4666 -2
4 3 11 685.246 62.4666 1
-4 -3 15 1770.09 72.7607 -2
4 3 12 1770.09 72.7607 1
-4 -3 16 1089.4 98.8238 -2
4 3 13 1089.4 98.8238 1
-4 -3 17 336.918 104.207 -2
4 3 14 336.918 104.207 1
-4 -3 18 259.214 178.411 -2
4 3 15 259.214 178.411 1
-4 -3 19 824.021 202.873 -2
4 3 16 824.021 202.873 1
-4 -3 20 4048.21 250.334 -2
4 3 17 4048.21 250.334 1
-4 -3 21 2553.37 265.868 -2
4 3 18 2553.37 265.868 1
-4 -3 22 495.708 286.198 -2
4 3 19 495.708 286.198 1
4 4 -22 754.269 222.914 1
4 4 -21 198.376 198.363 1
4 4 -20 1072.27 190.806 1
4 4 -19 425.15 166.968 1
4 4 -18 172.686 144.782 1
4 4 -17 109.531 129.178 1
4 4 -16 27.7906 119.986 1
4 4 -15 43.9564 112.087 1
4 4 -14 -34.5087 103.273 1
4 4 -13 5205.48 149.543 1
4 4 -12 5339.02 143.655 1
4 4 -11 148.327 82.3443 1
4 4 -10 254.97 41.496 1
4 4 -9 92.4735 41.2181 1
4 4 -8 366.622 41.5474 1
4 4 -7 1591.6 49.4137 1
4 4 -6 15.9251 34.4672 1
4 4 -5 10.7689 34.7542 1
4 4 -4 38.8698 35.3978 1
4 4 -3 3598.26 35.0635 1
4 4 -2 1618.31 70.3387 1
4 4 -1 4068.7 94.9587 1
4 4 0 882.822 62.7349 1
4 4 1 3086.43 85.1323 1
4 4 2 18.2435 19.9162 1
4 4 3 169.766 20.8787 1
4 4 4 1325 29.5508 1
-4 -4 -5 258.15 25.0544 1
4 4 6 22227.1 142.653 1
4 4 -9 21903 103.729 -2
-4 -4 -6 21903 103.729 1
4 4 7 17230.1 191.554 1
4 4 -10 16537.7 87.6708 -2
-4 -4 -7 16537.7 87.6708 1
4 4 8 5439.53 59.6434 1
4 4 9 45.3381 59.3885 1
4 4 10 874.819 70.9429 1
4 4 11 762.962 72.7711 1
4 4 12 864.97 79.7003 1
4 4 13 266.559 80.9833 1
4 4 14 82.2688 86.771 1
4 4 15 169.581 156.606 1
4 4 16 70.7784 179.497 1
4 4 17 148.297 188.297 1
4 4 18 129.896 208.244 1
4 5 -21 94.7364 210.86 1
4 5 -20 205.606 187.614 1
4 5 -19 273.294 168.646 1
4 5 -18 762.746 158.055 1
4 5 -17 30.6768 135.298 1
4 5 -16 606.195 133.811 1
4 5 -15 1638.87 138.903 1
4 5 -14 988.541 122.204 1
4 5 -13 35.1145 100.937 1
4 5 -12 81.8823 93.8428 1
4 5 -11 43.2345 85.3984 1
4 5 -10 1930.68 60.0136 1
4 5 -9 383.345 47.5954 1
4 5 -8 111.655 43.8369 1
4 5 -7 68.1805 42.2353 1
4 5 -6 184.312 41.2831 1
4 5 -5 32.1686 38.4113 1
4 5 -4 4707.63 67.0663 1
4 5 -3 90.2137 15.2363 1
4 5 -2 3892.17 96.1568 1
4 5 -1 7198.75 123.715 1
4 5 0 6668.19 120.983 1
4 5 1 25.0565 21.6446 1
4 5 2 343.953 46.2698 1
4 5 3 190.177 45.8192 1
4 5 4 461.959 51.1133 1
4 5 5 6838.01 133.283 1
-4 -5 9 7735.25 136.457 -2
4 5 5 7735.25 136.457 1
4 5 6 162.347 76.2266 1
-4 -5 10 1169.08 105.072 -2
4 5 6 1169.08 105.072 1
4 5 7 361.628 58.4445 1
4 5 8 831.373 89.524 1
-4 -5 12 995.961 118.4 -2
4 5 8 995.961 118.4 1
4 5 9 365.977 66.5473 1
4 5 10 503.434 72.525 1
4 5 11 415.256 75.9503 1
4 5 12 466.996 80.8663 1
4 5 13 182.303 87.874 1
4 5 14 25.6457 95.8517 1
4 5 15 183.462 162.096 1
4 5 16 59.1697 177.863 1
4 5 17 128.81 206.655 1
4 5 18 33.0343 228.314 1
-4 -6 -17 440.165 270.434 -2
4 6 -21 440.165 270.434 1
-4 -6 -16 635.48 243.847 -2
4 6 -20 635.48 243.847 1
-4 -6 -15 245.518 217.843 -2
4 6 -19 245.518 217.843 1
-4 -6 -14 334.26 199.271 -2
4 6 -18 334.26 199.271 1
-4 -6 -13 691.266 185.156 -2
4 6 -17 691.266 185.156 1
-4 -6 -12 336.331 170.363 -2
4 6 -16 336.331 170.363 1
-4 -6 -11 227.517 159.226 -2
4 6 -15 227.517 159.226 1
-4 -6 -10 258.759 144.767 -2
4 6 -14 258.759 144.767 1
-4 -6 -9 168.289 134.396 -2
4 6 -13 168.289 134.396 1
-4 -6 -8 610.491 127.877 -2
4 6 -12 610.491 127.877 1
-4 -6 -7 5866.97 159.339 -2
4 6 -11 5866.97 159.339 1
-4 -6 -6 5185.51 147.263 -2
4 6 -10 5185.51 147.263 1
-4 -6 -5 5165.07 88.0625 -2
4 6 -9 5165.07 88.0625 1
-4 -6 -4 1149 64.7882 -2
4 6 -8 1149 64.7882 1
-4 -6 -3 802.714 60.9813 -2
4 6 -7 802.714 60.9813 1
-4 -6 -2 493.24 58.6029 -2
4 6 -6 493.24 58.6029 1
-4 -6 -1 1187.14 57.9007 -2
4 6 -5 1187.14 57.9007 1
-4 -6 0 5025.98 72.3619 -2
4 6 -4 5025.98 72.3619 1
-4 -6 1 3988.38 114.932 -2
4 6 -3 3988.38 114.932 1
-4 -6 2 541.43 37.143 1
-4 -6 2 994.55 95.4259 -2
4 6 -2 994.55 95.4259 1
-4 -6 3 5096.81 124.854 -2
4 6 -1 5096.81 124.854 1
-4 -6 4 8196.61 144.853 -2
4 6 0 8196.61 144.853 1
-4 -6 5 1897.18 102.35 -2
4 6 1 1897.18 102.35 1
-4 -6 6 325.937 90.3599 -2
4 6 2 325.937 90.3599 1
-4 -6 7 1114.37 71.6527 -2
4 6 3 1114.37 71.6527 1
-4 -6 8 2348.94 81.2461 -2
4 6 4 2348.94 81.2461 1
-4 -6 9 7765.36 114.233 -2
4 6 5 7765.36 114.233 1
-4 -6 10 9003.15 123.376 -2
4 6 6 9003.15 123.376 1
-4 -6 11 5471.27 111.13 -2
4 6 7 5471.27 111.13 1
-4 -6 12 559.169 87.8407 -2
4 6 8 559.169 87.8407 1
-4 -6 13 408.993 91.2096 -2
4 6 9 408.993 91.2096 1
-4 -6 14 229.248 97.1958 -2
4 6 10 229.248 97.1958 1
-4 -6 15 426.018 105.826 -2
4 6 11 426.018 105.826 1
-4 -6 16 404.346 112.614 -2
4 6 12 404.346 112.614 1
-4 -6 17 930.408 128.294 -2
4 6 13 930.408 128.294 1
-4 -6 18 626.076 205.263 -2
4 6 14 626.076 205.263 1
-4 -6 19 682.378 229.873 -2
4 6 15 682.378 229.873 1
-4 -6 20 635.132 255.3 -2
4 6 16 635.132 255.3 1
-4 -6 21 147.455 284.416 -2
4 6 17 147.455 284.416 1
-4 -7 -16 490.225 259.322 -2
4 7 -20 490.225 259.322 1
-4 -7 -15 555.671 241.61 -2
4 7 -19 555.671 241.61 1
-4 -7 -14 727.567 224.421 -2
4 7 -18 727.567 224.421 1
-4 -7 -13 250.28 199.713 -2
4 7 -17 250.28 199.713 1
-4 -7 -12 674.737 189.706 -2
4 7 -16 674.737 189.706 1
-4 -7 -11 454.435 170.745 -2
4 7 -15 454.435 170.745 1
-4 -7 -10 3770.87 203.937 -2
4 7 -14 3770.87 203.937 1
-4 -7 -9 1637.31 168.4 -2
4 7 -13 1637.31 168.4 1
-4 -7 -8 1200.31 151.176 -2
4 7 -12 1200.31 151.176 1
-4 -7 -7 1031.35 138.164 -2
4 7 -11 1031.35 138.164 1
-4 -7 -6 1546.47 135.074 -2
4 7 -10 1546.47 135.074 1
-4 -7 -5 813.23 77.0699 -2
4 7 -9 813.23 77.0699 1
-4 -7 -4 165.305 67.6672 -2
4 7 -8 165.305 67.6672 1
-4 -7 -3 177.211 65.3253 -2
4 7 -7 177.211 65.3253 1
-4 -7 -2 3199.07 84.8045 -2
4 7 -6 3199.07 84.8045 1
-4 -7 -1 567.126 63.3389 -2
4 7 -5 567.126 63.3389 1
-4 -7 0 1371.95 70.1716 -2
4 7 -4 1371.95 70.1716 1
-4 -7 1 620.263 101.862 -2
4 7 -3 620.263 101.862 1
4 7 -2 109.522 43.6823 -2
-4 -7 2 109.522 43.6823 1
-4 -7 3 334.568 52.0296 -2
4 7 -1 334.568 52.0296 1
-4 -7 4 642.279 103.482 -2
4 7 0 642.279 103.482 1
-4 -7 5 359.609 103.286 -2
4 7 1 359.609 103.286 1
-4 -7 6 2197.15 131.38 -2
4 7 2 2197.15 131.38 1
-4 -7 7 38.9202 104.219 -2
4 7 3 38.9202 104.219 1
-4 -7 8 156.878 108.668 -2
4 7 4 156.878 108.668 1
-4 -7 9 589.927 86.6438 -2
4 7 5 589.927 86.6438 1
-4 -7 10 1029.6 95.0453 -2
4 7 6 1029.6 95.0453 1
-4 -7 11 1704.23 105.391 -2
4 7 7 1704.23 105.391 1
-4 -7 12 1137.63 102.709 -2
4 7 8 1137.63 102.709 1
-4 -7 13 1983.33 117.489 -2
4 7 9 1983.33 117.489 1
-4 -7 14 8124.4 171.777 -2
4 7 10 8124.4 171.777 1
-4 -7 15 460.546 120.233 -2
4 7 11 460.546 120.233 1
-4 -7 16 707.396 132.152 -2
4 7 12 707.396 132.152 1
-4 -7 17 399.797 156.289 -2
4 7 13 399.797 156.289 1
-4 -7 18 941.404 232.907 -2
4 7 14 941.404 232.907 1
-4 -7 19 1234.29 266.485 -2
4 7 15 1234.29 266.485 1
-4 -7 20 340.018 287.03 -2
4 7 16 340.018 287.03 1
-4 -8 -15 810.225 272.043 -2
4 8 -19 810.225 272.043 1
-4 -8 -14 552.717 241.788 -2
4 8 -18 552.717 241.788 1
-4 -8 -13 344.168 221.59 -2
4 8 -17 344.168 221.59 1
-4 -8 -12 403.006 204.022 -2
4 8 -16 403.006 204.022 1
-4 -8 -11 815.768 191.285 -2
4 8 -15 815.768 191.285 1
-4 -8 -10 2370.96 198.503 -2
4 8 -14 2370.96 198.503 1
-4 -8 -9 4801.77 214.055 -2
4 8 -13 4801.77 214.055 1
-4 -8 -8 1605.54 164.807 -2
4 8 -12 1605.54 164.807 1
-4 -8 -7 1581.62 154.616 -2
4 8 -11 1581.62 154.616 1
-4 -8 -6 453.279 128.845 -2
4 8 -10 453.279 128.845 1
-4 -8 -5 219.123 116.447 -2
4 8 -9 219.123 116.447 1
-4 -8 -4 1048.67 84.098 -2
4 8 -8 1048.67 84.098 1
-4 -8 -3 308.735 72.9517 -2
4 8 -7 308.735 72.9517 1
-4 -8 -2 3387.41 92.0813 -2
4 8 -6 3387.41 92.0813 1
-4 -8 -1 7670.12 113.205 -2
4 8 -5 7670.12 113.205 1
-4 -8 0 2167.77 131.642 -2
4 8 -4 2167.77 131.642 1
-4 -8 1 379.115 110.985 -2
4 8 -3 379.115 110.985 1
-4 -8 2 170.033 117.263 -2
4 8 -2 170.033 117.263 1
-4 -8 3 71.8579 121.46 -2
4 8 -1 71.8579 121.46 1
-4 -8 4 1186.33 71.4933 -2
4 8 0 1186.33 71.4933 1
-4 -8 5 3552.02 93.8978 -2
4 8 1 3552.02 93.8978 1
-4 -8 6 1707.03 137.579 -2
4 8 2 1707.03 137.579 1
-4 -8 7 508.471 124.519 -2
4 8 3 508.471 124.519 1
-4 -8 8 1659.04 142.292 -2
4 8 4 1659.04 142.292 1
-4 -8 9 342.72 124.615 -2
4 8 5 342.72 124.615 1
-4 -8 10 387.744 96.0285 -2
4 8 6 387.744 96.0285 1
-4 -8 11 889.711 108.77 -2
4 8 7 889.711 108.77 1
-4 -8 12 2375.84 127.017 -2
4 8 8 2375.84 127.017 1
-4 -8 13 7416.22 170.217 -2
4 8 9 7416.22 170.217 1
-4 -8 14 4480.13 167.05 -2
4 8 10 4480.13 167.05 1
-4 -8 15 497.732 136.809 -2
4 8 11 497.732 136.809 1
-4 -8 16 566.676 145.945 -2
4 8 12 566.676 145.945 1
-4 -8 17 330.265 156.252 -2
4 8 13 330.265 156.252 1
-4 -8 18 515.32 257.237 -2
4 8 14 515.32 257.237 1
-4 -8 19 753.401 294.289 -2
4 8 15 753.401 294.289 1
-4 -9 -14 929.323 277.427 -2
4 9 -18 929.323 277.427 1
-4 -9 -13 545.369 249.182 -2
4 9 -17 545.369 249.182 1
-4 -9 -12 560.459 230.382 -2
4 9 -16 560.459 230.382 1
-4 -9 -11 336.812 209.515 -2
4 9 -15 336.812 209.515 1
-4 -9 -10 720.421 195.467 -2
4 9 -14 720.421 195.467 1
-4 -9 -9 533.163 179.478 -2
4 9 -13 533.163 179.478 1
-4 -9 -8 160.599 164.449 -2
4 9 -12 160.599 164.449 1
-4 -9 -7 624.118 153.94 -2
4 9 -11 624.118 153.94 1
-4 -9 -6 274.822 140.611 -2
4 9 -10 274.822 140.611 1
-4 -9 -5 248.676 127.766 -2
4 9 -9 248.676 127.766 1
-4 -9 -4 932.708 120.248 -2
4 9 -8 932.708 120.248 1
-4 -9 -3 2284 92.4875 -2
4 9 -7 2284 92.4875 1
-4 -9 -2 2567.77 140.885 -2
4 9 -6 2567.77 140.885 1
-4 -9 -1 86.8179 120.646 -2
4 9 -5 86.8179 120.646 1
-4 -9 0 568.351 123.335 -2
4 9 -4 568.351 123.335 1
-4 -9 1 2292.17 141.449 -2
4 9 -3 2292.17 141.449 1
-4 -9 2 2655.54 139.27 -2
4 9 -2 2655.54 139.27 1
-4 -9 3 1152.99 131.062 -2
4 9 -1 1152.99 131.062 1
-4 -9 4 517.579 130.819 -2
4 9 0 517.579 130.819 1
-4 -9 5 162.18 127.918 -2
4 9 1 162.18 127.918 1
-4 -9 6 1688.93 91.4581 -2
4 9 2 1688.93 91.4581 1
-4 -9 7 3119.48 104.752 -2
4 9 3 3119.48 104.752 1
-4 -9 8 1876.99 169.125 -2
4 9 4 1876.99 169.125 1
-4 -9 9 313.14 159.615 -2
4 9 5 313.14 159.615 1
-4 -9 10 282.518 156.774 -2
4 9 6 282.518 156.774 1
-4 -9 11 401.855 166.575 -2
4 9 7 401.855 166.575 1
-4 -9 12 315.836 169.353 -2
4 9 8 315.836 169.353 1
4 9 9 243.069 139.77 1
-4 -9 13 447.05 187.568 -2
4 9 9 447.05 187.568 1
4 9 10 615.519 156.916 1
-4 -9 14 1021.13 212.866 -2
4 9 10 1021.13 212.866 1
4 9 11 320.768 167.996 1
-4 -9 15 426.574 223.438 -2
4 9 11 426.574 223.438 1
-4 -9 16 468.931 163.98 -2
4 9 12 468.931 163.98 1
-4 -9 17 528.334 266.784 -2
4 9 13 528.334 266.784 1
-4 -9 18 900.688 295.992 -2
4 9 14 900.688 295.992 1
-4 -10 -12 137.351 268.714 -2
4 10 -16 137.351 268.714 1
4 10 -15 93.0925 195.055 1
4 10 -14 77.785 181.101 1
4 10 -13 27.6062 166.412 1
4 10 -12 311.92 157.372 1
4 10 -11 135.79 141.375 1
4 10 -6 3139.24 148.262 1
4 10 -5 3746.88 153.403 1
4 10 -4 4022.09 155.65 1
4 10 -3 621.677 117.248 1
4 10 -2 50.3984 114.818 1
4 10 -1 193.421 111.952 1
4 10 0 902.023 125.602 1
4 10 1 145.567 119.252 1
4 10 2 121.3 122.763 1
4 10 3 161.946 131.947 1
4 10 4 173.348 131.981 1
4 10 5 328.577 95.8253 1
4 10 6 294.036 98.588 1
4 10 7 164.908 101.973 1
4 10 8 261.556 108.579 1
4 10 9 26.5373 156.755 1
4 10 10 104.763 169.896 1
4 10 11 215.99 189.636 1
4 11 -4 58.739 129.215 1
4 11 -3 66.718 130.815 1
4 11 -2 223.37 127.633 1
4 11 -1 526.607 136.764 1
4 11 0 1355.34 147.634 1
4 11 1 102.719 136.458 1
4 11 2 64.6015 135.31 1
4 11 3 184.905 136.639 1
4 11 4 258.203 144.398 1
-4 -11 10 835.917 191.227 -2
4 11 5 835.917 191.227 1
-4 -11 11 807.002 202.913 -2
4 11 6 807.002 202.913 1
-4 -11 12 343.532 210.066 -2
4 11 7 343.532 210.066 1
-4 -11 13 271.229 225.777 -2
4 11 8 271.229 225.777 1
-4 -11 14 712.434 244.831 -2
4 11 9 712.434 244.831 1
-4 -11 15 296.046 261.361 -2
4 11 10 296.046 261.361 1
-4 -12 4 525.918 189.085 -2
4 12 -1 525.918 189.085 1
-4 -12 5 341.643 193.46 -2
4 12 0 341.643 193.46 1
-4 -12 6 1825.33 210.913 -2
4 12 1 1825.33 210.913 1
-4 -12 7 344.198 201.074 -2
4 12 2 344.198 201.074 1
-4 -12 8 553.818 209.759 -2
4 12 3 553.818 209.759 1
-4 -12 9 147.223 211.296 -2
4 12 4 147.223 211.296 1
-4 -12 10 288.778 220.566 -2
4 12 5 288.778 220.566 1
-4 -12 11 462.339 234.067 -2
4 12 6 462.339 234.067 1
-4 -12 12 408.267 248.461 -2
4 12 7 408.267 248.461 1
-4 -12 13 591.146 267.581 -2
4 12 8 591.146 267.581 1
-5 14 -6 866.433 289.931 -2
5 -14 -7 866.433 289.931 1
-5 14 -5 300.257 262.609 -2
5 -14 -6 300.257 262.609 1
-5 14 -4 508.287 259.881 -2
5 -14 -5 508.287 259.881 1
-5 14 -3 154.762 255.003 -2
5 -14 -4 154.762 255.003 1
-5 14 -2 455.272 259.403 -2
5 -14 -3 455.272 259.403 1
-5 14 -1 326.616 246.763 -2
5 -14 -2 326.616 246.763 1
-5 14 0 201.363 233.751 -2
5 -14 -1 201.363 233.751 1
-5 14 1 145.755 250.045 -2
5 -14 0 145.755 250.045 1
-5 14 2 321.676 251.741 -2
5 -14 1 321.676 251.741 1
-5 13 -9 307.295 268.147 -2
5 -13 -10 307.295 268.147 1
-5 13 -8 298.726 255.518 -2
5 -13 -9 298.726 255.518 1
-5 13 -7 460.31 246.052 -2
5 -13 -8 460.31 246.052 1
-5 13 -6 366.313 232.157 -2
5 -13 -7 366.313 232.157 1
-5 13 -5 284.819 229.265 -2
5 -13 -6 284.819 229.265 1
-5 13 -4 355.158 216.986 -2
5 -13 -5 355.158 216.986 1
-5 13 -3 217.43 209.442 -2
5 -13 -4 217.43 209.442 1
-5 13 -2 1472.62 221.64 -2
5 -13 -3 1472.62 221.64 1
-5 13 -1 1135.84 220.765 -2
5 -13 -2 1135.84 220.765 1
-5 13 0 923.432 212.348 -2
5 -13 -1 923.432 212.348 1
-5 13 1 1165.61 207.415 -2
5 -13 0 1165.61 207.415 1
-5 13 2 2310.04 225.118 -2
5 -13 1 2310.04 225.118 1
-5 13 3 3409.03 236.542 -2
5 -13 2 3409.03 236.542 1
-5 13 4 594.378 203.691 -2
5 -13 3 594.378 203.691 1
5 -13 -5 383.69 157.833 -2
-5 13 -4 383.69 157.833 1
5 -13 -6 320.145 160.99 -2
-5 13 -5 320.145 160.99 1
5 -13 -7 414.681 230.503 -2
-5 13 -6 414.681 230.503 1
5 -13 -8 381.902 239.105 -2
-5 13 -7 381.902 239.105 1
5 -13 -9 357.543 241.818 -2
-5 13 -8 357.543 241.818 1
5 -13 -10 314.363 254.941 -2
-5 13 -9 314.363 254.941 1
5 -13 -11 980.07 273.253 -2
-5 13 -10 980.07 273.253 1
-5 12 -11 1881.91 271.304 -2
5 -12 -12 1881.91 271.304 1
-5 12 -10 1525.94 251.059 -2
5 -12 -11 1525.94 251.059 1
-5 12 -9 813.455 230.746 -2
5 -12 -10 813.455 230.746 1
-5 12 -8 755.249 212.637 -2
5 -12 -9 755.249 212.637 1
-5 12 -7 302.081 205.371 -2
5 -12 -8 302.081 205.371 1
-5 12 -6 352.76 199.933 -2
5 -12 -7 352.76 199.933 1
-5 12 -5 521.021 192.28 -2
5 -12 -6 521.021 192.28 1
-5 12 -4 544.494 194.276 -2
5 -12 -5 544.494 194.276 1
-5 12 -3 959.954 186.133 -2
5 -12 -4 959.954 186.133 1
-5 12 -2 498.006 175.808 -2
5 -12 -3 498.006 175.808 1
-5 12 -1 929.818 180.698 -2
5 -12 -2 929.818 180.698 1
-5 12 0 547.632 120.317 -2
5 -12 -1 547.632 120.317 1
-5 12 1 540.828 117.757 -2
5 -12 0 540.828 117.757 1
5 -12 -2 538.995 117.58 -2
-5 12 -1 538.995 117.58 1
5 -12 -3 472.184 117.534 -2
-5 12 -2 472.184 117.534 1
5 -12 -4 732.929 122.879 -2
-5 12 -3 732.929 122.879 1
5 -12 -5 320.592 123.361 -2
-5 12 -4 320.592 123.361 1
-5 12 -5 173.209 163.64 1
5 -12 -6 489.737 185.955 -2
-5 12 -5 489.737 185.955 1
5 -12 -7 259.068 139.314 -2
-5 12 -6 259.068 139.314 1
-5 12 -7 117.331 172.349 1
5 -12 -8 336.056 198.145 -2
-5 12 -7 336.056 198.145 1
5 -12 -9 699.798 220.222 -2
-5 12 -8 699.798 220.222 1
5 -12 -10 1187.64 223.304 -2
-5 12 -9 1187.64 223.304 1
5 -12 -11 1196.93 228.8 -2
-5 12 -10 1196.93 228.8 1
5 -12 -12 1561.43 252.821 -2
-5 12 -11 1561.43 252.821 1
5 -12 -13 604.642 266.562 -2
-5 12 -12 604.642 266.562 1
-5 11 -13 881.914 276.678 -2
5 -11 -15 881.914 276.678 1
-5 11 -12 989.104 256.23 -2
5 -11 -14 989.104 256.23 1
-5 11 -11 3070.94 251.405 -2
5 -11 -13 3070.94 251.405 1
-5 11 -10 4009.58 250.491 -2
5 -11 -12 4009.58 250.491 1
-5 11 -9 879.659 208.268 -2
5 -11 -11 879.659 208.268 1
-5 11 -8 364.403 193.922 -2
5 -11 -10 364.403 193.922 1
-5 11 -7 246.16 186.863 -2
5 -11 -9 246.16 186.863 1
-5 11 -6 913.117 177.727 -2
5 -11 -8 913.117 177.727 1
-5 11 -5 588.712 170.264 -2
5 -11 -7 588.712 170.264 1
-5 11 -4 94.5531 165.664 -2
5 -11 -6 94.5531 165.664 1
5 -11 -5 146.58 127.976 1
5 -11 3 159.596 141.044 -2
-5 11 5 159.596 141.044 1
5 -11 -4 175.96 130.568 1
5 -11 2 126.169 130.444 -2
-5 11 4 126.169 130.444 1
5 -11 -3 103.766 117.686 1
5 -11 1 377.609 132.99 -2
-5 11 3 377.609 132.99 1
5 -11 -2 691.899 123.753 1
5 -11 0 793.761 137.098 -2
-5 11 2 793.761 137.098 1
5 -11 -1 173.211 122.351 1
5 -11 -1 353.605 135.279 -2
-5 11 1 353.605 135.279 1
5 -11 0 190.059 115.109 1
5 -11 -2 555.985 137.604 -2
-5 11 0 555.985 137.604 1
5 -11 1 101.695 112.018 1
5 -11 -3 302.721 143.899 -2
-5 11 -1 302.721 143.899 1
5 -11 2 161.977 120.513 1
5 -11 -4 311.856 145.636 -2
-5 11 -2 311.856 145.636 1
5 -11 -5 328.709 106.16 -2
-5 11 -3 328.709 106.16 1
-5 11 -4 38.1207 123.495 1
5 -11 -6 215.542 147.733 -2
-5 11 -4 215.542 147.733 1
-5 11 -5 72.0433 136.952 1
5 -11 -7 229.359 153.748 -2
-5 11 -5 229.359 153.748 1
-5 11 -6 479.153 140.822 1
5 -11 -8 995.91 171.027 -2
-5 11 -6 995.91 171.027 1
-5 11 -7 130.657 137.2 1
5 -11 -9 260.274 180.869 -2
-5 11 -7 260.274 180.869 1
-5 11 -8 94.0418 148.597 1
5 -11 -10 234.192 195.182 -2
-5 11 -8 234.192 195.182 1
-5 11 -9 370.899 162.973 1
5 -11 -11 587.911 204.366 -2
-5 11 -9 587.911 204.366 1
-5 11 -10 4975.03 219.946 1
5 -11 -12 6071.48 249.437 -2
-5 11 -10 6071.48 249.437 1
5 -11 -13 3600.72 239.695 -2
-5 11 -11 3600.72 239.695 1
5 -11 -14 634.966 231.402 -2
-5 11 -12 634.966 231.402 1
5 -11 -15 1046.88 258.571 -2
-5 11 -13 1046.88 258.571 1
-5 10 -14 2058.44 200.552 -2
5 -10 -16 2058.44 200.552 1
5 -10 13 1669.8 182.822 -2
-5 10 15 1669.8 182.822 1
-5 10 -12 470.545 159.899 -2
5 -10 -14 470.545 159.899 1
-5 10 -11 1716.6 222.089 -2
5 -10 -13 1716.6 222.089 1
-5 10 -10 1107.46 201.843 -2
5 -10 -12 1107.46 201.843 1
-5 10 -9 434.481 185.411 -2
5 -10 -11 434.481 185.411 1
-5 10 -8 841.448 178.303 -2
5 -10 -10 841.448 178.303 1
-5 10 -7 340.591 165.414 -2
5 -10 -9 340.591 165.414 1
-5 10 -6 1132.11 107.643 -2
5 -10 -8 1132.11 107.643 1
-5 10 -5 889.055 101.614 -2
5 -10 -7 889.055 101.614 1
-5 10 -4 1788.99 105.872 -2
5 -10 -6 1788.99 105.872 1
-5 10 -3 182.017 92.7074 -2
5 -10 -5 182.017 92.7074 1
-5 10 -2 288.789 90.818 -2
5 -10 -4 288.789 90.818 1
-5 10 -1 281.963 91.0073 -2
5 -10 -3 281.963 91.0073 1
-5 10 0 1735.01 98.305 -2
5 -10 -2 1735.01 98.305 1
-5 10 1 442.074 91.0632 -2
5 -10 -1 442.074 91.0632 1
-5 10 2 1019.5 96.2908 -2
5 -10 0 1019.5 96.2908 1
-5 10 3 129.68 88.5725 -2
5 -10 1 129.68 88.5725 1
-5 10 4 517.45 93.2501 -2
5 -10 2 517.45 93.2501 1
-5 10 5 307.75 97.7068 -2
5 -10 3 307.75 97.7068 1
5 -10 -6 2944.02 113.417 -2
-5 10 -4 2944.02 113.417 1
5 -10 -7 917.672 105.372 -2
-5 10 -5 917.672 105.372 1
5 -10 -8 1166.48 107.803 -2
-5 10 -6 1166.48 107.803 1
5 -10 -9 475.96 110.512 -2
-5 10 -7 475.96 110.512 1
5 -10 -10 830.328 118.584 -2
-5 10 -8 830.328 118.584 1
5 -10 -11 1052.87 128.983 -2
-5 10 -9 1052.87 128.983 1
5 -10 -12 710.207 137.028 -2
-5 10 -10 710.207 137.028 1
5 -10 -13 1536.42 148.859 -2
-5 10 -11 1536.42 148.859 1
5 -10 -14 509.601 203.455 -2
-5 10 -12 509.601 203.455 1
5 -10 -15 2561.38 241.757 -2
-5 10 -13 2561.38 241.757 1
5 -10 -16 2232.13 264.607 -2
-5 10 -14 2232.13 264.607 1
5 -9 16 442.102 299.44 -2
-5 9 18 442.102 299.44 1
5 -9 15 439.456 183.052 -2
-5 9 17 439.456 183.052 1
-5 9 -14 539.116 169.695 -2
5 -9 -16 539.116 169.695 1
-5 9 -13 270.582 152.1 -2
5 -9 -15 270.582 152.1 1
5 -9 12 917.037 147.349 -2
-5 9 14 917.037 147.349 1
-5 9 -11 412.525 132.429 -2
5 -9 -13 412.525 132.429 1
-5 9 -10 357.709 124.543 -2
5 -9 -12 357.709 124.543 1
5 -9 9 132.078 114.61 -2
-5 9 11 132.078 114.61 1
-5 9 -8 523.003 161.32 -2
5 -9 -10 523.003 161.32 1
-5 9 -7 2116.24 175.806 -2
5 -9 -9 2116.24 175.806 1
-5 9 -6 284.219 143.159 -2
5 -9 -8 284.219 143.159 1
-5 9 -5 6495.33 218.192 -2
5 -9 -7 6495.33 218.192 1
-5 9 -4 129.517 83.3244 -2
5 -9 -6 129.517 83.3244 1
5 -9 3 118.613 79.0616 -2
-5 9 5 118.613 79.0616 1
-5 9 -2 277.02 83.053 -2
5 -9 -4 277.02 83.053 1
-5 9 -1 64.8747 80.3208 -2
5 -9 -3 64.8747 80.3208 1
-5 9 0 5229.07 121.739 -2
5 -9 -2 5229.07 121.739 1
-5 9 1 2149.85 100.484 -2
5 -9 -1 2149.85 100.484 1
-5 9 2 4154.91 117.255 -2
5 -9 0 4154.91 117.255 1
-5 9 3 129.546 80.5859 -2
5 -9 1 129.546 80.5859 1
-5 9 4 264.725 82.4929 -2
5 -9 2 264.725 82.4929 1
-5 9 5 171.792 86.4472 -2
5 -9 3 171.792 86.4472 1
-5 9 6 134.001 85.1073 -2
5 -9 4 134.001 85.1073 1
5 -9 -7 4379.65 128.603 -2
-5 9 -5 4379.65 128.603 1
5 -9 -8 463.158 96.3053 -2
-5 9 -6 463.158 96.3053 1
5 -9 -9 1110.05 105.652 -2
-5 9 -7 1110.05 105.652 1
5 -9 -10 265.564 103.128 -2
-5 9 -8 265.564 103.128 1
5 -9 -11 157.737 108.936 -2
-5 9 -9 157.737 108.936 1
5 -9 -12 603.763 123.515 -2
-5 9 -10 603.763 123.515 1
5 -9 -13 474.705 131.72 -2
-5 9 -11 474.705 131.72 1
5 -9 -14 804.624 198.608 -2
-5 9 -12 804.624 198.608 1
5 -9 -15 396.5 200.11 -2
-5 9 -13 396.5 200.11 1
5 -9 -16 793.815 224.401 -2
-5 9 -14 793.815 224.401 1
5 -9 -17 486.729 243.667 -2
-5 9 -15 486.729 243.667 1
5 -9 -18 416.487 263.967 -2
-5 9 -16 416.487 263.967 1
5 -8 17 370.858 207.538 -2
-5 8 19 370.858 207.538 1
5 -8 16 310.835 184.039 -2
-5 8 18 310.835 184.039 1
-5 8 -15 373.882 168.679 -2
5 -8 -17 373.882 168.679 1
-5 8 -14 1934.09 167.475 -2
5 -8 -16 1934.09 167.475 1
-5 8 -13 687.679 142.948 -2
5 -8 -15 687.679 142.948 1
-5 8 -12 1670.84 142.623 -2
5 -8 -14 1670.84 142.623 1
-5 8 -11 165.595 119.634 -2
5 -8 -13 165.595 119.634 1
5 -8 10 474.059 111.821 -2
-5 8 12 474.059 111.821 1
-5 8 -9 1271.71 113.102 -2
5 -8 -11 1271.71 113.102 1
5 -8 8 452.157 99.2965 -2
-5 8 10 452.157 99.2965 1
5 -8 7 1552.91 108.549 -2
-5 8 9 1552.91 108.549 1
-5 8 -6 6212.86 209.307 -2
5 -8 -8 6212.86 209.307 1
-5 8 -5 12162.4 255.67 -2
5 -8 -7 12162.4 255.67 1
-5 8 -4 6472.11 198.944 -2
5 -8 -6 6472.11 198.944 1
-5 8 -3 883.474 125.067 -2
5 -8 -5 883.474 125.067 1
-5 8 -2 3212.3 156.878 -2
5 -8 -4 3212.3 156.878 1
-5 8 -1 4976.47 117.257 -2
5 -8 -3 4976.47 117.257 1
-5 8 0 199.553 73.3496 -2
5 -8 -2 199.553 73.3496 1
-5 8 1 656.871 77.5224 -2
5 -8 -1 656.871 77.5224 1
-5 8 2 183.915 74.6322 -2
5 -8 0 183.915 74.6322 1
-5 8 3 2735.99 100.359 -2
5 -8 1 2735.99 100.359 1
-5 8 4 1993.18 92.5476 -2
5 -8 2 1993.18 92.5476 1
-5 8 5 850.162 85.7868 -2
5 -8 3 850.162 85.7868 1
-5 8 6 3172.17 105.229 -2
5 -8 4 3172.17 105.229 1
5 -8 -7 6012.64 134.034 -2
-5 8 -5 6012.64 134.034 1
5 -8 -8 3627.31 117.587 -2
-5 8 -6 3627.31 117.587 1
5 -8 -9 708.07 93.2893 -2
-5 8 -7 708.07 93.2893 1
5 -8 -10 431.682 96.0606 -2
-5 8 -8 431.682 96.0606 1
5 -8 -11 1304.36 110.065 -2
-5 8 -9 1304.36 110.065 1
5 -8 -12 303.253 109.688 -2
-5 8 -10 303.253 109.688 1
5 -8 -13 208.393 116.492 -2
-5 8 -11 208.393 116.492 1
5 -8 -14 2397.02 205.522 -2
-5 8 -12 2397.02 205.522 1
5 -8 -15 1008.27 190.545 -2
-5 8 -13 1008.27 190.545 1
5 -8 -16 3373.5 232.357 -2
-5 8 -14 3373.5 232.357 1
5 -8 -17 230.813 217.055 -2
-5 8 -15 230.813 217.055 1
5 -8 -18 411.392 234.644 -2
-5 8 -16 411.392 234.644 1
5 -7 17 992.52 193.234 -2
-5 7 19 992.52 193.234 1
5 -7 16 335.331 171.352 -2
-5 7 18 335.331 171.352 1
5 -7 15 146.63 158.26 -2
-5 7 17 146.63 158.26 1
-5 7 -14 259.401 139.322 -2
5 -7 -16 259.401 139.322 1
-5 7 -13 915.586 132.239 -2
5 -7 -15 915.586 132.239 1
-5 7 -12 903.713 121.297 -2
5 -7 -14 903.713 121.297 1
-5 7 -11 2001.78 121.204 -2
5 -7 -13 2001.78 121.204 1
-5 7 -10 1597.07 111.702 -2
5 -7 -12 1597.07 111.702 1
-5 7 -9 807.541 97.254 -2
5 -7 -11 807.541 97.254 1
-5 7 -8 1617.43 99.3407 -2
5 -7 -10 1617.43 99.3407 1
5 -7 7 533.376 83.4641 -2
-5 7 9 533.376 83.4641 1
5 -7 6 3665.35 101.57 -2
-5 7 8 3665.35 101.57 1
5 -7 5 1952.68 85.4497 -2
-5 7 7 1952.68 85.4497 1
-5 7 -4 202.613 105.292 -2
5 -7 -6 202.613 105.292 1
-5 7 -3 357.958 101.856 -2
5 -7 -5 357.958 101.856 1
-5 7 -2 3414.81 125.378 -2
5 -7 -4 3414.81 125.378 1
-5 7 -1 779.297 103.348 -2
5 -7 -3 779.297 103.348 1
-5 7 0 4196.07 90.1472 -2
5 -7 -2 4196.07 90.1472 1
5 -7 -1 47.4397 65.1571 -2
-5 7 1 47.4397 65.1571 1
-5 7 2 3001.04 85.1267 -2
5 -7 0 3001.04 85.1267 1
-5 7 3 891.424 71.5636 -2
5 -7 1 891.424 71.5636 1
-5 7 4 6014.82 100.275 -2
5 -7 2 6014.82 100.275 1
-5 7 5 617.409 72.9604 -2
5 -7 3 617.409 72.9604 1
5 -7 -6 316.541 102.874 -2
-5 7 -4 316.541 102.874 1
5 -7 -7 1799.76 86.2873 -2
-5 7 -5 1799.76 86.2873 1
5 -7 -8 2863.72 95.5544 -2
-5 7 -6 2863.72 95.5544 1
5 -7 -9 404.949 82.8977 -2
-5 7 -7 404.949 82.8977 1
5 -7 -10 2617.79 99.145 -2
-5 7 -8 2617.79 99.145 1
5 -7 -11 1284.8 96.7462 -2
-5 7 -9 1284.8 96.7462 1
5 -7 -12 1128.43 104.796 -2
-5 7 -10 1128.43 104.796 1
-5 7 -11 193.703 127.248 1
5 -7 -13 1325.24 165.141 -2
-5 7 -11 1325.24 165.141 1
5 -7 -14 1370.44 180.438 -2
-5 7 -12 1370.44 180.438 1
5 -7 -15 470.614 171.591 -2
-5 7 -13 470.614 171.591 1
5 -7 -16 336.955 176.647 -2
-5 7 -14 336.955 176.647 1
5 -7 -17 180.372 196.992 -2
-5 7 -15 180.372 196.992 1
5 -7 -18 367.267 218.766 -2
-5 7 -16 367.267 218.766 1
5 -7 -19 1000.83 247.638 -2
-5 7 -17 1000.83 247.638 1
-5 6 20 908.385 221.542 1
-5 6 -18 1442.8 283.943 -2
5 -6 -20 1442.8 283.943 1
-5 6 -17 1488.24 179.633 -2
5 -6 -19 1488.24 179.633 1
5 -6 16 452.59 155.853 -2
-5 6 18 452.59 155.853 1
5 -6 15 295.956 139.68 -2
-5 6 17 295.956 139.68 1
5 -6 14 811.168 129.247 -2
-5 6 16 811.168 129.247 1
-5 6 -13 561.045 116.259 -2
5 -6 -15 561.045 116.259 1
5 -6 -14 46.1491 116.523 1
5 -6 12 212.765 149.629 -2
-5 6 14 212.765 149.629 1
-5 6 -11 1307.72 105.458 -2
5 -6 -13 1307.72 105.458 1
5 -6 -12 261.296 105.917 1
5 -6 10 729.227 131.192 -2
-5 6 12 729.227 131.192 1
-5 6 -9 296.625 85.4451 -2
5 -6 -11 296.625 85.4451 1
5 -6 8 100.476 79.4404 -2
-5 6 10 100.476 79.4404 1
5 -6 -9 183.755 89.7595 1
5 -6 7 960.906 109.084 -2
-5 6 9 960.906 109.084 1
5 -6 -8 2066.4 104.481 1
5 -6 6 2004.36 110.708 -2
-5 6 8 2004.36 110.708 1
5 -6 -7 234.27 83.3365 1
5 -6 5 456.108 91.9767 -2
-5 6 7 456.108 91.9767 1
-5 6 6 106.381 49.4544 1
5 -6 -5 39.884 73.3434 1
5 -6 -4 3439.78 108.128 1
5 -6 -3 1986.09 91.5088 1
5 -6 -2 978.419 80.5714 1
5 -6 -1 2.70386 47.3346 1
-5 6 0 1196.8 58.2306 1
-5 6 -1 24.3036 48.3177 1
-5 6 -2 57311.2 235.776 1
5 -6 3 12.668 50.3506 1
-5 6 -4 4200.47 84.5999 1
-5 6 -5 475.329 60.9508 1
-5 6 -6 200.929 58.2498 1
-5 6 -7 2035.2 78.4154 1
-5 6 -8 52.8136 64.9674 1
-5 6 -9 46.4228 67.587 1
-5 6 -10 597.43 78.2358 1
-5 6 -11 669.116 130.242 1
-5 6 -12 100.724 125.467 1
-5 6 -13 824.874 146.214 1
-5 6 -14 1069.44 150.522 1
-5 6 -15 105.335 160.375 1
-5 6 -16 484.782 180.745 1
-5 6 -17 246.002 197.872 1
-5 6 -18 366.237 216.084 1
-5 5 21 74.7717 157.209 1
-5 5 20 703.489 139.08 1
-5 5 19 456.592 125.157 1
-5 5 18 124.696 110.336 1
-5 5 17 146.387 99.6023 1
-5 5 16 110.122 129.231 1
-5 5 -13 359.959 156.806 -2
5 -5 -16 359.959 156.806 1
-5 5 15 -5.95125 115.568 1
-5 5 -12 289.675 144.624 -2
5 -5 -15 289.675 144.624 1
-5 5 14 328.389 109.325 1
-5 5 -11 477.444 136.681 -2
5 -5 -14 477.444 136.681 1
-5 5 -10 803.524 91.4606 -2
5 -5 -13 803.524 91.4606 1
-5 5 12 50.2695 90.9622 1
-5 5 -9 168.624 118.41 -2
5 -5 -12 168.624 118.41 1
-5 5 -8 222.857 75.9487 -2
5 -5 -11 222.857 75.9487 1
-5 5 10 666.19 83.5407 1
-5 5 -7 825.971 110.287 -2
5 -5 -10 825.971 110.287 1
-5 5 9 3429.6 104.538 1
-5 5 -6 3348.92 121.55 -2
5 -5 -9 3348.92 121.55 1
5 -5 5 1884.68 70.93 -2
-5 5 8 1884.68 70.93 1
-5 5 7 518.697 68.8259 1
-5 5 -4 1439.8 102.152 -2
5 -5 -7 1439.8 102.152 1
-5 5 6 1240.93 70.0442 1
-5 5 -3 1322.43 94.9087 -2
5 -5 -6 1322.43 94.9087 1
5 -5 -5 202.053 69.0431 1
5 -5 -4 4257.27 107.19 1
5 -5 -3 6718.84 122.342 1
5 -5 -2 2095.51 83.1584 1
5 -5 -1 1554.04 80.8699 1
-5 5 0 5350.88 79.0633 1
-5 5 -1 18909.7 130.986 1
-5 5 -2 2804.2 66.9792 1
5 -5 3 360.556 40.0494 1
-5 5 -4 1933.87 65.5916 1
-5 5 -5 1585.78 63.8773 1
-5 5 -6 44.8618 51.9857 1
-5 5 -7 585.794 62.6257 1
-5 5 -8 29.3575 60.2826 1
-5 5 -9 45.3777 63.0987 1
-5 5 -10 392.253 74.6357 1
-5 5 -11 53.8909 112.734 1
-5 5 -12 414.529 124.544 1
-5 5 -13 431.495 133.324 1
-5 5 -14 1628.32 146.229 1
-5 5 -15 1157.12 163.223 1
5 -5 -19 1003.65 205.163 -2
-5 5 -16 1003.65 205.163 1
-5 5 -17 820.341 195.639 1
-5 5 -18 219.307 203.109 1
-5 4 -19 590.965 219.141 -2
5 -4 -22 590.965 219.141 1
5 -4 18 539.594 185.622 -2
-5 4 21 539.594 185.622 1
5 -4 17 383.978 163.433 -2
-5 4 20 383.978 163.433 1
-5 4 -16 535.572 146.992 -2
5 -4 -19 535.572 146.992 1
-5 4 -15 644.589 131.097 -2
5 -4 -18 644.589 131.097 1
5 -4 14 1663.58 124.841 -2
-5 4 17 1663.58 124.841 1
-5 4 -13 2350.04 119.359 -2
5 -4 -16 2350.04 119.359 1
5 -4 12 515.925 98.9134 -2
-5 4 15 515.925 98.9134 1
5 -4 11 2979.79 106.789 -2
-5 4 14 2979.79 106.789 1
-5 4 -10 2792.95 100.687 -2
5 -4 -13 2792.95 100.687 1
-5 4 -9 1081.98 81.5599 -2
5 -4 -12 1081.98 81.5599 1
5 -4 8 2627.25 86.1415 -2
-5 4 11 2627.25 86.1415 1
5 -4 7 2809.61 81.1265 -2
-5 4 10 2809.61 81.1265 1
5 -4 6 2010.22 71.4593 -2
-5 4 9 2010.22 71.4593 1
5 -4 5 975.796 60.6623 -2
-5 4 8 975.796 60.6623 1
5 -4 4 2053.96 63.1349 -2
-5 4 7 2053.96 63.1349 1
5 -4 3 3569.55 66.4308 -2
-5 4 6 3569.55 66.4308 1
5 -4 2 17455.7 100.819 -2
-5 4 5 17455.7 100.819 1
-5 4 -1 2801.07 97.1019 -2
5 -4 -4 2801.07 97.1019 1
-5 4 0 2120.68 92.3682 -2
5 -4 -3 2120.68 92.3682 1
-5 4 1 1412.05 80.7816 -2
5 -4 -2 1412.05 80.7816 1
-5 4 2 2722.23 94.7308 -2
5 -4 -1 2722.23 94.7308 1
-5 4 3 3438.81 95.6391 -2
5 -4 0 3438.81 95.6391 1
-5 4 4 4858.2 77.4412 -2
5 -4 1 4858.2 77.4412 1
-5 4 -2 33653.8 165.933 1
-5 4 -3 6474.11 123.759 1
5 -4 -6 5938.12 119.071 -2
-5 4 -3 5938.12 119.071 1
5 -4 -7 2511.33 72.2676 -2
-5 4 -4 2511.33 72.2676 1
5 -4 -8 1477.39 68.6755 -2
-5 4 -5 1477.39 68.6755 1
5 -4 -9 2117.07 76.7095 -2
-5 4 -6 2117.07 76.7095 1
5 -4 -10 1919.95 80.474 -2
-5 4 -7 1919.95 80.474 1
5 -4 -11 2332.38 86.1449 -2
-5 4 -8 2332.38 86.1449 1
5 -4 -12 1858.9 87.7817 -2
-5 4 -9 1858.9 87.7817 1
5 -4 -13 1445 127.684 -2
-5 4 -10 1445 127.684 1
5 -4 -14 1892.19 148.387 -2
-5 4 -11 1892.19 148.387 1
5 -4 -15 735.042 147.58 -2
-5 4 -12 735.042 147.58 1
5 -4 -16 1884.91 166.366 -2
-5 4 -13 1884.91 166.366 1
5 -4 -17 2326.97 174.666 -2
-5 4 -14 2326.97 174.666 1
5 -4 -18 789.453 178.129 -2
-5 4 -15 789.453 178.129 1
5 -4 -19 280.827 194.561 -2
-5 4 -16 280.827 194.561 1
5 -4 -20 377.205 209.137 -2
-5 4 -17 377.205 209.137 1
5 -4 -21 447.554 243.76 -2
-5 4 -18 447.554 243.76 1
5 -4 -22 323.416 284.418 -2
-5 4 -19 323.416 284.418 1
5 -3 19 289.968 301.391 -2
-5 3 22 289.968 301.391 1
5 -3 18 830.629 182.155 -2
-5 3 21 830.629 182.155 1
5 -3 17 525.346 157.199 -2
-5 3 20 525.346 157.199 1
-5 3 -16 472.214 138.245 -2
5 -3 -19 472.214 138.245 1
5 -3 15 405.139 122.709 -2
-5 3 18 405.139 122.709 1
5 -3 14 2021.38 126.047 -2
-5 3 17 2021.38 126.047 1
5 -3 13 4648.15 136.074 -2
-5 3 16 4648.15 136.074 1
-5 3 -12 3079.81 115.647 -2
5 -3 -15 3079.81 115.647 1
-5 3 -11 1931.93 99.7129 -2
5 -3 -14 1931.93 99.7129 1
-5 3 -10 547.419 79.5012 -2
5 -3 -13 547.419 79.5012 1
5 -3 9 1367.72 83.5075 -2
-5 3 12 1367.72 83.5075 1
5 -3 8 2139.03 84.2234 -2
-5 3 11 2139.03 84.2234 1
-5 3 -7 2278.29 80.6452 -2
5 -3 -10 2278.29 80.6452 1
5 -3 6 2321.1 76.3611 -2
-5 3 9 2321.1 76.3611 1
-5 3 -5 394.928 53.9685 -2
5 -3 -8 394.928 53.9685 1
5 -3 4 739.922 54.059 -2
-5 3 7 739.922 54.059 1
-5 3 -3 584.364 48.2524 -2
5 -3 -6 584.364 48.2524 1
-5 3 -2 7008.06 81.7077 -2
5 -3 -5 7008.06 81.7077 1
-5 3 -1 2885.42 105.036 -2
5 -3 -4 2885.42 105.036 1
-5 3 0 2237.49 94.2116 -2
5 -3 -3 2237.49 94.2116 1
-5 3 1 2119.69 94.0852 -2
5 -3 -2 2119.69 94.0852 1
-5 3 2 1508.29 88.3942 -2
5 -3 -1 1508.29 88.3942 1
-5 3 3 2628.59 103.828 -2
5 -3 0 2628.59 103.828 1
-5 3 4 1706.46 95.004 -2
5 -3 1 1706.46 95.004 1
5 -3 -5 8246.58 108.012 -2
-5 3 -2 8246.58 108.012 1
5 -3 -6 642.632 60.5781 -2
-5 3 -3 642.632 60.5781 1
5 -3 -7 523.003 61.4167 -2
-5 3 -4 523.003 61.4167 1
5 -3 -8 278.086 60.8274 -2
-5 3 -5 278.086 60.8274 1
5 -3 -9 4070.42 97.6015 -2
-5 3 -6 4070.42 97.6015 1
5 -3 -10 3748.74 99.5787 -2
-5 3 -7 3748.74 99.5787 1
5 -3 -11 1439.52 85.9417 -2
-5 3 -8 1439.52 85.9417 1
5 -3 -12 1946.51 126.891 -2
-5 3 -9 1946.51 126.891 1
5 -3 -13 469.56 114.917 -2
-5 3 -10 469.56 114.917 1
5 -3 -14 919.5 139.39 -2
-5 3 -11 919.5 139.39 1
5 -3 -15 1823.12 159.104 -2
-5 3 -12 1823.12 159.104 1
5 -3 -16 2368 172.526 -2
-5 3 -13 2368 172.526 1
5 -3 -17 990.37 164.789 -2
-5 3 -14 990.37 164.789 1
5 -3 -18 257.359 172.238 -2
-5 3 -15 257.359 172.238 1
5 -3 -19 671.625 192.267 -2
-5 3 -16 671.625 192.267 1
5 -3 -20 395.692 205.963 -2
-5 3 -17 395.692 205.963 1
5 -3 -21 475.924 238.151 -2
-5 3 -18 475.924 238.151 1
5 -3 -22 236.162 277.758 -2
-5 3 -19 236.162 277.758 1
5 -2 19 528.211 294.758 -2
-5 2 22 528.211 294.758 1
5 -2 18 1019.6 260.016 -2
-5 2 21 1019.6 260.016 1
-5 2 -17 435.19 151.254 -2
5 -2 -20 435.19 151.254 1
-5 2 -16 216.774 176.007 -2
5 -2 -19 216.774 176.007 1
-5 2 -15 197.097 156.079 -2
5 -2 -18 197.097 156.079 1
-5 2 -14 268.849 140.949 -2
5 -2 -17 268.849 140.949 1
-5 2 -13 857.791 135.383 -2
5 -2 -16 857.791 135.383 1
-5 2 -12 3171.03 152.581 -2
5 -2 -15 3171.03 152.581 1
-5 2 -11 2483.96 132.658 -2
5 -2 -14 2483.96 132.658 1
-5 2 -10 265.089 102.812 -2
5 -2 -13 265.089 102.812 1
-5 2 -9 1214.1 105.457 -2
5 -2 -12 1214.1 105.457 1
-5 2 -8 278.709 89.125 -2
5 -2 -11 278.709 89.125 1
-5 2 -7 2834.64 115.914 -2
5 -2 -10 2834.64 115.914 1
-5 2 -6 2339.32 102.774 -2
5 -2 -9 2339.32 102.774 1
-5 2 -5 7898.56 96.7149 -2
5 -2 -8 7898.56 96.7149 1
5 -2 4 766.862 51.2297 -2
-5 2 7 766.862 51.2297 1
5 -2 3 1927.83 52.3906 -2
-5 2 6 1927.83 52.3906 1
5 -2 2 10815.7 85.2338 -2
-5 2 5 10815.7 85.2338 1
-5 2 -1 11479.9 163.316 -2
5 -2 -4 11479.9 163.316 1
-5 2 0 4591.05 109.467 -2
5 -2 -3 4591.05 109.467 1
-5 2 1 3887.17 106.162 -2
5 -2 -2 3887.17 106.162 1
-5 2 2 5094.9 45.8614 -2
5 -2 -1 5094.9 45.8614 1
-5 2 3 3014.93 45.5362 -2
5 -2 0 3014.93 45.5362 1
5 -2 -4 5976.53 122.007 -2
-5 2 -1 5976.53 122.007 1
5 -2 -5 11681.1 118.462 -2
-5 2 -2 11681.1 118.462 1
5 -2 -6 2578.72 72.058 -2
-5 2 -3 2578.72 72.058 1
5 -2 -7 630.294 59.5325 -2
-5 2 -4 630.294 59.5325 1
5 -2 -8 4552.79 94.2804 -2
-5 2 -5 4552.79 94.2804 1
5 -2 -9 1371.09 72.3911 -2
-5 2 -6 1371.09 72.3911 1
5 -2 -10 1943.08 82.2009 -2
-5 2 -7 1943.08 82.2009 1
5 -2 -11 436.351 99.7621 -2
-5 2 -8 436.351 99.7621 1
5 -2 -12 665.153 103.686 -2
-5 2 -9 665.153 103.686 1
5 -2 -13 274.718 108.773 -2
-5 2 -10 274.718 108.773 1
5 -2 -14 1702.05 144.89 -2
-5 2 -11 1702.05 144.89 1
5 -2 -15 2360.32 158.798 -2
-5 2 -12 2360.32 158.798 1
5 -2 -16 1040.86 145.248 -2
-5 2 -13 1040.86 145.248 1
5 -2 -17 319.488 147.531 -2
-5 2 -14 319.488 147.531 1
5 -2 -18 302.682 163.517 -2
-5 2 -15 302.682 163.517 1
5 -2 -19 290.031 179.296 -2
-5 2 -16 290.031 179.296 1
5 -2 -20 241.985 202.564 -2
-5 2 -17 241.985 202.564 1
5 -2 -21 864.064 241.892 -2
-5 2 -18 864.064 241.892 1
5 -2 -22 518.814 270.076 -2
-5 2 -19 518.814 270.076 1
-5 1 -17 165.68 208.708 -2
5 -1 -20 165.68 208.708 1
-5 1 -16 868.016 132.176 -2
5 -1 -19 868.016 132.176 1
-5 1 -15 283.254 114.31 -2
5 -1 -18 283.254 114.31 1
-5 1 -14 207.672 102.091 -2
5 -1 -17 207.672 102.091 1
-5 1 -13 409.016 93.4022 -2
5 -1 -16 409.016 93.4022 1
-5 1 -12 3936.59 106.565 -2
5 -1 -15 3936.59 106.565 1
-5 1 -11 1684.1 87.2235 -2
5 -1 -14 1684.1 87.2235 1
-5 1 -10 717.987 74.5662 -2
5 -1 -13 717.987 74.5662 1
-5 1 -9 1511.96 74.4456 -2
5 -1 -12 1511.96 74.4456 1
-5 1 -8 6655.34 93.6473 -2
5 -1 -11 6655.34 93.6473 1
5 -1 -10 1863.48 43.2365 1
-5 1 -7 2254.74 88.8606 -2
5 -1 -10 2254.74 88.8606 1
-5 1 -6 8458.26 116.204 -2
5 -1 -9 8458.26 116.204 1
-5 1 -5 938.008 71.2496 -2
5 -1 -8 938.008 71.2496 1
-5 1 -4 3434.16 81.9153 -2
5 -1 -7 3434.16 81.9153 1
-5 1 -3 4202.79 50.1413 -2
5 -1 -6 4202.79 50.1413 1
-5 1 5 965.757 32.088 1
-5 1 -2 1133.39 65.1147 -2
5 -1 -5 1133.39 65.1147 1
-5 1 -1 10987.7 111.055 -2
5 -1 -4 10987.7 111.055 1
-5 1 0 8780.17 104.228 -2
5 -1 -3 8780.17 104.228 1
-5 1 1 5839.53 91.4763 -2
5 -1 -2 5839.53 91.4763 1
5 -1 -1 7406.91 98.1631 1
-5 1 0 2316.68 71.3632 1
-5 1 -1 539.141 58.8236 1
-5 1 -2 137.289 36.4972 1
-5 1 -3 262.822 40.2632 1
-5 1 -4 2056.23 80.9267 1
5 -1 -7 2950.17 90.0858 -2
-5 1 -4 2950.17 90.0858 1
5 -1 -8 1612.22 62.9714 -2
-5 1 -5 1612.22 62.9714 1
-5 1 -6 5320.06 119.888 1
5 -1 -9 8103.21 128.958 -2
-5 1 -6 8103.21 128.958 1
5 -1 -10 1571.1 94.6832 -2
-5 1 -7 1571.1 94.6832 1
5 -1 -11 3868.79 116.785 -2
-5 1 -8 3868.79 116.785 1
5 -1 -12 921.325 102.236 -2
-5 1 -9 921.325 102.236 1
5 -1 -13 971.652 114.748 -2
-5 1 -10 971.652 114.748 1
5 -1 -14 1221.33 127.157 -2
-5 1 -11 1221.33 127.157 1
5 -1 -15 6999.12 171.848 -2
-5 1 -12 6999.12 171.848 1
5 -1 -16 395.162 130.384 -2
-5 1 -13 395.162 130.384 1
5 -1 14 185.467 107.877 1
5 -1 -17 344.001 144.163 -2
-5 1 -14 344.001 144.163 1
5 -1 -18 323.405 159.616 -2
-5 1 -15 323.405 159.616 1
5 -1 -19 1107.04 179.836 -2
-5 1 -16 1107.04 179.836 1
5 -1 -20 409.319 204.524 -2
-5 1 -17 409.319 204.524 1
5 -1 -21 1019.56 237.252 -2
-5 1 -18 1019.56 237.252 1
5 0 -22 -16.348 207.144 1
5 0 -21 118.689 191.515 1
5 0 -20 122.418 178.279 1
5 0 -19 99.1695 160.712 1
5 0 -18 109.901 146.478 1
5 0 -17 38.7412 80.6934 1
5 0 -16 1577.72 83.2356 1
5 0 -15 50.1872 65.2673 1
5 0 -14 250.575 62.1471 1
5 0 -13 275.22 57.2009 1
5 0 -12 287.952 52.8126 1
5 0 -11 2652.11 66.2915 1
5 0 -10 8803.79 55.9398 1
5 0 -9 28459.3 100.962 1
5 0 -8 2173.75 65.0766 1
5 0 -7 1585.16 58.515 1
5 0 -6 145.64 43.3484 1
5 0 -5 -9.6449 39.4243 1
5 0 -4 360.101 40.6224 1
5 0 -3 54.031 40.2316 1
5 0 -2 2593.52 60.2153 1
-5 0 1 891.476 56.128 1
-5 0 0 1723.56 62.3277 1
-5 0 -1 3664.05 35.0369 1
-5 0 -2 580.917 39.2649 1
-5 0 -3 497.799 43.3341 1
-5 0 -4 3890.53 64.7958 1
-5 0 -5 7932.19 116.011 1
-5 0 -6 10709.7 137.299 1
-5 0 -7 8634.63 130.672 1
-5 0 -8 299.822 69.4512 1
-5 0 -9 697.333 82.4549 1
-5 0 -10 432.241 89.9425 1
-5 0 -11 12552.8 186.408 1
5 0 12 152.476 65.8369 1
-5 0 -13 1156.12 81.4446 1
5 0 14 554.193 86.2434 1
-5 0 -15 136.224 132.977 1
-5 0 -16 598.213 154.341 1
-5 0 -17 431.263 166.293 1
5 1 -22 220.387 228.098 1
5 1 -21 285.779 204.024 1
5 1 -20 380.947 177.23 1
5 1 -19 1359.14 173.979 1
5 1 -18 3.11158 136.209 1
5 1 -17 9.65438 121.587 1
5 1 -16 607.784 121.305 1
5 1 -15 86.6342 105.117 1
-5 -1 -11 194.278 96.4627 -2
5 1 -15 194.278 96.4627 1
5 1 -14 60.8631 95.3035 1
-5 -1 -10 180.422 87.223 -2
5 1 -14 180.422 87.223 1
5 1 -13 88.7356 88.077 1
-5 -1 -9 275.455 77.9629 -2
5 1 -13 275.455 77.9629 1
-5 -1 -8 2078.89 67.1264 -2
5 1 -12 2078.89 67.1264 1
5 1 -11 2636.88 32.3906 1
5 1 -10 7012.27 52.3738 1
5 1 -9 869.198 34.333 1
-5 -1 -5 8404.26 140.318 -2
5 1 -9 8404.26 140.318 1
5 1 -8 1038.14 31.4615 1
5 1 -7 163.058 28.5761 1
5 1 -6 5470.22 55.0975 1
5 1 -5 3847.83 62.9255 1
-5 -1 4 1888.52 24.8718 1
-5 -1 3 29.0961 39.7494 1
-5 -1 2 3898.45 69.1865 1
-5 -1 1 2877.37 65.3782 1
-5 -1 0 2829.91 69.661 1
5 1 1 7593.24 52.7266 1
-5 -1 -2 363.712 26.0669 1
5 1 3 2102.03 42.8234 1
-5 -1 -4 1706.8 68.6217 1
-5 -1 -5 13736.2 136.992 1
-5 -1 -6 24960.8 188.237 1
-5 -1 -7 8240.13 121.675 1
-5 -1 -8 108.723 65.0307 1
5 1 9 149.52 55.2169 1
5 1 10 52.4443 57.1166 1
-5 -1 -11 62.61 58.9516 1
5 1 12 1538.26 79.9296 1
-5 -1 -13 1939.4 88.0515 1
-5 -1 -14 72.824 81.068 1
-5 -1 -15 563.312 141.997 1
-5 -2 -18 1070.09 273.859 -2
5 2 -22 1070.09 273.859 1
-5 -2 -17 3135.78 257.775 -2
5 2 -21 3135.78 257.775 1
-5 -2 -16 6982.73 260.285 -2
5 2 -20 6982.73 260.285 1
-5 -2 -15 391.32 183.538 -2
5 2 -19 391.32 183.538 1
-5 -2 -14 476.727 167.529 -2
5 2 -18 476.727 167.529 1
-5 -2 -13 197.235 150.601 -2
5 2 -17 197.235 150.601 1
-5 -2 -12 363.869 143.529 -2
5 2 -16 363.869 143.529 1
-5 -2 -11 530.143 131.83 -2
5 2 -15 530.143 131.83 1
-5 -2 -10 119.715 118.688 -2
5 2 -14 119.715 118.688 1
-5 -2 -9 813.254 65.4754 -2
5 2 -13 813.254 65.4754 1
-5 -2 -8 1846.83 64.2596 -2
5 2 -12 1846.83 64.2596 1
-5 -2 -7 2687.27 42.2787 -2
5 2 -11 2687.27 42.2787 1
-5 -2 -6 4501.48 47.9314 -2
5 2 -10 4501.48 47.9314 1
-5 -2 -5 2496.13 39.7163 -2
5 2 -9 2496.13 39.7163 1
-5 -2 -4 605.442 31.7336 -2
5 2 -8 605.442 31.7336 1
-5 -2 -3 1455.12 35.1066 -2
5 2 -7 1455.12 35.1066 1
-5 -2 -2 13263.2 70.6668 -2
5 2 -6 13263.2 70.6668 1
5 2 1 5857.69 54.7449 -2
-5 -2 5 5857.69 54.7449 1
-5 -2 0 11291.9 72.2381 -2
5 2 -4 11291.9 72.2381 1
5 2 -1 4028.24 38.0046 -2
-5 -2 3 4028.24 38.0046 1
-5 -2 2 205.546 41.5369 -2
5 2 -2 205.546 41.5369 1
-5 -2 3 6444.22 71.1524 -2
5 2 -1 6444.22 71.1524 1
-5 -2 4 19127.3 184.679 -2
5 2 0 19127.3 184.679 1
-5 -2 5 4741.51 65.4004 -2
5 2 1 4741.51 65.4004 1
-5 -2 -2 96.6188 47.7202 1
-5 -2 6 7931.16 85.3282 -2
5 2 2 7931.16 85.3282 1
-5 -2 -3 1003.36 57.0488 1
-5 -2 7 1598.24 54.1188 -2
5 2 3 1598.24 54.1188 1
-5 -2 8 389.637 40.3946 -2
5 2 4 389.637 40.3946 1
-5 -2 9 1628.41 49.199 -2
5 2 5 1628.41 49.199 1
5 2 -10 3701.1 61.0102 -2
-5 -2 -6 3701.1 61.0102 1
-5 -2 11 2380.23 58.8272 -2
5 2 7 2380.23 58.8272 1
-5 -2 12 1224.9 72.8648 -2
5 2 8 1224.9 72.8648 1
5 2 -13 619.83 70.9133 -2
-5 -2 -9 619.83 70.9133 1
5 2 -14 237.469 72.8755 -2
-5 -2 -10 237.469 72.8755 1
5 2 -15 706.414 83.896 -2
-5 -2 -11 706.414 83.896 1
-5 -2 16 312.274 86.8527 -2
5 2 12 312.274 86.8527 1
-5 -2 17 340.789 132.302 -2
5 2 13 340.789 132.302 1
-5 -2 18 640.302 113.335 -2
5 2 14 640.302 113.335 1
-5 -2 19 878.599 194.646 -2
5 2 15 878.599 194.646 1
-5 -2 20 13913.7 303.963 -2
5 2 16 13913.7 303.963 1
-5 -2 21 4716.26 281.767 -2
5 2 17 4716.26 281.767 1
-5 -2 22 773.385 286.089 -2
5 2 18 773.385 286.089 1
-5 -3 -18 1577.35 286.527 -2
5 3 -22 1577.35 286.527 1
-5 -3 -17 257.178 236.945 -2
5 3 -21 257.178 236.945 1
-5 -3 -16 579.305 217.963 -2
5 3 -20 579.305 217.963 1
-5 -3 -15 3867.72 241.75 -2
5 3 -19 3867.72 241.75 1
-5 -3 -14 841.379 183.277 -2
5 3 -18 841.379 183.277 1
-5 -3 -13 588.242 164.294 -2
5 3 -17 588.242 164.294 1
-5 -3 -12 242.083 145.046 -2
5 3 -16 242.083 145.046 1
-5 -3 -11 488.005 140.078 -2
5 3 -15 488.005 140.078 1
-5 -3 -10 1711.93 147.658 -2
5 3 -14 1711.93 147.658 1
-5 -3 -9 5697.26 183.483 -2
5 3 -13 5697.26 183.483 1
-5 -3 -8 10066 213.938 -2
5 3 -12 10066 213.938 1
-5 -3 -7 3558.13 73.7362 -2
5 3 -11 3558.13 73.7362 1
-5 -3 -6 554.717 55.1235 -2
5 3 -10 554.717 55.1235 1
-5 -3 -5 885.877 56.5788 -2
5 3 -9 885.877 56.5788 1
-5 -3 -4 1198.6 59.1669 -2
5 3 -8 1198.6 59.1669 1
-5 -3 -3 736.062 55.9787 -2
5 3 -7 736.062 55.9787 1
-5 -3 -2 14971.2 129.773 -2
5 3 -6 14971.2 129.773 1
-5 -3 -1 4850.63 116.068 -2
5 3 -5 4850.63 116.068 1
-5 -3 0 6725.94 70.3958 -2
5 3 -4 6725.94 70.3958 1
-5 -3 1 196.367 72.4731 -2
5 3 -3 196.367 72.4731 1
-5 -3 2 99.5277 71.0097 -2
5 3 -2 99.5277 71.0097 1
-5 -3 3 320.036 77.5485 -2
5 3 -1 320.036 77.5485 1
-5 -3 4 3808.36 123.704 -2
5 3 0 3808.36 123.704 1
-5 -3 5 5150.47 140.307 -2
5 3 1 5150.47 140.307 1
-5 -3 6 9349.89 79.9875 -2
5 3 2 9349.89 79.9875 1
-5 -3 7 488.188 42.2062 -2
5 3 3 488.188 42.2062 1
-5 -3 8 1821.7 52.0337 -2
5 3 4 1821.7 52.0337 1
-5 -3 9 1101.36 50.7257 -2
5 3 5 1101.36 50.7257 1
5 3 -10 591.999 49.5434 -2
-5 -3 -6 591.999 49.5434 1
-5 -3 11 2576.16 68.0625 -2
5 3 7 2576.16 68.0625 1
-5 -3 12 6420.43 89.4823 -2
5 3 8 6420.43 89.4823 1
-5 -3 13 4436.18 84.9997 -2
5 3 9 4436.18 84.9997 1
-5 -3 14 2150.87 77.5167 -2
5 3 10 2150.87 77.5167 1
-5 -3 15 465.047 91.7417 -2
5 3 11 465.047 91.7417 1
-5 -3 16 105.924 96.8003 -2
5 3 12 105.924 96.8003 1
-5 -3 17 718.756 113.429 -2
5 3 13 718.756 113.429 1
-5 -3 18 1248.41 130.052 -2
5 3 14 1248.41 130.052 1
-5 -3 19 6972.75 275.629 -2
5 3 15 6972.75 275.629 1
-5 -3 20 710.634 236.53 -2
5 3 16 710.634 236.53 1
-5 -3 21 367.49 260.385 -2
5 3 17 367.49 260.385 1
-5 -3 22 1105.81 311.857 -2
5 3 18 1105.81 311.857 1
-5 -4 -17 1661.78 266.727 -2
5 4 -21 1661.78 266.727 1
-5 -4 -16 2636.17 254.471 -2
5 4 -20 2636.17 254.471 1
-5 -4 -15 940.485 211.889 -2
5 4 -19 940.485 211.889 1
-5 -4 -14 868.03 191.576 -2
5 4 -18 868.03 191.576 1
-5 -4 -13 782.953 174.549 -2
5 4 -17 782.953 174.549 1
-5 -4 -12 285.46 153.211 -2
5 4 -16 285.46 153.211 1
-5 -4 -11 927.035 154.272 -2
5 4 -15 927.035 154.272 1
-5 -4 -10 1494.49 154.15 -2
5 4 -14 1494.49 154.15 1
-5 -4 -9 2797.5 158.994 -2
5 4 -13 2797.5 158.994 1
-5 -4 -8 7721.99 201.081 -2
5 4 -12 7721.99 201.081 1
-5 -4 -7 3093.19 76.782 -2
5 4 -11 3093.19 76.782 1
-5 -4 -6 386.809 56.5918 -2
5 4 -10 386.809 56.5918 1
-5 -4 -5 355.282 56.5872 -2
5 4 -9 355.282 56.5872 1
-5 -4 -4 626.727 58.7436 -2
5 4 -8 626.727 58.7436 1
-5 -4 -3 2216.09 71.8865 -2
5 4 -7 2216.09 71.8865 1
-5 -4 -2 1082.25 59.5356 -2
5 4 -6 1082.25 59.5356 1
-5 -4 -1 1689.66 92.866 -2
5 4 -5 1689.66 92.866 1
-5 -4 4 507.114 19.2276 1
-5 -4 0 3105.41 109.815 -2
5 4 -4 3105.41 109.815 1
-5 -4 1 657.876 81.5637 -2
5 4 -3 657.876 81.5637 1
-5 -4 2 1432.42 92.1498 -2
5 4 -2 1432.42 92.1498 1
-5 -4 3 955.666 87.0106 -2
5 4 -1 955.666 87.0106 1
-5 -4 4 5477.84 138.383 -2
5 4 0 5477.84 138.383 1
-5 -4 5 2706.93 116.995 -2
5 4 1 2706.93 116.995 1
-5 -4 6 1744.37 47.5989 -2
5 4 2 1744.37 47.5989 1
-5 -4 7 4153.02 59.7573 -2
5 4 3 4153.02 59.7573 1
5 4 -8 639.617 43.1707 -2
-5 -4 -4 639.617 43.1707 1
-5 -4 9 575.506 45.2037 -2
5 4 5 575.506 45.2037 1
-5 -4 10 783.509 47.3615 -2
5 4 6 783.509 47.3615 1
-5 -4 11 1584.12 84.3766 -2
5 4 7 1584.12 84.3766 1
-5 -4 12 5187.56 114.856 -2
5 4 8 5187.56 114.856 1
-5 -4 13 2606.1 103.16 -2
5 4 9 2606.1 103.16 1
-5 -4 14 2130.86 106.065 -2
5 4 10 2130.86 106.065 1
-5 -4 15 627.531 100.336 -2
5 4 11 627.531 100.336 1
-5 -4 16 89.5841 106.337 -2
5 4 12 89.5841 106.337 1
-5 -4 17 561.795 115.557 -2
5 4 13 561.795 115.557 1
-5 -4 18 785.311 130.68 -2
5 4 14 785.311 130.68 1
-5 -4 19 1142.97 224.003 -2
5 4 15 1142.97 224.003 1
-5 -4 20 2416.95 258.033 -2
5 4 16 2416.95 258.033 1
-5 -4 21 2101.29 286.416 -2
5 4 17 2101.29 286.416 1
-5 -5 -17 595.91 261.446 -2
5 5 -21 595.91 261.446 1
-5 -5 -16 238.372 241.641 -2
5 5 -20 238.372 241.641 1
-5 -5 -15 719.694 220.145 -2
5 5 -19 719.694 220.145 1
-5 -5 -14 477.333 192.2 -2
5 5 -18 477.333 192.2 1
-5 -5 -13 1403.5 190.929 -2
5 5 -17 1403.5 190.929 1
-5 -5 -12 328.96 167.267 -2
5 5 -16 328.96 167.267 1
-5 -5 -11 312.547 153.732 -2
5 5 -15 312.547 153.732 1
-5 -5 -10 4.83184 140.539 -2
5 5 -14 4.83184 140.539 1
-5 -5 -9 411.394 133.79 -2
5 5 -13 411.394 133.79 1
-5 -5 -8 163.441 120.56 -2
5 5 -12 163.441 120.56 1
5 5 -11 366.203 66.9917 1
-5 -5 -7 430.642 111.919 -2
5 5 -11 430.642 111.919 1
-5 -5 -6 163.326 61.8039 -2
5 5 -10 163.326 61.8039 1
5 5 -9 85.9923 63.7881 1
-5 -5 -5 772.898 101.138 -2
5 5 -9 772.898 101.138 1
-5 -5 -4 289.633 62.6872 -2
5 5 -8 289.633 62.6872 1
-5 -5 -3 1879.03 67.3223 -2
5 5 -7 1879.03 67.3223 1
-5 -5 -2 2111.91 67.0436 -2
5 5 -6 2111.91 67.0436 1
-5 -5 -1 1464.92 89.9649 -2
5 5 -5 1464.92 89.9649 1
-5 -5 0 2039.42 96.1036 -2
5 5 -4 2039.42 96.1036 1
-5 -5 1 7669.51 133.184 -2
5 5 -3 7669.51 133.184 1
-5 -5 2 12403.8 162.04 -2
5 5 -2 12403.8 162.04 1
-5 -5 3 4303.88 120.127 -2
5 5 -1 4303.88 120.127 1
-5 -5 4 1797.12 102.291 -2
5 5 0 1797.12 102.291 1
-5 -5 -1 1912.72 48.2408 1
-5 -5 5 2235.3 106.08 -2
5 5 1 2235.3 106.08 1
-5 -5 -2 1417.03 34.6074 1
-5 -5 6 2151.49 105.978 -2
5 5 2 2151.49 105.978 1
-5 -5 7 2931.01 77.4021 -2
5 5 3 2931.01 77.4021 1
-5 -5 8 175.423 65.2938 -2
5 5 4 175.423 65.2938 1
-5 -5 9 1465.21 77.6008 -2
5 5 5 1465.21 77.6008 1
-5 -5 10 230.411 74.054 -2
5 5 6 230.411 74.054 1
-5 -5 11 331.889 79.3572 -2
5 5 7 331.889 79.3572 1
-5 -5 12 164.586 85.3396 -2
5 5 8 164.586 85.3396 1
-5 -5 13 900.426 94.3522 -2
5 5 9 900.426 94.3522 1
-5 -5 14 228.099 96.9049 -2
5 5 10 228.099 96.9049 1
-5 -5 15 328.178 102.601 -2
5 5 11 328.178 102.601 1
-5 -5 16 250.792 112.217 -2
5 5 12 250.792 112.217 1
5 5 13 111.561 128.652 1
-5 -5 17 1001.46 191.105 -2
5 5 13 1001.46 191.105 1
-5 -5 18 419.353 208.308 -2
5 5 14 419.353 208.308 1
-5 -5 19 919.55 234.515 -2
5 5 15 919.55 234.515 1
-5 -5 20 353.807 256.775 -2
5 5 16 353.807 256.775 1
-5 -5 21 619.013 291.39 -2
5 5 17 619.013 291.39 1
5 6 -20 86.3576 203.673 1
5 6 -19 161.269 187.95 1
5 6 -18 200.212 170.237 1
5 6 -17 176.33 153.698 1
5 6 -16 242.203 145.554 1
5 6 -15 224.421 136.463 1
5 6 -14 63.0637 118.418 1
5 6 -13 248.006 117.181 1
5 6 -12 51.5415 104.505 1
5 6 -11 160.862 61.1336 1
5 6 -10 298.364 59.6818 1
5 6 -9 1142.29 65.4273 1
5 6 -8 1150.61 61.6959 1
5 6 -7 833.537 60.5809 1
5 6 -6 34.7226 49.9935 1
5 6 -5 357.378 77.2798 1
5 6 -4 3984.08 114.06 1
5 6 -3 6796.12 135.44 1
5 6 -2 2805.53 104.895 1
5 6 -1 6831.82 141.394 1
5 6 0 1379.96 93.0472 1
5 6 1 -0.27813 78.0773 1
5 6 2 672.572 89.5811 1
5 6 3 379.93 88.9329 1
5 6 4 4062.84 129.235 1
5 6 5 4926.56 139.75 1
-5 -6 9 5873.18 144.707 -2
5 6 5 5873.18 144.707 1
5 6 6 8085.63 169.934 1
-5 -6 10 8398.66 164.448 -2
5 6 6 8398.66 164.448 1
5 6 7 1090.32 110.409 1
-5 -6 11 1368.04 134.005 -2
5 6 7 1368.04 134.005 1
5 6 8 42.5241 99.3084 1
-5 -6 12 303.542 132.847 -2
5 6 8 303.542 132.847 1
5 6 9 103.156 108.161 1
-5 -6 13 315.839 145.067 -2
5 6 9 315.839 145.067 1
5 6 10 49.1377 113.488 1
-5 -6 14 354.789 157.737 -2
5 6 10 354.789 157.737 1
5 6 11 102.768 90.9244 1
5 6 12 63.9823 99.7646 1
5 6 13 80.1657 111.164 1
5 6 14 159.504 185.732 1
5 6 15 347.039 211.72 1
5 6 16 283.919 235.744 1
5 7 -19 119.339 203.702 1
5 7 -18 134.718 187.089 1
5 7 -17 883.935 179.309 1
5 7 -16 72.73 154.051 1
5 7 -15 910.733 155.467 1
5 7 -14 76.6909 132.857 1
5 7 -13 36.6253 124.834 1
5 7 -12 289.029 117.977 1
5 7 -11 298.835 106.557 1
5 7 -10 99.0406 65.1021 1
5 7 -9 924.944 69.1707 1
5 7 -8 1848.24 74.9754 1
5 7 -7 776.588 64.5501 1
5 7 -6 597.694 91.2157 1
5 7 -5 180.113 85.8407 1
5 7 -4 659.151 92.8257 1
5 7 -3 20.3872 82.9321 1
5 7 -2 861.328 97.5471 1
5 7 -1 417.088 87.5308 1
5 7 0 1396.46 100.141 1
5 7 1 227.547 89.6044 1
5 7 2 130.113 89.8706 1
-5 -7 8 2920.38 139.213 -2
5 7 3 2920.38 139.213 1
5 7 4 1098.68 103.248 1
-5 -7 10 987.401 132.691 -2
5 7 5 987.401 132.691 1
-5 -7 11 407.531 95.3814 -2
5 7 6 407.531 95.3814 1
-5 -7 12 802.089 103.867 -2
5 7 7 802.089 103.867 1
-5 -7 13 318.869 106.544 -2
5 7 8 318.869 106.544 1
-5 -7 14 2225.14 124.979 -2
5 7 9 2225.14 124.979 1
5 7 10 607.095 135.363 1
-5 -7 15 1407.14 188.088 -2
5 7 10 1407.14 188.088 1
5 7 11 367.677 145.9 1
-5 -7 16 742.151 198.931 -2
5 7 11 742.151 198.931 1
5 7 12 353.942 157.175 1
-5 -7 17 1213.8 223.531 -2
5 7 12 1213.8 223.531 1
5 7 13 270.298 171.782 1
-5 -7 18 439.18 242.118 -2
5 7 13 439.18 242.118 1
-5 -7 19 425.554 265.201 -2
5 7 14 425.554 265.201 1
-5 -7 20 760.072 302.895 -2
5 7 15 760.072 302.895 1
-5 -8 -13 415.102 245.788 -2
5 8 -18 415.102 245.788 1
-5 -8 -12 538.248 225.226 -2
5 8 -17 538.248 225.226 1
-5 -8 -11 309.576 207.547 -2
5 8 -16 309.576 207.547 1
-5 -8 -10 674.426 191.001 -2
5 8 -15 674.426 191.001 1
-5 -8 -9 497.706 176.545 -2
5 8 -14 497.706 176.545 1
-5 -8 -8 346.24 161.366 -2
5 8 -13 346.24 161.366 1
-5 -8 -7 1064.26 158.287 -2
5 8 -12 1064.26 158.287 1
-5 -8 -6 4470.88 170.646 -2
5 8 -11 4470.88 170.646 1
-5 -8 -5 3297.87 152.991 -2
5 8 -10 3297.87 152.991 1
-5 -8 -4 1219.68 91.9421 -2
5 8 -9 1219.68 91.9421 1
-5 -8 -3 1098.56 89.7241 -2
5 8 -8 1098.56 89.7241 1
-5 -8 -2 698.357 82.0635 -2
5 8 -7 698.357 82.0635 1
-5 -8 -1 298.699 117.694 -2
5 8 -6 298.699 117.694 1
-5 -8 0 316.591 122.881 -2
5 8 -5 316.591 122.881 1
-5 -8 1 433.744 139.069 -2
5 8 -4 433.744 139.069 1
-5 -8 2 284.14 121.184 -2
5 8 -3 284.14 121.184 1
-5 -8 3 32.9641 118.572 -2
5 8 -2 32.9641 118.572 1
-5 -8 4 283.77 121.715 -2
5 8 -1 283.77 121.715 1
-5 -8 5 201.891 121.012 -2
5 8 0 201.891 121.012 1
-5 -8 6 218.729 121.293 -2
5 8 1 218.729 121.293 1
-5 -8 7 512.518 129.425 -2
5 8 2 512.518 129.425 1
-5 -8 8 1688 146.302 -2
5 8 3 1688 146.302 1
-5 -8 9 2270.7 154.79 -2
5 8 4 2270.7 154.79 1
-5 -8 10 6151.76 196.122 -2
5 8 5 6151.76 196.122 1
-5 -8 11 6638.8 203.794 -2
5 8 6 6638.8 203.794 1
-5 -8 12 1343.12 162.959 -2
5 8 7 1343.12 162.959 1
-5 -8 13 314.089 120.275 -2
5 8 8 314.089 120.275 1
-5 -8 14 794.639 133.118 -2
5 8 9 794.639 133.118 1
-5 -8 15 488.08 142.12 -2
5 8 10 488.08 142.12 1
-5 -8 16 465.556 162.223 -2
5 8 11 465.556 162.223 1
-5 -8 17 369.666 170.205 -2
5 8 12 369.666 170.205 1
-5 -8 18 282.921 262.954 -2
5 8 13 282.921 262.954 1
-5 -8 19 369.809 304.983 -2
5 8 14 369.809 304.983 1
-5 -9 -12 395.141 260.982 -2
5 9 -17 395.141 260.982 1
-5 -9 -11 441.413 241.411 -2
5 9 -16 441.413 241.411 1
-5 -9 -10 489.374 220.661 -2
5 9 -15 489.374 220.661 1
-5 -9 -9 700.072 206.687 -2
5 9 -14 700.072 206.687 1
-5 -9 -8 357.406 187.911 -2
5 9 -13 357.406 187.911 1
-5 -9 -7 741.46 177.384 -2
5 9 -12 741.46 177.384 1
-5 -9 -6 400.984 163.511 -2
5 9 -11 400.984 163.511 1
-5 -9 -5 723.003 157.655 -2
5 9 -10 723.003 157.655 1
-5 -9 -3 307.581 139.472 -2
5 9 -8 307.581 139.472 1
-5 -9 -2 243.586 141.009 -2
5 9 -7 243.586 141.009 1
-5 -9 -1 354.028 135.987 -2
5 9 -6 354.028 135.987 1
-5 -9 0 1020.47 146.438 -2
5 9 -5 1020.47 146.438 1
-5 -9 1 252.465 132.112 -2
5 9 -4 252.465 132.112 1
-5 -9 2 1173.68 154.304 -2
5 9 -3 1173.68 154.304 1
-5 -9 3 937.395 151.629 -2
5 9 -2 937.395 151.629 1
-5 -9 4 385.617 159.424 -2
5 9 -1 385.617 159.424 1
-5 -9 5 921.396 173.553 -2
5 9 0 921.396 173.553 1
-5 -9 6 572.561 169.456 -2
5 9 1 572.561 169.456 1
-5 -9 7 104.502 156.764 -2
5 9 2 104.502 156.764 1
-5 -9 8 285.823 157.754 -2
5 9 3 285.823 157.754 1
-5 -9 9 1274.82 180.681 -2
5 9 4 1274.82 180.681 1
-5 -9 10 456.096 170.302 -2
5 9 5 456.096 170.302 1
-5 -9 11 397.883 185.233 -2
5 9 6 397.883 185.233 1
-5 -9 12 663.665 206.225 -2
5 9 7 663.665 206.225 1
-5 -9 13 589.343 234.245 -2
5 9 8 589.343 234.245 1
-5 -9 14 825.237 222.631 -2
5 9 9 825.237 222.631 1
-5 -9 15 862.788 223.785 -2
5 9 10 862.788 223.785 1
-5 -9 16 443.543 174.75 -2
5 9 11 443.543 174.75 1
-5 -9 17 349.56 189.683 -2
5 9 12 349.56 189.683 1
-5 -10 -2 1914.35 176.646 -2
5 10 -7 1914.35 176.646 1
-5 -10 -1 3303.49 186.103 -2
5 10 -6 3303.49 186.103 1
-5 -10 0 442.884 157.15 -2
5 10 -5 442.884 157.15 1
-5 -10 1 1.30061 150.698 -2
5 10 -4 1.30061 150.698 1
-5 -10 2 79.5477 153.625 -2
5 10 -3 79.5477 153.625 1
-5 -10 3 284.696 155.669 -2
5 10 -2 284.696 155.669 1
-5 -10 4 321.531 152.567 -2
5 10 -1 321.531 152.567 1
-5 -10 5 151.162 155.417 -2
5 10 0 151.162 155.417 1
-5 -10 6 1839.47 182.181 -2
5 10 1 1839.47 182.181 1
-5 -10 7 1350.26 177.942 -2
5 10 2 1350.26 177.942 1
-5 -10 8 547.951 173.966 -2
5 10 3 547.951 173.966 1
-5 -10 9 527.459 183.025 -2
5 10 4 527.459 183.025 1
-5 -10 10 622.546 185.583 -2
5 10 5 622.546 185.583 1
-5 -10 11 174.759 191.973 -2
5 10 6 174.759 191.973 1
-5 -10 12 836.444 205.932 -2
5 10 7 836.444 205.932 1
-5 -10 13 330.572 205.659 -2
5 10 8 330.572 205.659 1
-5 -10 14 247.507 219.412 -2
5 10 9 247.507 219.412 1
-5 -10 15 857.327 252.199 -2
5 10 10 857.327 252.199 1
-5 -10 16 358.319 274.903 -2
5 10 11 358.319 274.903 1
-5 -11 1 383.888 173.961 -2
5 11 -4 383.888 173.961 1
-5 -11 2 677.104 182.093 -2
5 11 -3 677.104 182.093 1
-5 -11 3 842.98 180.876 -2
5 11 -2 842.98 180.876 1
-5 -11 4 639.342 181.55 -2
5 11 -1 639.342 181.55 1
-5 -11 5 488.368 179.893 -2
5 11 0 488.368 179.893 1
-5 -11 6 243.343 187.404 -2
5 11 1 243.343 187.404 1
-5 -11 7 505.861 190.086 -2
5 11 2 505.861 190.086 1
-5 -11 8 796.608 199.44 -2
5 11 3 796.608 199.44 1
-5 -11 9 264.331 203.332 -2
5 11 4 264.331 203.332 1
-5 -11 10 480.25 212.24 -2
5 11 5 480.25 212.24 1
-5 -11 11 1537.99 230.447 -2
5 11 6 1537.99 230.447 1
-5 -11 12 749.293 234.94 -2
5 11 7 749.293 234.94 1
-5 -11 13 678.558 251.741 -2
5 11 8 678.558 251.741 1
-5 -11 14 542.761 271.758 -2
5 11 9 542.761 271.758 1
5 12 -3 166.29 165.613 1
5 12 -2 118.319 166.865 1
5 12 -1 71.5888 168.071 1
5 12 0 1897.47 185.61 1
5 12 1 1931.06 196.456 1
5 12 2 915.056 186.556 1
5 12 3 187.681 186.946 1
5 12 4 313.527 192.964 1
5 12 6 84.2353 203.613 1
-6 14 -4 395.222 285.371 -2
6 -14 -6 395.222 285.371 1
-6 14 -3 450.439 284.904 -2
6 -14 -5 450.439 284.904 1
-6 14 -2 557.266 273.878 -2
6 -14 -4 557.266 273.878 1
-6 14 -1 1529.55 269.505 -2
6 -14 -3 1529.55 269.505 1
-6 14 0 935.555 258.258 -2
6 -14 -2 935.555 258.258 1
-6 14 1 2742.41 278.392 -2
6 -14 -1 2742.41 278.392 1
-6 14 2 586.069 269.925 -2
6 -14 0 586.069 269.925 1
-6 14 3 692.692 270.134 -2
6 -14 1 692.692 270.134 1
6 -14 -4 839.63 277.471 -2
-6 14 -2 839.63 277.471 1
-6 13 -8 368.7 281.602 -2
6 -13 -10 368.7 281.602 1
-6 13 -7 231.861 266.438 -2
6 -13 -9 231.861 266.438 1
-6 13 -6 333.235 262.897 -2
6 -13 -8 333.235 262.897 1
-6 13 -5 327.58 236.805 -2
6 -13 -7 327.58 236.805 1
-6 13 -4 376.849 229.96 -2
6 -13 -6 376.849 229.96 1
-6 13 -3 323.676 226.164 -2
6 -13 -5 323.676 226.164 1
-6 13 -2 557.74 234.182 -2
6 -13 -4 557.74 234.182 1
-6 13 -1 1152.72 242.786 -2
6 -13 -3 1152.72 242.786 1
-6 13 0 3679.88 259.036 -2
6 -13 -2 3679.88 259.036 1
-6 13 1 5453.13 267.568 -2
6 -13 -1 5453.13 267.568 1
-6 13 2 2975.12 252.915 -2
6 -13 0 2975.12 252.915 1
-6 13 3 502.701 229.146 -2
6 -13 1 502.701 229.146 1
6 -13 -4 419.693 152.069 -2
-6 13 -2 419.693 152.069 1
6 -13 -5 166.587 158.823 -2
-6 13 -3 166.587 158.823 1
6 -13 -6 464.608 252.344 -2
-6 13 -4 464.608 252.344 1
6 -13 -7 307.608 172.975 -2
-6 13 -5 307.608 172.975 1
6 -13 -8 272.16 185.874 -2
-6 13 -6 272.16 185.874 1
6 -13 -9 407.055 271.879 -2
-6 13 -7 407.055 271.879 1
6 -13 -10 230.373 273.278 -2
-6 13 -8 230.373 273.278 1
-6 12 -10 330.832 264.028 -2
6 -12 -12 330.832 264.028 1
-6 12 -9 478.592 253.39 -2
6 -12 -11 478.592 253.39 1
-6 12 -8 406.286 241.699 -2
6 -12 -10 406.286 241.699 1
-6 12 -7 461.634 232.368 -2
6 -12 -9 461.634 232.368 1
-6 12 -6 600.339 222.952 -2
6 -12 -8 600.339 222.952 1
-6 12 -5 956.703 227.537 -2
6 -12 -7 956.703 227.537 1
-6 12 -4 2106.07 231.232 -2
6 -12 -6 2106.07 231.232 1
-6 12 -3 335.991 191.63 -2
6 -12 -5 335.991 191.63 1
-6 12 -2 383.086 191.092 -2
6 -12 -4 383.086 191.092 1
-6 12 -1 725.116 135.119 -2
6 -12 -3 725.116 135.119 1
-6 12 0 762.726 134.943 -2
6 -12 -2 762.726 134.943 1
-6 12 1 284.633 127.711 -2
6 -12 -1 284.633 127.711 1
-6 12 2 427.832 129.915 -2
6 -12 0 427.832 129.915 1
-6 12 3 1430.22 143.193 -2
6 -12 1 1430.22 143.193 1
-6 12 4 590.643 137.889 -2
6 -12 2 590.643 137.889 1
6 -12 -5 103.122 132.741 -2
-6 12 -3 103.122 132.741 1
6 -12 -6 1028.46 143.702 -2
-6 12 -4 1028.46 143.702 1
6 -12 -7 297.929 142.85 -2
-6 12 -5 297.929 142.85 1
6 -12 -8 275.688 147.093 -2
-6 12 -6 275.688 147.093 1
6 -12 -9 374.611 160.37 -2
-6 12 -7 374.611 160.37 1
6 -12 -10 1017.91 173.477 -2
-6 12 -8 1017.91 173.477 1
6 -12 -11 702.24 254.143 -2
-6 12 -9 702.24 254.143 1
6 -12 -12 170.991 258.396 -2
-6 12 -10 170.991 258.396 1
-6 11 -12 2488.84 290.873 -2
6 -11 -14 2488.84 290.873 1
-6 11 -11 321.164 249.147 -2
6 -11 -13 321.164 249.147 1
-6 11 -10 206.34 232.586 -2
6 -11 -12 206.34 232.586 1
-6 11 -9 279.303 214.899 -2
6 -11 -11 279.303 214.899 1
-6 11 -8 1459.11 218.23 -2
6 -11 -10 1459.11 218.23 1
-6 11 -7 187.226 199.017 -2
6 -11 -9 187.226 199.017 1
-6 11 -6 492.05 196.036 -2
6 -11 -8 492.05 196.036 1
-6 11 -5 367.865 184.797 -2
6 -11 -7 367.865 184.797 1
-6 11 -4 354.077 121.7 -2
6 -11 -6 354.077 121.7 1
-6 11 -3 1116.74 122.941 -2
6 -11 -5 1116.74 122.941 1
-6 11 -2 446.454 116.639 -2
6 -11 -4 446.454 116.639 1
-6 11 -1 624.687 113.636 -2
6 -11 -3 624.687 113.636 1
-6 11 0 1414.87 120.146 -2
6 -11 -2 1414.87 120.146 1
-6 11 1 226.918 110.011 -2
6 -11 -1 226.918 110.011 1
-6 11 2 848.112 113.085 -2
6 -11 0 848.112 113.085 1
-6 11 3 921.32 117.971 -2
6 -11 1 921.32 117.971 1
-6 11 4 748.159 117.774 -2
6 -11 2 748.159 117.774 1
-6 11 5 1946.96 128.706 -2
6 -11 3 1946.96 128.706 1
6 -11 -6 425.247 120.757 -2
-6 11 -4 425.247 120.757 1
6 -11 -7 500.286 127.254 -2
-6 11 -5 500.286 127.254 1
6 -11 -8 995.084 128.007 -2
-6 11 -6 995.084 128.007 1
6 -11 -9 384.579 133.293 -2
-6 11 -7 384.579 133.293 1
6 -11 -10 1818.99 155.249 -2
-6 11 -8 1818.99 155.249 1
6 -11 -11 365 156.416 -2
-6 11 -9 365 156.416 1
6 -11 -12 186.923 165.483 -2
-6 11 -10 186.923 165.483 1
6 -11 -13 540.734 178.444 -2
-6 11 -11 540.734 178.444 1
6 -11 -14 1723.16 255.984 -2
-6 11 -12 1723.16 255.984 1
-6 10 -13 688.188 260.255 -2
6 -10 -15 688.188 260.255 1
-6 10 -12 2243.04 251.932 -2
6 -10 -14 2243.04 251.932 1
-6 10 -11 1648.34 226.931 -2
6 -10 -13 1648.34 226.931 1
-6 10 -10 823.719 210.737 -2
6 -10 -12 823.719 210.737 1
-6 10 -9 330.8 194.703 -2
6 -10 -11 330.8 194.703 1
-6 10 -8 1080.82 192.323 -2
6 -10 -10 1080.82 192.323 1
-6 10 -7 894.591 177.812 -2
6 -10 -9 894.591 177.812 1
-6 10 -6 1169.18 117.629 -2
6 -10 -8 1169.18 117.629 1
-6 10 -5 322.808 109.213 -2
6 -10 -7 322.808 109.213 1
6 -10 4 228.128 105.262 -2
-6 10 6 228.128 105.262 1
-6 10 -3 432.917 106.579 -2
6 -10 -5 432.917 106.579 1
-6 10 -2 316.75 99.6875 -2
6 -10 -4 316.75 99.6875 1
-6 10 -1 815.426 100.969 -2
6 -10 -3 815.426 100.969 1
-6 10 0 1099.55 104.044 -2
6 -10 -2 1099.55 104.044 1
-6 10 1 206.337 99.6874 -2
6 -10 -1 206.337 99.6874 1
-6 10 2 619.245 100.119 -2
6 -10 0 619.245 100.119 1
-6 10 3 519.714 99.1469 -2
6 -10 1 519.714 99.1469 1
6 -10 2 388.307 116.666 1
6 -10 -4 416.068 139.691 -2
-6 10 -2 416.068 139.691 1
6 -10 3 354.865 112.789 1
6 -10 -5 525.593 142.819 -2
-6 10 -3 525.593 142.819 1
-6 10 -4 16.331 127.766 1
6 -10 -6 226.889 153.477 -2
-6 10 -4 226.889 153.477 1
-6 10 -5 31.8348 137.582 1
6 -10 -7 165.707 154.586 -2
-6 10 -5 165.707 154.586 1
-6 10 -6 1600.7 144.148 1
6 -10 -8 1845.95 169.353 -2
-6 10 -6 1845.95 169.353 1
-6 10 -7 365.355 95.4888 1
-6 10 -8 1698.78 114.559 1
6 -10 -11 457.723 135.879 -2
-6 10 -9 457.723 135.879 1
-6 10 -10 276.906 124.769 1
-6 10 -11 98.5045 132.843 1
-6 10 -12 226.717 196.839 1
-6 10 -13 808.914 205.619 1
6 -9 14 499.877 192.54 -2
-6 9 17 499.877 192.54 1
-6 9 -13 848.757 176.584 -2
6 -9 -16 848.757 176.584 1
-6 9 -12 3355.46 177.21 -2
6 -9 -15 3355.46 177.21 1
-6 9 -11 1908.07 157.464 -2
6 -9 -14 1908.07 157.464 1
6 -9 10 329.342 134.763 -2
-6 9 13 329.342 134.763 1
-6 9 -9 298.736 180.284 -2
6 -9 -12 298.736 180.284 1
-6 9 -8 579.353 174.408 -2
6 -9 -11 579.353 174.408 1
-6 9 -7 601.75 167.553 -2
6 -9 -10 601.75 167.553 1
-6 9 -6 1227.37 159.716 -2
6 -9 -9 1227.37 159.716 1
-6 9 -5 709.048 150.972 -2
6 -9 -8 709.048 150.972 1
-6 9 -4 807.798 149.163 -2
6 -9 -7 807.798 149.163 1
-6 9 -3 788.705 146.691 -2
6 -9 -6 788.705 146.691 1
-6 9 -2 305.993 93.16 -2
6 -9 -5 305.993 93.16 1
-6 9 -1 1167.85 95.7317 -2
6 -9 -4 1167.85 95.7317 1
-6 9 0 298.713 88.9788 -2
6 -9 -3 298.713 88.9788 1
6 -9 -2 85.3301 101.786 1
6 -9 -1 311.111 121.437 -2
-6 9 2 311.111 121.437 1
6 -9 -1 58.8762 107.132 1
6 -9 -2 308.715 121.687 -2
-6 9 1 308.715 121.687 1
6 -9 0 159.487 70.8067 1
6 -9 1 1197.06 113.53 1
6 -9 -4 1425.19 133.927 -2
-6 9 -1 1425.19 133.927 1
6 -9 2 403.857 106.998 1
6 -9 -5 385.378 129.336 -2
-6 9 -2 385.378 129.336 1
6 -9 3 120.654 71.6 1
-6 9 -4 57.4815 116.665 1
6 -9 -7 601.53 138.787 -2
-6 9 -4 601.53 138.787 1
-6 9 -5 192.293 123.797 1
6 -9 -8 496.523 148.621 -2
-6 9 -5 496.523 148.621 1
-6 9 -6 98.2308 116.739 1
6 -9 -9 681.606 151.698 -2
-6 9 -6 681.606 151.698 1
-6 9 -7 153.391 119.964 1
6 -9 -10 230.766 152.209 -2
-6 9 -7 230.766 152.209 1
-6 9 -8 826.745 137.97 1
6 -9 -11 551.581 159.842 -2
-6 9 -8 551.581 159.842 1
-6 9 -9 97.8307 135.801 1
6 -9 -12 232.084 175.61 -2
-6 9 -9 232.084 175.61 1
6 -9 -13 380.486 135.757 -2
-6 9 -10 380.486 135.757 1
6 -9 -14 1405.06 150.032 -2
-6 9 -11 1405.06 150.032 1
6 -9 -15 2770.29 229.86 -2
-6 9 -12 2770.29 229.86 1
6 -9 -16 817.406 225.198 -2
-6 9 -13 817.406 225.198 1
6 -9 -17 299.928 234.439 -2
-6 9 -14 299.928 234.439 1
6 -8 16 512.711 329.762 -2
-6 8 19 512.711 329.762 1
6 -8 15 899.105 197.444 -2
-6 8 18 899.105 197.444 1
6 -8 14 664.346 176.615 -2
-6 8 17 664.346 176.615 1
6 -8 13 2219.62 169.996 -2
-6 8 16 2219.62 169.996 1
-6 8 -12 1906.36 156.003 -2
6 -8 -15 1906.36 156.003 1
-6 8 -11 2233.22 145.511 -2
6 -8 -14 2233.22 145.511 1
6 -8 10 286.184 122.967 -2
-6 8 13 286.184 122.967 1
-6 8 -9 658.997 117.778 -2
6 -8 -12 658.997 117.778 1
6 -8 8 1687.87 118.537 -2
-6 8 11 1687.87 118.537 1
-6 8 -7 2734.35 177.561 -2
6 -8 -10 2734.35 177.561 1
-6 8 -6 2095.83 162.167 -2
6 -8 -9 2095.83 162.167 1
-6 8 -5 229.859 133.414 -2
6 -8 -8 229.859 133.414 1
-6 8 -4 571.896 130.361 -2
6 -8 -7 571.896 130.361 1
-6 8 -3 270.232 131.056 -2
6 -8 -6 270.232 131.056 1
-6 8 -2 690.803 130.457 -2
6 -8 -5 690.803 130.457 1
-6 8 -1 739.228 131.291 -2
6 -8 -4 739.228 131.291 1
-6 8 0 593.474 83.1007 -2
6 -8 -3 593.474 83.1007 1
-6 8 1 522.275 82.7909 -2
6 -8 -2 522.275 82.7909 1
-6 8 2 471.234 82.9971 -2
6 -8 -1 471.234 82.9971 1
-6 8 3 1098.56 85.341 -2
6 -8 0 1098.56 85.341 1
-6 8 4 563.712 86.1023 -2
6 -8 1 563.712 86.1023 1
-6 8 5 959.288 88.0378 -2
6 -8 2 959.288 88.0378 1
-6 8 6 235.335 83.7849 -2
6 -8 3 235.335 83.7849 1
6 -8 -7 769.48 93.0936 -2
-6 8 -4 769.48 93.0936 1
6 -8 -8 120.285 91.1848 -2
-6 8 -5 120.285 91.1848 1
6 -8 -9 1634.81 105.88 -2
-6 8 -6 1634.81 105.88 1
6 -8 -10 1621.33 110.326 -2
-6 8 -7 1621.33 110.326 1
6 -8 -11 3086.62 123.041 -2
-6 8 -8 3086.62 123.041 1
6 -8 -12 839.907 114.505 -2
-6 8 -9 839.907 114.505 1
6 -8 -13 347.308 120.932 -2
-6 8 -10 347.308 120.932 1
6 -8 -14 2071.99 144.513 -2
-6 8 -11 2071.99 144.513 1
6 -8 -15 1708.78 218.44 -2
-6 8 -12 1708.78 218.44 1
6 -8 -16 3621.7 241.89 -2
-6 8 -13 3621.7 241.89 1
6 -8 -17 459.029 215.277 -2
-6 8 -14 459.029 215.277 1
6 -8 -18 707.277 246.56 -2
-6 8 -15 707.277 246.56 1
-6 7 -16 184.016 196.399 -2
6 -7 -19 184.016 196.399 1
-6 7 -15 283.555 175.039 -2
6 -7 -18 283.555 175.039 1
-6 7 -14 198.392 155.375 -2
6 -7 -17 198.392 155.375 1
-6 7 -13 738.757 147.33 -2
6 -7 -16 738.757 147.33 1
6 -7 12 895.05 136.539 -2
-6 7 15 895.05 136.539 1
6 -7 11 1587.2 133.469 -2
-6 7 14 1587.2 133.469 1
6 -7 10 338.513 113.558 -2
-6 7 13 338.513 113.558 1
6 -7 9 684.78 109.851 -2
-6 7 12 684.78 109.851 1
-6 7 -8 3632.08 127.975 -2
6 -7 -11 3632.08 127.975 1
-6 7 -7 2445.33 114.543 -2
6 -7 -10 2445.33 114.543 1
6 -7 6 2587.4 108.06 -2
-6 7 9 2587.4 108.06 1
-6 7 -5 517.39 127.993 -2
6 -7 -8 517.39 127.993 1
-6 7 -4 2754.55 155.631 -2
6 -7 -7 2754.55 155.631 1
-6 7 -3 3679.68 168.691 -2
6 -7 -6 3679.68 168.691 1
-6 7 -2 3995.2 167.375 -2
6 -7 -5 3995.2 167.375 1
-6 7 -1 658.259 123.879 -2
6 -7 -4 658.259 123.879 1
-6 7 0 440.195 111.101 -2
6 -7 -3 440.195 111.101 1
-6 7 1 75.6117 72.6757 -2
6 -7 -2 75.6117 72.6757 1
-6 7 2 85.9061 73.5553 -2
6 -7 -1 85.9061 73.5553 1
-6 7 3 507.665 77.9637 -2
6 -7 0 507.665 77.9637 1
-6 7 4 776.517 83.0818 -2
6 -7 1 776.517 83.0818 1
-6 7 5 7131.05 141.735 -2
6 -7 2 7131.05 141.735 1
-6 7 6 3846.16 113.406 -2
6 -7 3 3846.16 113.406 1
6 -7 -7 5117.83 125.7 -2
-6 7 -4 5117.83 125.7 1
6 -7 -8 493.896 88.2675 -2
-6 7 -5 493.896 88.2675 1
6 -7 -9 1807.81 104.371 -2
-6 7 -6 1807.81 104.371 1
6 -7 -10 1480.89 106.741 -2
-6 7 -7 1480.89 106.741 1
6 -7 -11 5695.3 148.408 -2
-6 7 -8 5695.3 148.408 1
6 -7 -12 651.465 106.48 -2
-6 7 -9 651.465 106.48 1
6 -7 -13 480.981 112.395 -2
-6 7 -10 480.981 112.395 1
6 -7 -14 2017.91 138.7 -2
-6 7 -11 2017.91 138.7 1
6 -7 -15 1573.19 206.727 -2
-6 7 -12 1573.19 206.727 1
6 -7 -16 408.461 197.829 -2
-6 7 -13 408.461 197.829 1
6 -7 -17 -11.5904 199.997 -2
-6 7 -14 -11.5904 199.997 1
6 -7 -18 138.627 220.523 -2
-6 7 -15 138.627 220.523 1
6 -7 -19 227.434 213.063 -2
-6 7 -16 227.434 213.063 1
-6 6 -17 295.118 204.598 -2
6 -6 -20 295.118 204.598 1
6 -6 16 382.921 181.393 -2
-6 6 19 382.921 181.393 1
-6 6 -15 424.815 161.719 -2
6 -6 -18 424.815 161.719 1
-6 6 -14 1199.28 152.93 -2
6 -6 -17 1199.28 152.93 1
-6 6 -13 1751.27 144.234 -2
6 -6 -16 1751.27 144.234 1
-6 6 -12 2203.17 137.555 -2
6 -6 -15 2203.17 137.555 1
-6 6 -11 1598.06 122.975 -2
6 -6 -14 1598.06 122.975 1
6 -6 10 364.092 105.114 -2
-6 6 13 364.092 105.114 1
-6 6 -9 320.629 96.9472 -2
6 -6 -12 320.629 96.9472 1
-6 6 -8 814.752 95.1413 -2
6 -6 -11 814.752 95.1413 1
-6 6 -7 225.055 84.9918 -2
6 -6 -10 225.055 84.9918 1
6 -6 6 707.513 83.1586 -2
-6 6 9 707.513 83.1586 1
-6 6 -5 308.272 75.6626 -2
6 -6 -8 308.272 75.6626 1
-6 6 -4 888.381 119.004 -2
6 -6 -7 888.381 119.004 1
-6 6 -3 4906.76 163.58 -2
6 -6 -6 4906.76 163.58 1
-6 6 -2 11996 227.47 -2
6 -6 -5 11996 227.47 1
-6 6 -1 1631.37 128.103 -2
6 -6 -4 1631.37 128.103 1
-6 6 0 5889.34 169.73 -2
6 -6 -3 5889.34 169.73 1
-6 6 1 1579.21 119.327 -2
6 -6 -2 1579.21 119.327 1
-6 6 2 1059.04 78.8056 -2
6 -6 -1 1059.04 78.8056 1
6 -6 -3 3394.98 97.8607 -2
-6 6 0 3394.98 97.8607 1
-6 6 4 1969.64 90.4249 -2
6 -6 1 1969.64 90.4249 1
-6 6 5 14859.2 175.57 -2
6 -6 2 14859.2 175.57 1
6 -6 -6 8323.75 138.454 -2
-6 6 -3 8323.75 138.454 1
6 -6 -7 1467.27 90.279 -2
-6 6 -4 1467.27 90.279 1
6 -6 -8 423.586 81.842 -2
-6 6 -5 423.586 81.842 1
6 -6 -9 477.139 84.0724 -2
-6 6 -6 477.139 84.0724 1
6 -6 -10 294.241 87.2009 -2
-6 6 -7 294.241 87.2009 1
6 -6 -11 753.697 97.185 -2
-6 6 -8 753.697 97.185 1
6 -6 -12 287.664 95.7721 -2
-6 6 -9 287.664 95.7721 1
6 -6 -13 261.697 103.487 -2
-6 6 -10 261.697 103.487 1
6 -6 -14 2685 192.468 -2
-6 6 -11 2685 192.468 1
6 -6 -15 4117.59 222.036 -2
-6 6 -12 4117.59 222.036 1
6 -6 -16 3431.09 223.157 -2
-6 6 -13 3431.09 223.157 1
6 -6 -17 791.104 193.648 -2
-6 6 -14 791.104 193.648 1
6 -6 -18 499.925 209.412 -2
-6 6 -15 499.925 209.412 1
6 -6 -19 252.23 235.759 -2
-6 6 -16 252.23 235.759 1
6 -6 -20 716.431 264.027 -2
-6 6 -17 716.431 264.027 1
-6 5 -18 1060.81 306.627 -2
6 -5 -21 1060.81 306.627 1
6 -5 17 352.631 192.678 -2
-6 5 20 352.631 192.678 1
6 -5 16 592.837 170.438 -2
-6 5 19 592.837 170.438 1
-6 5 -15 888.813 152.858 -2
6 -5 -18 888.813 152.858 1
-6 5 -14 304.075 134.806 -2
6 -5 -17 304.075 134.806 1
-6 5 -13 1836.5 132.529 -2
6 -5 -16 1836.5 132.529 1
-6 5 -12 4944.35 139.544 -2
6 -5 -15 4944.35 139.544 1
6 -5 11 458.061 103.58 -2
-6 5 14 458.061 103.58 1
-6 5 -10 152.71 94.6411 -2
6 -5 -13 152.71 94.6411 1
-6 5 -9 304.466 87.8842 -2
6 -5 -12 304.466 87.8842 1
-6 5 -8 2270.74 93.4011 -2
6 -5 -11 2270.74 93.4011 1
-6 5 -7 560.193 77.9558 -2
6 -5 -10 560.193 77.9558 1
-6 5 -6 6233.28 99.5321 -2
6 -5 -9 6233.28 99.5321 1
-6 5 -5 380.996 67.4914 -2
6 -5 -8 380.996 67.4914 1
-6 5 -4 275.118 62.6042 -2
6 -5 -7 275.118 62.6042 1
-6 5 -3 83.2206 93.1714 -2
6 -5 -6 83.2206 93.1714 1
-6 5 -2 108.978 93.9943 -2
6 -5 -5 108.978 93.9943 1
-6 5 -1 1223.42 104.14 -2
6 -5 -4 1223.42 104.14 1
-6 5 0 12222.1 164.871 -2
6 -5 -3 12222.1 164.871 1
-6 5 1 1264.88 100.659 -2
6 -5 -2 1264.88 100.659 1
-6 5 2 1856.62 106.461 -2
6 -5 -1 1856.62 106.461 1
-6 5 3 7940.73 101.343 -2
6 -5 0 7940.73 101.343 1
-6 5 4 737.394 68.1356 -2
6 -5 1 737.394 68.1356 1
-6 5 5 50.0981 66.2627 -2
6 -5 2 50.0981 66.2627 1
-6 5 -3 149.577 81.9706 1
6 -5 -6 239.291 94.0983 -2
-6 5 -3 239.291 94.0983 1
6 -5 -7 111.276 70.5166 -2
-6 5 -4 111.276 70.5166 1
-6 5 -5 92.8446 80.004 1
6 -5 -8 193.816 100.373 -2
-6 5 -5 193.816 100.373 1
6 -5 -9 3452.77 96.1803 -2
-6 5 -6 3452.77 96.1803 1
6 -5 -10 322.681 79.6699 -2
-6 5 -7 322.681 79.6699 1
6 -5 -11 1279.82 92.8461 -2
-6 5 -8 1279.82 92.8461 1
6 -5 -12 332.672 90.9382 -2
-6 5 -9 332.672 90.9382 1
-6 5 -10 188.411 120.999 1
6 -5 -13 79.1706 131.155 -2
-6 5 -10 79.1706 131.155 1
6 -5 -14 217.917 148.442 -2
-6 5 -11 217.917 148.442 1
6 -5 -15 9268.35 231.622 -2
-6 5 -12 9268.35 231.622 1
6 -5 -16 3147.23 199.359 -2
-6 5 -13 3147.23 199.359 1
6 -5 -17 304.946 179.411 -2
-6 5 -14 304.946 179.411 1
6 -5 -18 1187.11 202.707 -2
-6 5 -15 1187.11 202.707 1
6 -5 -19 855.418 223.622 -2
-6 5 -16 855.418 223.622 1
6 -5 -20 394.245 246.816 -2
-6 5 -17 394.245 246.816 1
6 -4 -21 126.404 156.754 1
6 -4 -20 141.616 137.731 1
6 -4 -19 163.021 121.145 1
-6 4 18 46.2108 107.214 1
-6 4 17 663.234 144.655 1
-6 4 -14 1118.13 184.955 -2
6 -4 -17 1118.13 184.955 1
-6 4 16 4538.64 163.374 1
-6 4 -13 5307.76 197.657 -2
6 -4 -16 5307.76 197.657 1
-6 4 15 2956.77 140.112 1
-6 4 -12 6538.64 192.458 -2
6 -4 -15 6538.64 192.458 1
-6 4 14 2203.89 121.063 1
-6 4 -11 4491.77 169.166 -2
6 -4 -14 4491.77 169.166 1
-6 4 13 282.282 94.1612 1
-6 4 -10 457.71 130.505 -2
6 -4 -13 457.71 130.505 1
-6 4 12 482.56 66.1851 1
-6 4 11 804.516 64.5672 1
-6 4 10 3020.63 74.5492 1
-6 4 9 269.165 69.2847 1
-6 4 -6 669.041 103.93 -2
6 -4 -9 669.041 103.93 1
-6 4 8 518.051 51.1465 1
6 -4 -7 75.1667 43.6984 1
6 -4 -6 1461.03 85.9392 1
6 -4 -5 1288.33 81.4526 1
6 -4 -4 4258.21 105.218 1
6 -4 -3 524.862 70.5826 1
6 -4 -2 818.873 73.6842 1
6 -4 -1 481.712 68.5365 1
6 -4 0 1536.31 84.0958 1
-6 4 -1 17726.1 132.018 1
-6 4 -2 5694.28 87.7359 1
-6 4 -3 246.172 54.5745 1
-6 4 -4 130.19 55.5337 1
-6 4 -5 1383.32 65.9155 1
-6 4 -6 598.56 62.7581 1
-6 4 -7 2223.81 78.6033 1
-6 4 -8 82.9392 67.5769 1
-6 4 -9 1460.41 81.7205 1
-6 4 -10 324.64 102.041 1
-6 4 -11 4569.39 160.437 1
-6 4 -12 6889.24 199.099 1
-6 4 -13 2095.32 160.626 1
-6 4 -14 557.464 149.024 1
-6 4 -15 246.498 158.434 1
-6 4 -16 64.9299 176.906 1
-6 4 -17 159.496 201.288 1
-6 4 -18 324.299 226.091 1
-6 3 21 117.508 231.211 1
6 -3 -20 455.947 136.279 1
-6 3 19 310.203 164.541 1
-6 3 -15 794.677 202.73 -2
6 -3 -19 794.677 202.73 1
-6 3 18 146.934 142.449 1
-6 3 -14 217.943 177.984 -2
6 -3 -18 217.943 177.984 1
-6 3 17 369.628 131.744 1
-6 3 -13 633.072 164.679 -2
6 -3 -17 633.072 164.679 1
-6 3 16 1786.88 131.764 1
-6 3 -12 2195.72 161.493 -2
6 -3 -16 2195.72 161.493 1
-6 3 15 5146.27 147.703 1
-6 3 -11 5062.56 166.041 -2
6 -3 -15 5062.56 166.041 1
-6 3 14 149.749 94.5178 1
-6 3 -10 287.542 123.685 -2
6 -3 -14 287.542 123.685 1
-6 3 13 78.2337 89.4068 1
-6 3 -9 196.352 111.831 -2
6 -3 -13 196.352 111.831 1
-6 3 12 17.6024 86.2045 1
-6 3 -8 355.455 108.629 -2
6 -3 -12 355.455 108.629 1
-6 3 11 97.6668 73.0119 1
-6 3 -7 958.734 107.492 -2
6 -3 -11 958.734 107.492 1
-6 3 10 1141.4 74.5588 1
-6 3 -6 2199.07 109.365 -2
6 -3 -10 2199.07 109.365 1
-6 3 9 1433.57 71.6354 1
-6 3 -5 3685.22 112.746 -2
6 -3 -9 3685.22 112.746 1
-6 3 8 1646.18 67.379 1
-6 3 -4 1520.21 96.0523 -2
6 -3 -8 1520.21 96.0523 1
-6 3 7 207.473 50.7983 1
-6 3 -3 502.628 84.8576 -2
6 -3 -7 502.628 84.8576 1
-6 3 6 55.9033 36.9982 1
6 -3 -5 197.66 64.7386 1
6 -3 -4 183.593 62.7456 1
6 -3 -3 -41.2337 61.3262 1
6 -3 -2 870.601 68.2389 1
6 -3 -1 207.877 62.0613 1
6 -3 0 38023.8 250.187 1
-6 3 -1 822.782 53.3789 1
-6 3 -2 834.507 54.0071 1
-6 3 -3 500.165 52.9434 1
-6 3 -4 135.755 49.6097 1
-6 3 -5 4210.69 82.4404 1
-6 3 -6 2032.38 70.9972 1
-6 3 -7 1466.07 71.1615 1
-6 3 -8 375.694 65.8934 1
-6 3 -9 0.59692 90.3248 1
-6 3 -10 81.2224 96.5084 1
-6 3 -11 108.038 113.73 1
-6 3 -12 36.1009 123.929 1
-6 3 -13 468.069 137.288 1
-6 3 -14 99.372 137.645 1
-6 3 -15 829.635 165.212 1
6 -3 -20 652.281 218.064 -2
-6 3 -16 652.281 218.064 1
6 -3 -21 885.025 239.575 -2
-6 3 -17 885.025 239.575 1
-6 3 -18 134.331 220.724 1
6 -2 18 377.407 315.659 -2
-6 2 22 377.407 315.659 1
6 -2 17 759.161 273.38 -2
-6 2 21 759.161 273.38 1
6 -2 16 728.882 237.233 -2
-6 2 20 728.882 237.233 1
6 -2 15 276.457 141.419 -2
-6 2 19 276.457 141.419 1
6 -2 14 491.821 125.199 -2
-6 2 18 491.821 125.199 1
6 -2 13 373.641 112.109 -2
-6 2 17 373.641 112.109 1
-6 2 -12 823.618 142.113 -2
6 -2 -16 823.618 142.113 1
-6 2 -11 1722.8 140.671 -2
6 -2 -15 1722.8 140.671 1
-6 2 -10 443.778 117.845 -2
6 -2 -14 443.778 117.845 1
6 -2 9 336.862 74.7858 -2
-6 2 13 336.862 74.7858 1
6 -2 8 210.699 70.4416 -2
-6 2 12 210.699 70.4416 1
6 -2 7 432.586 66.0097 -2
-6 2 11 432.586 66.0097 1
-6 2 -6 317.89 60.7347 -2
6 -2 -10 317.89 60.7347 1
-6 2 -5 1270.4 60.1231 -2
6 -2 -9 1270.4 60.1231 1
6 -2 4 355.488 49.6488 -2
-6 2 8 355.488 49.6488 1
-6 2 -3 10978.2 81.4717 -2
6 -2 -7 10978.2 81.4717 1
-6 2 6 28762.4 124.759 1
-6 2 -2 35656.6 242.069 -2
6 -2 -6 35656.6 242.069 1
-6 2 -1 13394.5 144.91 -2
6 -2 -5 13394.5 144.91 1
-6 2 0 23331.8 184.32 -2
6 -2 -4 23331.8 184.32 1
-6 2 1 390.515 73.9315 -2
6 -2 -3 390.515 73.9315 1
-6 2 2 599.054 77.1808 -2
6 -2 -2 599.054 77.1808 1
-6 2 3 711.291 81.4727 -2
6 -2 -1 711.291 81.4727 1
6 -2 0 32281.8 90.6235 1
6 -2 -4 34540.1 223.306 -2
-6 2 0 34540.1 223.306 1
6 -2 -5 13133.4 160.267 -2
-6 2 -1 13133.4 160.267 1
6 -2 -6 25659 145.451 -2
-6 2 -2 25659 145.451 1
6 -2 -7 6254.2 90.0903 -2
-6 2 -3 6254.2 90.0903 1
6 -2 -8 249.703 61.9169 -2
-6 2 -4 249.703 61.9169 1
6 -2 -9 2078.51 75.5422 -2
-6 2 -5 2078.51 75.5422 1
6 -2 -10 325.458 69.9112 -2
-6 2 -6 325.458 69.9112 1
6 -2 -11 710.003 75.9028 -2
-6 2 -7 710.003 75.9028 1
6 -2 -12 198.639 106.311 -2
-6 2 -8 198.639 106.311 1
6 -2 -13 356.886 114.182 -2
-6 2 -9 356.886 114.182 1
6 -2 -14 415.552 124.556 -2
-6 2 -10 415.552 124.556 1
6 -2 -15 1458.11 149.94 -2
-6 2 -11 1458.11 149.94 1
6 -2 -16 668.921 151.745 -2
-6 2 -12 668.921 151.745 1
6 -2 -17 349.24 153.194 -2
-6 2 -13 349.24 153.194 1
6 -2 -18 300.697 163.851 -2
-6 2 -14 300.697 163.851 1
6 -2 -19 565.67 188.975 -2
-6 2 -15 565.67 188.975 1
6 -2 -20 617.888 212.809 -2
-6 2 -16 617.888 212.809 1
6 -2 -21 310.976 237.076 -2
-6 2 -17 310.976 237.076 1
6 -2 -22 396.069 281.756 -2
-6 2 -18 396.069 281.756 1
6 -1 18 494.833 309.681 -2
-6 1 22 494.833 309.681 1
-6 1 -13 123.434 143.027 -2
6 -1 -17 123.434 143.027 1
-6 1 -12 273.88 130.641 -2
6 -1 -16 273.88 130.641 1
-6 1 -11 511.451 121.569 -2
6 -1 -15 511.451 121.569 1
-6 1 -10 850.145 116.531 -2
6 -1 -14 850.145 116.531 1
-6 1 -9 1602.14 119.414 -2
6 -1 -13 1602.14 119.414 1
-6 1 -8 1909.63 114.988 -2
6 -1 -12 1909.63 114.988 1
-6 1 -7 2637.28 60.1694 -2
6 -1 -11 2637.28 60.1694 1
-6 1 -6 2060.78 105.424 -2
6 -1 -10 2060.78 105.424 1
-6 1 -5 4286.77 121.999 -2
6 -1 -9 4286.77 121.999 1
-6 1 -4 1097.63 54.4984 -2
6 -1 -8 1097.63 54.4984 1
6 -1 3 6964.58 76.0686 -2
-6 1 7 6964.58 76.0686 1
-6 1 -2 15956.2 82.8479 -2
6 -1 -6 15956.2 82.8479 1
-6 1 -1 11151.8 168.836 -2
6 -1 -5 11151.8 168.836 1
-6 1 0 9084.86 149.873 -2
6 -1 -4 9084.86 149.873 1
-6 1 1 4971.59 121.514 -2
6 -1 -3 4971.59 121.514 1
-6 1 2 498.204 76.4603 -2
6 -1 -2 498.204 76.4603 1
6 -1 -3 8183.68 152.275 -2
-6 1 1 8183.68 152.275 1
6 -1 -4 8641.95 161.777 -2
-6 1 0 8641.95 161.777 1
6 -1 -5 5267.23 133.822 -2
-6 1 -1 5267.23 133.822 1
6 -1 -6 8687.45 116.143 -2
-6 1 -2 8687.45 116.143 1
6 -1 -7 3496.71 88.9192 -2
-6 1 -3 3496.71 88.9192 1
6 -1 -8 601.899 65.4128 -2
-6 1 -4 601.899 65.4128 1
6 -1 -9 4876.65 104.613 -2
-6 1 -5 4876.65 104.613 1
6 -1 -10 2334.43 90.2891 -2
-6 1 -6 2334.43 90.2891 1
6 -1 -11 2167.59 124.835 -2
-6 1 -7 2167.59 124.835 1
6 -1 -12 1234.37 120.71 -2
-6 1 -8 1234.37 120.71 1
6 -1 -13 1075.39 99.8082 -2
-6 1 -9 1075.39 99.8082 1
6 -1 -14 836.43 126.825 -2
-6 1 -10 836.43 126.825 1
6 -1 -15 231.694 134.995 -2
-6 1 -11 231.694 134.995 1
6 -1 -16 324.814 141.847 -2
-6 1 -12 324.814 141.847 1
6 -1 -17 331.576 148.404 -2
-6 1 -13 331.576 148.404 1
-6 1 18 401.811 121.555 -2
6 -1 14 401.811 121.555 1
6 -1 -19 145.915 183.884 -2
-6 1 -15 145.915 183.884 1
6 -1 -20 475.023 207.026 -2
-6 1 -16 475.023 207.026 1
6 -1 -21 357.781 246.133 -2
-6 1 -17 357.781 246.133 1
-6 0 -14 1683.07 200.144 -2
6 0 -18 1683.07 200.144 1
-6 0 -13 205.925 167.746 -2
6 0 -17 205.925 167.746 1
-6 0 -12 3778.21 125.294 -2
6 0 -16 3778.21 125.294 1
-6 0 -11 694.205 92.7881 -2
6 0 -15 694.205 92.7881 1
-6 0 -10 156.084 79.9857 -2
6 0 -14 156.084 79.9857 1
-6 0 -9 1240.98 105.436 -2
6 0 -13 1240.98 105.436 1
-6 0 -8 2205.2 106.619 -2
6 0 -12 2205.2 106.619 1
-6 0 -7 8149.57 74.92 -2
6 0 -11 8149.57 74.92 1
-6 0 -6 3379.74 66.0849 -2
6 0 -10 3379.74 66.0849 1
-6 0 -5 932.079 51.7725 -2
6 0 -9 932.079 51.7725 1
-6 0 -4 2255.87 92.7005 -2
6 0 -8 2255.87 92.7005 1
-6 0 -3 528.28 67.0956 -2
6 0 -7 528.28 67.0956 1
-6 0 -2 123.6 26.4655 -2
6 0 -6 123.6 26.4655 1
-6 0 -1 1982 80.9989 -2
6 0 -5 1982 80.9989 1
-6 0 0 6185.2 118.982 -2
6 0 -4 6185.2 118.982 1
-6 0 1 2197.17 83.0422 -2
6 0 -3 2197.17 83.0422 1
6 0 -2 437.226 71.6349 -2
-6 0 2 437.226 71.6349 1
6 0 -3 2542.95 94.449 -2
-6 0 1 2542.95 94.449 1
6 0 -4 7099.94 139.911 -2
-6 0 0 7099.94 139.911 1
6 0 1 3.90548 12.0905 1
6 0 -5 1534.8 90.249 -2
-6 0 -1 1534.8 90.249 1
6 0 -6 164.155 31.4116 -2
-6 0 -2 164.155 31.4116 1
6 0 -7 372.646 60.1561 -2
-6 0 -3 372.646 60.1561 1
6 0 -8 3509.41 88.4538 -2
-6 0 -4 3509.41 88.4538 1
6 0 -9 1235.78 98.7957 -2
-6 0 -5 1235.78 98.7957 1
6 0 -10 4762.47 139.934 -2
-6 0 -6 4762.47 139.934 1
6 0 -11 5140.17 151.049 -2
-6 0 -7 5140.17 151.049 1
6 0 -12 1301.59 114.054 -2
-6 0 -8 1301.59 114.054 1
6 0 -13 2222.71 125.538 -2
-6 0 -9 2222.71 125.538 1
6 0 -14 113.724 119.511 -2
-6 0 -10 113.724 119.511 1
6 0 -15 695.876 137.819 -2
-6 0 -11 695.876 137.819 1
6 0 -16 2343.43 115.735 -2
-6 0 -12 2343.43 115.735 1
-6 0 17 483.031 108.711 -2
6 0 13 483.031 108.711 1
-6 0 18 1250.98 125.081 -2
6 0 14 1250.98 125.081 1
6 0 -19 551.019 187.406 -2
-6 0 -15 551.019 187.406 1
-6 -1 -17 291.798 248.443 -2
6 1 -21 291.798 248.443 1
-6 -1 -16 423.543 229.894 -2
6 1 -20 423.543 229.894 1
-6 -1 -15 226.154 205.883 -2
6 1 -19 226.154 205.883 1
-6 -1 -14 825.667 191.228 -2
6 1 -18 825.667 191.228 1
-6 -1 -13 297.992 172.685 -2
6 1 -17 297.992 172.685 1
-6 -1 -12 631.554 159.174 -2
6 1 -16 631.554 159.174 1
-6 -1 -11 922.733 155.052 -2
6 1 -15 922.733 155.052 1
-6 -1 -10 548.868 137.779 -2
6 1 -14 548.868 137.779 1
-6 -1 -9 1809.83 79.4088 -2
6 1 -13 1809.83 79.4088 1
-6 -1 -8 3064 79.034 -2
6 1 -12 3064 79.034 1
6 1 -11 3503.96 66.2726 1
-6 -1 -7 3456.39 75.3773 -2
6 1 -11 3456.39 75.3773 1
6 1 -10 169.101 50.5977 1
-6 -1 -6 433.716 72.0982 -2
6 1 -10 433.716 72.0982 1
6 1 -9 47.8255 48.8146 1
-6 -1 -5 1952.72 73.7458 -2
6 1 -9 1952.72 73.7458 1
6 1 -8 261.035 55.8012 1
-6 -1 -4 8366.58 104.232 -2
6 1 -8 8366.58 104.232 1
-6 -1 -3 1887.82 50.3593 -2
6 1 -7 1887.82 50.3593 1
-6 -1 -2 576.712 45.6724 -2
6 1 -6 576.712 45.6724 1
6 1 0 478.466 62.684 -2
-6 -1 4 478.466 62.684 1
6 1 -1 1260 67.5661 -2
-6 -1 3 1260 67.5661 1
6 1 -2 714.712 66.515 -2
-6 -1 2 714.712 66.515 1
6 1 -3 1073.3 71.7702 -2
-6 -1 1 1073.3 71.7702 1
6 1 -4 315.361 68.7683 -2
-6 -1 0 315.361 68.7683 1
6 1 -5 1962.06 87.8758 -2
-6 -1 -1 1962.06 87.8758 1
6 1 2 29.915 36.3549 1
6 1 -6 324.599 54.9219 -2
-6 -1 -2 324.599 54.9219 1
-6 -1 -3 2618.78 83.6603 1
-6 -1 7 2740.33 65.6475 -2
6 1 3 2740.33 65.6475 1
6 1 4 15515.8 125.838 1
6 1 -8 14250.1 151.06 -2
-6 -1 -4 14250.1 151.06 1
-6 -1 9 2870.39 64.6397 -2
6 1 5 2870.39 64.6397 1
-6 -1 10 628.871 59.893 -2
6 1 6 628.871 59.893 1
6 1 -11 2184.54 106.392 -2
-6 -1 -7 2184.54 106.392 1
6 1 -12 2405.48 109.274 -2
-6 -1 -8 2405.48 109.274 1
6 1 -13 1243.12 85.4661 -2
-6 -1 -9 1243.12 85.4661 1
-6 -1 14 405.122 87.9554 -2
6 1 10 405.122 87.9554 1
6 1 -15 1475.95 96.0864 -2
-6 -1 -11 1475.95 96.0864 1
6 1 -16 931.961 100.316 -2
-6 -1 -12 931.961 100.316 1
6 1 13 62.1595 117.306 1
6 1 -17 271.196 151.844 -2
-6 -1 -13 271.196 151.844 1
6 1 14 185.919 126.804 1
-6 -1 20 797.265 232.066 -2
6 1 16 797.265 232.066 1
-6 -1 21 526.699 265.647 -2
6 1 17 526.699 265.647 1
-6 -1 22 372.717 313.351 -2
6 1 18 372.717 313.351 1
6 2 -21 138.215 205.732 1
6 2 -20 173.1 185.888 1
6 2 -19 183.259 178.322 1
6 2 -18 441.769 167.321 1
6 2 -17 243.995 151.864 1
6 2 -16 940.938 150.107 1
6 2 -15 184.71 131.223 1
6 2 -14 51.9875 116.753 1
6 2 -13 65.8147 110.422 1
6 2 -12 2063.55 125.287 1
6 2 -11 9041.69 87.0231 1
6 2 -10 4536.53 48.0455 1
6 2 -9 4049.05 51.2049 1
6 2 -8 1578.91 66.7726 1
-6 -2 7 1054.17 40.1046 1
6 2 -6 684.978 37.6806 1
6 2 -5 10.0954 34.1946 1
-6 -2 4 118.329 35.7265 1
-6 -2 3 154.478 39.1478 1
-6 -2 2 2132.65 53.0999 1
6 2 -1 2078.54 55.0324 1
6 2 0 3081.12 95.9682 1
6 2 1 419.804 69.4177 1
6 2 2 38.5342 30.321 1
6 2 3 53.5403 32.5195 1
6 2 4 658.407 38.1059 1
6 2 5 501.755 39.7103 1
6 2 6 223.173 41.8883 1
6 2 7 30.8254 42.5351 1
6 2 8 203.839 48.3047 1
6 2 9 776.706 56.665 1
-6 -2 -10 2243.65 67.7019 1
6 2 11 3785.63 80.4231 1
6 2 12 242.619 83.1436 1
6 2 13 157.23 90.897 1
6 2 14 313.378 104.549 1
6 2 15 5295.4 211.081 1
6 2 16 1296.11 197.682 1
6 2 17 1321.84 224.211 1
6 3 -21 187.384 223.32 1
6 3 -20 255.713 209.554 1
6 3 -19 98.1199 183.876 1
6 3 -18 73.3756 165.087 1
6 3 -17 78.582 145.303 1
-6 -3 -11 2085.11 175.006 -2
6 3 -16 2085.11 175.006 1
-6 -3 -10 2162.04 166.99 -2
6 3 -15 2162.04 166.99 1
-6 -3 -9 3215.22 163.19 -2
6 3 -14 3215.22 163.19 1
-6 -3 -8 1321.34 142.778 -2
6 3 -13 1321.34 142.778 1
-6 -3 -7 1640.47 139.086 -2
6 3 -12 1640.47 139.086 1
6 3 -11 5749.83 96.1621 1
-6 -3 -6 5572.44 157.217 -2
6 3 -11 5572.44 157.217 1
6 3 -10 1620.85 72.1569 1
-6 -3 -5 1314.39 115.313 -2
6 3 -10 1314.39 115.313 1
6 3 -9 2053.84 76.0732 1
6 3 -8 1193.52 70.0228 1
6 3 -7 1717.35 78.3022 1
6 3 -6 936.475 68.7523 1
6 3 -5 144.029 60.3349 1
6 3 -4 417.625 65.3863 1
6 3 -3 576.405 70.1892 1
6 3 -2 1042.16 77.9293 1
6 3 -1 1362.37 82.8913 1
6 3 0 1005.41 84.6399 1
6 3 1 697.143 81.2496 1
6 3 2 116.308 34.1396 1
6 3 3 1017.06 40.5079 1
6 3 4 17.2663 46.2769 1
-6 -3 9 1059.92 82.9839 -2
6 3 4 1059.92 82.9839 1
6 3 5 91.5504 40.198 1
6 3 6 412.142 75.7746 1
6 3 -11 3581.35 81.3266 -2
-6 -3 -6 3581.35 81.3266 1
6 3 7 476.068 62.97 1
6 3 -12 1101.28 100.001 -2
-6 -3 -7 1101.28 100.001 1
6 3 8 45.0453 92.078 1
-6 -3 13 849.98 116.952 -2
6 3 8 849.98 116.952 1
6 3 9 1200.53 108.331 1
-6 -3 14 2464.2 138.403 -2
6 3 9 2464.2 138.403 1
6 3 10 1071.58 114.467 1
-6 -3 15 2120.37 150.824 -2
6 3 10 2120.37 150.824 1
6 3 11 3466.77 139.624 1
-6 -3 16 3228.89 174.742 -2
6 3 11 3228.89 174.742 1
6 3 12 1390.5 135.144 1
-6 -3 17 1640.62 182.016 -2
6 3 12 1640.62 182.016 1
6 3 13 326.848 136.349 1
-6 -3 18 765.274 192.728 -2
6 3 13 765.274 192.728 1
6 3 14 2122.12 163.233 1
-6 -3 19 2552.25 226.754 -2
6 3 14 2552.25 226.754 1
-6 -3 20 683.859 242.135 -2
6 3 15 683.859 242.135 1
-6 -3 21 1251.93 273.99 -2
6 3 16 1251.93 273.99 1
-6 -4 -16 2019.7 289.823 -2
6 4 -21 2019.7 289.823 1
-6 -4 -15 2234.7 264.425 -2
6 4 -20 2234.7 264.425 1
-6 -4 -14 355.138 222.894 -2
6 4 -19 355.138 222.894 1
-6 -4 -13 299.413 198.377 -2
6 4 -18 299.413 198.377 1
-6 -4 -12 164.273 180.949 -2
6 4 -17 164.273 180.949 1
-6 -4 -11 319.417 169.187 -2
6 4 -16 319.417 169.187 1
-6 -4 -10 2015.25 174.144 -2
6 4 -15 2015.25 174.144 1
-6 -4 -9 2642.83 169.899 -2
6 4 -14 2642.83 169.899 1
-6 -4 -8 1322.06 146.126 -2
6 4 -13 1322.06 146.126 1
-6 -4 -7 1385.76 139.758 -2
6 4 -12 1385.76 139.758 1
-6 -4 -6 4253.04 90.9731 -2
6 4 -11 4253.04 90.9731 1
-6 -4 -5 1671.12 73.0413 -2
6 4 -10 1671.12 73.0413 1
-6 -4 -4 1631.19 72.2853 -2
6 4 -9 1631.19 72.2853 1
-6 -4 -3 2726.63 99.384 -2
6 4 -8 2726.63 99.384 1
-6 -4 -2 627.811 86.5051 -2
6 4 -7 627.811 86.5051 1
-6 -4 -1 392.015 87.8619 -2
6 4 -6 392.015 87.8619 1
-6 -4 0 2719.35 103.919 -2
6 4 -5 2719.35 103.919 1
-6 -4 1 475.796 85.6042 -2
6 4 -4 475.796 85.6042 1
-6 -4 2 589.916 88.3444 -2
6 4 -3 589.916 88.3444 1
-6 -4 3 1122.96 96.317 -2
6 4 -2 1122.96 96.317 1
-6 -4 4 320.578 92.128 -2
6 4 -1 320.578 92.128 1
-6 -4 5 1709.45 105.624 -2
6 4 0 1709.45 105.624 1
6 4 -6 312.298 56.1235 -2
-6 -4 -1 312.298 56.1235 1
-6 -4 7 835.594 61.2074 -2
6 4 2 835.594 61.2074 1
-6 -4 8 4428.26 62.0346 -2
6 4 3 4428.26 62.0346 1
-6 -4 9 2323.02 58.5801 -2
6 4 4 2323.02 58.5801 1
-6 -4 10 948.747 77.0754 -2
6 4 5 948.747 77.0754 1
-6 -4 11 3146.48 95.3014 -2
6 4 6 3146.48 95.3014 1
-6 -4 12 543.5 84.3593 -2
6 4 7 543.5 84.3593 1
-6 -4 13 1092.51 91.7798 -2
6 4 8 1092.51 91.7798 1
-6 -4 14 1253.05 100.469 -2
6 4 9 1253.05 100.469 1
-6 -4 15 2164.81 115.299 -2
6 4 10 2164.81 115.299 1
-6 -4 16 374.442 114.129 -2
6 4 11 374.442 114.129 1
-6 -4 17 280.889 123.32 -2
6 4 12 280.889 123.32 1
-6 -4 18 321.488 137.446 -2
6 4 13 321.488 137.446 1
-6 -4 19 708.042 229.072 -2
6 4 14 708.042 229.072 1
-6 -4 20 3849.26 278.547 -2
6 4 15 3849.26 278.547 1
-6 -4 21 3095.76 311.143 -2
6 4 16 3095.76 311.143 1
-6 -5 -15 468.117 266.413 -2
6 5 -20 468.117 266.413 1
-6 -5 -14 810.262 243.605 -2
6 5 -19 810.262 243.605 1
-6 -5 -13 310.769 214.624 -2
6 5 -18 310.769 214.624 1
-6 -5 -12 204.916 193.555 -2
6 5 -17 204.916 193.555 1
-6 -5 -11 605.319 181.506 -2
6 5 -16 605.319 181.506 1
-6 -5 -10 227.309 165.715 -2
6 5 -15 227.309 165.715 1
-6 -5 -9 582.035 156.879 -2
6 5 -14 582.035 156.879 1
-6 -5 -8 320.417 143.54 -2
6 5 -13 320.417 143.54 1
-6 -5 -7 1564.08 155.516 -2
6 5 -12 1564.08 155.516 1
-6 -5 -6 364.239 78.0931 -2
6 5 -11 364.239 78.0931 1
-6 -5 -5 852.801 82.3851 -2
6 5 -10 852.801 82.3851 1
-6 -5 -4 66.0653 70.8154 -2
6 5 -9 66.0653 70.8154 1
-6 -5 -3 1516.98 108.057 -2
6 5 -8 1516.98 108.057 1
-6 -5 -2 1128.9 105.838 -2
6 5 -7 1128.9 105.838 1
-6 -5 -1 2712.84 127.181 -2
6 5 -6 2712.84 127.181 1
-6 -5 0 1878.8 118.339 -2
6 5 -5 1878.8 118.339 1
-6 -5 1 5826.91 165.964 -2
6 5 -4 5826.91 165.964 1
-6 -5 2 11468.5 217.23 -2
6 5 -3 11468.5 217.23 1
-6 -5 3 11942.7 223.331 -2
6 5 -2 11942.7 223.331 1
-6 -5 4 5723.45 171.456 -2
6 5 -1 5723.45 171.456 1
-6 -5 5 1622.37 124.822 -2
6 5 0 1622.37 124.822 1
-6 -5 6 1308.99 63.6075 -2
6 5 1 1308.99 63.6075 1
-6 -5 7 579.776 110.37 -2
6 5 2 579.776 110.37 1
-6 -5 8 783.573 116.185 -2
6 5 3 783.573 116.185 1
-6 -5 9 128.782 73.6314 -2
6 5 4 128.782 73.6314 1
-6 -5 10 1439.41 90.3017 -2
6 5 5 1439.41 90.3017 1
-6 -5 11 526.248 88.8085 -2
6 5 6 526.248 88.8085 1
-6 -5 12 981.974 98.3962 -2
6 5 7 981.974 98.3962 1
-6 -5 13 91.4638 87.8706 -2
6 5 8 91.4638 87.8706 1
-6 -5 14 388.021 105.897 -2
6 5 9 388.021 105.897 1
-6 -5 15 199.617 111.971 -2
6 5 10 199.617 111.971 1
-6 -5 16 777.235 127.904 -2
6 5 11 777.235 127.904 1
-6 -5 17 250.259 132.308 -2
6 5 12 250.259 132.308 1
-6 -5 18 187.899 148.653 -2
6 5 13 187.899 148.653 1
-6 -5 19 1220.7 257.472 -2
6 5 14 1220.7 257.472 1
-6 -5 20 634.526 279.552 -2
6 5 15 634.526 279.552 1
-6 -6 -14 1968.52 273.16 -2
6 6 -19 1968.52 273.16 1
-6 -6 -13 214.301 230.558 -2
6 6 -18 214.301 230.558 1
-6 -6 -12 531.292 214.097 -2
6 6 -17 531.292 214.097 1
-6 -6 -11 135.787 190.076 -2
6 6 -16 135.787 190.076 1
-6 -6 -10 778.48 182.608 -2
6 6 -15 778.48 182.608 1
-6 -6 -9 167.489 166.066 -2
6 6 -14 167.489 166.066 1
-6 -6 -8 367.809 156.844 -2
6 6 -13 367.809 156.844 1
-6 -6 -7 751.964 155.269 -2
6 6 -12 751.964 155.269 1
-6 -6 -6 337.084 86.1289 -2
6 6 -11 337.084 86.1289 1
-6 -6 -5 118.902 81.254 -2
6 6 -10 118.902 81.254 1
-6 -6 -4 1798.34 90.129 -2
6 6 -9 1798.34 90.129 1
-6 -6 -3 912.556 114.347 -2
6 6 -8 912.556 114.347 1
-6 -6 -2 376.695 101.578 -2
6 6 -7 376.695 101.578 1
-6 -6 -1 637.201 109.354 -2
6 6 -6 637.201 109.354 1
-6 -6 0 1299.79 115.48 -2
6 6 -5 1299.79 115.48 1
-6 -6 1 505.938 109.01 -2
6 6 -4 505.938 109.01 1
-6 -6 2 3075.09 141.791 -2
6 6 -3 3075.09 141.791 1
-6 -6 3 6403.92 174.792 -2
6 6 -2 6403.92 174.792 1
-6 -6 4 814.193 116.751 -2
6 6 -1 814.193 116.751 1
-6 -6 5 762.187 122.124 -2
6 6 0 762.187 122.124 1
-6 -6 6 830.123 123.035 -2
6 6 1 830.123 123.035 1
-6 -6 7 558.072 118.002 -2
6 6 2 558.072 118.002 1
-6 -6 8 730.676 124.859 -2
6 6 3 730.676 124.859 1
-6 -6 9 1084.87 137.373 -2
6 6 4 1084.87 137.373 1
-6 -6 10 221.389 129.966 -2
6 6 5 221.389 129.966 1
-6 -6 11 181.249 94.0241 -2
6 6 6 181.249 94.0241 1
-6 -6 12 1324.91 109.022 -2
6 6 7 1324.91 109.022 1
-6 -6 13 402.344 107.284 -2
6 6 8 402.344 107.284 1
-6 -6 14 264.619 113.952 -2
6 6 9 264.619 113.952 1
-6 -6 15 552.069 124.783 -2
6 6 10 552.069 124.783 1
-6 -6 16 394.932 133.273 -2
6 6 11 394.932 133.273 1
-6 -6 17 857.878 150.927 -2
6 6 12 857.878 150.927 1
-6 -6 18 319.948 165.636 -2
6 6 13 319.948 165.636 1
-6 -6 19 3056.6 297.356 -2
6 6 14 3056.6 297.356 1
-6 -7 -13 688.17 260.927 -2
6 7 -18 688.17 260.927 1
-6 -7 -12 599.732 234.848 -2
6 7 -17 599.732 234.848 1
-6 -7 -11 395.818 215.892 -2
6 7 -16 395.818 215.892 1
-6 -7 -10 650.898 201.144 -2
6 7 -15 650.898 201.144 1
-6 -7 -9 931.589 188.214 -2
6 7 -14 931.589 188.214 1
-6 -7 -8 2370.67 186.26 -2
6 7 -13 2370.67 186.26 1
-6 -7 -7 3806.63 190.402 -2
6 7 -12 3806.63 190.402 1
6 7 -11 357.055 103.57 1
-6 -7 -6 2037.24 164.825 -2
6 7 -11 2037.24 164.825 1
6 7 -10 68.0597 96.9984 1
-6 -7 -5 197.722 135.38 -2
6 7 -10 197.722 135.38 1
6 7 -9 892.296 109.087 1
6 7 -8 63.6244 96.2153 1
-6 -7 -2 1139.37 147.848 -2
6 7 -7 1139.37 147.848 1
-6 -7 -1 533.229 122.232 -2
6 7 -6 533.229 122.232 1
-6 -7 0 507.707 115.058 -2
6 7 -5 507.707 115.058 1
-6 -7 1 508.911 115.794 -2
6 7 -4 508.911 115.794 1
-6 -7 2 94.0524 116.876 -2
6 7 -3 94.0524 116.876 1
-6 -7 3 265.089 119.622 -2
6 7 -2 265.089 119.622 1
-6 -7 4 1045.97 124.82 -2
6 7 -1 1045.97 124.82 1
-6 -7 5 984.381 127.653 -2
6 7 0 984.381 127.653 1
-6 -7 6 538.744 128.342 -2
6 7 1 538.744 128.342 1
-6 -7 7 606.977 132.571 -2
6 7 2 606.977 132.571 1
-6 -7 8 820.041 136.907 -2
6 7 3 820.041 136.907 1
-6 -7 9 619.306 137.954 -2
6 7 4 619.306 137.954 1
-6 -7 10 331.957 140.544 -2
6 7 5 331.957 140.544 1
-6 -7 11 3089.5 171.434 -2
6 7 6 3089.5 171.434 1
-6 -7 12 6792.86 143.212 -2
6 7 7 6792.86 143.212 1
-6 -7 13 3818.08 136.165 -2
6 7 8 3818.08 136.165 1
-6 -7 14 1225.69 131.937 -2
6 7 9 1225.69 131.937 1
6 7 10 45.7404 150.307 1
-6 -7 15 563.882 205.851 -2
6 7 10 563.882 205.851 1
-6 -7 16 414.202 147.951 -2
6 7 11 414.202 147.951 1
-6 -7 17 361.204 162.1 -2
6 7 12 361.204 162.1 1
-6 -7 18 922.993 191.799 -2
6 7 13 922.993 191.799 1
6 8 -18 153.307 252.628 1
6 8 -17 422.525 226.013 1
6 8 -16 103.89 205.179 1
6 8 -15 71.3273 193.26 1
6 8 -14 221.16 179.428 1
6 8 -13 148.498 163.046 1
6 8 -12 76.0404 147.033 1
6 8 -11 110.141 132.072 1
6 8 -10 74.2389 113.737 1
6 8 -9 73.3813 109.072 1
6 8 -8 230.836 112.094 1
6 8 -7 552.832 113.185 1
6 8 -6 115.103 107.143 1
6 8 -5 466.494 114.217 1
6 8 -4 328.852 109.96 1
6 8 -3 367.431 110.62 1
6 8 -2 1050.24 119.443 1
6 8 -1 1189.18 121.564 1
6 8 0 761.928 119.559 1
6 8 1 1293.21 127.974 1
6 8 2 1204.31 129.941 1
6 8 3 3500.15 153.988 1
6 8 4 5225.99 178.168 1
6 8 5 1094.09 139.386 1
6 8 6 274.391 131.085 1
6 8 7 1136.46 149.794 1
6 8 8 968.85 156.587 1
6 8 9 31.0203 151.833 1
6 8 10 115.469 171.37 1
-6 -8 15 215.412 226.298 -2
6 8 10 215.412 226.298 1
6 8 11 140.356 188.819 1
-6 -8 16 222.95 258.413 -2
6 8 11 222.95 258.413 1
6 8 12 121.112 206.895 1
-6 -9 -10 425.763 283.186 -2
6 9 -16 425.763 283.186 1
6 9 -14 151.74 192.704 1
6 9 -9 218.496 129.799 1
6 9 -8 251.804 128.017 1
6 9 -7 111.943 122.817 1
-6 -9 0 1679.82 158.703 -2
6 9 -6 1679.82 158.703 1
-6 -9 1 1031.58 155.926 -2
6 9 -5 1031.58 155.926 1
6 9 -4 866.828 128.901 1
6 9 -3 62.7471 120.731 1
-6 -9 4 979.054 179.098 -2
6 9 -2 979.054 179.098 1
6 9 -1 208.136 124.036 1
6 9 0 162.896 126.89 1
6 9 1 234.792 135.08 1
-6 -9 8 2670.11 182.03 -2
6 9 2 2670.11 182.03 1
-6 -9 9 1393.54 181.549 -2
6 9 3 1393.54 181.549 1
-6 -9 10 360.703 177.021 -2
6 9 4 360.703 177.021 1
-6 -9 11 430.858 182.356 -2
6 9 5 430.858 182.356 1
-6 -9 12 1199.04 200.554 -2
6 9 6 1199.04 200.554 1
-6 -9 13 757.726 209.591 -2
6 9 7 757.726 209.591 1
-6 -9 14 341.083 244.378 -2
6 9 8 341.083 244.378 1
-6 -9 15 589.781 286.582 -2
6 9 9 589.781 286.582 1
-6 -9 16 569.173 261.981 -2
6 9 10 569.173 261.981 1
-6 -9 17 370.065 286.062 -2
6 9 11 370.065 286.062 1
-6 -10 -2 532.933 180.803 -2
6 10 -8 532.933 180.803 1
-6 -10 -1 490.129 175.848 -2
6 10 -7 490.129 175.848 1
-6 -10 0 483.347 173.976 -2
6 10 -6 483.347 173.976 1
-6 -10 1 328.28 168.905 -2
6 10 -5 328.28 168.905 1
-6 -10 2 431.561 168.627 -2
6 10 -4 431.561 168.627 1
-6 -10 3 283.447 166.529 -2
6 10 -3 283.447 166.529 1
-6 -10 4 173.532 170.932 -2
6 10 -2 173.532 170.932 1
-6 -10 5 293.267 174.874 -2
6 10 -1 293.267 174.874 1
-6 -10 6 203.126 181.419 -2
6 10 0 203.126 181.419 1
-6 -10 7 832.039 196.931 -2
6 10 1 832.039 196.931 1
-6 -10 8 638.741 195.527 -2
6 10 2 638.741 195.527 1
-6 -10 9 3474.92 238.164 -2
6 10 3 3474.92 238.164 1
-6 -10 10 2922.42 236.747 -2
6 10 4 2922.42 236.747 1
-6 -10 11 2346.68 238.298 -2
6 10 5 2346.68 238.298 1
-6 -10 12 531.162 223.427 -2
6 10 6 531.162 223.427 1
-6 -10 13 620.385 239.654 -2
6 10 7 620.385 239.654 1
-6 -10 14 395.795 252.893 -2
6 10 8 395.795 252.893 1
-6 -10 15 508.369 263.926 -2
6 10 9 508.369 263.926 1
-6 -11 -1 453.09 211.141 -2
6 11 -7 453.09 211.141 1
-6 -11 0 522.651 201.949 -2
6 11 -6 522.651 201.949 1
-6 -11 1 187.31 202.753 -2
6 11 -5 187.31 202.753 1
-6 -11 2 81.1365 198.97 -2
6 11 -4 81.1365 198.97 1
-6 -11 3 149.117 196.659 -2
6 11 -3 149.117 196.659 1
-6 -11 4 299.696 196.622 -2
6 11 -2 299.696 196.622 1
-6 -11 5 311.427 201.82 -2
6 11 -1 311.427 201.82 1
-6 -11 6 329.009 173.302 -2
6 11 0 329.009 173.302 1
-6 -11 7 342.896 208.082 -2
6 11 1 342.896 208.082 1
-6 -11 8 498.24 218.86 -2
6 11 2 498.24 218.86 1
-6 -11 9 173.571 217.466 -2
6 11 3 173.571 217.466 1
-6 -11 10 600.023 233.161 -2
6 11 4 600.023 233.161 1
-6 -11 11 625.844 242.181 -2
6 11 5 625.844 242.181 1
-6 -11 12 182.659 250.205 -2
6 11 6 182.659 250.205 1
-6 -12 2 768.102 235.859 -2
6 12 -4 768.102 235.859 1
-6 -12 3 415.095 234.097 -2
6 12 -3 415.095 234.097 1
-6 -12 4 1065.03 240.474 -2
6 12 -2 1065.03 240.474 1
-6 -12 5 1162.91 244.459 -2
6 12 -1 1162.91 244.459 1
-6 -12 6 638.455 241.031 -2
6 12 0 638.455 241.031 1
-6 -12 7 738.295 245.462 -2
6 12 1 738.295 245.462 1
-6 -12 8 466.08 250.832 -2
6 12 2 466.08 250.832 1
-7 14 -1 696.1 274.357 -2
7 -14 -3 696.1 274.357 1
-7 14 0 1492.37 293.293 -2
7 -14 -2 1492.37 293.293 1
-7 14 1 737.535 287.274 -2
7 -14 -1 737.535 287.274 1
-7 14 2 1193.27 292.942 -2
7 -14 0 1193.27 292.942 1
-7 14 3 958.441 283.008 -2
7 -14 1 958.441 283.008 1
7 -14 -4 495.058 304.591 -2
-7 14 -2 495.058 304.591 1
-7 13 -5 429.362 262.5 -2
7 -13 -8 429.362 262.5 1
-7 13 -4 397.857 252.521 -2
7 -13 -7 397.857 252.521 1
-7 13 -2 2209.53 266.459 -2
7 -13 -5 2209.53 266.459 1
-7 13 -1 1869.27 258.885 -2
7 -13 -4 1869.27 258.885 1
-7 13 0 920.078 235.718 -2
7 -13 -3 920.078 235.718 1
-7 13 1 1085.52 235.999 -2
7 -13 -2 1085.52 235.999 1
-7 13 2 1444.35 246.982 -2
7 -13 -1 1444.35 246.982 1
-7 13 3 870.761 173.434 -2
7 -13 0 870.761 173.434 1
-7 13 4 1214.03 170.518 -2
7 -13 1 1214.03 170.518 1
7 -13 -5 1041.27 174.293 -2
-7 13 -2 1041.27 174.293 1
-7 13 -3 315.898 214.232 1
7 -13 -6 451.549 239.135 -2
-7 13 -3 451.549 239.135 1
-7 13 -4 91.249 213.971 1
7 -13 -7 182.483 250.471 -2
-7 13 -4 182.483 250.471 1
7 -13 -8 331.384 191.366 -2
-7 13 -5 331.384 191.366 1
-7 13 -6 75.0786 231.702 1
7 -13 -9 449.223 289.866 -2
-7 13 -6 449.223 289.866 1
-7 12 -8 1042.42 272.925 -2
7 -12 -11 1042.42 272.925 1
-7 12 -7 160.937 259.001 -2
7 -12 -10 160.937 259.001 1
-7 12 -6 245.358 248.558 -2
7 -12 -9 245.358 248.558 1
-7 12 -5 663.825 226.867 -2
7 -12 -8 663.825 226.867 1
-7 12 -4 519.535 219.155 -2
7 -12 -7 519.535 219.155 1
-7 12 -3 824.859 218.595 -2
7 -12 -6 824.859 218.595 1
-7 12 -2 676.01 218.558 -2
7 -12 -5 676.01 218.558 1
-7 12 -1 1323.41 152.355 -2
7 -12 -4 1323.41 152.355 1
-7 12 0 3299.45 160.651 -2
7 -12 -3 3299.45 160.651 1
-7 12 1 706.738 140.796 -2
7 -12 -2 706.738 140.796 1
-7 12 2 283.43 141.564 -2
7 -12 -1 283.43 141.564 1
-7 12 3 1748.66 152.363 -2
7 -12 0 1748.66 152.363 1
-7 12 4 916.026 150.316 -2
7 -12 1 916.026 150.316 1
7 -12 -5 407.067 147.052 -2
-7 12 -2 407.067 147.052 1
7 -12 -6 487.352 152.681 -2
-7 12 -3 487.352 152.681 1
7 -12 -7 380.616 156.018 -2
-7 12 -4 380.616 156.018 1
7 -12 -8 335.225 155.465 -2
-7 12 -5 335.225 155.465 1
7 -12 -9 500.172 166.599 -2
-7 12 -6 500.172 166.599 1
7 -12 -10 427.806 179.758 -2
-7 12 -7 427.806 179.758 1
7 -12 -11 1815.77 198.26 -2
-7 12 -8 1815.77 198.26 1
7 -12 -12 2131.46 300.645 -2
-7 12 -9 2131.46 300.645 1
-7 11 -10 501.198 268.364 -2
7 -11 -13 501.198 268.364 1
-7 11 -9 1186.77 267.35 -2
7 -11 -12 1186.77 267.35 1
-7 11 -8 1638.79 253.82 -2
7 -11 -11 1638.79 253.82 1
-7 11 -7 559.803 231.347 -2
7 -11 -10 559.803 231.347 1
-7 11 -6 221.082 212.802 -2
7 -11 -9 221.082 212.802 1
-7 11 -5 270.603 215.322 -2
7 -11 -8 270.603 215.322 1
-7 11 -4 657.205 140.239 -2
7 -11 -7 657.205 140.239 1
-7 11 -3 471.602 132.287 -2
7 -11 -6 471.602 132.287 1
-7 11 -2 1973.44 143.758 -2
7 -11 -5 1973.44 143.758 1
-7 11 -1 2309.75 148.22 -2
7 -11 -4 2309.75 148.22 1
-7 11 0 1108.51 137.351 -2
7 -11 -3 1108.51 137.351 1
-7 11 1 238.738 122.11 -2
7 -11 -2 238.738 122.11 1
-7 11 2 262.615 120.875 -2
7 -11 -1 262.615 120.875 1
-7 11 3 934.282 131.454 -2
7 -11 0 934.282 131.454 1
-7 11 4 1527.01 139.85 -2
7 -11 1 1527.01 139.85 1
-7 11 5 1591.59 137.716 -2
7 -11 2 1591.59 137.716 1
7 -11 -6 534.668 134.409 -2
-7 11 -3 534.668 134.409 1
7 -11 -7 833.791 141.062 -2
-7 11 -4 833.791 141.062 1
7 -11 -8 308.821 138.53 -2
-7 11 -5 308.821 138.53 1
7 -11 -9 291.078 139.564 -2
-7 11 -6 291.078 139.564 1
7 -11 -10 792.413 155.032 -2
-7 11 -7 792.413 155.032 1
7 -11 -11 2574.97 180.943 -2
-7 11 -8 2574.97 180.943 1
7 -11 -12 1475.95 182.827 -2
-7 11 -9 1475.95 182.827 1
7 -11 -13 888.325 197.24 -2
-7 11 -10 888.325 197.24 1
7 -11 -14 517.52 206.922 -2
-7 11 -11 517.52 206.922 1
-7 10 -12 468.154 264.844 -2
7 -10 -15 468.154 264.844 1
-7 10 -11 664.773 248.968 -2
7 -10 -14 664.773 248.968 1
-7 10 -10 495.231 232.107 -2
7 -10 -13 495.231 232.107 1
-7 10 -9 383.447 219.923 -2
7 -10 -12 383.447 219.923 1
-7 10 -8 165.887 205.692 -2
7 -10 -11 165.887 205.692 1
-7 10 -7 178.119 201.375 -2
7 -10 -10 178.119 201.375 1
-7 10 -6 376.657 187.492 -2
7 -10 -9 376.657 187.492 1
-7 10 -5 280.006 124.053 -2
7 -10 -8 280.006 124.053 1
-7 10 -4 401.096 123.435 -2
7 -10 -7 401.096 123.435 1
-7 10 -3 1008.8 124.156 -2
7 -10 -6 1008.8 124.156 1
-7 10 -2 1920.44 131.958 -2
7 -10 -5 1920.44 131.958 1
-7 10 -1 562.569 116.175 -2
7 -10 -4 562.569 116.175 1
-7 10 0 3986.7 145.807 -2
7 -10 -3 3986.7 145.807 1
-7 10 1 557.36 114.945 -2
7 -10 -2 557.36 114.945 1
-7 10 2 484.591 111.716 -2
7 -10 -1 484.591 111.716 1
-7 10 3 2037.49 128.982 -2
7 -10 0 2037.49 128.982 1
-7 10 4 597.637 114.949 -2
7 -10 1 597.637 114.949 1
-7 10 5 2103.92 133.247 -2
7 -10 2 2103.92 133.247 1
7 -10 -6 989.556 123.077 -2
-7 10 -3 989.556 123.077 1
7 -10 -7 580.736 123.513 -2
-7 10 -4 580.736 123.513 1
7 -10 -8 295.901 125.3 -2
-7 10 -5 295.901 125.3 1
7 -10 -9 370.605 127.192 -2
-7 10 -6 370.605 127.192 1
7 -10 -10 393.948 132.962 -2
-7 10 -7 393.948 132.962 1
7 -10 -11 232.321 136.39 -2
-7 10 -8 232.321 136.39 1
7 -10 -12 291.925 150.078 -2
-7 10 -9 291.925 150.078 1
7 -10 -13 322.676 168.913 -2
-7 10 -10 322.676 168.913 1
7 -10 -14 576.102 184.11 -2
-7 10 -11 576.102 184.11 1
7 -10 -15 537.148 261.791 -2
-7 10 -12 537.148 261.791 1
-7 9 -13 1044.87 271.735 -2
7 -9 -16 1044.87 271.735 1
-7 9 -12 791.793 247.792 -2
7 -9 -15 791.793 247.792 1
-7 9 -11 350.42 226.959 -2
7 -9 -14 350.42 226.959 1
-7 9 -10 254.235 208.794 -2
7 -9 -13 254.235 208.794 1
-7 9 -9 480.166 197.019 -2
7 -9 -12 480.166 197.019 1
-7 9 -8 1060.66 188.9 -2
7 -9 -11 1060.66 188.9 1
-7 9 -7 4092.67 213.516 -2
7 -9 -10 4092.67 213.516 1
-7 9 -6 5312.92 217.628 -2
7 -9 -9 5312.92 217.628 1
-7 9 -5 1510.06 174.402 -2
7 -9 -8 1510.06 174.402 1
-7 9 -4 347.618 162.29 -2
7 -9 -7 347.618 162.29 1
-7 9 -3 243.367 155.548 -2
7 -9 -6 243.367 155.548 1
-7 9 -2 832.471 104.609 -2
7 -9 -5 832.471 104.609 1
-7 9 -1 1957.47 112.501 -2
7 -9 -4 1957.47 112.501 1
-7 9 0 1600.44 110.956 -2
7 -9 -3 1600.44 110.956 1
-7 9 1 937.261 105.532 -2
7 -9 -2 937.261 105.532 1
-7 9 2 586.799 100.142 -2
7 -9 -1 586.799 100.142 1
-7 9 3 1819.61 111.754 -2
7 -9 0 1819.61 111.754 1
-7 9 4 1680.76 112.682 -2
7 -9 1 1680.76 112.682 1
-7 9 5 1640.6 110.779 -2
7 -9 2 1640.6 110.779 1
7 -9 -6 413.508 105.978 -2
-7 9 -3 413.508 105.978 1
7 -9 -7 217.814 107.737 -2
-7 9 -4 217.814 107.737 1
7 -9 -8 817.803 114.668 -2
-7 9 -5 817.803 114.668 1
7 -9 -9 2788.16 130.6 -2
-7 9 -6 2788.16 130.6 1
7 -9 -10 2718.8 135.8 -2
-7 9 -7 2718.8 135.8 1
7 -9 -11 549.44 125.891 -2
-7 9 -8 549.44 125.891 1
7 -9 -12 263.832 130.073 -2
-7 9 -9 263.832 130.073 1
7 -9 -13 388.217 144.242 -2
-7 9 -10 388.217 144.242 1
7 -9 -14 671.219 161.253 -2
-7 9 -11 671.219 161.253 1
7 -9 -15 1005.52 247.151 -2
-7 9 -12 1005.52 247.151 1
7 -9 -16 799.828 252.153 -2
-7 9 -13 799.828 252.153 1
-7 8 -14 692.702 263.62 -2
7 -8 -17 692.702 263.62 1
-7 8 -13 1699.57 181.716 -2
7 -8 -16 1699.57 181.716 1
7 -8 12 390.129 159.357 -2
-7 8 15 390.129 159.357 1
7 -8 11 2987.75 159.39 -2
-7 8 14 2987.75 159.39 1
7 -8 10 623.708 136.426 -2
-7 8 13 623.708 136.426 1
-7 8 -9 137.212 176.613 -2
7 -8 -12 137.212 176.613 1
-7 8 -8 1566.45 177.332 -2
7 -8 -11 1566.45 177.332 1
-7 8 -7 2172.84 171.559 -2
7 -8 -10 2172.84 171.559 1
-7 8 -6 5533.27 194.608 -2
7 -8 -9 5533.27 194.608 1
-7 8 -5 4670.69 184.321 -2
7 -8 -8 4670.69 184.321 1
-7 8 -4 328.563 143.286 -2
7 -8 -7 328.563 143.286 1
-7 8 -3 307.014 142.078 -2
7 -8 -6 307.014 142.078 1
-7 8 -2 484.066 135.021 -2
7 -8 -5 484.066 135.021 1
-7 8 -1 273.467 135.382 -2
7 -8 -4 273.467 135.382 1
-7 8 0 482.687 92.1483 -2
7 -8 -3 482.687 92.1483 1
7 -8 -2 850.121 111.282 1
7 -8 -1 733.759 128.739 -2
-7 8 2 733.759 128.739 1
7 -8 -1 450.168 100.87 1
7 -8 -2 828.925 135.233 -2
-7 8 1 828.925 135.233 1
-7 8 0 732.972 77.7395 1
7 -8 1 187.15 73.7965 1
7 -8 2 93.1647 98.6014 1
7 -8 -5 406.306 134.847 -2
-7 8 -2 406.306 134.847 1
-7 8 -3 96.5865 109.773 1
7 -8 -6 143.93 130.583 -2
-7 8 -3 143.93 130.583 1
-7 8 -4 146.93 81.4949 1
-7 8 -5 741.382 89.8368 1
-7 8 -6 4957.65 120.097 1
-7 8 -7 100.671 89.6642 1
-7 8 -8 226.194 93.3964 1
-7 8 -9 104.276 98.2892 1
-7 8 -10 553.788 111.369 1
-7 8 -11 201.632 122.692 1
-7 8 -12 198.112 184.605 1
-7 8 -13 796.082 204.05 1
-7 8 -14 274.958 199.785 1
-7 7 -15 254.089 282.586 -2
7 -7 -19 254.089 282.586 1
-7 7 -14 521.482 253.744 -2
7 -7 -18 521.482 253.744 1
-7 7 -13 1927.34 175.862 -2
7 -7 -17 1927.34 175.862 1
-7 7 -12 1419.02 157.369 -2
7 -7 -16 1419.02 157.369 1
-7 7 -11 5375.17 160.326 -2
7 -7 -15 5375.17 160.326 1
-7 7 -10 375.534 126.538 -2
7 -7 -14 375.534 126.538 1
-7 7 -9 630.32 119.692 -2
7 -7 -13 630.32 119.692 1
-7 7 -8 278.397 109.883 -2
7 -7 -12 278.397 109.883 1
-7 7 -7 545.624 150.483 -2
7 -7 -11 545.624 150.483 1
-7 7 -6 1379.08 150.313 -2
7 -7 -10 1379.08 150.313 1
-7 7 -5 78.4034 139.485 -2
7 -7 -9 78.4034 139.485 1
-7 7 -4 744.133 139.209 -2
7 -7 -8 744.133 139.209 1
-7 7 -3 1217.72 136.859 -2
7 -7 -7 1217.72 136.859 1
-7 7 -2 1307.32 139.76 -2
7 -7 -6 1307.32 139.76 1
-7 7 -1 2405.91 137.388 -2
7 -7 -5 2405.91 137.388 1
-7 7 0 1174.06 128.475 -2
7 -7 -4 1174.06 128.475 1
-7 7 1 1960.03 136.13 -2
7 -7 -3 1960.03 136.13 1
-7 7 2 240.462 82.2992 -2
7 -7 -2 240.462 82.2992 1
-7 7 3 2942.13 98.1722 -2
7 -7 -1 2942.13 98.1722 1
7 -7 0 1271.1 108.464 1
7 -7 -4 1618.96 129.85 -2
-7 7 0 1618.96 129.85 1
-7 7 5 4431.21 108.349 -2
7 -7 1 4431.21 108.349 1
-7 7 -2 621.559 106.556 1
-7 7 -3 2366.1 127.42 1
7 -7 -7 2202.47 140.119 -2
-7 7 -3 2202.47 140.119 1
-7 7 -4 1154.44 124.975 1
7 -7 -8 1238.91 136.465 -2
-7 7 -4 1238.91 136.465 1
-7 7 -5 211.267 109.976 1
7 -7 -9 435.658 137.112 -2
-7 7 -5 435.658 137.112 1
-7 7 -6 2444.2 98.8647 1
-7 7 -7 232.242 118.534 1
7 -7 -11 349.629 149.53 -2
-7 7 -7 349.629 149.53 1
-7 7 -8 112.029 122.358 1
7 -7 -12 201.842 152.271 -2
-7 7 -8 201.842 152.271 1
-7 7 -9 845.713 144.302 1
7 -7 -13 965.463 164.668 -2
-7 7 -9 965.463 164.668 1
7 -7 -14 468.607 124.901 -2
-7 7 -10 468.607 124.901 1
7 -7 -15 4379.69 223.85 -2
-7 7 -11 4379.69 223.85 1
7 -7 -16 859.568 221.359 -2
-7 7 -12 859.568 221.359 1
7 -7 -17 1122.67 225.849 -2
-7 7 -13 1122.67 225.849 1
7 -7 -18 510.389 233.672 -2
-7 7 -14 510.389 233.672 1
7 -7 -19 407.943 249.416 -2
-7 7 -15 407.943 249.416 1
-7 6 -16 414.654 297.06 -2
7 -6 -20 414.654 297.06 1
-7 6 -15 432.178 263.779 -2
7 -6 -19 432.178 263.779 1
-7 6 -14 422.616 236.766 -2
7 -6 -18 422.616 236.766 1
-7 6 -13 440.926 156.192 -2
7 -6 -17 440.926 156.192 1
-7 6 -12 2081.68 150.981 -2
7 -6 -16 2081.68 150.981 1
-7 6 -11 4675.97 155.945 -2
7 -6 -15 4675.97 155.945 1
-7 6 -10 635.144 119.888 -2
7 -6 -14 635.144 119.888 1
-7 6 -9 446.011 109.772 -2
7 -6 -13 446.011 109.772 1
-7 6 -8 1128.77 105.647 -2
7 -6 -12 1128.77 105.647 1
-7 6 -7 726 97.856 -2
7 -6 -11 726 97.856 1
-7 6 -6 1740.07 97.4737 -2
7 -6 -10 1740.07 97.4737 1
-7 6 -5 1859.66 144.847 -2
7 -6 -9 1859.66 144.847 1
-7 6 -4 358.739 122.493 -2
7 -6 -8 358.739 122.493 1
-7 6 -3 312.411 120.904 -2
7 -6 -7 312.411 120.904 1
-7 6 -2 1972.31 140.528 -2
7 -6 -6 1972.31 140.528 1
-7 6 -1 1596.03 123.961 -2
7 -6 -5 1596.03 123.961 1
-7 6 0 4450.35 154.814 -2
7 -6 -4 4450.35 154.814 1
-7 6 1 785.798 121.072 -2
7 -6 -3 785.798 121.072 1
-7 6 2 1422.13 119.255 -2
7 -6 -2 1422.13 119.255 1
-7 6 3 639.659 79.0296 -2
7 -6 -1 639.659 79.0296 1
-7 6 4 7097.96 124.473 -2
7 -6 0 7097.96 124.473 1
-7 6 5 1975.75 94.342 -2
7 -6 1 1975.75 94.342 1
7 -6 -6 1377.8 87.1314 -2
-7 6 -2 1377.8 87.1314 1
7 -6 -7 260.752 85.4701 -2
-7 6 -3 260.752 85.4701 1
7 -6 -8 336.389 85.4833 -2
-7 6 -4 336.389 85.4833 1
7 -6 -9 2996.31 107.281 -2
-7 6 -5 2996.31 107.281 1
7 -6 -10 2333.79 106.89 -2
-7 6 -6 2333.79 106.89 1
7 -6 -11 469.483 101.023 -2
-7 6 -7 469.483 101.023 1
7 -6 -12 695.202 106.56 -2
-7 6 -8 695.202 106.56 1
7 -6 -13 342.366 108.744 -2
-7 6 -9 342.366 108.744 1
7 -6 -14 631.728 120.197 -2
-7 6 -10 631.728 120.197 1
7 -6 -15 5585.72 232.056 -2
-7 6 -11 5585.72 232.056 1
7 -6 -16 2248.12 220.662 -2
-7 6 -12 2248.12 220.662 1
7 -6 -17 436.033 208.623 -2
-7 6 -13 436.033 208.623 1
7 -6 -18 732.976 221.855 -2
-7 6 -14 732.976 221.855 1
7 -6 -19 430.261 232.757 -2
-7 6 -15 430.261 232.757 1
-7 5 -16 290.094 280.777 -2
7 -5 -20 290.094 280.777 1
-7 5 -15 268.488 249.205 -2
7 -5 -19 268.488 249.205 1
-7 5 -14 277.367 162.635 -2
7 -5 -18 277.367 162.635 1
-7 5 -13 2212.54 161.498 -2
7 -5 -17 2212.54 161.498 1
-7 5 -12 2359.12 149.809 -2
7 -5 -16 2359.12 149.809 1
7 -5 11 1927.72 133.842 -2
-7 5 15 1927.72 133.842 1
-7 5 -10 2932.25 132.761 -2
7 -5 -14 2932.25 132.761 1
7 -5 9 1055.27 107.471 -2
-7 5 13 1055.27 107.471 1
-7 5 -8 531.34 96.2126 -2
7 -5 -12 531.34 96.2126 1
-7 5 -7 4407.93 121.226 -2
7 -5 -11 4407.93 121.226 1
-7 5 -6 1419.16 90.9086 -2
7 -5 -10 1419.16 90.9086 1
7 -5 5 397.155 78.199 -2
-7 5 9 397.155 78.199 1
-7 5 -4 344.976 116.797 -2
7 -5 -8 344.976 116.797 1
-7 5 -3 1248.12 126.954 -2
7 -5 -7 1248.12 126.954 1
-7 5 -2 1447.97 130.168 -2
7 -5 -6 1447.97 130.168 1
-7 5 -1 3935.11 153.995 -2
7 -5 -5 3935.11 153.995 1
-7 5 0 1850.89 130.329 -2
7 -5 -4 1850.89 130.329 1
-7 5 1 81.5709 104.185 -2
7 -5 -3 81.5709 104.185 1
-7 5 2 186.179 99.6099 -2
7 -5 -2 186.179 99.6099 1
-7 5 3 118.288 99.7507 -2
7 -5 -1 118.288 99.7507 1
-7 5 4 2896.5 102.681 -2
7 -5 0 2896.5 102.681 1
-7 5 5 2013.9 93.3569 -2
7 -5 1 2013.9 93.3569 1
7 -5 -6 1349.12 90.4827 -2
-7 5 -2 1349.12 90.4827 1
7 -5 -7 2102.06 101.53 -2
-7 5 -3 2102.06 101.53 1
7 -5 -8 225.333 81.4677 -2
-7 5 -4 225.333 81.4677 1
7 -5 -9 115.897 82.7953 -2
-7 5 -5 115.897 82.7953 1
7 -5 -10 863.2 96.4408 -2
-7 5 -6 863.2 96.4408 1
7 -5 -11 2179.77 112.17 -2
-7 5 -7 2179.77 112.17 1
7 -5 -12 844.109 106.372 -2
-7 5 -8 844.109 106.372 1
7 -5 -13 1427.14 119.141 -2
-7 5 -9 1427.14 119.141 1
7 -5 -14 4674.56 216.588 -2
-7 5 -10 4674.56 216.588 1
7 -5 -15 3107.55 209.189 -2
-7 5 -11 3107.55 209.189 1
7 -5 -16 3252.49 233.414 -2
-7 5 -12 3252.49 233.414 1
7 -5 -17 2506.28 232.154 -2
-7 5 -13 2506.28 232.154 1
7 -5 -18 200.282 210.48 -2
-7 5 -14 200.282 210.48 1
7 -5 -19 292.49 227.077 -2
-7 5 -15 292.49 227.077 1
7 -5 -20 384.674 258.889 -2
-7 5 -16 384.674 258.889 1
-7 4 -16 227.054 272.385 -2
7 -4 -20 227.054 272.385 1
-7 4 -15 1651.98 251.327 -2
7 -4 -19 1651.98 251.327 1
-7 4 -14 732.747 157.236 -2
7 -4 -18 732.747 157.236 1
-7 4 -13 2873.55 156.56 -2
7 -4 -17 2873.55 156.56 1
-7 4 -12 956.505 128.87 -2
7 -4 -16 956.505 128.87 1
7 -4 11 5959.68 154.373 -2
-7 4 15 5959.68 154.373 1
7 -4 10 2141.82 118.36 -2
-7 4 14 2141.82 118.36 1
-7 4 -9 167.21 92.803 -2
7 -4 -13 167.21 92.803 1
7 -4 8 2411.17 103.582 -2
-7 4 12 2411.17 103.582 1
7 -4 7 2155.33 96.2877 -2
-7 4 11 2155.33 96.2877 1
-7 4 -6 390.659 76.1529 -2
7 -4 -10 390.659 76.1529 1
-7 4 -5 256.409 69.2857 -2
7 -4 -9 256.409 69.2857 1
-7 4 -4 925.503 70.0555 -2
7 -4 -8 925.503 70.0555 1
-7 4 -3 1606.54 126.206 -2
7 -4 -7 1606.54 126.206 1
-7 4 -2 721.403 106.603 -2
7 -4 -6 721.403 106.603 1
-7 4 -1 6787.17 171.895 -2
7 -4 -5 6787.17 171.895 1
-7 4 0 1033.64 113.722 -2
7 -4 -4 1033.64 113.722 1
-7 4 1 520.595 104.023 -2
7 -4 -3 520.595 104.023 1
-7 4 2 100.969 90.8877 -2
7 -4 -2 100.969 90.8877 1
-7 4 3 235.987 98.5127 -2
7 -4 -1 235.987 98.5127 1
-7 4 4 752.546 106.487 -2
7 -4 0 752.546 106.487 1
7 -4 -5 3779.88 98.8715 -2
-7 4 -1 3779.88 98.8715 1
7 -4 -6 1038.35 81.7269 -2
-7 4 -2 1038.35 81.7269 1
7 -4 -7 915.102 81.1941 -2
-7 4 -3 915.102 81.1941 1
7 -4 -8 586.522 82.8126 -2
-7 4 -4 586.522 82.8126 1
7 -4 -9 263.421 79.8644 -2
-7 4 -5 263.421 79.8644 1
7 -4 -10 372.876 83.5961 -2
-7 4 -6 372.876 83.5961 1
7 -4 -11 3747.98 120.216 -2
-7 4 -7 3747.98 120.216 1
7 -4 -12 1220.72 105.946 -2
-7 4 -8 1220.72 105.946 1
7 -4 -13 270.053 102.467 -2
-7 4 -9 270.053 102.467 1
7 -4 -14 3255.86 178.026 -2
-7 4 -10 3255.86 178.026 1
7 -4 -15 9721.37 251.097 -2
-7 4 -11 9721.37 251.097 1
7 -4 -16 1057.19 191.117 -2
-7 4 -12 1057.19 191.117 1
7 -4 -17 2143.83 217.864 -2
-7 4 -13 2143.83 217.864 1
7 -4 -18 850.708 203.404 -2
-7 4 -14 850.708 203.404 1
7 -4 -19 966.721 223.226 -2
-7 4 -15 966.721 223.226 1
7 -4 -20 293.541 246.431 -2
-7 4 -16 293.541 246.431 1
7 -4 -21 493.882 278.154 -2
-7 4 -17 493.882 278.154 1
-7 3 -14 1373.37 209.094 -2
7 -3 -18 1373.37 209.094 1
-7 3 -13 899.943 132.929 -2
7 -3 -17 899.943 132.929 1
-7 3 -12 371.875 116.16 -2
7 -3 -16 371.875 116.16 1
-7 3 -11 449.455 107.112 -2
7 -3 -15 449.455 107.112 1
-7 3 -10 1075.77 100.053 -2
7 -3 -14 1075.77 100.053 1
-7 3 -9 280.123 87.8312 -2
7 -3 -13 280.123 87.8312 1
7 -3 8 1103.95 83.9408 -2
-7 3 12 1103.95 83.9408 1
-7 3 -7 1896.53 81.2611 -2
7 -3 -11 1896.53 81.2611 1
-7 3 -6 323.597 68.4103 -2
7 -3 -10 323.597 68.4103 1
-7 3 -5 858.821 66.1295 -2
7 -3 -9 858.821 66.1295 1
-7 3 8 36.2772 53.9117 1
-7 3 -4 0.41254 96.9344 -2
7 -3 -8 0.41254 96.9344 1
-7 3 -3 226.945 96.3425 -2
7 -3 -7 226.945 96.3425 1
-7 3 -2 676.169 92.9595 -2
7 -3 -6 676.169 92.9595 1
-7 3 -1 489.762 93.6573 -2
7 -3 -5 489.762 93.6573 1
-7 3 0 3028.9 114.362 -2
7 -3 -4 3028.9 114.362 1
-7 3 1 4300.06 117.527 -2
7 -3 -3 4300.06 117.527 1
-7 3 2 1673.7 102.433 -2
7 -3 -2 1673.7 102.433 1
-7 3 3 6363.66 132.854 -2
7 -3 -1 6363.66 132.854 1
7 -3 -4 3541.96 115.668 -2
-7 3 0 3541.96 115.668 1
-7 3 -1 488.304 83.7575 1
7 -3 -5 571.514 95.4646 -2
-7 3 -1 571.514 95.4646 1
-7 3 -2 574.958 82.2353 1
7 -3 -6 689.93 101.408 -2
-7 3 -2 689.93 101.408 1
7 -3 -7 250.439 68.7168 -2
-7 3 -3 250.439 68.7168 1
7 -3 -8 57.4406 71.2273 -2
-7 3 -4 57.4406 71.2273 1
7 -3 -9 666.441 78.645 -2
-7 3 -5 666.441 78.645 1
7 -3 -10 266.785 79.0925 -2
-7 3 -6 266.785 79.0925 1
-7 3 -7 717.371 110.917 1
7 -3 -11 1166.78 127.556 -2
-7 3 -7 1166.78 127.556 1
-7 3 -8 32.6428 112.137 1
7 -3 -12 672.779 128.948 -2
-7 3 -8 672.779 128.948 1
7 -3 -13 208.969 134.455 -2
-7 3 -9 208.969 134.455 1
7 -3 -14 1334.69 143.609 -2
-7 3 -10 1334.69 143.609 1
7 -3 -15 716.313 154.068 -2
-7 3 -11 716.313 154.068 1
7 -3 -16 251.038 168.839 -2
-7 3 -12 251.038 168.839 1
7 -3 -17 721.419 189.495 -2
-7 3 -13 721.419 189.495 1
7 -3 -18 773.503 192.279 -2
-7 3 -14 773.503 192.279 1
7 -3 -19 1716.42 224.772 -2
-7 3 -15 1716.42 224.772 1
7 -3 -20 1459.03 246.498 -2
-7 3 -16 1459.03 246.498 1
7 -3 -21 224.388 271.218 -2
-7 3 -17 224.388 271.218 1
-7 2 17 153.254 134.616 1
-7 2 -13 288.103 173.85 -2
7 -2 -17 288.103 173.85 1
-7 2 16 713.297 128.691 1
-7 2 -12 819.601 157.656 -2
7 -2 -16 819.601 157.656 1
-7 2 15 95.8133 106.739 1
-7 2 -11 545.676 141.753 -2
7 -2 -15 545.676 141.753 1
-7 2 14 107.932 98.2579 1
-7 2 -10 365.135 131.571 -2
7 -2 -14 365.135 131.571 1
-7 2 13 99.7083 88.1805 1
-7 2 -9 1240.91 124.896 -2
7 -2 -13 1240.91 124.896 1
-7 2 12 191.277 84.7048 1
-7 2 -8 261.893 109.561 -2
7 -2 -12 261.893 109.561 1
7 -2 -11 191.554 54.0369 1
7 -2 -10 368.309 51.4824 1
-7 2 9 607.21 47.8754 1
-7 2 8 538.861 42.3483 1
7 -2 -7 7396.02 127.353 1
7 -2 -6 1359.17 83.2555 1
7 -2 -5 19240.3 183.565 1
7 -2 -4 299.128 65.9386 1
7 -2 -3 2995.14 96.151 1
7 -2 -2 144.315 63.7869 1
-7 2 1 2020.45 89.4987 1
-7 2 0 2943.84 103.19 1
-7 2 -1 5173.62 119.943 1
-7 2 -2 344.026 54.1835 1
-7 2 -3 2942.67 77.2748 1
-7 2 -4 17.4998 56.4999 1
-7 2 -5 286.749 61.6655 1
-7 2 -6 20.1786 61.0782 1
-7 2 -7 467.715 69.0625 1
-7 2 -8 29.6542 97.4856 1
-7 2 -9 1967.62 120.829 1
-7 2 -10 110.414 103.32 1
-7 2 -11 484.271 129.47 1
-7 2 -12 154.655 137.708 1
-7 2 -13 104.559 145.576 1
-7 2 -14 54.3446 153.211 1
-7 2 -15 424.135 182.546 1
-7 2 -16 1344.36 218.163 1
-7 1 -11 861.348 144.25 -2
7 -1 -16 861.348 144.25 1
-7 1 -10 2072.8 138.865 -2
7 -1 -15 2072.8 138.865 1
-7 1 -9 1397.8 121.7 -2
7 -1 -14 1397.8 121.7 1
-7 1 13 126.464 85.3597 1
-7 1 -8 209.338 104.334 -2
7 -1 -13 209.338 104.334 1
-7 1 12 643.657 81.5462 1
-7 1 -7 762.637 105.035 -2
7 -1 -12 762.637 105.035 1
-7 1 11 2649.42 57.1538 1
-7 1 -6 2584.57 112.061 -2
7 -1 -11 2584.57 112.061 1
-7 1 10 734.363 66.5206 1
-7 1 -5 1000.1 98.3513 -2
7 -1 -10 1000.1 98.3513 1
-7 1 9 54.1679 50.333 1
-7 1 -4 1620.8 92.967 -2
7 -1 -9 1620.8 92.967 1
-7 1 8 1337.66 44.3227 1
-7 1 -3 2455.49 97.0542 -2
7 -1 -8 2455.49 97.0542 1
-7 1 -2 164.723 82.2465 -2
7 -1 -7 164.723 82.2465 1
-7 1 -1 1015.34 84.1791 -2
7 -1 -6 1015.34 84.1791 1
-7 1 0 3842.52 102.953 -2
7 -1 -5 3842.52 102.953 1
-7 1 1 5801.34 118.481 -2
7 -1 -4 5801.34 118.481 1
-7 1 2 6615 116.361 -2
7 -1 -3 6615 116.361 1
-7 1 2 3817.56 102.023 1
-7 1 1 9637.43 144.127 1
-7 1 0 2995.15 94.6487 1
-7 1 -1 111.921 68.4825 1
7 -1 2 37.4296 21.4646 1
-7 1 -3 1241.04 62.7796 1
-7 1 -4 2278.04 103.742 1
7 -1 -9 2701.67 123.946 -2
-7 1 -4 2701.67 123.946 1
-7 1 -5 354.286 83.2318 1
7 -1 -10 829.007 116.586 -2
-7 1 -5 829.007 116.586 1
-7 1 -6 51.3231 81.1676 1
-7 1 -7 53.9088 86.3443 1
-7 1 -8 117.919 92.798 1
7 -1 -14 2001.48 139.17 -2
-7 1 -9 2001.48 139.17 1
7 -1 -15 3422.61 159.836 -2
-7 1 -10 3422.61 159.836 1
7 -1 -16 1516.48 168.699 -2
-7 1 -11 1516.48 168.699 1
7 -1 -17 392.642 165.642 -2
-7 1 -12 392.642 165.642 1
7 -1 13 331.18 134.245 1
7 -1 -18 700.866 173.351 -2
-7 1 -13 700.866 173.351 1
7 -1 14 251.591 153.293 1
7 -1 -19 588.229 197.048 -2
-7 1 -14 588.229 197.048 1
7 -1 -20 1781.64 231.738 -2
-7 1 -15 1781.64 231.738 1
-7 0 -9 1237.26 121.026 -2
7 0 -14 1237.26 121.026 1
-7 0 -8 177.637 101.966 -2
7 0 -13 177.637 101.966 1
-7 0 -7 479.496 98.892 -2
7 0 -12 479.496 98.892 1
-7 0 -6 870.528 58.6758 -2
7 0 -11 870.528 58.6758 1
-7 0 -5 4998.8 74.3255 -2
7 0 -10 4998.8 74.3255 1
7 0 4 9179.75 65.5081 -2
-7 0 9 9179.75 65.5081 1
-7 0 -3 11586.2 148.012 -2
7 0 -8 11586.2 148.012 1
-7 0 -2 1283.06 82.7137 -2
7 0 -7 1283.06 82.7137 1
-7 0 -1 2645.51 97.9097 -2
7 0 -6 2645.51 97.9097 1
-7 0 0 8672.78 128.579 -2
7 0 -5 8672.78 128.579 1
7 0 -1 5339.3 112.52 -2
-7 0 4 5339.3 112.52 1
7 0 -2 4293.96 113.514 -2
-7 0 3 4293.96 113.514 1
7 0 -3 7818.11 129.691 -2
-7 0 2 7818.11 129.691 1
7 0 -4 10290.4 146.202 -2
-7 0 1 10290.4 146.202 1
7 0 -5 12889.5 162.043 -2
-7 0 0 12889.5 162.043 1
7 0 -6 2614.16 107.659 -2
-7 0 -1 2614.16 107.659 1
7 0 2 0.51168 19.6065 1
7 0 -7 2173.44 76.3723 -2
-7 0 -2 2173.44 76.3723 1
7 0 -8 18732.6 85.7982 -2
-7 0 -3 18732.6 85.7982 1
7 0 -9 15499.4 92.4525 -2
-7 0 -4 15499.4 92.4525 1
-7 0 10 9596.32 96.6015 -2
7 0 5 9596.32 96.6015 1
7 0 -11 1241.59 112.245 -2
-7 0 -6 1241.59 112.245 1
7 0 -12 699.428 116.195 -2
-7 0 -7 699.428 116.195 1
7 0 -13 354.273 118.026 -2
-7 0 -8 354.273 118.026 1
7 0 -14 2055.89 138.681 -2
-7 0 -9 2055.89 138.681 1
7 0 -15 387.31 140.545 -2
-7 0 -10 387.31 140.545 1
7 0 -16 694.146 113.127 -2
-7 0 -11 694.146 113.127 1
-7 0 17 753.603 120.583 -2
7 0 12 753.603 120.583 1
7 0 -18 374.578 124.268 -2
-7 0 -13 374.578 124.268 1
-7 0 19 213.544 207.608 -2
7 0 14 213.544 207.608 1
-7 -1 -6 1642.77 66.9266 -2
7 1 -11 1642.77 66.9266 1
-7 -1 -5 1950.18 65.3868 -2
7 1 -10 1950.18 65.3868 1
-7 -1 -4 2234.84 69.628 -2
7 1 -9 2234.84 69.628 1
-7 -1 -3 4369.35 83.1661 -2
7 1 -8 4369.35 83.1661 1
-7 -1 -2 427.142 54.5664 -2
7 1 -7 427.142 54.5664 1
7 1 1 1012.36 61.9793 -2
-7 -1 6 1012.36 61.9793 1
7 1 0 206.401 73.8777 -2
-7 -1 5 206.401 73.8777 1
7 1 -1 9691.88 151.468 -2
-7 -1 4 9691.88 151.468 1
7 1 -2 9526.74 159.228 -2
-7 -1 3 9526.74 159.228 1
7 1 -3 5355.23 131.381 -2
-7 -1 2 5355.23 131.381 1
7 1 -4 17707.5 210.473 -2
-7 -1 1 17707.5 210.473 1
7 1 -5 194.126 85.3637 -2
-7 -1 0 194.126 85.3637 1
7 1 -6 1843.39 112.176 -2
-7 -1 -1 1843.39 112.176 1
7 1 -7 337.795 65.5608 -2
-7 -1 -2 337.795 65.5608 1
-7 -1 8 7317.09 87.6122 -2
7 1 3 7317.09 87.6122 1
-7 -1 9 1878.1 69.2522 -2
7 1 4 1878.1 69.2522 1
-7 -1 10 3626.7 85.0182 -2
7 1 5 3626.7 85.0182 1
-7 -1 11 1087.23 75.3294 -2
7 1 6 1087.23 75.3294 1
-7 -1 12 349.144 76.1588 -2
7 1 7 349.144 76.1588 1
7 1 -13 274.111 69.2774 -2
-7 -1 -8 274.111 69.2774 1
-7 -1 14 780.299 79.7389 -2
7 1 9 780.299 79.7389 1
-7 -1 15 157.708 83.1228 -2
7 1 10 157.708 83.1228 1
-7 -1 16 249.508 87.1279 -2
7 1 11 249.508 87.1279 1
-7 -1 17 245.49 121.805 -2
7 1 12 245.49 121.805 1
-7 -1 18 616.7 140.35 -2
7 1 13 616.7 140.35 1
-7 -1 19 261.071 151.228 -2
7 1 14 261.071 151.228 1
-7 -2 -6 1037.4 85.2521 -2
7 2 -11 1037.4 85.2521 1
-7 -2 -5 859.049 83.0518 -2
7 2 -10 859.049 83.0518 1
-7 -2 -4 3430.56 105.192 -2
7 2 -9 3430.56 105.192 1
7 2 3 4181.29 71.7566 -2
-7 -2 8 4181.29 71.7566 1
7 2 2 2034.39 63.339 -2
-7 -2 7 2034.39 63.339 1
7 2 1 363.522 53.9454 -2
-7 -2 6 363.522 53.9454 1
7 2 0 1092.27 60.1951 -2
-7 -2 5 1092.27 60.1951 1
7 2 -1 4582.88 84.0645 -2
-7 -2 4 4582.88 84.0645 1
7 2 -2 4322.23 85.3679 -2
-7 -2 3 4322.23 85.3679 1
7 2 -3 2462.44 78.8905 -2
-7 -2 2 2462.44 78.8905 1
7 2 -4 7459.38 110.509 -2
-7 -2 1 7459.38 110.509 1
-7 -2 5 1852.36 123.113 -2
7 2 0 1852.36 123.113 1
-7 -2 6 330.851 103.662 -2
7 2 1 330.851 103.662 1
-7 -2 7 1389.83 77.5466 -2
7 2 2 1389.83 77.5466 1
-7 -2 8 3445.13 63.5922 -2
7 2 3 3445.13 63.5922 1
-7 -2 9 3401.38 69.1199 -2
7 2 4 3401.38 69.1199 1
-7 -2 10 626.39 58.3389 -2
7 2 5 626.39 58.3389 1
-7 -2 11 792.701 64.24 -2
7 2 6 792.701 64.24 1
7 2 -12 702.089 66.7957 -2
-7 -2 -7 702.089 66.7957 1
7 2 -13 365.326 69.785 -2
-7 -2 -8 365.326 69.785 1
-7 -2 14 1059.25 81.5375 -2
7 2 9 1059.25 81.5375 1
-7 -2 15 1152.07 111.349 -2
7 2 10 1152.07 111.349 1
-7 -2 16 1496.62 125.636 -2
7 2 11 1496.62 125.636 1
-7 -2 17 820.009 130.208 -2
7 2 12 820.009 130.208 1
-7 -2 18 3489.04 157.692 -2
7 2 13 3489.04 157.692 1
-7 -2 19 3501.94 228.311 -2
7 2 14 3501.94 228.311 1
-7 -3 -13 595.992 207.96 -2
7 3 -18 595.992 207.96 1
-7 -3 -12 946.436 198.683 -2
7 3 -17 946.436 198.683 1
-7 -3 -11 1208.12 185.479 -2
7 3 -16 1208.12 185.479 1
7 3 -11 76.0109 69.6874 1
7 3 -10 12.417 68.7575 1
7 3 -9 389.974 73.4694 1
7 3 -8 37.5394 70.1399 1
-7 -3 -2 129.216 83.0815 -2
7 3 -7 129.216 83.0815 1
-7 -3 -1 371.988 86.626 -2
7 3 -6 371.988 86.626 1
-7 -3 0 292 91.0594 -2
7 3 -5 292 91.0594 1
-7 -3 1 470.767 97.3839 -2
7 3 -4 470.767 97.3839 1
-7 -3 2 190.318 97.317 -2
7 3 -3 190.318 97.317 1
-7 -3 3 212.412 99.5379 -2
7 3 -2 212.412 99.5379 1
-7 -3 4 644.062 104.421 -2
7 3 -1 644.062 104.421 1
-7 -3 5 209.958 102.379 -2
7 3 0 209.958 102.379 1
-7 -3 6 543.891 104.747 -2
7 3 1 543.891 104.747 1
-7 -3 7 153.73 66.9658 -2
7 3 2 153.73 66.9658 1
-7 -3 8 3654.74 86.7266 -2
7 3 3 3654.74 86.7266 1
-7 -3 9 3644.72 66.0555 -2
7 3 4 3644.72 66.0555 1
7 3 5 1024.06 107.567 1
-7 -3 10 1047.4 70.1129 -2
7 3 5 1047.4 70.1129 1
7 3 -11 628.845 63.9885 -2
-7 -3 -6 628.845 63.9885 1
-7 -3 12 1228.5 91.0348 -2
7 3 7 1228.5 91.0348 1
-7 -3 13 7833.23 125.019 -2
7 3 8 7833.23 125.019 1
-7 -3 14 2888.12 112.631 -2
7 3 9 2888.12 112.631 1
-7 -3 15 4026.21 125.07 -2
7 3 10 4026.21 125.07 1
-7 -3 16 689.256 118.571 -2
7 3 11 689.256 118.571 1
7 3 12 610.916 150.722 1
-7 -3 17 530.47 194.77 -2
7 3 12 530.47 194.77 1
7 3 13 444.081 160.798 1
7 3 14 228.745 176.383 1
7 4 -19 1320.35 205.72 1
7 4 -18 416.872 177.718 1
7 4 -17 -5.05213 160.97 1
7 4 -16 47.5726 145.292 1
7 4 -15 154.898 138.949 1
7 4 -14 456.965 130.152 1
7 4 -11 2146.56 97.0767 1
7 4 -10 414.9 80.8338 1
7 4 -9 523.395 80.2909 1
7 4 -8 28.4609 77.0262 1
7 4 -7 34.7055 76.6796 1
7 4 -6 99.9033 78.2185 1
7 4 -5 1635.42 100.29 1
7 4 -4 475.38 84.5642 1
7 4 -3 554.658 83.7833 1
7 4 -2 18.0484 78.3774 1
7 4 -1 711.833 91.1338 1
7 4 0 2182.39 108.411 1
7 4 1 1146.9 61.419 1
-7 -4 -2 552.432 58.239 1
7 4 3 143.457 92.649 1
7 4 4 56.5334 60.0183 1
7 4 5 240.33 65.0349 1
7 4 6 173.584 68.9678 1
7 4 7 68.3641 73.522 1
7 4 8 1868.45 91.477 1
7 4 9 1258.59 95.4574 1
7 4 10 1007.87 102.482 1
7 4 11 74.6095 136.717 1
7 4 12 436.4 152.898 1
7 4 13 171.74 170.489 1
-7 -5 -13 833.536 254.08 -2
7 5 -19 833.536 254.08 1
-7 -5 -12 401.985 226.638 -2
7 5 -18 401.985 226.638 1
-7 -5 -11 389.046 205.99 -2
7 5 -17 389.046 205.99 1
-7 -5 -10 570.836 194.562 -2
7 5 -16 570.836 194.562 1
-7 -5 -9 1105.53 183.587 -2
7 5 -15 1105.53 183.587 1
7 5 -11 40.5578 88.8282 1
7 5 -10 316.36 88.8266 1
7 5 -9 100.707 86.0972 1
7 5 -8 328.721 87.5149 1
7 5 -7 126.511 86.3349 1
7 5 -6 2651.84 113.529 1
7 5 -5 7413.92 154.485 1
7 5 -4 5950.08 142.193 1
7 5 -3 1493.81 104.79 1
7 5 -2 446.961 94.0385 1
7 5 -1 111.166 92.1975 1
7 5 0 371.804 101.047 1
-7 -5 7 164.804 110.29 -2
7 5 1 164.804 110.29 1
-7 -5 8 1130.7 127.25 -2
7 5 2 1130.7 127.25 1
-7 -5 9 268.787 121.2 -2
7 5 3 268.787 121.2 1
-7 -5 10 388.322 125.747 -2
7 5 4 388.322 125.747 1
-7 -5 11 167.15 131.145 -2
7 5 5 167.15 131.145 1
-7 -5 12 937.44 100.775 -2
7 5 6 937.44 100.775 1
-7 -5 13 2251.61 113.454 -2
7 5 7 2251.61 113.454 1
-7 -5 14 492.453 115.849 -2
7 5 8 492.453 115.849 1
-7 -5 15 792.693 175.494 -2
7 5 9 792.693 175.494 1
-7 -5 16 732.771 186.026 -2
7 5 10 732.771 186.026 1
-7 -5 17 632.296 198.839 -2
7 5 11 632.296 198.839 1
-7 -5 18 222.454 213.968 -2
7 5 12 222.454 213.968 1
-7 -5 19 1217.43 253.338 -2
7 5 13 1217.43 253.338 1
-7 -6 -13 1269.39 283.211 -2
7 6 -19 1269.39 283.211 1
-7 -6 -12 536.882 250.124 -2
7 6 -18 536.882 250.124 1
-7 -6 -11 332.345 228.113 -2
7 6 -17 332.345 228.113 1
-7 -6 -10 190.829 210.989 -2
7 6 -16 190.829 210.989 1
-7 -6 -9 905.115 201.121 -2
7 6 -15 905.115 201.121 1
-7 -6 -5 412.011 127.097 -2
7 6 -11 412.011 127.097 1
-7 -6 -4 1415.48 139.141 -2
7 6 -10 1415.48 139.141 1
-7 -6 -3 1448 133.381 -2
7 6 -9 1448 133.381 1
-7 -6 -2 291.801 119.434 -2
7 6 -8 291.801 119.434 1
-7 -6 -1 541.303 122.447 -2
7 6 -7 541.303 122.447 1
-7 -6 0 511.727 120.981 -2
7 6 -6 511.727 120.981 1
-7 -6 1 529.047 120.293 -2
7 6 -5 529.047 120.293 1
-7 -6 2 174.066 119.28 -2
7 6 -4 174.066 119.28 1
-7 -6 3 166.522 120.993 -2
7 6 -3 166.522 120.993 1
-7 -6 4 397.623 122.868 -2
7 6 -2 397.623 122.868 1
-7 -6 5 244.172 124.567 -2
7 6 -1 244.172 124.567 1
-7 -6 6 450.096 131.074 -2
7 6 0 450.096 131.074 1
-7 -6 7 329.977 130.17 -2
7 6 1 329.977 130.17 1
-7 -6 8 313.279 136.321 -2
7 6 2 313.279 136.321 1
-7 -6 9 821.111 144.474 -2
7 6 3 821.111 144.474 1
-7 -6 10 1368.98 155.772 -2
7 6 4 1368.98 155.772 1
-7 -6 11 246.537 149.888 -2
7 6 5 246.537 149.888 1
-7 -6 12 1575.93 171.705 -2
7 6 6 1575.93 171.705 1
-7 -6 13 2211.37 187.407 -2
7 6 7 2211.37 187.407 1
-7 -6 14 356.663 171.472 -2
7 6 8 356.663 171.472 1
-7 -6 15 989.709 187.925 -2
7 6 9 989.709 187.925 1
-7 -6 16 255.138 197.896 -2
7 6 10 255.138 197.896 1
-7 -6 17 283.975 213.361 -2
7 6 11 283.975 213.361 1
-7 -6 18 257.888 240.101 -2
7 6 12 257.888 240.101 1
-7 -6 19 1525.21 288.346 -2
7 6 13 1525.21 288.346 1
-7 -7 -5 109.402 146.225 -2
7 7 -11 109.402 146.225 1
-7 -7 -4 783.915 148.806 -2
7 7 -10 783.915 148.806 1
-7 -7 -3 803.94 147.37 -2
7 7 -9 803.94 147.37 1
-7 -7 -2 1123.77 172.556 -2
7 7 -8 1123.77 172.556 1
-7 -7 -1 1081.18 148.849 -2
7 7 -7 1081.18 148.849 1
-7 -7 0 471.614 131.099 -2
7 7 -6 471.614 131.099 1
-7 -7 1 219.036 130.446 -2
7 7 -5 219.036 130.446 1
-7 -7 2 720.709 142.631 -2
7 7 -4 720.709 142.631 1
-7 -7 3 1796.73 159.541 -2
7 7 -3 1796.73 159.541 1
-7 -7 4 554.517 140.023 -2
7 7 -2 554.517 140.023 1
-7 -7 5 330.199 139.349 -2
7 7 -1 330.199 139.349 1
-7 -7 6 262.151 140.509 -2
7 7 0 262.151 140.509 1
-7 -7 7 700.603 148.802 -2
7 7 1 700.603 148.802 1
-7 -7 8 453.762 146.157 -2
7 7 2 453.762 146.157 1
-7 -7 9 646.526 157.296 -2
7 7 3 646.526 157.296 1
-7 -7 10 1162.01 171.294 -2
7 7 4 1162.01 171.294 1
-7 -7 11 172.597 162.178 -2
7 7 5 172.597 162.178 1
-7 -7 12 361.27 169.431 -2
7 7 6 361.27 169.431 1
-7 -7 13 973.635 189.941 -2
7 7 7 973.635 189.941 1
-7 -7 14 1139.76 203.095 -2
7 7 8 1139.76 203.095 1
-7 -7 15 637.817 207.379 -2
7 7 9 637.817 207.379 1
-7 -7 16 939.327 230.743 -2
7 7 10 939.327 230.743 1
-7 -7 17 599.572 242.658 -2
7 7 11 599.572 242.658 1
-7 -7 18 409.694 263.25 -2
7 7 12 409.694 263.25 1
-7 -8 -4 346.276 165.447 -2
7 8 -10 346.276 165.447 1
-7 -8 -3 682.86 161.073 -2
7 8 -9 682.86 161.073 1
-7 -8 -2 440.828 151.983 -2
7 8 -8 440.828 151.983 1
-7 -8 -1 304.308 152.489 -2
7 8 -7 304.308 152.489 1
-7 -8 0 414.315 175.164 -2
7 8 -6 414.315 175.164 1
-7 -8 1 739.43 155.562 -2
7 8 -5 739.43 155.562 1
-7 -8 2 288.3 146.864 -2
7 8 -4 288.3 146.864 1
-7 -8 3 1380.77 159.771 -2
7 8 -3 1380.77 159.771 1
-7 -8 4 452.383 151.164 -2
7 8 -2 452.383 151.164 1
-7 -8 5 801.365 156.9 -2
7 8 -1 801.365 156.9 1
-7 -8 6 317.606 155.454 -2
7 8 0 317.606 155.454 1
-7 -8 7 389.563 159.079 -2
7 8 1 389.563 159.079 1
-7 -8 8 705.638 168.873 -2
7 8 2 705.638 168.873 1
-7 -8 9 266.156 167.65 -2
7 8 3 266.156 167.65 1
-7 -8 10 694.003 178.616 -2
7 8 4 694.003 178.616 1
-7 -8 11 300.415 183.645 -2
7 8 5 300.415 183.645 1
-7 -8 12 56.1786 186.77 -2
7 8 6 56.1786 186.77 1
-7 -8 13 292.293 197.257 -2
7 8 7 292.293 197.257 1
-7 -8 14 288.396 211.885 -2
7 8 8 288.396 211.885 1
-7 -8 15 594.159 224.775 -2
7 8 9 594.159 224.775 1
-7 -8 16 348.915 244.816 -2
7 8 10 348.915 244.816 1
-7 -8 17 333.052 279.214 -2
7 8 11 333.052 279.214 1
7 9 -10 444.84 161.942 1
7 9 -9 276.121 152.402 1
-7 -9 -2 325.812 177.345 -2
7 9 -8 325.812 177.345 1
7 9 -7 852.342 152.988 1
7 9 -6 253.618 141.588 1
7 9 -5 302.124 136.98 1
-7 -9 2 557.294 179.059 -2
7 9 -4 557.294 179.059 1
-7 -9 3 704.218 199.656 -2
7 9 -3 704.218 199.656 1
-7 -9 4 101.596 173.37 -2
7 9 -2 101.596 173.37 1
-7 -9 5 656.586 178.896 -2
7 9 -1 656.586 178.896 1
-7 -9 6 428.598 177.839 -2
7 9 0 428.598 177.839 1
-7 -9 7 834.05 182.978 -2
7 9 1 834.05 182.978 1
-7 -9 8 459.4 186.442 -2
7 9 2 459.4 186.442 1
-7 -9 9 514.216 191.277 -2
7 9 3 514.216 191.277 1
-7 -9 10 690.276 199.523 -2
7 9 4 690.276 199.523 1
-7 -9 11 316.174 202.977 -2
7 9 5 316.174 202.977 1
-7 -9 12 397.283 217.676 -2
7 9 6 397.283 217.676 1
-7 -9 13 394.915 227.166 -2
7 9 7 394.915 227.166 1
-7 -9 14 304.463 243.484 -2
7 9 8 304.463 243.484 1
7 9 9 141.834 207.194 1
7 10 -9 40.5674 178.099 1
7 10 -8 314.526 168.934 1
7 10 -7 192.362 163.242 1
7 10 -6 86.0107 160.75 1
7 10 -5 110.562 160.184 1
7 10 -4 777.076 171.425 1
7 10 -3 364.179 160.438 1
7 10 -2 208.269 159.978 1
7 10 -1 80.6288 155.816 1
7 10 0 62.0232 158.22 1
7 10 1 110.161 163.709 1
7 10 2 1327.71 180.738 1
7 10 3 287.137 178.562 1
7 10 4 1191.59 191.331 1
7 10 5 460.679 192.309 1
7 10 6 80.2896 199.982 1
7 11 -7 195.807 194.705 1
7 11 -6 85.4617 189.97 1
-7 -11 2 922.84 232.19 -2
7 11 -5 922.84 232.19 1
-7 -11 3 570.525 222.886 -2
7 11 -4 570.525 222.886 1
-7 -11 4 563.645 226.422 -2
7 11 -3 563.645 226.422 1
-7 -11 5 1498.51 234.275 -2
7 11 -2 1498.51 234.275 1
-7 -11 6 1270.6 234.878 -2
7 11 -1 1270.6 234.878 1
-7 -11 7 582.209 231.478 -2
7 11 0 582.209 231.478 1
-7 -11 8 841.026 235.267 -2
7 11 1 841.026 235.267 1
-7 -11 9 883.321 243.117 -2
7 11 2 883.321 243.117 1
-7 -11 10 446.117 244.996 -2
7 11 3 446.117 244.996 1
-8 13 -3 561.006 283.28 -2
8 -13 -6 561.006 283.28 1
-8 13 -2 307.826 272.241 -2
8 -13 -5 307.826 272.241 1
-8 13 -1 635.084 257.401 -2
8 -13 -4 635.084 257.401 1
-8 13 0 1165.29 264.429 -2
8 -13 -3 1165.29 264.429 1
-8 13 1 1244.55 271.616 -2
8 -13 -2 1244.55 271.616 1
-8 13 2 758.469 189.11 -2
8 -13 -1 758.469 189.11 1
-8 13 3 796.765 190.34 -2
8 -13 0 796.765 190.34 1
8 -13 -4 711.105 189.959 -2
-8 13 -1 711.105 189.959 1
8 -13 -5 353.571 194.741 -2
-8 13 -2 353.571 194.741 1
8 -13 -6 541.22 197.231 -2
-8 13 -3 541.22 197.231 1
8 -13 -7 381.982 198.754 -2
-8 13 -4 381.982 198.754 1
-8 12 -6 1821.06 269.949 -2
8 -12 -9 1821.06 269.949 1
-8 12 -5 653.679 252.09 -2
8 -12 -8 653.679 252.09 1
-8 12 -4 793.844 252.446 -2
8 -12 -7 793.844 252.446 1
-8 12 -3 563.067 252.001 -2
8 -12 -6 563.067 252.001 1
-8 12 -2 447.077 171.205 -2
8 -12 -5 447.077 171.205 1
-8 12 -1 784.011 165.137 -2
8 -12 -4 784.011 165.137 1
-8 12 0 596.773 155.137 -2
8 -12 -3 596.773 155.137 1
-8 12 1 436.366 156.117 -2
8 -12 -2 436.366 156.117 1
-8 12 2 386.118 156.792 -2
8 -12 -1 386.118 156.792 1
-8 12 3 826.072 161.588 -2
8 -12 0 826.072 161.588 1
-8 12 4 581.046 158.262 -2
8 -12 1 581.046 158.262 1
8 -12 -5 394.191 164.94 -2
-8 12 -2 394.191 164.94 1
-8 12 -3 197.433 207.172 1
8 -12 -6 533.812 234.886 -2
-8 12 -3 533.812 234.886 1
8 -12 -7 695.084 174.114 -2
-8 12 -4 695.084 174.114 1
8 -12 -8 671.025 174.471 -2
-8 12 -5 671.025 174.471 1
8 -12 -9 950.317 188.097 -2
-8 12 -6 950.317 188.097 1
-8 12 -7 1181.48 236.471 1
8 -12 -10 1453.35 294.56 -2
-8 12 -7 1453.35 294.56 1
-8 11 -8 472.045 271.612 -2
8 -11 -12 472.045 271.612 1
-8 11 -7 572.541 265.754 -2
8 -11 -11 572.541 265.754 1
-8 11 -6 497.826 240.825 -2
8 -11 -10 497.826 240.825 1
-8 11 -5 319.572 218.817 -2
8 -11 -9 319.572 218.817 1
-8 11 -4 692.766 157.489 -2
8 -11 -8 692.766 157.489 1
-8 11 -3 511.257 150.503 -2
8 -11 -7 511.257 150.503 1
-8 11 -2 2123.69 156.687 -2
8 -11 -6 2123.69 156.687 1
-8 11 -1 2354.61 154.129 -2
8 -11 -5 2354.61 154.129 1
-8 11 0 459.551 140.765 -2
8 -11 -4 459.551 140.765 1
-8 11 1 356.571 137.006 -2
8 -11 -3 356.571 137.006 1
-8 11 2 139.821 134.638 -2
8 -11 -2 139.821 134.638 1
-8 11 3 208.778 135.821 -2
8 -11 -1 208.778 135.821 1
-8 11 4 346.432 139.279 -2
8 -11 0 346.432 139.279 1
-8 11 5 1576.48 142.81 -2
8 -11 1 1576.48 142.81 1
8 -11 -6 1370.77 148.271 -2
-8 11 -2 1370.77 148.271 1
-8 11 -3 210.02 173.278 1
8 -11 -7 657.611 209.692 -2
-8 11 -3 657.611 209.692 1
8 -11 -8 1096.43 158.373 -2
-8 11 -4 1096.43 158.373 1
8 -11 -9 403.477 153.736 -2
-8 11 -5 403.477 153.736 1
-8 11 -6 510.32 188.608 1
8 -11 -10 765.138 226.512 -2
-8 11 -6 765.138 226.512 1
-8 11 -7 316.298 198.378 1
8 -11 -11 678.765 233.331 -2
-8 11 -7 678.765 233.331 1
-8 11 -8 81.3195 208.954 1
8 -11 -12 387.172 254.55 -2
-8 11 -8 387.172 254.55 1
8 -11 -13 562.767 294.494 -2
-8 11 -9 562.767 294.494 1
-8 10 -10 427.178 269.756 -2
8 -10 -14 427.178 269.756 1
-8 10 -9 323.4 253.403 -2
8 -10 -13 323.4 253.403 1
-8 10 -8 145.351 235.734 -2
8 -10 -12 145.351 235.734 1
-8 10 -7 596.74 229.819 -2
8 -10 -11 596.74 229.819 1
-8 10 -6 621.806 231.327 -2
8 -10 -10 621.806 231.327 1
-8 10 -5 229.687 201.923 -2
8 -10 -9 229.687 201.923 1
-8 10 -4 262.531 135.415 -2
8 -10 -8 262.531 135.415 1
-8 10 -3 333.304 131.973 -2
8 -10 -7 333.304 131.973 1
-8 10 -2 188.632 128.259 -2
8 -10 -6 188.632 128.259 1
-8 10 -1 2520.82 149.404 -2
8 -10 -5 2520.82 149.404 1
-8 10 0 4787.49 160.437 -2
8 -10 -4 4787.49 160.437 1
-8 10 1 314.531 120.299 -2
8 -10 -3 314.531 120.299 1
-8 10 2 298.34 121.402 -2
8 -10 -2 298.34 121.402 1
-8 10 3 605.682 129.381 -2
8 -10 -1 605.682 129.381 1
-8 10 4 2600.73 143.095 -2
8 -10 0 2600.73 143.095 1
-8 10 5 1344.2 130.47 -2
8 -10 1 1344.2 130.47 1
8 -10 -6 263.315 126.564 -2
-8 10 -2 263.315 126.564 1
8 -10 -7 308.138 132.934 -2
-8 10 -3 308.138 132.934 1
8 -10 -8 212.715 132.178 -2
-8 10 -4 212.715 132.178 1
8 -10 -9 214.519 136.636 -2
-8 10 -5 214.519 136.636 1
8 -10 -10 1187.79 152.712 -2
-8 10 -6 1187.79 152.712 1
8 -10 -11 487.238 150.91 -2
-8 10 -7 487.238 150.91 1
8 -10 -12 366.916 156.714 -2
-8 10 -8 366.916 156.714 1
8 -10 -13 364.807 172.339 -2
-8 10 -9 364.807 172.339 1
8 -10 -14 437.483 192.697 -2
-8 10 -10 437.483 192.697 1
-8 9 -12 358.291 278.704 -2
8 -9 -16 358.291 278.704 1
-8 9 -11 172.396 260.578 -2
8 -9 -15 172.396 260.578 1
-8 9 -10 813.084 256.749 -2
8 -9 -14 813.084 256.749 1
-8 9 -9 411.447 232.704 -2
8 -9 -13 411.447 232.704 1
-8 9 -8 496.831 218.193 -2
8 -9 -12 496.831 218.193 1
-8 9 -7 390.092 209.425 -2
8 -9 -11 390.092 209.425 1
-8 9 -6 444.802 199.139 -2
8 -9 -10 444.802 199.139 1
-8 9 -5 1584.12 208.343 -2
8 -9 -9 1584.12 208.343 1
-8 9 -4 228.247 176.388 -2
8 -9 -8 228.247 176.388 1
-8 9 -3 1364.54 186.697 -2
8 -9 -7 1364.54 186.697 1
-8 9 -2 4725.56 158.192 -2
8 -9 -6 4725.56 158.192 1
-8 9 -1 1953.39 134.386 -2
8 -9 -5 1953.39 134.386 1
-8 9 0 1552.94 128.636 -2
8 -9 -4 1552.94 128.636 1
-8 9 1 195.34 111.361 -2
8 -9 -3 195.34 111.361 1
-8 9 2 95.7784 107.836 -2
8 -9 -2 95.7784 107.836 1
-8 9 3 340.82 111.204 -2
8 -9 -1 340.82 111.204 1
-8 9 4 2504.22 139.586 -2
8 -9 0 2504.22 139.586 1
-8 9 5 1092.72 124.574 -2
8 -9 1 1092.72 124.574 1
8 -9 -6 2526.21 139.13 -2
-8 9 -2 2526.21 139.13 1
8 -9 -7 720.374 125.676 -2
-8 9 -3 720.374 125.676 1
8 -9 -8 55.1571 121.349 -2
-8 9 -4 55.1571 121.349 1
8 -9 -9 679.593 128.83 -2
-8 9 -5 679.593 128.83 1
8 -9 -10 520.148 136.31 -2
-8 9 -6 520.148 136.31 1
8 -9 -11 316.851 137.947 -2
-8 9 -7 316.851 137.947 1
8 -9 -12 439.156 143.492 -2
-8 9 -8 439.156 143.492 1
8 -9 -13 259.353 152.858 -2
-8 9 -9 259.353 152.858 1
8 -9 -14 536.323 169.773 -2
-8 9 -10 536.323 169.773 1
8 -9 -15 29.6968 261.479 -2
-8 9 -11 29.6968 261.479 1
8 -9 -16 387.941 284.374 -2
-8 9 -12 387.941 284.374 1
-8 8 -13 405.183 280.458 -2
8 -8 -17 405.183 280.458 1
-8 8 -12 301.526 250.233 -2
8 -8 -16 301.526 250.233 1
-8 8 -11 1049.3 246.776 -2
8 -8 -15 1049.3 246.776 1
-8 8 -10 112.397 220.389 -2
8 -8 -14 112.397 220.389 1
-8 8 -9 166.672 205.927 -2
8 -8 -13 166.672 205.927 1
-8 8 -8 546.546 202.737 -2
8 -8 -12 546.546 202.737 1
-8 8 -7 1236.16 201.07 -2
8 -8 -11 1236.16 201.07 1
-8 8 -6 857.213 185.064 -2
8 -8 -10 857.213 185.064 1
-8 8 -5 682.176 179.984 -2
8 -8 -9 682.176 179.984 1
-8 8 -4 448.569 169.634 -2
8 -8 -8 448.569 169.634 1
-8 8 -3 -0.30143 149.387 -2
8 -8 -7 -0.30143 149.387 1
-8 8 -2 2417.18 182.114 -2
8 -8 -6 2417.18 182.114 1
-8 8 -1 1853.99 177.733 -2
8 -8 -5 1853.99 177.733 1
-8 8 0 939.174 111.076 -2
8 -8 -4 939.174 111.076 1
-8 8 1 226.889 101.611 -2
8 -8 -3 226.889 101.611 1
-8 8 2 499.43 104.192 -2
8 -8 -2 499.43 104.192 1
-8 8 3 246.006 105.274 -2
8 -8 -1 246.006 105.274 1
-8 8 4 1053.48 112.858 -2
8 -8 0 1053.48 112.858 1
-8 8 5 1607.11 117.16 -2
8 -8 1 1607.11 117.16 1
8 -8 -6 1167.93 116.088 -2
-8 8 -2 1167.93 116.088 1
8 -8 -7 88.7916 106.175 -2
-8 8 -3 88.7916 106.175 1
8 -8 -8 150.822 109.655 -2
-8 8 -4 150.822 109.655 1
8 -8 -9 687.417 119.652 -2
-8 8 -5 687.417 119.652 1
8 -8 -10 1774.28 135.928 -2
-8 8 -6 1774.28 135.928 1
8 -8 -11 1897.71 142.335 -2
-8 8 -7 1897.71 142.335 1
8 -8 -12 646.698 135.309 -2
-8 8 -8 646.698 135.309 1
8 -8 -13 440.085 138.266 -2
-8 8 -9 440.085 138.266 1
8 -8 -14 149.848 148.929 -2
-8 8 -10 149.848 148.929 1
8 -8 -15 791.15 235.488 -2
-8 8 -11 791.15 235.488 1
8 -8 -16 17.4203 253.496 -2
-8 8 -12 17.4203 253.496 1
8 -8 -17 760.099 271.754 -2
-8 8 -13 760.099 271.754 1
-8 7 -13 791.345 257.699 -2
8 -7 -17 791.345 257.699 1
-8 7 -12 508.48 233.812 -2
8 -7 -16 508.48 233.812 1
-8 7 -11 364.506 209.724 -2
8 -7 -15 364.506 209.724 1
-8 7 -10 253.77 196.734 -2
8 -7 -14 253.77 196.734 1
-8 7 -9 294.921 185.471 -2
8 -7 -13 294.921 185.471 1
-8 7 -8 135.227 177.358 -2
8 -7 -12 135.227 177.358 1
-8 7 -7 270.559 171.983 -2
8 -7 -11 270.559 171.983 1
-8 7 -6 121.734 159.778 -2
8 -7 -10 121.734 159.778 1
-8 7 -5 414.025 158.026 -2
8 -7 -9 414.025 158.026 1
-8 7 -4 365.292 149.508 -2
8 -7 -8 365.292 149.508 1
-8 7 -3 540.024 143.775 -2
8 -7 -7 540.024 143.775 1
-8 7 -2 4295.13 173.916 -2
8 -7 -6 4295.13 173.916 1
-8 7 -1 2315.25 157.571 -2
8 -7 -5 2315.25 157.571 1
-8 7 0 9249.26 211.236 -2
8 -7 -4 9249.26 211.236 1
-8 7 1 19.5114 134.674 -2
8 -7 -3 19.5114 134.674 1
-8 7 2 1971.17 103.936 -2
8 -7 -2 1971.17 103.936 1
-8 7 3 232.652 94.5874 -2
8 -7 -1 232.652 94.5874 1
-8 7 4 15773.1 170.299 -2
8 -7 0 15773.1 170.299 1
-8 7 5 3821.28 116.184 -2
8 -7 1 3821.28 116.184 1
8 -7 -6 5971.81 132.259 -2
-8 7 -2 5971.81 132.259 1
8 -7 -7 620.119 107.248 -2
-8 7 -3 620.119 107.248 1
8 -7 -8 380.534 103.468 -2
-8 7 -4 380.534 103.468 1
8 -7 -9 684.811 106.598 -2
-8 7 -5 684.811 106.598 1
8 -7 -10 549.452 110.788 -2
-8 7 -6 549.452 110.788 1
8 -7 -11 760.972 118.589 -2
-8 7 -7 760.972 118.589 1
8 -7 -12 120.337 120.425 -2
-8 7 -8 120.337 120.425 1
8 -7 -13 223.088 127.259 -2
-8 7 -9 223.088 127.259 1
8 -7 -14 258.323 137.753 -2
-8 7 -10 258.323 137.753 1
8 -7 -15 341.672 207.23 -2
-8 7 -11 341.672 207.23 1
8 -7 -16 500.461 235.621 -2
-8 7 -12 500.461 235.621 1
8 -7 -17 866.173 261.944 -2
-8 7 -13 866.173 261.944 1
-8 6 -15 1048.22 308.019 -2
8 -6 -19 1048.22 308.019 1
-8 6 -14 535.593 266.998 -2
8 -6 -18 535.593 266.998 1
-8 6 -13 619.033 240.283 -2
8 -6 -17 619.033 240.283 1
-8 6 -12 1820.18 225.248 -2
8 -6 -16 1820.18 225.248 1
-8 6 -11 1262.03 204.181 -2
8 -6 -15 1262.03 204.181 1
-8 6 -10 479.773 186.388 -2
8 -6 -14 479.773 186.388 1
-8 6 -9 686.436 173.866 -2
8 -6 -13 686.436 173.866 1
-8 6 -8 790.046 167.737 -2
8 -6 -12 790.046 167.737 1
-8 6 -7 438.397 157.601 -2
8 -6 -11 438.397 157.601 1
-8 6 -6 211.323 146.537 -2
8 -6 -10 211.323 146.537 1
-8 6 -5 2559.54 165.266 -2
8 -6 -9 2559.54 165.266 1
-8 6 -4 2800.54 158.305 -2
8 -6 -8 2800.54 158.305 1
-8 6 -3 667.277 132.04 -2
8 -6 -7 667.277 132.04 1
-8 6 -2 610.886 129.36 -2
8 -6 -6 610.886 129.36 1
8 -6 -5 3570.15 140.877 1
8 -6 -4 282.486 100.117 1
8 -6 -3 372.276 96.5699 1
8 -6 -2 1060.51 105.28 1
8 -6 -1 390.731 70.6042 1
-8 6 0 3712.85 97.2481 1
-8 6 -1 1059.42 80.0649 1
-8 6 -2 30.0995 74.2052 1
-8 6 -3 391.582 82.5688 1
-8 6 -4 2469.38 96.3226 1
-8 6 -5 2719.97 99.4641 1
-8 6 -6 118.354 83.1134 1
-8 6 -7 84.3449 88.6078 1
-8 6 -8 54.0633 94.7908 1
-8 6 -9 939.275 104.474 1
-8 6 -10 599.574 107.573 1
-8 6 -11 802.553 167.788 1
-8 6 -12 166.922 182.56 1
-8 6 -13 153.964 197.119 1
-8 6 -14 269.198 216.28 1
-8 5 -14 468.788 266.985 -2
8 -5 -19 468.788 266.985 1
-8 5 -13 4042.53 262.816 -2
8 -5 -18 4042.53 262.816 1
-8 5 -12 679.354 215.196 -2
8 -5 -17 679.354 215.196 1
-8 5 -11 4402.98 221.455 -2
8 -5 -16 4402.98 221.455 1
-8 5 -10 2570.18 195.137 -2
8 -5 -15 2570.18 195.137 1
-8 5 -9 3734 192.628 -2
8 -5 -14 3734 192.628 1
-8 5 -8 630.914 159.865 -2
8 -5 -13 630.914 159.865 1
-8 5 -7 2946.24 174.075 -2
8 -5 -12 2946.24 174.075 1
-8 5 -6 2061.63 159.615 -2
8 -5 -11 2061.63 159.615 1
-8 5 -5 739.658 143.963 -2
8 -5 -10 739.658 143.963 1
-8 5 -4 13.4614 132.492 -2
8 -5 -9 13.4614 132.492 1
-8 5 -3 210.244 118.927 -2
8 -5 -8 210.244 118.927 1
-8 5 -2 239.466 118.769 -2
8 -5 -7 239.466 118.769 1
-8 5 -1 1487.28 130.732 -2
8 -5 -6 1487.28 130.732 1
-8 5 0 1403.84 132.791 -2
8 -5 -5 1403.84 132.791 1
-8 5 1 352.68 116.924 -2
8 -5 -4 352.68 116.924 1
-8 5 2 651.724 116.095 -2
8 -5 -3 651.724 116.095 1
-8 5 3 985.087 125.436 -2
8 -5 -2 985.087 125.436 1
-8 5 4 963.061 125.693 -2
8 -5 -1 963.061 125.693 1
-8 5 0 1275.5 106.595 1
8 -5 -6 1295.2 91.7269 -2
-8 5 -1 1295.2 91.7269 1
-8 5 -2 136.459 106.579 1
8 -5 -7 167.232 120.881 -2
-8 5 -2 167.232 120.881 1
-8 5 -3 419.161 101.573 1
8 -5 -8 553.713 130.624 -2
-8 5 -3 553.713 130.624 1
8 -5 -9 -34.8145 91.8204 -2
-8 5 -4 -34.8145 91.8204 1
-8 5 -5 216.551 108.402 1
8 -5 -10 452.414 138.195 -2
-8 5 -5 452.414 138.195 1
-8 5 -6 923.418 121.691 1
8 -5 -11 1651.04 153.933 -2
-8 5 -6 1651.04 153.933 1
-8 5 -7 370.37 127.391 1
8 -5 -12 1327.96 158.272 -2
-8 5 -7 1327.96 158.272 1
-8 5 -8 500.786 129.758 1
8 -5 -13 747.942 166.731 -2
-8 5 -8 747.942 166.731 1
8 -5 -14 6727.54 154.317 -2
-8 5 -9 6727.54 154.317 1
8 -5 -15 4016.1 198.558 -2
-8 5 -10 4016.1 198.558 1
8 -5 -16 5774.16 231.367 -2
-8 5 -11 5774.16 231.367 1
8 -5 -17 423.346 219.666 -2
-8 5 -12 423.346 219.666 1
8 -5 -18 2341.28 246.772 -2
-8 5 -13 2341.28 246.772 1
8 -5 -19 410.279 247.653 -2
-8 5 -14 410.279 247.653 1
-8 4 -13 3900.91 256.089 -2
8 -4 -18 3900.91 256.089 1
-8 4 -12 816.226 206.894 -2
8 -4 -17 816.226 206.894 1
-8 4 -11 6258.03 236.425 -2
8 -4 -16 6258.03 236.425 1
-8 4 -10 709.509 173.502 -2
8 -4 -15 709.509 173.502 1
-8 4 -9 2700.42 183.9 -2
8 -4 -14 2700.42 183.9 1
-8 4 -8 1107.09 163.105 -2
8 -4 -13 1107.09 163.105 1
-8 4 -7 958.508 148.657 -2
8 -4 -12 958.508 148.657 1
-8 4 -6 249.944 135.323 -2
8 -4 -11 249.944 135.323 1
-8 4 -5 5984.4 193.209 -2
8 -4 -10 5984.4 193.209 1
-8 4 -4 168.26 123.086 -2
8 -4 -9 168.26 123.086 1
-8 4 -3 1575.69 132.766 -2
8 -4 -8 1575.69 132.766 1
-8 4 -2 103.143 111.706 -2
8 -4 -7 103.143 111.706 1
-8 4 -1 381.163 115.12 -2
8 -4 -6 381.163 115.12 1
-8 4 0 731.08 119.44 -2
8 -4 -5 731.08 119.44 1
-8 4 1 965.26 116.596 -2
8 -4 -4 965.26 116.596 1
-8 4 2 815.776 116.562 -2
8 -4 -3 815.776 116.562 1
-8 4 3 1471.29 128.755 -2
8 -4 -2 1471.29 128.755 1
-8 4 4 1639.81 122.028 -2
8 -4 -1 1639.81 122.028 1
8 -4 -5 333.611 80.6419 -2
-8 4 0 333.611 80.6419 1
8 -4 -6 266.731 80.6741 -2
-8 4 -1 266.731 80.6741 1
8 -4 -7 164.595 80.7065 -2
-8 4 -2 164.595 80.7065 1
8 -4 -8 2552.89 101.522 -2
-8 4 -3 2552.89 101.522 1
8 -4 -9 217.052 87.8519 -2
-8 4 -4 217.052 87.8519 1
8 -4 -10 9526.97 149.585 -2
-8 4 -5 9526.97 149.585 1
8 -4 -11 165.605 95.4862 -2
-8 4 -6 165.605 95.4862 1
8 -4 -12 1500.15 109.133 -2
-8 4 -7 1500.15 109.133 1
8 -4 -13 787.409 113.262 -2
-8 4 -8 787.409 113.262 1
8 -4 -14 3702.33 197.072 -2
-8 4 -9 3702.33 197.072 1
8 -4 -15 615.234 170.336 -2
-8 4 -10 615.234 170.336 1
8 -4 -16 6284.66 241.376 -2
-8 4 -11 6284.66 241.376 1
8 -4 -17 684.017 214.159 -2
-8 4 -12 684.017 214.159 1
8 -4 -18 2229.28 240.779 -2
-8 4 -13 2229.28 240.779 1
8 -4 -19 851.652 240.404 -2
-8 4 -14 851.652 240.404 1
8 -4 -20 334.875 259.269 -2
-8 4 -15 334.875 259.269 1
-8 3 -12 2211.76 216.592 -2
8 -3 -17 2211.76 216.592 1
-8 3 -11 293.434 177.425 -2
8 -3 -16 293.434 177.425 1
-8 3 -10 423.911 162.767 -2
8 -3 -15 423.911 162.767 1
-8 3 -9 4750.84 206.873 -2
8 -3 -14 4750.84 206.873 1
-8 3 -8 954.121 152.316 -2
8 -3 -13 954.121 152.316 1
-8 3 -7 2006.8 158.228 -2
8 -3 -12 2006.8 158.228 1
-8 3 -6 519.752 133.989 -2
8 -3 -11 519.752 133.989 1
-8 3 -5 496.783 125.356 -2
8 -3 -10 496.783 125.356 1
-8 3 -4 2170.47 138.363 -2
8 -3 -9 2170.47 138.363 1
-8 3 -3 2267.51 138.626 -2
8 -3 -8 2267.51 138.626 1
-8 3 -2 2061.47 141.376 -2
8 -3 -7 2061.47 141.376 1
-8 3 -1 925.686 120.859 -2
8 -3 -6 925.686 120.859 1
-8 3 0 2591.73 134.787 -2
8 -3 -5 2591.73 134.787 1
-8 3 1 145.987 104.917 -2
8 -3 -4 145.987 104.917 1
-8 3 2 5464.23 180.195 -2
8 -3 -3 5464.23 180.195 1
-8 3 3 5749.54 185.697 -2
8 -3 -2 5749.54 185.697 1
8 -3 -4 138.984 103.766 -2
-8 3 1 138.984 103.766 1
8 -3 -5 3285.95 153.682 -2
-8 3 0 3285.95 153.682 1
8 -3 -6 533.152 81.2937 -2
-8 3 -1 533.152 81.2937 1
8 -3 -7 1462.87 95.6907 -2
-8 3 -2 1462.87 95.6907 1
8 -3 -8 1426.33 95.6336 -2
-8 3 -3 1426.33 95.6336 1
8 -3 -9 1414.42 100.4 -2
-8 3 -4 1414.42 100.4 1
8 -3 -10 721.904 94.2593 -2
-8 3 -5 721.904 94.2593 1
8 -3 -11 301.929 88.4055 -2
-8 3 -6 301.929 88.4055 1
8 -3 -12 1077.86 110.678 -2
-8 3 -7 1077.86 110.678 1
8 -3 -13 1634.68 166.707 -2
-8 3 -8 1634.68 166.707 1
8 -3 -14 7880.75 249.127 -2
-8 3 -9 7880.75 249.127 1
8 -3 -15 467.223 165.478 -2
-8 3 -10 467.223 165.478 1
8 -3 -16 396.579 181.157 -2
-8 3 -11 396.579 181.157 1
8 -3 -17 1268.96 217.823 -2
-8 3 -12 1268.96 217.823 1
8 -3 -18 214.226 215.935 -2
-8 3 -13 214.226 215.935 1
8 -3 -19 806.855 233.76 -2
-8 3 -14 806.855 233.76 1
8 -3 -20 236.565 258.228 -2
-8 3 -15 236.565 258.228 1
-8 2 -10 3279.62 186.567 -2
8 -2 -15 3279.62 186.567 1
-8 2 -9 4242.15 184.764 -2
8 -2 -14 4242.15 184.764 1
-8 2 -8 773.756 138.486 -2
8 -2 -13 773.756 138.486 1
-8 2 -7 494.189 130.404 -2
8 -2 -12 494.189 130.404 1
-8 2 -6 214.902 115.834 -2
8 -2 -11 214.902 115.834 1
-8 2 -5 434.987 111.782 -2
8 -2 -10 434.987 111.782 1
-8 2 -4 5115.37 159.522 -2
8 -2 -9 5115.37 159.522 1
-8 2 -3 12925.8 224.655 -2
8 -2 -8 12925.8 224.655 1
-8 2 -2 16387.4 245.314 -2
8 -2 -7 16387.4 245.314 1
-8 2 -1 105.922 94.3959 -2
8 -2 -6 105.922 94.3959 1
-8 2 0 644.863 106.264 -2
8 -2 -5 644.863 106.264 1
-8 2 1 126.542 98.5598 -2
8 -2 -4 126.542 98.5598 1
-8 2 2 601.927 103.531 -2
8 -2 -3 601.927 103.531 1
8 -2 -3 497.841 105.576 -2
-8 2 2 497.841 105.576 1
8 -2 -4 170.803 103.784 -2
-8 2 1 170.803 103.784 1
8 -2 -5 437.359 106.497 -2
-8 2 0 437.359 106.497 1
8 -2 -6 174.312 73.3319 -2
-8 2 -1 174.312 73.3319 1
8 -2 -7 9204.29 138.224 -2
-8 2 -2 9204.29 138.224 1
8 -2 -8 7409.33 132.582 -2
-8 2 -3 7409.33 132.582 1
8 -2 -9 2776.78 106.32 -2
-8 2 -4 2776.78 106.32 1
8 -2 -10 536.675 90.0764 -2
-8 2 -5 536.675 90.0764 1
8 -2 -11 337.889 93.3941 -2
-8 2 -6 337.889 93.3941 1
8 -2 -12 495.39 139.139 -2
-8 2 -7 495.39 139.139 1
8 -2 -13 1044.07 153.941 -2
-8 2 -8 1044.07 153.941 1
8 -2 -14 4681.72 195.321 -2
-8 2 -9 4681.72 195.321 1
8 -2 -15 5563.28 203.398 -2
-8 2 -10 5563.28 203.398 1
8 -2 -16 2778.99 202.791 -2
-8 2 -11 2778.99 202.791 1
8 -2 -17 333.212 198.376 -2
-8 2 -12 333.212 198.376 1
8 -2 -18 1055.18 216.06 -2
-8 2 -13 1055.18 216.06 1
8 -2 -19 372.235 165.413 -2
-8 2 -14 372.235 165.413 1
8 -2 -20 231.807 258.518 -2
-8 2 -15 231.807 258.518 1
-8 1 -8 1648.12 132.976 -2
8 -1 -13 1648.12 132.976 1
-8 1 -7 2192.4 125.554 -2
8 -1 -12 2192.4 125.554 1
-8 1 -6 1164.51 113.177 -2
8 -1 -11 1164.51 113.177 1
-8 1 -5 293.086 105.413 -2
8 -1 -10 293.086 105.413 1
-8 1 -4 969.082 106.039 -2
8 -1 -9 969.082 106.039 1
-8 1 -3 1404.11 102.599 -2
8 -1 -8 1404.11 102.599 1
-8 1 -2 763.183 96.302 -2
8 -1 -7 763.183 96.302 1
-8 1 -1 591.619 95.2207 -2
8 -1 -6 591.619 95.2207 1
-8 1 0 1391.15 102.818 -2
8 -1 -5 1391.15 102.818 1
8 -1 -1 51.8462 91.7477 -2
-8 1 4 51.8462 91.7477 1
8 -1 -2 107.853 93.3937 -2
-8 1 3 107.853 93.3937 1
8 -1 -3 212.291 93.9534 -2
-8 1 2 212.291 93.9534 1
8 -1 -4 264.088 93.2267 -2
-8 1 1 264.088 93.2267 1
8 -1 -5 1594.64 109.874 -2
-8 1 0 1594.64 109.874 1
8 -1 -6 952.297 107.918 -2
-8 1 -1 952.297 107.918 1
8 -1 -7 638.393 77.4684 -2
-8 1 -2 638.393 77.4684 1
8 -1 -8 932.262 82.6272 -2
-8 1 -3 932.262 82.6272 1
8 -1 -9 1310.44 87.1806 -2
-8 1 -4 1310.44 87.1806 1
8 -1 -10 157.747 86.5231 -2
-8 1 -5 157.747 86.5231 1
8 -1 -11 726.173 123.172 -2
-8 1 -6 726.173 123.172 1
8 -1 -12 1392.67 136.427 -2
-8 1 -7 1392.67 136.427 1
8 -1 -13 2388.77 152.816 -2
-8 1 -8 2388.77 152.816 1
8 -1 -14 3635.12 166.903 -2
-8 1 -9 3635.12 166.903 1
8 -1 -15 441.182 159.611 -2
-8 1 -10 441.182 159.611 1
8 -1 -16 424.08 181.995 -2
-8 1 -11 424.08 181.995 1
8 -1 12 11.0827 145.781 1
8 -1 -17 189.166 197.398 -2
-8 1 -12 189.166 197.398 1
8 -1 13 154.956 161.249 1
8 -1 -18 319.733 201.842 -2
-8 1 -13 319.733 201.842 1
8 -1 14 815.882 187.733 1
-8 0 -6 522.03 106.332 -2
8 0 -11 522.03 106.332 1
8 0 -10 81.7491 75.4896 1
-8 0 -5 1217.83 101.197 -2
8 0 -10 1217.83 101.197 1
8 0 -9 877.378 80.2521 1
-8 0 -4 1653.53 99.3565 -2
8 0 -9 1653.53 99.3565 1
8 0 -8 276.751 69.3001 1
8 0 -7 8442.94 125.177 1
-8 0 6 256.17 72.9998 1
-8 0 5 33.9636 72.4061 1
-8 0 4 129.227 72.5262 1
-8 0 3 17.9455 68.3837 1
-8 0 2 123.681 70.9895 1
-8 0 1 4043.11 111.307 1
-8 0 0 1688.73 96.0832 1
-8 0 -1 2235.45 73.8524 1
-8 0 -2 783.086 66.1271 1
-8 0 -3 427.719 64.9283 1
-8 0 -4 1275.1 103.95 1
-8 0 -5 1961.18 108.841 1
-8 0 -6 430.103 97.5824 1
-8 0 -7 169.338 102.569 1
-8 0 -8 1476.91 120.377 1
-8 0 -9 914.68 119.327 1
-8 0 -10 438.543 92.7194 1
-8 0 -11 94.8967 99.6184 1
8 0 12 94.2123 155.086 1
8 0 13 353.883 172.721 1
8 0 14 186.049 188.794 1
8 1 -11 573.839 82.6147 1
8 1 -10 202.027 73.766 1
8 1 -9 70.9883 74.3643 1
8 1 3 216.895 88.7327 -2
-8 -1 9 216.895 88.7327 1
8 1 -8 58.9498 78.3124 1
8 1 2 287.121 88.006 -2
-8 -1 8 287.121 88.006 1
8 1 -7 69.6264 77.1734 1
8 1 1 465.209 88.2025 -2
-8 -1 7 465.209 88.2025 1
8 1 -6 678.949 82.354 1
8 1 0 665.155 84.8705 -2
-8 -1 6 665.155 84.8705 1
8 1 -5 396.683 80.5387 1
8 1 -1 330.604 86.9499 -2
-8 -1 5 330.604 86.9499 1
8 1 -2 3443.9 106.923 -2
-8 -1 4 3443.9 106.923 1
8 1 -3 10931 145.902 -2
-8 -1 3 10931 145.902 1
8 1 -4 5745.5 125.266 -2
-8 -1 2 5745.5 125.266 1
8 1 -5 313.585 95.4799 -2
-8 -1 1 313.585 95.4799 1
8 1 -6 330.839 100.604 -2
-8 -1 0 330.839 100.604 1
-8 -1 -1 643.455 83.5102 1
8 1 -7 767.852 108.366 -2
-8 -1 -1 767.852 108.366 1
-8 -1 -2 297.579 83.6349 1
-8 -1 -3 36.4462 81.6684 1
-8 -1 -4 93.4596 86.2517 1
-8 -1 -5 81.1689 87.1027 1
-8 -1 -6 806.828 102.541 1
-8 -1 13 282.012 98.9596 -2
8 1 7 282.012 98.9596 1
8 1 -14 326.148 103.583 -2
-8 -1 -8 326.148 103.583 1
8 1 -15 167.852 111.88 -2
-8 -1 -9 167.852 111.88 1
-8 -1 16 553.198 166.899 -2
8 1 10 553.198 166.899 1
-8 -1 17 459.911 188.652 -2
8 1 11 459.911 188.652 1
-8 -1 18 1272.6 216.088 -2
8 1 12 1272.6 216.088 1
-8 -1 19 366.927 225.096 -2
8 1 13 366.927 225.096 1
8 1 14 3220.79 214.629 1
-8 -2 -5 1133.57 106.154 -2
8 2 -11 1133.57 106.154 1
-8 -2 -4 712.261 96.8995 -2
8 2 -10 712.261 96.8995 1
-8 -2 -3 834.225 99.2041 -2
8 2 -9 834.225 99.2041 1
-8 -2 -2 188.402 97.9404 -2
8 2 -8 188.402 97.9404 1
-8 -2 -1 1048.75 111.271 -2
8 2 -7 1048.75 111.271 1
8 2 0 490.148 64.9695 -2
-8 -2 6 490.148 64.9695 1
8 2 -1 4659.6 90.4041 -2
-8 -2 5 4659.6 90.4041 1
8 2 -2 4538.31 94.2902 -2
-8 -2 4 4538.31 94.2902 1
8 2 -3 3703.54 93.7836 -2
-8 -2 3 3703.54 93.7836 1
-8 -2 4 8632.64 198.38 -2
8 2 -2 8632.64 198.38 1
-8 -2 5 8413.95 199.26 -2
8 2 -1 8413.95 199.26 1
-8 -2 6 429.115 119.969 -2
8 2 0 429.115 119.969 1
-8 -2 7 816.681 81.5284 -2
8 2 1 816.681 81.5284 1
-8 -2 8 174.123 79.2686 -2
8 2 2 174.123 79.2686 1
-8 -2 9 947.468 88.9288 -2
8 2 3 947.468 88.9288 1
-8 -2 10 593.864 87.6806 -2
8 2 4 593.864 87.6806 1
-8 -2 11 651.28 90.3994 -2
8 2 5 651.28 90.3994 1
-8 -2 12 336.652 93.924 -2
8 2 6 336.652 93.924 1
-8 -2 13 437.903 145.759 -2
8 2 7 437.903 145.759 1
-8 -2 14 329.233 159.053 -2
8 2 8 329.233 159.053 1
-8 -2 15 2036.77 192.197 -2
8 2 9 2036.77 192.197 1
-8 -2 16 283.658 180.101 -2
8 2 10 283.658 180.101 1
-8 -2 17 362.354 190.978 -2
8 2 11 362.354 190.978 1
-8 -2 18 529.293 208.34 -2
8 2 12 529.293 208.34 1
-8 -2 19 2796.79 242.298 -2
8 2 13 2796.79 242.298 1
-8 -3 -5 77.2004 105.016 -2
8 3 -11 77.2004 105.016 1
-8 -3 -4 506.259 108.5 -2
8 3 -10 506.259 108.5 1
-8 -3 -3 281.435 107.454 -2
8 3 -9 281.435 107.454 1
-8 -3 -2 1486.92 124.209 -2
8 3 -8 1486.92 124.209 1
-8 -3 -1 903.847 113.528 -2
8 3 -7 903.847 113.528 1
-8 -3 0 124.497 102.019 -2
8 3 -6 124.497 102.019 1
-8 -3 1 783.076 115.621 -2
8 3 -5 783.076 115.621 1
-8 -3 2 3157.15 153.126 -2
8 3 -4 3157.15 153.126 1
-8 -3 3 10220.5 232.229 -2
8 3 -3 10220.5 232.229 1
-8 -3 4 3706.36 169.192 -2
8 3 -2 3706.36 169.192 1
-8 -3 5 235.193 118.393 -2
8 3 -1 235.193 118.393 1
-8 -3 6 373.911 123.431 -2
8 3 0 373.911 123.431 1
-8 -3 7 1341.23 91.8765 -2
8 3 1 1341.23 91.8765 1
-8 -3 8 3690.14 110.958 -2
8 3 2 3690.14 110.958 1
-8 -3 9 302.106 87.3713 -2
8 3 3 302.106 87.3713 1
-8 -3 10 418.808 90.6997 -2
8 3 4 418.808 90.6997 1
-8 -3 11 190.617 141.502 -2
8 3 5 190.617 141.502 1
-8 -3 12 814.22 161.65 -2
8 3 6 814.22 161.65 1
-8 -3 13 1323 177.688 -2
8 3 7 1323 177.688 1
-8 -3 14 2418.68 202.234 -2
8 3 8 2418.68 202.234 1
-8 -3 15 287.305 171.551 -2
8 3 9 287.305 171.551 1
-8 -3 16 691.845 185.541 -2
8 3 10 691.845 185.541 1
-8 -3 17 551.435 192.797 -2
8 3 11 551.435 192.797 1
-8 -3 18 397.606 209.4 -2
8 3 12 397.606 209.4 1
-8 -3 19 341.17 243.065 -2
8 3 13 341.17 243.065 1
-8 -4 -4 517.327 116.047 -2
8 4 -10 517.327 116.047 1
-8 -4 -3 120.662 112.338 -2
8 4 -9 120.662 112.338 1
-8 -4 -2 542.123 115.771 -2
8 4 -8 542.123 115.771 1
-8 -4 -1 2169.38 131.743 -2
8 4 -7 2169.38 131.743 1
-8 -4 0 2331.37 132.017 -2
8 4 -6 2331.37 132.017 1
-8 -4 1 2510.05 136.241 -2
8 4 -5 2510.05 136.241 1
-8 -4 2 10452.8 196.625 -2
8 4 -4 10452.8 196.625 1
-8 -4 3 176.211 112.488 -2
8 4 -3 176.211 112.488 1
-8 -4 4 6863.02 182.144 -2
8 4 -2 6863.02 182.144 1
-8 -4 5 2897.83 150.393 -2
8 4 -1 2897.83 150.393 1
8 4 -6 1473.87 89.4148 -2
-8 -4 0 1473.87 89.4148 1
-8 -4 7 3608.19 162.528 -2
8 4 1 3608.19 162.528 1
-8 -4 8 405.213 130.255 -2
8 4 2 405.213 130.255 1
-8 -4 9 199.533 132.561 -2
8 4 3 199.533 132.561 1
-8 -4 10 685.098 143.041 -2
8 4 4 685.098 143.041 1
-8 -4 11 289.502 144.937 -2
8 4 5 289.502 144.937 1
-8 -4 12 397.587 150.492 -2
8 4 6 397.587 150.492 1
-8 -4 13 281.843 155.849 -2
8 4 7 281.843 155.849 1
-8 -4 14 489.065 164.382 -2
8 4 8 489.065 164.382 1
-8 -4 15 260.375 175.689 -2
8 4 9 260.375 175.689 1
-8 -4 16 103.275 182.084 -2
8 4 10 103.275 182.084 1
-8 -4 17 429.86 208.2 -2
8 4 11 429.86 208.2 1
-8 -4 18 685.254 240.076 -2
8 4 12 685.254 240.076 1
-8 -4 19 319.818 267.802 -2
8 4 13 319.818 267.802 1
8 5 -10 452 108.471 1
8 5 -9 253.119 106.39 1
8 5 -8 76.132 99.9416 1
8 5 -7 795.432 106.178 1
8 5 -6 342.731 103.548 1
8 5 -5 5145.6 150.822 1
8 5 -4 2713.73 128.093 1
-8 -5 3 3880.79 157.187 -2
8 5 -3 3880.79 157.187 1
8 5 -2 306.833 108.136 1
8 5 -1 273.7 111.568 1
8 5 0 457.544 117.175 1
8 5 1 433.278 112.998 1
8 5 2 1454.63 130.947 1
-8 -5 9 1719.8 152.757 -2
8 5 3 1719.8 152.757 1
8 5 4 1110.11 139.45 1
-8 -5 11 458.631 151.249 -2
8 5 5 458.631 151.249 1
-8 -5 12 291.769 156.106 -2
8 5 6 291.769 156.106 1
-8 -5 13 311.221 169.556 -2
8 5 7 311.221 169.556 1
8 5 8 367.42 141.512 1
8 5 9 107.054 152.828 1
8 5 10 642.104 171.585 1
8 5 11 663.36 185.978 1
8 5 12 178.641 199.429 1
8 6 -10 1182.91 128.659 1
8 6 -9 178.856 114.316 1
8 6 -8 266.782 114.123 1
8 6 -7 16.9248 107.968 1
8 6 -6 576.953 114.091 1
8 6 -5 414.264 112.706 1
8 6 -4 21.3173 107.323 1
8 6 -3 -20.6187 110.323 1
8 6 -2 40.5474 109.857 1
8 6 -1 401.792 116.337 1
8 6 0 124.16 112.644 1
8 6 1 125.76 119.262 1
8 6 2 98.5045 119.204 1
8 6 3 288.391 124.522 1
8 6 4 1016.44 139.6 1
8 6 5 3137.88 169.753 1
8 6 6 890.901 151.34 1
8 6 7 1632.43 163.676 1
8 6 8 975.708 167.329 1
8 6 9 263.074 169.95 1
8 6 10 310.483 181.702 1
8 6 11 316.96 197.455 1
-8 -7 -3 423.867 166.825 -2
8 7 -10 423.867 166.825 1
8 7 -9 359.667 131.17 1
8 7 -8 -40.8664 126.843 1
8 7 -7 137.277 126.643 1
8 7 -6 57.8493 123.315 1
-8 -7 2 70.3211 148.331 -2
8 7 -5 70.3211 148.331 1
-8 -7 3 379.943 147.957 -2
8 7 -4 379.943 147.957 1
-8 -7 4 278.253 151.963 -2
8 7 -3 278.253 151.963 1
-8 -7 5 188.895 153.511 -2
8 7 -2 188.895 153.511 1
-8 -7 6 550.07 157.332 -2
8 7 -1 550.07 157.332 1
-8 -7 7 1994.4 171.562 -2
8 7 0 1994.4 171.562 1
-8 -7 8 306.528 159.627 -2
8 7 1 306.528 159.627 1
-8 -7 9 529.167 164.875 -2
8 7 2 529.167 164.875 1
-8 -7 10 441.334 171.855 -2
8 7 3 441.334 171.855 1
-8 -7 11 1737.31 191.162 -2
8 7 4 1737.31 191.162 1
-8 -7 12 3418.13 210.556 -2
8 7 5 3418.13 210.556 1
-8 -7 13 2782.28 218.5 -2
8 7 6 2782.28 218.5 1
-8 -7 14 1073.32 217.704 -2
8 7 7 1073.32 217.704 1
-8 -7 15 952.476 229.288 -2
8 7 8 952.476 229.288 1
-8 -7 16 316.087 246.233 -2
8 7 9 316.087 246.233 1
-8 -7 17 440.831 269.435 -2
8 7 10 440.831 269.435 1
-8 -8 -3 274.179 192.206 -2
8 8 -10 274.179 192.206 1
-8 -8 -2 182.992 177.616 -2
8 8 -9 182.992 177.616 1
-8 -8 -1 370.103 181.529 -2
8 8 -8 370.103 181.529 1
-8 -8 0 1776.67 215.133 -2
8 8 -7 1776.67 215.133 1
-8 -8 1 805.778 179.059 -2
8 8 -6 805.778 179.059 1
-8 -8 2 326.552 169.017 -2
8 8 -5 326.552 169.017 1
-8 -8 3 305.233 163.499 -2
8 8 -4 305.233 163.499 1
-8 -8 4 288.973 169.232 -2
8 8 -3 288.973 169.232 1
-8 -8 5 236.27 170.797 -2
8 8 -2 236.27 170.797 1
-8 -8 6 1596.51 194.068 -2
8 8 -1 1596.51 194.068 1
-8 -8 7 1467.82 194.829 -2
8 8 0 1467.82 194.829 1
-8 -8 8 709.406 186.559 -2
8 8 1 709.406 186.559 1
-8 -8 9 295.57 192.323 -2
8 8 2 295.57 192.323 1
-8 -8 10 344.09 196.959 -2
8 8 3 344.09 196.959 1
-8 -8 11 222.507 202.585 -2
8 8 4 222.507 202.585 1
-8 -8 12 220.202 210.045 -2
8 8 5 220.202 210.045 1
-8 -8 13 728.153 226.737 -2
8 8 6 728.153 226.737 1
-8 -8 14 1160.56 240.938 -2
8 8 7 1160.56 240.938 1
-8 -8 15 513.663 251.606 -2
8 8 8 513.663 251.606 1
-8 -9 -2 448.025 215.558 -2
8 9 -9 448.025 215.558 1
-8 -9 -1 1102.01 184.042 -2
8 9 -8 1102.01 184.042 1
-8 -9 0 444.442 198.821 -2
8 9 -7 444.442 198.821 1
-8 -9 1 393.586 200.634 -2
8 9 -6 393.586 200.634 1
-8 -9 2 274.411 176.609 -2
8 9 -5 274.411 176.609 1
-8 -9 3 476.808 224.933 -2
8 9 -4 476.808 224.933 1
-8 -9 4 383.244 171.715 -2
8 9 -3 383.244 171.715 1
-8 -9 5 150.921 199.24 -2
8 9 -2 150.921 199.24 1
-8 -9 6 301.355 197.538 -2
8 9 -1 301.355 197.538 1
-8 -9 7 290.709 200.663 -2
8 9 0 290.709 200.663 1
-8 -9 8 655.753 206.861 -2
8 9 1 655.753 206.861 1
-8 -9 9 330.653 215.016 -2
8 9 2 330.653 215.016 1
-8 -9 10 159.051 217.48 -2
8 9 3 159.051 217.48 1
-8 -9 11 138.652 220.721 -2
8 9 4 138.652 220.721 1
-8 -9 12 728.135 243.886 -2
8 9 5 728.135 243.886 1
-8 -9 13 452.19 256.73 -2
8 9 6 452.19 256.73 1
-8 -10 -1 219.386 246.742 -2
8 10 -8 219.386 246.742 1
-8 -10 0 393.475 232.232 -2
8 10 -7 393.475 232.232 1
-8 -10 1 337.861 234.195 -2
8 10 -6 337.861 234.195 1
-8 -10 2 576.766 226.136 -2
8 10 -5 576.766 226.136 1
-8 -10 3 538.655 216.212 -2
8 10 -4 538.655 216.212 1
-8 -10 4 474.337 222.525 -2
8 10 -3 474.337 222.525 1
-8 -10 5 236.256 230.744 -2
8 10 -2 236.256 230.744 1
-8 -10 6 367.654 240.757 -2
8 10 -1 367.654 240.757 1
-8 -10 7 455.778 264.964 -2
8 10 0 455.778 264.964 1
-8 -10 8 122.377 283.19 -2
8 10 1 122.377 283.19 1
-8 -10 9 378.435 288.786 -2
8 10 2 378.435 288.786 1
-8 -10 10 685.017 297.711 -2
8 10 3 685.017 297.711 1
8 11 -6 176.1 220.486 1
8 11 -5 222.455 211.602 1
8 11 -4 418.213 210.903 1
-9 12 -3 301.488 279.299 -2
9 -12 -7 301.488 279.299 1
-9 12 -2 380.964 191.805 -2
9 -12 -6 380.964 191.805 1
-9 12 -1 371.131 183.308 -2
9 -12 -5 371.131 183.308 1
-9 12 0 352.357 181.331 -2
9 -12 -4 352.357 181.331 1
-9 12 1 285.841 178.875 -2
9 -12 -3 285.841 178.875 1
-9 12 2 177.649 175.247 -2
9 -12 -2 177.649 175.247 1
-9 12 3 269.408 177.123 -2
9 -12 -1 269.408 177.123 1
9 -12 -4 490.499 178.788 -2
-9 12 0 490.499 178.788 1
9 -12 -5 254.455 180.108 -2
-9 12 -1 254.455 180.108 1
9 -12 -6 252.673 191.724 -2
-9 12 -2 252.673 191.724 1
9 -12 -7 351.74 192.893 -2
-9 12 -3 351.74 192.893 1
9 -12 -8 327.866 194.926 -2
-9 12 -4 327.866 194.926 1
-9 11 -6 330.962 262.156 -2
9 -11 -10 330.962 262.156 1
-9 11 -5 1096.59 190.577 -2
9 -11 -9 1096.59 190.577 1
-9 11 -4 885.496 186.695 -2
9 -11 -8 885.496 186.695 1
-9 11 -3 301.523 174.39 -2
9 -11 -7 301.523 174.39 1
-9 11 -2 443.887 166.176 -2
9 -11 -6 443.887 166.176 1
-9 11 -1 1676.62 167.504 -2
9 -11 -5 1676.62 167.504 1
-9 11 0 197.918 154.954 -2
9 -11 -4 197.918 154.954 1
-9 11 1 431.755 158.937 -2
9 -11 -3 431.755 158.937 1
-9 11 2 886.051 159.981 -2
9 -11 -2 886.051 159.981 1
-9 11 3 420.422 153.249 -2
9 -11 -1 420.422 153.249 1
-9 11 4 426.953 149.219 -2
9 -11 0 426.953 149.219 1
9 -11 -5 1816.56 167.372 -2
-9 11 -1 1816.56 167.372 1
9 -11 -6 534.689 165.859 -2
-9 11 -2 534.689 165.859 1
9 -11 -7 464.586 165.929 -2
-9 11 -3 464.586 165.929 1
9 -11 -8 1747.8 174.784 -2
-9 11 -4 1747.8 174.784 1
9 -11 -9 2148.37 184.682 -2
-9 11 -5 2148.37 184.682 1
9 -11 -10 498.314 184.28 -2
-9 11 -6 498.314 184.28 1
9 -11 -11 615.757 280.114 -2
-9 11 -7 615.757 280.114 1
-9 10 -8 2466.02 276.326 -2
9 -10 -12 2466.02 276.326 1
-9 10 -7 546.933 247.253 -2
9 -10 -11 546.933 247.253 1
-9 10 -6 2090.9 246.429 -2
9 -10 -10 2090.9 246.429 1
-9 10 -5 440.218 162.109 -2
9 -10 -9 440.218 162.109 1
-9 10 -4 1353.38 159.913 -2
9 -10 -8 1353.38 159.913 1
-9 10 -3 763.692 153.963 -2
9 -10 -7 763.692 153.963 1
-9 10 -2 2074.26 155.102 -2
9 -10 -6 2074.26 155.102 1
-9 10 -1 801.12 146.812 -2
9 -10 -5 801.12 146.812 1
-9 10 0 889.63 141.646 -2
9 -10 -4 889.63 141.646 1
-9 10 1 290.428 136.91 -2
9 -10 -3 290.428 136.91 1
-9 10 2 74.6282 137.245 -2
9 -10 -2 74.6282 137.245 1
9 -10 -1 68.2491 145.589 1
9 -10 -3 285.134 194.582 -2
-9 10 1 285.134 194.582 1
9 -10 0 3.68986 144.297 1
9 -10 -4 750.286 198.982 -2
-9 10 0 750.286 198.982 1
-9 10 -1 532.922 173.236 1
9 -10 -5 837.338 194.832 -2
-9 10 -1 837.338 194.832 1
-9 10 -2 192.096 120.088 1
-9 10 -3 367.174 174.873 1
-9 10 -4 202.401 120.757 1
-9 10 -5 -15.0944 127.425 1
-9 10 -6 1006.1 139.728 1
-9 10 -7 106.713 200.577 1
9 -10 -12 1087.25 248.85 -2
-9 10 -7 1087.25 248.85 1
-9 10 -8 306.869 223.595 1
9 -10 -13 378.212 248.556 -2
-9 10 -8 378.212 248.556 1
-9 10 -9 106.1 242.747 1
-9 9 -9 547.6 277.463 -2
9 -9 -14 547.6 277.463 1
-9 9 -8 1222.61 260.101 -2
9 -9 -13 1222.61 260.101 1
-9 9 -7 1689.97 246.386 -2
9 -9 -12 1689.97 246.386 1
-9 9 -6 3719.66 244.286 -2
9 -9 -11 3719.66 244.286 1
-9 9 -5 2437.32 222.744 -2
9 -9 -10 2437.32 222.744 1
-9 9 -4 467.048 198.233 -2
9 -9 -9 467.048 198.233 1
-9 9 -3 598.752 196.408 -2
9 -9 -8 598.752 196.408 1
-9 9 -2 2509.44 212.774 -2
9 -9 -7 2509.44 212.774 1
-9 9 -1 825.072 134.385 -2
9 -9 -6 825.072 134.385 1
-9 9 0 666.352 127.42 -2
9 -9 -5 666.352 127.42 1
-9 9 1 362.721 124.797 -2
9 -9 -4 362.721 124.797 1
-9 9 2 300.674 126.235 -2
9 -9 -3 300.674 126.235 1
-9 9 3 461.591 125.647 -2
9 -9 -2 461.591 125.647 1
-9 9 4 373.746 126.57 -2
9 -9 -1 373.746 126.57 1
-9 9 5 755.36 127.619 -2
9 -9 0 755.36 127.619 1
9 -9 -6 531.242 130.189 -2
-9 9 -1 531.242 130.189 1
-9 9 -2 158.568 153.697 1
9 -9 -7 1299.88 190.873 -2
-9 9 -2 1299.88 190.873 1
9 -9 -8 365.433 133.08 -2
-9 9 -3 365.433 133.08 1
9 -9 -9 312.66 136.639 -2
-9 9 -4 312.66 136.639 1
9 -9 -10 1616.18 150.998 -2
-9 9 -5 1616.18 150.998 1
9 -9 -11 2250.62 161.089 -2
-9 9 -6 2250.62 161.089 1
9 -9 -12 1056.61 161.19 -2
-9 9 -7 1056.61 161.19 1
9 -9 -13 698.69 168.467 -2
-9 9 -8 698.69 168.467 1
9 -9 -14 374.342 177.217 -2
-9 9 -9 374.342 177.217 1
9 -9 -15 1703.27 288.748 -2
-9 9 -10 1703.27 288.748 1
-9 8 -11 549.18 288.223 -2
9 -8 -16 549.18 288.223 1
-9 8 -10 501.218 262.356 -2
9 -8 -15 501.218 262.356 1
-9 8 -9 416.976 247.302 -2
9 -8 -14 416.976 247.302 1
-9 8 -8 538.833 238.18 -2
9 -8 -13 538.833 238.18 1
-9 8 -7 293.487 222.153 -2
9 -8 -12 293.487 222.153 1
-9 8 -6 1370.76 215.373 -2
9 -8 -11 1370.76 215.373 1
-9 8 -5 338.42 190.022 -2
9 -8 -10 338.42 190.022 1
-9 8 -4 719.14 188.117 -2
9 -8 -9 719.14 188.117 1
-9 8 -3 482.147 184.331 -2
9 -8 -8 482.147 184.331 1
-9 8 -2 1024.99 191.431 -2
9 -8 -7 1024.99 191.431 1
-9 8 -1 2566.79 206 -2
9 -8 -6 2566.79 206 1
-9 8 0 1097.38 179.706 -2
9 -8 -5 1097.38 179.706 1
-9 8 1 905.543 120.401 -2
9 -8 -4 905.543 120.401 1
-9 8 2 1453.07 126.712 -2
9 -8 -3 1453.07 126.712 1
-9 8 3 2626.69 140.283 -2
9 -8 -2 2626.69 140.283 1
-9 8 4 884.183 123.827 -2
9 -8 -1 884.183 123.827 1
9 -8 -5 615.334 95.949 -2
-9 8 0 615.334 95.949 1
9 -8 -6 1396.36 132.69 -2
-9 8 -1 1396.36 132.69 1
9 -8 -7 918.283 127.506 -2
-9 8 -2 918.283 127.506 1
9 -8 -8 493.026 124.501 -2
-9 8 -3 493.026 124.501 1
9 -8 -9 1121.85 132.052 -2
-9 8 -4 1121.85 132.052 1
9 -8 -10 427.286 130.726 -2
-9 8 -5 427.286 130.726 1
9 -8 -11 720.279 142.226 -2
-9 8 -6 720.279 142.226 1
9 -8 -12 473.179 145.556 -2
-9 8 -7 473.179 145.556 1
9 -8 -13 461.629 152.525 -2
-9 8 -8 461.629 152.525 1
9 -8 -14 331.32 163.515 -2
-9 8 -9 331.32 163.515 1
9 -8 -15 287.931 175.156 -2
-9 8 -10 287.931 175.156 1
9 -8 -16 481.817 276.12 -2
-9 8 -11 481.817 276.12 1
-9 7 -12 456.115 294.007 -2
9 -7 -17 456.115 294.007 1
-9 7 -11 406.097 269.93 -2
9 -7 -16 406.097 269.93 1
-9 7 -10 862.221 248.457 -2
9 -7 -15 862.221 248.457 1
-9 7 -9 241.941 224.8 -2
9 -7 -14 241.941 224.8 1
-9 7 -8 975.953 223.068 -2
9 -7 -13 975.953 223.068 1
-9 7 -7 292.652 203.588 -2
9 -7 -12 292.652 203.588 1
-9 7 -6 388.503 188.933 -2
9 -7 -11 388.503 188.933 1
-9 7 -5 295.974 175.482 -2
9 -7 -10 295.974 175.482 1
-9 7 -4 270.473 168.576 -2
9 -7 -9 270.473 168.576 1
-9 7 -3 5071 233.62 -2
9 -7 -8 5071 233.62 1
-9 7 -2 3271.67 215.431 -2
9 -7 -7 3271.67 215.431 1
-9 7 -1 2179.51 193.792 -2
9 -7 -6 2179.51 193.792 1
-9 7 0 1514.58 175.913 -2
9 -7 -5 1514.58 175.913 1
-9 7 1 622.962 156.142 -2
9 -7 -4 622.962 156.142 1
-9 7 2 2709.43 134.838 -2
9 -7 -3 2709.43 134.838 1
-9 7 3 4151.25 149.055 -2
9 -7 -2 4151.25 149.055 1
-9 7 4 1234.44 123.338 -2
9 -7 -1 1234.44 123.338 1
9 -7 -5 1152.69 118.074 -2
-9 7 0 1152.69 118.074 1
9 -7 -6 1447.17 124.823 -2
-9 7 -1 1447.17 124.823 1
9 -7 -7 1713 133.533 -2
-9 7 -2 1713 133.533 1
9 -7 -8 2931.22 142.457 -2
-9 7 -3 2931.22 142.457 1
9 -7 -9 376.775 118.864 -2
-9 7 -4 376.775 118.864 1
9 -7 -10 106.322 119.48 -2
-9 7 -5 106.322 119.48 1
9 -7 -11 338.9 128.161 -2
-9 7 -6 338.9 128.161 1
9 -7 -12 189.357 134.197 -2
-9 7 -7 189.357 134.197 1
9 -7 -13 1543.13 156.034 -2
-9 7 -8 1543.13 156.034 1
9 -7 -14 379.36 152.869 -2
-9 7 -9 379.36 152.869 1
9 -7 -15 486.795 221.821 -2
-9 7 -10 486.795 221.821 1
9 -7 -16 212.121 246.148 -2
-9 7 -11 212.121 246.148 1
9 -7 -17 293.906 279.765 -2
-9 7 -12 293.906 279.765 1
-9 6 -13 297.402 310.458 -2
9 -6 -18 297.402 310.458 1
-9 6 -12 640.475 277.959 -2
9 -6 -17 640.475 277.959 1
-9 6 -11 810.27 253.99 -2
9 -6 -16 810.27 253.99 1
-9 6 -10 724.372 233.836 -2
9 -6 -15 724.372 233.836 1
-9 6 -9 88.8677 208.874 -2
9 -6 -14 88.8677 208.874 1
-9 6 -8 413.896 202.817 -2
9 -6 -13 413.896 202.817 1
-9 6 -7 105.221 179.242 -2
9 -6 -12 105.221 179.242 1
-9 6 -6 203.621 168.26 -2
9 -6 -11 203.621 168.26 1
-9 6 -5 216.35 160.509 -2
9 -6 -10 216.35 160.509 1
-9 6 -4 191.609 156.842 -2
9 -6 -9 191.609 156.842 1
-9 6 -3 2285.7 184.571 -2
9 -6 -8 2285.7 184.571 1
-9 6 -2 545.834 161.032 -2
9 -6 -7 545.834 161.032 1
-9 6 -1 3506.36 198.707 -2
9 -6 -6 3506.36 198.707 1
-9 6 0 1006.64 151.432 -2
9 -6 -5 1006.64 151.432 1
-9 6 1 1248.79 153.901 -2
9 -6 -4 1248.79 153.901 1
-9 6 2 827.472 154.629 -2
9 -6 -3 827.472 154.629 1
-9 6 3 527.084 103.545 -2
9 -6 -2 527.084 103.545 1
-9 6 4 675.279 105.73 -2
9 -6 -1 675.279 105.73 1
9 -6 -5 667.084 108.202 -2
-9 6 0 667.084 108.202 1
9 -6 -6 2122.63 123.022 -2
-9 6 -1 2122.63 123.022 1
9 -6 -7 671.257 110.409 -2
-9 6 -2 671.257 110.409 1
9 -6 -8 1300.17 117.749 -2
-9 6 -3 1300.17 117.749 1
9 -6 -9 252.29 111.255 -2
-9 6 -4 252.29 111.255 1
9 -6 -10 151.018 113.633 -2
-9 6 -5 151.018 113.633 1
9 -6 -11 190.727 118.975 -2
-9 6 -6 190.727 118.975 1
9 -6 -12 113.603 125.278 -2
-9 6 -7 113.603 125.278 1
9 -6 -13 354.681 134.707 -2
-9 6 -8 354.681 134.707 1
9 -6 -14 320.535 143.129 -2
-9 6 -9 320.535 143.129 1
9 -6 -15 986.927 208.783 -2
-9 6 -10 986.927 208.783 1
9 -6 -16 1005.56 237.929 -2
-9 6 -11 1005.56 237.929 1
9 -6 -17 900.933 269.034 -2
-9 6 -12 900.933 269.034 1
9 -6 -18 476.842 288.577 -2
-9 6 -13 476.842 288.577 1
-9 5 -12 528.782 260.65 -2
9 -5 -17 528.782 260.65 1
-9 5 -11 1984.94 245.868 -2
9 -5 -16 1984.94 245.868 1
-9 5 -10 1456.22 224.307 -2
9 -5 -15 1456.22 224.307 1
-9 5 -9 1125.07 208.637 -2
9 -5 -14 1125.07 208.637 1
-9 5 -8 557.185 190.571 -2
9 -5 -13 557.185 190.571 1
-9 5 -7 173.758 171.213 -2
9 -5 -12 173.758 171.213 1
-9 5 -6 241.003 156.248 -2
9 -5 -11 241.003 156.248 1
-9 5 -5 1190.96 158.803 -2
9 -5 -10 1190.96 158.803 1
-9 5 -4 348.329 144.727 -2
9 -5 -9 348.329 144.727 1
-9 5 -3 1150.15 152.585 -2
9 -5 -8 1150.15 152.585 1
-9 5 -2 1687.85 153.863 -2
9 -5 -7 1687.85 153.863 1
-9 5 -1 647.905 140.458 -2
9 -5 -6 647.905 140.458 1
-9 5 0 555.211 131.172 -2
9 -5 -5 555.211 131.172 1
-9 5 1 263.888 134.432 -2
9 -5 -4 263.888 134.432 1
-9 5 2 3329.99 159.836 -2
9 -5 -3 3329.99 159.836 1
-9 5 3 4721.27 165.004 -2
9 -5 -2 4721.27 165.004 1
9 -5 -4 217.656 91.6309 -2
-9 5 1 217.656 91.6309 1
9 -5 -5 874.758 101.157 -2
-9 5 0 874.758 101.157 1
9 -5 -6 796.044 103.674 -2
-9 5 -1 796.044 103.674 1
9 -5 -7 1077.32 103.135 -2
-9 5 -2 1077.32 103.135 1
9 -5 -8 660.044 102.112 -2
-9 5 -3 660.044 102.112 1
9 -5 -9 184.568 104.074 -2
-9 5 -4 184.568 104.074 1
9 -5 -10 1475.76 116.097 -2
-9 5 -5 1475.76 116.097 1
-9 5 -6 509.586 134.525 1
9 -5 -11 522.313 160.394 -2
-9 5 -6 522.313 160.394 1
9 -5 -12 137.421 117.651 -2
-9 5 -7 137.421 117.651 1
-9 5 -8 228.628 151.798 1
9 -5 -13 592.177 180.717 -2
-9 5 -8 592.177 180.717 1
9 -5 -14 1222.55 196.991 -2
-9 5 -9 1222.55 196.991 1
9 -5 -15 1924.99 206.314 -2
-9 5 -10 1924.99 206.314 1
-9 5 -11 3287.84 205.476 1
9 -5 -17 478.063 251.203 -2
-9 5 -12 478.063 251.203 1
9 -5 -18 379.555 277.548 -2
-9 5 -13 379.555 277.548 1
-9 4 -11 617.256 225.837 -2
9 -4 -16 617.256 225.837 1
-9 4 -10 485.006 208.524 -2
9 -4 -15 485.006 208.524 1
-9 4 -9 451.533 194.37 -2
9 -4 -14 451.533 194.37 1
-9 4 -8 392.406 173.168 -2
9 -4 -13 392.406 173.168 1
-9 4 -7 375.768 157.544 -2
9 -4 -12 375.768 157.544 1
-9 4 -6 511.727 149.583 -2
9 -4 -11 511.727 149.583 1
-9 4 -5 1103.65 147.55 -2
9 -4 -10 1103.65 147.55 1
-9 4 -4 3360.42 162.537 -2
9 -4 -9 3360.42 162.537 1
-9 4 -3 1640.2 146.744 -2
9 -4 -8 1640.2 146.744 1
-9 4 -2 613.339 134.452 -2
9 -4 -7 613.339 134.452 1
9 -4 -6 -0.14986 92.2837 1
9 -4 -5 152.039 97.2304 1
9 -4 -4 850.876 105.148 1
9 -4 -3 57.7048 90.4671 1
-9 4 2 1538.83 111.803 1
-9 4 1 1421.83 124.122 1
-9 4 0 35.2693 73.757 1
-9 4 -1 110.141 75.7144 1
-9 4 -2 183.961 76.1982 1
-9 4 -3 1591.87 89.5361 1
-9 4 -4 5136.52 117.022 1
-9 4 -5 312.744 85.8191 1
-9 4 -6 1.47116 89.5847 1
-9 4 -7 70.9335 92.6642 1
-9 4 -8 104.279 140.182 1
-9 4 -9 359.284 144.264 1
-9 4 -10 126.277 148.329 1
-9 4 -11 190.033 172.263 1
-9 4 -12 255.875 202.934 1
-9 4 -13 206.436 215.583 1
-9 4 -14 176.436 232.13 1
-9 3 -9 415.569 182.454 -2
9 -3 -15 415.569 182.454 1
-9 3 -8 809.311 168.04 -2
9 -3 -14 809.311 168.04 1
-9 3 -7 465.518 151.695 -2
9 -3 -13 465.518 151.695 1
-9 3 -6 322.919 143.897 -2
9 -3 -12 322.919 143.897 1
-9 3 -5 709.008 144.115 -2
9 -3 -11 709.008 144.115 1
-9 3 -4 543.669 139.615 -2
9 -3 -10 543.669 139.615 1
-9 3 -3 1545.89 141.889 -2
9 -3 -9 1545.89 141.889 1
-9 3 -2 2121.82 137.299 -2
9 -3 -8 2121.82 137.299 1
-9 3 -1 4220.32 148.191 -2
9 -3 -7 4220.32 148.191 1
-9 3 0 494.025 123.926 -2
9 -3 -6 494.025 123.926 1
-9 3 1 838.576 129.786 -2
9 -3 -5 838.576 129.786 1
-9 3 2 3292.63 142.659 -2
9 -3 -4 3292.63 142.659 1
9 -3 -3 189.57 117.446 -2
-9 3 3 189.57 117.446 1
9 -3 -4 5741.03 161.172 -2
-9 3 2 5741.03 161.172 1
9 -3 -5 578.413 125.995 -2
-9 3 1 578.413 125.995 1
9 -3 -6 314.396 87.3749 -2
-9 3 0 314.396 87.3749 1
9 -3 -7 2545.82 104.187 -2
-9 3 -1 2545.82 104.187 1
9 -3 -8 1220.66 97.7313 -2
-9 3 -2 1220.66 97.7313 1
-9 3 -3 397.029 109.954 1
9 -3 -9 1012.77 141.612 -2
-9 3 -3 1012.77 141.612 1
9 -3 -10 609.749 101.39 -2
-9 3 -4 609.749 101.39 1
9 -3 -11 1126.39 109.735 -2
-9 3 -5 1126.39 109.735 1
9 -3 -12 176.872 108.371 -2
-9 3 -6 176.872 108.371 1
9 -3 -13 523.722 162.63 -2
-9 3 -7 523.722 162.63 1
9 -3 -14 1071.64 179.56 -2
-9 3 -8 1071.64 179.56 1
9 -3 -15 167.643 177.258 -2
-9 3 -9 167.643 177.258 1
9 -3 -16 302.088 186.163 -2
-9 3 -10 302.088 186.163 1
9 -3 -17 518.047 219.132 -2
-9 3 -11 518.047 219.132 1
9 -3 -18 1104.23 252.084 -2
-9 3 -12 1104.23 252.084 1
9 -3 -19 681.022 263.455 -2
-9 3 -13 681.022 263.455 1
-9 2 -8 2292.79 178.337 -2
9 -2 -14 2292.79 178.337 1
-9 2 -7 1797.55 165.239 -2
9 -2 -13 1797.55 165.239 1
-9 2 -6 458.49 147.172 -2
9 -2 -12 458.49 147.172 1
-9 2 -5 1387.67 152.004 -2
9 -2 -11 1387.67 152.004 1
-9 2 -4 1305.13 139.577 -2
9 -2 -10 1305.13 139.577 1
-9 2 -3 1919.29 138.372 -2
9 -2 -9 1919.29 138.372 1
-9 2 -2 2971.67 151.845 -2
9 -2 -8 2971.67 151.845 1
-9 2 -1 5287.17 176.301 -2
9 -2 -7 5287.17 176.301 1
-9 2 0 102.365 116.958 -2
9 -2 -6 102.365 116.958 1
-9 2 1 249.677 109.09 -2
9 -2 -5 249.677 109.09 1
9 -2 -2 342.925 113.565 -2
-9 2 4 342.925 113.565 1
9 -2 -3 226.603 113.768 -2
-9 2 3 226.603 113.768 1
9 -2 -4 204.783 115.658 -2
-9 2 2 204.783 115.658 1
9 -2 -5 128.194 111.804 -2
-9 2 1 128.194 111.804 1
9 -2 -6 136.48 86.46 -2
-9 2 0 136.48 86.46 1
9 -2 -7 3145.79 111.155 -2
-9 2 -1 3145.79 111.155 1
9 -2 -8 2389.2 108.508 -2
-9 2 -2 2389.2 108.508 1
9 -2 -9 2344.71 110.073 -2
-9 2 -3 2344.71 110.073 1
9 -2 -10 1867.62 112.302 -2
-9 2 -4 1867.62 112.302 1
9 -2 -11 686.926 106.678 -2
-9 2 -5 686.926 106.678 1
9 -2 -12 216.041 149.158 -2
-9 2 -6 216.041 149.158 1
9 -2 -13 2311.51 175.545 -2
-9 2 -7 2311.51 175.545 1
9 -2 -14 4371.43 211.793 -2
-9 2 -8 4371.43 211.793 1
9 -2 -15 1014.47 182.779 -2
-9 2 -9 1014.47 182.779 1
9 -2 -16 1029.97 199.135 -2
-9 2 -10 1029.97 199.135 1
9 -2 -17 264.786 217.537 -2
-9 2 -11 264.786 217.537 1
9 -2 -18 1122.49 251.455 -2
-9 2 -12 1122.49 251.455 1
9 -2 -19 319.13 187.213 -2
-9 2 -13 319.13 187.213 1
-9 1 -6 217.311 133.134 -2
9 -1 -12 217.311 133.134 1
-9 1 -5 277.006 120.975 -2
9 -1 -11 277.006 120.975 1
-9 1 -4 561.269 85.5789 -2
9 -1 -10 561.269 85.5789 1
-9 1 -3 1658.67 133.873 -2
9 -1 -9 1658.67 133.873 1
-9 1 -2 4940.07 166.705 -2
9 -1 -8 4940.07 166.705 1
-9 1 -1 2964.72 141.761 -2
9 -1 -7 2964.72 141.761 1
9 -1 0 1494.05 125.34 -2
-9 1 6 1494.05 125.34 1
9 -1 -1 372.23 111.209 -2
-9 1 5 372.23 111.209 1
9 -1 -2 623.564 120.706 -2
-9 1 4 623.564 120.706 1
9 -1 -3 31.0258 107.113 -2
-9 1 3 31.0258 107.113 1
9 -1 -4 758.438 118.552 -2
-9 1 2 758.438 118.552 1
9 -1 -5 615.724 121.073 -2
-9 1 1 615.724 121.073 1
9 -1 -6 2544.76 148.214 -2
-9 1 0 2544.76 148.214 1
9 -1 -7 4193.95 124.317 -2
-9 1 -1 4193.95 124.317 1
9 -1 -8 7294.62 149.542 -2
-9 1 -2 7294.62 149.542 1
9 -1 -9 2625.63 115.558 -2
-9 1 -3 2625.63 115.558 1
9 -1 -10 678.073 105.077 -2
-9 1 -4 678.073 105.077 1
9 -1 -11 328.743 136.745 -2
-9 1 -5 328.743 136.745 1
9 -1 -12 535.233 151.283 -2
-9 1 -6 535.233 151.283 1
9 -1 -13 8509.84 246.628 -2
-9 1 -7 8509.84 246.628 1
9 -1 -14 343.883 167.465 -2
-9 1 -8 343.883 167.465 1
9 -1 -15 3082.47 206.405 -2
-9 1 -9 3082.47 206.405 1
9 -1 -16 274.876 190.88 -2
-9 1 -10 274.876 190.88 1
9 -1 -17 219.026 155.331 -2
-9 1 -11 219.026 155.331 1
-9 1 18 697.956 245.581 -2
9 -1 12 697.956 245.581 1
-9 1 19 330.892 259.444 -2
9 -1 13 330.892 259.444 1
-9 0 -4 161.405 113.614 -2
9 0 -10 161.405 113.614 1
-9 0 -3 4176.06 100.104 -2
9 0 -9 4176.06 100.104 1
9 0 2 3992.53 103.558 -2
-9 0 8 3992.53 103.558 1
9 0 1 3522.66 141.067 -2
-9 0 7 3522.66 141.067 1
9 0 0 608.597 112.36 -2
-9 0 6 608.597 112.36 1
9 0 -1 1546.08 115.921 -2
-9 0 5 1546.08 115.921 1
9 0 -2 1862.71 121.665 -2
-9 0 4 1862.71 121.665 1
9 0 -3 1302.16 119.798 -2
-9 0 3 1302.16 119.798 1
9 0 -4 1356.67 121.656 -2
-9 0 2 1356.67 121.656 1
9 0 -5 1180.35 123.653 -2
-9 0 1 1180.35 123.653 1
9 0 -6 1026.49 125.488 -2
-9 0 0 1026.49 125.488 1
9 0 -7 5981.96 126.91 -2
-9 0 -1 5981.96 126.91 1
9 0 -8 6809.44 138.399 -2
-9 0 -2 6809.44 138.399 1
9 0 -9 7470.89 192.301 -2
-9 0 -3 7470.89 192.301 1
9 0 -10 183.412 136.084 -2
-9 0 -4 183.412 136.084 1
9 0 -11 355.6 136.842 -2
-9 0 -5 355.6 136.842 1
9 0 -12 267.828 144.974 -2
-9 0 -6 267.828 144.974 1
9 0 -13 1633.36 173.25 -2
-9 0 -7 1633.36 173.25 1
9 0 -14 3700.29 197.637 -2
-9 0 -8 3700.29 197.637 1
9 0 -15 3429.39 146.387 -2
-9 0 -9 3429.39 146.387 1
-9 0 16 1226.08 209.761 -2
9 0 10 1226.08 209.761 1
-9 0 17 409.484 211.88 -2
9 0 11 409.484 211.88 1
-9 0 18 841.97 231.221 -2
9 0 12 841.97 231.221 1
-9 0 19 90.1695 262.374 -2
9 0 13 90.1695 262.374 1
9 1 -10 771.19 95.2372 1
9 1 -9 1173.56 103.964 1
9 1 -8 537.061 102.368 1
9 1 -7 167.915 95.2012 1
9 1 1 352.473 102.037 -2
-9 -1 7 352.473 102.037 1
9 1 -6 91.9162 92.8469 1
9 1 0 499.329 102.702 -2
-9 -1 6 499.329 102.702 1
9 1 -5 937.364 102.038 1
9 1 -1 1025.05 105.199 -2
-9 -1 5 1025.05 105.199 1
9 1 -4 3186.1 125.596 1
9 1 -2 3086.14 121.083 -2
-9 -1 4 3086.14 121.083 1
9 1 -3 3770.42 128.175 -2
-9 -1 3 3770.42 128.175 1
9 1 -4 1979.91 120.034 -2
-9 -1 2 1979.91 120.034 1
9 1 -5 784.569 116.965 -2
-9 -1 1 784.569 116.965 1
9 1 -6 916.791 122.341 -2
-9 -1 0 916.791 122.341 1
9 1 -7 450.365 121.704 -2
-9 -1 -1 450.365 121.704 1
9 1 -8 461.186 127.917 -2
-9 -1 -2 461.186 127.917 1
9 1 -9 710.377 129.52 -2
-9 -1 -3 710.377 129.52 1
9 1 -10 979.951 138.565 -2
-9 -1 -4 979.951 138.565 1
9 1 5 91.9068 112.879 1
9 1 -11 1258.6 142.021 -2
-9 -1 -5 1258.6 142.021 1
9 1 6 1163.57 134.402 1
9 1 -12 891.989 146.158 -2
-9 -1 -6 891.989 146.158 1
9 1 7 3236.09 162.036 1
9 1 -13 3067.53 173.239 -2
-9 -1 -7 3067.53 173.239 1
9 1 8 717.459 143.609 1
9 1 9 270.687 148.644 1
9 1 10 89.9845 161.882 1
9 1 11 721.707 176.002 1
9 1 12 2148.43 201.215 1
9 1 13 93.4321 205.436 1
9 2 -10 191.134 98.455 1
9 2 -9 3112.83 119.76 1
9 2 -8 1587.79 107.603 1
9 2 -7 1040.32 107.955 1
9 2 -6 353.439 100.794 1
9 2 -5 154.513 98.9611 1
-9 -2 4 72.5 67.2386 1
9 2 -3 875.941 110.822 1
9 2 -2 448.128 107.903 1
9 2 -1 99.5501 105.405 1
-9 -2 0 160.764 70.8945 1
-9 -2 -1 96.7261 71.3001 1
9 2 2 595.346 77.1826 1
9 2 3 194.927 76.0215 1
9 2 4 291.484 79.5408 1
9 2 5 103.471 120.427 1
9 2 6 2177.42 154.233 1
9 2 7 202.659 140.221 1
9 2 8 681.589 150.804 1
9 2 9 1536.05 169.45 1
9 2 10 362.667 161.162 1
9 2 11 3319.31 199.371 1
9 2 12 833.742 193.83 1
9 2 13 97.9964 224.018 1
9 3 -10 56.3813 100.884 1
9 3 -9 93.3428 99.8954 1
9 3 -8 137.518 106.156 1
9 3 -7 217.85 100.553 1
9 3 -6 93.9865 97.4158 1
9 3 -5 565.595 108.293 1
-9 -3 3 3582.21 156.649 -2
9 3 -4 3582.21 156.649 1
-9 -3 4 2368.09 154.641 -2
9 3 -3 2368.09 154.641 1
-9 -3 5 1127.02 145.574 -2
9 3 -2 1127.02 145.574 1
-9 -3 6 685.92 143.938 -2
9 3 -1 685.92 143.938 1
-9 -3 7 654.324 94.747 -2
9 3 0 654.324 94.747 1
-9 -3 8 217.54 96.3858 -2
9 3 1 217.54 96.3858 1
-9 -3 9 493.014 148.581 -2
9 3 2 493.014 148.581 1
-9 -3 10 161.844 154.34 -2
9 3 3 161.844 154.34 1
-9 -3 11 526.442 163.85 -2
9 3 4 526.442 163.85 1
-9 -3 12 729.351 171.617 -2
9 3 5 729.351 171.617 1
-9 -3 13 1343.03 184.023 -2
9 3 6 1343.03 184.023 1
-9 -3 14 574.136 181.087 -2
9 3 7 574.136 181.087 1
-9 -3 15 664.914 192.476 -2
9 3 8 664.914 192.476 1
-9 -3 16 1392.78 206.242 -2
9 3 9 1392.78 206.242 1
-9 -3 17 828.892 214.382 -2
9 3 10 828.892 214.382 1
-9 -3 18 635.961 234.999 -2
9 3 11 635.961 234.999 1
-9 -3 19 1262.24 272.954 -2
9 3 12 1262.24 272.954 1
-9 -4 -3 438.14 139.809 -2
9 4 -10 438.14 139.809 1
-9 -4 -2 445.6 137.682 -2
9 4 -9 445.6 137.682 1
-9 -4 -1 1739.35 152.658 -2
9 4 -8 1739.35 152.658 1
-9 -4 0 2143.11 155.711 -2
9 4 -7 2143.11 155.711 1
-9 -4 1 1312.55 142.391 -2
9 4 -6 1312.55 142.391 1
-9 -4 2 2553.82 156.996 -2
9 4 -5 2553.82 156.996 1
-9 -4 3 3167.29 165.862 -2
9 4 -4 3167.29 165.862 1
-9 -4 4 4921.89 187.115 -2
9 4 -3 4921.89 187.115 1
-9 -4 5 4097.86 182.647 -2
9 4 -2 4097.86 182.647 1
-9 -4 6 1131.02 145.898 -2
9 4 -1 1131.02 145.898 1
-9 -4 7 1157.6 153.298 -2
9 4 0 1157.6 153.298 1
-9 -4 8 1207.14 159.992 -2
9 4 1 1207.14 159.992 1
-9 -4 9 289.481 151.078 -2
9 4 2 289.481 151.078 1
-9 -4 10 325.563 154.539 -2
9 4 3 325.563 154.539 1
-9 -4 11 310.359 162.964 -2
9 4 4 310.359 162.964 1
-9 -4 12 194.343 163.287 -2
9 4 5 194.343 163.287 1
-9 -4 13 239.203 168.137 -2
9 4 6 239.203 168.137 1
-9 -4 14 374.145 181.843 -2
9 4 7 374.145 181.843 1
-9 -4 15 409.214 194.125 -2
9 4 8 409.214 194.125 1
-9 -4 16 133.075 206.065 -2
9 4 9 133.075 206.065 1
-9 -4 17 216.866 232.815 -2
9 4 10 216.866 232.815 1
-9 -4 18 244.465 258.745 -2
9 4 11 244.465 258.745 1
-9 -5 -3 93.0914 150.674 -2
9 5 -10 93.0914 150.674 1
-9 -5 -2 515.7 152.042 -2
9 5 -9 515.7 152.042 1
-9 -5 -1 1013.07 156.51 -2
9 5 -8 1013.07 156.51 1
-9 -5 0 2378.32 174.561 -2
9 5 -7 2378.32 174.561 1
-9 -5 1 577.812 156.63 -2
9 5 -6 577.812 156.63 1
-9 -5 2 3529.52 192.69 -2
9 5 -5 3529.52 192.69 1
-9 -5 3 4280.43 202.779 -2
9 5 -4 4280.43 202.779 1
-9 -5 4 3105.33 189.342 -2
9 5 -3 3105.33 189.342 1
-9 -5 5 1558.81 170.295 -2
9 5 -2 1558.81 170.295 1
-9 -5 6 234.475 148.513 -2
9 5 -1 234.475 148.513 1
-9 -5 7 1174.53 165.992 -2
9 5 0 1174.53 165.992 1
-9 -5 8 620.961 159.644 -2
9 5 1 620.961 159.644 1
-9 -5 9 1099.55 169.473 -2
9 5 2 1099.55 169.473 1
-9 -5 10 103.439 162.003 -2
9 5 3 103.439 162.003 1
-9 -5 11 127.368 167.826 -2
9 5 4 127.368 167.826 1
-9 -5 12 507.052 185.933 -2
9 5 5 507.052 185.933 1
-9 -5 13 214.713 189.613 -2
9 5 6 214.713 189.613 1
-9 -5 14 620.209 208.896 -2
9 5 7 620.209 208.896 1
-9 -5 15 255.813 223.439 -2
9 5 8 255.813 223.439 1
-9 -5 16 336.934 237.357 -2
9 5 9 336.934 237.357 1
-9 -5 17 750.38 266.595 -2
9 5 10 750.38 266.595 1
-9 -6 -2 215.574 163.6 -2
9 6 -9 215.574 163.6 1
-9 -6 -1 441.951 166.725 -2
9 6 -8 441.951 166.725 1
-9 -6 0 -24.4567 160.283 -2
9 6 -7 -24.4567 160.283 1
-9 -6 1 732.23 164.351 -2
9 6 -6 732.23 164.351 1
-9 -6 2 485.126 159.856 -2
9 6 -5 485.126 159.856 1
-9 -6 3 3071.64 184.235 -2
9 6 -4 3071.64 184.235 1
-9 -6 4 2232.58 181.371 -2
9 6 -3 2232.58 181.371 1
-9 -6 5 687.472 168.717 -2
9 6 -2 687.472 168.717 1
-9 -6 6 503.263 168.288 -2
9 6 -1 503.263 168.288 1
-9 -6 7 237.211 169.551 -2
9 6 0 237.211 169.551 1
-9 -6 8 336.41 173.222 -2
9 6 1 336.41 173.222 1
-9 -6 9 309.073 176.842 -2
9 6 2 309.073 176.842 1
-9 -6 10 500.277 184.625 -2
9 6 3 500.277 184.625 1
-9 -6 11 641.614 197.903 -2
9 6 4 641.614 197.903 1
-9 -6 12 1734.04 216.776 -2
9 6 5 1734.04 216.776 1
-9 -6 13 1465.06 223.443 -2
9 6 6 1465.06 223.443 1
-9 -6 14 503.242 223.423 -2
9 6 7 503.242 223.423 1
-9 -6 15 406.361 233.391 -2
9 6 8 406.361 233.391 1
-9 -6 16 233.324 250.095 -2
9 6 9 233.324 250.095 1
9 7 -9 115.263 159.042 1
9 7 -8 59.9748 153.443 1
9 7 -7 179.087 147.336 1
9 7 -6 147.428 144.958 1
9 7 -5 1003.59 157.04 1
9 7 -4 112.951 141.026 1
9 7 -3 136.82 138.48 1
9 7 -2 124.406 144.323 1
9 7 -1 493.405 150.224 1
9 7 0 118.688 147.738 1
9 7 1 913.727 162.49 1
9 7 2 2081.42 178.946 1
9 7 3 95.6284 161.128 1
9 7 4 88.2454 167.595 1
9 7 5 402.817 180.673 1
9 7 6 541.103 184.425 1
9 7 7 33.6378 195.278 1
9 8 -9 162.578 182.815 1
9 8 -8 230.555 173.085 1
9 8 -7 69.4524 168.557 1
9 8 -6 567.083 170.153 1
9 8 -5 -3.02862 164.752 1
9 8 -4 130.687 165.748 1
9 8 -3 262.63 162.598 1
9 8 -2 225.925 164.365 1
9 8 -1 -63.7306 166.839 1
9 8 0 172.972 173.304 1
9 8 1 42.8683 169.545 1
9 8 2 158.159 178.934 1
9 8 3 65.5176 182.373 1
9 8 4 110.333 191.49 1
9 8 5 275.994 209.178 1
-9 -9 0 291.525 239.63 -2
9 9 -8 291.525 239.63 1
-9 -9 1 302.059 240.268 -2
9 9 -7 302.059 240.268 1
-9 -9 2 350.889 242.969 -2
9 9 -6 350.889 242.969 1
-9 -9 3 243.666 268.625 -2
9 9 -5 243.666 268.625 1
-9 -9 4 545.92 243.591 -2
9 9 -4 545.92 243.591 1
-9 -9 6 554.868 235.424 -2
9 9 -2 554.868 235.424 1
-9 -9 7 268.99 233.607 -2
9 9 -1 268.99 233.607 1
-9 -9 8 182.032 232.997 -2
9 9 0 182.032 232.997 1
-9 -9 9 615.642 239.499 -2
9 9 1 615.642 239.499 1
-9 -9 10 458.159 247.06 -2
9 9 2 458.159 247.06 1
-9 -10 2 475.463 271.825 -2
9 10 -6 475.463 271.825 1
-9 -10 3 433.758 259.337 -2
9 10 -5 433.758 259.337 1
10 -12 -1 715.347 299.892 -2
-10 12 4 715.347 299.892 1
10 -12 -2 592.981 291.076 -2
-10 12 3 592.981 291.076 1
10 -12 -3 626.824 290.573 -2
-10 12 2 626.824 290.573 1
10 -11 4 537.545 330.619 -2
-10 11 9 537.545 330.619 1
-10 11 -3 729.54 203.733 -2
10 -11 -8 729.54 203.733 1
-10 11 -2 682.717 191.446 -2
10 -11 -7 682.717 191.446 1
-10 11 -1 369.424 187.054 -2
10 -11 -6 369.424 187.054 1
-10 11 0 370.431 183.656 -2
10 -11 -5 370.431 183.656 1
-10 11 1 707.396 186.89 -2
10 -11 -4 707.396 186.89 1
-10 11 2 214.713 183.041 -2
10 -11 -3 214.713 183.041 1
-10 11 3 270.756 175.538 -2
10 -11 -2 270.756 175.538 1
10 -11 -4 625.269 177.187 -2
-10 11 1 625.269 177.187 1
10 -11 -5 308.38 179.064 -2
-10 11 0 308.38 179.064 1
10 -11 -6 678.047 189.529 -2
-10 11 -1 678.047 189.529 1
10 -11 -7 1282.49 193.879 -2
-10 11 -2 1282.49 193.879 1
10 -11 -8 930.736 194.135 -2
-10 11 -3 930.736 194.135 1
-10 10 -6 1170.86 296.791 -2
10 -10 -11 1170.86 296.791 1
-10 10 -5 1135.38 201.607 -2
10 -10 -10 1135.38 201.607 1
-10 10 -4 1021.16 187.467 -2
10 -10 -9 1021.16 187.467 1
-10 10 -3 381.508 177.384 -2
10 -10 -8 381.508 177.384 1
-10 10 -2 419.878 168.701 -2
10 -10 -7 419.878 168.701 1
-10 10 -1 401.446 164.687 -2
10 -10 -6 401.446 164.687 1
-10 10 0 422.151 164.748 -2
10 -10 -5 422.151 164.748 1
-10 10 1 328.998 159.876 -2
10 -10 -4 328.998 159.876 1
-10 10 2 393.373 159.944 -2
10 -10 -3 393.373 159.944 1
-10 10 3 682.121 161.914 -2
10 -10 -2 682.121 161.914 1
10 -10 -4 194.028 158.674 -2
-10 10 1 194.028 158.674 1
10 -10 -5 263.383 159.412 -2
-10 10 0 263.383 159.412 1
10 -10 -6 300.823 165.443 -2
-10 10 -1 300.823 165.443 1
10 -10 -7 365.747 165.171 -2
-10 10 -2 365.747 165.171 1
10 -10 -8 489.372 170.542 -2
-10 10 -3 489.372 170.542 1
10 -10 -9 1393.88 182.697 -2
-10 10 -4 1393.88 182.697 1
10 -10 -10 1668.15 194.439 -2
-10 10 -5 1668.15 194.439 1
10 -10 -11 813.705 195.176 -2
-10 10 -6 813.705 195.176 1
-10 9 -8 601.433 282.59 -2
10 -9 -13 601.433 282.59 1
-10 9 -7 572.014 270.384 -2
10 -9 -12 572.014 270.384 1
-10 9 -6 1234.61 263.74 -2
10 -9 -11 1234.61 263.74 1
-10 9 -5 414.958 248.942 -2
10 -9 -10 414.958 248.942 1
-10 9 -4 3080.39 261.111 -2
10 -9 -9 3080.39 261.111 1
-10 9 -3 544.174 234.513 -2
10 -9 -8 544.174 234.513 1
-10 9 -2 979.86 154.511 -2
10 -9 -7 979.86 154.511 1
-10 9 -1 715.903 147.062 -2
10 -9 -6 715.903 147.062 1
-10 9 0 522.653 145.511 -2
10 -9 -5 522.653 145.511 1
-10 9 1 654.25 148.96 -2
10 -9 -4 654.25 148.96 1
-10 9 2 227.113 142.831 -2
10 -9 -3 227.113 142.831 1
-10 9 3 214.903 141.769 -2
10 -9 -2 214.903 141.769 1
10 -9 -4 557.013 142.044 -2
-10 9 1 557.013 142.044 1
10 -9 -5 395.716 147.023 -2
-10 9 0 395.716 147.023 1
10 -9 -6 577.516 152.246 -2
-10 9 -1 577.516 152.246 1
10 -9 -7 974.393 151.186 -2
-10 9 -2 974.393 151.186 1
10 -9 -8 1033.79 155.896 -2
-10 9 -3 1033.79 155.896 1
10 -9 -9 4792.43 181.983 -2
-10 9 -4 4792.43 181.983 1
10 -9 -10 409.384 164.947 -2
-10 9 -5 409.384 164.947 1
10 -9 -11 791.964 176.515 -2
-10 9 -6 791.964 176.515 1
10 -9 -12 386.878 180.852 -2
-10 9 -7 386.878 180.852 1
-10 8 -8 494.288 264.54 -2
10 -8 -14 494.288 264.54 1
-10 8 -7 844.367 249.25 -2
10 -8 -13 844.367 249.25 1
-10 8 -6 1372.55 245.637 -2
10 -8 -12 1372.55 245.637 1
-10 8 -5 808.649 229.626 -2
10 -8 -11 808.649 229.626 1
-10 8 -4 2142.31 231.883 -2
10 -8 -10 2142.31 231.883 1
-10 8 -3 333.386 214.806 -2
10 -8 -9 333.386 214.806 1
-10 8 -2 187.043 203.035 -2
10 -8 -8 187.043 203.035 1
-10 8 -1 460.058 191.213 -2
10 -8 -7 460.058 191.213 1
-10 8 0 1292.79 191.377 -2
10 -8 -6 1292.79 191.377 1
-10 8 1 1501.05 139.639 -2
10 -8 -5 1501.05 139.639 1
-10 8 2 1761.69 141.371 -2
10 -8 -4 1761.69 141.371 1
10 -8 -3 1004.63 150.684 1
10 -8 -3 1518.76 199.357 -2
-10 8 3 1518.76 199.357 1
-10 8 2 3029.17 189.767 1
-10 8 4 2995.61 199.29 -2
10 -8 -2 2995.61 199.29 1
-10 8 1 2299.4 126.047 1
-10 8 0 1780.95 122.848 1
-10 8 -1 313.884 117.604 1
-10 8 -2 67.9522 110.553 1
-10 8 -3 100.493 157.899 1
10 -8 -9 302.309 198.409 -2
-10 8 -3 302.309 198.409 1
-10 8 -4 3053 192.985 1
10 -8 -10 3150.76 226.518 -2
-10 8 -4 3150.76 226.518 1
-10 8 -5 96.697 122.571 1
-10 8 -6 168.626 130.726 1
-10 8 -7 342.619 138.451 1
-10 8 -8 330.998 215.244 1
10 -8 -14 570.245 248.522 -2
-10 8 -8 570.245 248.522 1
-10 8 -9 195.775 236.861 1
-10 7 -10 406.913 288.855 -2
10 -7 -16 406.913 288.855 1
-10 7 -9 880.469 267.35 -2
10 -7 -15 880.469 267.35 1
-10 7 -8 407.925 242.232 -2
10 -7 -14 407.925 242.232 1
-10 7 -7 542.519 230.984 -2
10 -7 -13 542.519 230.984 1
-10 7 -6 280.715 217.876 -2
10 -7 -12 280.715 217.876 1
-10 7 -5 410.983 211.01 -2
10 -7 -11 410.983 211.01 1
-10 7 -4 193.508 202.62 -2
10 -7 -10 193.508 202.62 1
-10 7 -3 1449.33 209.248 -2
10 -7 -9 1449.33 209.248 1
-10 7 -2 534.259 185.971 -2
10 -7 -8 534.259 185.971 1
-10 7 -1 2445.39 192.352 -2
10 -7 -7 2445.39 192.352 1
-10 7 0 1207.34 181.537 -2
10 -7 -6 1207.34 181.537 1
-10 7 1 2347.83 195.585 -2
10 -7 -5 2347.83 195.585 1
-10 7 2 2230.27 137.003 -2
10 -7 -4 2230.27 137.003 1
-10 7 3 874.572 126.068 -2
10 -7 -3 874.572 126.068 1
10 -7 -4 3796.76 207.042 -2
-10 7 2 3796.76 207.042 1
10 -7 -5 3982.65 146.67 -2
-10 7 1 3982.65 146.67 1
10 -7 -6 1429.79 132.619 -2
-10 7 0 1429.79 132.619 1
10 -7 -7 1504.56 135.397 -2
-10 7 -1 1504.56 135.397 1
10 -7 -8 371.967 127.736 -2
-10 7 -2 371.967 127.736 1
10 -7 -9 1059.72 135.43 -2
-10 7 -3 1059.72 135.43 1
10 -7 -10 232.778 136.901 -2
-10 7 -4 232.778 136.901 1
10 -7 -11 406.872 142.241 -2
-10 7 -5 406.872 142.241 1
10 -7 -12 462.849 148.799 -2
-10 7 -6 462.849 148.799 1
10 -7 -13 983.151 161.712 -2
-10 7 -7 983.151 161.712 1
10 -7 -14 443.421 170.315 -2
-10 7 -8 443.421 170.315 1
10 -7 -15 1323.08 251.926 -2
-10 7 -9 1323.08 251.926 1
-10 6 -10 254.245 272.492 -2
10 -6 -16 254.245 272.492 1
-10 6 -9 1526.16 260.593 -2
10 -6 -15 1526.16 260.593 1
-10 6 -8 2865.42 256.954 -2
10 -6 -14 2865.42 256.954 1
-10 6 -7 446.119 216.912 -2
10 -6 -13 446.119 216.912 1
-10 6 -6 1255.16 216.125 -2
10 -6 -12 1255.16 216.125 1
-10 6 -5 433.669 201.137 -2
10 -6 -11 433.669 201.137 1
-10 6 -4 899.691 200.468 -2
10 -6 -10 899.691 200.468 1
-10 6 -3 219.338 183.296 -2
10 -6 -9 219.338 183.296 1
-10 6 -2 398.468 168.044 -2
10 -6 -8 398.468 168.044 1
-10 6 -1 5126.03 224.228 -2
10 -6 -7 5126.03 224.228 1
-10 6 0 639.007 168.328 -2
10 -6 -6 639.007 168.328 1
-10 6 1 361.568 166.558 -2
10 -6 -5 361.568 166.558 1
-10 6 2 322.199 169.459 -2
10 -6 -4 322.199 169.459 1
-10 6 3 341.014 116.764 -2
10 -6 -3 341.014 116.764 1
10 -6 -4 234.775 113.641 -2
-10 6 2 234.775 113.641 1
10 -6 -5 178.329 117.105 -2
-10 6 1 178.329 117.105 1
10 -6 -6 992.408 126.363 -2
-10 6 0 992.408 126.363 1
10 -6 -7 2906.03 142.504 -2
-10 6 -1 2906.03 142.504 1
10 -6 -8 333.792 122.961 -2
-10 6 -2 333.792 122.961 1
10 -6 -9 265.586 125.539 -2
-10 6 -3 265.586 125.539 1
10 -6 -10 655.651 129.514 -2
-10 6 -4 655.651 129.514 1
10 -6 -11 604.385 133.794 -2
-10 6 -5 604.385 133.794 1
10 -6 -12 1193.46 145.068 -2
-10 6 -6 1193.46 145.068 1
10 -6 -13 441.695 153.138 -2
-10 6 -7 441.695 153.138 1
10 -6 -14 3257.56 184.067 -2
-10 6 -8 3257.56 184.067 1
10 -6 -15 2367.26 255.973 -2
-10 6 -9 2367.26 255.973 1
10 -6 -16 190.399 246.195 -2
-10 6 -10 190.399 246.195 1
-10 5 -10 161.845 264.442 -2
10 -5 -16 161.845 264.442 1
-10 5 -9 658.31 238.616 -2
10 -5 -15 658.31 238.616 1
-10 5 -8 3369.3 254.773 -2
10 -5 -14 3369.3 254.773 1
-10 5 -7 730.1 211.657 -2
10 -5 -13 730.1 211.657 1
-10 5 -6 285.21 197.393 -2
10 -5 -12 285.21 197.393 1
-10 5 -5 378.814 189.232 -2
10 -5 -11 378.814 189.232 1
-10 5 -4 751.601 189.019 -2
10 -5 -10 751.601 189.019 1
-10 5 -3 3937.24 219.071 -2
10 -5 -9 3937.24 219.071 1
-10 5 -2 4647.25 218.677 -2
10 -5 -8 4647.25 218.677 1
-10 5 -1 1785.98 181.262 -2
10 -5 -7 1785.98 181.262 1
-10 5 0 217.738 157.43 -2
10 -5 -6 217.738 157.43 1
-10 5 1 104.614 153.464 -2
10 -5 -5 104.614 153.464 1
-10 5 2 161.555 155.909 -2
10 -5 -4 161.555 155.909 1
10 -5 -3 289.096 150.94 -2
-10 5 3 289.096 150.94 1
10 -5 -4 257.748 110.283 -2
-10 5 2 257.748 110.283 1
10 -5 -5 238.729 111.536 -2
-10 5 1 238.729 111.536 1
10 -5 -6 175.237 112.429 -2
-10 5 0 175.237 112.429 1
10 -5 -7 1686.34 127.28 -2
-10 5 -1 1686.34 127.28 1
10 -5 -8 2599.09 139.458 -2
-10 5 -2 2599.09 139.458 1
10 -5 -9 2722.73 148.027 -2
-10 5 -3 2722.73 148.027 1
10 -5 -10 403.638 111.224 -2
-10 5 -4 403.638 111.224 1
10 -5 -11 571.56 128.61 -2
-10 5 -5 571.56 128.61 1
10 -5 -12 144.567 135.191 -2
-10 5 -6 144.567 135.191 1
10 -5 -13 724.061 148.523 -2
-10 5 -7 724.061 148.523 1
10 -5 -14 5473.6 199.43 -2
-10 5 -8 5473.6 199.43 1
10 -5 -15 1214.47 235.761 -2
-10 5 -9 1214.47 235.761 1
10 -5 -16 272.048 237.299 -2
-10 5 -10 272.048 237.299 1
10 -5 -17 254.524 269.754 -2
-10 5 -11 254.524 269.754 1
-10 4 -8 359.095 211.795 -2
10 -4 -14 359.095 211.795 1
-10 4 -7 23.796 198.434 -2
10 -4 -13 23.796 198.434 1
-10 4 -6 262.073 189.395 -2
10 -4 -12 262.073 189.395 1
-10 4 -5 152.674 176.875 -2
10 -4 -11 152.674 176.875 1
-10 4 -4 303.516 162.789 -2
10 -4 -10 303.516 162.789 1
-10 4 -3 2368.9 180.103 -2
10 -4 -9 2368.9 180.103 1
-10 4 -2 1782.66 172.61 -2
10 -4 -8 1782.66 172.61 1
-10 4 -1 2036.78 173.694 -2
10 -4 -7 2036.78 173.694 1
-10 4 0 208.89 145.513 -2
10 -4 -6 208.89 145.513 1
-10 4 1 309.403 146.231 -2
10 -4 -5 309.403 146.231 1
10 -4 -2 3883.21 130.078 -2
-10 4 4 3883.21 130.078 1
10 -4 -3 901.101 154.125 -2
-10 4 3 901.101 154.125 1
10 -4 -4 2332.06 179.494 -2
-10 4 2 2332.06 179.494 1
10 -4 -5 150.318 104.052 -2
-10 4 1 150.318 104.052 1
10 -4 -6 223.999 102.629 -2
-10 4 0 223.999 102.629 1
10 -4 -7 1265.14 117.091 -2
-10 4 -1 1265.14 117.091 1
10 -4 -8 1429.54 121.617 -2
-10 4 -2 1429.54 121.617 1
10 -4 -9 2517.24 134.705 -2
-10 4 -3 2517.24 134.705 1
10 -4 -10 253.627 116.788 -2
-10 4 -4 253.627 116.788 1
10 -4 -11 275.538 120.991 -2
-10 4 -5 275.538 120.991 1
10 -4 -12 45.8323 129.805 -2
-10 4 -6 45.8323 129.805 1
10 -4 -13 133.096 136.175 -2
-10 4 -7 133.096 136.175 1
10 -4 -14 300.092 205.228 -2
-10 4 -8 300.092 205.228 1
10 -4 -15 2.46414 213.992 -2
-10 4 -9 2.46414 213.992 1
10 -4 -16 314.441 228.741 -2
-10 4 -10 314.441 228.741 1
10 -4 -17 473.864 263.369 -2
-10 4 -11 473.864 263.369 1
10 -4 -18 681.768 300.653 -2
-10 4 -12 681.768 300.653 1
-10 3 -7 447.065 193.004 -2
10 -3 -13 447.065 193.004 1
-10 3 -6 537.693 181.309 -2
10 -3 -12 537.693 181.309 1
-10 3 -5 1190.39 168.066 -2
10 -3 -11 1190.39 168.066 1
-10 3 -4 8091.34 201.174 -2
10 -3 -10 8091.34 201.174 1
-10 3 -3 596.991 152.785 -2
10 -3 -9 596.991 152.785 1
-10 3 -2 3058.04 167.164 -2
10 -3 -8 3058.04 167.164 1
-10 3 -1 838.85 149.74 -2
10 -3 -7 838.85 149.74 1
-10 3 0 609.827 146.05 -2
10 -3 -6 609.827 146.05 1
10 -3 -1 704.72 137.2 -2
-10 3 5 704.72 137.2 1
10 -3 -2 4136.51 169.633 -2
-10 3 4 4136.51 169.633 1
10 -3 -3 898.374 148.8 -2
-10 3 3 898.374 148.8 1
10 -3 -4 2953.89 159.259 -2
-10 3 2 2953.89 159.259 1
10 -3 -5 536.103 136.801 -2
-10 3 1 536.103 136.801 1
10 -3 -6 973.563 104.848 -2
-10 3 0 973.563 104.848 1
10 -3 -7 624.998 108.069 -2
-10 3 -1 624.998 108.069 1
10 -3 -8 1818.61 115.02 -2
-10 3 -2 1818.61 115.02 1
10 -3 -9 716.971 113.291 -2
-10 3 -3 716.971 113.291 1
10 -3 -10 4485.57 138.51 -2
-10 3 -4 4485.57 138.51 1
10 -3 -11 844.55 121.59 -2
-10 3 -5 844.55 121.59 1
10 -3 -12 452.602 127.561 -2
-10 3 -6 452.602 127.561 1
10 -3 -13 508.33 183.649 -2
-10 3 -7 508.33 183.649 1
10 -3 -14 333.699 200.947 -2
-10 3 -8 333.699 200.947 1
10 -3 -15 475.128 210.161 -2
-10 3 -9 475.128 210.161 1
-10 3 -10 23.7809 179.032 1
10 -3 -17 449.353 261.049 -2
-10 3 -11 449.353 261.049 1
10 -3 -18 165.965 295.572 -2
-10 3 -12 165.965 295.572 1
-10 2 -4 383.304 154.782 -2
10 -2 -11 383.304 154.782 1
-10 2 -3 6716.4 187.179 -2
10 -2 -10 6716.4 187.179 1
-10 2 -2 1634.63 154.31 -2
10 -2 -9 1634.63 154.31 1
-10 2 -1 520.876 136.678 -2
10 -2 -8 520.876 136.678 1
-10 2 7 149.428 106.744 1
-10 2 6 130.155 110.917 1
-10 2 5 1058.96 119.131 1
-10 2 4 446.711 113.943 1
-10 2 3 27.2878 102.416 1
-10 2 2 69.4599 106.625 1
-10 2 1 113.871 103.97 1
-10 2 0 101.99 80.1293 1
-10 2 -1 45.5462 82.6485 1
-10 2 -2 969.312 91.9875 1
-10 2 -3 1694.31 102.645 1
-10 2 -4 104.313 90.7596 1
-10 2 -5 404.089 134.765 1
-10 2 -6 40.1445 137.041 1
-10 2 -7 194.555 149.868 1
-10 2 -8 438.255 160.676 1
10 -2 -16 450.125 211.446 -2
-10 2 -9 450.125 211.446 1
-10 2 -10 171.11 182.494 1
-10 2 -11 43.8821 229.015 1
10 -2 12 252.134 209.193 1
10 -1 -10 153.2 110.989 1
10 -1 2 1449.94 141.071 -2
-10 1 9 1449.94 141.071 1
10 -1 1 260.118 134.245 -2
-10 1 8 260.118 134.245 1
10 -1 0 304.446 131.904 -2
-10 1 7 304.446 131.904 1
10 -1 -1 732.572 133.963 -2
-10 1 6 732.572 133.963 1
10 -1 -2 919.259 129.444 -2
-10 1 5 919.259 129.444 1
10 -1 -3 2081.56 139.26 -2
-10 1 4 2081.56 139.26 1
10 -1 -4 1407.86 138.184 -2
-10 1 3 1407.86 138.184 1
10 -1 -5 834.752 132.816 -2
-10 1 2 834.752 132.816 1
10 -1 -6 1069.05 138.402 -2
-10 1 1 1069.05 138.402 1
10 -1 -7 205.023 98.2078 -2
-10 1 0 205.023 98.2078 1
10 -1 -8 176.028 102.847 -2
-10 1 -1 176.028 102.847 1
10 -1 -9 2149.25 116.254 -2
-10 1 -2 2149.25 116.254 1
10 -1 -10 2707.14 125.788 -2
-10 1 -3 2707.14 125.788 1
10 -1 -11 475.907 153.329 -2
-10 1 -4 475.907 153.329 1
10 -1 -12 523.385 170.901 -2
-10 1 -5 523.385 170.901 1
10 -1 -13 152.018 173.93 -2
-10 1 -6 152.018 173.93 1
10 -1 -14 327.412 192.516 -2
-10 1 -7 327.412 192.516 1
10 -1 -15 745.8 203.25 -2
-10 1 -8 745.8 203.25 1
10 -1 -16 567.261 214.865 -2
-10 1 -9 567.261 214.865 1
-10 1 17 485.161 246.639 -2
10 -1 10 485.161 246.639 1
-10 1 18 657.901 262.296 -2
10 -1 11 657.901 262.296 1
-10 0 -3 371.551 140.335 -2
10 0 -10 371.551 140.335 1
-10 0 -2 2523.25 155.602 -2
10 0 -9 2523.25 155.602 1
-10 0 -1 1170.29 148.016 -2
10 0 -8 1170.29 148.016 1
10 0 0 339.49 94.0569 -2
-10 0 7 339.49 94.0569 1
10 0 -1 1086.24 136.124 -2
-10 0 6 1086.24 136.124 1
10 0 -2 270.12 125.533 -2
-10 0 5 270.12 125.533 1
10 0 -3 660.832 129.317 -2
-10 0 4 660.832 129.317 1
10 0 -4 843.473 133.381 -2
-10 0 3 843.473 133.381 1
10 0 -5 289.065 125.957 -2
-10 0 2 289.065 125.957 1
10 0 -6 1400.7 149.116 -2
-10 0 1 1400.7 149.116 1
10 0 -7 281.906 100.595 -2
-10 0 0 281.906 100.595 1
10 0 -8 1731.15 117.91 -2
-10 0 -1 1731.15 117.91 1
10 0 -9 3991.24 190.249 -2
-10 0 -2 3991.24 190.249 1
10 0 -10 493.996 162.287 -2
-10 0 -3 493.996 162.287 1
10 0 -11 398.88 158.861 -2
-10 0 -4 398.88 158.861 1
10 0 -12 344.784 169.063 -2
-10 0 -5 344.784 169.063 1
10 0 -13 663.286 179.706 -2
-10 0 -6 663.286 179.706 1
-10 0 14 498.344 141.713 -2
10 0 7 498.344 141.713 1
-10 0 15 1181.5 223.034 -2
10 0 8 1181.5 223.034 1
-10 0 16 313.104 223.146 -2
10 0 9 313.104 223.146 1
-10 0 17 245.781 230.511 -2
10 0 10 245.781 230.511 1
-10 0 18 789.362 265.486 -2
10 0 11 789.362 265.486 1
-10 -1 -3 452.196 140.353 -2
10 1 -10 452.196 140.353 1
-10 -1 -2 637.458 149.16 -2
10 1 -9 637.458 149.16 1
-10 -1 -1 282.202 142.438 -2
10 1 -8 282.202 142.438 1
-10 -1 0 262.251 138.918 -2
10 1 -7 262.251 138.918 1
-10 -1 1 795.676 148.792 -2
10 1 -6 795.676 148.792 1
10 1 -2 215.34 95.1086 -2
-10 -1 5 215.34 95.1086 1
10 1 -3 211.918 97.2574 -2
-10 -1 4 211.918 97.2574 1
10 1 -4 182.815 97.4765 -2
-10 -1 3 182.815 97.4765 1
10 1 -5 429.412 102.178 -2
-10 -1 2 429.412 102.178 1
-10 -1 6 502.806 156.884 -2
10 1 -1 502.806 156.884 1
-10 -1 7 134.064 104.03 -2
10 1 0 134.064 104.03 1
-10 -1 8 397.019 113.585 -2
10 1 1 397.019 113.585 1
-10 -1 9 424.311 112.302 -2
10 1 2 424.311 112.302 1
-10 -1 10 519.426 120.2 -2
10 1 3 519.426 120.2 1
-10 -1 11 191.208 116.364 -2
10 1 4 191.208 116.364 1
-10 -1 12 810.685 133.201 -2
10 1 5 810.685 133.201 1
-10 -1 13 1705.5 214.965 -2
10 1 6 1705.5 214.965 1
-10 -1 14 2514.33 226.3 -2
10 1 7 2514.33 226.3 1
-10 -1 15 460.345 205.153 -2
10 1 8 460.345 205.153 1
-10 -1 16 525.355 229.539 -2
10 1 9 525.355 229.539 1
-10 -1 17 924.049 255.39 -2
10 1 10 924.049 255.39 1
-10 -1 18 2030.52 289.015 -2
10 1 11 2030.52 289.015 1
-10 -2 -2 416.945 138.279 -2
10 2 -9 416.945 138.279 1
-10 -2 -1 325.665 139.729 -2
10 2 -8 325.665 139.729 1
-10 -2 0 541.93 142.314 -2
10 2 -7 541.93 142.314 1
-10 -2 1 508.397 147.966 -2
10 2 -6 508.397 147.966 1
-10 -2 2 526.282 147.087 -2
10 2 -5 526.282 147.087 1
-10 -2 3 285.735 150.536 -2
10 2 -4 285.735 150.536 1
-10 -2 4 283.614 148.927 -2
10 2 -3 283.614 148.927 1
-10 -2 5 419.523 146.956 -2
10 2 -2 419.523 146.956 1
-10 -2 6 350.578 146.063 -2
10 2 -1 350.578 146.063 1
-10 -2 7 440.847 106.904 -2
10 2 0 440.847 106.904 1
-10 -2 8 546.431 110.721 -2
10 2 1 546.431 110.721 1
-10 -2 9 497.002 112.373 -2
10 2 2 497.002 112.373 1
-10 -2 10 633.921 168.491 -2
10 2 3 633.921 168.491 1
-10 -2 11 471.093 177.67 -2
10 2 4 471.093 177.67 1
-10 -2 12 1036.67 189.632 -2
10 2 5 1036.67 189.632 1
-10 -2 13 548.813 193.219 -2
10 2 6 548.813 193.219 1
-10 -2 14 5936.83 252.401 -2
10 2 7 5936.83 252.401 1
-10 -2 15 2516.34 239.809 -2
10 2 8 2516.34 239.809 1
-10 -2 16 558.631 236.933 -2
10 2 9 558.631 236.933 1
-10 -2 17 564.778 248.43 -2
10 2 10 564.778 248.43 1
10 3 -9 80.7658 121.086 1
10 3 -8 849.256 135.011 1
10 3 -7 576.598 127.359 1
10 3 -6 351.284 118.484 1
10 3 -5 157.709 121.781 1
10 3 -4 430.132 125.845 1
10 3 -3 788.963 125.44 1
10 3 -2 1358.6 137.185 1
10 3 -1 707.639 134.745 1
10 3 -6 1133.69 157.2 -2
-10 -3 1 1133.69 157.2 1
10 3 0 1510.29 145.046 1
10 3 1 417.856 133.995 1
10 3 2 240.64 136.674 1
10 3 3 65.0712 137.067 1
10 3 4 289.155 143.336 1
10 3 5 366.649 149.498 1
10 3 6 4992.93 205.951 1
10 3 7 854.855 173.785 1
10 3 8 138.062 173.251 1
10 3 9 82.7791 186.045 1
10 3 10 94.9947 206.379 1
10 4 -9 992.702 143.863 1
10 4 -8 334.924 133.96 1
10 4 -7 2909.37 155.251 1
10 4 -6 5416.03 179.504 1
10 4 -5 2527.83 156.434 1
10 4 -4 351.745 133.658 1
10 4 -3 142.796 128.942 1
10 4 -2 62.6149 127.145 1
10 4 -1 158.572 126.253 1
10 4 0 284.599 131.469 1
10 4 1 110.315 133.252 1
10 4 2 184.462 139.545 1
10 4 3 282.375 146.569 1
10 4 4 288.003 151.88 1
10 4 5 461.909 156.516 1
10 4 6 346.106 172.898 1
10 4 7 1460.91 196.037 1
10 4 8 351.846 201.386 1
10 4 9 193.958 207.58 1
-10 -5 -1 358.405 178.891 -2
10 5 -9 358.405 178.891 1
-10 -5 0 380.958 176.744 -2
10 5 -8 380.958 176.744 1
-10 -5 1 486.041 168.803 -2
10 5 -7 486.041 168.803 1
-10 -5 2 2465.23 186.329 -2
10 5 -6 2465.23 186.329 1
-10 -5 3 538.853 174.234 -2
10 5 -5 538.853 174.234 1
-10 -5 4 316.368 173.187 -2
10 5 -4 316.368 173.187 1
-10 -5 5 413.904 170.29 -2
10 5 -3 413.904 170.29 1
-10 -5 6 1413.68 186.061 -2
10 5 -2 1413.68 186.061 1
-10 -5 7 267.072 174.808 -2
10 5 -1 267.072 174.808 1
-10 -5 8 249.411 177.302 -2
10 5 0 249.411 177.302 1
-10 -5 9 545.256 183.96 -2
10 5 1 545.256 183.96 1
-10 -5 10 195.346 189.494 -2
10 5 2 195.346 189.494 1
-10 -5 11 524.64 196.66 -2
10 5 3 524.64 196.66 1
-10 -5 12 1146.71 213.259 -2
10 5 4 1146.71 213.259 1
-10 -5 13 495.292 219.868 -2
10 5 5 495.292 219.868 1
-10 -5 14 551.409 233.91 -2
10 5 6 551.409 233.91 1
-10 -5 15 349.033 249.385 -2
10 5 7 349.033 249.385 1
-10 -6 -1 392.614 201.877 -2
10 6 -9 392.614 201.877 1
-10 -6 0 346.007 198.532 -2
10 6 -8 346.007 198.532 1
-10 -6 1 312.257 190.945 -2
10 6 -7 312.257 190.945 1
-10 -6 2 445.819 191.968 -2
10 6 -6 445.819 191.968 1
-10 -6 3 1337.94 197.885 -2
10 6 -5 1337.94 197.885 1
-10 -6 4 2209.91 207.464 -2
10 6 -4 2209.91 207.464 1
-10 -6 5 1007.26 196.629 -2
10 6 -3 1007.26 196.629 1
-10 -6 6 329.058 190.411 -2
10 6 -2 329.058 190.411 1
-10 -6 7 667.467 201.122 -2
10 6 -1 667.467 201.122 1
-10 -6 8 233.602 200.821 -2
10 6 0 233.602 200.821 1
-10 -6 9 271.1 204.782 -2
10 6 1 271.1 204.782 1
-10 -6 10 2058.83 233.823 -2
10 6 2 2058.83 233.823 1
-10 -6 11 2346.98 249.05 -2
10 6 3 2346.98 249.05 1
-10 -6 12 3011.48 264.557 -2
10 6 4 3011.48 264.557 1
-10 -6 13 451.882 243.578 -2
10 6 5 451.882 243.578 1
-10 -6 14 337.111 251.102 -2
10 6 6 337.111 251.102 1
-10 -7 0 310.06 228.683 -2
10 7 -8 310.06 228.683 1
-10 -7 1 417.333 211.132 -2
10 7 -7 417.333 211.132 1
-10 -7 2 1862.76 228.992 -2
10 7 -6 1862.76 228.992 1
-10 -7 3 1962.19 233.244 -2
10 7 -5 1962.19 233.244 1
-10 -7 4 254.706 205.195 -2
10 7 -4 254.706 205.195 1
-10 -7 5 1899.58 228.347 -2
10 7 -3 1899.58 228.347 1
-10 -7 6 1465.43 228.819 -2
10 7 -2 1465.43 228.819 1
-10 -7 7 552.453 217.245 -2
10 7 -1 552.453 217.245 1
-10 -7 8 565.358 222.717 -2
10 7 0 565.358 222.717 1
-10 -7 9 322.559 226.759 -2
10 7 1 322.559 226.759 1
-10 -7 10 506.562 233.422 -2
10 7 2 506.562 233.422 1
-10 -7 11 802.642 247.769 -2
10 7 3 802.642 247.769 1
-10 -7 12 420.802 248.99 -2
10 7 4 420.802 248.99 1
-10 -8 0 453.525 271.797 -2
10 8 -8 453.525 271.797 1
-10 -8 1 449.425 285.823 -2
10 8 -7 449.425 285.823 1
-10 -8 2 850.762 250.357 -2
10 8 -6 850.762 250.357 1
-10 -8 3 737.984 239.853 -2
10 8 -5 737.984 239.853 1
-10 -8 4 864.02 234.869 -2
10 8 -4 864.02 234.869 1
-10 -8 5 863.956 238.949 -2
10 8 -3 863.956 238.949 1
-10 -8 6 782.75 243.467 -2
10 8 -2 782.75 243.467 1
-10 -8 7 338.981 238.989 -2
10 8 -1 338.981 238.989 1
-10 -8 8 565.204 248.462 -2
10 8 0 565.204 248.462 1
-10 -8 9 628.425 258.104 -2
10 8 1 628.425 258.104 1
11 -10 2 651.592 294.215 -2
-11 10 8 651.592 294.215 1
-11 10 -1 661.03 202.566 -2
11 -10 -7 661.03 202.566 1
-11 10 0 381.013 194.351 -2
11 -10 -6 381.013 194.351 1
-11 10 1 486.092 190.741 -2
11 -10 -5 486.092 190.741 1
-11 10 2 453.516 184.459 -2
11 -10 -4 453.516 184.459 1
11 -10 -3 1529.03 190.622 -2
-11 10 3 1529.03 190.622 1
11 -10 -4 651.103 191.221 -2
-11 10 2 651.103 191.221 1
11 -10 -5 569.311 187.364 -2
-11 10 1 569.311 187.364 1
11 -10 -6 291.702 184.631 -2
-11 10 0 291.702 184.631 1
11 -10 -7 709.386 187.319 -2
-11 10 -1 709.386 187.319 1
-11 9 -4 257.827 265.927 -2
11 -9 -10 257.827 265.927 1
-11 9 -3 333.847 186.066 -2
11 -9 -9 333.847 186.066 1
-11 9 -2 1631.56 190.858 -2
11 -9 -8 1631.56 190.858 1
-11 9 -1 329.838 175.258 -2
11 -9 -7 329.838 175.258 1
-11 9 0 354.802 172.031 -2
11 -9 -6 354.802 172.031 1
-11 9 1 242.821 173.359 -2
11 -9 -5 242.821 173.359 1
-11 9 2 708.496 172.878 -2
11 -9 -4 708.496 172.878 1
11 -9 -3 160.06 160.981 -2
-11 9 3 160.06 160.981 1
11 -9 -4 388.872 166.716 -2
-11 9 2 388.872 166.716 1
11 -9 -5 210.895 155.626 -2
-11 9 1 210.895 155.626 1
11 -9 -6 336.274 172.502 -2
-11 9 0 336.274 172.502 1
11 -9 -7 237.542 167.768 -2
-11 9 -1 237.542 167.768 1
11 -9 -8 2595.81 195.875 -2
-11 9 -2 2595.81 195.875 1
11 -9 -9 593.897 183.332 -2
-11 9 -3 593.897 183.332 1
11 -9 -10 357.466 187.503 -2
-11 9 -4 357.466 187.503 1
-11 8 -6 390.804 291.51 -2
11 -8 -12 390.804 291.51 1
-11 8 -5 331.737 265.897 -2
11 -8 -11 331.737 265.897 1
-11 8 -4 936.301 251.279 -2
11 -8 -10 936.301 251.279 1
-11 8 -3 741.121 235.274 -2
11 -8 -9 741.121 235.274 1
-11 8 -2 385.541 232.201 -2
11 -8 -8 385.541 232.201 1
-11 8 -1 352.056 229.113 -2
11 -8 -7 352.056 229.113 1
-11 8 0 661.314 158.569 -2
11 -8 -6 661.314 158.569 1
-11 8 1 664.821 159.037 -2
11 -8 -5 664.821 159.037 1
-11 8 2 2003.99 168.849 -2
11 -8 -4 2003.99 168.849 1
11 -8 -3 319.36 155.447 -2
-11 8 3 319.36 155.447 1
11 -8 -4 1335.49 163.371 -2
-11 8 2 1335.49 163.371 1
11 -8 -5 824.748 158.952 -2
-11 8 1 824.748 158.952 1
11 -8 -6 907.221 163.135 -2
-11 8 0 907.221 163.135 1
11 -8 -7 546.457 158.36 -2
-11 8 -1 546.457 158.36 1
11 -8 -8 669.72 162.122 -2
-11 8 -2 669.72 162.122 1
11 -8 -9 703.25 168.374 -2
-11 8 -3 703.25 168.374 1
11 -8 -10 1121.94 177.074 -2
-11 8 -4 1121.94 177.074 1
11 -8 -11 411.085 176.692 -2
-11 8 -5 411.085 176.692 1
11 -8 -12 415.728 189.768 -2
-11 8 -6 415.728 189.768 1
-11 7 -8 637.602 311.363 -2
11 -7 -14 637.602 311.363 1
-11 7 -7 360.508 284.858 -2
11 -7 -13 360.508 284.858 1
-11 7 -6 449.004 266.645 -2
11 -7 -12 449.004 266.645 1
-11 7 -5 212.661 244.453 -2
11 -7 -11 212.661 244.453 1
-11 7 -4 742.142 226.321 -2
11 -7 -10 742.142 226.321 1
-11 7 -3 988.144 221.47 -2
11 -7 -9 988.144 221.47 1
-11 7 -2 1415.9 226.621 -2
11 -7 -8 1415.9 226.621 1
-11 7 -1 3276.93 238.22 -2
11 -7 -7 3276.93 238.22 1
-11 7 0 585.404 208.635 -2
11 -7 -6 585.404 208.635 1
-11 7 1 235.879 142.999 -2
11 -7 -5 235.879 142.999 1
-11 7 2 833.416 141.665 -2
11 -7 -4 833.416 141.665 1
11 -7 -3 1209.78 146.096 -2
-11 7 3 1209.78 146.096 1
11 -7 -4 512.21 146.772 -2
-11 7 2 512.21 146.772 1
11 -7 -5 260.081 144.846 -2
-11 7 1 260.081 144.846 1
11 -7 -6 377.989 143.024 -2
-11 7 0 377.989 143.024 1
11 -7 -7 3566.37 163.92 -2
-11 7 -1 3566.37 163.92 1
11 -7 -8 2339.11 162.711 -2
-11 7 -2 2339.11 162.711 1
11 -7 -9 1387.22 158.562 -2
-11 7 -3 1387.22 158.562 1
11 -7 -10 625.891 224.716 -2
-11 7 -4 625.891 224.716 1
11 -7 -11 303.734 166.318 -2
-11 7 -5 303.734 166.318 1
11 -7 -12 474.081 173.895 -2
-11 7 -6 474.081 173.895 1
11 -7 -13 544.793 186.713 -2
-11 7 -7 544.793 186.713 1
-11 6 -7 1053.5 284.36 -2
11 -6 -14 1053.5 284.36 1
-11 6 -6 963.895 260.627 -2
11 -6 -13 963.895 260.627 1
-11 6 -5 279.117 232.194 -2
11 -6 -12 279.117 232.194 1
-11 6 -4 583.694 217.757 -2
11 -6 -11 583.694 217.757 1
-11 6 -3 725.232 208.711 -2
11 -6 -10 725.232 208.711 1
-11 6 -2 1062.14 208.642 -2
11 -6 -9 1062.14 208.642 1
-11 6 -1 548.686 201.641 -2
11 -6 -8 548.686 201.641 1
-11 6 0 302.468 198.547 -2
11 -6 -7 302.468 198.547 1
-11 6 1 548.602 197.578 -2
11 -6 -6 548.602 197.578 1
-11 6 2 461.105 177.926 -2
11 -6 -5 461.105 177.926 1
11 -6 -3 445.495 131.831 -2
-11 6 4 445.495 131.831 1
11 -6 -4 224.798 133.132 -2
-11 6 3 224.798 133.132 1
11 -6 -5 651.321 137.071 -2
-11 6 2 651.321 137.071 1
-11 6 1 477.883 162.626 1
11 -6 -6 383.549 186.678 -2
-11 6 1 383.549 186.678 1
-11 6 0 53.767 145.968 1
11 -6 -7 217.205 187.918 -2
-11 6 0 217.205 187.918 1
11 -6 -8 740.728 142.901 -2
-11 6 -1 740.728 142.901 1
-11 6 -2 1354.02 121.739 1
-11 6 -3 356.562 119.626 1
-11 6 -4 488.781 174.984 1
11 -6 -11 803.35 216.523 -2
-11 6 -4 803.35 216.523 1
-11 6 -5 151.761 177.512 1
11 -6 -12 727.407 227.762 -2
-11 6 -5 727.407 227.762 1
-11 6 -6 172.381 186.922 1
11 -6 -13 701.149 248.818 -2
-11 6 -6 701.149 248.818 1
-11 6 -7 1036.22 219.109 1
11 -6 -14 1459.56 262.816 -2
-11 6 -7 1459.56 262.816 1
11 -6 -15 1677.79 275.012 -2
-11 6 -8 1677.79 275.012 1
-11 5 -7 1224.57 265.901 -2
11 -5 -14 1224.57 265.901 1
-11 5 -6 555.503 238.611 -2
11 -5 -13 555.503 238.611 1
-11 5 -5 466.132 216.544 -2
11 -5 -12 466.132 216.544 1
-11 5 -4 793.292 211.522 -2
11 -5 -11 793.292 211.522 1
-11 5 -3 1230.83 207.718 -2
11 -5 -10 1230.83 207.718 1
-11 5 -2 967.456 201.511 -2
11 -5 -9 967.456 201.511 1
-11 5 -1 912.421 195.167 -2
11 -5 -8 912.421 195.167 1
-11 5 0 393.676 187.491 -2
11 -5 -7 393.676 187.491 1
-11 5 1 297.663 175.989 -2
11 -5 -6 297.663 175.989 1
11 -5 -2 750.1 179.166 -2
-11 5 5 750.1 179.166 1
11 -5 -3 193.253 176.137 -2
-11 5 4 193.253 176.137 1
11 -5 -4 257.077 127.449 -2
-11 5 3 257.077 127.449 1
11 -5 -5 478.192 127.301 -2
-11 5 2 478.192 127.301 1
11 -5 -6 291.346 125.928 -2
-11 5 1 291.346 125.928 1
11 -5 -7 310.046 129.06 -2
-11 5 0 310.046 129.06 1
11 -5 -8 990.604 133.662 -2
-11 5 -1 990.604 133.662 1
11 -5 -9 762.671 139.644 -2
-11 5 -2 762.671 139.644 1
11 -5 -10 1653.73 145.709 -2
-11 5 -3 1653.73 145.709 1
11 -5 -11 666.905 146.06 -2
-11 5 -4 666.905 146.06 1
11 -5 -12 418.904 154.526 -2
-11 5 -5 418.904 154.526 1
11 -5 -13 952.507 163.778 -2
-11 5 -6 952.507 163.778 1
11 -5 -14 2275.69 261.199 -2
-11 5 -7 2275.69 261.199 1
11 -5 -15 649.212 262.954 -2
-11 5 -8 649.212 262.954 1
-11 4 -5 342.349 212.022 -2
11 -4 -12 342.349 212.022 1
-11 4 -4 1343.39 216.948 -2
11 -4 -11 1343.39 216.948 1
-11 4 -3 265.599 195.543 -2
11 -4 -10 265.599 195.543 1
-11 4 -2 513.394 191.851 -2
11 -4 -9 513.394 191.851 1
-11 4 -1 1730.88 201.173 -2
11 -4 -8 1730.88 201.173 1
-11 4 0 937.48 177.816 -2
11 -4 -7 937.48 177.816 1
11 -4 -1 352.584 168.653 -2
-11 4 6 352.584 168.653 1
11 -4 -2 966.632 179.148 -2
-11 4 5 966.632 179.148 1
11 -4 -3 1526.79 190.7 -2
-11 4 4 1526.79 190.7 1
11 -4 -4 1392.24 185.41 -2
-11 4 3 1392.24 185.41 1
11 -4 -5 871.19 126.46 -2
-11 4 2 871.19 126.46 1
11 -4 -6 594.78 126.146 -2
-11 4 1 594.78 126.146 1
11 -4 -7 793.727 132.961 -2
-11 4 0 793.727 132.961 1
11 -4 -8 883.874 132.061 -2
-11 4 -1 883.874 132.061 1
11 -4 -9 658.63 135.572 -2
-11 4 -2 658.63 135.572 1
11 -4 -10 386.659 136.086 -2
-11 4 -3 386.659 136.086 1
11 -4 -11 822.702 146.012 -2
-11 4 -4 822.702 146.012 1
11 -4 -12 499.02 150.528 -2
-11 4 -5 499.02 150.528 1
11 -4 -13 428.808 158.065 -2
-11 4 -6 428.808 158.065 1
11 -4 -14 650.24 240.374 -2
-11 4 -7 650.24 240.374 1
11 -4 -15 464.994 251.469 -2
-11 4 -8 464.994 251.469 1
11 -4 -16 175.942 260.563 -2
-11 4 -9 175.942 260.563 1
-11 3 -4 2694.6 227.402 -2
11 -3 -11 2694.6 227.402 1
-11 3 -3 262.314 191.184 -2
11 -3 -10 262.314 191.184 1
-11 3 -2 10321.8 286.59 -2
11 -3 -9 10321.8 286.59 1
11 -3 1 452.16 169.288 -2
-11 3 8 452.16 169.288 1
11 -3 0 207.62 165.942 -2
-11 3 7 207.62 165.942 1
11 -3 -1 184.453 163.708 -2
-11 3 6 184.453 163.708 1
11 -3 -2 192.082 167.717 -2
-11 3 5 192.082 167.717 1
11 -3 -3 232.513 160.946 -2
-11 3 4 232.513 160.946 1
11 -3 -4 256.562 159.061 -2
-11 3 3 256.562 159.061 1
11 -3 -5 179.005 116.233 -2
-11 3 2 179.005 116.233 1
11 -3 -6 271.577 120.158 -2
-11 3 1 271.577 120.158 1
11 -3 -7 131.709 107.844 -2
-11 3 0 131.709 107.844 1
11 -3 -8 521.205 126.511 -2
-11 3 -1 521.205 126.511 1
11 -3 -9 5817.01 176.296 -2
-11 3 -2 5817.01 176.296 1
11 -3 -10 361.402 136.164 -2
-11 3 -3 361.402 136.164 1
11 -3 -11 1573.02 149.318 -2
-11 3 -4 1573.02 149.318 1
11 -3 -12 895.627 150.656 -2
-11 3 -5 895.627 150.656 1
11 -3 -13 161.961 214.571 -2
-11 3 -6 161.961 214.571 1
11 -3 -14 1244.59 247.736 -2
-11 3 -7 1244.59 247.736 1
11 -3 -15 452.321 246.228 -2
-11 3 -8 452.321 246.228 1
11 -3 -16 133.962 260.713 -2
-11 3 -9 133.962 260.713 1
11 -3 -17 15.2626 286.241 -2
-11 3 -10 15.2626 286.241 1
11 -2 2 2604.05 198.689 -2
-11 2 9 2604.05 198.689 1
11 -2 1 1301.19 179.136 -2
-11 2 8 1301.19 179.136 1
11 -2 0 855.712 175.601 -2
-11 2 7 855.712 175.601 1
11 -2 -1 493.849 161.595 -2
-11 2 6 493.849 161.595 1
11 -2 -2 487.249 154.859 -2
-11 2 5 487.249 154.859 1
11 -2 -3 334.072 152.868 -2
-11 2 4 334.072 152.868 1
11 -2 -4 190.249 155.012 -2
-11 2 3 190.249 155.012 1
11 -2 -5 377.797 156.363 -2
-11 2 2 377.797 156.363 1
11 -2 -6 697.764 120.619 -2
-11 2 1 697.764 120.619 1
11 -2 -7 1142.27 126.348 -2
-11 2 0 1142.27 126.348 1
11 -2 -8 1046.7 128.254 -2
-11 2 -1 1046.7 128.254 1
11 -2 -9 1841.15 138.239 -2
-11 2 -2 1841.15 138.239 1
11 -2 -10 627.448 138.511 -2
-11 2 -3 627.448 138.511 1
11 -2 -11 566.768 188.778 -2
-11 2 -4 566.768 188.778 1
11 -2 -12 936.379 207.428 -2
-11 2 -5 936.379 207.428 1
11 -2 -13 1429.81 223.893 -2
-11 2 -6 1429.81 223.893 1
11 -2 -14 510.41 231.658 -2
-11 2 -7 510.41 231.658 1
11 -2 -15 644.571 248.843 -2
-11 2 -8 644.571 248.843 1
11 -2 -16 178.569 265.395 -2
-11 2 -9 178.569 265.395 1
11 -1 -9 1102.42 140.341 1
11 -1 -8 192.387 128.955 1
11 -1 -1 2066.33 163.158 -2
-11 1 6 2066.33 163.158 1
11 -1 -2 886.481 159.586 -2
-11 1 5 886.481 159.586 1
11 -1 -3 1158.54 157.939 -2
-11 1 4 1158.54 157.939 1
11 -1 -4 729.284 157.478 -2
-11 1 3 729.284 157.478 1
11 -1 -5 1365.39 159.744 -2
-11 1 2 1365.39 159.744 1
11 -1 -6 3538.61 131.767 -2
-11 1 1 3538.61 131.767 1
11 -1 -7 7399.7 154.058 -2
-11 1 0 7399.7 154.058 1
11 -1 -8 4358.22 143.229 -2
-11 1 -1 4358.22 143.229 1
11 -1 -9 990.1 129.67 -2
-11 1 -2 990.1 129.67 1
11 -1 -10 1032.07 194.509 -2
-11 1 -3 1032.07 194.509 1
11 -1 -11 784.75 188.507 -2
-11 1 -4 784.75 188.507 1
11 -1 -12 530.662 200.87 -2
-11 1 -5 530.662 200.87 1
11 -1 -13 240.833 211.219 -2
-11 1 -6 240.833 211.219 1
11 -1 -14 733.082 233.44 -2
-11 1 -7 733.082 233.44 1
11 -1 8 236.669 183.684 1
11 -1 9 363.724 201.048 1
11 0 -9 64.8818 139.873 1
11 0 -8 85.9106 136.149 1
11 0 -7 2400.52 156.949 1
11 0 -6 609.522 134.634 1
11 0 -5 2471.5 152.175 1
11 0 -4 130.226 130.11 1
11 0 -4 319.189 154 -2
-11 0 4 319.189 154 1
11 0 -5 1561.34 167.762 -2
-11 0 3 1561.34 167.762 1
11 0 -6 619.829 165.729 -2
-11 0 2 619.829 165.729 1
-11 0 1 616.039 137.79 1
11 0 -7 1927.35 175.065 -2
-11 0 1 1927.35 175.065 1
-11 0 0 2030.84 157.078 1
11 0 -9 185.211 172.3 -2
-11 0 -1 185.211 172.3 1
-11 0 -2 541.689 150.237 1
11 0 3 46.471 101.872 1
11 0 4 84.9612 105.3 1
11 0 5 59.4101 114.109 1
11 0 6 122.272 163.979 1
11 0 7 197.194 176.984 1
11 0 8 95.7254 193.576 1
11 0 9 488.602 214.365 1
-11 -1 -1 580.333 175.293 -2
11 1 -9 580.333 175.293 1
-11 -1 0 685.057 176.051 -2
11 1 -8 685.057 176.051 1
-11 -1 1 465.125 170.118 -2
11 1 -7 465.125 170.118 1
-11 -1 2 430.79 166.7 -2
11 1 -6 430.79 166.7 1
-11 -1 3 1960.37 178.505 -2
11 1 -5 1960.37 178.505 1
-11 -1 4 936.077 171.383 -2
11 1 -4 936.077 171.383 1
-11 -1 5 1261.63 178.425 -2
11 1 -3 1261.63 178.425 1
-11 -1 6 885.6 177.946 -2
11 1 -2 885.6 177.946 1
-11 -1 7 356.372 124.624 -2
11 1 -1 356.372 124.624 1
-11 -1 8 1087.89 132.288 -2
11 1 0 1087.89 132.288 1
-11 -1 9 799.846 130.995 -2
11 1 1 799.846 130.995 1
-11 -1 10 438.708 137.297 -2
11 1 2 438.708 137.297 1
-11 -1 11 388.799 198.801 -2
11 1 3 388.799 198.801 1
-11 -1 12 997.34 207.15 -2
11 1 4 997.34 207.15 1
-11 -1 13 605.665 210.585 -2
11 1 5 605.665 210.585 1
-11 -1 14 296.62 222.353 -2
11 1 6 296.62 222.353 1
-11 -1 15 740.654 244.455 -2
11 1 7 740.654 244.455 1
-11 -1 16 798.942 267.518 -2
11 1 8 798.942 267.518 1
-11 -2 -1 913.69 179.978 -2
11 2 -9 913.69 179.978 1
-11 -2 0 719.652 173.493 -2
11 2 -8 719.652 173.493 1
-11 -2 1 482.176 172.55 -2
11 2 -7 482.176 172.55 1
-11 -2 2 250.565 176.037 -2
11 2 -6 250.565 176.037 1
-11 -2 3 328.61 175.524 -2
11 2 -5 328.61 175.524 1
-11 -2 4 201.154 175.725 -2
11 2 -4 201.154 175.725 1
-11 -2 5 434.436 179.96 -2
11 2 -3 434.436 179.96 1
11 2 -6 295.462 126.892 -2
-11 -2 2 295.462 126.892 1
-11 -2 7 441.856 131.202 -2
11 2 -1 441.856 131.202 1
-11 -2 8 1578.85 203.741 -2
11 2 0 1578.85 203.741 1
-11 -2 9 1613.21 212.567 -2
11 2 1 1613.21 212.567 1
-11 -2 10 259.948 195.78 -2
11 2 2 259.948 195.78 1
-11 -2 11 338.256 205.657 -2
11 2 3 338.256 205.657 1
-11 -2 12 1641.44 235.643 -2
11 2 4 1641.44 235.643 1
-11 -2 13 343.795 226.141 -2
11 2 5 343.795 226.141 1
-11 -2 14 846.001 247.031 -2
11 2 6 846.001 247.031 1
-11 -2 15 254.011 253.114 -2
11 2 7 254.011 253.114 1
-11 -2 16 203.596 256.921 -2
11 2 8 203.596 256.921 1
-11 -3 -1 189.892 192.321 -2
11 3 -9 189.892 192.321 1
-11 -3 0 128.243 181.205 -2
11 3 -8 128.243 181.205 1
-11 -3 1 287.328 177.534 -2
11 3 -7 287.328 177.534 1
-11 -3 2 347.495 172.486 -2
11 3 -6 347.495 172.486 1
-11 -3 3 273.352 172.57 -2
11 3 -5 273.352 172.57 1
-11 -3 4 503.684 184.342 -2
11 3 -4 503.684 184.342 1
-11 -3 5 360.326 181.553 -2
11 3 -3 360.326 181.553 1
-11 -3 6 614.255 189.885 -2
11 3 -2 614.255 189.885 1
-11 -3 7 341.593 186.141 -2
11 3 -1 341.593 186.141 1
-11 -3 8 397.046 192.74 -2
11 3 0 397.046 192.74 1
-11 -3 9 188.18 194.124 -2
11 3 1 188.18 194.124 1
-11 -3 10 473.101 202.218 -2
11 3 2 473.101 202.218 1
-11 -3 11 267.362 210.971 -2
11 3 3 267.362 210.971 1
-11 -3 12 1044.32 226.74 -2
11 3 4 1044.32 226.74 1
-11 -3 13 1030.01 236.499 -2
11 3 5 1030.01 236.499 1
-11 -3 14 673.998 239.082 -2
11 3 6 673.998 239.082 1
-11 -3 15 286.216 251.12 -2
11 3 7 286.216 251.12 1
-11 -4 0 1688.4 211.115 -2
11 4 -8 1688.4 211.115 1
-11 -4 1 633.689 200.248 -2
11 4 -7 633.689 200.248 1
-11 -4 2 504.763 200.077 -2
11 4 -6 504.763 200.077 1
-11 -4 3 471.476 190.587 -2
11 4 -5 471.476 190.587 1
-11 -4 4 536.366 187.309 -2
11 4 -4 536.366 187.309 1
-11 -4 5 558.224 186.663 -2
11 4 -3 558.224 186.663 1
-11 -4 6 266.105 186.871 -2
11 4 -2 266.105 186.871 1
-11 -4 7 445.846 191.383 -2
11 4 -1 445.846 191.383 1
-11 -4 8 1326.13 200.918 -2
11 4 0 1326.13 200.918 1
-11 -4 9 1178.62 210.828 -2
11 4 1 1178.62 210.828 1
-11 -4 10 220.917 200.958 -2
11 4 2 220.917 200.958 1
-11 -4 11 374.163 212.805 -2
11 4 3 374.163 212.805 1
-11 -4 12 297.111 220.342 -2
11 4 4 297.111 220.342 1
-11 -4 13 926.291 236.888 -2
11 4 5 926.291 236.888 1
11 5 -8 151.326 173.478 1
11 5 -7 83.9442 174.111 1
11 5 -6 237.92 169.971 1
11 5 -5 181.465 169.272 1
11 5 -4 483.962 171.124 1
11 5 -3 269.079 171.444 1
11 5 -2 205.136 167.412 1
11 5 -1 34.3332 167.785 1
11 5 0 125.327 170.287 1
11 5 1 158.269 179.812 1
11 5 2 156.746 182.453 1
11 5 3 1279.42 204.483 1
11 5 4 266.3 198.719 1
11 6 -8 288.53 204.517 1
11 6 -7 168.22 192.216 1
11 6 -6 91.6946 183.806 1
11 6 -5 396.637 188.788 1
11 6 -4 69.7497 187.116 1
11 6 -3 276.88 185.296 1
11 6 -2 204.104 184.911 1
11 6 -1 219.627 189.208 1
11 6 1 55.0624 199.307 1
11 6 2 166.498 200.836 1
-11 -7 2 550.823 263.11 -2
11 7 -7 550.823 263.11 1
-11 -7 3 544.676 260.62 -2
11 7 -6 544.676 260.62 1
-11 -7 4 72.324 259.64 -2
11 7 -5 72.324 259.64 1
-11 -7 5 337.632 253.624 -2
11 7 -4 337.632 253.624 1
-11 -7 6 514.327 255.358 -2
11 7 -3 514.327 255.358 1
-11 -7 7 510.535 255.495 -2
11 7 -2 510.535 255.495 1
-12 8 -2 407.52 291.086 -2
12 -8 -9 407.52 291.086 1
-12 8 -1 256.76 196.226 -2
12 -8 -8 256.76 196.226 1
-12 8 0 364.039 187.572 -2
12 -8 -7 364.039 187.572 1
12 -8 -1 436.649 183.227 -2
-12 8 6 436.649 183.227 1
12 -8 -2 1107.58 191.367 -2
-12 8 5 1107.58 191.367 1
12 -8 -3 4694.86 219.12 -2
-12 8 4 4694.86 219.12 1
12 -8 -4 7077.53 234.32 -2
-12 8 3 7077.53 234.32 1
12 -8 -5 942.064 186.296 -2
-12 8 2 942.064 186.296 1
12 -8 -6 363.76 180.336 -2
-12 8 1 363.76 180.336 1
12 -8 -7 280.687 266.846 -2
-12 8 0 280.687 266.846 1
12 -8 -8 443.485 185.309 -2
-12 8 -1 443.485 185.309 1
-12 7 -4 234.094 292.561 -2
12 -7 -11 234.094 292.561 1
-12 7 -3 1035.41 290.99 -2
12 -7 -10 1035.41 290.99 1
-12 7 -2 515.279 279.693 -2
12 -7 -9 515.279 279.693 1
-12 7 -1 897.034 265.702 -2
12 -7 -8 897.034 265.702 1
-12 7 0 317.811 243.556 -2
12 -7 -7 317.811 243.556 1
12 -7 -1 68.8456 167.898 -2
-12 7 6 68.8456 167.898 1
12 -7 -2 160.737 167.886 -2
-12 7 5 160.737 167.886 1
12 -7 -3 1444.27 180.207 -2
-12 7 4 1444.27 180.207 1
12 -7 -4 1291.01 182.833 -2
-12 7 3 1291.01 182.833 1
12 -7 -5 140.27 165.431 -2
-12 7 2 140.27 165.431 1
12 -7 -6 185.711 164.015 -2
-12 7 1 185.711 164.015 1
12 -7 -7 402.046 174.719 -2
-12 7 0 402.046 174.719 1
12 -7 -8 726.142 180.596 -2
-12 7 -1 726.142 180.596 1
12 -7 -9 664.567 179.997 -2
-12 7 -2 664.567 179.997 1
12 -7 -10 590.436 188.578 -2
-12 7 -3 590.436 188.578 1
-12 6 -5 922.47 312.244 -2
12 -6 -12 922.47 312.244 1
-12 6 -4 340.06 281.772 -2
12 -6 -11 340.06 281.772 1
-12 6 -3 1008.86 267.171 -2
12 -6 -10 1008.86 267.171 1
-12 6 -2 528.497 254.796 -2
12 -6 -9 528.497 254.796 1
-12 6 -1 436.242 240.593 -2
12 -6 -8 436.242 240.593 1
12 -6 0 300.363 230.396 -2
-12 6 7 300.363 230.396 1
12 -6 -1 467.41 229.575 -2
-12 6 6 467.41 229.575 1
12 -6 -2 453.873 161.119 -2
-12 6 5 453.873 161.119 1
12 -6 -3 628.04 161.405 -2
-12 6 4 628.04 161.405 1
12 -6 -4 899.411 161.206 -2
-12 6 3 899.411 161.206 1
12 -6 -5 390.195 158.854 -2
-12 6 2 390.195 158.854 1
12 -6 -6 757.304 161.396 -2
-12 6 1 757.304 161.396 1
12 -6 -7 278.118 161.443 -2
-12 6 0 278.118 161.443 1
12 -6 -8 304.258 166.244 -2
-12 6 -1 304.258 166.244 1
12 -6 -9 807.667 174.135 -2
-12 6 -2 807.667 174.135 1
12 -6 -10 1157.81 177.835 -2
-12 6 -3 1157.81 177.835 1
12 -6 -11 225.294 181.058 -2
-12 6 -4 225.294 181.058 1
12 -6 -12 1582.15 199.455 -2
-12 6 -5 1582.15 199.455 1
-12 5 -4 195.591 273.5 -2
12 -5 -11 195.591 273.5 1
-12 5 -3 385.322 251.633 -2
12 -5 -10 385.322 251.633 1
-12 5 -2 687.301 238.336 -2
12 -5 -9 687.301 238.336 1
12 -5 1 2588.88 237.642 -2
-12 5 8 2588.88 237.642 1
12 -5 0 1233.39 226.666 -2
-12 5 7 1233.39 226.666 1
12 -5 -1 1074.71 224.031 -2
-12 5 6 1074.71 224.031 1
12 -5 -2 618.193 219.647 -2
-12 5 5 618.193 219.647 1
12 -5 -3 562.782 151.005 -2
-12 5 4 562.782 151.005 1
12 -5 -4 350.556 145.875 -2
-12 5 3 350.556 145.875 1
12 -5 -5 285.866 217.866 -2
-12 5 2 285.866 217.866 1
12 -5 -6 2045.88 161.307 -2
-12 5 1 2045.88 161.307 1
12 -5 -7 1020.84 155.917 -2
-12 5 0 1020.84 155.917 1
12 -5 -8 5978.84 184.564 -2
-12 5 -1 5978.84 184.564 1
12 -5 -9 981.432 166.373 -2
-12 5 -2 981.432 166.373 1
12 -5 -10 501.003 166.335 -2
-12 5 -3 501.003 166.335 1
12 -5 -11 421.781 173.66 -2
-12 5 -4 421.781 173.66 1
12 -5 -12 374.965 186.199 -2
-12 5 -5 374.965 186.199 1
12 -5 -13 781.195 279.415 -2
-12 5 -6 781.195 279.415 1
12 -4 2 533.962 226.371 -2
-12 4 10 533.962 226.371 1
12 -4 1 997.621 226.914 -2
-12 4 9 997.621 226.914 1
12 -4 0 406.889 217.448 -2
-12 4 8 406.889 217.448 1
12 -4 -1 614.65 215.776 -2
-12 4 7 614.65 215.776 1
12 -4 -2 1017.46 216.036 -2
-12 4 6 1017.46 216.036 1
12 -4 -3 188.892 199.357 -2
-12 4 5 188.892 199.357 1
12 -4 -4 269.599 139.813 -2
-12 4 4 269.599 139.813 1
12 -4 -5 394.56 145.251 -2
-12 4 3 394.56 145.251 1
12 -4 -6 680.51 148.219 -2
-12 4 2 680.51 148.219 1
12 -4 -7 224.138 146.14 -2
-12 4 1 224.138 146.14 1
12 -4 -8 418.15 148.46 -2
-12 4 0 418.15 148.46 1
12 -4 -9 1727.91 161.374 -2
-12 4 -1 1727.91 161.374 1
12 -4 -10 751.327 163.143 -2
-12 4 -2 751.327 163.143 1
-12 4 -3 230.744 187.185 1
12 -4 -11 565.905 238.826 -2
-12 4 -3 565.905 238.826 1
12 -4 -12 670.637 176.302 -2
-12 4 -4 670.637 176.302 1
-12 4 -5 700.063 209.674 1
-12 4 -6 163.477 217.798 1
12 -3 0 566.816 214.876 -2
-12 3 8 566.816 214.876 1
12 -3 -1 671.664 205.841 -2
-12 3 7 671.664 205.841 1
12 -3 -2 503.57 194.843 -2
-12 3 6 503.57 194.843 1
12 -3 -3 414.148 193.663 -2
-12 3 5 414.148 193.663 1
12 -3 -4 490.033 195.11 -2
-12 3 4 490.033 195.11 1
12 -3 -5 403.133 140.816 -2
-12 3 3 403.133 140.816 1
12 -3 -6 369.604 139.927 -2
-12 3 2 369.604 139.927 1
12 -3 -7 1486.66 149.697 -2
-12 3 1 1486.66 149.697 1
12 -3 -8 623.343 146.567 -2
-12 3 0 623.343 146.567 1
12 -3 -9 1436.08 159.333 -2
-12 3 -1 1436.08 159.333 1
12 -3 -10 381.752 159.612 -2
-12 3 -2 381.752 159.612 1
12 -3 -11 1343.95 168.834 -2
-12 3 -3 1343.95 168.834 1
12 -3 -12 917.694 243.993 -2
-12 3 -4 917.694 243.993 1
12 -3 -13 968.482 259.04 -2
-12 3 -5 968.482 259.04 1
12 -3 -14 1092.64 286.232 -2
-12 3 -6 1092.64 286.232 1
12 -3 -15 275.148 300.868 -2
-12 3 -7 275.148 300.868 1
12 -2 -2 284.415 195.587 -2
-12 2 6 284.415 195.587 1
12 -2 -3 341.699 191.59 -2
-12 2 5 341.699 191.59 1
12 -2 -4 442.18 192.402 -2
-12 2 4 442.18 192.402 1
12 -2 -5 276.536 139.026 -2
-12 2 3 276.536 139.026 1
12 -2 -6 490.026 140.829 -2
-12 2 2 490.026 140.829 1
12 -2 -7 232.507 144.125 -2
-12 2 1 232.507 144.125 1
12 -2 -8 974.923 154.789 -2
-12 2 0 974.923 154.789 1
12 -2 -9 991.754 157.814 -2
-12 2 -1 991.754 157.814 1
12 -2 -10 353.026 161.181 -2
-12 2 -2 353.026 161.181 1
12 -2 -11 108.393 223.878 -2
-12 2 -3 108.393 223.878 1
12 -2 -12 903.975 248.412 -2
-12 2 -4 903.975 248.412 1
12 -2 -13 703.898 263.209 -2
-12 2 -5 703.898 263.209 1
12 -2 -14 422.305 287.788 -2
-12 2 -6 422.305 287.788 1
-12 1 0 952.894 216.62 -2
12 -1 -8 952.894 216.62 1
-12 1 1 276.398 205.036 -2
12 -1 -7 276.398 205.036 1
-12 1 2 376.793 207.429 -2
12 -1 -6 376.793 207.429 1
12 -1 -4 192.54 157.63 -2
-12 1 4 192.54 157.63 1
12 -1 -5 425.317 141.643 -2
-12 1 3 425.317 141.643 1
12 -1 -6 616.921 144.728 -2
-12 1 2 616.921 144.728 1
12 -1 -7 152.217 146.314 -2
-12 1 1 152.217 146.314 1
12 -1 -8 1500.63 158.526 -2
-12 1 0 1500.63 158.526 1
12 -1 -9 807.649 221.442 -2
-12 1 -1 807.649 221.442 1
12 -1 -10 550.128 233.058 -2
-12 1 -2 550.128 233.058 1
12 -1 -11 1719.69 245.512 -2
-12 1 -3 1719.69 245.512 1
12 -1 -12 906.736 251.903 -2
-12 1 -4 906.736 251.903 1
-12 1 13 441.684 257.841 -2
12 -1 5 441.684 257.841 1
-12 1 14 445.113 270.178 -2
12 -1 6 445.113 270.178 1
-12 0 0 313.392 211.02 -2
12 0 -8 313.392 211.02 1
-12 0 1 481.352 203.453 -2
12 0 -7 481.352 203.453 1
-12 0 2 859.875 197.472 -2
12 0 -6 859.875 197.472 1
-12 0 3 475.597 197.609 -2
12 0 -5 475.597 197.609 1
-12 0 4 515.941 203.561 -2
12 0 -4 515.941 203.561 1
-12 0 5 489.313 202.389 -2
12 0 -3 489.313 202.389 1
-12 0 6 685.906 148.513 -2
12 0 -2 685.906 148.513 1
-12 0 7 316.158 151.562 -2
12 0 -1 316.158 151.562 1
-12 0 8 448.888 151.608 -2
12 0 0 448.888 151.608 1
-12 0 9 573.646 158.48 -2
12 0 1 573.646 158.48 1
-12 0 10 787.361 165.159 -2
12 0 2 787.361 165.159 1
-12 0 11 823.669 238.14 -2
12 0 3 823.669 238.14 1
-12 0 12 303.913 242.509 -2
12 0 4 303.913 242.509 1
-12 0 13 671.77 249.096 -2
12 0 5 671.77 249.096 1
-12 0 14 337.863 257.15 -2
12 0 6 337.863 257.15 1
12 1 -8 31.8894 165.427 1
12 1 -7 92.5606 160.088 1
12 1 -6 325.873 167.384 1
12 1 -5 259.106 165.133 1
12 1 -4 124.53 166.553 1
12 1 -3 138.866 168.637 1
12 1 -2 16.974 167.788 1
12 1 -6 373.464 214.714 -2
-12 -1 2 373.464 214.714 1
12 1 -1 214.784 173.373 1
12 1 -7 662.96 228.581 -2
-12 -1 1 662.96 228.581 1
12 1 0 101.87 171.554 1
12 1 1 54.7322 178.261 1
12 1 2 57.4836 184.837 1
12 1 3 136.011 192.976 1
12 1 4 717.726 206.055 1
12 1 5 382.667 212.201 1
12 2 -8 133.63 178.455 1
12 2 -7 401.345 170.042 1
12 2 -6 131.968 161.886 1
12 2 -5 73.3457 166.94 1
12 2 -4 378.385 164.735 1
12 2 -3 546.811 173.121 1
12 2 -2 491.139 172.158 1
12 2 -1 474.071 180.13 1
12 2 0 224.181 176.743 1
12 2 1 124.036 185.065 1
12 2 2 212.477 187.762 1
12 2 3 572.992 193.119 1
12 2 4 792.038 203.355 1
-12 -3 1 2107.05 244.598 -2
12 3 -8 2107.05 244.598 1
-12 -3 2 827.817 223.829 -2
12 3 -7 827.817 223.829 1
-12 -3 3 826.109 218.388 -2
12 3 -6 826.109 218.388 1
-12 -3 4 1034.64 216.333 -2
12 3 -5 1034.64 216.333 1
-12 -3 5 892.193 213.499 -2
12 3 -4 892.193 213.499 1
-12 -3 6 539.278 215.446 -2
12 3 -3 539.278 215.446 1
-12 -3 7 1117.53 222.201 -2
12 3 -2 1117.53 222.201 1
-12 -3 8 1306.67 228.474 -2
12 3 -1 1306.67 228.474 1
-12 -3 9 835.723 231.159 -2
12 3 0 835.723 231.159 1
-12 -3 10 611.35 236.131 -2
12 3 1 611.35 236.131 1
-12 -3 11 223.333 238.739 -2
12 3 2 223.333 238.739 1
-12 -4 2 1144.36 259.484 -2
12 4 -7 1144.36 259.484 1
-12 -4 3 474.624 241.185 -2
12 4 -6 474.624 241.185 1
-12 -4 4 284.738 237.895 -2
12 4 -5 284.738 237.895 1
-12 -4 5 256.246 235.551 -2
12 4 -4 256.246 235.551 1
-12 -4 6 434.655 229.776 -2
12 4 -3 434.655 229.776 1
-12 -4 7 771.2 236.424 -2
12 4 -2 771.2 236.424 1
-12 -4 8 998.421 242.237 -2
12 4 -1 998.421 242.237 1
-12 -4 9 1527.7 261.239 -2
12 4 0 1527.7 261.239 1
-12 -4 10 258.324 249.581 -2
12 4 1 258.324 249.581 1
-12 -5 2 102.704 275.502 -2
12 5 -7 102.704 275.502 1
-12 -5 3 284.149 255.896 -2
12 5 -6 284.149 255.896 1
-12 -5 4 328.202 258.687 -2
12 5 -5 328.202 258.687 1
-12 -5 5 133.998 254.077 -2
12 5 -4 133.998 254.077 1
-12 -5 6 182.525 258.113 -2
12 5 -3 182.525 258.113 1
-12 -5 7 313.015 261.68 -2
12 5 -2 313.015 261.68 1
13 -6 0 422.896 308.319 -2
-13 6 8 422.896 308.319 1
13 -6 -1 207.31 295.683 -2
-13 6 7 207.31 295.683 1
13 -6 -2 492.031 273.655 -2
-13 6 6 492.031 273.655 1
13 -6 -3 819.899 192.836 -2
-13 6 5 819.899 192.836 1
13 -6 -4 588.36 190.438 -2
-13 6 4 588.36 190.438 1
13 -6 -5 580.243 194.075 -2
-13 6 3 580.243 194.075 1
13 -6 -6 326.034 191.195 -2
-13 6 2 326.034 191.195 1
13 -6 -7 340.905 268.867 -2
-13 6 1 340.905 268.867 1
13 -5 0 669.102 297.847 -2
-13 5 8 669.102 297.847 1
13 -5 -1 525.91 276.699 -2
-13 5 7 525.91 276.699 1
13 -5 -2 119.339 184.793 -2
-13 5 6 119.339 184.793 1
13 -5 -3 764.124 185.653 -2
-13 5 5 764.124 185.653 1
13 -5 -4 424.671 183.833 -2
-13 5 4 424.671 183.833 1
13 -5 -5 540.242 188.897 -2
-13 5 3 540.242 188.897 1
13 -5 -6 245.497 182.786 -2
-13 5 2 245.497 182.786 1
13 -5 -7 475.13 262.052 -2
-13 5 1 475.13 262.052 1
13 -5 -8 1346.37 198.679 -2
-13 5 0 1346.37 198.679 1
13 -5 -9 395.231 198.502 -2
-13 5 -1 395.231 198.502 1
13 -4 -2 342.122 255.521 -2
-13 4 6 342.122 255.521 1
13 -4 -3 1487.73 189.618 -2
-13 4 5 1487.73 189.618 1
13 -4 -4 310.609 177.686 -2
-13 4 4 310.609 177.686 1
13 -4 -5 912.802 181.959 -2
-13 4 3 912.802 181.959 1
13 -4 -6 489.764 184.009 -2
-13 4 2 489.764 184.009 1
13 -4 -7 435.24 179.909 -2
-13 4 1 435.24 179.909 1
13 -4 -8 568.607 187.838 -2
-13 4 0 568.607 187.838 1
13 -4 -9 796.881 195.979 -2
-13 4 -1 796.881 195.979 1
13 -4 -10 333.953 196.859 -2
-13 4 -2 333.953 196.859 1
13 -3 -4 268.864 173.004 -2
-13 3 4 268.864 173.004 1
13 -3 -5 353.925 175.139 -2
-13 3 3 353.925 175.139 1
13 -3 -6 1233.45 183.61 -2
-13 3 2 1233.45 183.61 1
13 -3 -7 1777.98 184.662 -2
-13 3 1 1777.98 184.662 1
13 -3 -8 2390.85 190.97 -2
-13 3 0 2390.85 190.97 1
13 -3 -9 558.226 195.44 -2
-13 3 -1 558.226 195.44 1
13 -2 -7 179.607 199.603 1
13 -2 -6 75.8509 193.998 1
13 -2 -5 471.337 246.582 -2
-13 2 4 471.337 246.582 1
13 -2 -6 1779.97 257.065 -2
-13 2 3 1779.97 257.065 1
13 -2 -7 1977.33 267.424 -2
-13 2 2 1977.33 267.424 1
13 -2 -8 1096.13 186.845 -2
-13 2 1 1096.13 186.845 1
13 -2 -9 1527.41 272.562 -2
-13 2 0 1527.41 272.562 1
13 -2 -10 1167.33 285.883 -2
-13 2 -1 1167.33 285.883 1
13 -2 -11 247.588 280.56 -2
-13 2 -2 247.588 280.56 1
-13 1 2 686.238 249.829 -2
13 -1 -7 686.238 249.829 1
-13 1 3 1546.09 261.14 -2
13 -1 -6 1546.09 261.14 1
-13 1 5 337.589 175.216 -2
13 -1 -4 337.589 175.216 1
-13 1 6 2927.01 188.531 -2
13 -1 -3 2927.01 188.531 1
-13 1 7 947.032 184.269 -2
13 -1 -2 947.032 184.269 1
-13 1 8 5028.41 208.125 -2
13 -1 -1 5028.41 208.125 1
-13 1 9 482.748 191.311 -2
13 -1 0 482.748 191.311 1
-13 1 10 448.64 197.655 -2
13 -1 1 448.64 197.655 1
-13 0 2 706.586 263.733 -2
13 0 -7 706.586 263.733 1
-13 0 3 267.008 255.162 -2
13 0 -6 267.008 255.162 1
-13 0 4 218.399 246.499 -2
13 0 -5 218.399 246.499 1
-13 0 5 450.553 176.02 -2
13 0 -4 450.553 176.02 1
-13 0 6 434.43 177.475 -2
13 0 -3 434.43 177.475 1
-13 0 7 304.491 182.31 -2
13 0 -2 304.491 182.31 1
-13 0 8 366.587 250.009 -2
13 0 -1 366.587 250.009 1
-13 0 9 492.428 258.312 -2
13 0 0 492.428 258.312 1
-13 0 10 305.679 257.042 -2
13 0 1 305.679 257.042 1
-13 -1 2 307.492 255.602 -2
13 1 -7 307.492 255.602 1
-13 -1 4 276.187 260.716 -2
13 1 -5 276.187 260.716 1
-13 -1 5 139.872 257.732 -2
13 1 -4 139.872 257.732 1
-13 -1 6 266.648 260.775 -2
13 1 -3 266.648 260.775 1
-13 -1 7 264.186 260.403 -2
13 1 -2 264.186 260.403 1
-13 -1 8 239.54 265.609 -2
13 1 -1 239.54 265.609 1
-13 -1 9 219.839 270.531 -2
13 1 0 219.839 270.531 1
-13 -2 3 504.469 253.061 -2
13 2 -6 504.469 253.061 1
-13 -2 4 532.707 255.98 -2
13 2 -5 532.707 255.98 1
-13 -2 5 357.312 251.954 -2
13 2 -4 357.312 251.954 1
-13 -2 6 343.19 263.547 -2
13 2 -3 343.19 263.547 1
-13 -2 7 410.569 262.925 -2
13 2 -2 410.569 262.925 1
0 1 -3 11521.8 56.3979 2
0 1 -2 955.77 14.5607 2
0 -1 1 43058.4 93.8715 2
0 1 0 18805 27.1898 2
0 1 1 709.87 8.68735 2
0 1 2 35440 64.6566 2
0 2 -21 73.9746 185.463 2
0 2 -20 194.447 160.014 2
0 2 -19 652.66 149.377 2
0 -2 13 1473.68 42.7804 2
0 -2 12 2150.22 54.0641 2
0 -2 11 208.198 37.0314 2
0 -2 10 1528.32 38.8146 2
0 -2 9 829.751 40.2145 2
0 -2 8 33.2659 26.4319 2
0 -2 7 905.697 30.9947 2
0 -2 6 3061.6 49.5185 2
0 -2 5 160.845 32.0033 2
0 2 -4 7247.09 32.472 2
0 2 -3 4132.67 20.8155 2
0 -2 2 38296.5 52.1052 2
0 2 -1 16987.9 34.3929 2
0 2 0 76993.1 90.7741 2
0 2 1 1030.52 12.7822 2
0 2 2 549.038 14.1752 2
0 -2 -3 867.345 16.6725 2
0 -2 -4 65.5333 17.307 2
0 -2 -5 21822.8 134.045 2
0 -2 -6 16775.5 131.292 2
0 -2 -7 225.791 45.4273 2
0 -2 -8 2950.29 75.0234 2
0 -2 -9 6228.78 103.411 2
0 -2 -10 4981.53 102.56 2
0 -2 -11 498.718 76.6353 2
0 -3 22 90.263 235.339 2
0 -3 21 26.0628 201.239 2
0 -3 20 348.9 184.037 2
0 3 -19 975.185 145.703 2
0 3 -18 4735.5 164.843 2
0 3 -17 620.641 115.057 2
0 3 -16 1450.4 115.482 2
0 3 -15 174.001 93.3877 2
0 3 -14 62.7888 82.5829 2
0 -3 13 662.477 46.0549 2
0 -3 12 225.79 38.3098 2
0 -3 11 65.1314 38.7611 2
0 3 -10 5.82426 37.5758 2
0 3 -9 213.642 31.9039 2
0 -3 8 230.769 29.7708 2
0 -3 7 3392.67 41.8846 2
0 -3 6 232.808 21.1634 2
0 -3 5 2856.84 23.7485 2
0 -3 4 3730.89 28.7172 2
0 -3 3 2089.45 22.1822 2
0 -3 2 12.2978 13.3635 2
0 -3 1 123.146 13.0848 2
0 -3 0 2101.99 19.9364 2
0 -3 -1 2.7341 13.2711 2
0 -3 -2 2426.89 24.9861 2
0 -3 -3 2665.21 27.737 2
0 -3 -4 41241.9 112.788 2
0 -3 -5 2730.48 39.7372 2
0 -3 -6 905.864 52.0489 2
0 -3 -7 240.073 50.076 2
0 -3 -8 41.7946 49.8043 2
0 -3 -9 1625.97 73.4001 2
0 -3 -10 29.4107 59.094 2
0 -3 -11 2554.44 94.956 2
0 -3 -12 91.1342 78.1165 2
0 -3 -13 95.239 88.5479 2
0 -3 -14 129.317 103.195 2
0 -3 -15 96.7798 113.598 2
0 -3 -16 91.9819 121.178 2
0 -3 -17 248.044 136.416 2
0 -3 -18 164.229 161.164 2
0 -3 -19 210.525 197.39 2
0 -3 -20 312.912 280.016 2
0 -3 -21 35.2773 228.113 2
0 -3 -22 404.475 243.839 2
0 -4 6 349.623 52.4977 2
0 -4 5 168.043 19.4231 2
0 -4 4 1701.48 23.0814 2
0 -4 3 920.207 13.9414 2
0 -4 2 12880.6 46.8898 2
0 -4 1 22.5115 16.402 2
0 -4 0 536.796 20.4128 2
0 -4 -1 459.055 27.1047 2
0 4 2 958.591 40.4269 2
0 4 3 1206.22 43.3349 2
0 -4 -4 6856.95 67.3943 2
0 -4 -5 333.307 33.956 2
0 -4 -6 717.811 33.4455 2
0 -4 -8 122.784 56.8544 2
0 -4 -13 120.277 93.6659 2
0 -4 -15 345.858 124.125 2
0 -4 -16 119.056 132.098 2
0 -4 -18 90.2277 164.516 2
0 -4 -19 18.825 195.248 2
0 -4 -20 123.916 252.318 2
0 -4 -21 295.852 264.196 2
0 -5 3 1194.65 28.8814 2
0 -7 4 187.304 20.0915 2
0 -8 10 222.468 87.7095 2
0 -8 9 449.84 86.3276 2
0 -8 8 123.331 76.9526 2
0 -8 7 771.516 82.4077 2
0 -8 6 684.373 80.6154 2
0 -8 5 771.576 77.7848 2
0 8 -4 88.7711 47.6899 2
0 8 -3 96.7803 23.1711 2
0 -8 2 3147.47 44.7656 2
0 -8 1 368.583 34.5989 2
0 -8 0 605.402 38.5117 2
0 -8 -1 67.6616 36.0864 2
0 8 2 50.2853 37.8963 2
0 8 3 94.9177 39.5801 2
0 -8 -4 86.2055 51.9367 2
0 -8 -5 313.301 52.4592 2
0 -8 -6 52.0514 52.4355 2
0 -9 18 153.451 136.631 2
0 -9 17 190.67 128.019 2
0 -9 16 182.962 119.32 2
0 -9 15 665.438 112.877 2
0 -9 14 535.101 104.345 2
0 9 -13 177.904 125.3 2
0 9 -12 478.576 116.926 2
0 9 -11 159.357 102.886 2
0 9 -10 143.957 98.9067 2
0 9 -9 100.723 92.0094 2
0 -9 8 1064.27 74.6045 2
0 9 -7 161.479 77.1884 2
0 9 -6 471.365 80.5365 2
0 9 -5 92.5431 81.0599 2
0 9 -4 512.49 81.8289 2
0 9 -3 166.416 72.6637 2
0 -9 2 394.133 34.5674 2
0 -9 1 1110.99 44.0526 2
0 -9 0 641.762 43.7856 2
0 9 1 46.0946 40.3217 2
0 -9 -2 30.571 42.8304 2
0 9 3 49.9967 45.8309 2
0 -9 -4 997.901 50.8776 2
0 -9 -5 59.2507 46.7042 2
0 -9 -6 62.108 75.7331 2
0 -9 -7 1415.92 96.0608 2
0 -9 -8 347.404 94.2094 2
0 -9 -9 38.0996 96.9645 2
0 -9 -10 122.714 106.565 2
0 -9 -11 96.5575 120.188 2
0 -9 -12 576.061 149.878 2
0 -9 -13 2014.13 178.478 2
0 -9 -14 999.684 181.243 2
0 -9 -15 70.1783 172.699 2
0 -9 -16 282.721 199.698 2
0 -9 -17 263.976 229.256 2
0 10 -4 190.918 91.8495 2
0 10 0 472.256 80.5081 2
0 -10 -1 589.508 66.396 2
0 -10 -2 721.195 71.0003 2
-1 13 -4 339.77 155.208 2
-1 13 -5 125.06 154.293 2
-1 13 -6 685.913 159.45 2
-1 13 -7 149.499 164.21 2
-1 13 -8 216.798 173.837 2
-1 13 -9 104.763 183.01 2
-1 13 -10 149.938 193.072 2
-1 13 -11 201.614 205.709 2
-1 13 -12 128.039 220.516 2
-1 12 -2 369.436 126.029 2
1 -8 -17 42.5086 186.651 2
1 -8 -15 88.5467 145.573 2
1 -8 -9 36.1413 70.418 2
1 -8 -8 204.144 65.9451 2
1 -8 -7 73.7517 63.2826 2
1 -8 -6 847.201 65.7163 2
1 -8 -5 5585.25 100.519 2
-1 8 4 1864.97 83.7548 2
-1 8 3 3033.06 86.3845 2
-1 8 2 1661.98 78.6983 2
-1 8 1 299.24 66.8776 2
-1 8 0 915.298 72.5094 2
-1 8 -1 1165.42 74.4844 2
-1 8 -2 1486.37 82.1051 2
-1 8 -3 3581.29 99.5113 2
-1 8 -4 221.269 75.3173 2
-1 8 -5 205.613 72.1633 2
-1 8 -7 58.7827 77.04 2
1 -7 -19 211.525 206.521 2
1 -7 -18 161.993 193.259 2
1 -7 -17 278.989 172.57 2
1 -7 -16 407.038 152.879 2
1 -7 -15 159.96 129.508 2
1 -7 -14 22.5206 115.042 2
1 -7 -13 105.392 102.475 2
1 -7 -12 38.5981 93.8433 2
1 -7 -11 90.3516 88.6671 2
1 -7 -10 9.98518 80.7936 2
1 -7 -9 233.933 49.6488 2
1 -7 -8 18.293 44.7557 2
1 -7 -7 146.924 44.2222 2
1 -7 -6 67.3177 41.1386 2
1 -7 -5 22.4559 42.0523 2
-1 7 4 11765.7 97.0892 2
-1 7 3 18346.9 111.567 2
1 -7 -2 4056.74 59.0514 2
1 -7 -1 2442.23 50.2479 2
1 -7 0 3856.14 55.2943 2
1 -7 1 498.902 35.972 2
1 -7 2 968.449 38.6048 2
1 -7 3 191.8 32.9783 2
1 -7 4 210.301 30.6281 2
1 -7 5 499.384 31.3927 2
1 -7 6 1288.23 35.9236 2
1 -7 7 210.791 51.5313 2
1 -7 8 25.7293 55.4594 2
1 -7 9 48.6193 57.92 2
1 -7 10 4.27237 89.8454 2
1 -7 11 79.3609 96.7609 2
1 -7 12 782.85 114.079 2
1 -7 13 416.174 119.17 2
1 -7 14 21.0102 120.664 2
1 -7 15 264.236 136.793 2
1 -7 16 76.969 146.757 2
1 -7 17 42.3375 159.76 2
1 -7 18 980.295 131.358 2
1 -7 19 158.463 138.811 2
1 -7 20 156.13 154.126 2
1 -6 -8 1509.23 69.6234 2
1 -6 -7 226.366 42.1112 2
1 -6 -6 263.706 51.2603 2
1 -6 -5 1011.54 57.3606 2
-1 6 4 1530.23 64.3573 2
-1 6 3 567.094 53.0032 2
-1 6 2 78.6388 46.0533 2
1 -6 -1 350.377 33.3557 2
-1 6 0 563.425 52.5548 2
1 -6 1 4812.3 52.4985 2
-1 6 -2 193.256 29.9709 2
1 -6 3 22.5767 23.4751 2
1 -6 4 16.7133 38.4794 2
1 -3 -7 2329.52 64.4415 2
1 -3 -5 4152.21 67.9131 2
1 -3 -4 5186.94 69.5497 2
-1 3 3 99.4048 38.2965 2
-1 3 2 36.2769 36.5095 2
1 -3 -1 1586.97 31.8234 2
-1 3 0 41.1352 22.3389 2
1 -3 1 17947.3 77.194 2
1 -3 2 1003.65 31.1053 2
1 -2 -22 63.8623 245.524 2
1 -2 -21 225.616 253.731 2
1 -2 -20 97.4948 195.603 2
1 -2 -19 617.044 167.672 2
1 -2 -18 123.416 138.008 2
1 -2 -17 1152.71 145.163 2
1 -2 -16 275.997 117.076 2
1 -2 -15 7.35217 95.4532 2
1 -2 -14 371.207 93.2625 2
1 -2 -13 1180.52 84.3459 2
1 -2 -12 6793.24 126.742 2
1 -2 -11 13501 158.342 2
1 -2 -10 815.909 69.2299 2
1 -2 -9 30.1965 51.1421 2
1 -2 -8 34.5129 48.747 2
1 -2 -7 4647.71 87.377 2
1 -2 -6 106.908 29.8167 2
1 -2 -5 383.092 29.35 2
1 -2 -4 6458.88 53.2883 2
1 -2 -3 2315.27 34.9914 2
1 -2 -2 12382.2 48.9903 2
1 -2 -1 822.923 21.6047 2
-1 2 0 24303.2 59.9845 2
-1 2 -1 322.593 15.941 2
1 -2 2 3521.22 23.7721 2
-1 2 -3 1474.15 23.2749 2
-1 2 -4 1128.15 24.3202 2
-1 2 -5 1035.16 24.4923 2
-1 2 -6 134.775 23.4205 2
-1 2 -7 1082.85 58.0157 2
-1 2 -8 1232.84 61.0683 2
-1 2 -9 10131.6 121.679 2
-1 2 -10 22980.5 185.191 2
-1 2 -11 6298.34 119.372 2
-1 2 -12 700.317 82.427 2
-1 2 -14 384.584 93.5851 2
1 -1 -23 166.118 253.746 2
1 -1 -22 248.775 223.086 2
1 -1 -21 138.984 222.953 2
1 -1 -20 53.7671 206.271 2
1 -1 -19 430.18 167.554 2
1 -1 -18 496.786 143.936 2
1 -1 -17 692.672 131.565 2
1 -1 -16 450.33 118.729 2
1 -1 -15 56.6112 95.895 2
1 -1 -14 5.46056 81.3444 2
-1 1 13 170.022 43.8831 2
1 -1 -12 3723.7 98.816 2
1 -1 -11 1073.79 69.5482 2
1 -1 -10 72.7684 54.1471 2
1 -1 -9 15.6966 47.6077 2
1 -1 -8 1641.68 60.7408 2
1 -1 -7 1664.86 58.6958 2
1 -1 -6 21002.1 141.466 2
1 -1 -5 5598.55 51.3656 2
1 -1 -4 4895.77 44.5276 2
1 -1 -3 2348.48 33.7476 2
1 -1 -2 148.502 16.5103 2
1 -1 -1 283.537 19.8283 2
-1 1 0 21468.7 36.3533 2
1 -1 1 22130.8 41.5745 2
-1 1 -2 357.511 21.2479 2
-1 1 -3 1776.37 24.5221 2
-1 1 -4 9408.52 38.627 2
-1 1 -5 2350.81 23.8989 2
-1 1 -6 19603.7 174.534 2
-1 1 -7 950.959 67.1929 2
-1 1 -8 1330.72 73.2445 2
-1 1 -9 288.72 74.0112 2
-1 1 -10 19.2864 81.5255 2
-1 1 -11 2700.25 132.053 2
-1 1 -12 1026.62 109.354 2
-1 1 -13 242.313 91.9161 2
-1 1 -14 499.319 99.5454 2
-1 1 -15 357.175 104.6 2
-1 1 -16 674.304 119.426 2
-1 1 -17 117.26 124.134 2
-1 1 -18 96.6454 138.274 2
-1 1 -19 178.197 153.645 2
-1 1 -20 68.7064 164.649 2
-1 1 -21 87.3888 188.602 2
-1 1 -22 63.9492 224 2
1 0 -11 1265.63 68.3848 2
1 0 -9 42.6827 46.188 2
1 0 -8 981.558 49.5428 2
1 0 -7 8662.69 89.799 2
1 0 -6 17053.1 115.17 2
1 0 -5 19144.9 111.155 2
1 0 -4 7135.38 64.9931 2
-1 0 3 33249.9 60.5328 2
-1 0 2 94078.6 161.12 2
1 0 -1 42072.9 70.6391 2
1 0 0 1438.05 15.7706 2
1 0 1 30049.9 49.2103 2
1 0 2 7605.3 45.5061 2
-1 0 -12 150.835 89.3794 2
-1 0 -13 52.7575 102.357 2
-1 0 -21 331.557 193.644 2
-1 0 -22 386.112 226.754 2
-1 -1 3 26451.4 57.2193 2
-1 -1 2 31116.9 57.3079 2
-1 -1 1 816.558 14.8994 2
-1 -1 0 7264.07 33.222 2
-1 -1 -3 11522.5 49.3956 2
-1 -3 3 3877.5 66.4237 2
-1 -3 2 27817 135.525 2
1 3 0 2663.28 32.4942 2
1 3 1 3559.52 32.684 2
-1 -3 -2 42.8935 9.19289 2
-1 -3 -3 28061.5 83.7963 2
-1 -4 22 113.947 237.648 2
-1 -4 21 148.626 213.356 2
-1 -4 20 91.1071 193.19 2
-1 -4 19 116.784 165.01 2
-1 -4 18 1672.99 166.615 2
1 4 -16 234.128 94.526 2
-1 -4 15 65.5116 56.3958 2
-1 -4 14 185.829 87.6028 2
-1 -4 13 92.6674 65.0197 2
-1 -4 12 491.508 65.6125 2
-1 -4 11 77.0141 54.6825 2
-1 -4 10 1821.97 69.7497 2
-1 -4 9 7967.66 55.8769 2
-1 -4 8 8358.81 51.5352 2
1 4 -7 3579.48 25.4087 2
-1 -4 6 234.354 11.7851 2
-1 -4 5 63.6446 31.085 2
-1 -4 4 2305.35 45.3089 2
-1 -4 3 2732.95 46.2269 2
-1 -4 2 62103.5 97.6611 2
-1 -4 1 6758.89 30.0973 2
-1 -4 0 2471.59 26.6291 2
1 4 1 107.326 18.0928 2
-1 -4 -2 249.992 17.6011 2
-1 -4 -3 747.979 14.612 2
-1 -4 -4 2541.71 32.8982 2
-1 -4 -5 3268.12 42.0212 2
-1 -4 -6 708.757 58.4831 2
-1 -4 -7 1363.68 72.4486 2
-1 -4 -8 58.5987 63.1516 2
-1 -4 -9 63.7804 70.6108 2
-1 -4 -10 45.7596 76.9422 2
-1 -4 -11 -1.87133 83.2073 2
-1 -4 -12 27.4591 94.9741 2
-1 -4 -13 270.03 107.356 2
-1 -4 -14 996.798 122.957 2
-1 -5 21 142.999 211.897 2
-1 -5 20 80.608 187.495 2
-1 -5 19 29.7979 172.643 2
-1 -5 18 653.765 162.207 2
-1 -5 17 173.596 143.961 2
-1 -5 16 433.77 138.268 2
-1 -5 15 938.476 76.8949 2
-1 -5 14 98.8913 62.0263 2
-1 -5 13 269.646 45.7171 2
-1 -5 12 41.3696 42.3514 2
-1 -5 11 891.136 59.7138 2
-1 -5 10 38.1268 48.6137 2
-1 -5 9 5827.56 81.9556 2
-1 -5 8 4632.61 33.1199 2
-1 -5 7 2086.9 54.8783 2
-1 -5 6 592.886 41.4267 2
-1 -5 5 2625.79 54.5572 2
-1 -5 4 254.563 37.223 2
-1 -5 3 510.917 39.7647 2
-1 -5 2 26.0537 13.8109 2
-1 -5 1 1999.66 21.8171 2
-1 -5 0 582.153 20.6909 2
-1 -5 -1 736.894 22.7705 2
-1 -5 -2 3610.76 33.4951 2
-1 -5 -3 3713.19 33.7415 2
-1 -5 -4 1450.61 21.8287 2
-1 -5 -5 2053.7 67.9007 2
-1 -5 -6 100.345 55.7763 2
-1 -5 -7 574.746 68.2179 2
-1 -5 -8 1784.88 86.7562 2
-1 -5 -9 28.4306 75.1165 2
-1 -5 -10 144.615 87.6239 2
-1 -5 -11 225.659 96.3671 2
-1 -5 -12 265.385 105.657 2
-1 -5 -13 882.72 121.746 2
-1 -5 -14 964.752 131.961 2
-1 -5 -15 335.003 138.078 2
-1 -5 -16 52.3705 155.467 2
-1 -5 -17 147.77 189.179 2
-1 -5 -18 74.0393 234.695 2
-1 -5 -19 126.237 214.46 2
-1 -5 -20 48.43 224.984 2
-1 -6 4 12.5548 58.971 2
1 6 -3 482.52 49.6711 2
-1 -6 2 11.5434 18.0522 2
-1 -6 1 216.954 24.2294 2
1 6 0 3616.35 62.1955 2
1 6 1 4414.68 64.0793 2
1 6 2 4709.14 61.1676 2
-1 -6 -3 6419.28 63.1604 2
-1 -6 -4 2527.46 43.8538 2
-1 -6 -17 288.157 208.19 2
-1 -10 9 320.38 113.159 2
-1 -10 8 108.712 105.862 2
-1 -10 7 560.358 73.6929 2
-1 -10 6 72.0226 68.9886 2
1 10 -5 39.2065 65.6487 2
1 10 -4 182.798 85.9252 2
1 10 -3 74.4212 81.9658 2
1 10 -2 697.735 84.0463 2
1 10 -1 103.508 80.3477 2
-1 -10 -2 63.5387 75.7426 2
-1 -10 -3 47.309 84.3781 2
-1 -10 -4 1034.73 102.09 2
-1 -10 -5 267.094 101.873 2
-1 -10 -6 83.1849 106.791 2
-1 -10 -7 121.059 114.909 2
-1 -10 -8 25.2287 122.198 2
-1 -10 -9 142.311 127.779 2
-1 -10 -10 48.6686 138.423 2
-1 -10 -11 93.8724 153.009 2
-1 -10 -12 763.071 181.933 2
1 11 -16 237.373 207.403 2
1 11 -15 127.777 187.98 2
1 11 -14 77.5849 178.963 2
1 11 -13 73.491 153.568 2
1 11 -12 97.5242 136.962 2
1 11 -11 109.512 127.666 2
1 11 -10 151.436 125.037 2
1 11 -9 376.375 128.824 2
1 11 -8 179.551 124.707 2
1 11 -7 860.776 123.554 2
1 11 -6 108.573 107.647 2
1 11 -5 397.883 108.225 2
1 11 -4 84.5289 99.6185 2
1 11 -3 283.655 99.7819 2
-1 -11 -5 100.133 115.127 2
-1 -11 -6 75.1785 120.767 2
-1 -11 -7 130.802 130.088 2
-1 -11 -8 75.5417 141.006 2
-1 -11 -9 153.13 156.686 2
-1 -11 -10 169.031 175.109 2
-1 -11 -11 198.327 203.786 2
-1 -11 -12 141.591 228.339 2
-1 -11 -13 138.343 257.489 2
-1 -11 -14 376.847 344.561 2
2 -12 -7 47.9818 121.235 2
2 -12 -6 84.1498 118.358 2
2 -11 -15 180.913 213.636 2
2 -11 -14 38.6249 180.638 2
2 -11 -13 162.483 170.141 2
2 -11 -12 103.07 146.374 2
2 -11 -11 32.6085 135.169 2
2 -11 -10 13.5909 126.077 2
2 -11 -9 598.614 124.462 2
2 -11 -8 126.704 112.102 2
2 -11 -7 87.3687 105.831 2
2 -11 -6 39.6987 96.9277 2
2 -11 -5 114.429 68.7823 2
2 -11 -4 1076.39 75.4809 2
2 -11 -3 331.907 68.512 2
2 -11 -2 515.564 68.5267 2
2 -11 -1 146.423 66.9138 2
-2 11 0 56.9854 96.9133 2
-2 11 -1 47.2341 105.431 2
-2 11 -2 278.17 108.471 2
-2 11 -3 286.998 106.419 2
-2 11 -4 131.288 108.587 2
-2 11 -5 1176.06 125.718 2
-2 11 -6 33.1545 117.873 2
-2 11 -7 146.473 122.22 2
-2 11 -8 142.184 126.749 2
-2 11 -9 85.778 137.916 2
-2 11 -10 281.404 146.904 2
-2 11 -11 474.157 162.364 2
-2 11 -12 140.902 168.306 2
-2 11 -13 477.01 185.277 2
-2 11 -14 39.2374 197.808 2
-2 11 -15 231.434 214.818 2
2 -10 -7 139.087 90.7976 2
2 -10 -5 116.095 84.4588 2
-2 10 2 539.405 94.4538 2
2 -6 -20 93.6609 215.141 2
2 -6 -19 248.407 185.787 2
2 -6 -18 103.273 158.521 2
2 -6 -17 188.931 139.488 2
2 -6 -16 56.0089 121.379 2
2 -6 -15 200.084 110.362 2
2 -6 -14 123.48 104.178 2
2 -6 -13 46.327 94.7374 2
2 -6 -12 194.754 88.8344 2
2 -6 -11 988.935 95.0573 2
2 -6 -10 301.961 74.7324 2
2 -6 -9 519.328 54.4187 2
2 -6 -8 160.045 63.6092 2
2 -6 -7 2429.23 61.7011 2
2 -6 -6 8072.7 87.9835 2
2 -6 -5 9596 88.6819 2
2 -6 -4 1141.31 46.8032 2
2 -6 -3 3609.37 58.7516 2
2 -6 -2 23.524 34.2275 2
-2 6 1 21.1451 33.724 2
2 -6 0 2343.96 47.5437 2
-2 6 -1 86.5956 33.3811 2
2 -6 2 394.566 35.153 2
2 -6 3 19.7976 41.0344 2
2 -6 4 73.3401 40.7631 2
-2 6 -5 90.9511 57.1219 2
-2 6 -6 3501.95 95.3427 2
2 -5 -21 93.3382 216.935 2
2 -5 -20 136.278 201.726 2
2 -5 -19 62.499 169.056 2
2 -5 -18 1130.07 163.857 2
2 -5 -17 50.3575 130.368 2
2 -5 -16 269.177 114.156 2
2 -5 -15 49.482 105.483 2
2 -5 -14 82.9689 95.2379 2
2 -5 -13 34.184 84.1804 2
2 -5 -12 111.661 84.1585 2
2 -5 -11 299.189 79.1567 2
2 -5 -10 238.034 49.8898 2
2 -5 -9 23.4543 46.084 2
2 -5 -8 32.6268 43.1858 2
2 -5 -7 137.778 41.7829 2
2 -5 -6 2073.09 53.0192 2
2 -5 -5 100.806 36.4047 2
2 -5 -4 25.7669 34.49 2
2 -5 -3 147.443 34.9854 2
2 -5 -2 5179.57 59.9055 2
2 -5 -1 11750.6 80.7484 2
2 -5 0 11476.2 79.5012 2
-2 5 -1 3910.52 80.3363 2
2 -5 2 2319.42 49.4821 2
2 -5 3 1208.98 42.615 2
2 -5 4 430.222 38.5749 2
2 -5 5 7025.26 76.8632 2
2 -5 6 3174.85 61.4624 2
2 -5 7 3852.13 71.0103 2
2 -5 8 1454.07 82.7364 2
2 -5 9 -48.2236 73.0749 2
2 -5 10 40.9311 81.4714 2
2 -5 11 10.3585 88.9599 2
2 -5 12 95.3599 98.5665 2
2 -5 13 8.77054 109.03 2
2 -5 14 135.145 121.391 2
2 -5 15 -7.14321 130.156 2
2 -5 16 299.956 148.479 2
2 -5 17 574.814 159.462 2
2 -5 18 206.082 175.882 2
2 -5 19 241.943 132.254 2
2 -5 20 113.739 146.706 2
-2 5 -21 319.254 213.242 2
2 -4 -8 265.693 42.2785 2
2 -4 -7 3567.16 80.8718 2
2 -4 -6 3593.26 56.6465 2
2 -4 -5 1344.91 42.5295 2
2 -4 -4 530.054 36.6839 2
2 -4 -3 26.6334 29.4902 2
2 -4 -2 32.118 28.4644 2
2 -4 -1 442.761 32.7267 2
-2 4 0 13726.7 117.881 2
-2 4 -1 667.967 48.1052 2
2 -4 2 817.187 35.6594 2
2 -4 3 111.026 29.7312 2
2 -4 4 3549.84 74.2779 2
2 -4 6 857.133 62.7697 2
-2 3 2 3396.56 64.5815 2
-2 3 0 1470.95 50.5888 2
2 -1 -6 45.2781 43.6414 2
2 -1 -5 109.781 30.2779 2
2 -1 -4 8736.22 62.284 2
2 -1 -3 58493.6 138.36 2
-2 1 2 112046 254.705 2
-2 1 1 92064.9 868.216 2
-2 1 0 25969.2 47.1269 2
2 -1 1 19230.3 61.0057 2
-2 1 -2 26.9023 30.048 2
-2 1 -3 8664.93 75.742 2
-2 1 -5 201.193 15.0239 2
2 0 -22 98.7207 233.959 2
2 0 -21 168.802 251.105 2
2 0 -20 85.1515 186.726 2
2 0 -19 683.041 157.835 2
2 0 -18 309.166 130.193 2
2 0 -17 597.869 122.976 2
2 0 -16 50.8305 101.298 2
-2 0 15 541.874 57.7306 2
-2 0 14 189.24 48.8861 2
-2 0 13 58.6854 45.0722 2
2 0 -12 1052.23 71.9862 2
2 0 -11 583.912 63.5053 2
2 0 -10 1903.79 70.3329 2
2 0 -9 2419.24 70.4235 2
2 0 -8 2242 66.1904 2
2 0 -7 11936 109.777 2
2 0 -6 353.242 43.5381 2
2 0 -5 449.68 29.2184 2
2 0 -4 940.475 30.9954 2
2 0 -3 48875.2 113.892 2
2 0 -1 24218.2 74.6402 2
2 0 0 21051.5 62.816 2
2 0 1 56.7243 16.0877 2
-2 0 -2 87.158 20.1295 2
-2 0 -3 44.8249 22.0118 2
-2 0 -4 4562.49 27.3415 2
-2 0 -5 357.798 48.5942 2
-2 0 -6 740.269 57.6268 2
-2 0 -7 2159.32 78.7211 2
-2 0 -8 15034.8 162.561 2
-2 0 -9 32984.3 245.969 2
-2 0 -10 8062.74 143.782 2
-2 0 -11 284.263 84.196 2
-2 0 -12 98.9988 85.7258 2
-2 0 -13 388.115 94.4986 2
-2 0 -14 213.004 102.341 2
-2 0 -15 122.621 111.755 2
-2 0 -16 214.46 124.027 2
-2 0 -17 2.10902 136.616 2
-2 0 -18 241.307 150.548 2
2 1 -21 141.913 198.461 2
2 1 -20 277.648 223.895 2
2 1 -19 133.718 170.062 2
2 1 -18 96.4015 135.298 2
2 1 -17 110.778 111.961 2
2 1 -16 125.844 104.209 2
-2 -1 15 985.885 58.6353 2
-2 -1 14 295.211 49.3713 2
-2 -1 13 6351.46 78.5184 2
2 1 -12 665.493 45.3995 2
2 1 -11 529.812 39.5088 2
2 1 -10 42.5949 36.5438 2
2 1 -9 1451.99 42.034 2
2 1 -8 5967.25 80.8031 2
2 1 -7 24570.3 140.093 2
2 1 -6 4603.18 62.1558 2
2 1 -5 36.3246 30.2447 2
2 1 -4 772.465 35.8106 2
-2 -1 2 23002.7 54.279 2
2 1 -1 11.027 11.6671 2
2 1 0 20.7749 11.8634 2
-2 -1 -1 576.144 12.3087 2
-2 -1 -2 36.5522 14.0553 2
-2 -1 -3 170.437 13.9453 2
-2 -1 -4 313.466 18.3474 2
-2 -1 -5 18.4135 12.6429 2
-2 -1 -6 593.545 69.0441 2
-2 -1 -7 1394.11 78.8325 2
-2 -1 -8 11887.7 163.203 2
-2 -1 -9 478.903 87.1584 2
-2 -1 -10 8156.84 169.697 2
-2 -1 -11 53.9504 114.464 2
-2 -1 -12 583.948 112.543 2
-2 -1 -13 68.7225 104.743 2
-2 -1 -14 1384.12 125.242 2
-2 -1 -15 99.6136 116.966 2
-2 -1 -16 314.306 125.888 2
-2 -1 -17 32.462 138.214 2
-2 -1 -18 161.245 155.313 2
-2 -1 -19 99.046 169.918 2
-2 -1 -20 145.813 179.013 2
-2 -1 -21 178.592 210.865 2
2 2 -7 9617.87 78.0843 2
2 2 -6 2136.58 43.2773 2
-2 -2 5 1991.26 30.3431 2
-2 -2 4 1104.31 24.7591 2
-2 -2 3 6933.39 66.1506 2
-2 -2 2 4667.82 27.0925 2
-2 -2 1 4315.29 27.8279 2
-2 -2 0 941.471 16.7303 2
-2 -2 -1 4350.51 40.5566 2
-2 -2 -2 10469.8 79.1924 2
2 2 3 3592.43 17.8439 2
-2 -2 -4 9097.41 82.2062 2
-2 -2 -5 1719.17 35.4054 2
-2 -5 2 171.572 15.2255 2
-2 -5 1 2010.68 42.2887 2
2 5 0 103.005 25.0785 2
2 5 1 46.1101 16.042 2
-2 -6 21 209.745 229.031 2
-2 -6 20 77.2608 198.093 2
-2 -6 16 70.27 98.9099 2
-2 -6 15 197.908 106.949 2
-2 -6 14 50.4846 130.443 2
-2 -6 13 28.3124 96.8917 2
-2 -6 12 66.6316 83.4427 2
-2 -6 11 91.1764 79.6307 2
-2 -6 10 624.52 76.9943 2
-2 -6 9 1062.83 77.5977 2
-2 -6 8 266.904 65.7929 2
-2 -6 7 185.554 63.0067 2
-2 -6 6 25.6533 42.38 2
-2 -6 5 565.111 66.2685 2
-2 -6 4 9839.03 134.087 2
-2 -6 3 10807.8 142.431 2
-2 -6 2 7015.62 39.2404 2
-2 -6 1 383.862 25.8792 2
2 6 0 191.807 26.342 2
-2 -6 -1 3813.79 35.5404 2
-2 -6 -2 11404.5 90.9186 2
-2 -6 -3 126.323 39.1115 2
-2 -6 -4 42.5741 40.2274 2
-2 -6 -5 739.808 73.1256 2
-2 -6 -6 139.494 71.8666 2
-2 -6 -7 1565.3 90.9641 2
-2 -6 -8 63.49 82.5985 2
-2 -6 -9 20.7776 88.3716 2
-2 -6 -10 73.1907 98.579 2
-2 -6 -11 77.6367 112.077 2
-2 -6 -12 271.908 128.155 2
-2 -6 -13 89.9115 144.185 2
-2 -6 -14 38.2233 164.951 2
-2 -6 -18 195.719 205.561 2
-2 -7 20 197.018 217.031 2
-2 -7 19 329.456 194.677 2
-2 -7 18 185.862 175.592 2
-2 -7 17 140.626 158.128 2
-2 -7 16 109.912 95.7473 2
-2 -7 15 307.575 87.5817 2
-2 -7 14 31.0145 75.0748 2
-2 -7 13 112.627 99.8727 2
-2 -7 12 103.327 100.625 2
-2 -7 11 87.4856 106.948 2
-2 -7 10 67.9081 110.948 2
-2 -7 9 -1.31835 99.1929 2
-2 -7 8 391.163 90.8072 2
-2 -7 7 45.8753 56.2821 2
-2 -7 6 71.2153 57.0211 2
-2 -7 5 612.532 96.6667 2
-2 -7 4 138.225 47.2608 2
-2 -7 3 430.946 42.9057 2
-2 -7 2 85.2833 18.4314 2
-2 -7 1 2911.19 38.315 2
2 7 0 249.353 29.9872 2
-2 -7 -1 6343.77 48.9542 2
-2 -7 -2 176.044 43.2233 2
-2 -7 -3 684.103 48.2141 2
-2 -7 -4 832.966 74.0624 2
-2 -7 -5 16.4376 70.787 2
-2 -7 -6 96.0083 77.3669 2
-2 -7 -7 514.046 86.5992 2
-2 -7 -8 605.276 97.5966 2
-2 -7 -9 83.4222 98.7597 2
-2 -7 -10 108.932 114.649 2
-2 -7 -11 43.2851 123.934 2
-2 -7 -12 291.555 149.003 2
-2 -7 -13 72.8321 165.724 2
-2 -7 -14 106.583 193.179 2
-2 -7 -15 9.31319 201.305 2
-2 -7 -16 337.393 201.339 2
-2 -7 -17 663.57 213.902 2
-2 -7 -18 290.824 224.229 2
2 8 -4 155.283 61.6605 2
2 8 -3 50.7453 58.2574 2
2 8 -2 57.4423 54.2511 2
-2 -8 1 20.35 31.2056 2
2 8 0 190.358 36.1369 2
2 8 1 91.667 33.3797 2
2 12 -14 255.626 207.165 2
2 12 -13 320.743 201.153 2
2 12 -12 173.352 190.706 2
2 12 -11 64.3628 181.995 2
3 -10 -17 155.32 203.435 2
3 -10 -16 72.678 179.4 2
3 -10 -15 598.947 168.45 2
3 -10 -14 234.368 149.488 2
3 -10 -13 128.965 137.768 2
3 -10 -10 86.9888 110.174 2
3 -10 -8 79.4722 105.105 2
3 -10 -7 256.179 97.9663 2
3 -10 -6 177.994 99.1181 2
-3 10 4 338.681 98.847 2
3 -9 -18 151.032 197.932 2
3 -9 -17 286.362 181.264 2
3 -9 -16 371.181 157.651 2
3 -9 -15 117.706 141.272 2
3 -9 -14 279.158 135.18 2
3 -9 -13 81.4419 125.912 2
3 -9 -12 247.141 116.085 2
3 -9 -11 132.365 77.2275 2
3 -9 -10 134.771 71.5673 2
3 -9 -9 52.2304 69.2164 2
3 -9 -8 235.176 68.3787 2
3 -9 -7 79.9113 64.3892 2
3 -9 -6 65.474 59.5578 2
3 -9 -5 202.804 62.8026 2
3 -9 -4 617.024 62.1483 2
3 -9 -3 10.4123 55.1926 2
3 -9 -2 117.458 56.5999 2
3 -9 -1 174.189 53.1338 2
-3 9 0 340.222 54.8778 2
3 -9 1 2535.66 67.4838 2
3 -9 2 1120.21 60.7648 2
3 -9 3 1249.56 60.4872 2
-3 9 -4 236.283 91.9347 2
-3 9 -5 578.899 99.3805 2
-3 9 -6 554.605 101.816 2
-3 9 -7 556.936 108.46 2
-3 9 -10 442.053 125.404 2
-3 9 -11 283.142 127.148 2
-3 9 -12 46.6491 131.523 2
-3 9 -13 127.218 141.582 2
-3 9 -14 62.2744 147.071 2
-3 9 -15 191.19 161.299 2
-3 9 -16 186.458 134.428 2
-3 9 -17 153.198 148.634 2
3 -8 -10 76.8495 88.0115 2
3 -8 -9 0.12137 81.4429 2
3 -8 -7 830.22 89.2337 2
3 -8 -6 3788.39 109.416 2
3 -5 -11 227.119 79.8555 2
3 -5 -7 6099.96 108.669 2
3 -5 -6 49.0856 58.248 2
-3 5 4 68.5938 55.4322 2
-3 5 3 404.888 60.8943 2
-3 5 0 86.5485 52.0727 2
3 -4 -22 147.784 231.309 2
3 -4 -21 118.606 209.831 2
3 -4 -20 111.487 179.316 2
3 -4 -19 147.015 148.787 2
3 -4 -18 146.482 129.842 2
3 -4 -17 123.123 120.456 2
3 -4 -16 63.015 107.675 2
3 -4 -15 108.063 100.015 2
3 -4 -14 -61.6607 89.7922 2
3 -4 -13 507.198 86.6741 2
3 -4 -12 45.7685 83.0149 2
3 -4 -11 172.5 78.8184 2
3 -4 -10 203.934 51.4867 2
3 -4 -9 4392.5 74.5335 2
3 -4 -8 496.362 47.0716 2
3 -4 -7 22540.8 130.768 2
3 -4 -6 6599.58 75.6752 2
3 -4 -5 762.599 40.7081 2
3 -4 -4 1958.78 49.6519 2
3 -4 -3 6834.49 70.1635 2
3 -4 -2 7631.52 71.1983 2
-3 4 1 374.178 52.9873 2
-3 4 0 2748.35 70.7613 2
-3 4 -1 1327.65 60.9162 2
3 -4 2 1850.96 42.7938 2
3 -4 3 105.244 34.7693 2
3 -4 4 1296.74 43.0955 2
3 -4 5 14.5156 35.9644 2
-3 4 -6 111.493 55.4731 2
-3 4 -7 27.7039 57.7791 2
-3 4 -8 325.168 67.5559 2
3 -3 -22 173.692 222.285 2
3 -3 -21 176.686 204.398 2
3 -3 -20 296.767 171.137 2
3 -3 -19 195.07 143.079 2
3 -3 -18 117.271 125.634 2
3 -3 -17 88.4421 110.584 2
3 -3 -16 38.8396 98.6431 2
3 -3 -15 1333.72 110.185 2
3 -3 -14 4390.3 130.33 2
3 -3 -13 3703.86 116.381 2
3 -3 -12 95.1258 79.163 2
3 -3 -11 65.9011 74.3114 2
3 -3 -10 -7.94879 44.9316 2
3 -3 -9 -0.24604 43.9735 2
3 -3 -8 6570.38 78.7885 2
3 -3 -7 57.2815 37.4702 2
3 -3 -6 172.063 34.8431 2
3 -3 -5 242.169 36.4924 2
3 -3 -4 4263.44 58.0781 2
3 -3 -3 718.796 36.6825 2
-3 3 2 29850.3 178 2
-3 3 1 8112.23 98.13 2
-3 3 0 144.831 45.7183 2
3 -3 1 29.2867 27.8414 2
3 -3 2 41.1906 28.8988 2
3 -3 3 40.0683 30.4649 2
-3 3 -4 51.4732 30.8217 2
3 -3 5 1584.26 45.0459 2
3 -3 6 346.783 39.9414 2
3 -3 7 676.727 46.3344 2
-3 3 -8 198.574 44.3978 2
-3 3 -9 15.8211 65.9054 2
-3 3 -10 168.242 73.0954 2
-3 3 -11 1127.49 89.0899 2
-3 3 -12 230.528 84.9106 2
-3 3 -13 95.7918 90.7043 2
-3 3 -14 630.635 108.143 2
-3 3 -15 651.577 119.863 2
-3 3 -16 198.79 128.253 2
-3 3 -17 152.455 100.407 2
3 -3 18 229.756 94.1424 2
3 -3 19 316.573 132.36 2
3 -3 20 198.781 144.995 2
-3 3 -21 335.286 229.927 2
3 -2 -8 1489.98 49.4611 2
3 -2 -7 4336.24 61.1623 2
3 -2 -6 1173.03 40.8878 2
3 -2 -5 1315.15 42.3561 2
3 -2 -4 21.0948 31.0564 2
3 -2 -3 2054.84 43.2264 2
-3 2 2 1507.53 56.5231 2
-3 2 1 2860.88 34.4398 2
-3 2 0 206.25 23.6543 2
3 -2 1 91.7594 24.8233 2
3 -2 2 1712.26 34.7261 2
3 -2 3 8485.15 81.7915 2
-3 2 -4 219.081 38.1738 2
-3 2 -6 108.973 31.7223 2
-3 2 -7 443.807 23.9855 2
-3 1 1 17016.2 51.7975 2
3 1 -5 477.253 37.9071 2
-3 -1 3 2229.92 35.771 2
3 1 -2 10.2274 17.0719 2
3 1 -1 468.667 17.5342 2
3 1 0 4532.87 36.7114 2
-3 -1 -1 1029.47 27.0254 2
-3 -1 -2 1873.72 30.1364 2
-3 -1 -3 1635.03 36.5184 2
-3 -1 -4 10325.9 49.9379 2
-3 -1 -5 27.7538 21.4436 2
-3 -1 -6 233.034 16.0613 2
-3 -2 22 395.24 218.667 2
3 2 -18 94.2726 135.143 2
3 2 -17 274.388 113.581 2
-3 -2 16 865.721 72.5252 2
-3 -2 15 396.092 58.3864 2
-3 -2 14 348.061 53.3519 2
-3 -2 13 322.41 47.8061 2
-3 -2 12 45.8747 43.5576 2
3 2 -11 99.8714 41.1386 2
3 2 -10 1405.7 45.3573 2
3 2 -9 1261.59 43.8887 2
-3 -2 8 113.286 32.8496 2
-3 -2 7 151.913 31.4462 2
-3 -2 6 488.151 25.741 2
-3 -2 5 368.631 23.8063 2
-3 -2 4 4054.15 46.9432 2
-3 -2 3 4126.78 44.6044 2
-3 -2 2 10645.4 105.844 2
3 2 -1 383.783 20.9524 2
3 2 0 323.728 15.1842 2
-3 -2 -1 12673.7 41.7156 2
-3 -2 -2 8050.01 34.6589 2
-3 -2 -3 9324.02 40.1265 2
-3 -2 -4 177.898 16.5408 2
-3 -2 -5 1411.56 23.5829 2
-3 -2 -6 374.256 20.0088 2
-3 -2 -7 31835.9 237.687 2
-3 -2 -8 7886.03 138.724 2
-3 -2 -9 13045 179.225 2
-3 -2 -10 29.15 80.6894 2
-3 -2 -11 390.01 95.2101 2
-3 -2 -12 167.085 98.2203 2
-3 -2 -13 41.2066 103.342 2
-3 -2 -14 65.9397 118.011 2
-3 -2 -15 113.792 127.756 2
-3 -2 -16 23.1048 142.245 2
-3 -2 -17 110.327 156.883 2
-3 -2 -18 676.328 173.044 2
-3 -2 -19 123.266 182.929 2
-3 -2 -20 218.414 202.457 2
-3 -3 22 323.715 223.163 2
-3 -3 21 273.397 202.535 2
-3 -3 20 273.124 182.176 2
-3 -3 19 522.48 159.152 2
-3 -3 18 193.354 145.19 2
3 3 -16 213.601 68.3247 2
-3 -3 15 633.337 64.8434 2
-3 -3 14 705.813 60.8201 2
-3 -3 13 2312.07 63.125 2
-3 -3 12 140.304 42.8063 2
-3 -3 11 1809.23 42.924 2
-3 -3 10 2069.39 41.3135 2
3 3 -9 214.054 29.2088 2
3 3 -8 956.048 30.5468 2
-3 -3 7 3042.63 36.6421 2
-3 -3 6 1975.75 30.4986 2
-3 -3 5 9903.72 50.4687 2
-3 -3 4 10085.8 46.9793 2
-3 -3 3 -5.62072 20.7368 2
-3 -3 2 5389.75 85.8183 2
-3 -3 1 85.8737 22.4481 2
-3 -3 0 540.527 16.4203 2
-3 -3 -1 2312.85 40.7793 2
-3 -3 -2 502.852 30.6257 2
-3 -3 -3 1303.64 37.1235 2
-3 -3 -4 28.6275 28.4171 2
3 3 5 102.491 12.415 2
3 3 6 84.8457 14.3609 2
-3 -3 -7 1819.45 35.7786 2
-3 -3 -8 299.037 83.3041 2
-3 -3 -9 581.627 93.7154 2
-3 -3 -10 1390.25 109.275 2
-3 -3 -11 198.562 100.176 2
-3 -3 -12 1924.42 126.665 2
-3 -3 -13 240.689 115.393 2
-3 -3 -14 -1.43363 119.7 2
-3 -3 -15 193.196 132.094 2
-3 -3 -16 1139.92 163.54 2
-3 -3 -17 1576.35 180.751 2
-3 -3 -18 899.838 187.07 2
-3 -3 -19 140.746 190.583 2
-3 -3 -20 132.437 214.331 2
-3 -4 4 4.53684 13.602 2
-3 -4 1 1158.04 26.0949 2
3 4 0 84.0687 9.52384 2
-3 -4 -3 46.8971 42.9361 2
-3 -4 -5 2965.37 67.2007 2
-3 -4 -6 2584.28 63.5781 2
-3 -4 -8 2129.45 36.8404 2
-3 -7 16 -1.55689 135.18 2
-3 -7 1 1562.25 34.3206 2
-3 -8 16 136.005 146.557 2
-3 -8 15 120.726 117.876 2
-3 -8 14 204.672 129.526 2
-3 -8 13 395.902 127.672 2
-3 -8 12 393.224 129.01 2
-3 -8 11 174.373 145.929 2
-3 -8 10 51.0867 130.918 2
-3 -8 9 104.139 122.945 2
-3 -8 8 36.3393 114.112 2
-3 -8 7 358.32 112.505 2
-3 -8 6 400.668 119.361 2
-3 -8 5 4184.32 82.3377 2
-3 -8 4 4735.42 76.197 2
-3 -8 3 3053.31 65.2312 2
-3 -8 2 342.988 46.4148 2
-3 -8 1 1240.45 43.5563 2
-3 -8 0 887.396 47.9128 2
-3 -8 -1 70.1628 46.4909 2
-3 -8 -2 1098.97 59.0684 2
-3 -8 -3 16.6922 52.938 2
-3 -8 -4 53.5281 80.8834 2
-3 -8 -5 112.919 93.448 2
-3 -8 -6 123.062 105.807 2
-3 -8 -7 450.464 116.195 2
-3 -8 -8 390.48 123.497 2
-3 -8 -9 1252.97 146.651 2
-3 -8 -10 75.2163 142.252 2
-3 -8 -11 775.528 149.433 2
-3 -8 -12 224.792 155.368 2
-3 -8 -13 155.52 166.689 2
-3 -8 -14 106.353 180.222 2
-3 -8 -15 51.2981 198.866 2
-3 -8 -16 168.084 221.225 2
-3 -9 16 163.131 171.889 2
-3 -9 15 209.005 154.696 2
-3 -9 14 349.347 146.455 2
-3 -9 13 16.2408 129.931 2
-3 -9 10 33.535 105.817 2
-3 -9 9 373.805 112.951 2
-3 -9 8 61.9427 68.5323 2
-3 -9 7 284.189 63.1278 2
-3 -9 6 56.7863 58.963 2
-3 -9 5 463.175 55.5188 2
-3 -9 4 102.106 56.8913 2
-3 -9 3 115.092 90.1813 2
-3 -9 2 11.8559 89.4697 2
-3 -9 1 116.918 92.5228 2
-3 -9 0 1373.26 105.778 2
-3 -9 -1 816.071 99.5533 2
-3 -9 -2 536.736 60.7191 2
-3 -9 -3 224.137 83.4244 2
-3 -9 -4 310.901 92.3624 2
-3 -9 -5 99.6026 98.9796 2
-3 -9 -6 673.247 116.9 2
-3 -9 -7 246.981 119.477 2
-3 -9 -8 287.442 127.435 2
-3 -9 -9 106.497 136.114 2
-3 -9 -10 62.289 146.083 2
-3 -9 -11 61.7049 158.303 2
-3 -9 -12 99.8447 169.887 2
-3 -9 -13 138.728 185.743 2
-3 -9 -14 222.566 204.659 2
-3 -9 -15 94.3473 225.247 2
3 10 -7 90.4237 87.497 2
4 -13 -8 123.22 162.228 2
4 -13 -7 137.233 155.492 2
4 -13 -6 60.0705 152.064 2
-4 13 4 193.673 155.226 2
-4 13 3 90.3338 166.57 2
-4 13 2 142.574 156.501 2
-4 13 1 167.574 151.451 2
-4 13 0 926.623 170.761 2
-4 13 -1 1761.68 177.459 2
-4 13 -2 573.563 158.917 2
-4 13 -3 236.077 160.316 2
-4 13 -4 209.768 173.05 2
-4 13 -5 127.497 174.353 2
-4 13 -6 229.526 181.549 2
-4 13 -7 43.5797 182.981 2
-4 13 -9 268.214 202.172 2
4 -8 -19 240.754 200.621 2
4 -8 -18 89.7196 168.178 2
4 -8 -17 181.772 153.765 2
4 -8 -16 53.4233 141.552 2
4 -8 -15 -14.6313 130.541 2
4 -8 -14 82.7161 121.247 2
4 -8 -13 114.251 117.893 2
4 -8 -12 77.3807 82.6106 2
4 -8 -11 417.472 76.5505 2
4 -8 -10 -0.13126 69.6469 2
4 -8 -9 178.2 67.2605 2
4 -8 -8 291.396 89.0836 2
4 -8 -7 1625.22 105.849 2
4 -8 -6 154.031 60.0081 2
-4 8 5 439.063 91.1913 2
-4 8 4 1243.16 94.3569 2
-4 8 3 459.404 91.6296 2
-4 8 2 3950.98 116.38 2
-4 8 1 218.288 78.3655 2
-4 8 0 400.118 85.5054 2
-4 8 -1 53.7325 82.0225 2
-4 8 -2 3660.54 116.297 2
-4 8 -3 1533.05 99.8723 2
-4 8 -4 8540.05 163.382 2
-4 8 -5 820.535 101.625 2
-4 8 -6 347.347 93.9482 2
4 -7 -20 132.415 207.158 2
4 -7 -19 402.432 176.278 2
4 -7 -18 381.545 159.377 2
4 -7 -17 40.9731 144.471 2
4 -7 -16 32.3527 130.026 2
4 -7 -15 227.464 127.184 2
4 -7 -14 168.887 114.258 2
4 -7 -13 80.8041 112.718 2
4 -7 -12 635.817 81.1444 2
4 -7 -11 319.188 69.0951 2
4 -7 -10 226.132 64.8578 2
4 -7 -9 16.7795 61.0055 2
4 -7 -8 1872.15 70.5039 2
4 -7 -7 86.1301 56.3696 2
4 -7 -6 535.822 46.5461 2
4 -7 -5 538.983 57.6718 2
4 -7 -4 971.518 57.0495 2
4 -7 -3 1346.74 61.3737 2
4 -7 -2 36.6449 47.7702 2
4 -7 -1 492.593 51.1454 2
-4 7 0 325.703 49.9048 2
4 -7 1 1154.61 55.6525 2
-4 7 -2 3592.7 107.443 2
-4 7 -3 1952.16 96.3652 2
-4 7 -4 55.5465 78.2761 2
4 -7 7 217.483 92.9703 2
-4 7 -11 695.15 115.73 2
-4 7 -12 102.572 111.38 2
-4 7 -13 88.1153 120.737 2
-4 7 -14 110.327 97.5045 2
-4 7 -15 264.103 108.043 2
-4 7 -16 169.5 118.427 2
-4 7 -17 281.442 135.198 2
-4 7 -18 114.086 152.56 2
4 -6 -8 351.865 73.2233 2
4 -6 -7 994.886 83.3881 2
4 -6 -6 396.239 74.1625 2
-4 6 4 77.2605 68.2269 2
-4 6 3 130.818 69.5264 2
4 -6 -2 37.0466 59.4162 2
-4 6 1 28.0749 64.7317 2
4 -3 -10 4345.07 115.183 2
4 -3 -9 5460.2 112.706 2
4 -3 -8 1114.84 73.4597 2
4 -3 -6 40.0255 56.5038 2
4 -3 -5 852.063 43.0465 2
4 -3 -4 3051.44 77.6686 2
-4 3 3 205.506 52.5649 2
-4 3 1 674.374 55.3242 2
-4 3 -2 1966.19 68.5492 2
4 -2 -23 66.5427 263.625 2
4 -2 -22 94.405 225.886 2
4 -2 -21 156.305 195.052 2
4 -2 -20 145.626 158.09 2
4 -2 -19 283.794 139.791 2
4 -2 -18 164.859 118.734 2
4 -2 -17 112.26 108.658 2
4 -2 -16 314.616 103.159 2
4 -2 -15 312.459 95.2367 2
4 -2 -14 137.439 84.9907 2
4 -2 -13 678.701 94.9716 2
4 -2 -12 47.2725 79.8526 2
4 -2 -11 90.6599 68.3157 2
4 -2 -10 2940.41 68.09 2
4 -2 -9 7810.04 91.0306 2
4 -2 -8 14543.9 109.4 2
4 -2 -7 3521.77 60.4532 2
4 -2 -6 15.8854 36.9291 2
4 -2 -5 332.863 39.3058 2
4 -2 -4 14994.5 96.7391 2
-4 2 3 5021.62 89.8418 2
-4 2 2 994.809 28.1317 2
-4 2 1 28.2624 22.5218 2
-4 2 0 1920.18 63.9618 2
4 -2 1 700.628 28.9584 2
4 -2 2 19137.6 84.5554 2
4 -2 3 5352.24 54.5177 2
4 -2 4 1585.31 41.9447 2
-4 2 -5 49.8861 52.6259 2
-4 2 -6 33.3772 50.3908 2
-4 2 -7 25.2691 29.3414 2
-4 2 -8 159.245 13.9762 2
-4 2 -9 1624.17 59.6036 2
-4 2 -10 37.0044 51.0913 2
-4 2 -11 402.697 58.9477 2
-4 2 -12 449.937 63.7061 2
-4 2 -13 1504.85 78.9564 2
-4 2 -14 83.5374 73.9242 2
-4 2 -15 35.7301 81.0625 2
-4 2 -16 66.8555 93.2543 2
-4 2 -17 79.7065 104.352 2
-4 2 -18 1296.69 125.47 2
4 -2 19 841.169 147.811 2
4 -1 -22 115.073 217.689 2
4 -1 -21 69.4475 194.286 2
4 -1 -20 172.822 164.561 2
4 -1 -19 532.801 138.378 2
4 -1 -18 150.625 113.29 2
4 -1 -17 117.63 77.93 2
4 -1 -16 11.0292 95.0954 2
4 -1 -15 14.1116 87.0777 2
4 -1 -14 40.6745 81.6082 2
4 -1 -13 11.4955 82.8342 2
4 -1 -12 25.1593 74.5788 2
4 -1 -11 18.6712 65.5551 2
4 -1 -10 5717.81 112.489 2
4 -1 -9 1199.75 51.6281 2
4 -1 -8 381.522 43.5239 2
4 -1 -7 5.1144 36.0707 2
4 -1 -6 1978.34 47.8214 2
4 -1 -5 10132 80.4393 2
4 -1 -4 101700 327.084 2
4 -1 -3 15438.2 127.516 2
-4 1 2 19880.7 144.563 2
-4 1 1 2154.19 61.5555 2
-4 1 0 10.8945 40.4488 2
4 -1 1 3293.88 33.2488 2
4 -1 2 446.425 26.4659 2
-4 1 -3 57.5083 41.748 2
-4 1 -4 10.3339 41.1267 2
-4 1 -5 468.764 38.7064 2
-4 1 -6 1375.46 45.2323 2
-4 1 -7 5.39068 11.7257 2
-4 1 -8 17.4576 41.5023 2
-4 1 -9 663.172 50.3661 2
-4 1 -10 49.8728 48.8705 2
-4 1 -11 18.7319 52.1325 2
-4 1 -12 -4.47459 56.795 2
-4 1 -13 1185.44 74.8876 2
-4 1 -14 546.7 75.1175 2
-4 1 -15 87.8063 78.8301 2
-4 1 -16 136.679 91.2239 2
-4 1 -17 510.862 105.566 2
-4 1 -18 157.509 118.154 2
-4 1 -19 170.312 197.471 2
-4 1 -20 76.9168 222.242 2
4 0 -9 458.268 61.625 2
4 0 -8 5184.17 92.9691 2
4 0 -7 824.025 54.4342 2
4 0 -6 2634.08 49.6708 2
4 0 -5 6035.06 62.6339 2
4 0 -4 9437.12 106.485 2
4 0 -3 559.287 15.2915 2
4 0 -2 296.178 42.4584 2
-4 0 1 958.17 48.0183 2
-4 0 0 688.264 43.3438 2
-4 0 -1 2152.54 51.9649 2
-4 0 -5 114.372 31.609 2
-4 0 -6 102.536 22.4401 2
-4 -1 -7 78.2295 16.0227 2
4 3 -5 39.2585 37.5749 2
4 3 0 652.061 28.5029 2
-4 -3 -4 74.7891 42.3681 2
-4 -3 -6 42.0924 13.5664 2
-4 -3 -7 346.172 23.4823 2
-4 -4 22 372.028 238.82 2
-4 -4 21 244.02 208.578 2
-4 -4 20 713.317 193.125 2
-4 -4 19 173.799 167.97 2
-4 -4 18 159.456 151.878 2
-4 -4 17 112.252 89.4571 2
-4 -4 16 75.2322 79.2868 2
-4 -4 15 163.616 75.5681 2
-4 -4 14 105.253 69.5022 2
-4 -4 13 3039.47 84.321 2
-4 -4 12 2895.54 75.4295 2
-4 -4 11 39.4553 33.6546 2
-4 -4 10 199.765 68.8932 2
-4 -4 9 91.3144 46.2537 2
4 4 -8 204.021 23.9264 2
-4 -4 7 710.149 20.8681 2
-4 -4 6 26.8458 19.9076 2
-4 -4 5 16.5686 23.9411 2
-4 -4 4 34.2672 53.411 2
-4 -4 3 2024.42 69.6593 2
-4 -4 2 927.413 59.3994 2
-4 -4 1 1908.94 39.258 2
-4 -4 0 466.746 35.9948 2
-4 -4 -1 1678.2 44.3942 2
-4 -4 -2 25.7736 34.9445 2
-4 -4 -3 75.9767 35.8003 2
-4 -4 -4 741.029 42.1079 2
-4 -4 -5 115.992 40.15 2
-4 -4 -6 11851.9 95.4574 2
-4 -4 -7 9400.52 160.256 2
-4 -4 -8 3357.64 122.81 2
-4 -4 -9 -7.54261 94.7652 2
-4 -4 -10 578.688 110.039 2
-4 -4 -11 395.307 113.171 2
-4 -4 -12 411.83 124.726 2
-4 -4 -13 225.105 129.586 2
-4 -4 -14 83.9367 140.291 2
-4 -4 -15 88.803 150.802 2
-4 -4 -16 16.7704 154.522 2
-4 -4 -17 177.96 179.482 2
-4 -4 -18 256.887 192.685 2
-4 -5 21 73.9766 219.322 2
-4 -5 20 247.106 192.883 2
-4 -5 19 223.745 173.904 2
-4 -5 18 380.466 159.857 2
-4 -5 17 119.475 92.926 2
-4 -5 16 340.674 87.549 2
-4 -5 15 756.735 84.5703 2
-4 -5 14 671.795 77.854 2
-4 -5 13 64.6302 67.5385 2
-4 -5 12 116.08 90.3545 2
-4 -5 11 59.821 59.5304 2
-4 -5 10 1057.8 92.1005 2
-4 -5 9 281.361 79.4231 2
-4 -5 8 109.072 51.7263 2
-4 -5 7 18.0874 47.7901 2
-4 -5 6 100.445 45.4588 2
-4 -5 5 0.77758 64.672 2
4 5 -4 2223.21 37.7836 2
-4 -5 3 173.07 65.044 2
-4 -5 2 2248.84 82.1792 2
-4 -5 1 3004.37 40.041 2
-4 -5 0 3868.3 58.8427 2
-4 -5 -1 22.9675 37.1073 2
-4 -5 -2 194.937 39.1057 2
-4 -5 -3 127.569 39.6758 2
-4 -5 -4 222.996 45.4771 2
-4 -5 -5 3895.87 68.5824 2
-4 -5 -6 91.4827 45.7146 2
-4 -5 -7 132.221 85.4244 2
-4 -5 -8 450.778 98.1077 2
-4 -5 -9 117.002 101.309 2
-4 -5 -10 236.984 110.643 2
-4 -5 -11 212.324 118.542 2
-4 -5 -12 266.026 130.616 2
-4 -5 -13 45.3418 133.363 2
-4 -5 -14 267.268 148.658 2
-4 -5 -15 214.967 159.844 2
-4 -5 -16 -3.79 169.653 2
-4 -5 -17 227.937 188.974 2
-4 -5 -18 127.722 209.593 2
-4 -9 15 90.3775 144.924 2
-4 -9 14 71.757 151.68 2
-4 -9 13 119.837 143.402 2
-4 -10 16 77.7368 208.597 2
-4 -10 15 145.455 189.345 2
-4 -10 14 116.654 171.723 2
-4 -10 13 206.39 160.922 2
-4 -10 12 238.813 103.915 2
-4 -10 11 170.437 98.977 2
-4 -10 10 513.657 90.6365 2
-4 -10 9 1366.02 129.727 2
-4 -10 8 1115.37 124.764 2
-4 -10 7 222.331 115.875 2
-4 -10 6 1423.06 133.023 2
-4 -10 5 1582.83 131.029 2
-4 -10 4 2210.91 141.595 2
-4 -10 3 121.654 111.7 2
-4 -10 2 78.4666 111.814 2
-4 -10 1 75.0702 113.298 2
-4 -10 0 481.679 117.418 2
-4 -10 -1 126.252 109.311 2
-4 -10 -7 88.4906 140.325 2
-4 -10 -8 173.304 150.725 2
-4 -10 -9 81.52 160.253 2
-4 -10 -10 31.4723 172.954 2
-4 -10 -11 161.243 190.452 2
-4 -11 9 1043.04 159.599 2
-4 -11 8 281.449 149.253 2
-4 -11 7 444.611 142.447 2
-4 -11 6 208.473 136.3 2
-4 -11 5 -7.53383 133.743 2
-4 -11 4 70.2078 130.531 2
-4 -11 3 130.227 131.186 2
-4 -11 2 215.247 129.36 2
-4 -11 1 199.127 129.083 2
5 -12 -8 53.0654 156.857 2
5 -12 -6 93.4024 144.059 2
5 -11 -11 336.337 157.156 2
5 -11 -10 103.874 148.744 2
5 -11 -9 71.1028 146.931 2
5 -11 -7 176.016 132.217 2
5 -11 -6 28.3239 122.708 2
-5 11 4 57.5234 127.297 2
-5 11 3 49.1587 119.344 2
-5 11 2 416.021 125.67 2
-5 11 1 91.542 123.89 2
-5 11 0 41.2076 119.962 2
-5 11 -1 33.3859 120.7 2
-5 11 -2 108.625 127.004 2
-5 11 -3 163.668 132.972 2
5 -7 -13 1004.86 124.781 2
5 -6 -20 385.105 182.151 2
5 -6 -19 336.396 168.708 2
5 -6 -18 48.9467 146.246 2
5 -6 -17 54.5379 136.988 2
5 -6 -16 105.19 126.22 2
5 -6 -15 110.818 125.704 2
5 -6 -14 96.5685 123.384 2
5 -6 -13 416.371 80.5651 2
5 -6 -12 178.835 72.0501 2
5 -6 -11 39.7667 65.4897 2
5 -6 -10 85.6051 63.2346 2
5 -6 -9 109.003 61.8665 2
5 -6 -8 931.734 63.1093 2
5 -6 -7 168.07 57.3875 2
5 -6 -6 64.9803 51.8901 2
-5 6 5 59.7445 56.2462 2
5 -6 -4 1954.18 65.7355 2
5 -6 -3 952.598 58.7347 2
5 -6 -2 508.125 53.121 2
-5 6 1 -28.0995 70.0381 2
-5 6 0 696.752 82.2361 2
-5 6 -1 -32.5599 73.2056 2
-5 6 -2 29263.2 244.956 2
-5 6 -3 -18.8536 75.8464 2
5 -6 4 2171.35 68.0291 2
-5 6 -5 222.792 85.2311 2
-5 6 -6 178.744 87.2362 2
-5 6 -7 1019.82 100.635 2
-5 6 -10 344.258 113.265 2
-5 6 -12 50.9 124.176 2
5 -6 18 117.021 240.44 2
5 -5 -21 161.423 203.483 2
5 -5 -20 531.818 175.193 2
5 -5 -18 66.4438 140.946 2
5 -5 -17 108.121 128.493 2
5 -5 -16 96.436 121.329 2
5 -5 -15 9.17744 119.556 2
5 -5 -14 198.158 115.492 2
5 -5 -13 266.016 106.971 2
5 -5 -12 39.3692 65.8835 2
5 -5 -11 -0.29516 60.8036 2
5 -5 -10 312.226 60.9742 2
5 -5 -9 1912.01 71.7671 2
5 -5 -8 546.058 56.2045 2
5 -5 -7 316.167 52.5968 2
5 -5 -6 715.462 56.9512 2
5 -5 -5 141.643 49.403 2
5 -5 -4 2495.29 67.7202 2
5 -5 -3 4104.98 74.7896 2
-5 5 2 1362.92 85.1141 2
-5 5 1 662.709 71.3967 2
-5 5 0 3103.36 102 2
-5 5 -1 11001 152.52 2
-5 5 -2 1648.13 83.7361 2
5 -5 3 152.509 60.9858 2
5 -5 4 1114.83 70.4267 2
5 -5 6 40.4253 72.3388 2
5 -5 7 354.041 81.4746 2
5 -5 9 92.0268 89.2682 2
5 -5 11 13.4409 103.9 2
5 -5 12 155.909 120.474 2
5 -5 13 231.081 134.141 2
5 -5 14 1021.53 103.086 2
-5 5 -15 497.024 109.041 2
-5 5 -16 394.863 121.304 2
-5 5 -17 384.74 138.707 2
-5 5 -18 226.931 158.48 2
-5 5 -19 231.776 253.268 2
5 -4 -6 235.636 66.1786 2
5 -4 -5 124.179 47.973 2
5 -1 -9 4079.18 108.749 2
5 -1 -7 1332.1 73.5869 2
5 -1 -6 2334.28 56.026 2
5 -1 -5 576.704 40.2239 2
5 -1 -4 6155.14 100.757 2
5 -1 -3 4262.38 83.9104 2
-5 1 2 1022.1 61.7884 2
5 -1 1 251.713 20.0296 2
5 -1 2 59.1771 30.3891 2
-5 1 -7 92.0055 26.5974 2
5 0 -20 75.7937 163.25 2
5 0 -19 25.7799 136.878 2
-5 0 18 98.1477 86.5258 2
-5 0 17 60.9933 75.1993 2
5 0 -16 948.871 79.3303 2
5 0 -15 58.8673 89.8424 2
5 0 -14 187.287 90.1578 2
5 0 -13 156.77 82.5264 2
5 0 -12 194.952 76.3079 2
5 0 -11 1256.68 82.6323 2
5 0 -10 3967.71 104.383 2
5 0 -9 15651 159.058 2
5 0 -8 1377.83 53.347 2
5 0 -7 647.027 44.0691 2
5 0 -6 169.33 37.4346 2
5 0 -5 18.538 52.5175 2
5 0 -4 177.792 14.2344 2
5 0 -3 46.9194 48.4447 2
5 0 -2 1475.53 57.8193 2
-5 0 1 500.607 51.6939 2
-5 0 0 1073.94 51.6814 2
5 0 1 1807.98 22.2311 2
-5 0 -2 374.219 45.2569 2
-5 0 -3 340.539 47.203 2
-5 0 -4 2225.64 63.0209 2
-5 0 -5 4921.17 49.4612 2
-5 0 -6 6516.35 53.2 2
-5 0 -7 4720.75 40.7709 2
-5 0 -8 183.25 48.7812 2
-5 0 -9 465.162 55.6293 2
-5 0 -10 203.543 57.1379 2
-5 0 -11 6434.08 99.2624 2
-5 0 -12 95.7517 66.7069 2
-5 0 -13 541.628 77.0267 2
-5 0 -14 349.107 84.2073 2
-5 0 -15 179.525 141.149 2
-5 0 -16 376.103 159.911 2
-5 0 -17 293.614 179.339 2
-5 0 -18 563.06 204.372 2
-5 0 -19 179.329 222.723 2
-5 -1 18 119.012 87.0245 2
5 1 -17 94.2707 78.1476 2
5 1 -16 340.077 73.8785 2
5 1 -15 34.6717 62.3548 2
5 1 -14 47.141 62.0668 2
5 1 -13 35.5109 62.1407 2
5 1 -12 1131.18 84.452 2
5 1 -11 1702.77 82.7988 2
5 1 -10 4284.33 101.43 2
5 1 -9 636.88 65.6024 2
5 1 -8 523.322 59.1831 2
-5 -1 7 81.3468 33.5087 2
5 1 -6 2762.11 38.6906 2
5 1 -5 2370.39 37.6013 2
5 1 -4 1391.84 26.7417 2
5 1 -3 11.492 45.2644 2
5 1 -2 2397.26 61.2508 2
5 1 -1 1662.87 54.1442 2
5 1 0 1317.31 17.0424 2
-5 -1 -1 4632.41 71.6581 2
-5 -1 -2 185.92 31.2063 2
-5 -1 -3 1229.33 36.4899 2
-5 -1 -4 1064.85 32.4632 2
-5 -1 -5 8495.99 63.2712 2
-5 -1 -6 15019.4 72.0604 2
-5 -1 -7 4331.86 40.3783 2
-5 -1 -9 98.1708 84.6663 2
-5 -1 -10 6.76802 86.9504 2
-5 -1 -11 43.699 96.6381 2
-5 -1 -12 724.935 113.316 2
-5 -1 -13 928.987 127.61 2
-5 -1 -14 -0.62647 126.494 2
-5 -1 -15 337.106 145.139 2
-5 -1 -16 590.824 164.217 2
-5 -1 -17 300.88 182.21 2
-5 -1 -18 -19.8496 200.429 2
-5 -1 -19 140.111 229.448 2
5 2 -7 617.776 54.3245 2
5 2 -6 8521.56 102.911 2
-5 -5 18 242.606 158.816 2
-5 -5 17 583.64 146.147 2
5 5 -6 427.256 31.437 2
5 5 -5 129.78 39.1825 2
-5 -5 -5 609.423 68.7348 2
-5 -5 -7 32.4372 63.8237 2
-5 -6 20 125.278 224.746 2
-5 -6 19 114.596 197.433 2
-5 -6 18 207.907 118.375 2
-5 -6 17 65.2838 108.121 2
-5 -6 16 140.06 100.817 2
-5 -6 15 101.28 92.7173 2
-5 -6 14 73.8682 116.841 2
-5 -6 13 39.5655 107.404 2
-5 -6 12 27.6289 100.828 2
-5 -6 11 126.469 95.9518 2
-5 -6 10 216.691 95.2268 2
-5 -6 9 523.503 96.8883 2
-5 -6 8 645.381 94.166 2
-5 -6 7 413.977 88.0872 2
-5 -6 6 107.821 80.8433 2
-5 -6 5 207.831 76.5942 2
-5 -6 4 2178.46 96.3276 2
-5 -6 3 3273.24 109.706 2
-5 -6 2 1456.29 94.1124 2
-5 -6 1 3052.7 105.642 2
-5 -6 0 797.648 78.9978 2
-5 -6 -1 49.6946 69.6475 2
-5 -6 -2 354.585 53.4005 2
-5 -6 -3 143.36 58.7182 2
-5 -6 -4 1920.73 64.6586 2
-5 -6 -5 2583 72.6379 2
-5 -6 -6 4030.39 81.3229 2
-5 -6 -7 618.314 100.62 2
-5 -6 -8 78.5763 100.902 2
-5 -6 -9 139.062 112.388 2
-5 -6 -10 104.674 120.96 2
-5 -6 -11 41.8769 132.912 2
-5 -6 -12 107.819 141.913 2
-5 -6 -13 -8.96108 150.461 2
-5 -6 -14 162.499 164.742 2
-5 -6 -15 183.27 182.696 2
-5 -7 18 150.47 216.395 2
-5 -7 17 480.743 172.072 2
-5 -7 16 65.464 145.136 2
-5 -7 15 526.316 137.1 2
-5 -7 9 508.244 106.38 2
-5 -7 7 318.762 93.7681 2
-5 -7 6 310.11 91.0954 2
-5 -7 5 183.112 87.1153 2
-5 -7 4 511.256 92.248 2
-5 -7 3 -38.5523 83.4433 2
-5 -7 2 340.766 85.3983 2
-5 -7 1 116.482 78.0915 2
-5 -7 0 646.066 88.9621 2
-5 -7 -1 194.211 104.036 2
-5 -7 -2 31.0698 56.5639 2
-5 -7 -3 1034.82 60.9275 2
-5 -7 -4 443.83 62.7888 2
-5 -7 -5 429.795 64.5982 2
-5 -7 -6 103.467 96.8598 2
-5 -7 -7 248.277 106.911 2
-5 -7 -8 98.1719 110.178 2
-5 -7 -9 905.579 132.233 2
-5 -7 -10 234.489 137.18 2
-5 -7 -11 223.173 139.624 2
-5 -7 -12 167.967 154.525 2
-5 -7 -13 203.314 166.127 2
-5 -7 -14 151.067 183.417 2
-5 -7 -15 97.8507 209.305 2
-5 -12 11 131.342 210.938 2
-5 -12 10 153.181 198.046 2
-5 -12 9 73.3628 187.572 2
-5 -12 8 608.338 190.668 2
-5 -12 7 557.3 186.812 2
-5 -12 6 826.417 184.046 2
-5 -12 5 304.349 169.168 2
-5 -12 4 115.829 161.522 2
-5 -12 3 166.861 165.422 2
-5 -12 2 207.313 163.163 2
6 -10 -16 133.968 188.719 2
6 -10 -15 118.829 175.789 2
6 -10 -14 584.259 178.028 2
6 -10 -13 698.754 127.345 2
6 -10 -12 253.239 110.15 2
6 -10 -10 158.189 96.4956 2
6 -10 -9 389.778 95.137 2
6 -10 -8 315.626 129.793 2
6 -10 -7 157.338 124.737 2
6 -10 -6 10.2485 118.804 2
-6 10 5 20.0737 125.276 2
-6 10 4 76.3553 115.917 2
6 -9 -12 112.435 132.588 2
6 -9 -11 41.5892 131.545 2
6 -9 -10 107.483 125.977 2
6 -9 -9 482.826 120.425 2
6 -9 -8 542.884 121.896 2
6 -9 -7 338.445 115.848 2
6 -9 -6 312.038 62.6077 2
-6 9 5 125.718 114.262 2
-6 9 4 270.475 108.657 2
-6 9 3 67.8186 71.7076 2
-6 9 2 126.864 112.149 2
-6 9 1 107.903 108.836 2
6 -5 -13 17.7224 108.507 2
6 -5 -8 166.807 80.9742 2
6 -5 -6 38.138 74.4373 2
6 -4 -21 99.6809 190.695 2
6 -4 -20 112.842 171.505 2
6 -4 -19 165.207 151.632 2
6 -4 -18 133.347 140.582 2
6 -4 -17 369.984 131.914 2
6 -4 -16 2015.82 158.265 2
6 -4 -15 1532.04 138.006 2
6 -4 -14 955.323 120.769 2
6 -4 -13 167.605 103.575 2
6 -4 -12 215.418 69.3376 2
6 -4 -11 273.365 67.3354 2
6 -4 -10 1527.21 72.4418 2
6 -4 -9 84.9141 57.4504 2
6 -4 -8 209.735 56.2118 2
6 -4 -7 65.4139 52.6242 2
6 -4 -6 793.034 57.1822 2
6 -4 -5 711.094 44.5607 2
6 -4 -4 2390.72 69.1868 2
-6 4 3 289.256 72.4454 2
-6 4 2 490.793 74.243 2
-6 4 1 261.253 73.1105 2
-6 4 0 757.703 74.393 2
-6 4 -1 10560.6 157.067 2
-6 4 -2 3492.66 107.819 2
6 -4 3 154.19 44.6899 2
-6 4 -4 132.376 47.8684 2
6 -4 5 789.898 54.5475 2
6 -4 6 329.312 73.8405 2
6 -4 7 1081.61 64.6183 2
6 -4 8 40.8666 63.0014 2
6 -4 9 825.166 72.3049 2
6 -4 10 284.889 104.921 2
6 -4 11 2458.64 133.539 2
6 -4 12 4329.77 161.346 2
6 -4 13 1271.08 149.783 2
6 -4 14 476.553 155.701 2
-6 4 -15 209.616 119.466 2
-6 4 -16 95.1075 132.579 2
-6 4 -17 87.4095 154.501 2
6 -4 18 169.139 266.16 2
6 -3 -22 330.987 230.626 2
6 -3 -19 186.381 150.145 2
6 -3 -18 14.0099 130.734 2
6 -3 -17 155.554 127.782 2
6 -3 -16 1120.17 136.886 2
6 -3 -15 2483.43 139.45 2
6 -3 -14 90.7811 104.023 2
6 -3 -13 45.054 95.5816 2
6 -3 -12 -11.6324 65.1769 2
6 -3 -11 36.4597 59.995 2
6 -3 -10 618.443 62.1743 2
6 -3 -9 668.239 58.0751 2
6 -3 -8 900.819 63.0115 2
6 -3 -7 189.748 51.0107 2
6 -3 -6 66.2835 50.3585 2
6 -3 -5 163.278 48.0179 2
-6 3 4 193.713 73.7547 2
-6 3 3 24.7697 66.7637 2
-6 3 2 459.806 67.0942 2
-6 3 1 88.7367 68.3657 2
-6 3 0 24303.4 201.328 2
-6 3 -1 523.311 68.8038 2
-6 3 -2 489.822 73.4021 2
6 -3 3 322.122 52.324 2
6 -3 4 108.697 53.9584 2
6 -3 5 2503.51 77.1512 2
6 -3 6 1038.35 74.8945 2
6 -3 7 993.597 80.9872 2
6 -3 8 181.767 85.8437 2
6 -3 9 62.1549 93.1533 2
6 -3 10 58.285 104.7 2
6 -3 11 122.78 118.055 2
6 -3 12 115.038 129.169 2
6 -3 13 174.167 144.48 2
6 -3 14 152.447 159.649 2
6 -3 15 272.625 181.205 2
-6 3 -16 200.733 133.682 2
6 -3 17 226.679 227.904 2
6 -3 18 188.142 258.286 2
-6 2 4 954.17 28.2471 2
6 -2 2 7659.97 69.4097 2
-6 -1 18 349.24 148.872 2
-6 -1 17 134.75 127.281 2
-6 -1 8 146.983 51.4408 2
6 1 -7 249.587 65.6877 2
-6 -1 6 221.538 34.4658 2
6 1 1 698.051 18.4331 2
-6 -1 -4 8181.9 106.156 2
-6 -1 -5 1792.36 61.3126 2
-6 -1 -6 208.148 48.9728 2
-6 -2 22 110.324 260.708 2
-6 -2 21 136.477 233.347 2
-6 -2 20 123.527 199.781 2
-6 -2 19 208.315 176.276 2
-6 -2 18 390.476 102.179 2
-6 -2 17 127.737 92.298 2
-6 -2 16 483.192 90.6312 2
-6 -2 15 75.76 60.8967 2
6 2 -14 74.9483 55.5835 2
-6 -2 13 68.6649 51.7427 2
-6 -2 12 916.582 53.5727 2
-6 -2 11 4570.47 67.9599 2
-6 -2 10 2785.93 54.9433 2
-6 -2 9 2450.28 50.7709 2
-6 -2 8 787.413 40.1893 2
-6 -2 7 817.783 37.8258 2
-6 -2 6 453.006 36.8218 2
-6 -2 5 -25.9908 72.0623 2
6 2 -4 57.1989 41.1804 2
6 2 -3 64.5596 42.3333 2
6 2 -2 1168.02 45.4893 2
6 2 -1 977.854 42.2051 2
6 2 0 1606.58 27.5723 2
6 2 1 239.175 35.284 2
6 2 2 10.7423 33.7141 2
6 2 3 43.5302 31.9141 2
-6 -2 -4 285.681 33.3894 2
-6 -2 -5 276.435 34.7114 2
-6 -2 -6 95.7266 33.0625 2
-6 -2 -7 48.0413 91.828 2
-6 -2 -8 170.758 99.1297 2
-6 -2 -9 362.325 105.678 2
-6 -2 -10 1046.52 120.377 2
-6 -2 -11 1776.51 139.889 2
-6 -2 -12 185.487 129.636 2
-6 -2 -13 147.721 140.958 2
-6 -2 -14 410.171 160.075 2
-6 -2 -16 496.101 195.195 2
-6 -2 -17 719.039 219.729 2
-6 -3 18 150.231 144.804 2
-6 -3 17 120.569 114.945 2
-6 -3 16 111.351 114.925 2
-6 -3 15 834.102 120.583 2
-6 -3 14 1386.54 120.167 2
-6 -3 13 746.701 114.417 2
-6 -3 12 705.023 68.2713 2
-6 -3 11 3420.09 104.324 2
-6 -3 10 1064.31 47.4547 2
-6 -3 9 1082.57 56.8887 2
-6 -3 8 561.414 39.0971 2
-6 -3 7 911.161 38.8989 2
-6 -3 6 455.378 48.0139 2
-6 -3 5 165.129 67.4191 2
-6 -3 4 240.657 69.7758 2
-6 -3 3 382.709 73.1939 2
-6 -3 2 705.85 76.2083 2
-6 -3 1 697.082 75.0121 2
-6 -3 0 488.677 67.4016 2
-6 -3 -1 293.058 61.5198 2
-6 -3 -2 41.6253 53.6742 2
-6 -3 -3 653.172 66.0865 2
-6 -3 -4 -3.32844 56.5932 2
-6 -3 -5 36.6057 56.2981 2
-6 -3 -6 176.79 54.5121 2
-6 -3 -12 760.6 140.997 2
-6 -3 -13 133.679 143.694 2
-6 -3 -14 1104.87 172.019 2
-6 -3 -15 118.053 177.94 2
-6 -3 -16 389.828 204.967 2
-6 -3 -17 330.829 227.023 2
-6 -7 15 279.757 150.503 2
-6 -7 -3 361.986 96.6606 2
-6 -7 -4 72.834 93.4229 2
-6 -7 -5 129.972 97.1414 2
-6 -7 -6 1410.72 111.44 2
-6 -8 18 -61.092 330.145 2
-6 -8 17 197.47 228.738 2
-6 -8 16 175.753 184.99 2
-6 -8 15 56.3658 164.85 2
-6 -8 14 136.079 146.816 2
-6 -8 13 187.856 141.662 2
-6 -8 12 57.0047 133.48 2
-6 -8 11 133.867 128.552 2
-6 -8 10 142.101 123.051 2
-6 -8 9 185.938 122.437 2
-6 -8 8 141.512 115.822 2
-6 -8 7 280.703 113.203 2
-6 -8 6 21.3384 105.401 2
-6 -8 5 267.127 103.918 2
-6 -8 4 285.624 101.905 2
-6 -8 3 191.191 105.031 2
-6 -8 2 537.044 113.152 2
-6 -8 1 686.411 121.032 2
-6 -8 0 410.537 148.088 2
-6 -8 -1 567.855 113.265 2
-6 -8 -2 542.291 100.757 2
-6 -8 -3 1578.1 122.245 2
-6 -8 -4 2327.32 133.657 2
-6 -8 -5 542.696 85.6757 2
-6 -8 -6 92.1986 131.467 2
-6 -8 -7 675.07 151.038 2
-6 -8 -8 428.306 156.866 2
-6 -8 -9 63.024 163.657 2
-6 -8 -10 84.6008 177.687 2
-6 -8 -11 33.0894 192.925 2
-6 -8 -12 138.006 213.13 2
-6 -9 7 58.4759 131.244 2
-6 -9 6 942.419 133.243 2
-6 -9 5 389.365 131.712 2
-6 -9 3 137.109 168.075 2
-6 -9 2 354.982 132.574 2
-6 -9 -1 41.3648 119.484 2
-6 -9 -2 1031.11 133.153 2
-6 -9 -3 614.043 132.342 2
-6 -9 -4 147.707 128.066 2
-6 -9 -8 114.162 182.166 2
7 -13 -9 138.906 237.512 2
7 -13 -7 162.666 200.74 2
7 -13 -6 140.323 203.891 2
7 -8 -18 97.463 194.125 2
7 -8 -17 99.1241 184.008 2
7 -8 -16 571.156 183.153 2
7 -8 -15 234.893 170.588 2
7 -8 -14 1415.4 122.102 2
7 -8 -13 215.498 99.3589 2
7 -8 -12 182.213 92.1146 2
7 -8 -11 668.094 96.9094 2
7 -8 -10 1142.19 98.479 2
7 -8 -9 1230.07 91.4748 2
7 -8 -8 2203.63 98.4816 2
7 -8 -7 57.5913 76.7567 2
7 -8 -6 20.5346 107.859 2
-7 8 5 315.289 121.534 2
-7 8 4 106.661 73.6705 2
7 -8 -3 53.4979 71.0462 2
-7 8 2 453.886 110.4 2
-7 8 1 209.105 109.997 2
7 -7 -13 120.194 133.02 2
7 -7 -12 63.2802 120.693 2
7 -7 -11 33.409 117.343 2
7 -7 -10 177.109 82.2464 2
7 -7 -9 -16.2169 107.14 2
7 -7 -8 222.076 111.118 2
7 -7 -7 88.3764 102.203 2
7 -7 -6 406.995 73.9231 2
-7 7 4 193.226 102.051 2
7 -3 -12 598.555 112.26 2
7 -3 -11 1051.06 106.092 2
7 -3 -6 232.673 78.9521 2
7 -3 -5 82.6422 73.9375 2
7 -3 4 59.812 57.8302 2
7 -2 -21 35.4696 199.331 2
7 -2 -20 108.813 175.896 2
7 -2 -19 76.9617 153.046 2
7 -2 -18 73.7353 140.77 2
7 -2 -17 86.0648 135.978 2
7 -2 -16 411.772 133.928 2
7 -2 -15 4.81061 117.996 2
7 -2 -14 44.6305 109.892 2
7 -2 -13 0.48547 102.512 2
7 -2 -12 158.425 96.7488 2
7 -2 -11 125.046 65.894 2
7 -2 -10 206.237 61.561 2
7 -2 -9 346.509 61.6055 2
7 -2 -8 291.134 57.0272 2
7 -2 -7 4111.78 84.9192 2
7 -2 -6 793.358 56.7089 2
7 -2 -5 11077.5 159.134 2
7 -2 -4 129.36 71.738 2
-7 2 3 1720.4 86.9146 2
-7 2 2 63.0439 74.7297 2
-7 2 1 1202.39 81.3685 2
-7 2 0 1703.42 87.8622 2
-7 2 -1 3365.14 104.127 2
-7 2 -2 327.913 72.536 2
7 -2 3 1837.12 42.9174 2
7 -2 4 55.0382 44.1342 2
7 -2 5 222.836 49.2337 2
-7 2 -6 65.1513 53.2727 2
-7 2 -7 243.182 59.0371 2
7 -2 8 33.9744 89.9177 2
7 -2 9 1040.09 113.77 2
7 -2 10 81.4153 115.146 2
7 -2 11 295.903 131.195 2
7 -2 12 128.667 144.531 2
7 -2 13 115.691 164.788 2
-7 1 19 263.884 171.491 2
-7 1 18 120.544 167.984 2
7 -1 -13 20.2858 99.9543 2
7 -1 -12 402.663 96.6542 2
7 -1 -11 1489.79 104.297 2
7 -1 -10 428.12 84.2822 2
7 -1 -9 16.7447 82.5361 2
7 -1 -8 710.355 59.494 2
7 -1 -7 30.5061 26.912 2
7 -1 -6 617.259 57.8014 2
7 -1 -5 1152.51 79.644 2
7 -1 -4 206.622 68.6027 2
7 -1 -3 2685.3 92.0882 2
7 -1 -2 2024.72 84.0866 2
7 -1 3 747.215 34.3625 2
7 -1 4 1732.32 58.3256 2
7 -1 5 301.946 64.0223 2
7 -1 6 61.184 47.1539 2
7 -1 7 72.6929 81.4775 2
7 -1 8 158.852 89.698 2
7 -1 13 253.932 161.999 2
-7 0 7 39.9117 26.4985 2
-7 -3 19 111.819 183.376 2
-7 -3 18 120.94 145.115 2
-7 -3 17 128.437 134.415 2
-7 -3 10 38.4184 98.4471 2
-7 -3 -3 1722 87.0087 2
-7 -3 -4 1986.49 85.933 2
-7 -3 -5 654.008 73.4308 2
-7 -3 -6 229.486 68.4803 2
-7 -4 19 639.947 195.642 2
-7 -4 18 244.999 173.56 2
-7 -4 17 30.1657 159.123 2
-7 -4 16 57.7723 97.7908 2
-7 -4 15 95.2433 87.4913 2
-7 -4 14 244.367 84.2976 2
-7 -4 13 1060.66 85.3585 2
-7 -4 12 2052.77 84.5002 2
-7 -4 11 1201.53 74.1258 2
-7 -4 10 274.257 65.5359 2
-7 -4 9 322.004 100.212 2
-7 -4 8 46.4437 57.2887 2
7 4 -7 55.5255 53.9765 2
-7 -4 6 -2.46867 54.2197 2
-7 -4 5 1047.17 96.6623 2
-7 -4 4 283.834 84.5783 2
-7 -4 3 310.73 81.9422 2
-7 -4 2 30.2489 73.951 2
-7 -4 1 324.651 76.0611 2
-7 -4 0 1080.15 81.6063 2
-7 -4 -1 689.59 85.5788 2
-7 -4 -2 360.367 79.4382 2
-7 -4 -3 -3.70651 74.0565 2
-7 -4 -4 48.9468 74.9445 2
-7 -4 -5 114.983 70.8577 2
-7 -4 -9 660.359 139.111 2
-7 -4 -10 563.681 148.669 2
-7 -4 -11 121.858 155.544 2
-7 -4 -12 329.413 171.898 2
-7 -4 -13 183.159 180.403 2
-7 -4 -14 120.861 194.45 2
-7 -5 6 1666.02 101.748 2
-7 -5 5 3432.72 116.231 2
-7 -5 4 2844.73 113.78 2
-7 -5 3 673.254 96.045 2
-7 -5 2 329.925 93.8394 2
-7 -5 1 138.291 90.8829 2
-7 -5 0 227 87.8493 2
-7 -5 -1 53.9436 81.2706 2
-7 -5 -2 548.058 90.0131 2
-7 -5 -3 186.606 82.8786 2
-7 -5 -4 47.2151 82.1751 2
-7 -5 -5 40.8468 118.417 2
-7 -9 15 185.551 242.028 2
-7 -9 1 103.917 139.2 2
-7 -9 0 127.703 124.925 2
-7 -9 -1 198.975 131.551 2
-7 -9 -3 197.516 147.675 2
-7 -9 -4 92.9414 150.246 2
-7 -10 13 251.095 224.978 2
-7 -10 12 153.07 240.546 2
-7 -10 11 453.348 233.408 2
-7 -10 10 374.459 250.612 2
-7 -10 9 190.705 240 2
-7 -10 8 190.76 208.974 2
-7 -10 7 244.637 198.544 2
-7 -10 6 165.507 169.681 2
-7 -10 5 193.383 160.564 2
-7 -10 4 317.363 162.493 2
-7 -10 3 92.4494 141.509 2
-7 -10 2 245.439 148.926 2
-7 -10 1 -7.69663 155.228 2
-7 -10 0 10.2144 156.694 2
-7 -10 -1 218.097 160.858 2
-7 -10 -2 605.786 169.661 2
-7 -11 1 347.996 185.171 2
-7 -11 0 164.752 183.195 2
-7 -11 -1 374.272 188.604 2
8 -12 -10 175.828 206.022 2
8 -12 -6 162.426 185.22 2
8 -11 -11 345.493 197.657 2
8 -11 -10 188.993 188.326 2
8 -11 -7 177.048 173.148 2
8 -11 -5 1173.1 167.608 2
8 -6 -19 188.89 202.128 2
8 -6 -18 141.558 190.947 2
8 -6 -17 101.755 185.99 2
8 -6 -16 925.729 176.522 2
8 -6 -15 406.228 152.977 2
8 -6 -14 34.1764 100.458 2
8 -6 -13 111.029 94.1107 2
8 -6 -12 362.411 92.6642 2
8 -6 -11 168.259 85.1571 2
8 -6 -10 42.0223 81.928 2
8 -6 -9 312.693 80.6024 2
8 -6 -8 634.38 81.5504 2
8 -6 -7 158.142 74.2321 2
8 -6 -6 271.082 73.2741 2
8 -6 -5 2104.89 88.6677 2
8 -6 -4 198.831 74.8446 2
-8 6 3 214.593 72.3372 2
-8 6 2 654.992 107.047 2
-8 6 1 255.561 105.546 2
-8 6 0 2130.24 130.897 2
-8 6 -1 730.38 110.855 2
8 -5 -13 187.256 128.882 2
8 -5 -12 1294.62 133.282 2
8 -5 -11 756.997 124.336 2
8 -5 -10 244.436 107.823 2
8 -5 -8 28.8083 97.6143 2
8 -5 -7 88.7338 95.5979 2
8 -5 -5 370.375 69.1968 2
-8 1 19 214.327 194.608 2
-8 1 18 77.378 184.407 2
-8 1 -5 115.215 78.781 2
-8 0 19 215.014 192.725 2
-8 0 18 63.1815 160.246 2
8 0 -17 23.4298 108.211 2
8 0 -16 307.968 105.637 2
8 0 -15 136.503 123.409 2
8 0 -14 76.828 114.938 2
8 0 -13 236.226 110.606 2
8 0 -12 8.14304 97.462 2
8 0 -11 136.054 96.1935 2
8 0 -10 35.2017 94.5935 2
8 0 -9 416.183 65.6729 2
8 0 -8 201.397 64.486 2
8 0 -7 4877.95 90.162 2
8 0 -6 204.026 78.0934 2
8 0 -5 21.6708 75.7325 2
8 0 -4 87.8455 77.6514 2
8 0 -3 -23.2023 71.856 2
8 0 -2 35.7646 69.4365 2
8 0 -1 2287.49 93.8178 2
8 0 0 797.889 78.6605 2
-8 0 -1 1275.1 81.3031 2
-8 0 -2 448.154 80.8909 2
-8 0 -3 245.273 55.8593 2
-8 0 -4 928.016 79.4861 2
-8 0 -5 1059.71 80.5227 2
8 1 -12 25.3357 101.466 2
8 1 -11 347.227 98.1879 2
8 1 -10 163.382 90.6701 2
8 1 -9 75.9539 87.7007 2
8 1 -8 54.0671 83.6747 2
8 1 -7 1.31654 83.6441 2
-8 -1 0 40.5783 85.0022 2
-8 -1 -1 398.173 82.4281 2
-8 -1 -2 103.736 72.3281 2
-8 -1 -3 51.1176 74.9897 2
-8 -1 -4 63.2263 73.84 2
-8 -1 -5 43.0028 68.0081 2
-8 -5 19 53.1228 230.845 2
-8 -5 18 81.0935 196.818 2
-8 -5 17 249.167 190.064 2
-8 -5 16 152.145 174.465 2
-8 -5 15 491.937 169.207 2
-8 -5 14 88.3235 147.917 2
-8 -5 10 178.504 109.469 2
-8 -5 8 40.125 99.6007 2
-8 -5 7 285.005 99.64 2
-8 -5 6 212.217 95.7879 2
-8 -5 5 2585.27 122.243 2
-8 -5 4 1407.58 111.06 2
-8 -5 2 145.934 104.047 2
-8 -5 1 200.192 104.881 2
-8 -5 0 215.492 98.3746 2
-8 -5 -1 281.92 97.1796 2
-8 -5 -2 716.466 103.841 2
-8 -5 -3 928.673 105.462 2
-8 -5 -4 465.623 101.727 2
-8 -6 18 157.918 228.956 2
-8 -6 17 207.386 204.194 2
-8 -6 16 198.872 178.146 2
-8 -6 14 588.858 163.639 2
-8 -6 13 452.879 153.551 2
-8 -6 12 320.382 149.621 2
-8 -6 11 637.144 143.345 2
-8 -6 10 732.943 138.09 2
-8 -6 9 62.1228 123.605 2
-8 -6 8 101.095 121.853 2
-8 -6 7 -8.37088 121.526 2
-8 -6 6 332.401 123.074 2
-8 -6 5 242.856 115.364 2
-8 -6 4 -6.25434 111.577 2
-8 -6 3 -21.6456 103.339 2
-8 -6 2 52.8618 105.251 2
-8 -6 1 161.848 108.952 2
-8 -6 0 66.3372 106.307 2
-8 -6 -1 47.9602 102.088 2
-8 -6 -2 51.4646 103.454 2
-8 -6 -3 161.998 112.982 2
-8 -6 -4 500.138 133.406 2
-8 -7 1 270.484 117.808 2
-8 -7 0 823.429 119.909 2
-8 -7 -1 103.323 121.493 2
-8 -7 -2 219.181 163.984 2
-8 -11 4 378.222 209.36 2
-8 -11 3 174.567 207.733 2
-8 -11 2 118.832 208.925 2
-8 -11 1 232.886 216.907 2
9 -10 -13 125.067 211.392 2
9 -10 -12 753.212 200.208 2
9 -10 -11 96.5086 133.984 2
9 -10 -10 787.082 136.307 2
9 -10 -9 113.647 121.123 2
9 -10 -8 536.594 120.037 2
9 -10 -7 254.829 118.305 2
9 -10 -6 952.453 118.375 2
9 -10 -5 186.575 155.907 2
-9 10 4 294.008 168.187 2
-9 10 3 183.121 170.705 2
9 -9 -7 1113.61 161.011 2
9 -5 -16 44.0012 168.993 2
9 -5 -13 193.516 140.733 2
9 -5 -11 43.4529 122.642 2
9 -4 -19 348.602 211.937 2
9 -4 -18 417.081 211.05 2
9 -4 -17 471.255 187.439 2
9 -4 -16 301.389 159.62 2
9 -4 -15 64.321 152.204 2
9 -4 -14 90.3811 146.317 2
9 -4 -13 79.07 94.7418 2
9 -4 -12 7.78907 90.0624 2
9 -4 -11 134.8 85.3289 2
9 -4 -10 528.623 86.8818 2
9 -4 -9 98.2332 80.8584 2
9 -4 -8 318.597 81.1433 2
9 -4 -7 167.27 74.3238 2
9 -4 -6 32.2016 72.6446 2
9 -4 -5 53.5993 72.4227 2
9 -4 -4 598.623 104.29 2
-9 4 3 54.3926 101.143 2
-9 4 2 1087.32 120.97 2
-9 4 1 847.104 113.805 2
-9 4 0 68.149 103.915 2
-9 4 -1 98.7643 102.1 2
9 -3 -9 567.77 113.677 2
-9 -1 19 101.945 219.094 2
-9 -1 18 156.856 203.329 2
-9 -1 17 172.964 180.165 2
-9 -1 16 109.127 153.844 2
-9 -1 15 311.311 148.26 2
-9 -1 14 456.829 147.132 2
-9 -1 13 689.711 151.544 2
-9 -1 12 54.4411 136.964 2
-9 -1 11 1336.07 142.698 2
-9 -1 2 281.187 108.143 2
-9 -1 1 6.10852 98.1624 2
-9 -1 0 443.572 101.476 2
-9 -1 -1 65.6235 81.8583 2
-9 -1 -2 64.3435 91.3584 2
-9 -1 -3 89.633 92.8156 2
-9 -1 -4 148.042 88.5109 2
-9 -2 19 175.44 206.803 2
-9 -2 18 815.015 200.404 2
-9 -2 17 768.467 182.024 2
-9 -2 16 2634.33 204.503 2
-9 -2 15 611.871 165.247 2
-9 -2 14 335.047 151.182 2
-9 -2 13 252.989 130.533 2
-9 -2 12 139.338 120.324 2
-9 -2 11 240.675 83.7244 2
-9 -2 10 160.278 80.6848 2
-9 -2 9 1673.97 88.6981 2
9 2 -8 810.263 80.9841 2
9 2 -7 681.191 78.2234 2
-9 -2 6 134.754 111.287 2
-9 -2 5 94.9768 104.198 2
-9 -2 4 63.932 95.326 2
-9 -2 3 504.064 98.5337 2
9 2 -2 184.522 61.2658 2
-9 -2 1 123.777 96.7753 2
-9 -2 0 56.5505 100.586 2
-9 -2 -1 120.712 98.3785 2
-9 -2 -2 403.069 95.9466 2
-9 -2 -3 60.2809 84.5662 2
-9 -2 -4 166.541 96.4604 2
-9 -3 2 369.566 101.565 2
-9 -3 1 427.343 103.538 2
-9 -3 0 166.218 94.6151 2
-9 -3 -1 105.362 89.9032 2
-9 -3 -2 94.9741 99.3242 2
-9 -3 -3 98.1983 101.751 2
-9 -7 15 141.254 214.597 2
-9 -7 14 83.3427 203.296 2
-9 -7 13 154.659 183.589 2
-9 -7 12 70.2129 170.986 2
-9 -7 11 122.796 165.732 2
-9 -7 10 201.441 160.696 2
-9 -7 9 194.967 154.32 2
-9 -7 8 94.7555 146.394 2
-9 -7 7 -24.5297 143.316 2
-9 -7 6 124.282 144.155 2
-9 -7 5 594.302 150.112 2
-9 -7 4 129.809 140.912 2
-9 -7 3 165.471 143.228 2
-9 -7 2 163.746 136.928 2
-9 -7 1 258.24 136.802 2
-9 -7 0 30.9075 134.725 2
-9 -7 -1 341.77 153.745 2
-9 -7 -2 1360.37 224.541 2
-9 -8 13 257.144 200.66 2
-9 -8 12 231.922 188.733 2
-9 -8 11 59.6931 183.297 2
-9 -8 10 144.65 179.24 2
-9 -8 9 77.9479 172.401 2
-9 -8 8 340.821 168.338 2
-9 -8 7 94.8962 158.815 2
-9 -8 6 311.314 159.911 2
-9 -8 5 199.45 156.475 2
-9 -8 4 79.2182 149.8 2
-9 -8 3 154.793 146.295 2
-9 -8 2 141.808 161.549 2
-9 -8 1 166.818 170.28 2
-9 -8 0 266.686 229.429 2
-9 -8 -1 85.7608 170.834 2
-9 -9 -1 323.359 201.609 2
10 -8 -14 236.267 210.31 2
10 -8 -13 279.416 138.034 2
10 -8 -12 456.601 129.806 2
10 -8 -11 183.736 122.055 2
10 -8 -10 413.875 173.238 2
10 -8 -9 -57.3174 163.963 2
10 -8 -8 102.574 105.32 2
10 -8 -7 67.1954 108.652 2
10 -8 -6 332.913 109.051 2
10 -8 -5 269.677 103.731 2
10 -8 -4 98.0626 102.339 2
-10 8 3 598.826 170.91 2
10 -3 -16 73.996 181.163 2
-10 2 18 427.279 238.735 2
10 -2 -17 57.5791 201.653 2
10 -2 -15 306.788 167.519 2
10 -2 -14 153.08 161.631 2
10 -2 -13 40.0909 142.498 2
10 -2 -12 125.399 138.167 2
10 -2 -11 94.3557 91.0528 2
10 -2 -10 2936.67 114.128 2
10 -2 -9 439.394 86.9461 2
10 -2 -8 203.465 82.0611 2
10 -2 -7 108.345 81.0233 2
10 -2 -6 25.8718 80.0451 2
10 -2 -5 681.432 115.655 2
10 -2 -4 260.142 103.334 2
10 -2 -3 126.245 103.835 2
10 -2 -2 58.6515 105.19 2
10 -2 -1 -37.2056 101.77 2
10 -2 0 74.5484 104.219 2
-10 1 -3 1610.66 128.271 2
-10 -3 17 95.2892 198.453 2
-10 -3 16 230.304 189.638 2
-10 -3 15 365.99 181.919 2
-10 -3 14 350.938 171.598 2
-10 -3 13 122.088 162.159 2
-10 -3 12 90.7142 159.221 2
-10 -3 11 270.074 153.482 2
-10 -3 10 131.249 148.227 2
-10 -3 9 47.9123 143.901 2
-10 -3 8 608.935 144.859 2
-10 -3 7 432.481 138.934 2
-10 -3 6 252.822 133.37 2
-10 -3 5 254.404 130.884 2
-10 -3 4 247.933 125.212 2
-10 -3 3 302.199 122.392 2
-10 -3 2 750.938 125.688 2
-10 -3 1 585.592 118.08 2
-10 -3 0 797.058 115.359 2
-10 -3 -1 287.264 113.848 2
-10 -3 -2 146.654 124.604 2
-10 -4 16 213.587 190.325 2
-10 -4 15 123.384 165.244 2
-10 -4 14 260.201 164.178 2
-10 -4 13 109.382 155.347 2
-10 -4 12 116.235 151.789 2
-10 -4 11 172.085 148.26 2
-10 -4 10 320.113 146.024 2
-10 -4 9 415.818 142.125 2
-10 -4 8 201.156 133.639 2
-10 -4 7 1748.58 146.768 2
-10 -4 6 2912.51 154.244 2
-10 -4 5 1042.32 132.228 2
-10 -4 4 148.696 116.122 2
-10 -4 3 27.1061 114.09 2
-10 -4 2 141.374 117.176 2
-10 -4 1 143.26 129.026 2
-10 -4 0 227.942 132.556 2
-10 -4 -1 94.516 129.501 2
-10 -4 -2 103.525 133.287 2
11 -6 -14 248.133 204.471 2
11 -6 -13 291.354 199.125 2
11 -6 -12 234.943 181.33 2
11 -6 -11 254.39 171.222 2
11 -6 -10 213.733 116.85 2
11 -6 -9 175.208 115.45 2
11 -6 -7 69.2563 148.453 2
11 -6 -6 117.233 147.841 2
-11 1 17 248.668 241.562 2
-11 1 16 234.868 225.837 2
-11 1 15 144.045 216.168 2
-11 1 -1 2666.84 163.239 2
-11 1 -2 120.8 139.328 2
-11 0 16 81.5019 195.525 2
-11 0 15 190.726 196.869 2
-11 0 14 56.2911 193.875 2
-11 0 13 409.644 184.255 2
-11 0 12 55.6354 121.707 2
-11 0 11 397.251 115.615 2
11 0 -10 17.074 161.283 2
11 0 -8 157.333 145.287 2
11 0 -7 1214.47 149.041 2
11 0 -6 243.546 137.217 2
-11 0 3 408.121 145.526 2
-11 0 2 54.3607 136.737 2
-11 0 1 260.833 137.376 2
-11 0 0 1126.72 139.054 2
-11 0 -1 99.813 127.6 2
-11 0 -2 303.394 140.651 2
-11 -5 12 156.925 209.536 2
-11 -5 11 137.229 194.494 2
-11 -5 10 124.614 185.275 2
-11 -5 9 239.328 184.962 2
-11 -5 8 192.76 179.778 2
-11 -5 7 50.1893 175.662 2
-11 -5 6 227.322 179.059 2
-11 -5 5 240.142 166.109 2
-11 -5 4 179.704 170.688 2
-11 -5 3 153.574 163.625 2
-11 -5 2 70.6272 161.151 2
-11 -5 1 57.2658 168.202 2
-11 -5 0 66.3101 175.288 2
-11 -6 10 150.356 197.906 2
-11 -6 9 158.133 192.668 2
-11 -6 8 133.609 192.181 2
-11 -6 7 16.7181 184.294 2
-11 -6 6 48.5354 173.105 2
-11 -6 5 121.42 176.922 2
-11 -6 4 208.637 181.251 2
-11 -6 3 114.37 179.537 2
-11 -6 2 155.97 187.872 2
-11 -6 1 84.1792 190.249 2
12 -4 -14 242.888 231.406 2
12 -4 -13 137.782 206.431 2
12 -4 -11 233.874 186.926 2
-12 -1 13 454.832 208.24 2
-12 -1 12 252.573 188.111 2
-12 -1 11 1170.86 189.983 2
-12 -1 10 464.133 171.594 2
-12 -1 9 81.4197 158.612 2
-12 -1 8 134.753 154.377 2
-12 -1 7 214.384 160.311 2
-12 -1 6 205.892 156.209 2
-12 -1 5 385.849 159.757 2
-12 -1 4 120.902 162.169 2
-12 -1 3 111.071 162.594 2
-12 -1 2 93.0135 166.391 2
-12 -1 1 180.213 174.866 2
-12 -1 0 129.844 165.6 2
-12 -2 13 140.81 225.462 2
-12 -2 12 146.581 213.487 2
-12 -2 11 241.722 206.162 2
-12 -2 10 167.973 192.674 2
-12 -2 9 164.496 191.909 2
-12 -2 8 140.138 186.535 2
-12 -2 7 190.573 179.922 2
-12 -2 6 228.602 179.48 2
-12 -2 5 146.158 172.467 2
-12 -2 4 247.54 163.984 2
-12 -2 3 416.223 172.089 2
-12 -2 2 320.594 168.856 2
-12 -2 1 139.733 163.09 2
-13 2 2 1215.29 227.85 2
-13 2 1 303.514 222.025 2
loop_
_twin_individual_id
_twin_individual_mass_fraction_refined
1 0.6471(12)
2 0.3529(12)
