#------------------------------------------------------------------------------
#$Date: 2019-11-24 17:09:38 +0200 (Sun, 24 Nov 2019) $
#$Revision: 238741 $
#$URL: file:///home/coder/svn-repositories/cod/cif/1/55/54/1555470.cif $
#------------------------------------------------------------------------------
#
# This file is available in the Crystallography Open Database (COD),
# http://www.crystallography.net/
#
# All data on this site have been placed in the public domain by the
# contributors.
#
data_1555470
loop_
_publ_author_name
'Zhao, Jidong'
'Liu, Jun'
'Xie, Xin'
'Li, Shi'
'Liu, Yuanhong'
_publ_section_title
;
 Gold-Catalyzed Synthesis of Tropone and Its Analogues via Oxidative Ring
 Expansion of Alkynyl Quinols.
;
_journal_issue                   23
_journal_name_full               'Organic letters'
_journal_page_first              5926
_journal_page_last               5929
_journal_paper_doi               10.1021/acs.orglett.5b03160
_journal_volume                  17
_journal_year                    2015
_chemical_formula_moiety         'C19 H14 O3'
_chemical_formula_sum            'C19 H14 O3'
_chemical_formula_weight         290.30
_space_group_crystal_system      triclinic
_space_group_IT_number           2
_space_group_name_Hall           '-P 1'
_space_group_name_H-M_alt        'P -1'
_atom_sites_solution_hydrogens   geom
_atom_sites_solution_primary     direct
_audit_creation_date             2015-09-15
_audit_creation_method
;
Olex2 1.2
(compiled 2015.01.26 svn.r3150 for OlexSys, GUI svn.r4998)
;
_cell_angle_alpha                69.311(11)
_cell_angle_beta                 72.734(12)
_cell_angle_gamma                83.093(13)
_cell_formula_units_Z            2
_cell_length_a                   6.866(5)
_cell_length_b                   10.240(7)
_cell_length_c                   11.188(7)
_cell_measurement_reflns_used    874
_cell_measurement_temperature    130(2)
_cell_measurement_theta_max      24.878
_cell_measurement_theta_min      3.11
_cell_volume                     702.6(8)
_computing_cell_refinement       'SAINT v7.68A (Bruker, 2009)'
_computing_data_reduction        'SAINT v7.68A (Bruker, 2009)'
_computing_molecular_graphics    'Olex2 (Dolomanov et al., 2009)'
_computing_publication_material  'Olex2 (Dolomanov et al., 2009)'
_computing_structure_refinement  'XL (Sheldrick, 2008)'
_computing_structure_solution    'SIR2004 (Burla et al., 2007)'
_diffrn_ambient_temperature      130
_diffrn_measured_fraction_theta_full 0.998
_diffrn_measured_fraction_theta_max 0.998
_diffrn_measurement_device_type  'Bruker APEX-II CCD'
_diffrn_measurement_method       '\f and \w scans'
_diffrn_radiation_monochromator  graphite
_diffrn_radiation_type           MoK\a
_diffrn_radiation_wavelength     0.71073
_diffrn_reflns_av_R_equivalents  0.0585
_diffrn_reflns_av_unetI/netI     0.0992
_diffrn_reflns_Laue_measured_fraction_full 0.998
_diffrn_reflns_Laue_measured_fraction_max 0.998
_diffrn_reflns_limit_h_max       7
_diffrn_reflns_limit_h_min       -8
_diffrn_reflns_limit_k_max       12
_diffrn_reflns_limit_k_min       -12
_diffrn_reflns_limit_l_max       11
_diffrn_reflns_limit_l_min       -13
_diffrn_reflns_number            5036
_diffrn_reflns_point_group_measured_fraction_full 0.998
_diffrn_reflns_point_group_measured_fraction_max 0.998
_diffrn_reflns_theta_full        25.242
_diffrn_reflns_theta_max         25.998
_diffrn_reflns_theta_min         2.023
_diffrn_standards_number         0
_exptl_absorpt_coefficient_mu    0.092
_exptl_absorpt_correction_T_max  0.7461
_exptl_absorpt_correction_T_min  0.4854
_exptl_absorpt_correction_type   multi-scan
_exptl_absorpt_process_details
;
SADABS-2008/1 (Bruker,2008) was used for absorption correction.
wR2(int) was 0.1018 before and 0.0604 after correction.
The Ratio of minimum to maximum transmission is 0.6506.
The \l/2 correction factor is 0.0015.
;
_exptl_crystal_colour            yellow
_exptl_crystal_density_diffrn    1.372
_exptl_crystal_description       BLock
_exptl_crystal_F_000             304
_exptl_crystal_size_max          0.25
_exptl_crystal_size_mid          0.22
_exptl_crystal_size_min          0.2
_refine_diff_density_max         0.422
_refine_diff_density_min         -0.383
_refine_diff_density_rms         0.094
_refine_ls_extinction_method     none
_refine_ls_goodness_of_fit_ref   0.983
_refine_ls_hydrogen_treatment    constr
_refine_ls_matrix_type           full
_refine_ls_number_parameters     200
_refine_ls_number_reflns         2763
_refine_ls_number_restraints     0
_refine_ls_restrained_S_all      0.983
_refine_ls_R_factor_all          0.1169
_refine_ls_R_factor_gt           0.0767
_refine_ls_shift/su_max          0.002
_refine_ls_shift/su_mean         0.000
_refine_ls_structure_factor_coef Fsqd
_refine_ls_weighting_details
'w=1/[\s^2^(Fo^2^)+(0.1295P)^2^] where P=(Fo^2^+2Fc^2^)/3'
_refine_ls_weighting_scheme      calc
_refine_ls_wR_factor_gt          0.1861
_refine_ls_wR_factor_ref         0.2230
_reflns_Friedel_coverage         0.000
_reflns_number_gt                1714
_reflns_number_total             2763
_reflns_threshold_expression     'I > 2\s(I)'
_cod_data_source_file            ol5b03160_si_006.cif
_cod_data_source_block           mo_dm15691_0m
_cod_database_code               1555470
_shelxl_version_number           2014-3
_shelx_space_group_comment
;
The symmetry employed for this shelxl refinement is uniquely defined
by the following loop, which should always be used as a source of
symmetry information in preference to the above space-group names.
They are only intended as comments.
;
_shelx_estimated_absorpt_t_max   0.982
_shelx_estimated_absorpt_t_min   0.977
_olex2_refinement_description
;
1. Fixed Uiso
 At 1.2 times of:
  All C(H) groups
 At 1.5 times of:
  All C(H,H,H) groups
2.a Aromatic/amide H refined with riding coordinates:
 C3(H3), C5(H5), C6(H6), C10(H10), C11(H11), C12(H12), C13(H13), C14(H14),
 C17(H17), C18(H18), C19(H19)
2.b Idealised Me refined as rotating group:
 C15(H15A,H15B,H15C)
;
_shelx_res_file
;
TITL mo_dm15691_0m in P-1
CELL 0.71073 6.8657 10.2402 11.1882 69.311 72.734 83.093
ZERR 2 0.0046 0.0067 0.0073 0.011 0.012 0.013
LATT 1
SFAC C H O
UNIT 38 28 6

L.S. 4
PLAN  -2 0 0
SIZE 0.2 0.22 0.25
TEMP -143.15
BOND $H
wpdb -1
MORE -1
CONF
fmap 2
acta
OMIT -3 52
REM <olex2.extras>
REM <HklSrc "%.\\mo_dm15691_0m.hkl">
REM </olex2.extras>

WGHT    0.129500
FVAR       0.28646
O1    3    0.180971    0.228027    0.786201    11.00000    0.04945    0.03168 =
         0.02199   -0.00220   -0.00425    0.00548
O2    3    0.249270    0.105643    0.529571    11.00000    0.05267    0.04847 =
         0.02133   -0.00432   -0.01182   -0.00425
O3    3    0.170082    0.079741    1.183253    11.00000    0.04637    0.04144 =
         0.02026   -0.00805   -0.00652    0.00025
C1    1    0.243907    0.106787    0.831102    11.00000    0.02755    0.02968 =
         0.02353   -0.00294   -0.00385   -0.00204
C2    1    0.237554    0.044014    0.973151    11.00000    0.02387    0.03164 =
         0.01990   -0.00298   -0.00251   -0.00063
C3    1    0.271298   -0.093168    1.039812    11.00000    0.02891    0.03666 =
         0.01864   -0.00222   -0.00451   -0.00216
AFIX  43
H3    2    0.256144   -0.111465    1.131439    11.00000   -1.20000
AFIX   0
C4    1    0.324343   -0.215226    1.002211    11.00000    0.02716    0.03113 =
         0.02441   -0.00286   -0.00339   -0.00006
C5    1    0.368847   -0.219514    0.875815    11.00000    0.03563    0.02625 =
         0.02583   -0.00281   -0.00462    0.00102
AFIX  43
H5    2    0.401627   -0.308883    0.866555    11.00000   -1.20000
AFIX   0
C6    1    0.371610   -0.106872    0.758167    11.00000    0.03391    0.03564 =
         0.02032   -0.00690   -0.00012   -0.00105
AFIX  43
H6    2    0.411840   -0.131227    0.679745    11.00000   -1.20000
AFIX   0
C7    1    0.326494    0.030675    0.737856    11.00000    0.02886    0.03270 =
         0.01786   -0.00260   -0.00442   -0.00304
C8    1    0.352237    0.123699    0.594126    11.00000    0.03768    0.03405 =
         0.02061   -0.00909   -0.00659    0.00570
C9    1    0.512016    0.232126    0.535620    11.00000    0.04306    0.02892 =
         0.01491   -0.00600   -0.00236    0.00296
C10   1    0.681675    0.217047    0.583852    11.00000    0.04783    0.03361 =
         0.02026   -0.00411   -0.00860    0.00113
AFIX  43
H10   2    0.694035    0.137348    0.657547    11.00000   -1.20000
AFIX   0
C11   1    0.833034    0.316828    0.525778    11.00000    0.03749    0.04009 =
         0.02999   -0.01030   -0.00226   -0.00140
AFIX  43
H11   2    0.948569    0.304926    0.559041    11.00000   -1.20000
AFIX   0
C12   1    0.814318    0.433992    0.418862    11.00000    0.04832    0.03396 =
         0.02740   -0.00833    0.00287   -0.00688
AFIX  43
H12   2    0.915801    0.503552    0.379808    11.00000   -1.20000
AFIX   0
C13   1    0.647439    0.449336    0.369192    11.00000    0.05906    0.03322 =
         0.01940   -0.00169   -0.00253   -0.00064
AFIX  43
H13   2    0.635193    0.529808    0.296130    11.00000   -1.20000
AFIX   0
C14   1    0.498678    0.349158    0.424524    11.00000    0.04559    0.03307 =
         0.01935   -0.00496   -0.00773    0.00717
AFIX  43
H14   2    0.387457    0.359273    0.387599    11.00000   -1.20000
AFIX   0
C15   1    0.326739   -0.349016    1.115019    11.00000    0.04529    0.03206 =
         0.02884   -0.00295   -0.00652    0.00268
AFIX 137
H15A  2    0.187553   -0.370688    1.172344    11.00000   -1.50000
H15B  2    0.413216   -0.338754    1.166744    11.00000   -1.50000
H15C  2    0.381010   -0.424910    1.079584    11.00000   -1.50000
AFIX   0
C16   1    0.180283    0.139907    1.049507    11.00000    0.02869    0.03797 =
         0.01785   -0.00259   -0.00721   -0.00157
C17   1    0.135132    0.278384    1.023089    11.00000    0.03606    0.03596 =
         0.02556   -0.00599   -0.00458    0.00033
AFIX  43
H17   2    0.131385    0.344757    0.939226    11.00000   -1.20000
AFIX   0
C18   1    0.094501    0.305280    1.144733    11.00000    0.03968    0.04112 =
         0.03630   -0.01642   -0.00650    0.00095
AFIX  43
H18   2    0.059058    0.392849    1.157658    11.00000   -1.20000
AFIX   0
C19   1    0.116051    0.182784    1.237534    11.00000    0.04401    0.04954 =
         0.02605   -0.01745   -0.00354   -0.00046
AFIX  43
H19   2    0.096247    0.169888    1.328671    11.00000   -1.20000
AFIX   0
HKLF 4

REM  mo_dm15691_0m in P-1
REM R1 =  0.0767 for    1714 Fo > 4sig(Fo)  and  0.1169 for all    2763 data
REM    200 parameters refined using      0 restraints

END

WGHT      0.1304      0.0000

REM Highest difference peak  0.422,  deepest hole -0.383,  1-sigma level  0.094
Q1    1   0.3764  0.2420  0.4585  11.00000  0.05    0.42
Q2    1   0.0515  0.1920  1.0426  11.00000  0.05    0.38
;
_shelx_res_checksum              99497
_shelx_hkl_file
;
  -1   0   0   20.62    1.71
  -1   0   0   26.35    1.84
  -2   0   0  336.45   24.91
  -2   0   0  325.93   23.45
  -3   0   0    7.25    0.76
  -3   0   0    6.92    0.64
  -4   0   0   10.87    0.87
  -4   0   0    7.66    1.01
  -5   0   0    1.20    0.31
  -5   0   0    1.34    0.55
  -6   0   0   14.76    1.23
  -6   0   0   13.55    1.50
  -7   0   0    2.43    0.84
  -8   0   0    0.79    0.74
  -9   0   0   -0.92    0.73
   9  -1   0   -0.84    0.60
  -9   1   0   -0.03    0.86
  -8   1   0   -0.54    0.74
  -7   1   0    2.35    0.79
  -6   1   0    0.58    0.62
  -6   1   0    1.51    0.38
  -5   1   0    2.89    0.46
  -5   1   0    2.98    0.68
  -4   1   0    2.27    0.53
  -4   1   0    2.61    0.40
  -3   1   0    0.35    0.21
  -3   1   0    0.95    0.35
  -2   1   0   25.76    1.92
  -1   1   0    3.93    0.38
  -1   1   0    3.56    0.36
   0  -1   0  307.09   23.06
  -1  -1   0   13.63    1.07
  -1  -1   0   12.50    0.98
  -2  -1   0  885.82   65.72
  -2  -1   0  865.12   61.89
  -3  -1   0    2.32    0.31
  -3  -1   0    3.63    0.51
  -4  -1   0   35.45    3.02
  -4  -1   0   38.47    2.76
  -5  -1   0    0.29    0.22
  -5  -1   0   -0.45    0.44
  -6  -1   0    0.39    0.26
  -6  -1   0   -0.55    0.51
  -7  -1   0    1.96    0.76
  -8  -1   0    0.97    0.75
  -9  -1   0   -1.09    0.75
  -9   2   0   -0.78    0.83
  -8   2   0   -0.61    0.68
  -7   2   0    1.04    0.73
  -6   2   0    0.03    0.55
  -6   2   0    0.26    0.31
  -5   2   0    0.88    0.54
  -5   2   0    0.81    0.33
  -4   2   0    0.75    0.45
  -4   2   0    0.77    0.31
  -3   2   0    0.86    0.32
  -3   2   0    1.00    0.37
  -2   2   0    1.89    0.36
  -2   2   0    2.13    0.40
   1  -2   0  207.35   14.46
  -1   2   0  176.10   13.66
   0  -2   0  136.71   10.32
  -1  -2   0  283.86   20.55
  -1  -2   0  295.96   21.82
  -2  -2   0  134.94    9.20
  -2  -2   0  122.63    9.79
  -3  -2   0   65.26    4.40
  -3  -2   0   55.64    4.73
  -4  -2   0   47.57    3.50
  -4  -2   0   48.06    3.84
  -5  -2   0    9.09    0.80
  -5  -2   0    8.53    1.11
  -6  -2   0    9.57    0.90
  -6  -2   0   10.61    1.30
  -7  -2   0    1.35    0.67
  -8  -2   0   -0.22    0.62
  -9  -2   0   -0.62    0.74
  -9   3   0    1.18    0.92
  -8   3   0   -0.34    0.73
  -7   3   0    1.10    0.74
  -6   3   0   -0.17    0.30
  -6   3   0    0.01    0.51
  -5   3   0   -0.32    0.32
  -5   3   0    0.56    0.57
  -4   3   0    3.05    0.59
  -4   3   0    3.76    0.66
  -3   3   0   25.62    2.25
  -3   3   0   31.22    2.35
   2  -3   0   -0.17    0.22
  -2   3   0   -0.18    0.18
  -2   3   0   -0.09    0.27
   1  -3   0   34.69    2.55
  -1   3   0   30.07    2.48
   0  -3   0   16.73    1.38
  -1  -3   0   12.30    1.05
  -2  -3   0   62.79    4.48
  -2  -3   0   60.77    4.80
  -3  -3   0    1.64    0.31
  -3  -3   0    2.70    0.50
  -4  -3   0    0.16    0.21
  -4  -3   0    0.44    0.42
  -5  -3   0    4.90    0.59
  -5  -3   0    4.86    0.82
  -6  -3   0    0.44    0.53
  -6  -3   0    0.45    0.27
  -7  -3   0    0.02    0.56
  -8  -3   0    1.45    0.76
  -9  -3   0   -0.50    0.72
  -8   4   0    3.67    1.03
  -7   4   0    0.46    0.64
  -6   4   0    2.98    0.77
  -6   4   0    2.68    0.55
  -5   4   0    1.44    0.51
  -5   4   0    1.63    0.60
  -4   4   0    0.63    0.47
  -4   4   0    0.14    0.46
   3  -4   0    0.93    0.25
  -3   4   0    0.86    0.39
  -3   4   0    0.82    0.49
   2  -4   0    1.02    0.31
  -2   4   0    0.50    0.37
   1  -4   0   60.28    4.55
  -1   4   0   57.41    4.37
   0  -4   0   18.85    1.57
  -1  -4   0   44.97    3.53
  -2  -4   0   31.79    2.58
  -3  -4   0    1.93    0.50
  -3  -4   0    1.51    0.31
  -4  -4   0    9.69    1.08
  -4  -4   0    7.31    0.75
  -5  -4   0   -0.06    0.22
  -5  -4   0    0.89    0.50
  -6  -4   0    0.88    0.58
  -6  -4   0    0.44    0.27
  -7  -4   0    0.17    0.60
  -8  -4   0    0.17    0.69
  -9  -4   0   -0.81    0.72
  -8   5   0   -0.02    0.76
  -7   5   0    0.32    0.67
  -6   5   0    2.14    0.60
  -6   5   0    1.48    0.70
  -5   5   0    0.31    0.51
  -5   5   0    0.34    0.52
  -4   5   0    2.15    0.68
  -4   5   0    0.66    0.51
  -3   5   0    0.34    0.49
  -3   5   0    0.14    0.37
   2  -5   0   20.91    1.83
  -2   5   0   23.86    1.89
   1  -5   0    4.51    0.57
  -1   5   0    3.85    0.63
   0  -5   0   26.55    2.18
  -1  -5   0   11.97    1.12
  -2  -5   0    0.87    0.34
  -3  -5   0    9.27    1.03
  -4  -5   0    0.62    0.46
  -4  -5   0    0.06    0.24
  -5  -5   0    0.32    0.28
  -5  -5   0    1.36    0.54
  -6  -5   0    2.42    0.48
  -6  -5   0    6.64    0.96
  -7  -5   0    1.14    0.70
  -8  -5   0    2.26    0.85
  -8   6   0   -1.25    0.67
  -7   6   0   -0.38    0.70
  -6   6   0    0.37    0.58
  -6   6   0    1.46    0.68
  -5   6   0    0.38    0.56
  -5   6   0    1.11    0.66
  -4   6   0    9.06    1.17
  -4   6   0    6.61    1.01
   3  -6   0    0.28    0.42
  -3   6   0    0.37    0.40
  -3   6   0   -0.06    0.51
   2  -6   0   26.84    2.21
  -2   6   0   25.13    2.24
   1  -6   0    0.23    0.31
  -1   6   0    0.65    0.43
   0  -6   0   25.05    2.11
  -1  -6   0    2.77    0.52
  -2  -6   0    7.82    0.96
  -3  -6   0    0.71    0.46
  -4  -6   0   -0.26    0.41
  -5  -6   0    2.73    0.73
  -6  -6   0    0.10    0.53
  -7  -6   0    0.05    0.60
  -8  -6   0    1.66    0.82
  -7   7   0   -0.05    0.72
  -6   7   0    3.32    0.90
  -6   7   0    3.32    0.90
  -5   7   0    3.63    0.92
  -5   7   0    2.90    0.79
  -4   7   0    0.52    0.56
  -4   7   0    0.11    0.48
   3  -7   0    1.06    0.53
  -3   7   0    0.06    0.56
   2  -7   0   -0.40    0.40
  -2   7   0   -0.13    0.50
   1  -7   0    1.66    0.50
  -1   7   0    1.22    0.62
   0  -7   0   15.28    1.37
   0   7   0   13.62    1.19
  -1  -7   0   19.85    1.80
  -2  -7   0    5.37    0.83
  -3  -7   0    6.65    0.96
  -4  -7   0    9.50    1.19
  -5  -7   0    0.29    0.52
  -6  -7   0    0.07    0.54
  -7  -7   0    1.41    0.75
  -8  -7   0    0.20    0.74
  -7   8   0   -0.36    0.76
  -6   8   0    0.02    0.74
  -6   8   0   -0.48    0.66
  -5   8   0    2.01    0.88
  -5   8   0    3.63    0.86
  -4   8   0   11.98    1.60
  -4   8   0   15.41    1.54
   3  -8   0    3.07    0.73
  -3   8   0    2.40    0.76
   2  -8   0   12.07    1.21
  -2   8   0    9.60    1.31
   1  -8   0    0.93    0.47
  -1   8   0    1.01    0.61
   0  -8   0    0.58    0.45
  -1  -8   0   32.00    2.74
  -2  -8   0   16.94    1.67
  -3  -8   0   -0.46    0.42
  -4  -8   0    2.48    0.70
  -5  -8   0    3.49    0.78
  -6  -8   0    0.67    0.63
  -7  -8   0    0.88    0.71
  -6   9   0    5.76    1.19
  -5   9   0   -1.05    0.63
  -5   9   0   -0.05    0.65
  -4   9   0   -0.23    0.62
  -4   9   0    0.29    0.61
   3  -9   0    0.45    0.59
  -3   9   0    0.11    0.60
   2  -9   0    9.78    1.20
  -2   9   0    8.82    1.23
   1  -9   0    2.88    0.67
  -1   9   0    2.85    0.80
   0  -9   0   37.31    3.15
  -1  -9   0   21.65    2.03
  -2  -9   0    1.67    0.63
  -3  -9   0    8.20    1.17
  -4  -9   0   -0.31    0.53
  -5  -9   0    0.58    0.59
  -6  -9   0    0.52    0.61
  -7  -9   0    1.78    0.80
  -6  10   0    0.87    0.85
  -5  10   0    0.84    0.80
  -5  10   0   -0.17    0.80
  -4  10   0    0.87    0.71
  -4  10   0   -0.42    0.58
   3 -10   0   -0.72    0.56
  -3  10   0   -0.09    0.62
   2 -10   0    0.67    0.61
  -2  10   0   -0.03    0.54
   1 -10   0    0.21    0.50
  -1  10   0    0.18    0.60
   0 -10   0    0.54    0.50
   0  10   0    0.23    0.59
  -1 -10   0    2.16    0.66
  -2 -10   0    0.48    0.58
  -3 -10   0    6.05    1.02
  -4 -10   0   -0.25    0.56
  -5 -10   0    2.07    0.79
  -6 -10   0    0.09    0.73
  -5  11   0   -0.55    0.75
  -5  11   0    0.87    0.83
  -4  11   0    1.38    0.72
  -4  11   0   -0.58    0.66
   3 -11   0    0.50    0.69
  -3  11   0   -0.03    0.66
   2 -11   0    0.52    0.61
  -2  11   0    0.22    0.65
   1 -11   0    1.53    0.61
  -1  11   0    0.91    0.70
   0 -11   0    0.59    0.55
   0  11   0    1.62    0.73
  -1 -11   0    0.84    0.59
   1  11   0    1.30    0.70
  -2 -11   0   -0.14    0.57
  -3 -11   0    0.67    0.66
  -4 -11   0   -0.74    0.60
  -5 -11   0    1.43    0.76
   5  11   0    1.09    0.77
  -4  12   0    1.72    0.82
  -4  12   0    1.88    0.92
   3 -12   0    0.23    0.82
  -3  12   0    1.02    0.82
   2 -12   0   -0.42    0.61
  -2  12   0    0.11    0.69
   1 -12   0   -0.27    0.55
  -1  12   0    0.24    0.69
   0 -12   0    2.43    0.73
   0  12   0    1.44    0.84
  -1 -12   0    0.83    0.65
   1  12   0    0.27    0.71
  -2 -12   0    0.72    0.69
  -3 -12   0    1.76    0.77
  -4 -12   0   -0.59    0.70
   3 -13   0    0.04    0.86
   2 -13   0   -0.40    0.72
  -2  13   0    0.97    0.85
   1 -13   0    1.14    0.76
  -1  13   0    0.85    0.78
   0 -13   0   -0.49    0.59
   0  13   0   -0.86    0.68
  -1 -13   0    0.04    0.63
   1  13   0    0.48    0.75
  -2 -13   0    0.50    0.73
   2  13   0    1.09    0.82
  -3 -13   0    0.07    0.72
   3  13   0    1.43    0.90
   2  13  -1    1.65    0.95
  -2 -13   1    1.22    0.77
   1  13  -1    1.04    0.88
  -1 -13   1    1.43    0.74
   0  13  -1   -0.36    0.71
   0 -13   1   -0.23    0.63
  -1  13  -1    0.39    0.76
   1 -13   1    0.60    0.67
  -2  13  -1    1.13    0.85
   2 -13   1    0.91    0.74
  -4 -12   1    0.65    0.78
   3  12  -1   -0.12    0.71
  -3 -12   1    0.15    0.69
   2  12  -1    0.51    0.68
  -2 -12   1    0.27    0.67
   1  12  -1    2.37    0.88
  -1 -12   1    2.16    0.76
   0  12  -1   -0.15    0.63
   0 -12   1   -0.12    0.62
  -1  12  -1    2.32    0.90
   1 -12   1    3.85    0.84
  -2  12  -1    0.68    0.80
   2 -12   1   -0.31    0.64
  -3  12  -1   -0.83    0.72
   3 -12   1   -0.40    0.70
  -4  12  -1    0.29    0.80
  -4  12  -1    0.36    0.66
  -5 -11   1    1.51    0.80
  -4 -11   1    2.42    0.85
  -3 -11   1    0.02    0.70
   2  11  -1    1.09    0.70
  -2 -11   1    1.05    0.65
   1  11  -1    1.59    0.76
  -1 -11   1    1.40    0.62
   0  11  -1    0.01    0.64
   0 -11   1    0.11    0.53
  -1  11  -1    1.85    0.80
   1 -11   1    2.36    0.72
  -2  11  -1    1.48    0.76
   2 -11   1    0.49    0.61
  -3  11  -1   -0.92    0.61
   3 -11   1    0.10    0.66
  -4  11  -1   -0.25    0.76
  -4  11  -1    0.34    0.63
  -5  11  -1   -0.38    0.79
  -5  11  -1    0.17    0.76
   6  10  -1   -0.01    0.76
  -6 -10   1    1.05    0.78
   5  10  -1    2.12    0.82
  -5 -10   1    2.15    0.81
   4  10  -1    0.93    0.69
  -4 -10   1    1.19    0.73
  -3 -10   1    2.81    0.81
  -2 -10   1    5.30    1.01
   1  10  -1    1.11    0.69
  -1 -10   1    1.95    0.66
   0  10  -1    1.37    0.74
   0 -10   1    1.36    0.60
  -1  10  -1    0.93    0.67
   1 -10   1    0.98    0.57
  -2  10  -1    3.92    0.94
   2 -10   1    5.90    0.91
  -3  10  -1    0.60    0.71
   3 -10   1   -0.19    0.57
  -4  10  -1    1.06    0.76
  -4  10  -1    0.15    0.58
  -5  10  -1    0.36    0.75
  -5  10  -1    0.39    0.77
  -6  10  -1   -0.82    0.82
  -6  10  -1   -0.03    0.78
   6   9  -1    2.44    0.86
  -6  -9   1    2.43    0.79
   5   9  -1   -0.22    0.62
  -5  -9   1   -0.38    0.58
  -4  -9   1    2.93    0.86
   3   9  -1    4.55    0.90
  -3  -9   1    5.84    0.98
   2   9  -1    1.56    0.56
  -2  -9   1    1.20    0.62
  -1  -9   1    5.53    0.91
   0   9  -1   20.76    2.04
   0  -9   1   18.79    1.85
  -1   9  -1    3.48    0.84
   1  -9   1    1.97    0.61
  -2   9  -1    0.09    0.58
   2  -9   1    0.35    0.51
  -3   9  -1    0.59    0.66
   3  -9   1    1.30    0.63
  -4   9  -1    0.87    0.59
  -4   9  -1    0.75    0.67
  -5   9  -1    1.38    0.75
  -5   9  -1    0.07    0.74
  -6   9  -1    0.04    0.85
  -6   9  -1    0.44    0.76
   7   8  -1    2.42    1.00
  -7  -8   1    2.76    0.91
  -6  -8   1    0.37    0.59
  -5  -8   1    1.02    0.62
  -4  -8   1    0.27    0.55
  -3  -8   1    4.15    0.84
   2   8  -1    7.21    0.98
  -2  -8   1    8.26    1.10
   1   8  -1    3.61    0.64
  -1  -8   1    3.11    0.72
   0   8  -1    0.20    0.55
   0  -8   1   -0.39    0.39
  -1   8  -1   45.43    3.55
   1  -8   1   40.87    3.49
  -2   8  -1    0.98    0.61
   2  -8   1    1.15    0.52
  -3   8  -1    1.27    0.71
   3  -8   1    2.35    0.69
  -4   8  -1    0.79    0.59
  -4   8  -1    0.08    0.67
  -5   8  -1   -0.23    0.70
  -5   8  -1   -0.68    0.56
  -6   8  -1   -1.03    0.72
  -6   8  -1    0.28    0.69
  -7   8  -1   -0.33    0.76
  -7  -7   1    0.67    0.70
  -6  -7   1    1.11    0.65
  -5  -7   1    1.25    0.62
  -4  -7   1    0.26    0.48
  -3  -7   1    5.77    0.91
  -2  -7   1   15.03    1.52
   1   7  -1    5.70    0.77
  -1  -7   1    6.04    0.86
   0   7  -1   -0.08    0.47
   0   7  -1   -0.11    0.26
   0  -7   1    0.56    0.42
  -1   7  -1   27.20    2.32
   1  -7   1   24.76    2.20
  -2   7  -1    0.46    0.57
   2  -7   1    0.69    0.45
  -3   7  -1   26.86    2.54
   3  -7   1   30.30    2.51
  -4   7  -1    5.84    0.89
  -4   7  -1    4.59    1.04
  -5   7  -1    1.91    0.85
  -5   7  -1    3.16    0.79
  -6   7  -1    0.64    0.75
  -6   7  -1    0.48    0.65
  -7   7  -1   -0.07    0.71
  -8   7  -1    0.85    0.92
   8   6  -1    0.64    0.80
  -8  -6   1   -0.53    0.75
  -7  -6   1   -1.04    0.54
  -6  -6   1    0.69    0.61
  -5  -6   1    7.18    1.07
  -4  -6   1    0.06    0.47
  -3  -6   1    7.31    0.99
  -2  -6   1    7.20    0.94
  -1  -6   1   10.90    1.12
   0   6  -1   10.50    0.97
   0  -6   1   11.75    1.12
  -1   6  -1   14.22    1.51
   1  -6   1   15.53    1.39
  -2   6  -1   -0.30    0.43
   2  -6   1   -0.02    0.35
  -3   6  -1    4.53    0.88
   3  -6   1    4.33    0.76
  -4   6  -1    2.06    0.77
  -4   6  -1    2.59    0.65
  -5   6  -1    5.40    1.05
  -5   6  -1    5.03    0.91
  -6   6  -1    3.04    0.80
  -6   6  -1    1.92    0.77
  -7   6  -1    0.68    0.75
  -8   6  -1   -0.38    0.76
  -8  -5   1    0.17    0.72
  -7  -5   1    3.81    0.96
  -6  -5   1   -0.54    0.52
  -5  -5   1    6.38    1.00
  -4  -5   1    0.09    0.48
  -3  -5   1   18.69    1.73
  -2  -5   1   12.01    1.17
  -1  -5   1   39.95    3.22
   0   5  -1    1.47    0.30
   0  -5   1    1.48    0.40
  -1   5  -1   10.17    1.08
   1  -5   1    9.55    0.94
  -2   5  -1    0.28    0.40
   2  -5   1    0.41    0.31
  -3   5  -1    6.44    1.01
  -3   5  -1    7.32    0.86
   3  -5   1    8.28    0.91
  -4   5  -1    5.13    0.99
  -4   5  -1    5.39    0.83
  -5   5  -1    0.38    0.57
  -5   5  -1    1.01    0.58
  -6   5  -1   -0.66    0.45
  -6   5  -1   -0.49    0.52
  -7   5  -1    0.21    0.68
  -8   5  -1   -0.62    0.72
  -8  -4   1    1.13    0.76
  -7  -4   1    0.36    0.59
  -6  -4   1    0.36    0.56
  -5  -4   1    7.36    1.05
  -4  -4   1    0.77    0.49
  -3  -4   1   13.43    1.33
  -2  -4   1   16.96    1.51
  -1  -4   1    4.33    0.58
   0   4  -1    0.42    0.20
   0  -4   1    0.08    0.23
  -1   4  -1   15.89    1.46
   1  -4   1   17.57    1.43
  -2   4  -1   35.57    2.87
   2  -4   1   37.47    2.90
  -3   4  -1    0.32    0.33
  -3   4  -1    1.62    0.54
  -4   4  -1    4.43    0.83
  -4   4  -1    4.54    0.74
  -5   4  -1    1.02    0.53
  -5   4  -1    1.16    0.59
  -6   4  -1   -0.24    0.39
  -6   4  -1   -0.50    0.52
  -7   4  -1    0.42    0.62
  -8   4  -1    1.01    0.85
  -9   4  -1   -0.95    0.81
  -9  -3   1    0.99    0.85
  -8  -3   1   -0.84    0.66
  -7  -3   1    0.59    0.66
  -6  -3   1   -0.21    0.46
  -5  -3   1    2.16    0.36
  -5  -3   1    2.61    0.66
  -4  -3   1   -0.01    0.41
  -4  -3   1    0.40    0.22
  -3  -3   1    0.11    0.17
  -3  -3   1    0.42    0.32
  -2  -3   1    8.97    0.91
  -1  -3   1   38.16    3.01
   0   3  -1   40.20    2.89
   0  -3   1   37.33    3.02
  -1   3  -1   10.69    1.02
   1  -3   1   11.41    0.96
  -2   3  -1   -0.04    0.31
   2  -3   1   -0.40    0.20
  -3   3  -1    4.32    0.69
  -3   3  -1    3.65    0.57
  -4   3  -1    6.97    0.91
  -4   3  -1    7.66    0.94
  -5   3  -1    0.09    0.41
  -5   3  -1   -0.45    0.49
  -6   3  -1    2.46    0.69
  -6   3  -1    1.78    0.46
  -7   3  -1    0.05    0.62
  -8   3  -1    1.55    0.87
  -9   3  -1   -0.19    0.88
   9   2  -1   -0.69    0.72
  -9  -2   1   -0.46    0.79
  -8  -2   1    0.65    0.77
  -7  -2   1   -0.35    0.60
  -6  -2   1    0.55    0.59
  -5  -2   1    0.41    0.22
  -5  -2   1   -0.12    0.45
  -4  -2   1    0.81    0.45
  -4  -2   1    1.06    0.24
  -3  -2   1   22.69    1.79
  -3  -2   1   26.42    2.05
  -2  -2   1   29.16    2.40
  -2  -2   1   30.45    2.20
  -1  -2   1    0.30    0.24
   0   2  -1   17.90    1.36
   0  -2   1   17.49    1.42
  -1   2  -1    5.97    0.71
  -1   2  -1    7.83    0.56
   1  -2   1    7.03    0.65
  -2   2  -1    0.74    0.33
  -2   2  -1    0.58    0.23
  -3   2  -1    4.71    0.60
  -3   2  -1    3.27    0.54
  -4   2  -1    9.08    0.92
  -4   2  -1    8.53    0.99
  -5   2  -1    0.88    0.35
  -5   2  -1    1.22    0.56
  -6   2  -1   -0.22    0.49
  -6   2  -1    0.15    0.30
  -7   2  -1    0.88    0.67
  -8   2  -1    0.86    0.76
  -9   2  -1    1.68    1.02
   9   1  -1    0.34    0.78
  -9  -1   1    0.73    0.88
  -8  -1   1    1.75    0.86
  -7  -1   1    0.21    0.61
  -6  -1   1   -0.31    0.50
  -5  -1   1    1.60    0.28
  -5  -1   1    2.17    0.61
  -4  -1   1   -0.05    0.15
  -4  -1   1    0.28    0.40
  -3  -1   1   35.81    2.84
  -3  -1   1   34.77    2.56
  -2  -1   1   14.65    1.13
  -2  -1   1   15.73    1.29
  -1  -1   1    3.37    0.43
   0   1  -1  135.82   10.09
   0   1  -1  132.99    9.88
   0  -1   1  147.96   10.47
  -1   1  -1   58.96    4.32
   1  -1   1   60.57    4.52
  -2   1  -1   54.87    3.88
  -2   1  -1   51.49    4.07
  -3   1  -1    9.82    0.96
  -3   1  -1   10.40    0.90
  -4   1  -1   11.09    1.10
  -4   1  -1   11.09    1.00
  -5   1  -1   -0.01    0.28
  -5   1  -1    1.63    0.57
  -6   1  -1   -0.32    0.51
  -6   1  -1    0.14    0.31
  -7   1  -1   -0.41    0.57
  -8   1  -1   -1.14    0.66
  -9   1  -1   -0.27    0.83
   9   0  -1    0.32    0.77
  -9   0   1   -0.52    0.81
   8   0  -1    0.22    0.68
  -8   0   1    0.95    0.79
  -7   0   1    1.75    0.77
  -6   0   1   16.38    1.69
  -5   0   1    0.83    0.54
  -5   0   1    0.93    0.25
  -4   0   1    2.15    0.31
  -4   0   1    2.71    0.56
  -3   0   1    8.81    0.71
  -3   0   1    8.59    0.90
  -2   0   1   12.90    1.02
  -2   0   1   15.57    1.20
  -1   0   1   13.72    1.12
   0   0  -1   11.29    0.83
   0   0  -1   11.30    0.86
   0   0   1   10.95    0.87
  -1   0  -1  133.87   10.24
  -1   0  -1  138.49    9.67
  -2   0  -1  232.40   17.91
  -2   0  -1  243.52   16.89
  -3   0  -1    1.34    0.26
  -3   0  -1    1.05    0.33
  -4   0  -1    7.99    0.90
  -4   0  -1    7.26    0.75
  -5   0  -1    0.13    0.26
  -5   0  -1    0.04    0.47
  -6   0  -1    1.18    0.64
  -6   0  -1    1.02    0.34
  -7   0  -1   -0.35    0.60
  -8   0  -1   -0.57    0.69
  -9   0  -1    0.17    0.84
   9  -1  -1    0.35    0.69
  -9   1   1   -0.63    0.81
   8  -1  -1    0.06    0.63
  -8   1   1    0.38    0.81
  -7   1   1    1.27    0.74
  -6   1   1    0.28    0.56
  -5   1   1    0.34    0.53
  -5   1   1    0.36    0.25
  -4   1   1    2.47    0.56
  -4   1   1    2.52    0.37
  -3   1   1    0.61    0.35
  -3   1   1    0.66    0.20
  -2   1   1  106.60    8.11
   1  -1  -1   -0.13    0.16
  -1   1   1   -0.02    0.13
  -1   1   1   -0.24    0.19
   0  -1  -1   69.68    4.76
   0  -1  -1   57.85    4.66
   0  -1  -1   67.97    4.94
  -1  -1  -1    2.76    0.28
  -1  -1  -1    1.96    0.23
  -2  -1  -1  962.26   69.37
  -2  -1  -1 1000.00   73.63
  -3  -1  -1   27.46    2.26
  -3  -1  -1   28.25    2.10
  -4  -1  -1  137.89    9.13
  -4  -1  -1  116.00    9.71
  -5  -1  -1   10.66    0.98
  -5  -1  -1   10.74    1.22
  -6  -1  -1    5.29    0.93
  -6  -1  -1    5.58    0.67
  -7  -1  -1    2.21    0.71
  -8  -1  -1    4.55    1.01
  -9  -1  -1   -1.08    0.73
  -9   2   1   -0.72    0.82
   8  -2  -1    1.71    0.71
  -8   2   1    2.00    0.92
   7  -2  -1    0.37    0.55
  -7   2   1   -0.33    0.61
  -6   2   1   -0.38    0.52
  -5   2   1    1.04    0.32
  -5   2   1    1.22    0.58
  -4   2   1    6.00    0.83
  -4   2   1    6.67    0.67
  -3   2   1    8.43    0.84
  -3   2   1    7.13    0.72
   2  -2  -1   12.65    0.95
  -2   2   1    9.72    0.98
  -2   2   1   10.96    0.94
   1  -2  -1  204.18   14.29
   1  -2  -1  184.51   13.74
  -1   2   1  192.44   14.28
  -1   2   1  177.19   13.47
   0  -2  -1    1.95    0.25
   0  -2  -1    1.78    0.18
  -1  -2  -1   23.57    1.74
  -1  -2  -1   23.42    1.84
  -2  -2  -1    8.27    0.80
  -2  -2  -1    8.74    0.71
  -3  -2  -1    0.26    0.16
  -3  -2  -1    0.00    0.26
  -4  -2  -1  179.28   14.87
  -4  -2  -1  211.79   13.98
  -5  -2  -1    2.35    0.62
  -5  -2  -1    2.46    0.42
  -6  -2  -1    7.64    1.10
  -6  -2  -1    7.33    0.79
  -7  -2  -1    2.45    0.77
  -8  -2  -1   -0.92    0.60
  -9  -2  -1   -1.18    0.65
  -9   3   1    2.32    1.05
  -8   3   1    0.49    0.79
   7  -3  -1   -0.10    0.48
  -7   3   1    0.35    0.66
   6  -3  -1   -0.09    0.42
  -6   3   1    0.30    0.57
  -5   3   1   18.08    1.55
  -5   3   1   20.33    1.83
   4  -3  -1    2.22    0.46
  -4   3   1    2.16    0.57
  -4   3   1    1.78    0.43
  -3   3   1   68.87    5.12
  -3   3   1   71.34    5.45
   2  -3  -1    7.53    0.72
  -2   3   1    7.06    0.80
  -2   3   1    9.78    0.80
   1  -3  -1    0.75    0.13
   1  -3  -1    1.03    0.24
   0  -3  -1    0.26    0.20
  -1  -3  -1    7.38    0.74
  -1  -3  -1    9.00    0.71
  -2  -3  -1    0.11    0.22
  -2  -3  -1   -0.02    0.15
  -3  -3  -1   36.93    3.10
  -3  -3  -1   40.40    2.88
  -4  -3  -1   11.63    1.15
  -4  -3  -1   11.09    0.97
  -5  -3  -1    2.59    0.42
  -5  -3  -1    2.97    0.67
  -6  -3  -1   48.46    3.66
  -6  -3  -1   39.91    3.25
  -7  -3  -1    0.67    0.59
  -8  -3  -1    6.83    1.22
  -9  -3  -1    3.01    1.00
  -8   4   1   -0.29    0.76
  -7   4   1    6.93    1.14
  -6   4   1    0.58    0.60
   5  -4  -1    0.83    0.42
  -5   4   1    0.13    0.53
  -5   4   1    0.30    0.36
   4  -4  -1    1.11    0.39
  -4   4   1    0.73    0.44
  -4   4   1    0.72    0.51
   3  -4  -1   25.33    2.04
  -3   4   1   27.77    2.14
   2  -4  -1    0.23    0.17
   2  -4  -1    1.06    0.30
  -2   4   1   -0.16    0.32
  -2   4   1    0.39    0.25
   1  -4  -1   13.11    1.11
   0  -4  -1    9.10    0.83
  -1  -4  -1    2.02    0.35
  -2  -4  -1   15.75    1.15
  -2  -4  -1   12.20    1.21
  -3  -4  -1    2.51    0.49
  -3  -4  -1    2.53    0.40
  -4  -4  -1    1.56    0.35
  -4  -4  -1    0.99    0.47
  -5  -4  -1    1.40    0.38
  -5  -4  -1    1.16    0.54
  -6  -4  -1    0.65    0.34
  -6  -4  -1    1.24    0.58
  -7  -4  -1    4.68    0.95
  -8  -4  -1    2.78    0.87
  -9  -4  -1    0.09    0.77
  -8   5   1    2.19    0.92
  -7   5   1    2.89    0.89
  -6   5   1    0.32    0.64
  -5   5   1    1.20    0.61
  -5   5   1    2.02    0.54
   4  -5  -1    1.76    0.41
  -4   5   1    3.09    0.65
  -4   5   1    1.34    0.62
   3  -5  -1   -0.24    0.18
  -3   5   1    0.12    0.38
  -3   5   1   -0.39    0.44
   2  -5  -1   10.03    0.99
  -2   5   1   11.03    1.13
   1  -5  -1    2.05    0.38
   0  -5  -1    0.44    0.26
  -1  -5  -1   13.08    1.18
  -2  -5  -1   20.02    1.74
  -2  -5  -1   20.78    1.63
  -3  -5  -1    1.86    0.46
  -3  -5  -1    1.49    0.34
  -4  -5  -1    0.71    0.30
  -4  -5  -1    1.06    0.47
  -5  -5  -1    0.77    0.32
  -5  -5  -1    0.62    0.52
  -6  -5  -1   -0.11    0.27
  -6  -5  -1   -0.37    0.47
  -7  -5  -1    0.55    0.63
  -8  -5  -1    0.31    0.70
  -9  -5  -1    0.40    0.78
  -8   6   1    2.08    0.96
  -7   6   1    5.47    1.14
  -6   6   1    4.54    0.92
  -5   6   1    3.09    0.77
  -5   6   1    1.30    0.69
  -4   6   1   -0.22    0.50
  -4   6   1   -0.40    0.53
  -3   6   1    0.38    0.44
  -3   6   1    0.84    0.54
   2  -6  -1    4.74    0.68
  -2   6   1    3.75    0.71
   1  -6  -1    0.21    0.33
   0  -6  -1    5.19    0.67
  -1  -6  -1    4.35    0.64
  -2  -6  -1    0.93    0.39
  -3  -6  -1    8.42    1.01
  -4  -6  -1    2.20    0.58
  -4  -6  -1    1.26    0.39
  -5  -6  -1    5.05    0.87
  -5  -6  -1    4.01    0.61
  -6  -6  -1    1.27    0.42
  -6  -6  -1    0.25    0.55
  -7  -6  -1   -0.19    0.59
  -8  -6  -1    0.24    0.69
  -7   7   1    1.60    0.88
  -6   7   1    2.69    0.87
  -5   7   1   -0.03    0.56
  -5   7   1   -0.40    0.57
  -4   7   1   -0.34    0.54
  -4   7   1   -0.91    0.48
   3  -7  -1    3.94    0.71
  -3   7   1    1.69    0.68
  -3   7   1    2.98    0.66
   2  -7  -1   18.57    1.65
  -2   7   1   17.02    1.74
   1  -7  -1    0.72    0.40
   0  -7  -1    8.52    0.93
  -1  -7  -1   11.17    1.14
  -2  -7  -1    4.32    0.70
  -3  -7  -1   -0.16    0.38
  -4  -7  -1   -0.44    0.38
  -5  -7  -1    1.47    0.61
  -6  -7  -1    0.75    0.60
  -7  -7  -1    2.56    0.81
  -8  -7  -1   -0.46    0.64
  -7   8   1    0.55    0.85
  -6   8   1    1.86    0.84
  -5   8   1    2.16    0.79
  -5   8   1    2.34    0.87
  -4   8   1    1.65    0.67
  -4   8   1    0.83    0.66
   3  -8  -1    0.59    0.54
  -3   8   1    0.60    0.53
   2  -8  -1    2.50    0.61
  -2   8   1    0.54    0.62
   1  -8  -1    0.42    0.44
  -1   8   1   -0.31    0.52
   0  -8  -1    0.38    0.42
  -1  -8  -1    2.07    0.55
  -2  -8  -1    2.74    0.62
  -3  -8  -1    4.95    0.84
  -4  -8  -1    7.30    1.05
  -5  -8  -1    0.23    0.53
  -6  -8  -1    1.34    0.67
  -7  -8  -1   -0.24    0.60
  -8  -8  -1   -0.35    0.70
  -6   9   1    1.77    0.91
  -5   9   1    3.31    0.90
  -5   9   1    1.89    0.89
  -4   9   1    1.09    0.68
  -4   9   1    1.24    0.73
   3  -9  -1   -0.20    0.57
  -3   9   1    0.53    0.57
   2  -9  -1    1.79    0.58
  -2   9   1    0.86    0.65
   1  -9  -1    2.81    0.63
  -1   9   1    2.66    0.77
   0  -9  -1    0.01    0.41
  -1  -9  -1    8.29    1.06
  -2  -9  -1   -0.90    0.40
  -3  -9  -1   10.92    1.34
  -4  -9  -1    5.53    0.98
  -5  -9  -1    3.95    0.88
  -6  -9  -1    0.88    0.62
  -7  -9  -1    0.64    0.69
  -6  10   1    1.01    0.90
  -5  10   1    0.36    0.81
  -5  10   1    0.41    0.79
  -4  10   1   -0.02    0.64
  -4  10   1    1.21    0.71
   3 -10  -1    2.25    0.79
  -3  10   1    0.73    0.66
   2 -10  -1    5.54    0.91
  -2  10   1    3.20    0.88
   1 -10  -1    0.29    0.45
  -1  10   1   -0.44    0.53
   0 -10  -1    6.92    0.97
  -1 -10  -1    0.53    0.49
  -2 -10  -1    2.92    0.69
  -3 -10  -1   -0.14    0.52
  -4 -10  -1   -0.01    0.56
  -5 -10  -1    3.88    0.94
  -6 -10  -1    2.13    0.85
  -7 -10  -1    1.17    0.85
  -5  11   1    1.62    0.96
  -5  11   1    1.72    0.96
  -4  11   1   -0.77    0.64
  -4  11   1   -0.15    0.68
   3 -11  -1    1.27    0.80
  -3  11   1    0.12    0.60
   2 -11  -1    0.33    0.59
  -2  11   1   -0.51    0.56
   1 -11  -1    0.35    0.52
  -1  11   1    0.62    0.65
   0 -11  -1    0.70    0.54
   0  11   1    0.68    0.64
  -1 -11  -1    0.29    0.56
  -2 -11  -1    0.23    0.53
  -3 -11  -1    0.93    0.68
  -4 -11  -1   -0.17    0.57
  -5 -11  -1    0.73    0.73
  -6 -11  -1    0.74    0.77
  -4  12   1   -0.49    0.69
  -4  12   1    0.26    0.75
   3 -12  -1    4.95    1.13
  -3  12   1    3.54    1.01
   2 -12  -1    2.12    0.81
  -2  12   1    0.93    0.75
   1 -12  -1   -0.38    0.54
  -1  12   1   -0.04    0.66
   0 -12  -1    1.04    0.61
   0  12   1    0.58    0.68
  -1 -12  -1    0.51    0.60
  -2 -12  -1    0.32    0.64
  -3 -12  -1   -0.15    0.58
  -4 -12  -1    0.14    0.64
  -5 -12  -1   -0.48    0.69
   3 -13  -1    0.32    0.87
  -3  13   1    1.94    0.78
   2 -13  -1    0.50    0.78
  -2  13   1    1.44    0.85
   1 -13  -1    0.10    0.66
  -1  13   1    1.51    0.82
   0 -13  -1    0.29    0.67
   0  13   1    0.56    0.75
  -1 -13  -1    0.53    0.67
   1  13   1    0.78    0.77
  -2 -13  -1    0.13    0.69
  -3 -13  -1    0.23    0.72
  -4 -13  -1    0.47    0.82
   0 -14  -1    0.11    0.71
   0  14   1    0.37    0.79
  -1 -14  -1    0.83    0.74
   0 -13   2    0.51    0.69
   1 -13   2   -0.49    0.62
   3  12  -2    1.58    0.87
  -3 -12   2    1.15    0.78
   2  12  -2    1.46    0.86
  -2 -12   2    0.72    0.77
   1  12  -2   -0.14    0.66
  -1 -12   2    0.30    0.64
  -1  12  -2   -0.03    0.74
   1 -12   2    0.89    0.69
  -2  12  -2    0.08    0.77
   2 -12   2    0.13    0.69
  -3  12  -2   -0.35    0.80
   3 -12   2    1.16    0.81
   4  11  -2    0.27    0.65
  -4 -11   2    0.22    0.68
   3  11  -2    0.71    0.71
  -3 -11   2    0.12    0.68
   2  11  -2    0.95    0.69
  -2 -11   2    0.10    0.59
   1  11  -2    0.33    0.66
  -1 -11   2   -0.11    0.57
   0  11  -2    0.52    0.68
   0 -11   2    0.70    0.58
  -1  11  -2    2.62    0.88
   1 -11   2    3.48    0.78
  -2  11  -2    1.71    0.82
   2 -11   2    2.29    0.74
  -3  11  -2    1.51    0.87
   3 -11   2    1.39    0.77
  -4  11  -2    0.84    0.93
  -4  11  -2    2.56    0.73
  -5  11  -2    0.32    0.89
  -5  11  -2    0.44    0.76
   5  10  -2    3.62    1.03
  -5 -10   2    1.02    0.86
   4  10  -2    0.82    0.76
  -4 -10   2    0.42    0.71
   3  10  -2    4.95    1.05
  -3 -10   2    7.16    1.12
   2  10  -2    0.33    0.58
  -2 -10   2    0.59    0.66
   1  10  -2    0.39    0.65
  -1 -10   2    1.08    0.61
   0  10  -2   -0.47    0.61
   0 -10   2   -0.11    0.47
  -1  10  -2    1.52    0.77
   1 -10   2    0.87    0.56
  -2  10  -2    2.25    0.84
   2 -10   2    1.99    0.65
  -3  10  -2    5.12    1.15
   3 -10   2    7.53    1.10
  -4  10  -2    0.82    0.60
  -4  10  -2    1.10    0.81
  -5  10  -2    1.66    0.78
  -5  10  -2    0.02    0.84
  -6  10  -2   -0.05    0.94
  -6  10  -2    2.88    0.97
   6   9  -2   -0.29    0.75
  -6  -9   2    0.66    0.73
   5   9  -2   -0.38    0.66
  -5  -9   2    0.21    0.65
   4   9  -2    3.63    0.90
  -4  -9   2    5.21    1.02
   3   9  -2   -0.11    0.56
  -3  -9   2    0.54    0.62
   2   9  -2    2.89    0.84
  -2  -9   2    4.37    0.88
   1   9  -2    5.73    1.05
  -1  -9   2    5.94    0.93
   0   9  -2    0.28    0.58
   0  -9   2    0.31    0.49
  -1   9  -2    0.48    0.57
   1  -9   2    0.10    0.47
  -2   9  -2    2.81    0.84
   2  -9   2    3.37    0.72
  -3   9  -2    0.02    0.63
   3  -9   2   -0.32    0.51
  -4   9  -2   -0.15    0.65
  -4   9  -2   -0.43    0.45
  -5   9  -2    0.67    0.69
  -5   9  -2    0.18    0.79
  -6   9  -2   -0.73    0.81
  -6   9  -2    0.00    0.70
  -7  -8   2   -1.04    0.62
   6   8  -2   -0.26    0.73
  -6  -8   2    0.40    0.64
   5   8  -2    0.44    0.65
  -5  -8   2    2.77    0.75
   4   8  -2    2.55    0.74
  -4  -8   2    2.87    0.77
   3   8  -2   -0.02    0.50
  -3  -8   2   -0.54    0.51
   2   8  -2    2.59    0.66
  -2  -8   2    3.74    0.75
   1   8  -2   11.91    1.13
   1   8  -2    6.57    1.20
  -1  -8   2   11.48    1.30
   0   8  -2    0.78    0.60
   0  -8   2    0.37    0.46
  -1   8  -2    7.41    1.20
   1  -8   2   11.32    1.14
  -2   8  -2    9.07    1.27
   2  -8   2    9.69    1.15
  -3   8  -2    0.69    0.67
   3  -8   2    1.82    0.61
  -4   8  -2    0.66    0.55
  -4   8  -2   -0.28    0.71
  -5   8  -2    1.22    0.84
  -5   8  -2    2.48    0.80
  -6   8  -2   -1.10    0.75
  -6   8  -2    0.38    0.70
  -7   8  -2   -0.41    0.75
  -7   8  -2    0.63    0.79
   7   7  -2    2.37    0.92
  -7  -7   2    1.61    0.82
   6   7  -2    0.30    0.73
  -6  -7   2    0.14    0.60
   5   7  -2    0.11    0.62
  -5  -7   2    0.21    0.56
   4   7  -2    0.76    0.60
  -4  -7   2    1.00    0.56
   3   7  -2    1.05    0.55
  -3  -7   2    0.47    0.53
   2   7  -2    4.94    0.82
  -2  -7   2    4.63    0.84
   1   7  -2   75.88    5.46
  -1  -7   2   67.55    5.68
   0   7  -2    0.30    0.55
   0   7  -2    0.50    0.31
   0  -7   2    0.50    0.43
  -1   7  -2    1.17    0.61
   1  -7   2    1.41    0.48
  -2   7  -2   -0.43    0.51
   2  -7   2   -0.13    0.39
  -3   7  -2   31.02    2.90
   3  -7   2   35.56    2.86
  -4   7  -2    3.47    0.95
  -4   7  -2    3.23    0.69
  -5   7  -2   18.23    1.80
  -5   7  -2   16.64    1.97
  -6   7  -2    2.18    0.81
  -6   7  -2    1.80    0.88
  -7   7  -2    0.39    0.75
  -7   7  -2    1.38    0.82
   7   6  -2    0.18    0.77
  -7  -6   2    0.13    0.67
   6   6  -2    0.08    0.66
  -6  -6   2   -0.45    0.53
  -5  -6   2   -0.29    0.50
  -4  -6   2    0.59    0.50
  -3  -6   2    3.10    0.70
   2   6  -2    8.28    1.08
  -2  -6   2   10.24    1.10
   1   6  -2   10.13    1.02
  -1  -6   2    8.07    1.04
   0   6  -2    1.07    0.33
   0   6  -2    0.15    0.47
   0  -6   2    0.25    0.39
  -1   6  -2   20.40    1.87
   1  -6   2   19.74    1.75
  -2   6  -2    3.07    0.76
   2  -6   2    4.03    0.63
  -3   6  -2    1.07    0.65
   3  -6   2    2.69    0.57
  -4   6  -2    5.83    1.10
  -4   6  -2    7.04    0.93
  -5   6  -2   19.37    1.89
  -5   6  -2   19.94    2.07
  -6   6  -2    0.00    0.67
  -6   6  -2    0.48    0.63
  -7   6  -2    2.86    0.90
  -7   6  -2    0.40    0.72
  -8   6  -2    0.32    0.84
   8   5  -2   -0.34    0.75
  -8  -5   2   -0.58    0.72
   7   5  -2    0.11    0.70
  -7  -5   2   -0.06    0.62
  -6  -5   2    0.71    0.62
  -5  -5   2    0.74    0.56
  -4  -5   2    1.19    0.54
  -3  -5   2    1.44    0.51
   2   5  -2    7.11    0.93
  -2  -5   2    7.59    0.94
   1   5  -2   33.21    2.67
  -1  -5   2   34.36    2.79
   0   5  -2    2.19    0.51
   0   5  -2    1.89    0.37
   0  -5   2    2.64    0.49
  -1   5  -2   20.84    1.66
  -1   5  -2   22.04    1.88
   1  -5   2   23.58    1.86
  -2   5  -2   16.47    1.73
   2  -5   2   21.42    1.68
  -3   5  -2   12.47    1.39
   3  -5   2   11.66    1.17
  -4   5  -2    2.19    0.60
  -4   5  -2    2.86    0.84
  -5   5  -2    1.95    0.66
  -5   5  -2    1.54    0.71
  -6   5  -2    0.15    0.54
  -6   5  -2   -0.44    0.53
  -7   5  -2    6.92    1.05
  -7   5  -2    7.11    1.19
  -8   5  -2   -0.16    0.73
   8   4  -2   -0.11    0.79
  -8  -4   2    0.30    0.79
   7   4  -2   -0.07    0.66
  -7  -4   2   -0.55    0.57
  -6  -4   2   -0.48    0.51
  -5  -4   2    1.95    0.65
  -4  -4   2    8.33    1.09
  -3  -4   2    3.11    0.64
  -2  -4   2   17.84    1.60
   1   4  -2   24.02    1.94
  -1  -4   2   23.84    1.99
   0   4  -2    0.41    0.33
   0   4  -2    0.52    0.25
   0  -4   2    0.04    0.26
  -1   4  -2  116.59    8.22
  -1   4  -2  110.58    8.23
   1  -4   2  112.52    8.62
  -2   4  -2   -0.13    0.37
   2  -4   2   -0.01    0.25
  -3   4  -2    2.21    0.66
  -3   4  -2    2.44    0.45
  -4   4  -2   10.00    1.19
  -4   4  -2    7.10    0.95
  -5   4  -2    0.82    0.54
  -5   4  -2    0.20    0.51
  -6   4  -2    0.08    0.55
  -6   4  -2   -0.48    0.44
  -7   4  -2   -0.09    0.62
  -7   4  -2    0.16    0.46
  -8   4  -2   -0.45    0.72
  -9   4  -2   -0.43    0.88
   8   3  -2    0.96    0.82
  -8  -3   2    1.91    0.85
   7   3  -2    0.04    0.67
  -7  -3   2   -0.55    0.58
  -6  -3   2    4.07    0.88
  -5  -3   2    4.02    0.77
  -4  -3   2    0.57    0.46
  -3  -3   2   20.57    1.83
  -2  -3   2   12.41    1.18
   1   3  -2    7.03    0.74
  -1  -3   2    6.05    0.69
   0   3  -2   28.82    2.14
   0   3  -2   28.52    2.11
   0  -3   2   25.36    2.19
  -1   3  -2   94.98    7.20
  -1   3  -2  106.95    7.19
   1  -3   2   96.37    7.52
  -2   3  -2    0.05    0.35
   2  -3   2   -0.05    0.20
  -3   3  -2   45.09    3.50
  -3   3  -2   43.83    3.46
  -4   3  -2   10.43    1.19
  -4   3  -2   10.60    1.12
  -5   3  -2    3.79    0.71
  -5   3  -2    1.92    0.67
  -6   3  -2    3.78    0.83
  -6   3  -2    3.64    0.66
  -7   3  -2    1.44    0.48
  -7   3  -2    1.04    0.70
  -8   3  -2   -0.90    0.68
  -9   3  -2   -1.07    0.79
   8   2  -2   -0.03    0.77
  -8  -2   2   -1.52    0.64
   7   2  -2    0.48    0.71
  -7  -2   2   -0.03    0.65
  -6  -2   2    0.18    0.55
  -5  -2   2    0.34    0.48
  -4  -2   2    0.29    0.46
  -3  -2   2    0.25    0.33
  -2  -2   2   26.42    2.17
   1   2  -2   24.95    1.89
  -1  -2   2   22.68    1.93
   0   2  -2   30.00    2.12
   0   2  -2   28.68    2.11
   0  -2   2   25.19    2.17
  -1   2  -2   44.16    3.07
  -1   2  -2   41.58    3.01
   1  -2   2   37.84    3.14
  -2   2  -2    4.35    0.61
   2  -2   2    4.39    0.47
  -3   2  -2    3.91    0.59
  -3   2  -2    3.21    0.50
  -4   2  -2    1.40    0.48
  -4   2  -2    1.89    0.46
  -5   2  -2   20.87    1.79
  -5   2  -2   21.26    1.91
  -6   2  -2    3.01    0.56
  -6   2  -2    3.30    0.73
  -7   2  -2    7.54    1.13
  -7   2  -2    5.15    0.78
  -8   2  -2   -0.78    0.64
  -9   2  -2    0.26    0.90
   8   1  -2    0.25    0.75
  -8  -1   2    0.37    0.78
   7   1  -2    0.83    0.73
  -7  -1   2    2.42    0.82
  -6  -1   2    9.43    1.28
  -5  -1   2    2.63    0.69
  -4  -1   2   -0.12    0.12
  -4  -1   2   -0.80    0.38
  -3  -1   2    2.42    0.28
  -3  -1   2    2.73    0.51
  -2  -1   2    4.74    0.60
   1   1  -2   28.06    2.14
  -1  -1   2   26.84    2.18
   0   1  -2    6.69    0.66
   0   1  -2    6.08    0.62
   0  -1   2    6.94    0.60
  -1   1  -2    6.25    0.49
  -1   1  -2    6.98    0.65
   1  -1   2    4.68    0.48
  -2   1  -2   42.63    3.01
  -2   1  -2   34.55    2.91
  -3   1  -2    9.88    0.95
  -3   1  -2   10.91    0.97
  -4   1  -2    1.85    0.42
  -4   1  -2    1.69    0.49
  -5   1  -2    0.65    0.48
  -5   1  -2    0.66    0.33
  -6   1  -2   -0.24    0.30
  -6   1  -2   -0.41    0.49
  -7   1  -2    6.30    1.02
  -7   1  -2    4.50    0.68
  -8   1  -2   -0.98    0.66
  -9   1  -2   -0.32    0.80
   8   0  -2   -0.51    0.65
  -8   0   2   -0.51    0.72
   7   0  -2    1.09    0.71
  -7   0   2    0.34    0.67
   6   0  -2   -0.10    0.56
  -6   0   2   -0.60    0.52
  -5   0   2   11.06    1.32
  -4   0   2   21.96    1.82
  -4   0   2   19.25    1.48
  -3   0   2    0.36    0.34
   2   0  -2    0.50    0.28
  -2   0   2    0.75    0.30
   1   0  -2   17.14    1.68
  -1   0   2   25.94    1.74
   0   0  -2  122.91    8.65
   0   0  -2  113.20    8.44
   0   0   2  120.17    8.94
  -1   0  -2  166.52   11.33
  -1   0  -2  152.25   11.55
  -2   0  -2   35.79    2.83
  -2   0  -2   38.12    2.72
  -3   0  -2   10.23    0.94
  -3   0  -2   10.72    0.90
  -4   0  -2   19.53    1.54
  -4   0  -2   18.55    1.66
  -5   0  -2    0.00    0.45
  -5   0  -2    0.19    0.27
  -6   0  -2   -0.08    0.30
  -6   0  -2   -0.53    0.51
  -7   0  -2    0.32    0.32
  -7   0  -2   -0.73    0.54
  -8   0  -2   -1.12    0.61
  -9   0  -2   -0.48    0.75
   8  -1  -2    0.19    0.67
  -8   1   2    0.58    0.80
   7  -1  -2    0.08    0.59
  -7   1   2    0.08    0.65
   6  -1  -2    2.14    0.66
  -6   1   2    2.37    0.74
   5  -1  -2    0.73    0.52
  -5   1   2    0.14    0.52
   4  -1  -2   27.87    2.31
  -4   1   2   27.50    2.37
   3  -1  -2   -0.20    0.28
  -3   1   2    0.62    0.36
   2  -1  -2   24.71    1.98
  -2   1   2   25.57    2.05
   1  -1  -2  131.72   10.81
  -1   1   2  164.91   11.22
   0  -1  -2   61.31    4.76
   0  -1  -2   68.79    4.63
   0   1   2   64.47    4.91
  -1  -1  -2   42.98    3.33
  -1  -1  -2   47.82    3.27
  -2  -1  -2   10.03    0.84
  -2  -1  -2   10.32    0.88
  -3  -1  -2    0.65    0.22
  -3  -1  -2    0.72    0.28
  -4  -1  -2   91.34    6.33
  -4  -1  -2   83.31    6.72
  -5  -1  -2    0.15    0.45
  -5  -1  -2    0.07    0.26
  -6  -1  -2    9.61    1.22
  -6  -1  -2    9.31    0.96
  -7  -1  -2    2.13    0.47
  -7  -1  -2    3.03    0.76
  -8  -1  -2   -1.05    0.62
  -9  -1  -2   -0.68    0.75
   8  -2  -2   -0.31    0.64
  -8   2   2    0.31    0.78
   7  -2  -2    2.38    0.73
  -7   2   2    3.24    0.90
   6  -2  -2    5.67    0.93
  -6   2   2    7.92    1.11
   5  -2  -2    0.33    0.46
  -5   2   2    0.10    0.52
   4  -2  -2    2.61    0.53
  -4   2   2    2.33    0.35
  -4   2   2    2.60    0.63
   3  -2  -2   17.38    1.30
  -3   2   2   13.32    1.12
  -3   2   2   14.05    1.33
   2  -2  -2   43.18    3.05
  -2   2   2   40.76    3.16
  -2   2   2   37.13    2.90
   1  -2  -2  637.22   43.07
  -1   2   2  553.85   44.71
   0  -2  -2  257.99   20.04
   0  -2  -2  297.56   20.48
   0  -2  -2  293.26   21.26
  -1  -2  -2    7.56    0.62
  -2  -2  -2   21.28    1.72
  -2  -2  -2   25.04    1.84
  -3  -2  -2    5.98    0.65
  -3  -2  -2    4.89    0.53
  -4  -2  -2   48.73    3.53
  -4  -2  -2   46.52    3.77
  -5  -2  -2   10.99    1.18
  -5  -2  -2   11.07    1.02
  -6  -2  -2  101.30    7.65
  -6  -2  -2   94.19    7.10
  -7  -2  -2    0.05    0.29
  -7  -2  -2   -0.19    0.53
  -8  -2  -2    0.48    0.68
  -9  -2  -2   -0.60    0.75
  -8   3   2    0.95    0.86
   7  -3  -2   -0.28    0.52
  -7   3   2   -1.15    0.61
   6  -3  -2    1.06    0.51
  -6   3   2   -0.22    0.57
   5  -3  -2    0.43    0.45
  -5   3   2    0.96    0.56
   4  -3  -2    1.81    0.49
  -4   3   2    1.49    0.60
  -4   3   2    1.98    0.38
   3  -3  -2    4.50    0.57
  -3   3   2    3.31    0.49
  -3   3   2    3.53    0.62
   2  -3  -2    4.05    0.51
  -2   3   2    4.50    0.51
  -2   3   2    4.35    0.57
   1  -3  -2   19.89    1.85
   1  -3  -2   27.05    1.78
   0  -3  -2   93.19    6.79
   0  -3  -2   99.97    7.09
   0  -3  -2   87.15    6.68
  -1  -3  -2   36.02    2.67
  -1  -3  -2   32.49    2.52
  -2  -3  -2   14.70    1.27
  -2  -3  -2   15.94    1.20
  -3  -3  -2    5.11    0.63
  -3  -3  -2    4.41    0.48
  -4  -3  -2    5.40    0.61
  -4  -3  -2    5.88    0.77
  -5  -3  -2    0.21    0.25
  -5  -3  -2    0.98    0.46
  -6  -3  -2    4.71    0.81
  -6  -3  -2    3.60    0.57
  -7  -3  -2    0.30    0.32
  -7  -3  -2    0.31    0.55
  -8  -3  -2   13.33    1.66
  -9  -3  -2    0.45    0.76
  -8   4   2    0.09    0.79
  -7   4   2    4.55    0.99
   6  -4  -2    0.73    0.48
  -6   4   2    0.64    0.62
   5  -4  -2   -0.48    0.37
  -5   4   2   -0.64    0.48
   4  -4  -2    1.67    0.47
  -4   4   2    1.64    0.44
  -4   4   2    2.18    0.60
   3  -4  -2   21.68    1.80
  -3   4   2   23.40    1.94
   2  -4  -2   31.82    2.36
  -2   4   2   26.66    2.38
  -2   4   2   34.40    2.51
   1  -4  -2   68.66    5.43
   1  -4  -2   73.01    5.18
   0  -4  -2    7.49    0.70
  -1  -4  -2   11.72    0.99
  -1  -4  -2   10.63    0.93
  -2  -4  -2    3.48    0.45
  -2  -4  -2    3.55    0.49
  -3  -4  -2    7.95    0.73
  -3  -4  -2    7.17    0.79
  -4  -4  -2    0.17    0.38
  -4  -4  -2    0.30    0.23
  -5  -4  -2   13.41    1.34
  -5  -4  -2   12.35    1.13
  -6  -4  -2    0.05    0.29
  -6  -4  -2   -0.11    0.48
  -7  -4  -2    2.34    0.74
  -7  -4  -2    3.42    0.59
  -8  -4  -2    5.62    1.04
  -9  -4  -2    0.23    0.76
  -8   5   2    0.39    0.80
  -7   5   2   11.20    1.49
  -6   5   2    0.20    0.64
  -5   5   2   24.84    2.28
   4  -5  -2    1.37    0.42
  -4   5   2    1.01    0.56
  -4   5   2    1.32    0.52
   3  -5  -2    2.01    0.36
  -3   5   2    1.82    0.53
  -3   5   2    0.98    0.49
   2  -5  -2    3.35    0.54
   2  -5  -2    3.79    0.37
  -2   5   2    3.34    0.60
   1  -5  -2   84.41    5.85
   1  -5  -2   75.39    6.16
   0  -5  -2    8.03    0.78
  -1  -5  -2   42.84    3.55
  -1  -5  -2   47.97    3.37
  -2  -5  -2    4.76    0.56
  -2  -5  -2    4.33    0.61
  -3  -5  -2    8.41    0.79
  -3  -5  -2    7.13    0.87
  -4  -5  -2    0.26    0.27
  -4  -5  -2    0.36    0.36
  -5  -5  -2    0.53    0.35
  -5  -5  -2    0.43    0.46
  -6  -5  -2    0.76    0.39
  -6  -5  -2   -0.45    0.40
  -7  -5  -2    0.80    0.60
  -7  -5  -2    0.62    0.44
  -8  -5  -2    0.22    0.66
  -9  -5  -2   -0.41    0.69
  -8   6   2    0.44    0.86
  -7   6   2    3.26    1.00
  -6   6   2    2.59    0.83
  -4   6   2    0.85    0.53
  -4   6   2    0.76    0.54
  -3   6   2   16.09    1.51
  -3   6   2   15.21    1.53
   2  -6  -2    0.27    0.35
  -2   6   2   -0.36    0.39
   1  -6  -2    4.48    0.61
   0  -6  -2    0.40    0.28
  -1  -6  -2   58.08    4.55
  -2  -6  -2    0.53    0.27
  -2  -6  -2    0.66    0.34
  -3  -6  -2    8.29    0.89
  -3  -6  -2    7.24    0.79
  -4  -6  -2    2.32    0.56
  -4  -6  -2    2.02    0.44
  -5  -6  -2    1.14    0.50
  -5  -6  -2    0.47    0.32
  -6  -6  -2    0.34    0.49
  -6  -6  -2    0.38    0.37
  -7  -6  -2    1.69    0.67
  -7  -6  -2    1.30    0.46
  -8  -6  -2    0.29    0.64
  -9  -6  -2   -0.12    0.72
  -7   7   2    0.60    0.83
  -6   7   2    6.16    1.13
  -5   7   2   10.55    1.40
  -4   7   2   11.94    1.36
  -4   7   2   11.10    1.38
  -3   7   2    7.46    1.01
  -3   7   2    8.47    1.10
   2  -7  -2    1.56    0.50
  -2   7   2    1.72    0.59
   1  -7  -2    6.88    0.85
   0  -7  -2    2.73    0.51
  -1  -7  -2    0.15    0.34
  -2  -7  -2    0.36    0.36
  -3  -7  -2    2.90    0.59
  -3  -7  -2    1.89    0.44
  -4  -7  -2    2.14    0.47
  -4  -7  -2    1.35    0.50
  -5  -7  -2    2.71    0.65
  -5  -7  -2    2.30    0.53
  -6  -7  -2    0.49    0.40
  -6  -7  -2    0.16    0.51
  -7  -7  -2    0.34    0.57
  -7  -7  -2    0.01    0.41
  -8  -7  -2    0.42    0.67
  -7   8   2    0.75    0.87
  -6   8   2   -0.25    0.73
  -5   8   2    0.43    0.70
  -4   8   2    0.75    0.63
  -4   8   2    1.06    0.70
  -3   8   2    0.85    0.57
  -3   8   2    2.04    0.62
   2  -8  -2    4.02    0.71
  -2   8   2    1.81    0.67
   1  -8  -2    2.35    0.55
   0  -8  -2    0.63    0.41
  -1  -8  -2    3.71    0.66
  -2  -8  -2    0.02    0.41
  -3  -8  -2    2.54    0.60
  -4  -8  -2    0.21    0.45
  -5  -8  -2   -0.57    0.43
  -6  -8  -2    0.38    0.52
  -7  -8  -2   -0.12    0.57
  -8  -8  -2   -0.25    0.62
  -6   9   2    1.00    0.87
  -5   9   2    5.80    1.17
  -4   9   2    0.48    0.70
  -4   9   2   -0.64    0.52
   3  -9  -2    0.16    0.56
  -3   9   2    0.68    0.59
  -3   9   2   -0.17    0.48
   2  -9  -2    1.36    0.60
  -2   9   2    2.96    0.74
   1  -9  -2    0.87    0.46
   0  -9  -2    6.33    0.87
  -1  -9  -2    6.33    0.88
  -2  -9  -2    0.33    0.43
  -3  -9  -2    1.32    0.58
  -4  -9  -2    0.30    0.52
  -5  -9  -2    2.60    0.75
  -6  -9  -2   -0.72    0.52
  -7  -9  -2   -0.24    0.59
  -6  10   2   -0.48    0.83
  -5  10   2    1.23    0.87
  -4  10   2    0.36    0.67
  -4  10   2   -0.44    0.56
   3 -10  -2   -0.15    0.56
  -3  10   2    0.46    0.57
   2 -10  -2    0.57    0.54
  -2  10   2    0.18    0.55
   1 -10  -2    0.01    0.44
  -1  10   2    1.23    0.61
   0 -10  -2    2.17    0.61
  -1 -10  -2   12.92    1.37
  -2 -10  -2    4.55    0.83
  -3 -10  -2    0.32    0.54
  -4 -10  -2    0.99    0.61
  -5 -10  -2    2.20    0.77
  -6 -10  -2    0.51    0.70
  -7 -10  -2    6.27    1.19
  -5  11   2    0.72    0.85
  -4  11   2    0.06    0.75
  -4  11   2    0.12    0.63
   3 -11  -2    0.16    0.70
  -3  11   2   -0.45    0.53
   2 -11  -2   -0.10    0.58
  -2  11   2   -0.74    0.53
   1 -11  -2    5.55    0.94
  -1  11   2    5.74    1.07
   0 -11  -2    7.27    1.04
  -1 -11  -2    0.26    0.51
  -2 -11  -2   -0.29    0.49
  -3 -11  -2    0.47    0.59
  -4 -11  -2    3.34    0.86
  -5 -11  -2    0.64    0.67
  -6 -11  -2    1.99    0.89
  -4  12   2   -0.91    0.67
  -4  12   2   -0.26    0.74
   3 -12  -2    0.37    0.76
  -3  12   2   -0.14    0.65
   2 -12  -2    0.65    0.72
  -2  12   2    0.30    0.62
   1 -12  -2   -0.06    0.57
  -1  12   2    0.23    0.65
   0 -12  -2    2.44    0.70
   0  12   2    3.51    0.91
  -1 -12  -2    3.36    0.78
  -2 -12  -2   -0.28    0.54
  -3 -12  -2    0.13    0.61
  -4 -12  -2    0.86    0.72
  -5 -12  -2   -0.27    0.71
   3 -13  -2    1.72    0.98
  -3  13   2    3.00    0.90
  -3  13   2    1.70    0.82
   2 -13  -2    0.16    0.73
  -2  13   2    0.62    0.74
   1 -13  -2    2.42    0.80
  -1  13   2    1.70    0.86
   0 -13  -2    0.30    0.63
   0  13   2   -0.03    0.76
  -1 -13  -2    0.99    0.69
  -2 -13  -2   -0.22    0.60
  -3 -13  -2    1.79    0.76
  -4 -13  -2    0.13    0.76
   1 -14  -2    1.01    0.76
  -1  14   2    1.26    0.84
   0 -14  -2    1.22    0.75
   0  14   2    1.02    0.81
  -1 -14  -2    1.27    0.76
   1  14   2    0.40    0.73
  -2 -14  -2    1.28    0.75
   2  12  -3    0.62    0.85
  -2 -12   3    0.24    0.70
   1  12  -3   -0.43    0.78
  -1 -12   3   -0.52    0.59
   0  12  -3    0.78    0.81
   0 -12   3    1.09    0.69
  -1  12  -3    0.76    0.76
   1 -12   3    0.54    0.68
  -2  12  -3    3.03    1.07
   2 -12   3    4.76    0.95
   3 -12   3    1.35    0.83
   3  11  -3    0.26    0.67
  -3 -11   3    0.42    0.72
   2  11  -3    0.60    0.70
  -2 -11   3   -0.24    0.60
   1  11  -3    0.10    0.70
  -1 -11   3   -0.18    0.57
   0  11  -3    1.43    0.77
   0 -11   3    0.23    0.57
  -1  11  -3   -0.42    0.66
   1 -11   3    0.44    0.61
  -2  11  -3    2.55    0.96
   2 -11   3    4.98    0.92
  -3  11  -3   -0.30    0.74
   3 -11   3    0.82    0.71
  -4  11  -3    3.55    0.81
  -4  11  -3    2.64    1.07
  -5 -10   3    0.35    0.75
   4  10  -3   -0.08    0.62
  -4 -10   3   -0.09    0.65
   3  10  -3   -0.24    0.60
  -3 -10   3    0.21    0.64
   2  10  -3    0.16    0.60
  -2 -10   3    0.00    0.64
   1  10  -3   -0.26    0.57
  -1 -10   3   -0.18    0.54
   0  10  -3   -0.64    0.56
   0 -10   3    0.48    0.52
  -1  10  -3    0.65    0.66
   1 -10   3    0.26    0.48
  -2  10  -3   -0.44    0.59
   2 -10   3   -0.02    0.52
  -3  10  -3   -0.17    0.65
   3 -10   3   -0.24    0.59
  -4  10  -3    0.79    0.58
  -4  10  -3    0.53    0.80
   4 -10   3   -0.04    0.69
  -5  10  -3    1.07    0.70
  -5  10  -3   -0.18    0.77
   5   9  -3    0.45    0.74
  -5  -9   3   -0.47    0.65
   4   9  -3    0.53    0.72
   4   9  -3    1.12    0.66
  -4  -9   3    2.10    0.78
   3   9  -3    1.47    0.73
   3   9  -3    2.05    0.71
  -3  -9   3    3.25    0.83
   2   9  -3   -0.64    0.52
  -2  -9   3    0.03    0.52
   1   9  -3    2.02    0.74
  -1  -9   3    2.24    0.68
   0   9  -3    0.03    0.60
   0  -9   3    0.27    0.47
  -1   9  -3    1.07    0.65
   1  -9   3    0.58    0.49
  -2   9  -3    0.03    0.61
   2  -9   3    0.46    0.50
  -3   9  -3   -0.38    0.63
   3  -9   3    1.35    0.63
  -4   9  -3   -0.44    0.67
  -4   9  -3    0.63    0.50
   4  -9   3   -0.70    0.61
  -5   9  -3    0.65    0.69
  -5   9  -3   -0.78    0.72
  -6   9  -3    0.93    0.89
   6   8  -3    0.72    0.84
  -6  -8   3    1.24    0.74
   5   8  -3    1.54    0.82
  -5  -8   3    0.93    0.65
   4   8  -3    3.91    0.96
  -4  -8   3    5.58    0.98
   3   8  -3    3.91    0.82
   3   8  -3    3.92    0.88
  -3  -8   3    4.98    0.95
   2   8  -3    1.63    0.67
   2   8  -3    2.14    0.65
  -2  -8   3    2.09    0.66
   1   8  -3    0.98    0.63
  -1  -8   3    1.15    0.57
   0   8  -3    1.90    0.69
   0  -8   3    1.48    0.54
  -1   8  -3    7.55    1.15
   1  -8   3    8.82    1.07
  -2   8  -3    0.78    0.58
   2  -8   3    0.06    0.46
  -3   8  -3    1.25    0.71
   3  -8   3    1.55    0.61
  -4   8  -3    0.70    0.77
  -4   8  -3    1.52    0.55
  -5   8  -3   -0.26    0.60
  -5   8  -3   -0.22    0.70
  -6   8  -3   -0.72    0.68
  -6   8  -3   -0.52    0.81
  -7   8  -3   -0.72    0.80
  -7  -7   3    1.52    0.85
   6   7  -3    1.82    0.86
  -6  -7   3    1.22    0.73
   5   7  -3   -0.29    0.63
  -5  -7   3    0.22    0.56
   4   7  -3    0.42    0.63
  -4  -7   3   -0.29    0.53
   3   7  -3   12.49    1.51
  -3  -7   3   13.48    1.46
   2   7  -3   -0.30    0.46
   2   7  -3   -0.02    0.51
  -2  -7   3   -0.65    0.45
   1   7  -3   46.71    3.66
  -1  -7   3   46.37    3.84
   0   7  -3   24.24    2.12
   0   7  -3   19.92    1.78
   0  -7   3   24.37    2.01
  -1   7  -3    1.01    0.62
   1  -7   3    2.44    0.57
  -2   7  -3    0.09    0.56
   2  -7   3    1.00    0.47
  -3   7  -3    8.93    1.31
   3  -7   3    9.08    1.12
  -4   7  -3    0.52    0.50
  -4   7  -3    0.68    0.69
  -5   7  -3    1.14    0.76
  -5   7  -3    1.67    0.67
  -6   7  -3    4.37    0.93
  -6   7  -3    2.33    0.97
  -7   7  -3   -0.91    0.68
   7   6  -3    0.95    0.88
  -7  -6   3    0.59    0.77
   6   6  -3   -0.40    0.64
  -6  -6   3   -0.16    0.59
   5   6  -3    1.14    0.73
  -5  -6   3    1.34    0.65
   4   6  -3   -0.28    0.54
  -4  -6   3    0.28    0.51
   3   6  -3   -0.23    0.49
  -3  -6   3    0.00    0.42
   2   6  -3    1.07    0.55
  -2  -6   3    1.17    0.53
   1   6  -3    3.26    0.76
   1   6  -3    5.70    0.77
  -1  -6   3    4.48    0.75
   0   6  -3    3.00    0.47
   0   6  -3    2.18    0.67
   0  -6   3    4.20    0.67
  -1   6  -3    1.02    0.29
  -1   6  -3    0.88    0.56
   1  -6   3    2.08    0.50
  -2   6  -3    3.56    0.78
   2  -6   3    5.37    0.72
  -3   6  -3    1.07    0.66
   3  -6   3    0.77    0.48
  -4   6  -3    3.41    0.64
  -4   6  -3    1.83    0.83
  -5   6  -3   18.35    1.76
  -5   6  -3   17.00    1.99
  -6   6  -3    0.20    0.62
  -6   6  -3    1.04    0.73
  -7   6  -3    7.74    1.36
  -7   6  -3   10.83    1.46
   7   5  -3    2.32    0.92
   6   5  -3    0.79    0.70
  -6  -5   3    0.39    0.63
   5   5  -3   -0.03    0.55
  -5  -5   3    1.82    0.65
   4   5  -3    2.59    0.72
  -4  -5   3    2.08    0.65
   3   5  -3    0.75    0.50
  -3  -5   3    1.12    0.52
   2   5  -3   34.51    2.85
  -2  -5   3   34.48    2.90
   1   5  -3   11.83    1.11
   1   5  -3   10.48    1.18
  -1  -5   3   10.10    1.11
   0   5  -3   33.01    2.58
   0   5  -3   29.56    2.44
   0  -5   3   32.32    2.59
  -1   5  -3   -0.25    0.20
  -1   5  -3    0.52    0.46
   1  -5   3   -0.13    0.28
  -2   5  -3   12.87    1.46
  -2   5  -3   13.96    1.09
   2  -5   3   14.83    1.29
  -3   5  -3   13.16    1.60
   3  -5   3   16.31    1.42
  -4   5  -3    5.70    1.07
  -4   5  -3    6.01    0.84
  -5   5  -3    5.60    1.07
  -5   5  -3    5.31    0.90
  -6   5  -3   -0.58    0.53
  -6   5  -3   -0.45    0.56
  -7   5  -3    8.58    1.25
  -7   5  -3    9.15    1.34
   8   4  -3   -0.56    0.86
  -8  -4   3   -1.03    0.74
   7   4  -3   -0.56    0.69
  -7  -4   3    0.03    0.67
   6   4  -3    1.29    0.73
  -6  -4   3    2.42    0.77
   5   4  -3    2.40    0.78
  -5  -4   3    3.17    0.78
   4   4  -3    0.76    0.53
  -4  -4   3    0.29    0.47
   3   4  -3    0.09    0.48
  -3  -4   3    1.90    0.55
   2   4  -3   10.76    1.19
  -2  -4   3   11.72    1.17
   1   4  -3   -0.21    0.29
   1   4  -3   -0.14    0.31
  -1  -4   3    0.55    0.31
   0   4  -3    0.07    0.33
   0   4  -3    0.42    0.26
   0  -4   3    0.42    0.28
  -1   4  -3   -0.05    0.37
  -1   4  -3   -0.01    0.19
   1  -4   3    0.31    0.26
  -2   4  -3    1.08    0.55
  -2   4  -3    3.39    0.34
   2  -4   3    3.17    0.47
  -3   4  -3    4.15    0.85
   3  -4   3    6.27    0.72
  -4   4  -3    0.46    0.44
  -4   4  -3    0.04    0.58
  -5   4  -3   20.97    1.87
  -5   4  -3   16.25    1.69
  -6   4  -3   -0.37    0.51
  -6   4  -3   -0.20    0.53
  -7   4  -3    0.69    0.65
  -7   4  -3    1.02    0.54
  -8   4  -3   -0.87    0.74
   8   3  -3   -1.37    0.75
  -8  -3   3   -0.39    0.76
   7   3  -3    0.93    0.80
  -7  -3   3   -0.09    0.63
   6   3  -3   -0.48    0.65
  -6  -3   3    1.01    0.62
   5   3  -3    0.94    0.64
  -5  -3   3    2.29    0.67
   4   3  -3   10.25    1.30
  -4  -3   3   10.15    1.25
   3   3  -3    1.80    0.54
  -3  -3   3    0.29    0.42
   2   3  -3    1.70    0.47
  -2  -3   3    1.93    0.47
   1   3  -3   32.96    2.62
   1   3  -3   33.84    2.56
  -1  -3   3   32.73    2.68
   0   3  -3   33.46    2.53
   0   3  -3   32.78    2.54
   0  -3   3   32.44    2.62
  -1   3  -3   61.60    4.61
  -1   3  -3   65.61    4.65
   1  -3   3   60.91    4.80
  -2   3  -3    7.70    0.64
  -2   3  -3    7.23    0.90
   2  -3   3    7.35    0.71
  -3   3  -3    7.21    0.75
  -3   3  -3    7.96    0.98
  -4   3  -3    2.35    0.65
  -4   3  -3    2.61    0.56
  -5   3  -3    0.38    0.48
  -5   3  -3    0.02    0.50
  -6   3  -3    0.28    0.54
  -6   3  -3    0.66    0.46
  -7   3  -3    1.16    0.69
  -7   3  -3    0.98    0.48
  -8   3  -3   -0.94    0.69
   8   2  -3    0.18    0.84
  -8  -2   3   -0.50    0.74
   7   2  -3   -0.04    0.75
  -7  -2   3    1.75    0.80
   6   2  -3   -0.32    0.53
  -6  -2   3    1.00    0.66
   5   2  -3    2.34    0.69
  -5  -2   3    2.56    0.70
   4   2  -3    0.72    0.53
  -4  -2   3    1.15    0.56
   3   2  -3    5.18    0.78
  -3  -2   3    5.17    0.76
   2   2  -3    1.25    0.38
  -2  -2   3    0.16    0.32
   1   2  -3   12.82    1.13
   1   2  -3   12.65    1.06
  -1  -2   3   11.96    1.12
   0   2  -3   14.92    1.25
   0   2  -3   15.11    1.22
   0  -2   3   14.32    1.23
  -1   2  -3    3.40    0.52
  -1   2  -3    3.39    0.41
   1  -2   3    3.80    0.41
  -2   2  -3   15.54    1.19
  -2   2  -3   15.81    1.38
   2  -2   3   14.68    1.24
  -3   2  -3    2.76    0.42
  -3   2  -3    2.53    0.57
  -4   2  -3    1.39    0.48
  -4   2  -3    0.30    0.39
  -5   2  -3    0.42    0.40
  -5   2  -3   -0.03    0.47
  -6   2  -3    1.53    0.61
  -6   2  -3    2.33    0.53
  -7   2  -3    0.10    0.63
  -7   2  -3   -0.13    0.37
  -8   2  -3    2.45    0.59
  -8   2  -3    3.45    0.95
  -9   2  -3   -0.74    0.84
   8   1  -3    0.74    0.82
  -8  -1   3   -0.91    0.75
   7   1  -3    0.99    0.76
  -7  -1   3   -0.62    0.61
   6   1  -3   -0.56    0.52
  -6  -1   3    0.74    0.60
   5   1  -3    1.35    0.62
  -5  -1   3    1.23    0.62
   4   1  -3    2.41    0.64
  -4  -1   3    2.62    0.62
   3   1  -3   25.27    2.28
  -3  -1   3   29.16    2.32
   2   1  -3    2.46    0.50
  -2  -1   3    3.13    0.50
   1   1  -3   51.42    3.76
   1   1  -3   48.74    3.60
  -1  -1   3   49.04    3.85
   0   1  -3   22.27    1.75
   0   1  -3   22.75    1.73
   0  -1   3   22.37    1.78
  -1   1  -3   13.36    1.13
  -1   1  -3   13.05    1.05
   1  -1   3   12.82    1.03
  -2   1  -3   12.02    0.99
  -2   1  -3   11.92    1.10
  -2   1  -3   12.60    0.98
  -3   1  -3   -0.09    0.23
  -3   1  -3   -0.63    0.24
  -4   1  -3    1.09    0.42
  -4   1  -3    1.47    0.41
  -5   1  -3    0.06    0.31
  -5   1  -3   -0.27    0.41
  -6   1  -3    0.28    0.34
  -6   1  -3    0.61    0.52
  -7   1  -3    0.23    0.38
  -7   1  -3    0.05    0.60
  -8   1  -3    0.64    0.42
  -8   1  -3    0.69    0.75
  -9   1  -3   -1.40    0.76
   8   0  -3   -0.81    0.70
  -8   0   3   -1.28    0.66
   7   0  -3    2.73    0.91
  -7   0   3    4.81    0.98
   6   0  -3    1.22    0.68
  -6   0   3   -0.37    0.58
   5   0  -3    1.94    0.67
  -5   0   3    3.77    0.78
   4   0  -3   -0.28    0.40
  -4   0   3    0.50    0.49
   3   0  -3   21.55    1.93
  -3   0   3   23.89    1.97
   2   0  -3    3.56    0.56
  -2   0   3    3.83    0.54
   1   0  -3    2.31    0.26
   1   0  -3    2.12    0.39
  -1   0   3    3.00    0.40
   0   0  -3   83.86    6.05
   0   0  -3   85.14    6.22
   0   0   3   84.63    6.40
  -1   0  -3   57.92    4.30
  -1   0  -3   58.88    4.23
  -2   0  -3    6.75    0.58
  -2   0  -3    6.09    0.65
  -3   0  -3   45.38    3.35
  -3   0  -3   44.97    3.49
  -4   0  -3    5.97    0.68
  -4   0  -3    5.33    0.69
  -5   0  -3    0.26    0.42
  -5   0  -3    0.18    0.28
  -6   0  -3    0.74    0.54
  -6   0  -3    1.18    0.40
  -7   0  -3    1.65    0.71
  -7   0  -3    1.92    0.46
  -8   0  -3    0.65    0.74
  -8   0  -3    0.81    0.39
  -9   0  -3    4.10    1.13
   8  -1  -3   -0.16    0.68
  -8   1   3   -0.41    0.73
   7  -1  -3    1.21    0.73
  -7   1   3    1.95    0.86
   6  -1  -3    0.00    0.56
  -6   1   3   -0.11    0.59
   5  -1  -3   19.65    1.85
  -5   1   3   19.08    1.88
   4  -1  -3    1.25    0.49
  -4   1   3    0.23    0.48
   3  -1  -3   47.10    3.94
  -3   1   3   55.42    4.08
   2  -1  -3    7.83    0.89
  -2   1   3   10.89    0.93
   1  -1  -3    9.54    0.88
   0  -1  -3    4.62    0.40
   0  -1  -3    4.33    0.49
   0   1   3    3.81    0.46
  -1  -1  -3    3.20    0.35
  -1  -1  -3    2.95    0.36
  -2  -1  -3    4.12    0.41
  -2  -1  -3    4.41    0.46
  -3  -1  -3   11.37    0.98
  -3  -1  -3   11.65    1.00
  -4  -1  -3    4.60    0.58
  -4  -1  -3    4.92    0.64
  -5  -1  -3    0.03    0.39
  -5  -1  -3   -0.14    0.24
  -6  -1  -3    0.92    0.36
  -6  -1  -3    1.67    0.59
  -7  -1  -3    0.36    0.59
  -7  -1  -3    1.32    0.38
  -8  -1  -3    0.76    0.74
  -8  -1  -3    0.38    0.39
  -9  -1  -3   -0.35    0.78
   8  -2  -3   -0.37    0.61
  -8   2   3    1.01    0.87
   7  -2  -3    6.73    1.10
  -7   2   3    6.96    1.27
   6  -2  -3   -0.03    0.51
  -6   2   3    0.71    0.63
   5  -2  -3    0.10    0.48
  -5   2   3   -0.26    0.56
  -4   2   3   13.59    1.39
   3  -2  -3   33.23    2.43
  -3   2   3   26.99    2.48
   2  -2  -3   44.33    3.26
  -2   2   3   40.86    3.36
   1  -2  -3  540.16   39.01
  -1   2   3  537.10   40.48
   0  -2  -3  260.77   20.67
   0  -2  -3  271.05   19.94
   0  -2  -3  288.24   19.48
   0   2   3  280.26   20.67
  -1  -2  -3   72.67    5.22
  -1  -2  -3   70.66    4.95
  -1  -2  -3   63.43    5.05
  -2  -2  -3   41.40    3.25
  -2  -2  -3   47.48    3.42
  -3  -2  -3   45.06    3.26
  -3  -2  -3   38.48    3.08
  -4  -2  -3    8.43    0.88
  -4  -2  -3    8.62    0.81
  -5  -2  -3    0.23    0.25
  -5  -2  -3   -0.02    0.38
  -6  -2  -3    3.45    0.58
  -6  -2  -3    4.19    0.78
  -7  -2  -3    1.27    0.60
  -7  -2  -3    0.96    0.38
  -8  -2  -3    8.75    1.04
  -8  -2  -3   11.41    1.43
  -9  -2  -3   -1.36    0.66
  -8   3   3   -0.86    0.75
   7  -3  -3   -0.11    0.56
  -7   3   3    0.07    0.73
  -6   3   3    5.30    1.00
   5  -3  -3   -0.35    0.40
  -5   3   3   -0.10    0.49
  -4   3   3   19.95    1.86
   3  -3  -3   15.67    1.22
  -3   3   3   11.80    1.03
  -3   3   3   11.99    1.25
   2  -3  -3   45.06    3.38
  -2   3   3   41.06    3.49
  -2   3   3   46.32    3.23
   1  -3  -3    1.08    0.25
  -1   3   3    1.06    0.29
   0  -3  -3    0.16    0.13
   0  -3  -3    0.22    0.14
   0  -3  -3    0.01    0.17
  -1  -3  -3    2.19    0.28
  -1  -3  -3    2.21    0.31
  -1  -3  -3    1.74    0.26
  -2  -3  -3    8.92    0.73
  -2  -3  -3    8.11    0.75
  -3  -3  -3   13.78    1.19
  -3  -3  -3   13.75    1.13
  -4  -3  -3    6.67    0.78
  -4  -3  -3    5.52    0.65
  -5  -3  -3   20.24    1.75
  -5  -3  -3   18.62    1.60
  -6  -3  -3    9.01    0.95
  -6  -3  -3    9.29    1.17
  -7  -3  -3    1.34    0.60
  -7  -3  -3    0.51    0.35
  -8  -3  -3   18.82    1.85
  -8  -3  -3   15.31    1.46
  -9  -3  -3    0.51    0.75
  -8   4   3    0.27    0.78
  -7   4   3    2.78    0.91
   6  -4  -3    1.00    0.53
  -6   4   3    1.92    0.73
   5  -4  -3   -0.01    0.40
  -5   4   3    0.66    0.59
   4  -4  -3    1.58    0.49
  -4   4   3    2.50    0.66
  -4   4   3    1.92    0.41
   3  -4  -3   -0.16    0.29
  -3   4   3    0.34    0.44
  -3   4   3    0.33    0.32
   2  -4  -3  107.08    7.52
  -2   4   3   97.10    7.83
   1  -4  -3   22.44    1.59
   1  -4  -3   18.47    1.67
   0  -4  -3   45.42    3.64
   0  -4  -3   48.36    3.45
   0  -4  -3   48.04    3.49
  -1  -4  -3    0.60    0.20
  -1  -4  -3    0.55    0.22
  -2  -4  -3   84.81    5.58
  -2  -4  -3   69.75    5.89
  -3  -4  -3    0.57    0.27
  -3  -4  -3    0.42    0.20
  -4  -4  -3    0.05    0.31
  -4  -4  -3    0.29    0.22
  -5  -4  -3   24.54    2.01
  -5  -4  -3   26.47    2.21
  -6  -4  -3   -0.03    0.43
  -6  -4  -3    0.39    0.29
  -7  -4  -3    3.20    0.76
  -7  -4  -3    2.36    0.49
  -8  -4  -3    1.19    0.71
  -8  -4  -3    0.53    0.42
  -9  -4  -3    0.25    0.74
  -8   5   3   -0.06    0.81
  -7   5   3    0.13    0.70
  -6   5   3    3.42    0.88
   5  -5  -3    1.78    0.51
  -5   5   3    1.11    0.64
  -4   5   3   35.54    2.70
  -4   5   3   33.36    2.94
   3  -5  -3   24.51    1.97
  -3   5   3   26.98    2.03
  -3   5   3   22.27    2.11
   2  -5  -3    4.91    0.50
  -2   5   3    3.41    0.58
  -2   5   3    3.88    0.61
   1  -5  -3    5.09    0.48
   1  -5  -3    5.07    0.61
   0  -5  -3   -0.14    0.11
   0  -5  -3    0.10    0.22
  -1  -5  -3    8.13    0.83
  -1  -5  -3   10.11    0.83
  -2  -5  -3    5.73    0.64
  -2  -5  -3    4.60    0.58
  -3  -5  -3    0.71    0.27
  -3  -5  -3    0.88    0.31
  -4  -5  -3   10.46    1.04
  -4  -5  -3    9.57    0.95
  -5  -5  -3    7.98    0.94
  -5  -5  -3   10.00    1.06
  -6  -5  -3    0.34    0.32
  -6  -5  -3    0.69    0.51
  -7  -5  -3    0.54    0.55
  -7  -5  -3   -0.07    0.38
  -8  -5  -3    0.66    0.50
  -8  -5  -3    0.86    0.68
  -9  -5  -3   -0.24    0.74
  -7   6   3    1.42    0.83
  -6   6   3    1.09    0.72
  -5   6   3    4.52    0.91
  -4   6   3    5.72    0.80
  -4   6   3    4.34    0.85
  -3   6   3   27.00    2.45
  -3   6   3   30.25    2.36
   2  -6  -3    6.79    0.69
   2  -6  -3    8.38    0.95
  -2   6   3    9.55    0.90
  -2   6   3   11.18    1.04
   1  -6  -3   13.21    1.35
   1  -6  -3   17.18    1.22
   0  -6  -3    1.58    0.38
  -1  -6  -3    0.16    0.26
  -1  -6  -3   -0.19    0.19
  -2  -6  -3    2.16    0.40
  -2  -6  -3    2.04    0.44
  -3  -6  -3    3.19    0.54
  -3  -6  -3    2.52    0.46
  -4  -6  -3    0.58    0.38
  -4  -6  -3    0.25    0.29
  -5  -6  -3    1.72    0.51
  -5  -6  -3    1.10    0.42
  -6  -6  -3    1.17    0.54
  -6  -6  -3    1.58    0.49
  -7  -6  -3    1.33    0.50
  -7  -6  -3    0.20    0.52
  -8  -6  -3    0.82    0.68
  -8  -6  -3    0.39    0.46
  -9  -6  -3    0.94    0.82
  -7   7   3    1.05    0.88
  -6   7   3    2.06    0.83
  -4   7   3    5.47    0.95
  -4   7   3    7.65    1.02
  -3   7   3   42.33    3.21
  -3   7   3   38.26    3.33
   2  -7  -3    4.68    0.76
  -2   7   3    5.02    0.81
   1  -7  -3   17.71    1.58
   0  -7  -3    1.20    0.39
  -1  -7  -3    0.20    0.32
  -2  -7  -3    7.27    0.92
  -2  -7  -3    7.75    0.85
  -3  -7  -3    5.95    0.79
  -3  -7  -3    4.13    0.64
  -4  -7  -3   -0.56    0.32
  -4  -7  -3    0.30    0.30
  -5  -7  -3    0.13    0.38
  -5  -7  -3   -0.33    0.28
  -6  -7  -3    0.17    0.47
  -6  -7  -3    0.64    0.40
  -7  -7  -3    2.19    0.60
  -7  -7  -3    3.48    0.82
  -8  -7  -3    1.87    0.75
  -7   8   3   -0.13    0.81
  -6   8   3   -0.49    0.74
  -5   8   3    1.18    0.73
  -4   8   3   10.61    1.28
  -4   8   3    8.11    1.24
  -3   8   3   16.55    1.68
  -3   8   3   18.43    1.72
   2  -8  -3   18.61    1.77
  -2   8   3   20.54    1.86
   1  -8  -3   43.64    3.53
   0  -8  -3    4.84    0.71
  -1  -8  -3   10.55    1.09
  -2  -8  -3   -0.66    0.35
  -3  -8  -3   -0.13    0.28
  -3  -8  -3    0.04    0.39
  -4  -8  -3   -0.09    0.32
  -4  -8  -3   -0.01    0.41
  -5  -8  -3    0.76    0.52
  -5  -8  -3    1.67    0.49
  -6  -8  -3   -0.03    0.34
  -6  -8  -3    0.40    0.48
  -7  -8  -3    0.24    0.46
  -7  -8  -3    0.07    0.51
  -8  -8  -3   -0.23    0.60
  -6   9   3    2.53    0.98
  -5   9   3    0.68    0.75
  -4   9   3    0.11    0.58
  -4   9   3    0.77    0.72
  -3   9   3    2.49    0.73
  -3   9   3    3.29    0.78
   2  -9  -3    4.76    0.82
  -2   9   3    4.59    0.88
   1  -9  -3    4.89    0.80
   0  -9  -3   15.73    1.51
  -1  -9  -3    8.70    1.06
  -2  -9  -3    0.45    0.43
  -3  -9  -3   12.91    1.37
  -4  -9  -3    1.77    0.61
  -5  -9  -3    1.24    0.62
  -6  -9  -3    0.61    0.60
  -7  -9  -3   -0.11    0.60
  -8  -9  -3    0.00    0.63
  -6  10   3    2.45    1.02
  -5  10   3    2.55    0.97
  -4  10   3    0.07    0.69
  -4  10   3    0.45    0.65
  -3  10   3    0.87    0.64
  -3  10   3    1.43    0.71
   2 -10  -3    2.12    0.68
  -2  10   3    0.87    0.61
   1 -10  -3    1.08    0.51
   0 -10  -3    4.60    0.76
  -1 -10  -3    4.15    0.74
  -2 -10  -3    2.51    0.64
  -3 -10  -3    1.69    0.59
  -4 -10  -3    0.80    0.55
  -5 -10  -3    0.56    0.57
  -6 -10  -3   -0.09    0.62
  -7 -10  -3    0.68    0.71
  -5  11   3    1.09    0.92
  -4  11   3    0.85    0.81
  -4  11   3    0.28    0.69
  -3  11   3   -0.46    0.53
  -3  11   3   -0.80    0.56
   2 -11  -3    0.31    0.58
  -2  11   3   -0.13    0.55
   1 -11  -3    2.81    0.72
  -1  11   3    3.20    0.83
   0 -11  -3    2.16    0.62
  -1 -11  -3    0.59    0.48
  -2 -11  -3    2.50    0.65
  -3 -11  -3    0.90    0.57
  -4 -11  -3    0.07    0.59
  -5 -11  -3    0.71    0.64
  -6 -11  -3    0.45    0.67
  -4  12   3    0.16    0.87
  -3  12   3    2.37    0.86
  -3  12   3    1.95    0.78
   2 -12  -3    0.34    0.63
  -2  12   3    0.44    0.63
   1 -12  -3    0.34    0.55
  -1  12   3   -0.12    0.60
   0 -12  -3    1.31    0.57
  -1 -12  -3    0.76    0.54
  -2 -12  -3    0.47    0.53
  -3 -12  -3   -0.27    0.53
  -4 -12  -3    1.75    0.74
  -5 -12  -3    0.73    0.69
  -6 -12  -3    1.78    0.80
  -3  13   3    0.93    0.69
  -3  13   3   -0.10    0.73
   2 -13  -3   -0.16    0.68
  -2  13   3   -0.37    0.59
   1 -13  -3    1.15    0.70
  -1  13   3   -0.45    0.67
   0 -13  -3    0.02    0.53
   0  13   3    0.09    0.61
  -1 -13  -3    0.48    0.58
  -2 -13  -3    0.72    0.59
  -3 -13  -3    0.25    0.65
  -4 -13  -3    0.11    0.64
  -5 -13  -3    0.65    0.73
   2 -14  -3   -0.50    0.77
   1 -14  -3    1.38    0.77
  -1  14   3   -0.11    0.70
   0 -14  -3   -0.77    0.59
   0  14   3    0.73    0.74
  -1 -14  -3    1.53    0.75
  -2 -14  -3    0.32    0.63
  -3 -14  -3   -0.18    0.62
   0 -12   4    1.72    0.73
  -1  12  -4   -0.98    0.77
   1 -12   4    0.76    0.69
   2  11  -4    0.88    0.80
  -2 -11   4   -0.18    0.66
   1  11  -4    0.16    0.79
  -1 -11   4    1.28    0.68
   0  11  -4    0.91    0.73
   0 -11   4    0.99    0.62
  -1  11  -4    0.02    0.75
   1 -11   4    0.50    0.63
  -2  11  -4    0.75    0.84
   2 -11   4    0.74    0.64
  -3  11  -4    0.50    0.84
  -4  11  -4    3.38    1.16
  -4 -10   4    0.63    0.74
   3  10  -4   -0.43    0.61
  -3 -10   4    0.19    0.66
   2  10  -4    0.71    0.68
  -2 -10   4    2.16    0.76
   1  10  -4    0.96    0.70
  -1 -10   4   -0.43    0.53
   0  10  -4    6.38    1.12
  -1  10  -4    0.51    0.70
   1 -10   4    1.13    0.56
  -2  10  -4   -0.03    0.66
   2 -10   4    0.65    0.56
   3 -10   4    0.07    0.60
  -4  10  -4    0.58    0.89
  -5  10  -4    0.56    0.96
   5   9  -4    0.80    0.76
  -5  -9   4    1.67    0.82
   4   9  -4    0.47    0.69
  -4  -9   4   -0.16    0.62
   3   9  -4    3.36    0.89
   3   9  -4    3.44    0.89
  -3  -9   4    5.45    0.99
   2   9  -4    0.59    0.63
  -2  -9   4    0.11    0.57
   1   9  -4    1.86    0.70
  -1  -9   4    1.44    0.60
   0   9  -4    0.22    0.57
   0  -9   4    0.37    0.47
  -1   9  -4   -0.06    0.61
   1  -9   4    0.30    0.47
  -2   9  -4   -0.40    0.59
   2  -9   4    1.22    0.54
  -3   9  -4    0.47    0.72
   3  -9   4    0.86    0.62
  -4   9  -4    2.45    0.63
  -4   9  -4    1.09    0.88
   4  -9   4    2.85    0.88
  -5   9  -4   -0.73    0.76
  -6   9  -4   -0.75    0.86
   5   8  -4    0.08    0.72
  -5  -8   4    0.09    0.61
   4   8  -4    0.37    0.67
  -4  -8   4    0.47    0.60
   3   8  -4    0.35    0.62
   3   8  -4    1.24    0.60
  -3  -8   4    0.11    0.61
   2   8  -4    0.51    0.58
   2   8  -4    1.26    0.65
  -2  -8   4    2.36    0.70
   1   8  -4    2.34    0.74
  -1  -8   4    2.63    0.69
   0   8  -4   -0.64    0.44
   0  -8   4    0.05    0.45
  -1   8  -4    1.58    0.72
   1  -8   4    2.30    0.58
  -2   8  -4    1.01    0.66
   2  -8   4    0.99    0.51
  -3   8  -4    0.86    0.69
   3  -8   4    0.66    0.55
  -4   8  -4   -0.32    0.63
  -4   8  -4    0.26    0.45
   4  -8   4   -0.81    0.57
  -5   8  -4    0.07    0.77
  -6   8  -4    0.55    0.89
  -7   8  -4   -1.99    0.77
   6   7  -4   -0.45    0.75
  -6  -7   4   -0.84    0.57
   5   7  -4    0.64    0.74
  -5  -7   4   -0.59    0.56
   4   7  -4    9.92    1.43
  -4  -7   4   11.98    1.47
   3   7  -4    0.16    0.59
   3   7  -4    1.04    0.59
  -3  -7   4    0.11    0.48
   2   7  -4   18.55    1.72
   2   7  -4   15.34    1.67
  -2  -7   4   16.50    1.72
   1   7  -4    0.26    0.40
   1   7  -4    0.00    0.48
  -1  -7   4    0.07    0.47
   0   7  -4    6.22    1.04
   0   7  -4    8.12    0.84
   0  -7   4    8.29    1.01
  -1   7  -4    0.28    0.52
   1  -7   4   -0.24    0.36
  -2   7  -4    1.78    0.69
   2  -7   4    3.51    0.65
  -3   7  -4    0.82    0.68
   3  -7   4    0.33    0.47
  -4   7  -4   -0.03    0.69
  -4   7  -4    0.28    0.42
  -5   7  -4    0.02    0.73
  -5   7  -4    0.95    0.59
  -6   7  -4    0.06    0.76
  -7   7  -4   -1.40    0.70
  -7  -6   4    0.89    0.79
   6   6  -4   -0.40    0.74
  -6  -6   4    0.57    0.68
   5   6  -4   -0.64    0.58
  -5  -6   4    0.20    0.60
   4   6  -4    1.43    0.71
  -4  -6   4    1.84    0.68
   3   6  -4    0.32    0.51
   3   6  -4    1.08    0.58
  -3  -6   4    0.16    0.48
   2   6  -4    2.16    0.62
   2   6  -4    1.67    0.58
  -2  -6   4    1.16    0.54
   1   6  -4    8.71    1.02
   1   6  -4    6.38    1.01
  -1  -6   4    9.50    1.09
   0   6  -4    8.24    0.86
   0   6  -4    7.06    1.05
   0  -6   4    8.09    1.02
  -1   6  -4   22.22    1.98
  -1   6  -4   19.99    1.67
   1  -6   4   21.09    1.83
  -2   6  -4   -0.01    0.53
   2  -6   4    0.63    0.40
  -3   6  -4    0.13    0.56
   3  -6   4    0.20    0.42
  -4   6  -4    0.53    0.43
  -4   6  -4    1.59    0.73
  -5   6  -4    0.78    0.56
  -5   6  -4    0.50    0.73
  -6   6  -4    0.57    0.64
  -6   6  -4   -0.51    0.67
  -7   6  -4   -1.11    0.67
  -8   6  -4    1.65    0.86
   7   5  -4   -1.36    0.67
  -7  -5   4    0.23    0.76
   6   5  -4   -1.51    0.57
  -6  -5   4    0.50    0.66
   5   5  -4    5.62    1.17
  -5  -5   4   10.16    1.29
   4   5  -4   -0.11    0.52
  -4  -5   4    0.24    0.54
   3   5  -4    1.93    0.56
   3   5  -4    2.70    0.69
  -3  -5   4    2.31    0.64
   2   5  -4   46.41    3.62
   2   5  -4   46.31    3.51
  -2  -5   4   41.79    3.65
   1   5  -4   30.31    2.66
   1   5  -4   34.67    2.68
  -1  -5   4   33.16    2.75
   0   5  -4    0.96    0.37
   0   5  -4    0.41    0.46
   0  -5   4    0.95    0.41
  -1   5  -4   11.65    1.32
  -1   5  -4   12.75    1.07
   1  -5   4   11.56    1.16
  -2   5  -4    0.68    0.56
  -2   5  -4    0.30    0.22
   2  -5   4    0.24    0.36
  -3   5  -4    2.49    0.80
   3  -5   4    3.92    0.64
  -4   5  -4    3.97    0.65
  -4   5  -4    2.52    0.83
  -5   5  -4    8.69    1.10
  -5   5  -4    7.83    1.31
  -6   5  -4    1.99    0.79
  -6   5  -4    2.00    0.69
  -7   5  -4    3.45    0.95
  -8   5  -4    0.73    0.68
   7   4  -4   -0.50    0.78
  -7  -4   4   -0.71    0.70
   6   4  -4    1.07    0.79
  -6  -4   4    1.20    0.72
   5   4  -4    1.93    0.78
  -5  -4   4    4.50    0.93
   4   4  -4    3.23    0.79
  -4  -4   4    4.00    0.83
   3   4  -4    7.00    1.13
   3   4  -4   11.71    1.12
  -3  -4   4    9.51    1.18
   2   4  -4   17.02    1.57
   2   4  -4   17.48    1.65
  -2  -4   4   17.05    1.60
   1   4  -4    0.35    0.40
   1   4  -4    0.57    0.41
  -1  -4   4    0.38    0.36
   0   4  -4    0.47    0.38
   0   4  -4    1.50    0.36
   0  -4   4    0.30    0.31
  -1   4  -4    3.90    0.70
  -1   4  -4    4.44    0.54
   1  -4   4    4.64    0.62
  -2   4  -4   24.61    2.01
  -2   4  -4   22.13    1.70
   2  -4   4   19.88    1.79
  -3   4  -4   22.27    2.05
   3  -4   4   20.66    1.80
  -4   4  -4    5.44    1.01
  -4   4  -4    4.82    0.74
  -5   4  -4    3.40    0.68
  -5   4  -4    1.10    0.71
  -6   4  -4    0.66    0.61
  -6   4  -4    0.12    0.56
  -7   4  -4    0.03    0.64
  -7   4  -4   -0.84    0.48
  -8   4  -4    1.26    0.63
  -8  -3   4    1.07    0.92
   7   3  -4    1.30    0.92
  -7  -3   4    0.85    0.80
   6   3  -4    0.98    0.73
  -6  -3   4    1.97    0.77
   5   3  -4   -0.27    0.55
  -5  -3   4   -1.07    0.47
   4   3  -4    0.89    0.60
  -4  -3   4    0.45    0.50
   3   3  -4   40.50    3.47
   3   3  -4   47.97    3.26
  -3  -3   4   38.24    3.48
   2   3  -4    3.59    0.69
   2   3  -4    4.45    0.61
   1   3  -4   32.60    2.51
   1   3  -4   30.50    2.42
  -1  -3   4   30.33    2.54
   0   3  -4   51.55    3.85
   0   3  -4   51.16    3.87
   0  -3   4   50.68    3.99
  -1   3  -4   18.83    1.60
  -1   3  -4   17.11    1.44
   1  -3   4   17.79    1.48
  -2   3  -4    2.02    0.33
  -2   3  -4    2.22    0.57
   2  -3   4    1.97    0.35
  -3   3  -4    0.60    0.54
  -3   3  -4    1.12    0.32
  -4   3  -4    0.50    0.40
  -4   3  -4   -0.19    0.54
  -5   3  -4    7.29    1.05
  -5   3  -4    7.27    0.95
  -6   3  -4    1.44    0.59
  -6   3  -4    1.56    0.64
  -7   3  -4    0.52    0.64
  -7   3  -4    0.13    0.48
  -8   3  -4   -0.61    0.43
   8   2  -4   -0.94    0.79
  -8  -2   4   -1.05    0.70
   7   2  -4    1.03    0.83
  -7  -2   4    1.37    0.83
   6   2  -4   -0.41    0.59
  -6  -2   4    1.03    0.68
   5   2  -4   -0.85    0.45
  -5  -2   4   -0.29    0.51
   4   2  -4   15.27    1.67
  -4  -2   4   15.93    1.59
   3   2  -4   11.87    1.51
   3   2  -4   17.31    1.30
  -3  -2   4   14.40    1.45
   2   2  -4   56.06    3.85
   2   2  -4   48.25    4.04
  -2  -2   4   51.41    4.14
   1   2  -4   23.44    1.83
   1   2  -4   24.27    1.93
  -1  -2   4   22.44    1.94
   0   2  -4   11.57    1.10
   0   2  -4   11.52    1.04
   0  -2   4   11.80    1.02
  -1   2  -4   21.93    1.75
  -1   2  -4   24.43    1.85
   1  -2   4   21.32    1.77
  -2   2  -4   51.85    3.67
  -2   2  -4   49.44    3.58
   2  -2   4   44.17    3.66
  -3   2  -4    7.27    0.73
  -3   2  -4    7.58    0.94
  -4   2  -4    0.72    0.48
  -4   2  -4    0.67    0.41
  -5   2  -4    0.07    0.45
  -5   2  -4   -0.28    0.44
  -6   2  -4    0.46    0.46
  -6   2  -4    1.13    0.58
  -7   2  -4    5.14    0.81
  -7   2  -4    4.59    0.96
  -8   2  -4    0.51    0.44
  -8   2  -4    0.39    0.76
   8   1  -4   -0.05    0.81
  -8  -1   4    0.17    0.84
   7   1  -4    0.41    0.77
  -7  -1   4    1.68    0.88
   6   1  -4    0.67    0.69
  -6  -1   4    0.42    0.64
   5   1  -4    3.85    0.89
  -5  -1   4    3.58    0.84
   4   1  -4    1.28    0.60
  -4  -1   4    3.15    0.69
   3   1  -4   -0.26    0.34
  -3  -1   4    0.56    0.45
   2   1  -4   61.22    4.74
   2   1  -4   62.24    4.48
  -2  -1   4   62.53    4.86
   1   1  -4   16.49    1.44
   1   1  -4   16.28    1.33
  -1  -1   4   17.23    1.43
   0   1  -4  264.22   19.30
   0   1  -4  277.71   19.74
   0  -1   4  272.07   20.44
  -1   1  -4    0.78    0.24
  -1   1  -4    1.16    0.33
  -2   1  -4   18.73    1.52
  -2   1  -4   17.40    1.41
  -3   1  -4    1.36    0.41
  -3   1  -4    1.51    0.31
  -4   1  -4    3.43    0.63
  -4   1  -4    4.49    0.59
  -5   1  -4    2.82    0.62
  -5   1  -4    3.30    0.60
  -6   1  -4    0.89    0.54
  -6   1  -4    1.00    0.43
  -7   1  -4   -1.15    0.50
  -7   1  -4   -0.66    0.32
  -8   1  -4   -0.02    0.38
  -8   1  -4   -0.48    0.69
   8   0  -4   -0.06    0.78
  -8   0   4    0.30    0.83
   7   0  -4    0.08    0.68
  -7   0   4    0.53    0.73
   6   0  -4    0.26    0.65
  -6   0   4    1.15    0.70
   5   0  -4   -0.10    0.48
  -5   0   4    0.48    0.60
   4   0  -4    0.20    0.45
  -4   0   4    0.41    0.53
   3   0  -4   40.22    3.36
  -3   0   4   44.19    3.44
   2   0  -4    8.43    1.02
  -2   0   4   10.77    0.99
   1   0  -4   48.50    3.40
   1   0  -4   43.53    3.59
  -1   0   4   48.62    3.67
   0   0  -4   27.13    2.13
   0   0  -4   30.14    2.23
   0   0   4   28.88    2.23
  -1   0  -4    2.15    0.33
  -1   0  -4    1.81    0.34
  -2   0  -4   21.55    1.78
  -2   0  -4   23.86    1.77
  -3   0  -4    0.32    0.28
  -3   0  -4    0.55    0.24
  -4   0  -4    8.83    0.92
  -4   0  -4    9.09    0.89
  -5   0  -4    1.26    0.47
  -5   0  -4    1.05    0.39
  -6   0  -4    0.60    0.51
  -6   0  -4    0.72    0.39
  -7   0  -4    3.11    0.60
  -7   0  -4    4.97    0.89
  -8   0  -4   -0.71    0.64
  -8   0  -4    0.03    0.37
   8  -1  -4   -0.09    0.71
  -8   1   4   -0.44    0.79
   7  -1  -4    0.73    0.69
  -7   1   4    2.36    0.94
   6  -1  -4    0.54    0.60
  -6   1   4    0.21    0.64
   5  -1  -4    0.85    0.53
  -5   1   4    1.25    0.61
   4  -1  -4   -0.10    0.43
  -4   1   4    0.49    0.55
   3  -1  -4    1.58    0.50
  -3   1   4    2.50    0.59
   2  -1  -4    0.29    0.30
  -2   1   4    1.94    0.42
   1  -1  -4    9.19    1.03
  -1   1   4   14.10    1.06
   0  -1  -4   29.71    2.40
   0  -1  -4   34.36    2.28
   0   1   4   29.25    2.42
  -1  -1  -4   83.03    5.97
  -1  -1  -4   83.36    6.12
  -2  -1  -4    0.41    0.20
  -2  -1  -4    0.04    0.13
  -3  -1  -4   32.87    2.41
  -3  -1  -4   28.34    2.34
  -4  -1  -4    0.27    0.27
  -4  -1  -4    0.24    0.27
  -5  -1  -4    4.56    0.71
  -5  -1  -4    5.37    0.67
  -6  -1  -4    0.85    0.52
  -6  -1  -4    0.46    0.34
  -7  -1  -4   -0.52    0.50
  -7  -1  -4    0.02    0.33
  -8  -1  -4   -0.16    0.32
  -8  -1  -4   -1.15    0.58
  -9  -1  -4   -0.91    0.70
   8  -2  -4   -1.02    0.60
  -8   2   4   -0.42    0.83
   7  -2  -4    1.09    0.68
  -7   2   4   -1.42    0.62
   6  -2  -4    6.40    1.02
  -6   2   4    7.06    1.13
   5  -2  -4    4.13    0.76
  -5   2   4    3.62    0.84
   4  -2  -4    0.27    0.42
  -4   2   4    0.52    0.54
   3  -2  -4   23.79    2.00
  -3   2   4   23.45    2.07
   2  -2  -4    8.58    0.90
   1  -2  -4    3.12    0.27
   1  -2  -4    2.22    0.43
  -1   2   4    2.42    0.44
   0  -2  -4   56.72    4.37
   0  -2  -4   59.97    4.21
   0   2   4   59.17    4.49
  -1  -2  -4    0.63    0.20
  -1  -2  -4    0.72    0.18
  -1  -2  -4    0.86    0.17
  -2  -2  -4   27.78    2.26
  -2  -2  -4   30.64    2.29
  -2  -2  -4   30.93    2.24
  -3  -2  -4   37.45    2.84
  -3  -2  -4   38.61    2.95
  -4  -2  -4    1.56    0.34
  -4  -2  -4    1.90    0.39
  -5  -2  -4    8.65    0.89
  -5  -2  -4    8.48    0.98
  -6  -2  -4   -0.20    0.46
  -6  -2  -4    0.43    0.32
  -7  -2  -4    1.92    0.65
  -7  -2  -4    2.17    0.49
  -8  -2  -4   -0.18    0.33
  -8  -2  -4   -0.02    0.61
  -9  -2  -4    0.29    0.74
  -8   3   4    0.44    0.82
   7  -3  -4    3.47    0.79
  -7   3   4   -0.24    0.70
   6  -3  -4    0.65    0.52
  -6   3   4    0.59    0.66
   5  -3  -4    4.27    0.73
  -5   3   4    3.18    0.80
   4  -3  -4    4.45    0.74
  -4   3   4    5.08    0.88
   3  -3  -4   12.02    1.17
  -3   3   4   11.24    1.23
   2  -3  -4   52.10    3.75
  -2   3   4   46.02    3.87
   1  -3  -4   46.41    3.55
  -1   3   4   47.49    3.67
   0  -3  -4   40.66    3.33
   0  -3  -4   44.75    3.23
   0  -3  -4   48.39    3.44
  -1  -3  -4   23.80    1.86
  -1  -3  -4   26.01    1.92
  -1  -3  -4   25.37    1.95
  -2  -3  -4   -0.04    0.13
  -2  -3  -4   -0.06    0.15
  -3  -3  -4    3.14    0.41
  -3  -3  -4    3.19    0.42
  -4  -3  -4   11.62    1.10
  -4  -3  -4   12.74    1.07
  -5  -3  -4    0.21    0.36
  -5  -3  -4   -0.04    0.23
  -6  -3  -4   20.78    1.90
  -6  -3  -4   21.16    1.77
  -7  -3  -4    0.03    0.32
  -7  -3  -4   -0.08    0.47
  -8  -3  -4   -0.07    0.58
  -8  -3  -4    0.48    0.39
  -9  -3  -4   -0.27    0.75
  -8   4   4   -0.65    0.78
  -7   4   4    0.06    0.73
   6  -4  -4    1.20    0.59
  -6   4   4    2.47    0.79
   5  -4  -4    2.95    0.65
  -5   4   4    4.04    0.81
   4  -4  -4    0.73    0.44
  -4   4   4    0.32    0.53
   3  -4  -4    4.44    0.65
  -3   4   4    4.20    0.76
  -3   4   4    4.08    0.50
   2  -4  -4    0.16    0.29
  -2   4   4    0.39    0.27
  -2   4   4   -0.06    0.35
   1  -4  -4  103.97    7.43
  -1   4   4   98.02    7.70
   0  -4  -4   50.94    4.08
   0  -4  -4   55.25    4.00
   0  -4  -4   59.39    4.24
  -1  -4  -4   26.29    1.95
  -1  -4  -4   21.49    1.84
  -1  -4  -4   26.16    1.89
  -2  -4  -4    5.09    0.54
  -2  -4  -4    3.77    0.47
  -3  -4  -4    2.34    0.34
  -3  -4  -4    1.85    0.35
  -4  -4  -4    2.40    0.39
  -4  -4  -4    1.80    0.42
  -5  -4  -4    5.20    0.68
  -5  -4  -4    5.30    0.76
  -6  -4  -4   12.42    1.19
  -6  -4  -4   13.05    1.33
  -7  -4  -4    1.73    0.47
  -7  -4  -4    2.38    0.67
  -8  -4  -4    0.96    0.66
  -8  -4  -4    1.56    0.48
  -9  -4  -4   -0.41    0.72
  -7   5   4   -0.19    0.70
  -6   5   4    2.69    0.84
   5  -5  -4    5.71    0.82
  -5   5   4    6.31    1.05
   4  -5  -4   10.84    1.08
  -4   5   4   10.18    1.28
   3  -5  -4    3.42    0.58
  -3   5   4    3.59    0.72
  -3   5   4    4.18    0.60
   2  -5  -4   -0.02    0.25
  -2   5   4    0.03    0.38
   1  -5  -4   21.95    1.60
   1  -5  -4   18.74    1.69
   0  -5  -4    2.70    0.40
   0  -5  -4    2.56    0.33
   0  -5  -4    2.58    0.37
  -1  -5  -4    5.07    0.57
  -1  -5  -4    4.85    0.54
  -2  -5  -4   29.83    2.60
  -2  -5  -4   36.57    2.51
  -3  -5  -4    9.70    0.86
  -3  -5  -4    8.70    0.89
  -4  -5  -4    4.52    0.60
  -4  -5  -4    5.41    0.70
  -5  -5  -4   11.14    1.05
  -5  -5  -4   10.90    1.15
  -6  -5  -4    4.54    0.75
  -6  -5  -4    3.68    0.60
  -7  -5  -4    1.50    0.60
  -7  -5  -4    2.12    0.48
  -8  -5  -4    1.48    0.50
  -8  -5  -4    0.16    0.64
  -9  -5  -4    0.61    0.80
  -7   6   4   -0.84    0.69
  -6   6   4    0.27    0.70
  -5   6   4   -0.11    0.57
  -4   6   4   -0.21    0.49
   3  -6  -4    0.77    0.35
  -3   6   4    1.06    0.54
  -3   6   4    1.10    0.46
   2  -6  -4    5.78    0.59
  -2   6   4    5.41    0.76
   1  -6  -4    3.84    0.45
   1  -6  -4    4.17    0.59
   0  -6  -4    0.21    0.17
   0  -6  -4    0.78    0.28
  -1  -6  -4    1.02    0.31
  -1  -6  -4    0.98    0.29
  -2  -6  -4   -0.07    0.27
  -2  -6  -4    0.07    0.21
  -3  -6  -4    8.55    0.89
  -3  -6  -4    8.40    0.85
  -4  -6  -4    2.08    0.48
  -4  -6  -4    2.05    0.46
  -5  -6  -4    9.36    0.97
  -5  -6  -4    8.36    1.05
  -6  -6  -4    0.19    0.45
  -6  -6  -4    1.70    0.48
  -7  -6  -4    0.29    0.52
  -7  -6  -4    0.16    0.41
  -8  -6  -4   -0.06    0.47
  -8  -6  -4    0.34    0.62
  -9  -6  -4    0.18    0.71
  -7   7   4    0.00    0.76
  -6   7   4    0.89    0.72
  -5   7   4    3.13    0.85
  -4   7   4    0.66    0.57
  -3   7   4    0.44    0.43
  -3   7   4    0.62    0.52
   2  -7  -4    5.48    0.56
  -2   7   4    6.51    0.86
  -2   7   4    5.32    0.80
   1  -7  -4   10.26    1.06
   1  -7  -4   11.01    0.90
   0  -7  -4    6.89    0.81
  -1  -7  -4   30.09    2.46
  -2  -7  -4    1.93    0.48
  -2  -7  -4    2.43    0.45
  -3  -7  -4    0.72    0.38
  -3  -7  -4    0.85    0.32
  -4  -7  -4   -0.38    0.26
  -4  -7  -4    0.04    0.36
  -5  -7  -4    3.25    0.63
  -5  -7  -4    3.42    0.65
  -6  -7  -4    0.53    0.46
  -6  -7  -4    0.16    0.38
  -7  -7  -4    1.83    0.64
  -7  -7  -4    2.37    0.62
  -8  -7  -4    0.96    0.68
  -8  -7  -4    1.59    0.56
  -9  -7  -4    0.54    0.74
  -7   8   4    1.55    0.94
  -6   8   4    1.01    0.83
  -5   8   4    0.28    0.68
  -4   8   4    0.15    0.54
  -3   8   4    0.56    0.54
  -3   8   4    0.64    0.50
   2  -8  -4    0.36    0.45
  -2   8   4    0.41    0.46
   1  -8  -4    6.56    0.88
   0  -8  -4    1.11    0.43
  -1  -8  -4   15.63    1.43
  -2  -8  -4    5.20    0.67
  -2  -8  -4    4.16    0.69
  -3  -8  -4    2.26    0.55
  -3  -8  -4    1.93    0.47
  -4  -8  -4    0.99    0.47
  -4  -8  -4    0.49    0.35
  -5  -8  -4    0.92    0.41
  -5  -8  -4    0.70    0.48
  -6  -8  -4    0.10    0.38
  -6  -8  -4   -0.25    0.44
  -7  -8  -4    0.39    0.47
  -7  -8  -4    0.33    0.51
  -8  -8  -4    0.31    0.62
  -8  -8  -4   -0.03    0.46
  -6   9   4    0.31    0.83
  -5   9   4    0.27    0.71
  -4   9   4    0.75    0.67
  -3   9   4    3.43    0.79
  -3   9   4    1.67    0.62
   2  -9  -4    2.62    0.66
  -2   9   4    1.44    0.57
   1  -9  -4    7.09    0.97
   0  -9  -4    6.17    0.83
  -1  -9  -4   21.53    1.90
  -2  -9  -4    0.36    0.42
  -3  -9  -4    7.39    0.99
  -4  -9  -4    3.05    0.62
  -4  -9  -4    3.33    0.69
  -5  -9  -4    0.41    0.40
  -5  -9  -4    0.15    0.48
  -6  -9  -4    1.03    0.48
  -6  -9  -4    1.24    0.63
  -7  -9  -4    0.56    0.60
  -7  -9  -4    0.45    0.51
  -8  -9  -4    0.01    0.55
  -8  -9  -4    0.38    0.65
  -6  10   4   -0.25    0.79
  -5  10   4    0.98    0.92
  -4  10   4    0.51    0.72
  -3  10   4   -0.13    0.50
  -3  10   4    0.76    0.63
   2 -10  -4    1.45    0.58
  -2  10   4    1.12    0.58
   1 -10  -4   -0.07    0.43
   0 -10  -4    1.61    0.52
  -1 -10  -4    1.61    0.52
  -2 -10  -4    3.47    0.66
  -4 -10  -4    0.56    0.53
  -5 -10  -4    4.33    0.87
  -6 -10  -4    0.70    0.64
  -7 -10  -4    0.18    0.67
  -5  11   4    1.68    1.00
  -4  11   4   -0.01    0.80
  -3  11   4    0.08    0.52
  -3  11   4   -0.07    0.55
   2 -11  -4    1.24    0.68
  -2  11   4    0.85    0.59
   1 -11  -4   -0.41    0.43
   0 -11  -4    4.43    0.75
  -1 -11  -4    0.36    0.45
  -2 -11  -4    2.51    0.64
  -3 -11  -4    2.64    0.66
  -4 -11  -4    2.96    0.76
  -5 -11  -4    3.27    0.84
  -6 -11  -4   -0.19    0.59
  -7 -11  -4    0.51    0.70
  -4  12   4    1.51    1.03
  -3  12   4    0.20    0.61
  -3  12   4    0.39    0.73
   2 -12  -4    0.65    0.68
  -2  12   4    1.09    0.64
   1 -12  -4   -0.01    0.51
  -1  12   4    0.54    0.60
   0 -12  -4    0.86    0.53
  -1 -12  -4    1.23    0.56
  -2 -12  -4    0.40    0.47
  -3 -12  -4    0.34    0.54
  -4 -12  -4    2.03    0.69
  -5 -12  -4    0.57    0.66
  -6 -12  -4    3.84    0.95
  -3  13   4    0.57    0.80
  -3  13   4   -0.22    0.64
   2 -13  -4   -0.63    0.69
  -2  13   4    0.50    0.64
   1 -13  -4    3.08    0.84
  -1  13   4    2.71    0.85
   0 -13  -4    0.86    0.61
  -1 -13  -4    0.09    0.55
  -2 -13  -4   -0.09    0.53
  -3 -13  -4    0.63    0.62
  -4 -13  -4    0.00    0.65
  -5 -13  -4    1.62    0.74
   2 -14  -4   -0.06    0.72
   1 -14  -4    1.27    0.78
  -1  14   4    0.37    0.73
   0 -14  -4    0.95    0.68
   0  14   4    1.18    0.84
  -1 -14  -4    0.56    0.60
  -2 -14  -4   -0.50    0.55
  -3 -14  -4   -0.16    0.61
   1  11  -5    0.87    0.85
  -1 -11   5    0.34    0.63
   0  11  -5    0.05    0.86
   0 -11   5   -0.88    0.50
  -1  11  -5    0.82    0.89
  -2  11  -5    0.32    0.86
  -3  11  -5   -0.68    0.76
  -3 -10   5    0.23    0.75
   2  10  -5   -0.13    0.62
  -2 -10   5   -0.34    0.64
   1  10  -5    0.06    0.66
  -1 -10   5    0.61    0.60
   0  10  -5    1.07    0.77
   0 -10   5    1.48    0.61
  -1  10  -5    0.00    0.71
   1 -10   5   -0.19    0.52
  -2  10  -5    0.99    0.81
  -3  10  -5    1.92    0.95
  -4  10  -5    0.54    0.82
   4   9  -5    0.27    0.72
  -4  -9   5    0.34    0.72
  -3  -9   5    0.57    0.64
   2   9  -5   -0.01    0.61
  -2  -9   5    1.29    0.68
   1   9  -5   -0.75    0.55
  -1  -9   5    0.49    0.60
   0   9  -5    1.95    0.75
   0  -9   5    1.57    0.59
  -1   9  -5   -0.17    0.56
   1  -9   5    0.20    0.47
  -2   9  -5   -0.22    0.66
   2  -9   5    0.49    0.53
  -3   9  -5    0.88    0.73
  -4   9  -5   -0.91    0.69
  -5   9  -5   -0.10    0.79
  -6   9  -5    0.16    0.92
   5   8  -5   -0.24    0.72
  -5  -8   5   -0.27    0.63
   4   8  -5    2.18    0.86
  -4  -8   5    4.20    0.94
   3   8  -5    0.41    0.62
   3   8  -5    0.62    0.65
  -3  -8   5    0.19    0.62
   2   8  -5    0.99    0.62
   2   8  -5    1.53    0.66
  -2  -8   5    2.09    0.65
   1   8  -5   -0.36    0.53
  -1  -8   5    0.37    0.53
   0   8  -5    0.80    0.60
   0  -8   5    0.84    0.51
  -1   8  -5    0.29    0.63
   1  -8   5    0.32    0.45
  -2   8  -5    3.22    0.91
   2  -8   5    4.02    0.73
  -3   8  -5    1.00    0.72
   3  -8   5   -0.21    0.49
  -4   8  -5    0.42    0.72
  -5   8  -5   -0.83    0.68
  -6   8  -5   -0.55    0.82
   5   7  -5    1.20    0.80
  -5  -7   5    1.43    0.77
   4   7  -5   -0.50    0.59
  -4  -7   5    0.54    0.55
   3   7  -5    0.22    0.58
   3   7  -5    0.20    0.54
  -3  -7   5    0.16    0.50
   2   7  -5    2.50    0.73
   2   7  -5    2.59    0.70
  -2  -7   5    4.54    0.84
   1   7  -5    0.75    0.48
   1   7  -5    0.49    0.54
  -1  -7   5    0.53    0.46
   0   7  -5    1.17    0.63
   0  -7   5    2.06    0.56
  -1   7  -5    1.05    0.64
   1  -7   5    3.39    0.63
  -2   7  -5   -0.05    0.58
   2  -7   5   -0.15    0.42
  -3   7  -5   -0.98    0.55
   3  -7   5    1.08    0.52
  -4   7  -5    1.21    0.78
  -5   7  -5    0.25    0.79
  -6   7  -5    1.15    0.86
  -7   7  -5   -0.36    0.81
   6   6  -5    1.29    0.84
  -6  -6   5    1.17    0.79
   5   6  -5    5.34    1.12
  -5  -6   5    5.94    1.09
   4   6  -5    0.04    0.59
  -4  -6   5    0.27    0.55
   3   6  -5    0.44    0.54
   3   6  -5    0.19    0.56
  -3  -6   5    0.94    0.59
   2   6  -5   22.25    2.01
   2   6  -5   21.81    1.95
  -2  -6   5   19.93    1.97
   1   6  -5    0.48    0.43
   1   6  -5    0.73    0.53
  -1  -6   5    0.50    0.46
   0   6  -5   19.48    1.76
   0   6  -5   19.04    1.93
   0  -6   5   24.37    1.93
  -1   6  -5    0.22    0.52
  -1   6  -5    0.17    0.31
   1  -6   5    0.51    0.37
  -2   6  -5    7.15    1.14
   2  -6   5    8.83    0.94
  -3   6  -5   -0.18    0.53
   3  -6   5   -0.35    0.40
  -4   6  -5    2.02    0.54
  -4   6  -5    1.54    0.77
  -5   6  -5   -0.72    0.63
  -6   6  -5    1.32    0.84
  -7   6  -5    0.83    0.79
  -8   6  -5    0.65    0.78
   6   5  -5    0.91    0.86
  -6  -5   5   -0.10    0.73
   5   5  -5    0.54    0.68
  -5  -5   5    0.89    0.67
   4   5  -5    3.33    0.88
  -4  -5   5    4.25    0.86
   3   5  -5    2.74    0.75
   3   5  -5    3.04    0.65
  -3  -5   5    3.07    0.71
   2   5  -5   10.63    1.27
   2   5  -5   10.86    1.20
  -2  -5   5   11.10    1.20
   1   5  -5   11.34    1.19
   1   5  -5    9.25    1.18
  -1  -5   5   12.02    1.18
   0   5  -5   19.14    1.72
   0   5  -5   20.52    1.89
   0  -5   5   21.47    1.81
  -1   5  -5    4.51    0.60
  -1   5  -5    3.16    0.78
   1  -5   5    5.10    0.70
  -2   5  -5   16.11    1.36
  -2   5  -5   16.68    1.75
   2  -5   5   16.51    1.47
  -3   5  -5    5.77    1.00
   3  -5   5    5.22    0.75
  -4   5  -5    7.74    0.93
  -4   5  -5    7.88    1.21
  -5   5  -5    1.99    0.64
  -5   5  -5    2.05    0.84
  -6   5  -5    1.86    0.81
  -7   5  -5   -0.21    0.68
  -8   5  -5   -0.50    0.66
   7   4  -5   -0.45    0.74
  -7  -4   5   -0.56    0.77
   6   4  -5    1.27    0.81
  -6  -4   5    0.98    0.77
   5   4  -5   -0.49    0.55
  -5  -4   5    0.32    0.57
   4   4  -5   -0.35    0.51
  -4  -4   5    0.06    0.49
   3   4  -5   21.91    1.74
   3   4  -5   18.81    1.88
  -3  -4   5   17.09    1.81
   2   4  -5    3.19    0.69
   2   4  -5    3.54    0.62
  -2  -4   5    2.68    0.62
   1   4  -5   23.25    1.85
   1   4  -5   19.04    1.80
  -1  -4   5   19.81    1.80
   0   4  -5    1.93    0.57
   0   4  -5    1.65    0.47
   0  -4   5    2.84    0.51
  -1   4  -5    2.22    0.61
  -1   4  -5    1.42    0.37
   1  -4   5    2.04    0.44
  -2   4  -5    4.50    0.85
  -2   4  -5    5.07    0.60
   2  -4   5    5.25    0.65
  -3   4  -5    0.83    0.64
  -3   4  -5    0.72    0.26
   3  -4   5    0.77    0.40
  -4   4  -5    1.79    0.73
  -4   4  -5    0.85    0.47
  -5   4  -5    0.30    0.50
  -5   4  -5   -0.08    0.55
  -6   4  -5   -0.44    0.56
  -7   4  -5    2.15    0.76
  -8   4  -5   -0.02    0.59
   7   3  -5    0.92    0.87
  -7  -3   5    1.26    0.89
   6   3  -5   -0.40    0.62
  -6  -3   5   -0.56    0.65
   5   3  -5    0.38    0.61
  -5  -3   5    0.87    0.62
   4   3  -5    1.23    0.64
  -4  -3   5    2.89    0.71
   3   3  -5    6.02    0.97
  -3  -3   5    5.83    0.91
   2   3  -5   38.92    3.07
   2   3  -5   36.34    2.87
  -2  -3   5   37.22    3.09
   1   3  -5   16.07    1.50
   1   3  -5   17.21    1.47
  -1  -3   5   15.86    1.47
   0   3  -5    7.15    0.83
   0   3  -5    7.04    0.86
   0  -3   5    6.56    0.77
  -1   3  -5    0.71    0.48
  -1   3  -5    0.64    0.29
   1  -3   5    0.40    0.28
  -2   3  -5    7.34    1.01
  -2   3  -5    7.92    0.75
   2  -3   5    7.09    0.74
  -3   3  -5    9.46    1.28
  -3   3  -5   12.68    1.02
  -4   3  -5   25.69    2.24
  -4   3  -5   22.56    1.98
  -5   3  -5    0.69    0.48
  -5   3  -5    0.07    0.52
  -6   3  -5    0.43    0.58
  -7   3  -5    0.24    0.51
  -8   3  -5   -0.26    0.49
   7   2  -5    0.57    0.79
  -7  -2   5    1.22    0.89
   6   2  -5    1.59    0.82
  -6  -2   5    3.13    0.90
   5   2  -5    9.24    1.38
  -5  -2   5   10.39    1.38
   4   2  -5    0.56    0.54
  -4  -2   5    0.71    0.54
   3   2  -5    1.60    0.54
  -3  -2   5    1.30    0.52
   2   2  -5    0.27    0.28
   2   2  -5    0.19    0.36
  -2  -2   5    0.09    0.37
   1   2  -5    7.57    0.82
   1   2  -5    8.75    0.96
  -1  -2   5    7.25    0.87
   0   2  -5    3.63    0.57
   0   2  -5    3.43    0.57
   0  -2   5    3.74    0.50
  -1   2  -5   52.49    3.83
  -1   2  -5   49.40    3.82
   1  -2   5   49.56    3.89
  -2   2  -5   20.39    1.56
  -2   2  -5   23.52    1.77
   2  -2   5   17.11    1.52
  -3   2  -5    0.24    0.44
  -3   2  -5    0.10    0.21
  -3   2  -5    0.18    0.26
  -4   2  -5   23.78    2.26
  -4   2  -5   27.97    2.18
  -5   2  -5    0.38    0.48
  -5   2  -5    0.84    0.53
  -6   2  -5   -0.31    0.40
  -6   2  -5   -0.48    0.48
  -7   2  -5    0.32    0.44
  -8   2  -5   -0.25    0.46
  -9   2  -5   -0.01    0.50
   7   1  -5   -0.94    0.66
  -7  -1   5   -0.90    0.76
   6   1  -5    0.79    0.74
  -6  -1   5    1.25    0.81
   5   1  -5    5.51    1.09
  -5  -1   5    8.52    1.21
   4   1  -5    1.42    0.56
  -4  -1   5    0.11    0.53
   3   1  -5    2.03    0.60
  -3  -1   5    3.16    0.65
   2   1  -5    2.18    0.34
   2   1  -5    1.34    0.49
  -2  -1   5    2.32    0.51
   1   1  -5   14.71    1.23
   1   1  -5   16.52    1.36
  -1  -1   5   13.48    1.29
   0   1  -5    2.12    0.39
   0   1  -5    0.85    0.34
   0  -1   5    1.23    0.30
  -1   1  -5   66.85    4.90
  -1   1  -5   65.87    4.96
  -2   1  -5    1.79    0.33
  -2   1  -5    1.77    0.46
  -3   1  -5    0.37    0.37
  -3   1  -5    0.67    0.24
  -4   1  -5   17.76    1.58
  -4   1  -5   16.81    1.45
  -5   1  -5    3.48    0.62
  -5   1  -5    3.67    0.66
  -6   1  -5    4.11    0.69
  -6   1  -5    2.59    0.68
  -7   1  -5    0.28    0.41
  -7   1  -5   -0.57    0.55
  -8   1  -5    0.58    0.48
  -9   1  -5    2.41    0.63
  -8   0   5   -1.54    0.77
   7   0  -5   -1.36    0.58
  -7   0   5   -0.37    0.75
   6   0  -5    0.06    0.58
  -6   0   5    0.21    0.66
   5   0  -5    0.30    0.53
  -5   0   5    0.07    0.61
   4   0  -5    0.65    0.51
  -4   0   5    1.76    0.64
   3   0  -5    0.94    0.48
  -3   0   5    2.35    0.63
   2   0  -5    9.06    1.08
  -2   0   5   10.18    1.05
   1   0  -5    0.32    0.19
   1   0  -5    0.30    0.29
  -1   0   5    0.51    0.31
   0   0  -5  114.43    8.09
   0   0  -5  107.04    7.84
   0   0   5  107.25    8.30
  -1   0  -5   10.68    0.94
  -1   0  -5   10.10    0.94
  -2   0  -5   25.71    2.01
  -2   0  -5   24.81    1.97
  -3   0  -5   16.07    1.26
  -3   0  -5   13.84    1.31
  -4   0  -5   -0.20    0.29
  -4   0  -5   -0.03    0.30
  -5   0  -5    1.18    0.40
  -5   0  -5    0.92    0.43
  -6   0  -5    8.82    1.05
  -6   0  -5   10.08    1.13
  -7   0  -5   -0.49    0.49
  -7   0  -5   -0.08    0.35
  -8   0  -5    0.66    0.43
  -9   0  -5   -0.40    0.37
  -8   1   5   -0.89    0.79
   7  -1  -5    0.38    0.71
  -7   1   5    0.37    0.81
   6  -1  -5   -0.20    0.61
  -6   1   5   -0.36    0.66
   5  -1  -5   -1.06    0.41
  -5   1   5   -0.62    0.55
   4  -1  -5    6.04    0.94
  -4   1   5    5.86    0.97
   3  -1  -5    4.01    0.68
  -3   1   5    2.80    0.71
   2  -1  -5    5.85    0.79
  -2   1   5    5.87    0.79
   1  -1  -5    0.92    0.36
   1  -1  -5    1.53    0.20
  -1   1   5    1.68    0.41
   0  -1  -5   51.70    3.62
   0  -1  -5   52.85    3.80
   0   1   5   46.06    3.84
  -1  -1  -5    2.03    0.35
  -1  -1  -5    1.77    0.30
  -2  -1  -5  115.68    8.51
  -2  -1  -5  121.21    8.69
  -3  -1  -5    0.34    0.24
  -4  -1  -5   12.19    1.07
  -4  -1  -5   12.18    1.12
  -5  -1  -5    0.43    0.33
  -5  -1  -5    0.91    0.40
  -6  -1  -5    0.18    0.33
  -6  -1  -5   -0.48    0.41
  -7  -1  -5   -0.31    0.29
  -7  -1  -5   -0.03    0.51
  -8  -1  -5    1.07    0.41
  -9  -1  -5    0.51    0.41
  -8   2   5    0.33    0.90
   7  -2  -5    0.48    0.68
  -7   2   5    0.61    0.79
   6  -2  -5    0.24    0.58
  -6   2   5   -0.07    0.64
   5  -2  -5    1.19    0.56
  -5   2   5   -0.06    0.61
   4  -2  -5    4.12    0.72
  -4   2   5    4.19    0.85
   3  -2  -5    0.74    0.41
  -3   2   5   -0.70    0.46
   2  -2  -5    1.62    0.44
  -2   2   5    1.77    0.51
   1  -2  -5   28.01    2.68
   1  -2  -5   37.79    2.47
  -1   2   5   34.84    2.76
   0  -2  -5    0.75    0.17
   0  -2  -5    0.82    0.30
   0   2   5    1.02    0.30
  -1  -2  -5   -0.09    0.16
  -1  -2  -5   -0.02    0.13
  -2  -2  -5   12.73    1.06
  -2  -2  -5   12.87    1.07
  -3  -2  -5    6.40    0.68
  -4  -2  -5   30.94    2.61
  -4  -2  -5   36.55    2.57
  -5  -2  -5    0.26    0.29
  -5  -2  -5    0.23    0.34
  -6  -2  -5    3.91    0.63
  -6  -2  -5    3.85    0.69
  -7  -2  -5   -0.19    0.45
  -7  -2  -5    0.24    0.30
  -8  -2  -5    1.52    0.44
  -8  -2  -5    0.71    0.65
  -9  -2  -5    0.61    0.41
   7  -3  -5   -0.24    0.56
  -7   3   5    0.52    0.79
   6  -3  -5    2.87    0.72
  -6   3   5    2.23    0.81
   5  -3  -5    0.15    0.46
  -5   3   5   -0.29    0.55
   4  -3  -5    7.26    0.97
  -4   3   5    7.72    1.06
   3  -3  -5    4.04    0.70
  -3   3   5    5.15    0.82
   2  -3  -5    1.76    0.45
  -2   3   5    1.61    0.50
   1  -3  -5   10.63    0.80
   1  -3  -5    8.36    0.95
  -1   3   5   11.46    1.03
   0  -3  -5   20.39    1.66
   0  -3  -5   19.94    1.54
   0   3   5   22.23    1.70
  -1  -3  -5   41.75    2.82
  -1  -3  -5   36.80    2.94
  -1  -3  -5   36.50    2.90
  -2  -3  -5    4.33    0.49
  -2  -3  -5    4.12    0.43
  -2  -3  -5    4.90    0.49
  -3  -3  -5   -0.04    0.17
  -3  -3  -5    0.04    0.17
  -4  -3  -5    9.54    0.86
  -4  -3  -5    8.48    0.84
  -5  -3  -5    0.58    0.29
  -5  -3  -5    0.77    0.37
  -6  -3  -5   10.00    1.08
  -6  -3  -5    7.69    0.94
  -7  -3  -5    1.46    0.56
  -7  -3  -5    0.80    0.39
  -8  -3  -5    1.10    0.43
  -8  -3  -5    1.29    0.63
  -9  -3  -5    0.02    0.37
  -7   4   5    3.50    1.01
   6  -4  -5    0.45    0.50
  -6   4   5   -0.44    0.61
  -5   4   5    8.11    1.16
   4  -4  -5    0.31    0.40
  -4   4   5    0.22    0.53
   3  -4  -5    1.94    0.52
  -3   4   5    2.61    0.66
   2  -4  -5   63.12    4.83
  -2   4   5   64.36    5.02
   1  -4  -5  176.06   12.90
   0  -4  -5   16.44    1.31
   0  -4  -5   15.11    1.24
   0  -4  -5   16.65    1.33
  -1  -4  -5    7.67    0.69
  -1  -4  -5    8.06    0.71
  -1  -4  -5    8.41    0.74
  -2  -4  -5   19.92    1.60
  -2  -4  -5   21.67    1.66
  -2  -4  -5   20.24    1.63
  -3  -4  -5   12.84    1.17
  -3  -4  -5   15.44    1.22
  -4  -4  -5    0.09    0.22
  -4  -4  -5    0.37    0.26
  -5  -4  -5    3.78    0.58
  -5  -4  -5    4.39    0.64
  -6  -4  -5    0.77    0.49
  -6  -4  -5    1.20    0.39
  -7  -4  -5    0.48    0.34
  -7  -4  -5    0.69    0.52
  -8  -4  -5    1.99    0.69
  -8  -4  -5    1.24    0.45
  -9  -4  -5   -0.08    0.38
  -7   5   5    2.88    0.96
  -6   5   5    5.83    1.08
   5  -5  -5   -0.81    0.36
  -5   5   5    0.24    0.62
   4  -5  -5   -0.43    0.35
  -4   5   5   -0.33    0.53
   3  -5  -5    5.38    0.77
  -3   5   5    5.22    0.90
   2  -5  -5    0.26    0.30
  -2   5   5    0.67    0.42
   1  -5  -5    6.30    0.66
  -1   5   5    7.02    0.74
   0  -5  -5   48.95    3.71
   0  -5  -5   48.78    3.58
   0  -5  -5   45.43    3.49
  -1  -5  -5    2.01    0.33
  -1  -5  -5    2.36    0.35
  -1  -5  -5    2.34    0.37
  -2  -5  -5   30.82    2.46
  -2  -5  -5   31.20    2.35
  -3  -5  -5    6.00    0.67
  -3  -5  -5    4.91    0.60
  -4  -5  -5    8.07    0.84
  -4  -5  -5    8.33    0.83
  -5  -5  -5    2.26    0.45
  -5  -5  -5    2.36    0.52
  -6  -5  -5    0.96    0.46
  -6  -5  -5    1.77    0.44
  -7  -5  -5    1.29    0.59
  -7  -5  -5    0.72    0.39
  -8  -5  -5   -0.08    0.60
  -8  -5  -5    0.32    0.40
  -9  -5  -5    0.26    0.68
  -9  -5  -5   -0.69    0.39
  -7   6   5    0.42    0.80
  -6   6   5    4.73    1.02
  -5   6   5    0.53    0.66
   4  -6  -5    8.78    1.00
  -4   6   5    8.19    1.15
   3  -6  -5    0.59    0.36
  -3   6   5   -0.51    0.46
   2  -6  -5   28.35    2.24
  -2   6   5   28.63    2.43
   1  -6  -5    1.30    0.31
   1  -6  -5    1.38    0.43
  -1   6   5    1.17    0.39
   0  -6  -5    2.91    0.37
   0  -6  -5    2.69    0.46
   0  -6  -5    1.83    0.36
  -1  -6  -5   21.00    1.56
  -1  -6  -5   17.99    1.61
  -2  -6  -5    6.56    0.76
  -2  -6  -5    7.08    0.73
  -3  -6  -5    0.79    0.29
  -3  -6  -5    0.70    0.34
  -4  -6  -5   32.22    2.63
  -4  -6  -5   31.80    2.51
  -5  -6  -5    0.04    0.33
  -5  -6  -5    0.17    0.29
  -6  -6  -5    4.82    0.75
  -6  -6  -5    5.08    0.74
  -7  -6  -5    0.24    0.48
  -7  -6  -5    0.63    0.40
  -8  -6  -5   -0.27    0.54
  -8  -6  -5    0.39    0.46
  -9  -6  -5    0.55    0.50
  -9  -6  -5    0.60    0.71
  -7   7   5    1.19    0.88
  -6   7   5   -0.27    0.70
  -5   7   5    1.76    0.74
  -4   7   5   13.69    1.54
  -3   7   5    1.03    0.54
   2  -7  -5    1.88    0.36
  -2   7   5    2.04    0.59
   1  -7  -5   -0.01    0.19
   1  -7  -5    0.17    0.38
   0  -7  -5    0.09    0.30
   0  -7  -5    0.15    0.19
  -1  -7  -5    0.52    0.33
  -1  -7  -5    0.57    0.28
  -2  -7  -5    4.04    0.58
  -2  -7  -5    3.57    0.53
  -3  -7  -5   15.72    1.38
  -3  -7  -5   15.74    1.42
  -4  -7  -5    0.89    0.40
  -4  -7  -5    0.35    0.37
  -5  -7  -5    0.92    0.44
  -5  -7  -5    1.62    0.45
  -6  -7  -5    0.47    0.39
  -6  -7  -5    0.51    0.41
  -7  -7  -5    0.63    0.48
  -7  -7  -5    1.36    0.56
  -8  -7  -5   -0.10    0.48
  -8  -7  -5   -0.42    0.58
  -9  -7  -5    0.65    0.57
  -6   8   5    2.31    0.91
  -5   8   5    1.15    0.72
  -4   8   5    1.16    0.68
  -3   8   5    1.12    0.60
  -3   8   5    1.30    0.50
  -2   8   5    2.44    0.61
   1  -8  -5    1.65    0.31
   1  -8  -5    1.83    0.53
   0  -8  -5    4.26    0.65
  -1  -8  -5   -0.13    0.32
  -2  -8  -5    0.86    0.33
  -2  -8  -5    1.02    0.40
  -3  -8  -5    8.65    1.00
  -3  -8  -5   10.20    0.98
  -4  -8  -5    0.83    0.37
  -4  -8  -5    0.92    0.42
  -5  -8  -5    3.68    0.68
  -5  -8  -5    2.69    0.59
  -6  -8  -5   -0.01    0.38
  -6  -8  -5    0.17    0.44
  -7  -8  -5    0.42    0.54
  -7  -8  -5    0.37    0.48
  -8  -8  -5    0.46    0.51
  -8  -8  -5    0.26    0.55
  -6   9   5    0.83    0.90
  -5   9   5    0.55    0.77
  -4   9   5    1.51    0.72
  -3   9   5   -0.53    0.46
  -3   9   5   -0.07    0.59
  -2   9   5    6.75    0.97
  -2   9   5    5.75    0.94
   1  -9  -5   -0.17    0.40
   0  -9  -5   -0.04    0.33
  -1  -9  -5    4.55    0.69
  -2  -9  -5    2.26    0.53
  -3  -9  -5    8.24    0.99
  -3  -9  -5    7.54    0.93
  -4  -9  -5    1.41    0.50
  -4  -9  -5    1.35    0.46
  -5  -9  -5    0.76    0.45
  -5  -9  -5    1.46    0.52
  -6  -9  -5    0.88    0.58
  -6  -9  -5    0.43    0.44
  -7  -9  -5    0.17    0.47
  -7  -9  -5    0.22    0.63
  -8  -9  -5   -0.91    0.57
  -8  -9  -5    0.61    0.54
  -5  10   5    0.44    0.80
  -4  10   5    2.02    0.82
  -3  10   5    0.02    0.65
   2 -10  -5   -0.39    0.49
  -2  10   5    0.39    0.48
  -2  10   5    0.00    0.48
   1 -10  -5    0.04    0.43
   0 -10  -5    2.58    0.57
  -2 -10  -5    0.22    0.38
  -3 -10  -5    4.90    0.76
  -4 -10  -5    0.75    0.42
  -4 -10  -5    0.68    0.50
  -5 -10  -5    5.75    0.94
  -5 -10  -5    6.55    0.94
  -6 -10  -5    0.18    0.54
  -6 -10  -5    0.74    0.50
  -7 -10  -5    0.86    0.58
  -7 -10  -5    1.07    0.69
  -5  11   5    0.94    0.95
  -4  11   5   -0.59    0.75
  -3  11   5    0.38    0.66
   2 -11  -5    1.98    0.69
  -2  11   5    2.15    0.68
   1 -11  -5    0.14    0.47
   0 -11  -5    1.50    0.53
  -1 -11  -5   -0.42    0.37
  -2 -11  -5   -0.33    0.37
  -3 -11  -5    0.22    0.43
  -4 -11  -5    0.85    0.54
  -5 -11  -5    1.65    0.65
  -6 -11  -5    0.85    0.63
  -7 -11  -5    2.59    0.82
  -4  12   5    4.45    1.22
  -3  12   5    0.61    0.72
   2 -12  -5   -0.32    0.59
  -2  12   5    0.52    0.56
   1 -12  -5    0.08    0.54
   0 -12  -5    7.01    1.00
  -1 -12  -5    0.66    0.52
  -2 -12  -5   -0.34    0.41
  -3 -12  -5   -0.10    0.43
  -4 -12  -5   -0.12    0.52
  -5 -12  -5    0.45    0.59
  -6 -12  -5    0.16    0.64
  -3  13   5    0.05    0.81
   2 -13  -5    4.67    1.05
  -2  13   5    6.19    1.10
   1 -13  -5    1.23    0.67
  -1  13   5    1.83    0.76
   0 -13  -5    0.12    0.56
  -1 -13  -5    0.34    0.53
  -2 -13  -5    0.51    0.52
  -3 -13  -5   -0.17    0.52
  -4 -13  -5   -0.98    0.43
  -5 -13  -5    0.41    0.64
   1 -14  -5   -0.43    0.65
  -1  14   5    0.30    0.66
   0 -14  -5    3.50    0.84
  -1 -14  -5   -0.24    0.54
  -2 -14  -5    0.00    0.58
  -3 -14  -5    0.69    0.61
  -4 -14  -5    0.12    0.64
   2  10  -6    0.52    0.74
  -2 -10   6    0.83    0.76
   1  10  -6    0.25    0.82
  -1 -10   6    0.30    0.63
   0  10  -6    0.10    0.86
  -1  10  -6    2.60    0.97
  -2  10  -6    0.57    0.87
  -3  10  -6   -0.92    0.73
  -4  10  -6    0.23    0.83
  -3  -9   6    0.25    0.70
   2   9  -6    0.38    0.68
  -2  -9   6   -0.24    0.65
   1   9  -6    0.75    0.69
  -1  -9   6   -0.32    0.58
   0   9  -6   -0.77    0.60
   0  -9   6   -0.10    0.50
  -1   9  -6   -0.11    0.65
  -2   9  -6    0.36    0.72
  -3   9  -6    1.82    0.91
  -4   9  -6   -1.22    0.67
  -5   9  -6    2.83    1.09
   4   8  -6   -0.62    0.60
  -4  -8   6    0.34    0.70
   3   8  -6    2.22    0.79
  -3  -8   6    2.02    0.79
   2   8  -6   -0.03    0.63
  -2  -8   6    0.90    0.64
   1   8  -6    4.75    1.04
  -1  -8   6    9.55    1.19
   0   8  -6    0.01    0.57
   0  -8   6    0.40    0.49
  -1   8  -6   -0.37    0.61
   1  -8   6   -0.12    0.43
  -2   8  -6    0.17    0.62
  -3   8  -6   -0.88    0.63
  -4   8  -6    0.42    0.76
  -5   8  -6   -1.40    0.68
  -6   8  -6    2.14    1.00
   5   7  -6    1.82    0.82
  -5  -7   6    0.90    0.75
   4   7  -6    1.72    0.83
  -4  -7   6    4.19    0.92
   3   7  -6   -0.21    0.57
  -3  -7   6    1.14    0.60
   2   7  -6    1.76    0.66
   2   7  -6    1.10    0.63
  -2  -7   6    1.42    0.62
   1   7  -6    1.93    0.59
   1   7  -6    0.85    0.63
  -1  -7   6    2.16    0.62
   0   7  -6    0.03    0.55
   0  -7   6    0.25    0.47
  -1   7  -6    3.03    0.86
   1  -7   6    5.53    0.80
  -2   7  -6    0.17    0.60
   2  -7   6    0.47    0.44
  -3   7  -6    2.00    0.78
  -4   7  -6   -0.46    0.65
  -5   7  -6   -0.62    0.69
  -6   7  -6    1.40    0.78
  -7   7  -6    0.39    0.82
   5   6  -6    0.59    0.71
  -5  -6   6   -0.45    0.61
   4   6  -6    0.72    0.66
  -4  -6   6    0.12    0.58
   3   6  -6    1.88    0.72
  -3  -6   6    4.21    0.81
   2   6  -6    4.40    0.86
   2   6  -6    4.67    0.86
  -2  -6   6    5.26    0.89
   1   6  -6    0.48    0.54
   1   6  -6   -0.39    0.39
  -1  -6   6    0.24    0.45
   0   6  -6   10.76    1.43
   0   6  -6   15.58    1.34
   0  -6   6   14.52    1.40
  -1   6  -6    0.34    0.54
   1  -6   6   -0.11    0.36
  -2   6  -6    1.50    0.70
   2  -6   6    2.13    0.51
  -3   6  -6    1.28    0.70
  -4   6  -6   -0.11    0.62
  -5   6  -6   -0.26    0.70
  -6   6  -6    0.42    0.79
  -7   6  -6   -0.04    0.81
   6   5  -6    0.55    0.78
  -6  -5   6    0.40    0.75
   5   5  -6    1.13    0.73
  -5  -5   6    2.08    0.82
   4   5  -6    2.77    0.77
  -4  -5   6    1.94    0.71
   3   5  -6   16.29    1.65
  -3  -5   6   13.56    1.54
   2   5  -6    0.72    0.52
   2   5  -6    1.91    0.57
  -2  -5   6    0.65    0.49
   1   5  -6   31.82    2.61
   1   5  -6   30.68    2.58
  -1  -5   6   30.63    2.64
   0   5  -6   12.76    1.22
   0   5  -6   10.22    1.34
   0  -5   6   13.50    1.24
  -1   5  -6    0.43    0.55
  -1   5  -6    0.13    0.31
   1  -5   6   -0.03    0.34
  -2   5  -6   54.55    3.99
  -2   5  -6   47.45    3.73
   2  -5   6   47.91    3.89
  -3   5  -6    0.03    0.61
   3  -5   6    0.54    0.41
  -4   5  -6    7.34    1.23
  -5   5  -6   -0.95    0.62
  -6   5  -6    0.53    0.74
  -7   5  -6    0.48    0.77
  -8   5  -6    1.80    0.87
   6   4  -6    1.30    0.84
  -6  -4   6    3.77    1.01
   5   4  -6    1.55    0.75
  -5  -4   6    0.44    0.67
   4   4  -6    1.01    0.62
  -4  -4   6    1.24    0.67
   3   4  -6    1.05    0.56
  -3  -4   6    1.32    0.58
   2   4  -6    3.77    0.78
   2   4  -6    5.51    0.75
  -2  -4   6    3.49    0.72
   1   4  -6   14.58    1.44
   1   4  -6   15.27    1.47
  -1  -4   6   14.30    1.38
   0   4  -6    1.18    0.56
   0   4  -6    2.36    0.52
   0  -4   6    1.52    0.45
  -1   4  -6    9.23    0.95
  -1   4  -6    9.36    1.19
   1  -4   6    9.97    0.97
  -2   4  -6   20.29    1.69
  -2   4  -6   21.54    2.00
   2  -4   6   20.46    1.73
  -3   4  -6    3.54    0.92
  -3   4  -6    4.71    0.61
   3  -4   6    6.53    0.73
  -4   4  -6   29.01    2.67
  -5   4  -6    3.61    0.95
  -6   4  -6    6.47    1.15
  -7   4  -6    1.03    0.73
  -8   4  -6   -1.25    0.54
  -7  -3   6   -0.55    0.78
   6   3  -6    0.09    0.72
  -6  -3   6   -0.89    0.65
   5   3  -6    0.42    0.62
  -5  -3   6    1.20    0.70
   4   3  -6    1.53    0.65
  -4  -3   6    2.35    0.74
   3   3  -6    2.02    0.61
  -3  -3   6    2.00    0.63
   2   3  -6   21.02    1.72
   2   3  -6   18.96    1.87
  -2  -3   6   19.53    1.83
   1   3  -6    4.65    0.75
   1   3  -6    3.58    0.65
  -1  -3   6    4.72    0.68
   0   3  -6   12.41    1.17
   0   3  -6   12.19    1.26
   0  -3   6   11.19    1.10
  -1   3  -6   66.70    5.06
  -1   3  -6   66.24    5.05
   1  -3   6   67.55    5.17
  -2   3  -6   -0.05    0.49
  -2   3  -6    0.24    0.28
   2  -3   6    0.03    0.27
  -3   3  -6    7.80    0.79
  -3   3  -6    7.56    1.13
  -4   3  -6   47.69    3.87
  -5   3  -6   12.86    1.55
  -6   3  -6    2.17    0.70
  -7   3  -6   -0.03    0.55
  -8   3  -6    1.26    0.65
  -9   3  -6   -0.13    0.60
   7   2  -6    1.63    0.95
  -7  -2   6    2.88    1.06
   6   2  -6    2.27    0.88
  -6  -2   6    2.43    0.93
   5   2  -6   -0.14    0.55
  -5  -2   6   -0.18    0.57
   4   2  -6    2.12    0.67
  -4  -2   6    1.89    0.71
   3   2  -6    3.82    0.76
  -3  -2   6    3.56    0.75
   2   2  -6    4.47    0.79
   2   2  -6    4.91    0.61
  -2  -2   6    3.89    0.70
   1   2  -6    2.50    0.56
   1   2  -6    1.98    0.48
  -1  -2   6    2.72    0.49
   0   2  -6    0.08    0.38
   0   2  -6   -0.19    0.27
   0  -2   6    0.11    0.25
  -1   2  -6    2.34    0.59
  -1   2  -6    2.79    0.51
   1  -2   6    3.53    0.44
  -2   2  -6    3.33    0.68
  -2   2  -6    2.72    0.47
  -3   2  -6   26.27    2.17
  -3   2  -6   23.31    1.94
  -4   2  -6    2.17    0.65
  -5   2  -6    2.90    0.73
  -6   2  -6   -0.27    0.46
  -7   2  -6    6.47    1.04
  -8   2  -6    0.46    0.59
  -9   2  -6    0.66    0.57
   7   1  -6    1.12    0.81
  -7  -1   6    1.77    0.97
   6   1  -6   -0.03    0.65
  -6  -1   6   -0.32    0.69
   5   1  -6    1.37    0.69
  -5  -1   6    1.59    0.78
   4   1  -6    8.09    1.19
  -4  -1   6    9.35    1.25
   3   1  -6   13.60    1.51
  -3  -1   6   15.70    1.53
   2   1  -6    3.20    0.69
   2   1  -6    3.98    0.49
  -2  -1   6    4.83    0.71
   1   1  -6   13.98    1.33
   1   1  -6   13.81    1.21
  -1  -1   6   13.43    1.27
   0   1  -6   12.53    1.19
   0   1  -6   13.53    1.22
   0  -1   6   13.17    1.15
  -1   1  -6    5.16    0.68
  -1   1  -6    5.21    0.72
  -2   1  -6    2.16    0.42
  -2   1  -6    2.24    0.52
  -3   1  -6   31.42    2.54
  -3   1  -6   31.13    2.44
  -4   1  -6    8.69    1.05
  -5   1  -6    3.37    0.68
  -6   1  -6    1.80    0.57
  -7   1  -6    0.34    0.47
  -8   1  -6    0.61    0.49
  -9   1  -6   -0.46    0.44
   7   0  -6   -0.34    0.75
  -7   0   6    0.40    0.91
   6   0  -6    2.98    0.87
  -6   0   6    5.26    1.10
   5   0  -6   -0.30    0.48
  -5   0   6    0.23    0.65
   4   0  -6    2.20    0.65
  -4   0   6    2.08    0.73
   3   0  -6    4.52    0.84
  -3   0   6    7.44    0.98
   2   0  -6    0.56    0.43
  -2   0   6    1.20    0.46
   1   0  -6   16.39    1.28
   1   0  -6   16.63    1.48
  -1   0   6   15.41    1.42
   0   0  -6   -0.06    0.22
   0   0  -6    0.04    0.26
   0   0   6   -0.24    0.21
  -1   0  -6    9.47    0.93
  -1   0  -6    9.58    0.92
  -2   0  -6    8.64    0.94
  -2   0  -6    9.48    0.88
  -3   0  -6    2.08    0.47
  -3   0  -6    2.03    0.38
  -4   0  -6    5.56    0.76
  -5   0  -6    0.18    0.37
  -5   0  -6   -0.31    0.33
  -6   0  -6    2.13    0.55
  -7   0  -6    1.73    0.53
  -8   0  -6    0.23    0.42
  -9   0  -6   -0.22    0.43
   7  -1  -6    0.40    0.69
  -7   1   6   -1.34    0.74
   6  -1  -6    1.71    0.73
  -6   1   6    2.78    0.94
   5  -1  -6    0.71    0.57
  -5   1   6    2.35    0.78
   4  -1  -6    8.73    1.15
  -4   1   6    8.91    1.23
   3  -1  -6    3.40    0.73
  -3   1   6    5.70    0.89
   2  -1  -6    0.51    0.38
  -2   1   6    1.23    0.51
   1  -1  -6   45.32    3.15
   1  -1  -6   39.49    3.39
  -1   1   6   44.10    3.45
   0  -1  -6    0.06    0.26
   0  -1  -6   -0.04    0.17
   0   1   6    0.16    0.25
  -1  -1  -6   33.44    2.57
  -1  -1  -6   32.35    2.47
  -2  -1  -6   12.65    1.11
  -2  -1  -6   12.79    1.11
  -3  -1  -6    0.00    0.27
  -3  -1  -6    0.40    0.22
  -4  -1  -6    6.18    0.75
  -5  -1  -6    1.08    0.42
  -5  -1  -6    1.48    0.39
  -6  -1  -6    2.88    0.58
  -6  -1  -6    2.84    0.56
  -7  -1  -6   -0.07    0.32
  -8  -1  -6   -0.14    0.38
  -9  -1  -6   -0.04    0.40
   7  -2  -6   -0.74    0.62
  -7   2   6   -0.01    0.83
   6  -2  -6    0.22    0.57
  -6   2   6    0.12    0.73
   5  -2  -6    1.89    0.69
  -5   2   6    3.24    0.90
   4  -2  -6    1.63    0.57
  -4   2   6    1.44    0.67
   3  -2  -6   -0.02    0.35
  -3   2   6    0.38    0.59
   2  -2  -6   -0.22    0.33
  -2   2   6    0.53    0.50
   1  -2  -6    0.11    0.29
   1  -2  -6    0.06    0.10
  -1   2   6    0.49    0.39
   0  -2  -6    0.44    0.17
   0  -2  -6    0.65    0.31
   0   2   6   -0.09    0.30
  -1  -2  -6   15.37    1.38
  -1  -2  -6   17.70    1.33
  -2  -2  -6   19.59    1.58
  -2  -2  -6   20.29    1.62
  -3  -2  -6   44.09    3.19
  -3  -2  -6   39.23    3.13
  -4  -2  -6   11.52    1.08
  -5  -2  -6    3.31    0.51
  -5  -2  -6    2.38    0.50
  -6  -2  -6    0.33    0.38
  -6  -2  -6    0.10    0.29
  -7  -2  -6   -0.27    0.29
  -8  -2  -6   -0.13    0.33
  -9  -2  -6   -0.09    0.38
   7  -3  -6   -0.14    0.61
  -7   3   6   -0.81    0.73
   6  -3  -6    0.58    0.57
  -6   3   6   -0.62    0.68
   5  -3  -6    0.60    0.48
  -5   3   6   -0.34    0.64
   4  -3  -6    2.17    0.56
  -4   3   6    2.45    0.75
   3  -3  -6    6.48    0.93
  -3   3   6    9.32    1.11
   2  -3  -6    3.00    0.65
  -2   3   6    4.18    0.72
   1  -3  -6   13.93    0.98
   1  -3  -6   11.52    1.20
  -1   3   6   11.07    1.21
   0  -3  -6    4.40    0.60
   0  -3  -6    3.55    0.39
   0   3   6    3.63    0.56
  -1  -3  -6    4.65    0.47
  -1  -3  -6    3.80    0.55
   1   3   6    4.13    0.48
  -2  -3  -6    4.22    0.53
  -2  -3  -6    4.27    0.50
  -3  -3  -6    1.24    0.31
  -4  -3  -6    4.27    0.59
  -4  -3  -6    4.83    0.53
  -5  -3  -6    1.51    0.42
  -5  -3  -6    2.79    0.45
  -6  -3  -6    5.83    0.78
  -6  -3  -6    5.71    0.74
  -7  -3  -6    1.25    0.53
  -7  -3  -6    1.52    0.43
  -8  -3  -6    0.57    0.40
  -9  -3  -6    0.18    0.41
  -7   4   6    4.01    1.11
   6  -4  -6    0.06    0.48
  -6   4   6    0.88    0.77
  -5   4   6    9.11    1.30
   4  -4  -6    5.74    0.84
  -4   4   6    4.80    0.90
   3  -4  -6   17.56    1.69
  -3   4   6   19.99    1.82
   2  -4  -6    5.04    0.78
  -2   4   6    7.47    0.90
   1  -4  -6   10.26    0.80
   1  -4  -6    8.28    1.04
  -1   4   6   10.35    1.05
   0  -4  -6   -0.09    0.12
   0  -4  -6    0.23    0.23
   0   4   6   -0.07    0.25
  -1  -4  -6    7.48    0.75
  -1  -4  -6    8.26    0.72
  -1  -4  -6    7.60    0.69
  -2  -4  -6   32.03    2.49
  -2  -4  -6   29.69    2.47
  -2  -4  -6   34.58    2.43
  -3  -4  -6    8.98    0.81
  -3  -4  -6    8.55    0.83
  -4  -4  -6    8.36    0.82
  -4  -4  -6    7.78    0.78
  -5  -4  -6   -0.20    0.27
  -5  -4  -6   -0.23    0.24
  -6  -4  -6   -0.26    0.25
  -6  -4  -6   -0.12    0.34
  -7  -4  -6   -0.18    0.45
  -7  -4  -6   -0.04    0.29
  -8  -4  -6    3.13    0.60
  -9  -4  -6    0.23    0.38
  -7   5   6    0.14    0.81
  -6   5   6   -0.03    0.68
   5  -5  -6   -0.19    0.42
  -5   5   6    0.59    0.66
   4  -5  -6   -0.08    0.42
  -4   5   6   -0.02    0.56
   3  -5  -6   27.80    2.32
  -3   5   6   27.57    2.44
   2  -5  -6    0.13    0.35
  -2   5   6   -0.53    0.44
   1  -5  -6    0.15    0.28
  -1   5   6    0.38    0.40
   0  -5  -6    9.03    0.84
   0  -5  -6    8.60    0.83
   0  -5  -6    7.54    0.76
   0   5   6   10.07    0.86
  -1  -5  -6    2.44    0.37
  -1  -5  -6    1.38    0.28
  -1  -5  -6    1.87    0.34
  -2  -5  -6    2.34    0.39
  -2  -5  -6    3.14    0.43
  -2  -5  -6    4.29    0.50
  -3  -5  -6    0.32    0.24
  -3  -5  -6    1.10    0.32
  -4  -5  -6    0.63    0.31
  -4  -5  -6   -0.12    0.20
  -5  -5  -6   17.42    1.54
  -5  -5  -6   18.33    1.56
  -6  -5  -6    0.78    0.42
  -6  -5  -6    0.63    0.33
  -7  -5  -6    0.83    0.39
  -7  -5  -6    0.05    0.44
  -8  -5  -6    0.05    0.34
  -8  -5  -6   -0.08    0.51
  -9  -5  -6    0.26    0.42
  -7   6   6   -0.95    0.74
  -6   6   6    1.22    0.80
  -5   6   6   14.88    1.82
   4  -6  -6    5.01    0.81
  -4   6   6    6.31    1.02
   3  -6  -6    0.20    0.36
  -3   6   6    0.06    0.51
   2  -6  -6   14.77    1.34
  -2   6   6   14.99    1.47
   1  -6  -6    6.56    0.68
  -1   6   6    5.96    0.78
   0  -6  -6    0.54    0.23
   0  -6  -6    0.41    0.34
   0  -6  -6    0.82    0.26
  -1  -6  -6   17.21    1.43
  -1  -6  -6   16.79    1.43
  -1  -6  -6   18.73    1.48
  -2  -6  -6    1.05    0.27
  -2  -6  -6    0.39    0.28
  -3  -6  -6    0.36    0.25
  -3  -6  -6    0.45    0.31
  -4  -6  -6   -0.22    0.28
  -4  -6  -6    0.16    0.24
  -5  -6  -6   10.68    1.09
  -5  -6  -6   12.25    1.14
  -6  -6  -6    0.72    0.37
  -6  -6  -6    0.85    0.44
  -7  -6  -6    2.50    0.52
  -7  -6  -6    1.00    0.51
  -8  -6  -6    0.67    0.44
  -8  -6  -6   -0.22    0.54
  -9  -6  -6   -0.05    0.42
  -6   7   6    2.18    0.90
  -5   7   6    1.53    0.77
  -4   7   6   -0.24    0.56
   3  -7  -6    3.20    0.57
  -3   7   6    3.26    0.75
   2  -7  -6   13.07    1.18
  -2   7   6   14.16    1.41
   1  -7  -6    3.35    0.48
  -1   7   6    3.49    0.62
   0  -7  -6    0.41    0.21
   0  -7  -6    0.10    0.36
  -1  -7  -6    1.90    0.43
  -1  -7  -6    2.37    0.41
  -2  -7  -6    0.46    0.31
  -2  -7  -6    1.01    0.31
  -3  -7  -6    0.58    0.35
  -3  -7  -6    0.09    0.27
  -4  -7  -6    8.68    0.92
  -4  -7  -6    8.76    0.92
  -5  -7  -6    3.34    0.65
  -5  -7  -6    4.05    0.63
  -6  -7  -6    3.40    0.68
  -6  -7  -6    4.28    0.70
  -7  -7  -6    3.96    0.72
  -7  -7  -6    1.95    0.59
  -8  -7  -6    1.70    0.64
  -8  -7  -6    1.83    0.66
  -9  -7  -6    0.64    0.55
  -6   8   6    1.12    0.89
  -5   8   6    0.33    0.73
  -4   8   6    0.73    0.68
  -3   8   6    0.34    0.55
  -2   8   6    1.69    0.59
   1  -8  -6    0.13    0.20
   1  -8  -6    0.76    0.41
   0  -8  -6    1.78    0.33
   0  -8  -6    0.78    0.41
  -1  -8  -6    0.34    0.34
  -1  -8  -6    0.13    0.26
  -2  -8  -6    1.69    0.43
  -2  -8  -6    1.82    0.41
  -3  -8  -6    1.06    0.38
  -3  -8  -6    0.81    0.34
  -4  -8  -6    8.21    0.96
  -4  -8  -6    6.77    0.89
  -5  -8  -6    1.03    0.44
  -5  -8  -6    0.55    0.41
  -6  -8  -6    0.99    0.53
  -6  -8  -6    1.91    0.57
  -7  -8  -6    0.02    0.51
  -7  -8  -6   -0.14    0.46
  -8  -8  -6    0.05    0.56
  -8  -8  -6   -0.32    0.46
  -6   9   6   -0.10    0.82
  -5   9   6    4.16    1.06
  -4   9   6    1.77    0.79
  -3   9   6    1.85    0.76
  -2   9   6    0.69    0.52
   1  -9  -6   -0.08    0.46
   0  -9  -6    2.18    0.53
  -1  -9  -6   10.05    1.04
  -2  -9  -6    0.09    0.33
  -2  -9  -6   -0.08    0.26
  -3  -9  -6   -0.10    0.33
  -3  -9  -6    0.02    0.27
  -4  -9  -6    0.36    0.39
  -4  -9  -6    0.07    0.29
  -5  -9  -6    4.13    0.69
  -5  -9  -6    2.69    0.64
  -6  -9  -6    1.28    0.59
  -6  -9  -6    0.36    0.43
  -7  -9  -6    3.68    0.82
  -7  -9  -6    4.00    0.82
  -8  -9  -6    0.12    0.52
  -8  -9  -6   -0.08    0.64
  -5  10   6    0.53    0.85
  -4  10   6   -0.01    0.69
  -3  10   6    3.68    0.93
  -2  10   6    2.69    0.73
  -2  10   6    2.95    0.70
   1 -10  -6    3.76    0.75
   0 -10  -6    6.34    0.87
  -1 -10  -6    0.11    0.36
  -2 -10  -6   -0.01    0.35
  -3 -10  -6   -0.33    0.32
  -3 -10  -6    0.16    0.32
  -4 -10  -6    0.91    0.48
  -4 -10  -6    0.92    0.45
  -5 -10  -6    1.21    0.58
  -5 -10  -6    2.66    0.62
  -6 -10  -6    0.18    0.56
  -6 -10  -6    0.23    0.46
  -7 -10  -6    2.01    0.72
  -7 -10  -6    2.12    0.67
  -8 -10  -6   -0.59    0.62
  -4  11   6    0.63    0.85
  -3  11   6    0.68    0.75
  -2  11   6    1.01    0.65
  -2  11   6    1.48    0.65
   1 -11  -6    0.46    0.51
   0 -11  -6    0.67    0.48
  -1 -11  -6    0.60    0.44
  -2 -11  -6    5.12    0.77
  -3 -11  -6    0.98    0.48
  -4 -11  -6    0.75    0.51
  -5 -11  -6    0.97    0.51
  -5 -11  -6    1.62    0.61
  -6 -11  -6    1.02    0.64
  -6 -11  -6    2.90    0.71
  -7 -11  -6    1.93    0.68
  -7 -11  -6    1.14    0.70
  -4  12   6    1.26    0.88
  -3  12   6    2.94    1.02
  -2  12   6    0.25    0.64
  -2  12   6    1.53    0.65
   1 -12  -6    0.47    0.59
   0 -12  -6   -0.17    0.46
  -1 -12  -6    3.11    0.64
  -2 -12  -6   -0.13    0.41
  -3 -12  -6    0.59    0.48
  -4 -12  -6    0.25    0.47
  -5 -12  -6    0.17    0.53
  -6 -12  -6    0.89    0.69
  -3  13   6    0.49    0.89
  -2  13   6    1.17    0.72
  -2  13   6    0.71    0.74
   1 -13  -6   -0.17    0.59
  -1  13   6    0.63    0.61
   0 -13  -6    1.23    0.66
  -1 -13  -6    0.08    0.50
  -2 -13  -6    2.58    0.69
  -3 -13  -6   -0.35    0.47
  -4 -13  -6    0.42    0.53
  -5 -13  -6   -0.28    0.54
   1 -14  -6    0.85    0.76
  -1  14   6    2.64    0.85
   0 -14  -6   -0.57    0.60
  -1 -14  -6    0.28    0.54
  -2 -14  -6    0.09    0.52
  -3 -14  -6    0.14    0.55
  -4 -14  -6    0.48    0.62
  -1  10  -7    1.51    1.01
  -2  10  -7   -0.45    0.82
  -2  -9   7    1.27    0.77
   1   9  -7   -0.23    0.71
   0   9  -7    1.23    0.91
  -1   9  -7    0.57    0.89
  -2   9  -7    0.51    0.83
  -3   9  -7    0.49    0.83
  -4   9  -7    0.28    0.78
  -3  -8   7    1.04    0.78
  -2  -8   7   -0.53    0.58
   1   8  -7    4.54    1.09
  -1  -8   7   10.55    1.28
   0   8  -7    0.84    0.70
  -1   8  -7   -0.65    0.58
  -2   8  -7   -0.26    0.64
  -3   8  -7   -0.50    0.67
  -4   8  -7    0.63    0.78
  -5   8  -7    0.56    0.87
   4   7  -7    0.19    0.70
  -4  -7   7    2.10    0.74
   3   7  -7    0.86    0.69
  -3  -7   7    0.16    0.64
   2   7  -7   -0.65    0.49
  -2  -7   7   -0.49    0.59
   1   7  -7    0.83    0.57
   1   7  -7    1.15    0.67
  -1  -7   7    0.88    0.58
   0   7  -7   -0.35    0.56
   0  -7   7    0.47    0.49
  -1   7  -7   -0.04    0.57
  -2   7  -7    1.08    0.69
  -3   7  -7    0.20    0.67
  -4   7  -7    0.02    0.73
  -5   7  -7    0.17    0.81
  -6   7  -7    1.06    0.90
   5   6  -7   -0.17    0.68
  -5  -6   7    1.01    0.75
   4   6  -7    0.22    0.63
  -4  -6   7    1.50    0.72
   3   6  -7    1.24    0.67
  -3  -6   7    2.60    0.70
   2   6  -7    1.86    0.69
  -2  -6   7    1.87    0.63
   1   6  -7   -0.07    0.53
   1   6  -7    0.41    0.50
  -1  -6   7    0.17    0.47
   0   6  -7    1.20    0.62
   0   6  -7    0.35    0.42
   0  -6   7    1.44    0.53
  -1   6  -7    3.46    0.83
  -2   6  -7   -0.97    0.48
  -3   6  -7    2.45    0.82
  -5   6  -7   -0.38    0.70
  -6   6  -7    0.56    0.78
  -7   6  -7   -0.15    0.78
   5   5  -7   -0.27    0.63
  -5  -5   7    0.80    0.72
   4   5  -7    0.92    0.66
  -4  -5   7    1.55    0.70
   3   5  -7   -0.27    0.53
  -3  -5   7   -0.19    0.48
   2   5  -7    1.87    0.59
  -2  -5   7    1.34    0.53
   1   5  -7    0.72    0.51
   1   5  -7    0.24    0.53
  -1  -5   7    0.33    0.45
   0   5  -7   -0.07    0.36
   0   5  -7    0.34    0.50
   0  -5   7    0.56    0.40
  -1   5  -7    0.25    0.55
  -1   5  -7    0.19    0.34
   1  -5   7    0.86    0.40
  -2   5  -7    0.24    0.56
  -2   5  -7   -0.17    0.27
  -3   5  -7    5.04    0.99
  -4   5  -7    0.79    0.69
  -5   5  -7    1.98    0.83
  -6   5  -7    0.34    0.67
  -7   5  -7    0.80    0.79
  -8   5  -7   -0.67    0.70
   6   4  -7    0.73    0.75
  -6  -4   7    0.23    0.81
   5   4  -7    0.09    0.66
  -5  -4   7   -0.29    0.64
   4   4  -7    2.81    0.80
  -4  -4   7    2.03    0.72
   3   4  -7    0.61    0.54
  -3  -4   7    0.22    0.53
   2   4  -7    1.69    0.57
  -2  -4   7    1.00    0.51
   1   4  -7    6.49    0.90
   1   4  -7    6.17    0.95
  -1  -4   7    5.07    0.77
   0   4  -7    0.38    0.49
   0   4  -7    1.17    0.44
   0  -4   7    1.30    0.42
  -1   4  -7    8.94    0.97
  -1   4  -7    9.96    1.18
   1  -4   7    7.33    0.87
  -2   4  -7    3.65    0.82
  -2   4  -7    3.76    0.58
  -3   4  -7    1.95    0.42
  -4   4  -7   14.19    1.69
  -5   4  -7    6.40    1.15
  -6   4  -7    2.55    0.91
  -7   4  -7    1.08    0.77
  -8   4  -7    0.30    0.67
   6   3  -7   -0.61    0.57
  -6  -3   7    0.82    0.85
   5   3  -7   -0.29    0.54
  -5  -3   7   -0.48    0.65
   4   3  -7    3.73    0.92
  -4  -3   7    7.27    1.11
   3   3  -7    2.69    0.75
  -3  -3   7    4.14    0.82
   2   3  -7   58.35    4.45
  -2  -3   7   53.59    4.50
   1   3  -7    5.86    0.85
   1   3  -7    7.98    1.02
  -1  -3   7    6.50    0.85
   0   3  -7    2.05    0.54
   0   3  -7    1.92    0.61
   0  -3   7    2.26    0.46
  -1   3  -7    8.38    0.98
  -1   3  -7   11.36    1.19
   1  -3   7    7.73    0.86
  -2   3  -7    2.02    0.47
  -2   3  -7    3.14    0.77
  -3   3  -7   10.15    0.96
  -3   3  -7    8.65    1.24
  -4   3  -7   -0.53    0.46
  -5   3  -7    2.58    0.84
  -6   3  -7   22.99    2.30
  -7   3  -7   -0.07    0.60
  -8   3  -7    3.67    0.94
   6   2  -7    0.95    0.71
  -6  -2   7    2.19    0.94
   5   2  -7    0.25    0.60
  -5  -2   7   -0.20    0.67
   4   2  -7    0.06    0.53
  -4  -2   7   -0.02    0.59
   3   2  -7    6.48    1.06
  -3  -2   7    9.80    1.17
   2   2  -7    0.42    0.40
  -2  -2   7   -0.03    0.43
   1   2  -7   14.49    1.46
   1   2  -7   14.82    1.37
  -1  -2   7   15.43    1.41
   0   2  -7    8.06    0.98
   0   2  -7    8.28    0.96
   0  -2   7    6.75    0.81
  -1   2  -7    2.83    0.55
  -1   2  -7    2.26    0.62
   1  -2   7    2.54    0.41
  -2   2  -7    0.59    0.50
  -2   2  -7   -0.19    0.26
  -3   2  -7   38.40    3.06
  -3   2  -7   40.65    3.20
  -4   2  -7    6.85    1.02
  -5   2  -7   24.65    2.29
  -6   2  -7   10.36    1.33
  -7   2  -7    0.27    0.58
  -8   2  -7    4.69    0.95
  -9   2  -7   -0.94    0.54
   6   1  -7    0.83    0.77
  -6  -1   7    0.95    0.88
   5   1  -7    5.39    1.07
  -5  -1   7    7.78    1.26
   4   1  -7    0.55    0.55
  -4  -1   7    0.31    0.64
   3   1  -7    8.28    1.19
  -3  -1   7   10.82    1.27
   2   1  -7    6.32    0.96
  -2  -1   7    8.00    0.97
   1   1  -7   11.81    1.16
   1   1  -7   10.34    1.00
  -1  -1   7    9.01    1.03
   0   1  -7    9.45    1.00
   0   1  -7    9.75    1.00
   0  -1   7    8.91    0.91
  -1   1  -7   12.00    1.19
  -1   1  -7   11.65    1.13
  -2   1  -7    2.66    0.58
  -2   1  -7    1.88    0.42
  -3   1  -7   10.44    1.04
  -3   1  -7   12.19    1.27
  -4   1  -7   10.61    1.25
  -5   1  -7   16.07    1.61
  -6   1  -7    1.03    0.53
  -7   1  -7    9.87    1.26
  -8   1  -7    4.00    0.84
  -9   1  -7    3.07    0.75
   7   0  -7    0.05    0.81
  -7   0   7    0.13    0.91
   6   0  -7   -0.04    0.64
  -6   0   7   -0.10    0.81
   5   0  -7   11.87    1.69
  -5   0   7   20.78    1.94
   4   0  -7    0.00    0.44
  -4   0   7    0.27    0.63
   3   0  -7   14.14    1.54
  -3   0   7   15.85    1.58
   2   0  -7    0.27    0.37
  -2   0   7    0.49    0.47
   1   0  -7    0.21    0.36
   1   0  -7    0.62    0.26
  -1   0   7    0.53    0.40
   0   0  -7    9.31    0.90
   0   0  -7    9.76    0.98
   0   0   7    8.26    0.87
  -1   0  -7   40.37    3.06
  -1   0  -7   37.42    2.96
  -2   0  -7   -0.17    0.25
  -2   0  -7    0.36    0.35
  -3   0  -7    0.16    0.26
  -3   0  -7    0.62    0.37
  -4   0  -7    2.68    0.58
  -5   0  -7    3.19    0.66
  -6   0  -7   -0.77    0.35
  -7   0  -7    9.34    1.17
  -8   0  -7    0.03    0.46
  -9   0  -7    0.96    0.55
   7  -1  -7    0.59    0.77
  -7   1   7   -1.60    0.79
   6  -1  -7    0.87    0.66
  -6   1   7    1.29    0.88
   5  -1  -7    1.35    0.62
  -5   1   7    1.48    0.85
   4  -1  -7    2.75    0.74
  -4   1   7    4.97    0.99
   3  -1  -7   12.32    1.37
  -3   1   7   14.26    1.48
   2  -1  -7    3.85    0.71
  -2   1   7    3.66    0.73
   1  -1  -7   24.21    1.78
   1  -1  -7   22.02    2.02
  -1   1   7   24.00    2.02
   0  -1  -7    3.12    0.63
   0  -1  -7    5.04    0.52
   0   1   7    3.93    0.55
  -1  -1  -7    0.66    0.32
  -1  -1  -7    0.91    0.29
  -2  -1  -7    0.55    0.29
  -2  -1  -7    0.81    0.32
  -3  -1  -7    0.00    0.29
  -3  -1  -7    0.72    0.31
  -4  -1  -7    0.44    0.35
  -5  -1  -7    2.02    0.52
  -6  -1  -7    1.59    0.50
  -7  -1  -7    1.24    0.48
  -8  -1  -7    2.13    0.60
  -9  -1  -7    0.02    0.43
   7  -2  -7   -0.06    0.66
  -7   2   7    0.16    0.91
   6  -2  -7    1.89    0.77
  -6   2   7    2.95    0.99
   5  -2  -7    0.05    0.51
  -5   2   7   -0.13    0.68
   4  -2  -7   14.84    1.53
  -4   2   7   15.06    1.77
   3  -2  -7    1.63    0.54
  -3   2   7    2.69    0.77
   2  -2  -7   18.26    1.78
  -2   2   7   21.29    1.87
   1  -2  -7   -0.13    0.30
   1  -2  -7   -0.16    0.13
  -1   2   7   -0.14    0.42
   0  -2  -7   -0.38    0.16
   0  -2  -7   -0.18    0.31
   0   2   7   -0.04    0.32
  -1  -2  -7    6.43    0.67
  -1  -2  -7    5.88    0.75
  -2  -2  -7   -0.16    0.21
  -2  -2  -7   -0.09    0.22
  -3  -2  -7    0.33    0.24
  -3  -2  -7    0.44    0.28
  -4  -2  -7    5.62    0.71
  -5  -2  -7    0.27    0.34
  -6  -2  -7    8.45    0.99
  -7  -2  -7   -0.12    0.32
  -8  -2  -7    2.42    0.57
  -9  -2  -7    0.19    0.40
   7  -3  -7   -0.22    0.58
  -7   3   7   -1.40    0.80
  -6   3   7    5.42    1.22
   5  -3  -7    0.58    0.53
  -5   3   7    0.68    0.73
   4  -3  -7    6.19    0.96
  -4   3   7    7.71    1.22
   3  -3  -7    0.17    0.40
  -3   3   7   -0.71    0.52
   2  -3  -7    8.29    1.07
  -2   3   7    8.48    1.10
   1  -3  -7   14.46    1.02
   1  -3  -7   11.47    1.28
  -1   3   7   11.87    1.33
   0  -3  -7   16.87    1.47
   0  -3  -7   16.40    1.28
   0   3   7   16.35    1.48
  -1  -3  -7    4.18    0.61
  -1  -3  -7    4.12    0.48
   1   3   7    3.97    0.55
  -2  -3  -7    1.77    0.39
  -2  -3  -7    1.32    0.31
  -3  -3  -7    0.21    0.24
  -3  -3  -7   -0.04    0.20
  -4  -3  -7    0.84    0.32
  -5  -3  -7    0.41    0.30
  -6  -3  -7    6.04    0.79
  -7  -3  -7   -0.28    0.26
  -8  -3  -7    3.67    0.65
  -9  -3  -7   -0.22    0.37
  -7   4   7   -0.29    0.87
  -6   4   7    3.77    1.11
   5  -4  -7   -0.24    0.44
  -5   4   7   -0.47    0.62
   4  -4  -7    3.00    0.65
  -4   4   7    2.93    0.82
   3  -4  -7    2.48    0.61
  -3   4   7    3.52    0.76
   2  -4  -7    1.07    0.47
  -2   4   7    0.65    0.57
   1  -4  -7   15.57    1.51
   1  -4  -7   17.81    1.27
  -1   4   7   14.54    1.54
   0  -4  -7    0.09    0.15
   0  -4  -7   -0.32    0.23
   0   4   7   -0.40    0.33
  -1  -4  -7   19.30    1.58
  -1  -4  -7   20.08    1.48
   1   4   7   17.21    1.55
  -2  -4  -7   22.36    1.71
  -2  -4  -7   20.74    1.72
  -2  -4  -7   22.90    1.77
  -3  -4  -7    7.35    0.77
  -3  -4  -7    8.74    0.73
  -3  -4  -7    7.94    0.81
  -4  -4  -7    1.38    0.33
  -4  -4  -7    0.56    0.30
  -5  -4  -7   -0.37    0.21
  -5  -4  -7   -0.14    0.26
  -6  -4  -7    0.48    0.30
  -7  -4  -7    0.51    0.36
  -8  -4  -7    0.90    0.45
  -9  -4  -7    0.64    0.45
  -6   5   7    0.84    0.82
   5  -5  -7    7.77    1.03
  -5   5   7    6.63    1.18
   4  -5  -7    4.10    0.77
  -4   5   7    5.30    0.97
   3  -5  -7    0.90    0.48
  -3   5   7    1.92    0.65
   2  -5  -7   13.54    1.38
  -2   5   7   14.94    1.47
   1  -5  -7   33.48    2.85
  -1   5   7   38.68    2.98
   0  -5  -7    3.29    0.42
   0  -5  -7    3.62    0.54
   0   5   7    3.15    0.54
  -1  -5  -7    1.00    0.27
  -1  -5  -7    1.78    0.38
  -1  -5  -7    2.65    0.42
  -2  -5  -7    0.68    0.24
  -2  -5  -7    0.64    0.26
  -2  -5  -7    0.54    0.24
  -3  -5  -7   20.95    1.74
  -3  -5  -7   22.48    1.77
  -4  -5  -7    0.28    0.28
  -4  -5  -7   -0.21    0.21
  -5  -5  -7    4.81    0.70
  -5  -5  -7    6.79    0.71
  -6  -5  -7    1.74    0.44
  -6  -5  -7    1.13    0.43
  -7  -5  -7    0.14    0.31
  -8  -5  -7    0.34    0.37
  -9  -5  -7    0.45    0.42
  -6   6   7   -0.01    0.75
  -5   6   7    5.46    1.10
   4  -6  -7    3.22    0.66
  -4   6   7    3.56    0.86
   3  -6  -7   22.87    1.97
  -3   6   7   21.42    2.06
   2  -6  -7   15.16    1.41
  -2   6   7   14.70    1.51
   1  -6  -7   23.74    1.97
  -1   6   7   24.32    2.10
   0  -6  -7    0.01    0.19
   0  -6  -7    0.47    0.28
   0   6   7    0.05    0.30
  -1  -6  -7   12.89    1.14
  -1  -6  -7   12.13    1.10
  -1  -6  -7   13.31    1.10
  -2  -6  -7    2.40    0.42
  -2  -6  -7    3.68    0.49
  -2  -6  -7    2.68    0.44
  -3  -6  -7    0.80    0.31
  -3  -6  -7    0.64    0.28
  -4  -6  -7    1.83    0.40
  -4  -6  -7    3.03    0.49
  -5  -6  -7   11.45    1.11
  -5  -6  -7   11.70    1.13
  -6  -6  -7    0.91    0.35
  -6  -6  -7   -0.30    0.37
  -7  -6  -7    0.42    0.36
  -8  -6  -7    0.04    0.39
  -9  -6  -7   -0.15    0.43
  -6   7   7   -0.47    0.72
  -5   7   7    0.24    0.72
  -4   7   7    2.39    0.79
   3  -7  -7   13.59    1.32
  -3   7   7   13.90    1.52
   2  -7  -7    0.49    0.32
  -2   7   7    0.57    0.48
   1  -7  -7   38.30    3.23
  -1   7   7   46.64    3.45
   0  -7  -7    1.17    0.42
   0  -7  -7    1.16    0.32
   0  -7  -7    0.71    0.27
  -1  -7  -7    5.89    0.66
  -1  -7  -7    4.63    0.61
  -1  -7  -7    6.04    0.71
  -2  -7  -7    0.07    0.30
  -2  -7  -7    0.27    0.26
  -3  -7  -7   15.20    1.23
  -3  -7  -7   12.34    1.21
  -4  -7  -7    9.72    0.99
  -4  -7  -7    9.82    0.99
  -5  -7  -7    7.76    0.91
  -5  -7  -7    7.30    0.91
  -6  -7  -7    0.48    0.46
  -6  -7  -7    0.26    0.32
  -7  -7  -7    0.58    0.48
  -7  -7  -7   -0.02    0.36
  -8  -7  -7   -0.20    0.40
  -9  -7  -7    0.46    0.51
  -6   8   7   -0.11    0.74
  -5   8   7    1.39    0.82
  -4   8   7    0.69    0.69
  -3   8   7    1.84    0.67
  -2   8   7    0.16    0.55
   1  -8  -7    2.65    0.45
  -1   8   7    2.30    0.58
   0  -8  -7    8.36    0.95
   0  -8  -7    9.31    0.85
  -1  -8  -7    1.77    0.44
  -1  -8  -7    2.05    0.40
  -2  -8  -7    4.11    0.57
  -2  -8  -7    3.53    0.57
  -3  -8  -7    0.21    0.32
  -3  -8  -7    0.44    0.33
  -4  -8  -7    4.54    0.67
  -4  -8  -7    2.97    0.58
  -5  -8  -7    1.30    0.47
  -5  -8  -7    1.42    0.50
  -6  -8  -7    0.30    0.40
  -6  -8  -7    0.44    0.44
  -7  -8  -7    0.14    0.51
  -7  -8  -7   -0.44    0.40
  -8  -8  -7    0.33    0.51
  -5   9   7    0.98    0.83
  -4   9   7    2.20    0.84
  -3   9   7    0.57    0.62
  -2   9   7    0.14    0.55
  -1   9   7    0.11    0.39
   0  -9  -7    1.01    0.43
  -1  -9  -7    2.13    0.48
  -2  -9  -7   13.78    1.26
  -2  -9  -7   13.65    1.30
  -3  -9  -7    0.92    0.39
  -3  -9  -7    1.37    0.42
  -4  -9  -7    0.20    0.35
  -4  -9  -7   -0.02    0.36
  -5  -9  -7    0.76    0.42
  -5  -9  -7    0.55    0.49
  -6  -9  -7    0.43    0.47
  -6  -9  -7    0.68    0.51
  -7  -9  -7   -0.29    0.44
  -7  -9  -7    0.60    0.54
  -8  -9  -7    0.07    0.53
  -5  10   7    0.69    0.81
  -4  10   7    0.25    0.70
  -3  10   7    0.18    0.64
  -2  10   7    0.64    0.62
   1 -10  -7    0.17    0.48
  -1  10   7    0.53    0.47
   0 -10  -7    2.30    0.58
  -1 -10  -7    1.81    0.50
  -2 -10  -7    0.01    0.37
  -3 -10  -7    3.63    0.65
  -3 -10  -7    2.84    0.58
  -4 -10  -7    1.38    0.46
  -4 -10  -7    0.69    0.44
  -5 -10  -7    0.47    0.39
  -5 -10  -7   -0.21    0.44
  -6 -10  -7    0.00    0.42
  -6 -10  -7   -0.47    0.43
  -7 -10  -7    0.82    0.53
  -7 -10  -7    0.16    0.59
  -8 -10  -7   -0.19    0.53
  -4  11   7    0.93    0.83
  -3  11   7    3.98    1.03
  -2  11   7    0.63    0.63
   1 -11  -7    1.88    0.65
   0 -11  -7    0.22    0.44
  -1 -11  -7    0.27    0.39
  -2 -11  -7    2.07    0.55
  -3 -11  -7    2.50    0.57
  -4 -11  -7    1.61    0.52
  -4 -11  -7    0.72    0.46
  -5 -11  -7    1.06    0.48
  -5 -11  -7    0.09    0.49
  -6 -11  -7    0.56    0.50
  -6 -11  -7    0.24    0.56
  -7 -11  -7    1.01    0.57
  -7 -11  -7    0.80    0.66
  -3  12   7    3.66    1.02
  -2  12   7   -0.24    0.64
   1 -12  -7    1.63    0.71
   0 -12  -7    0.18    0.46
  -1 -12  -7    1.07    0.49
  -2 -12  -7    0.17    0.42
  -3 -12  -7    0.48    0.43
  -4 -12  -7    0.86    0.51
  -5 -12  -7   -0.19    0.51
  -6 -12  -7    0.84    0.64
  -6 -12  -7    0.69    0.55
  -2  13   7   -0.07    0.70
   1 -13  -7    3.76    0.88
   0 -13  -7    0.03    0.54
  -1 -13  -7    1.02    0.55
  -2 -13  -7    0.29    0.47
  -3 -13  -7    1.18    0.57
  -4 -13  -7   -0.03    0.48
  -5 -13  -7    0.48    0.59
   1 -14  -7    0.27    0.70
  -1  14   7    0.93    0.71
   0 -14  -7    0.98    0.66
  -1 -14  -7    0.17    0.58
  -2 -14  -7    0.71    0.55
  -3 -14  -7    0.10    0.49
  -4 -14  -7    0.45    0.53
   0   9  -8    0.55    0.87
  -1   9  -8    2.60    1.06
  -2   9  -8    0.49    0.95
  -3   9  -8    1.53    0.97
   0   8  -8    0.97    0.82
  -1   8  -8    1.71    0.85
  -2   8  -8    4.28    1.10
  -3   8  -8    2.90    1.05
  -4   8  -8    1.10    0.84
  -5   8  -8    1.81    0.93
   3   7  -8   -0.49    0.60
  -3  -7   8    0.91    0.71
   2   7  -8    0.28    0.63
   1   7  -8    1.94    0.85
   0   7  -8   -0.53    0.59
  -1   7  -8    3.06    0.94
  -2   7  -8   -0.16    0.63
  -3   7  -8    0.58    0.72
  -4   7  -8    0.37    0.73
  -5   7  -8    0.51    0.80
  -6   7  -8    1.03    0.86
   4   6  -8    0.01    0.65
  -4  -6   8   -0.08    0.63
   3   6  -8   -0.52    0.56
  -3  -6   8    0.62    0.64
   2   6  -8   -0.41    0.52
  -2  -6   8    0.03    0.55
   1   6  -8    5.85    0.94
   1   6  -8    3.10    0.85
   0   6  -8    0.27    0.62
   0   6  -8    0.87    0.51
  -1   6  -8    2.51    0.82
  -2   6  -8    0.05    0.63
  -3   6  -8    0.16    0.68
  -4   6  -8    0.50    0.68
  -5   6  -8   -0.42    0.65
  -6   6  -8   -1.00    0.68
  -7   6  -8   -0.41    0.77
   4   5  -8   -0.19    0.61
  -4  -5   8   -0.41    0.60
   3   5  -8   -0.13    0.53
  -3  -5   8    0.06    0.55
   2   5  -8    1.87    0.67
  -2  -5   8    0.96    0.56
   1   5  -8    0.74    0.52
   1   5  -8    0.67    0.57
  -1  -5   8   -0.01    0.46
   0   5  -8    0.58    0.46
   0   5  -8    0.45    0.61
  -1   5  -8    2.00    0.50
  -1   5  -8    1.10    0.63
  -2   5  -8    0.49    0.60
  -3   5  -8    2.09    0.79
  -4   5  -8   -0.47    0.62
  -5   5  -8    2.36    0.82
  -6   5  -8    0.99    0.82
  -7   5  -8    0.37    0.77
   5   4  -8    1.63    0.80
  -5  -4   8    2.34    0.92
   4   4  -8    2.27    0.76
  -4  -4   8    1.87    0.78
   3   4  -8   -0.25    0.47
  -3  -4   8   -0.80    0.47
   2   4  -8    4.08    0.87
  -2  -4   8    3.82    0.75
   1   4  -8    0.86    0.56
   1   4  -8   -0.26    0.47
  -1  -4   8    0.26    0.40
   0   4  -8    4.17    0.82
   0   4  -8    5.48    0.85
  -1   4  -8   -0.12    0.32
  -1   4  -8    0.66    0.54
  -2   4  -8    2.71    0.78
  -2   4  -8    2.40    0.51
  -3   4  -8    0.98    0.68
  -3   4  -8    2.16    0.46
  -4   4  -8   -0.62    0.55
  -5   4  -8    0.05    0.56
  -6   4  -8    0.82    0.74
  -7   4  -8   -0.78    0.62
  -8   4  -8    0.10    0.73
   5   3  -8   -0.48    0.56
  -5  -3   8    0.98    0.84
   4   3  -8   -0.60    0.44
  -4  -3   8   -0.16    0.61
   3   3  -8    1.97    0.69
  -3  -3   8    3.69    0.81
   2   3  -8   -0.01    0.45
  -2  -3   8    0.01    0.43
   1   3  -8    0.06    0.40
   1   3  -8   -0.22    0.40
  -1  -3   8    0.01    0.36
   0   3  -8    7.13    0.92
   0   3  -8    4.67    0.83
   0  -3   8    5.33    0.74
  -1   3  -8    3.90    0.67
  -1   3  -8    3.89    0.80
  -2   3  -8    7.02    0.87
  -2   3  -8    8.02    1.10
  -3   3  -8    3.33    0.79
  -3   3  -8    3.24    0.57
  -4   3  -8    0.08    0.55
  -4   3  -8    0.74    0.35
  -5   3  -8    0.67    0.64
  -6   3  -8   -0.24    0.59
  -7   3  -8    3.16    0.90
  -8   3  -8    2.23    0.86
   6   2  -8   -0.52    0.65
  -6  -2   8   -0.80    0.86
   5   2  -8   -0.57    0.56
  -5  -2   8    0.65    0.80
   4   2  -8   -0.57    0.43
  -4  -2   8   -0.26    0.61
   3   2  -8    0.42    0.46
  -3  -2   8    0.65    0.58
   2   2  -8    1.75    0.57
  -2  -2   8    2.24    0.63
   1   2  -8    1.63    0.49
   1   2  -8    2.07    0.59
  -1  -2   8    1.94    0.48
   0   2  -8   16.96    1.59
   0   2  -8   19.51    1.63
   0  -2   8   16.04    1.49
  -1   2  -8    0.06    0.34
  -1   2  -8    0.31    0.45
  -2   2  -8    0.48    0.50
  -2   2  -8    0.30    0.31
  -3   2  -8    0.98    0.39
  -3   2  -8    0.86    0.57
  -4   2  -8   16.09    1.70
  -4   2  -8   16.70    1.48
  -5   2  -8    1.10    0.61
  -6   2  -8    1.08    0.65
  -7   2  -8   -0.12    0.56
  -8   2  -8    1.66    0.76
   6   1  -8    2.67    0.96
  -6  -1   8    4.01    1.18
   5   1  -8    0.39    0.63
  -5  -1   8    1.59    0.88
   4   1  -8    0.63    0.50
  -4  -1   8    0.66    0.71
   3   1  -8   10.76    1.43
  -3  -1   8   14.74    1.50
   2   1  -8   -0.12    0.37
  -2  -1   8   -0.20    0.44
   1   1  -8    9.41    1.13
   1   1  -8    8.18    0.88
  -1  -1   8    8.52    1.01
   0   1  -8    5.87    0.72
   0   1  -8    3.87    0.74
   0  -1   8    4.64    0.62
  -1   1  -8   10.80    1.12
  -1   1  -8   11.57    1.18
  -2   1  -8    9.37    0.97
  -2   1  -8    7.92    1.03
  -3   1  -8    6.56    0.99
  -3   1  -8    7.80    0.90
  -4   1  -8    3.64    0.61
  -4   1  -8    3.99    0.76
  -5   1  -8    1.44    0.58
  -6   1  -8   -0.44    0.43
  -7   1  -8    4.76    0.90
  -8   1  -8    0.32    0.59
  -9   1  -8    0.53    0.61
   6   0  -8    0.22    0.70
  -6   0   8    0.58    0.95
   5   0  -8   -0.29    0.51
  -5   0   8    1.05    0.86
   4   0  -8    3.66    0.84
  -4   0   8    6.65    1.12
   3   0  -8   14.72    1.62
  -3   0   8   15.84    1.67
   2   0  -8    0.06    0.38
  -2   0   8    0.47    0.52
   1   0  -8   -0.22    0.23
   1   0  -8    0.42    0.41
  -1   0   8    0.20    0.41
   0   0  -8    2.33    0.58
   0   0  -8    1.60    0.40
   0   0   8    1.00    0.38
  -1   0  -8   11.55    1.13
  -1   0  -8   12.02    1.18
  -2   0  -8    2.95    0.55
  -2   0  -8    3.12    0.60
  -3   0  -8   41.71    3.20
  -3   0  -8   39.65    3.20
  -4   0  -8   16.14    1.43
  -4   0  -8   12.66    1.28
  -5   0  -8    1.68    0.54
  -6   0  -8    0.21    0.40
  -7   0  -8   -0.22    0.43
  -8   0  -8   -0.09    0.44
  -9   0  -8    2.59    0.72
   6  -1  -8    2.34    0.83
  -6   1   8    4.10    1.19
   5  -1  -8    0.20    0.50
  -5   1   8   -0.88    0.72
   4  -1  -8   -0.42    0.41
  -4   1   8    0.75    0.71
   3  -1  -8   13.65    1.50
  -3   1   8   15.75    1.63
   2  -1  -8    7.27    1.05
  -2   1   8    8.37    1.07
   1  -1  -8   15.12    1.47
  -1   1   8   14.80    1.42
   0  -1  -8   16.61    1.37
   0  -1  -8   19.48    1.62
   0   1   8   15.65    1.45
  -1  -1  -8    1.44    0.38
  -1  -1  -8    2.07    0.47
  -2  -1  -8    5.42    0.73
  -2  -1  -8    5.25    0.69
  -3  -1  -8   53.74    4.26
  -3  -1  -8   57.80    4.21
  -4  -1  -8    0.35    0.38
  -4  -1  -8   -0.11    0.29
  -5  -1  -8    7.66    0.95
  -6  -1  -8   -0.09    0.36
  -7  -1  -8    0.22    0.42
  -8  -1  -8    0.44    0.48
  -9  -1  -8    3.41    0.76
   6  -2  -8    0.37    0.63
  -6   2   8    0.04    0.87
   5  -2  -8    0.33    0.53
  -5   2   8   -0.21    0.82
   4  -2  -8    1.89    0.69
  -4   2   8    3.73    0.94
   3  -2  -8    2.51    0.66
  -3   2   8    3.55    0.86
   2  -2  -8    7.70    1.06
  -2   2   8    7.32    1.07
   1  -2  -8   33.62    2.68
  -1   2   8   30.57    2.68
   0  -2  -8   10.20    1.16
   0  -2  -8    8.85    0.83
   0   2   8    8.65    0.96
  -1  -2  -8    6.51    0.85
  -1  -2  -8    7.58    0.77
  -2  -2  -8   10.51    1.02
  -2  -2  -8    9.66    0.97
  -3  -2  -8    2.94    0.51
  -3  -2  -8    2.70    0.51
  -4  -2  -8    4.34    0.65
  -5  -2  -8    7.84    0.95
  -6  -2  -8    3.83    0.67
  -7  -2  -8   -0.73    0.32
  -8  -2  -8   -0.28    0.38
  -9  -2  -8   -0.39    0.37
   6  -3  -8    0.12    0.61
  -6   3   8   -1.06    0.78
   5  -3  -8    0.66    0.58
  -5   3   8    0.35    0.76
   4  -3  -8    1.02    0.54
  -4   3   8    1.83    0.83
   3  -3  -8   -0.49    0.36
  -3   3   8    1.39    0.66
   2  -3  -8    4.92    0.80
  -2   3   8    4.08    0.86
   1  -3  -8    5.71    0.93
  -1   3   8    7.91    0.99
   0  -3  -8   12.75    1.24
   0  -3  -8   12.33    1.01
   0   3   8   11.69    1.24
  -1  -3  -8   16.36    1.45
  -1  -3  -8   16.53    1.31
   1   3   8   15.49    1.41
  -2  -3  -8    1.99    0.43
  -2  -3  -8    1.70    0.37
  -3  -3  -8    8.69    0.87
  -3  -3  -8    8.49    0.88
  -4  -3  -8    2.02    0.43
  -5  -3  -8    0.39    0.31
  -6  -3  -8    1.00    0.40
  -7  -3  -8    0.65    0.38
  -8  -3  -8    0.33    0.39
  -9  -3  -8   -0.40    0.35
   6  -4  -8    0.24    0.58
  -6   4   8   -0.55    0.77
   5  -4  -8   -0.21    0.48
  -5   4   8   -0.07    0.73
  -4   4   8   12.39    1.57
   3  -4  -8   -0.58    0.35
  -3   4   8    0.36    0.59
   2  -4  -8   12.57    1.38
  -2   4   8   14.92    1.49
   1  -4  -8    0.24    0.39
  -1   4   8   -0.09    0.49
   0  -4  -8    4.13    0.46
   0  -4  -8    4.03    0.67
   0   4   8    4.18    0.71
  -1  -4  -8    1.34    0.31
  -1  -4  -8    1.43    0.41
   1   4   8    1.90    0.46
  -2  -4  -8   -0.01    0.19
  -2  -4  -8   -0.20    0.22
  -3  -4  -8    6.39    0.78
  -3  -4  -8    6.46    0.72
  -4  -4  -8   -0.32    0.20
  -5  -4  -8    8.87    0.92
  -6  -4  -8   -0.10    0.26
  -7  -4  -8    0.77    0.38
  -8  -4  -8    0.62    0.40
  -9  -4  -8   -0.14    0.37
   6  -5  -8   -0.09    0.56
  -6   5   8   -0.30    0.78
   5  -5  -8    1.98    0.65
  -5   5   8    0.17    0.74
   4  -5  -8    0.13    0.47
  -4   5   8   -0.87    0.59
   3  -5  -8   -0.34    0.39
  -3   5   8   -1.12    0.52
   2  -5  -8    8.52    1.11
  -2   5   8    9.10    1.16
   1  -5  -8    0.44    0.40
  -1   5   8    0.20    0.51
   0  -5  -8    2.74    0.53
   0  -5  -8    2.53    0.37
   0   5   8    2.79    0.58
  -1  -5  -8    0.07    0.25
  -1  -5  -8   -0.14    0.17
   1   5   8   -0.11    0.30
  -2  -5  -8    2.68    0.43
  -2  -5  -8    2.98    0.43
  -2  -5  -8    3.39    0.51
  -3  -5  -8    9.65    0.95
  -3  -5  -8    9.59    0.86
  -3  -5  -8    9.58    0.91
  -4  -5  -8    3.17    0.45
  -4  -5  -8    2.38    0.47
  -5  -5  -8   -0.08    0.24
  -6  -5  -8    0.33    0.30
  -7  -5  -8    3.05    0.59
  -8  -5  -8   -0.17    0.34
  -9  -5  -8    0.45    0.42
  -6   6   8   -0.62    0.75
  -5   6   8   -0.54    0.65
   4  -6  -8    0.45    0.49
  -4   6   8    1.94    0.78
   3  -6  -8    1.29    0.56
  -3   6   8    2.84    0.75
   2  -6  -8   14.06    1.35
  -2   6   8   12.55    1.42
   1  -6  -8    3.40    0.59
  -1   6   8    3.71    0.71
   0  -6  -8    7.51    0.88
   0  -6  -8    7.19    0.69
   0   6   8    7.05    0.91
  -1  -6  -8   30.44    2.49
  -1  -6  -8   30.57    2.46
  -1  -6  -8   32.14    2.38
  -2  -6  -8    6.91    0.71
  -2  -6  -8    7.34    0.82
  -2  -6  -8    6.87    0.73
  -3  -6  -8    3.37    0.49
  -3  -6  -8    3.77    0.53
  -4  -6  -8    0.06    0.30
  -4  -6  -8   -0.39    0.20
  -5  -6  -8    2.89    0.52
  -5  -6  -8    2.24    0.47
  -6  -6  -8    0.57    0.32
  -7  -6  -8    1.74    0.47
  -8  -6  -8    0.35    0.37
  -9  -6  -8    0.88    0.45
  -6   7   8   -0.05    0.78
  -5   7   8    0.47    0.73
  -4   7   8    2.18    0.79
   3  -7  -8    0.78    0.46
  -3   7   8    1.03    0.62
   2  -7  -8    2.81    0.58
  -2   7   8    3.12    0.74
   1  -7  -8    0.03    0.29
  -1   7   8    0.65    0.46
   0  -7  -8    0.73    0.26
   0  -7  -8    0.40    0.29
   0   7   8    0.42    0.38
  -1  -7  -8    0.12    0.33
  -1  -7  -8    0.29    0.23
  -1  -7  -8    0.12    0.23
  -2  -7  -8    1.34    0.35
  -2  -7  -8    0.78    0.34
  -2  -7  -8    1.35    0.34
  -3  -7  -8   15.32    1.36
  -3  -7  -8   16.00    1.37
  -4  -7  -8    1.94    0.43
  -4  -7  -8    1.09    0.36
  -5  -7  -8    0.56    0.33
  -5  -7  -8    0.88    0.45
  -6  -7  -8   -0.03    0.28
  -7  -7  -8    1.73    0.50
  -8  -7  -8    1.25    0.52
  -9  -7  -8   -0.02    0.44
  -5   8   8    1.45    0.83
  -4   8   8   -0.67    0.59
  -3   8   8    0.53    0.60
   2  -8  -8    0.45    0.32
  -2   8   8    1.36    0.58
   1  -8  -8    6.61    0.78
  -1   8   8    6.78    0.98
   0  -8  -8    0.22    0.25
   0  -8  -8   -0.47    0.34
   0   8   8    0.18    0.34
  -1  -8  -8   20.91    1.66
  -1  -8  -8   18.81    1.71
  -1  -8  -8   19.84    1.63
  -2  -8  -8   -0.22    0.28
  -2  -8  -8    0.04    0.26
  -3  -8  -8    0.91    0.36
  -3  -8  -8    0.60    0.33
  -4  -8  -8    4.71    0.69
  -4  -8  -8    4.91    0.66
  -5  -8  -8    7.77    0.92
  -5  -8  -8    6.35    0.87
  -6  -8  -8   -0.13    0.30
  -6  -8  -8    0.05    0.46
  -7  -8  -8    1.43    0.52
  -8  -8  -8    0.35    0.46
  -5   9   8    0.48    0.76
  -4   9   8    3.90    0.95
  -3   9   8    2.59    0.79
  -2   9   8    1.43    0.65
  -1   9   8    0.56    0.48
   0  -9  -8    0.41    0.41
   0  -9  -8    1.15    0.32
  -1  -9  -8    0.82    0.41
  -1  -9  -8    1.07    0.32
  -2  -9  -8    0.01    0.26
  -2  -9  -8    0.43    0.35
  -3  -9  -8   12.67    1.25
  -3  -9  -8   14.13    1.27
  -4  -9  -8    5.24    0.76
  -4  -9  -8    7.33    0.89
  -5  -9  -8    0.15    0.34
  -5  -9  -8   -0.24    0.40
  -6  -9  -8   -0.29    0.46
  -6  -9  -8    0.47    0.42
  -7  -9  -8    0.03    0.44
  -8  -9  -8   -0.33    0.47
  -4  10   8    0.85    0.76
  -3  10   8   -0.66    0.61
  -2  10   8   -0.14    0.60
  -1  10   8   -0.08    0.47
   0 -10  -8   -0.06    0.44
  -1 -10  -8    1.38    0.46
  -2 -10  -8    0.23    0.36
  -2 -10  -8    0.47    0.34
  -3 -10  -8    4.25    0.66
  -3 -10  -8    2.99    0.58
  -4 -10  -8    3.51    0.62
  -4 -10  -8    1.46    0.53
  -5 -10  -8    0.75    0.44
  -5 -10  -8    1.14    0.51
  -6 -10  -8    0.66    0.54
  -6 -10  -8    0.81    0.50
  -7 -10  -8    0.39    0.54
  -4  11   8    0.84    0.81
  -3  11   8   -0.20    0.64
  -2  11   8    0.72    0.66
  -1  11   8   -0.33    0.49
   0 -11  -8    1.49    0.58
  -1 -11  -8    1.53    0.51
  -2 -11  -8    0.22    0.38
  -3 -11  -8    0.40    0.43
  -3 -11  -8    0.77    0.37
  -4 -11  -8    0.15    0.44
  -4 -11  -8    0.75    0.44
  -5 -11  -8    0.10    0.46
  -5 -11  -8    0.14    0.38
  -6 -11  -8    2.41    0.68
  -6 -11  -8    2.72    0.68
  -7 -11  -8    0.55    0.51
  -3  12   8    2.74    0.93
  -2  12   8    0.49    0.71
  -1  12   8    1.09    0.64
   0 -12  -8    0.18    0.52
  -1 -12  -8   -0.09    0.41
  -2 -12  -8   -0.18    0.38
  -3 -12  -8    0.18    0.41
  -4 -12  -8    0.27    0.52
  -5 -12  -8   -0.13    0.49
  -5 -12  -8   -0.17    0.39
  -6 -12  -8   -0.09    0.58
  -6 -12  -8    0.48    0.51
  -2  13   8    0.17    0.73
  -1  13   8    3.34    0.86
   0 -13  -8   -0.25    0.52
  -1 -13  -8    1.64    0.60
  -2 -13  -8    0.43    0.44
  -3 -13  -8   -0.08    0.44
  -4 -13  -8   -0.25    0.52
  -5 -13  -8    1.03    0.61
   0 -14  -8    1.53    0.72
  -1 -14  -8    0.39    0.56
  -2 -14  -8   -0.33    0.44
  -3 -14  -8    1.78    0.64
  -4 -14  -8    0.17    0.51
   0   8  -9   -0.72    0.80
  -1   8  -9    0.59    0.86
  -2   8  -9    1.14    0.92
  -3   8  -9    0.63    0.92
   0   7  -9    4.01    1.02
  -1   7  -9   -0.33    0.68
  -2   7  -9   -0.43    0.73
  -3   7  -9   -0.54    0.78
  -4   7  -9   -0.20    0.83
  -5   7  -9   -0.09    0.74
   3   6  -9   -0.63    0.63
   2   6  -9    4.49    1.01
   1   6  -9    2.21    0.79
   0   6  -9    1.35    0.74
  -1   6  -9    0.51    0.69
  -2   6  -9    0.34    0.67
  -3   6  -9   -1.03    0.61
  -4   6  -9   -0.23    0.67
  -5   6  -9    0.60    0.81
  -6   6  -9    0.79    0.79
   4   5  -9    0.24    0.69
  -4  -5   9    0.85    0.78
   3   5  -9   -1.02    0.53
   2   5  -9    0.15    0.57
   1   5  -9    4.85    0.93
   0   5  -9    2.44    0.80
   0   5  -9    4.26    0.84
  -1   5  -9    2.06    0.72
  -1   5  -9    1.34    0.49
  -2   5  -9    0.29    0.63
  -3   5  -9   -0.57    0.54
  -4   5  -9    0.66    0.68
  -5   5  -9    0.52    0.68
  -6   5  -9   -0.87    0.66
  -7   5  -9   -0.31    0.75
   4   4  -9   -0.03    0.60
  -4  -4   9    1.20    0.76
   3   4  -9    0.94    0.64
  -3  -4   9   -0.11    0.56
   2   4  -9    4.10    0.90
   1   4  -9    0.16    0.49
   0   4  -9    0.40    0.57
   0   4  -9    0.63    0.53
  -1   4  -9    0.88    0.44
  -1   4  -9    0.44    0.59
  -2   4  -9    2.04    0.77
  -2   4  -9    1.97    0.49
  -3   4  -9    4.53    0.98
  -4   4  -9    0.47    0.65
  -5   4  -9    0.38    0.65
  -6   4  -9    0.35    0.69
  -7   4  -9   -0.66    0.60
   5   3  -9   -0.10    0.58
  -5  -3   9    0.17    0.81
   4   3  -9   -0.28    0.57
  -4  -3   9    0.57    0.72
   3   3  -9    0.60    0.52
  -3  -3   9    0.45    0.57
   2   3  -9    8.46    1.24
  -2  -3   9    9.78    1.21
   1   3  -9   -0.33    0.40
   0   3  -9   10.23    1.26
   0   3  -9   11.23    1.36
  -1   3  -9   11.78    1.25
  -1   3  -9   13.17    1.46
  -2   3  -9    1.49    0.44
  -2   3  -9    1.17    0.61
  -3   3  -9    0.22    0.56
  -3   3  -9    0.44    0.37
  -4   3  -9    1.12    0.64
  -4   3  -9    0.55    0.37
  -5   3  -9    2.50    0.83
  -6   3  -9   -1.35    0.52
  -7   3  -9    1.33    0.78
  -8   3  -9   -0.61    0.62
   5   2  -9   -0.47    0.54
  -5  -2   9   -0.40    0.80
   4   2  -9   -0.39    0.50
  -4  -2   9    0.39    0.73
   3   2  -9    0.81    0.56
  -3  -2   9    0.22    0.64
   2   2  -9    0.40    0.49
  -2  -2   9   -0.18    0.47
   1   2  -9    0.52    0.46
  -1  -2   9    0.94    0.45
   0   2  -9   12.00    1.31
   0   2  -9   13.39    1.36
  -1   2  -9    0.31    0.44
  -1   2  -9    0.96    0.44
  -2   2  -9   24.98    2.12
  -2   2  -9   23.04    2.02
  -3   2  -9   -0.51    0.32
  -3   2  -9    0.20    0.52
  -4   2  -9    0.46    0.38
  -4   2  -9    0.70    0.61
  -5   2  -9    0.39    0.57
  -6   2  -9    0.11    0.56
  -7   2  -9    0.14    0.60
  -8   2  -9   -0.26    0.62
   5   1  -9   -0.55    0.51
  -5  -1   9   -0.72    0.77
   4   1  -9    1.42    0.67
  -4  -1   9    2.15    0.87
   3   1  -9    5.46    0.98
  -3  -1   9    7.51    1.12
   2   1  -9    2.88    0.73
  -2  -1   9    4.29    0.78
   1   1  -9   -0.55    0.32
  -1  -1   9    0.08    0.39
   0   1  -9    1.97    0.59
   0   1  -9    1.72    0.46
  -1   1  -9    3.25    0.63
  -1   1  -9    4.25    0.69
  -2   1  -9   24.78    2.10
  -2   1  -9   24.09    2.08
  -3   1  -9    1.30    0.56
  -3   1  -9    1.36    0.45
  -4   1  -9   45.25    3.74
  -4   1  -9   51.72    3.84
  -5   1  -9    1.06    0.58
  -6   1  -9    1.02    0.60
  -7   1  -9    0.36    0.55
  -8   1  -9   -0.09    0.59
   5   0  -9   -0.88    0.51
  -5   0   9    0.93    0.92
   4   0  -9    1.43    0.65
  -4   0   9    3.12    0.95
   3   0  -9    1.23    0.55
  -3   0   9    0.50    0.66
   2   0  -9   23.62    2.09
  -2   0   9   21.08    2.05
   1   0  -9    2.97    0.66
  -1   0   9    1.94    0.54
   0   0  -9    0.33    0.30
   0   0  -9    0.07    0.36
  -1   0  -9    0.56    0.40
  -1   0  -9    0.50    0.35
  -2   0  -9    7.79    0.97
  -2   0  -9    7.31    0.93
  -3   0  -9    1.83    0.50
  -3   0  -9    2.20    0.55
  -4   0  -9    0.27    0.41
  -4   0  -9    0.45    0.36
  -5   0  -9    0.18    0.41
  -6   0  -9    4.34    0.85
  -7   0  -9    0.74    0.57
  -8   0  -9   -0.40    0.48
  -9   0  -9    0.16    0.56
   6  -1  -9   -0.75    0.66
  -6   1   9    0.64    1.04
   5  -1  -9    0.26    0.57
  -5   1   9    0.53    0.87
   4  -1  -9    2.10    0.68
  -4   1   9    4.13    1.01
   3  -1  -9    0.23    0.50
  -3   1   9    1.51    0.72
   2  -1  -9    4.61    0.86
  -2   1   9    6.54    0.99
   1  -1  -9   18.91    1.82
  -1   1   9   20.41    1.80
   0  -1  -9    8.81    1.10
   0  -1  -9    7.53    0.78
   0   1   9    5.87    0.79
  -1  -1  -9   10.93    1.27
  -1  -1  -9   11.84    1.09
  -2  -1  -9    1.37    0.47
  -2  -1  -9    0.52    0.37
  -3  -1  -9    9.79    1.08
  -3  -1  -9    9.18    1.00
  -4  -1  -9   13.61    1.24
  -4  -1  -9   10.47    1.14
  -5  -1  -9    0.12    0.38
  -6  -1  -9    0.06    0.42
  -7  -1  -9    0.58    0.50
  -8  -1  -9   -0.51    0.44
  -9  -1  -9    0.08    0.50
   6  -2  -9    1.98    0.83
  -6   2   9    5.91    1.35
   5  -2  -9    0.14    0.56
  -5   2   9   -0.35    0.84
   4  -2  -9    5.72    1.03
  -4   2   9    8.12    1.36
   3  -2  -9    0.10    0.46
  -3   2   9   -1.24    0.61
   2  -2  -9    1.87    0.58
  -2   2   9    0.53    0.63
   1  -2  -9    5.65    0.90
  -1   2   9    5.02    0.83
   0  -2  -9   22.17    1.75
   0  -2  -9   17.47    1.46
   0   2   9   16.26    1.59
  -1  -2  -9   43.60    3.33
  -1  -2  -9   45.12    3.51
  -2  -2  -9    1.91    0.48
  -2  -2  -9    0.94    0.37
  -3  -2  -9   -0.16    0.30
  -3  -2  -9   -0.08    0.29
  -4  -2  -9    0.70    0.36
  -4  -2  -9    1.10    0.41
  -5  -2  -9    2.38    0.56
  -6  -2  -9    5.60    0.84
  -7  -2  -9    2.63    0.62
  -8  -2  -9    0.10    0.43
  -9  -2  -9    0.34    0.46
   6  -3  -9   -0.21    0.62
  -6   3   9   -1.30    0.93
   5  -3  -9    0.52    0.62
  -5   3   9   -0.40    0.79
   4  -3  -9    4.08    0.85
  -4   3   9    4.65    1.10
   3  -3  -9    0.40    0.44
  -3   3   9    1.01    0.70
   2  -3  -9   20.02    1.91
  -2   3   9   20.69    2.00
   1  -3  -9    0.92    0.46
  -1   3   9   -0.12    0.50
   0  -3  -9   13.93    1.10
   0  -3  -9   13.05    1.34
   0   3   9   11.27    1.30
  -1  -3  -9   16.53    1.43
  -1  -3  -9   15.36    1.25
   1   3   9   13.04    1.32
  -2  -3  -9    5.52    0.78
  -2  -3  -9    4.80    0.64
  -3  -3  -9   11.16    1.06
  -3  -3  -9    9.59    0.99
  -4  -3  -9    0.28    0.31
  -4  -3  -9    0.13    0.28
  -5  -3  -9   -0.12    0.28
  -6  -3  -9    0.48    0.39
  -7  -3  -9    3.23    0.64
  -8  -3  -9   -0.56    0.32
  -9  -3  -9   -0.34    0.38
   6  -4  -9    0.05    0.61
  -6   4   9   -0.82    0.88
   5  -4  -9    1.89    0.70
  -5   4   9    1.83    0.91
   4  -4  -9   -0.02    0.48
  -4   4   9   -0.76    0.73
   3  -4  -9    0.36    0.46
  -3   4   9    0.35    0.68
   2  -4  -9    6.86    1.05
  -2   4   9    7.62    1.12
   1  -4  -9    1.56    0.55
  -1   4   9    2.58    0.67
   0  -4  -9   36.89    3.08
   0  -4  -9   38.95    2.83
   0   4   9   38.33    3.16
  -1  -4  -9    3.67    0.48
  -1  -4  -9    3.09    0.61
   1   4   9    3.20    0.62
  -2  -4  -9   32.85    2.66
  -2  -4  -9   33.05    2.53
  -3  -4  -9    2.06    0.45
  -3  -4  -9    1.03    0.33
  -4  -4  -9    4.70    0.63
  -5  -4  -9   -0.29    0.23
  -6  -4  -9    1.95    0.47
  -7  -4  -9   -0.01    0.31
  -8  -4  -9    0.46    0.39
  -9  -4  -9   -0.09    0.42
  -6   5   9    0.13    0.90
   5  -5  -9    0.17    0.53
  -5   5   9    0.08    0.75
   4  -5  -9    0.98    0.56
  -4   5   9    1.87    0.82
   3  -5  -9    2.42    0.67
  -3   5   9    2.30    0.77
   2  -5  -9    1.77    0.65
  -2   5   9    2.19    0.71
   1  -5  -9    2.45    0.60
  -1   5   9    2.26    0.66
   0  -5  -9   14.45    1.46
   0  -5  -9   16.29    1.29
   0   5   9   17.17    1.56
  -1  -5  -9    0.05    0.21
  -1  -5  -9    0.50    0.35
   1   5   9    0.46    0.40
  -2  -5  -9   12.20    1.07
  -2  -5  -9   12.48    1.16
   2   5   9   11.63    1.10
  -3  -5  -9    0.39    0.26
  -3  -5  -9   -0.14    0.26
  -4  -5  -9    6.77    0.78
  -5  -5  -9    0.25    0.27
  -6  -5  -9    1.06    0.39
  -7  -5  -9    0.50    0.33
  -8  -5  -9   -0.25    0.36
  -9  -5  -9   -0.37    0.35
   5  -6  -9    0.95    0.60
  -5   6   9    2.29    0.90
   4  -6  -9    1.23    0.64
  -4   6   9    1.08    0.73
   3  -6  -9    0.73    0.51
  -3   6   9    0.96    0.68
   2  -6  -9    6.92    0.99
  -2   6   9    6.29    1.00
   1  -6  -9   -0.35    0.31
  -1   6   9    0.67    0.53
   0  -6  -9    3.76    0.48
   0  -6  -9    3.95    0.66
   0   6   9    3.24    0.67
  -1  -6  -9    7.42    0.74
  -1  -6  -9    6.56    0.88
   1   6   9    9.06    0.94
  -2  -6  -9    2.87    0.52
  -2  -6  -9    3.19    0.47
  -2  -6  -9    2.93    0.50
  -3  -6  -9    0.05    0.26
  -3  -6  -9    0.09    0.22
  -4  -6  -9    2.00    0.41
  -5  -6  -9    1.19    0.37
  -6  -6  -9    0.94    0.37
  -7  -6  -9    0.21    0.34
  -8  -6  -9    1.23    0.46
  -9  -6  -9   -0.15    0.38
  -5   7   9    0.49    0.76
  -4   7   9    0.56    0.73
   3  -7  -9    0.94    0.49
  -3   7   9   -0.15    0.56
   2  -7  -9    0.03    0.34
  -2   7   9    0.54    0.56
   1  -7  -9    7.52    0.96
  -1   7   9    8.30    1.08
   0  -7  -9    3.77    0.52
   0  -7  -9    5.61    0.72
   0   7   9    5.33    0.80
  -1  -7  -9    4.30    0.62
  -1  -7  -9    4.16    0.55
   1   7   9    3.41    0.58
  -2  -7  -9    1.86    0.39
  -2  -7  -9    1.43    0.39
  -2  -7  -9    1.29    0.37
  -3  -7  -9    0.98    0.33
  -3  -7  -9    0.87    0.32
  -4  -7  -9    0.93    0.33
  -5  -7  -9    6.63    0.81
  -6  -7  -9    0.80    0.36
  -7  -7  -9    0.06    0.31
  -8  -7  -9    0.02    0.34
  -9  -7  -9    0.16    0.45
  -5   8   9    0.41    0.79
  -4   8   9    0.06    0.67
  -3   8   9    2.49    0.76
   2  -8  -9    7.02    0.88
  -2   8   9    5.33    0.97
   1  -8  -9    0.28    0.31
  -1   8   9    0.67    0.48
   0  -8  -9    0.40    0.25
   0  -8  -9    0.26    0.28
   0   8   9    0.49    0.42
  -1  -8  -9    1.58    0.38
  -1  -8  -9    1.86    0.41
  -1  -8  -9    2.05    0.50
  -2  -8  -9    4.43    0.62
  -2  -8  -9    4.10    0.62
  -3  -8  -9    5.93    0.79
  -3  -8  -9    6.50    0.77
  -4  -8  -9    2.31    0.51
  -4  -8  -9    3.36    0.55
  -5  -8  -9    2.30    0.51
  -6  -8  -9   -0.07    0.30
  -7  -8  -9    1.23    0.49
  -8  -8  -9    0.01    0.41
  -4   9   9    2.45    0.88
  -3   9   9    0.10    0.61
  -2   9   9    6.37    1.06
   1  -9  -9    4.35    0.63
  -1   9   9    3.97    0.84
   0  -9  -9    1.43    0.38
   0   9   9    1.53    0.50
  -1  -9  -9    0.07    0.26
  -1  -9  -9    0.10    0.41
  -1  -9  -9    0.18    0.26
  -2  -9  -9   -0.08    0.25
  -2  -9  -9   -0.07    0.34
  -3  -9  -9    2.30    0.49
  -3  -9  -9    1.93    0.48
  -4  -9  -9    1.63    0.49
  -4  -9  -9    1.11    0.46
  -5  -9  -9    5.34    0.81
  -6  -9  -9   -0.04    0.33
  -7  -9  -9    1.67    0.58
  -8  -9  -9    0.22    0.47
  -4  10   9    0.87    0.73
  -3  10   9    1.73    0.78
  -2  10   9    3.97    0.87
  -1  10   9    0.44    0.54
   0  10   9    0.12    0.41
  -1 -10  -9    1.47    0.49
  -2 -10  -9    1.57    0.49
  -2 -10  -9    1.62    0.43
  -3 -10  -9    1.05    0.39
  -3 -10  -9    0.15    0.42
  -4 -10  -9    0.45    0.38
  -4 -10  -9   -0.45    0.40
  -5 -10  -9    0.51    0.49
  -5 -10  -9    0.80    0.46
  -6 -10  -9    1.01    0.51
  -7 -10  -9    0.83    0.54
  -3  11   9    0.77    0.77
  -2  11   9   -0.96    0.55
  -1  11   9   -0.09    0.55
   0 -11  -9    3.31    0.71
   0  11   9    2.45    0.63
  -1 -11  -9    0.96    0.48
  -2 -11  -9    0.34    0.42
  -3 -11  -9    0.40    0.38
  -3 -11  -9    1.46    0.49
  -4 -11  -9   -0.52    0.32
  -4 -11  -9   -0.04    0.44
  -5 -11  -9    0.37    0.52
  -5 -11  -9   -0.15    0.35
  -6 -11  -9    0.44    0.44
  -7 -11  -9    1.28    0.55
  -2  12   9    1.20    0.77
  -1  12   9    0.34    0.59
   0 -12  -9   -0.34    0.51
  -1 -12  -9   -0.08    0.46
  -2 -12  -9    0.13    0.40
  -3 -12  -9   -0.05    0.44
  -4 -12  -9    0.67    0.43
  -4 -12  -9   -0.90    0.42
  -5 -12  -9   -0.05    0.50
  -5 -12  -9    0.10    0.44
  -6 -12  -9   -0.31    0.44
  -1  13   9   -0.06    0.59
   0 -13  -9   -0.51    0.55
  -1 -13  -9    0.55    0.51
  -2 -13  -9    0.04    0.47
  -3 -13  -9    0.56    0.51
  -4 -13  -9    0.31    0.56
  -5 -13  -9    0.05    0.53
   0 -14  -9    0.89    0.68
  -1 -14  -9    0.55    0.58
  -2 -14  -9    0.06    0.51
  -3 -14  -9    0.79    0.60
  -1   7 -10    0.01    0.86
  -2   7 -10   -0.64    0.89
  -3   7 -10    2.16    1.05
  -4   7 -10    0.10    0.84
   1   6 -10    2.77    0.89
  -1   6 -10   12.89    1.69
  -3   6 -10   -0.16    0.78
  -4   6 -10    0.19    0.79
  -5   6 -10    0.51    0.81
   2   5 -10    2.42    0.85
   1   5 -10    1.13    0.72
   0   5 -10    0.25    0.56
  -1   5 -10    0.70    0.69
  -1   5 -10    0.72    0.45
  -2   5 -10    0.76    0.68
  -3   5 -10    0.24    0.64
  -4   5 -10    2.53    0.91
  -5   5 -10    0.48    0.73
  -6   5 -10   -0.15    0.68
   3   4 -10    0.27    0.68
   2   4 -10    1.59    0.71
   1   4 -10    1.54    0.69
   0   4 -10    3.29    0.78
  -1   4 -10    4.10    0.72
  -1   4 -10    1.92    0.77
  -2   4 -10    0.43    0.59
  -2   4 -10    0.78    0.44
  -3   4 -10    2.20    0.79
  -4   4 -10    0.54    0.63
  -5   4 -10    2.70    0.91
  -6   4 -10   -0.66    0.60
  -7   4 -10   -1.25    0.56
   4   3 -10   -0.64    0.53
   3   3 -10   -0.42    0.55
   2   3 -10   -0.52    0.43
   1   3 -10   -0.09    0.46
   0   3 -10   -0.26    0.45
  -1   3 -10    1.84    0.64
  -1   3 -10    4.00    0.70
  -2   3 -10    3.08    0.76
  -2   3 -10    2.19    0.56
  -3   3 -10    1.93    0.52
  -3   3 -10    0.45    0.56
  -4   3 -10    5.80    1.09
  -4   3 -10    7.03    0.89
  -5   3 -10    0.71    0.64
  -6   3 -10   -0.21    0.61
   4   2 -10   -0.50    0.55
  -4  -2  10    0.33    0.78
   3   2 -10    0.65    0.60
   2   2 -10    0.39    0.50
   1   2 -10   -0.36    0.42
   0   2 -10    2.46    0.69
  -1   2 -10    0.48    0.42
  -1   2 -10   -0.32    0.43
  -2   2 -10    3.40    0.77
  -2   2 -10    3.58    0.68
  -3   2 -10    0.22    0.39
  -3   2 -10    0.40    0.54
  -4   2 -10    0.72    0.44
  -4   2 -10   -0.01    0.51
  -5   2 -10   -0.49    0.50
  -6   2 -10    6.86    1.13
  -7   2 -10    2.03    0.82
  -8   2 -10    0.09    0.72
  -5  -1  10   -1.38    0.83
   4   1 -10    0.29    0.57
  -4  -1  10   -0.17    0.75
   3   1 -10    4.89    1.02
  -3  -1  10    6.62    1.14
   2   1 -10    6.56    1.05
   1   1 -10    1.18    0.54
   0   1 -10   -0.24    0.39
  -1   1 -10    1.33    0.47
  -1   1 -10    1.69    0.51
  -2   1 -10    2.25    0.56
  -2   1 -10    2.34    0.60
  -3   1 -10    0.78    0.49
  -3   1 -10    0.05    0.38
  -4   1 -10    3.43    0.68
  -4   1 -10    3.63    0.75
  -5   1 -10    2.02    0.67
  -6   1 -10   -0.22    0.51
  -7   1 -10    0.68    0.65
  -8   1 -10    3.48    0.89
   5   0 -10    0.42    0.64
  -5   0  10    0.37    0.97
   4   0 -10    2.22    0.78
  -4   0  10    3.77    1.02
   3   0 -10   -0.06    0.45
  -3   0  10   -0.02    0.69
   2   0 -10    1.93    0.65
  -2   0  10    1.17    0.64
   1   0 -10    0.44    0.43
   0   0 -10    2.29    0.61
  -1   0 -10    1.58    0.48
  -1   0 -10    0.96    0.39
  -2   0 -10    1.30    0.45
  -2   0 -10    0.19    0.37
  -3   0 -10    2.93    0.63
  -3   0 -10    2.12    0.55
  -4   0 -10   22.17    1.95
  -4   0 -10   22.11    1.99
  -5   0 -10    0.02    0.43
  -6   0 -10   15.31    1.61
  -7   0 -10    1.52    0.65
  -8   0 -10    0.32    0.61
   5  -1 -10    1.54    0.73
  -5   1  10    0.25    1.01
   4  -1 -10    1.46    0.67
  -4   1  10    0.83    0.90
   3  -1 -10    0.60    0.55
  -3   1  10   -0.31    0.72
   2  -1 -10   -0.32    0.36
  -2   1  10   -0.57    0.57
   1  -1 -10   -0.33    0.40
   0  -1 -10   12.73    1.36
  -1  -1 -10    1.54    0.51
  -1  -1 -10    1.29    0.39
  -2  -1 -10   -0.59    0.27
  -2  -1 -10   -0.37    0.33
  -3  -1 -10   12.07    1.26
  -3  -1 -10   13.16    1.28
  -4  -1 -10    0.16    0.35
  -4  -1 -10   -0.35    0.36
  -5  -1 -10    0.62    0.44
  -6  -1 -10   -0.01    0.42
  -7  -1 -10    0.25    0.51
  -8  -1 -10    6.31    1.03
  -9  -1 -10   -0.06    0.54
   5  -2 -10   -0.37    0.58
  -5   2  10   -1.89    0.82
   4  -2 -10   -0.20    0.50
  -4   2  10   -0.42    0.84
   3  -2 -10    5.91    1.04
  -3   2  10    8.32    1.28
   2  -2 -10   -0.28    0.41
  -2   2  10    0.47    0.66
   1  -2 -10    5.68    0.96
  -1   2  10    5.01    0.86
   0  -2 -10    0.34    0.41
  -1  -2 -10    1.72    0.53
  -1  -2 -10    0.76    0.35
  -2  -2 -10   28.31    2.29
  -2  -2 -10   29.28    2.44
  -3  -2 -10   33.38    2.61
  -3  -2 -10   31.91    2.68
  -4  -2 -10    0.04    0.32
  -4  -2 -10   -0.02    0.35
  -5  -2 -10    0.06    0.36
  -6  -2 -10   -0.36    0.34
  -7  -2 -10    0.12    0.44
  -8  -2 -10    0.56    0.52
  -9  -2 -10    2.32    0.64
   5  -3 -10    0.01    0.60
  -5   3  10    0.86    1.00
   4  -3 -10    0.82    0.61
  -4   3  10    0.01    0.84
   3  -3 -10   -0.93    0.38
  -3   3  10   -0.19    0.75
   2  -3 -10    2.07    0.65
  -2   3  10    1.89    0.78
   1  -3 -10   -0.26    0.38
  -1   3  10   -0.38    0.53
   0  -3 -10   -0.16    0.38
  -1  -3 -10   -0.05    0.24
  -1  -3 -10   -0.05    0.34
  -2  -3 -10   16.31    1.53
  -2  -3 -10   15.97    1.38
  -3  -3 -10   14.54    1.37
  -3  -3 -10   17.10    1.48
  -4  -3 -10   12.12    1.22
  -4  -3 -10   11.60    1.15
  -5  -3 -10    6.80    0.89
  -6  -3 -10    0.44    0.40
  -7  -3 -10   -0.28    0.34
  -8  -3 -10    1.77    0.54
  -9  -3 -10    0.64    0.48
   5  -4 -10   -0.37    0.53
  -5   4  10   -1.01    0.82
   4  -4 -10    0.25    0.51
  -4   4  10    0.21    0.80
   3  -4 -10    0.01    0.47
  -3   4  10   -0.10    0.69
   2  -4 -10    1.82    0.65
  -2   4  10    1.19    0.73
   1  -4 -10    2.90    0.69
  -1   4  10    1.35    0.65
   0  -4 -10    0.77    0.46
   0   4  10    0.00    0.51
  -1  -4 -10    3.39    0.50
  -1  -4 -10    3.68    0.68
  -2  -4 -10    3.50    0.51
  -2  -4 -10    3.01    0.62
  -3  -4 -10   10.03    0.95
  -3  -4 -10    9.33    1.02
  -4  -4 -10   -0.18    0.25
  -4  -4 -10   -0.08    0.29
  -5  -4 -10   15.13    1.38
  -6  -4 -10    0.11    0.32
  -7  -4 -10    0.85    0.41
  -8  -4 -10   -0.24    0.36
  -9  -4 -10   -0.08    0.39
   5  -5 -10    0.42    0.57
  -5   5  10    0.19    0.90
   4  -5 -10    0.39    0.57
  -4   5  10   -1.03    0.69
   3  -5 -10    0.13    0.50
  -3   5  10    0.15    0.70
   2  -5 -10    0.40    0.47
  -2   5  10    0.58    0.65
   1  -5 -10    0.56    0.42
  -1   5  10    0.04    0.56
   0  -5 -10   11.35    1.32
   0   5  10   11.61    1.33
  -1  -5 -10    0.06    0.36
  -1  -5 -10    0.53    0.26
  -2  -5 -10   14.54    1.42
  -2  -5 -10   16.07    1.32
  -3  -5 -10    4.76    0.66
  -3  -5 -10    6.09    0.80
  -4  -5 -10    5.11    0.67
  -5  -5 -10    5.94    0.78
  -6  -5 -10    0.84    0.38
  -7  -5 -10    2.30    0.52
  -8  -5 -10   -0.28    0.36
  -9  -5 -10   -0.07    0.40
   5  -6 -10   -0.16    0.63
  -5   6  10    0.09    0.82
   4  -6 -10    0.44    0.58
  -4   6  10    0.29    0.71
   3  -6 -10    0.35    0.55
  -3   6  10    0.13    0.64
   2  -6 -10    1.16    0.53
  -2   6  10   -0.07    0.62
   1  -6 -10    0.28    0.42
  -1   6  10    0.10    0.53
   0  -6 -10    1.30    0.46
   0   6  10    0.75    0.52
  -1  -6 -10    0.50    0.35
  -1  -6 -10    0.52    0.27
   1   6  10    0.67    0.44
  -2  -6 -10   34.86    2.59
  -2  -6 -10   32.06    2.70
  -3  -6 -10    0.69    0.35
  -3  -6 -10    0.16    0.25
  -4  -6 -10   24.59    2.00
  -5  -6 -10   -0.14    0.27
  -6  -6 -10    4.73    0.69
  -7  -6 -10   -0.32    0.29
  -8  -6 -10    0.11    0.37
  -9  -6 -10    0.68    0.44
  -5   7  10   -0.64    0.77
  -4   7  10   -0.10    0.69
   3  -7 -10   -0.17    0.45
  -3   7  10   -0.10    0.64
   2  -7 -10    2.18    0.59
  -2   7  10    1.33    0.67
   1  -7 -10    7.21    0.97
  -1   7  10    6.58    1.04
   0  -7 -10    1.46    0.47
   0   7  10    1.53    0.55
  -1  -7 -10   -0.07    0.23
  -1  -7 -10   -0.03    0.29
   1   7  10    0.29    0.39
  -2  -7 -10    0.85    0.35
  -2  -7 -10    0.33    0.26
  -3  -7 -10    0.59    0.29
  -4  -7 -10   16.70    1.47
  -5  -7 -10    0.05    0.30
  -6  -7 -10    7.93    0.95
  -7  -7 -10    0.36    0.38
  -4   8  10    0.65    0.79
  -3   8  10    1.55    0.72
   2  -8 -10    3.29    0.65
  -2   8  10    1.48    0.68
   1  -8 -10    1.03    0.42
  -1   8  10    1.00    0.58
   0  -8 -10   -0.01    0.29
   0   8  10   -0.07    0.44
  -1  -8 -10    1.12    0.33
  -1  -8 -10    0.61    0.32
   1   8  10    0.76    0.43
  -2  -8 -10    0.25    0.46
  -2  -8 -10    1.00    0.37
  -2  -8 -10    1.41    0.38
  -3  -8 -10    3.95    0.60
  -4  -8 -10    1.61    0.42
  -5  -8 -10    0.86    0.40
  -6  -8 -10    2.55    0.57
  -7  -8 -10    1.75    0.50
  -8  -8 -10    2.13    0.59
  -4   9  10    0.11    0.76
  -3   9  10   -0.45    0.61
  -2   9  10    3.09    0.84
   1  -9 -10    0.99    0.39
  -1   9  10    1.21    0.60
   0  -9 -10    0.33    0.33
   0   9  10    0.68    0.53
  -1  -9 -10    1.32    0.37
  -1  -9 -10    1.16    0.37
   1   9  10    1.13    0.44
  -2  -9 -10    0.09    0.43
  -2  -9 -10   -0.03    0.30
  -3  -9 -10    2.70    0.54
  -4  -9 -10    7.77    0.98
  -5  -9 -10    3.10    0.61
  -6  -9 -10    0.30    0.38
  -7  -9 -10    0.41    0.45
  -8  -9 -10    0.29    0.52
  -3  10  10    1.38    0.77
  -2  10  10    0.48    0.66
  -1  10  10   -0.06    0.56
   0  10  10    1.91    0.61
  -1 -10 -10   -0.76    0.39
  -2 -10 -10    0.72    0.51
  -2 -10 -10    0.12    0.30
  -3 -10 -10    0.39    0.33
  -3 -10 -10    0.45    0.45
  -4 -10 -10    0.46    0.38
  -5 -10 -10    2.55    0.62
  -6 -10 -10    0.97    0.47
  -7 -10 -10    4.27    0.81
  -3  11  10    1.52    0.85
  -2  11  10    1.53    0.78
  -1  11  10    3.02    0.86
   0  11  10    1.23    0.58
  -1 -11 -10    2.28    0.70
  -2 -11 -10    2.39    0.65
  -2 -11 -10    2.61    0.53
  -3 -11 -10    1.47    0.58
  -3 -11 -10    2.47    0.54
  -5 -11 -10    0.21    0.41
  -6 -11 -10   -0.33    0.37
  -7 -11 -10   -0.55    0.41
  -2  12  10   -0.69    0.66
  -1  12  10    0.26    0.67
   0  12  10    0.94    0.59
  -1 -12 -10   -0.25    0.57
  -2 -12 -10    2.06    0.59
  -3 -12 -10   -0.15    0.31
  -3 -12 -10    0.62    0.53
  -4 -12 -10    1.06    0.49
  -5 -12 -10   -0.25    0.40
  -6 -12 -10   -0.23    0.43
  -1  13  10    1.26    0.80
   0  13  10    0.44    0.59
  -1 -13 -10   -0.16    0.63
  -2 -13 -10    0.26    0.61
  -3 -13 -10    0.10    0.56
  -4 -13 -10    1.70    0.62
  -5 -13 -10   -0.02    0.43
  -2 -14 -10    0.45    0.65
  -2   6 -11   -0.18    0.79
  -3   6 -11    7.55    1.34
  -4   6 -11   -0.52    0.74
   1   5 -11   11.05    1.57
   0   5 -11   -0.20    0.56
  -1   5 -11   -0.67    0.63
  -2   5 -11    2.34    0.89
  -3   5 -11    3.61    0.95
  -4   5 -11    1.58    0.90
  -5   5 -11    5.82    1.19
   2   4 -11   -0.31    0.58
   1   4 -11    6.86    1.21
   0   4 -11    0.07    0.53
  -1   4 -11    4.79    0.84
  -1   4 -11    3.27    0.90
  -2   4 -11   -0.05    0.57
  -2   4 -11    0.15    0.42
  -3   4 -11    1.05    0.72
  -4   4 -11    0.62    0.75
  -5   4 -11    1.48    0.88
  -6   4 -11    3.52    1.10
   3   3 -11   -0.15    0.59
   2   3 -11    1.76    0.76
   1   3 -11    0.17    0.55
   0   3 -11    0.16    0.49
  -1   3 -11    0.26    0.55
  -1   3 -11    1.41    0.53
  -2   3 -11    1.72    0.68
  -2   3 -11    1.13    0.50
  -3   3 -11    4.56    0.73
  -3   3 -11    2.53    0.81
  -4   3 -11    3.53    0.90
  -5   3 -11    6.21    1.10
  -6   3 -11    0.94    0.71
  -7   3 -11   -0.31    0.63
   3   2 -11    0.40    0.59
   2   2 -11   -0.57    0.46
   1   2 -11   -0.28    0.45
   0   2 -11    0.92    0.61
  -1   2 -11    0.04    0.40
  -1   2 -11   -0.33    0.44
  -2   2 -11    0.30    0.42
  -2   2 -11   -0.19    0.45
  -3   2 -11    0.31    0.40
  -3   2 -11    0.11    0.48
  -4   2 -11    1.56    0.49
  -4   2 -11    2.12    0.69
  -5   2 -11    0.53    0.61
  -6   2 -11    0.82    0.63
  -7   2 -11    2.41    0.91
   4   1 -11    1.34    0.71
   3   1 -11    0.08    0.57
   2   1 -11    0.61    0.52
   1   1 -11    0.26    0.51
   0   1 -11    9.22    1.28
  -1   1 -11    2.43    0.57
  -1   1 -11    1.68    0.59
  -2   1 -11    0.41    0.43
  -2   1 -11   -0.15    0.38
  -3   1 -11    3.19    0.70
  -3   1 -11    2.95    0.64
  -4   1 -11    0.40    0.42
  -4   1 -11   -0.09    0.49
  -5   1 -11    0.53    0.56
  -6   1 -11   -0.63    0.56
  -7   1 -11   -0.42    0.50
  -8   1 -11   -0.67    0.62
   4   0 -11   -0.62    0.60
   3   0 -11   -0.33    0.47
   2   0 -11   -0.04    0.47
   1   0 -11   -0.01    0.47
   0   0 -11    1.65    0.59
  -1   0 -11   -0.01    0.33
  -1   0 -11   -0.26    0.38
  -2   0 -11    1.27    0.47
  -2   0 -11    1.01    0.49
  -3   0 -11    0.05    0.39
  -3   0 -11   -0.19    0.37
  -4   0 -11    0.53    0.41
  -4   0 -11    1.09    0.54
  -5   0 -11    0.53    0.53
  -6   0 -11    2.14    0.72
  -7   0 -11   -0.23    0.57
  -8   0 -11    0.54    0.64
   4  -1 -11    1.12    0.70
  -4   1  11    3.03    1.14
   3  -1 -11    2.94    0.84
   2  -1 -11    4.02    0.87
   1  -1 -11    0.23    0.44
   0  -1 -11    6.85    1.03
  -1  -1 -11    1.87    0.50
  -1  -1 -11    2.84    0.64
  -2  -1 -11    4.72    0.75
  -2  -1 -11    5.80    0.92
  -3  -1 -11    8.99    1.13
  -3  -1 -11    8.13    1.03
  -4  -1 -11    0.12    0.46
  -4  -1 -11    0.20    0.39
  -5  -1 -11    0.06    0.43
  -6  -1 -11    0.85    0.56
  -7  -1 -11   -0.17    0.47
  -8  -1 -11    1.46    0.62
   4  -2 -11    0.17    0.59
  -4   2  11   -0.31    0.92
   3  -2 -11    0.06    0.49
  -3   2  11   -0.24    0.79
   2  -2 -11    5.18    1.01
   1  -2 -11    4.61    0.91
   0  -2 -11    6.24    1.00
  -1  -2 -11    0.39    0.43
  -1  -2 -11    0.60    0.34
  -2  -2 -11    1.56    0.55
  -2  -2 -11    0.92    0.40
  -3  -2 -11    0.62    0.42
  -3  -2 -11    0.81    0.40
  -4  -2 -11    7.79    1.01
  -4  -2 -11    8.44    1.09
  -5  -2 -11    0.48    0.46
  -6  -2 -11    0.96    0.51
  -7  -2 -11    0.52    0.52
  -8  -2 -11   -0.05    0.45
   4  -3 -11    2.61    0.78
  -4   3  11    1.66    1.06
   3  -3 -11    0.32    0.53
  -3   3  11   -1.11    0.77
   2  -3 -11   -0.50    0.37
   1  -3 -11   11.42    1.48
   0  -3 -11    4.21    0.84
  -1  -3 -11   14.95    1.44
  -1  -3 -11   12.77    1.20
  -2  -3 -11   20.45    1.68
  -2  -3 -11   19.32    1.85
  -3  -3 -11    3.38    0.58
  -3  -3 -11    3.83    0.73
  -4  -3 -11    0.70    0.37
  -4  -3 -11    0.85    0.41
  -5  -3 -11    3.95    0.68
  -6  -3 -11    2.12    0.54
  -7  -3 -11    0.51    0.47
  -8  -3 -11    0.67    0.46
   4  -4 -11   -0.24    0.53
  -4   4  11   -1.39    0.86
   3  -4 -11    1.13    0.67
  -3   4  11    1.07    0.87
   2  -4 -11    0.49    0.55
  -2   4  11    0.31    0.74
   1  -4 -11    2.95    0.76
   0  -4 -11    5.34    0.92
  -1  -4 -11   15.61    1.42
  -1  -4 -11   11.69    1.14
  -2  -4 -11    0.19    0.27
  -2  -4 -11    0.28    0.39
  -3  -4 -11    3.48    0.58
  -3  -4 -11    5.11    0.76
  -4  -4 -11   -0.02    0.31
  -4  -4 -11    0.73    0.40
  -5  -4 -11   -0.06    0.31
  -6  -4 -11    3.86    0.65
  -7  -4 -11    3.06    0.62
  -8  -4 -11   -0.36    0.36
   4  -5 -11    1.15    0.72
  -4   5  11    1.95    0.99
   3  -5 -11    0.30    0.53
  -3   5  11   -0.27    0.77
   2  -5 -11    0.50    0.53
  -2   5  11   -0.08    0.67
   1  -5 -11    0.10    0.47
  -1   5  11    0.82    0.67
   0  -5 -11    2.64    0.66
  -1  -5 -11    0.18    0.25
  -1  -5 -11    0.47    0.43
  -2  -5 -11    0.02    0.33
  -2  -5 -11    0.27    0.26
  -3  -5 -11    0.93    0.34
  -3  -5 -11    0.61    0.37
  -4  -5 -11    1.05    0.36
  -4  -5 -11    0.45    0.37
  -5  -5 -11   -0.11    0.27
  -6  -5 -11    0.53    0.35
  -7  -5 -11    1.45    0.51
  -8  -5 -11   -0.27    0.33
   4  -6 -11    2.59    0.82
  -4   6  11    2.24    1.00
   3  -6 -11    0.10    0.56
  -3   6  11   -0.68    0.68
   2  -6 -11    3.70    0.84
  -2   6  11    3.81    0.89
   1  -6 -11    0.33    0.42
  -1   6  11    0.31    0.60
   0  -6 -11    0.37    0.44
  -1  -6 -11    0.27    0.25
  -1  -6 -11    0.86    0.44
  -2  -6 -11    1.74    0.40
  -2  -6 -11    2.11    0.50
  -3  -6 -11    0.28    0.31
  -3  -6 -11    0.05    0.23
  -4  -6 -11    0.48    0.30
  -5  -6 -11    1.98    0.46
  -6  -6 -11    1.18    0.40
  -7  -6 -11    0.46    0.42
  -8  -6 -11    0.05    0.38
  -4   7  11    1.56    0.88
   3  -7 -11   -0.22    0.46
  -3   7  11   -0.85    0.66
   2  -7 -11   -0.04    0.41
  -2   7  11   -0.15    0.63
   1  -7 -11   -0.15    0.37
  -1   7  11    0.31    0.57
   0  -7 -11    1.02    0.47
   0   7  11    1.49    0.61
  -1  -7 -11    0.89    0.37
  -1  -7 -11    1.04    0.43
  -2  -7 -11   -0.05    0.24
  -2  -7 -11   -0.17    0.26
  -3  -7 -11    0.05    0.25
  -3  -7 -11    0.05    0.32
  -4  -7 -11    1.04    0.34
  -5  -7 -11    0.17    0.31
  -6  -7 -11    1.69    0.46
  -7  -7 -11   -0.03    0.33
  -8  -7 -11   -0.18    0.34
  -4   8  11    3.00    0.96
  -3   8  11    0.64    0.74
   2  -8 -11   -0.07    0.41
  -2   8  11    0.09    0.64
   1  -8 -11    0.02    0.39
  -1   8  11   -0.10    0.56
   0  -8 -11    3.09    0.62
   0   8  11    2.62    0.70
  -1  -8 -11    6.71    0.85
  -1  -8 -11    4.96    0.67
  -2  -8 -11    2.45    0.53
  -2  -8 -11    2.08    0.46
  -3  -8 -11    2.64    0.50
  -4  -8 -11   -0.18    0.29
  -5  -8 -11   -0.03    0.29
  -6  -8 -11    2.87    0.60
  -7  -8 -11    0.35    0.36
  -8  -8 -11    1.24    0.48
  -3   9  11   -0.59    0.63
  -2   9  11    0.07    0.63
   1  -9 -11    3.48    0.65
  -1   9  11    2.66    0.78
   0  -9 -11   -0.03    0.36
   0   9  11    0.36    0.49
  -1  -9 -11   -0.07    0.29
  -1  -9 -11    0.51    0.31
   1   9  11    0.92    0.50
  -2  -9 -11    0.69    0.36
  -2  -9 -11    0.60    0.35
  -3  -9 -11    1.48    0.45
  -4  -9 -11    0.15    0.34
  -5  -9 -11    0.65    0.38
  -6  -9 -11    0.06    0.35
  -7  -9 -11   -0.28    0.33
  -3  10  11    5.62    1.16
  -2  10  11    1.91    0.81
  -1  10  11    0.03    0.58
   0 -10 -11    0.69    0.41
   0  10  11    0.92    0.59
  -1 -10 -11    0.89    0.38
  -1 -10 -11    0.47    0.33
   1  10  11    1.13    0.50
  -2 -10 -11   -0.17    0.27
  -3 -10 -11    4.56    0.71
  -4 -10 -11    0.25    0.39
  -5 -10 -11    1.10    0.49
  -6 -10 -11    0.46    0.46
  -7 -10 -11    0.84    0.51
  -2  11  11    1.16    0.78
  -1  11  11    2.67    0.84
   0  11  11    1.15    0.64
   1  11  11    0.64    0.52
  -2 -11 -11   -0.02    0.32
  -3 -11 -11    0.41    0.37
  -4 -11 -11    0.38    0.41
  -5 -11 -11    1.03    0.46
  -6 -11 -11    0.58    0.49
  -1  12  11    1.03    0.72
   0  12  11    0.51    0.65
   1  12  11    3.04    0.74
  -3 -12 -11    1.42    0.47
  -4 -12 -11   -0.89    0.30
  -5 -12 -11   -0.12    0.40
   0  13  11    0.32    0.62
   1  13  11    0.71    0.59
  -2 -13 -11    0.02    0.66
  -4 -13 -11    0.32    0.42
  -2   5 -12    1.57    0.91
  -3   5 -12   -0.09    0.76
   1   4 -12   -0.14    0.67
   0   4 -12    0.88    0.66
  -1   4 -12   12.92    1.53
  -2   4 -12    4.81    1.03
  -3   4 -12    0.53    0.81
  -4   4 -12    0.71    0.80
  -5   4 -12    0.92    0.79
   2   3 -12    1.60    0.82
   1   3 -12    3.52    0.97
   0   3 -12    0.49    0.58
  -1   3 -12    2.88    0.73
  -2   3 -12   -0.18    0.53
  -2   3 -12    0.24    0.46
  -3   3 -12    4.95    0.82
  -3   3 -12    3.45    0.91
  -4   3 -12    4.08    0.93
  -5   3 -12   -0.40    0.64
  -6   3 -12   -0.63    0.64
   2   2 -12    0.01    0.58
   1   2 -12    0.47    0.59
   0   2 -12   -0.04    0.50
  -1   2 -12    0.43    0.48
  -2   2 -12   -0.06    0.48
  -2   2 -12   -0.05    0.38
  -3   2 -12    3.96    0.78
  -3   2 -12    3.25    0.78
  -4   2 -12    0.22    0.53
  -4   2 -12    0.61    0.44
  -5   2 -12    2.86    0.80
  -6   2 -12   -0.61    0.60
  -7   2 -12    0.89    0.80
   3   1 -12    0.36    0.60
   2   1 -12   -0.63    0.53
   1   1 -12    0.15    0.55
   0   1 -12    2.66    0.73
  -1   1 -12    3.02    0.73
  -2   1 -12    0.63    0.46
  -2   1 -12    0.27    0.44
  -3   1 -12    1.15    0.55
  -3   1 -12    0.83    0.47
  -4   1 -12    0.45    0.45
  -4   1 -12    0.20    0.49
  -5   1 -12    0.90    0.66
  -6   1 -12   -0.08    0.57
  -7   1 -12    1.39    0.77
   3   0 -12    0.41    0.58
   2   0 -12    0.09    0.53
   1   0 -12   -0.25    0.44
   0   0 -12   -0.34    0.39
  -1   0 -12    0.04    0.43
  -2   0 -12    0.70    0.41
  -2   0 -12    0.58    0.48
  -3   0 -12    1.98    0.57
  -3   0 -12    2.98    0.66
  -4   0 -12    0.14    0.37
  -4   0 -12    0.34    0.50
  -5   0 -12    0.27    0.52
  -6   0 -12   -0.07    0.53
  -7   0 -12   -0.10    0.61
   3  -1 -12    9.84    1.45
   2  -1 -12    0.79    0.60
   1  -1 -12    0.09    0.49
   0  -1 -12   -0.37    0.41
  -1  -1 -12   -0.08    0.39
  -2  -1 -12    0.43    0.37
  -2  -1 -12    0.85    0.51
  -3  -1 -12    6.55    1.02
  -3  -1 -12    6.02    0.87
  -4  -1 -12    4.55    0.82
  -4  -1 -12    4.83    0.82
  -5  -1 -12    0.70    0.53
  -6  -1 -12    0.04    0.51
  -7  -1 -12   -0.13    0.54
  -8  -1 -12    0.16    0.61
   3  -2 -12    0.83    0.67
   2  -2 -12    3.07    0.84
   1  -2 -12   -0.12    0.45
   0  -2 -12    1.20    0.56
  -1  -2 -12    0.82    0.48
  -2  -2 -12    0.23    0.44
  -2  -2 -12    0.90    0.41
  -3  -2 -12    8.69    1.04
  -3  -2 -12    9.05    1.20
  -4  -2 -12   -0.47    0.36
  -4  -2 -12   -0.09    0.36
  -5  -2 -12   -0.01    0.42
  -6  -2 -12    2.09    0.61
  -7  -2 -12   -0.60    0.43
  -8  -2 -12   -0.53    0.48
   3  -3 -12    1.89    0.76
   2  -3 -12   -0.60    0.46
   1  -3 -12    0.13    0.47
   0  -3 -12   -0.09    0.38
  -1  -3 -12    2.17    0.65
  -2  -3 -12    1.21    0.57
  -2  -3 -12    0.49    0.36
  -3  -3 -12   -0.07    0.36
  -3  -3 -12    0.02    0.32
  -4  -3 -12    0.02    0.34
  -4  -3 -12    0.32    0.41
  -5  -3 -12    1.41    0.47
  -6  -3 -12    3.31    0.68
  -7  -3 -12    1.12    0.56
  -8  -3 -12    0.92    0.53
   4  -4 -12    0.31    0.68
   3  -4 -12    0.22    0.60
   2  -4 -12   -0.05    0.50
   1  -4 -12    0.24    0.49
   0  -4 -12    2.30    0.66
  -1  -4 -12    0.33    0.43
  -2  -4 -12   13.48    1.35
  -2  -4 -12   10.81    1.09
  -3  -4 -12   17.98    1.65
  -3  -4 -12   16.07    1.47
  -4  -4 -12    3.82    0.72
  -4  -4 -12    2.93    0.53
  -5  -4 -12   -0.34    0.29
  -6  -4 -12    0.27    0.38
  -7  -4 -12    1.30    0.46
  -8  -4 -12    4.10    0.74
  -4   5  12    0.08    0.96
   3  -5 -12    2.71    0.83
   2  -5 -12    1.14    0.63
   1  -5 -12    4.49    0.90
   0  -5 -12    0.25    0.47
  -1  -5 -12    5.39    0.95
  -2  -5 -12    0.87    0.36
  -2  -5 -12    1.35    0.53
  -3  -5 -12    0.67    0.36
  -3  -5 -12    0.89    0.47
  -4  -5 -12    3.53    0.69
  -4  -5 -12    2.43    0.48
  -5  -5 -12    3.77    0.62
  -6  -5 -12    1.19    0.46
  -7  -5 -12   -0.31    0.33
  -8  -5 -12    0.23    0.43
   3  -6 -12    0.83    0.65
   2  -6 -12    0.68    0.57
   1  -6 -12    8.69    1.22
   0  -6 -12    3.92    0.79
  -1  -6 -12    2.93    0.72
  -2  -6 -12    0.30    0.39
  -2  -6 -12   -0.14    0.26
  -3  -6 -12   -0.26    0.32
  -3  -6 -12   -0.13    0.27
  -4  -6 -12    0.37    0.33
  -5  -6 -12    3.15    0.58
  -6  -6 -12    0.19    0.35
  -7  -6 -12   -0.55    0.29
  -8  -6 -12    1.54    0.50
   3  -7 -12    1.18    0.62
  -3   7  12    0.29    0.83
   2  -7 -12    0.79    0.57
   1  -7 -12    0.03    0.44
   0  -7 -12    5.65    0.93
  -1  -7 -12    1.64    0.53
  -2  -7 -12    0.43    0.37
  -2  -7 -12    0.08    0.31
  -3  -7 -12    1.66    0.53
  -3  -7 -12    1.58    0.40
  -4  -7 -12    0.17    0.30
  -5  -7 -12    0.16    0.29
  -6  -7 -12    0.78    0.38
  -7  -7 -12   -0.47    0.31
  -8  -7 -12    1.11    0.47
  -3   8  12    2.10    0.90
   2  -8 -12    0.49    0.50
  -2   8  12    0.63    0.75
   1  -8 -12   -0.35    0.40
   0  -8 -12    2.24    0.60
  -1  -8 -12    3.79    0.71
  -2  -8 -12    0.66    0.38
  -2  -8 -12    0.10    0.34
  -3  -8 -12    0.15    0.32
  -3  -8 -12    0.25    0.31
  -4  -8 -12    0.44    0.34
  -5  -8 -12    1.37    0.45
  -6  -8 -12   -0.50    0.32
  -7  -8 -12    0.29    0.39
  -2   9  12    9.57    1.43
   1  -9 -12   -0.09    0.47
   0  -9 -12    0.33    0.43
  -1  -9 -12    0.23    0.33
  -2  -9 -12    0.31    0.36
  -2  -9 -12   -0.05    0.33
  -3  -9 -12    0.08    0.37
  -4  -9 -12    0.62    0.43
  -5  -9 -12    0.94    0.43
  -6  -9 -12    0.29    0.37
  -7  -9 -12   -0.34    0.39
  -2  10  12    5.44    1.11
  -1  10  12   -0.41    0.63
   0 -10 -12    1.69    0.49
  -1 -10 -12   -0.20    0.32
  -2 -10 -12    0.49    0.39
  -3 -10 -12    0.41    0.44
  -4 -10 -12    0.90    0.47
  -5 -10 -12   -0.04    0.38
  -6 -10 -12    0.07    0.42
  -7 -10 -12    0.23    0.45
  -1  11  12    2.60    0.89
  -2 -11 -12    0.28    0.37
  -3 -11 -12    2.21    0.55
  -4 -11 -12    0.14    0.38
  -5 -11 -12    0.69    0.47
  -6 -11 -12    0.35    0.48
  -3 -12 -12    0.45    0.41
  -4 -12 -12    1.19    0.48
  -5 -12 -12    0.02    0.40
   0   3 -13    4.10    0.98
  -1   3 -13    0.60    0.57
  -2   3 -13    1.36    0.62
  -3   3 -13   -0.30    0.63
  -4   3 -13    0.50    0.71
   1   2 -13    2.44    0.83
   0   2 -13    6.52    1.16
  -1   2 -13    1.47    0.64
  -2   2 -13    4.39    0.87
  -3   2 -13    0.27    0.52
  -3   2 -13    0.52    0.48
  -4   2 -13    1.69    0.75
  -4   2 -13    0.70    0.48
  -5   2 -13    1.31    0.74
  -6   2 -13    0.19    0.73
   1   1 -13    3.09    0.86
   0   1 -13    3.35    0.86
  -1   1 -13    9.56    1.31
  -2   1 -13   -0.27    0.48
  -3   1 -13    7.19    1.08
  -3   1 -13    7.07    1.06
  -4   1 -13    0.91    0.65
  -4   1 -13    0.90    0.47
  -5   1 -13    0.76    0.66
  -5   1 -13    1.16    0.52
  -6   1 -13   -0.34    0.63
   2   0 -13    3.07    0.92
   1   0 -13   -0.21    0.53
   0   0 -13    1.29    0.64
  -1   0 -13    0.55    0.53
  -2   0 -13   -0.28    0.43
  -3   0 -13    1.08    0.56
  -3   0 -13    2.86    0.63
  -4   0 -13    0.11    0.53
  -4   0 -13   -0.03    0.41
  -5   0 -13    2.10    0.61
  -5   0 -13    1.55    0.69
  -6   0 -13    0.32    0.58
  -7   0 -13    1.97    0.84
   2  -1 -13    1.22    0.70
   1  -1 -13    4.84    0.97
   0  -1 -13    0.57    0.55
  -1  -1 -13   -0.27    0.45
  -2  -1 -13    1.38    0.58
  -3  -1 -13    0.23    0.45
  -3  -1 -13    0.01    0.44
  -4  -1 -13    0.45    0.49
  -4  -1 -13   -0.02    0.41
  -5  -1 -13    0.30    0.45
  -5  -1 -13    0.54    0.55
  -6  -1 -13    0.04    0.53
  -7  -1 -13   -0.29    0.59
   2  -2 -13    0.63    0.61
   1  -2 -13    7.92    1.23
   0  -2 -13    1.22    0.61
  -1  -2 -13    3.00    0.75
  -2  -2 -13    0.65    0.50
  -3  -2 -13    3.11    0.61
  -3  -2 -13    2.17    0.65
  -4  -2 -13   -0.38    0.41
  -4  -2 -13   -0.67    0.35
  -5  -2 -13    0.50    0.48
  -6  -2 -13   -0.18    0.46
  -7  -2 -13    0.37    0.57
   3  -3 -13    1.94    0.79
   2  -3 -13    0.63    0.62
   1  -3 -13    2.40    0.76
   0  -3 -13    0.15    0.47
  -1  -3 -13    3.46    0.78
  -2  -3 -13    5.25    0.99
  -3  -3 -13    1.01    0.48
  -3  -3 -13    1.77    0.58
  -4  -3 -13    1.26    0.58
  -4  -3 -13    0.28    0.45
  -5  -3 -13   -0.06    0.40
  -6  -3 -13   -0.46    0.43
  -7  -3 -13   -0.14    0.48
   3  -4 -13    3.14    0.91
   2  -4 -13    0.29    0.60
   1  -4 -13    3.03    0.83
   0  -4 -13    1.09    0.62
  -1  -4 -13    1.95    0.67
  -2  -4 -13    3.21    0.77
  -3  -4 -13    1.21    0.58
  -3  -4 -13    2.31    0.49
  -4  -4 -13    0.74    0.41
  -4  -4 -13    0.91    0.52
  -5  -4 -13    1.43    0.47
  -6  -4 -13   -0.31    0.39
  -7  -4 -13   -0.20    0.41
   3  -5 -13    0.18    0.58
   2  -5 -13   -0.33    0.49
   1  -5 -13   -0.32    0.43
   0  -5 -13   -0.27    0.46
  -1  -5 -13    3.40    0.83
  -2  -5 -13    2.27    0.68
  -3  -5 -13    1.36    0.56
  -3  -5 -13    0.99    0.41
  -4  -5 -13    0.43    0.42
  -4  -5 -13    0.18    0.36
  -5  -5 -13    1.94    0.49
  -6  -5 -13    0.85    0.47
  -7  -5 -13    1.20    0.46
   2  -6 -13   -0.06    0.54
   1  -6 -13   -0.33    0.47
   0  -6 -13    1.00    0.60
  -1  -6 -13    3.07    0.76
  -2  -6 -13    0.20    0.40
  -3  -6 -13   -0.10    0.36
  -3  -6 -13   -0.21    0.29
  -4  -6 -13    0.91    0.49
  -4  -6 -13    1.35    0.46
  -5  -6 -13    0.24    0.36
  -6  -6 -13    0.23    0.40
  -7  -6 -13    2.90    0.61
   2  -7 -13   -0.07    0.52
   1  -7 -13    3.84    0.89
   0  -7 -13    1.60    0.62
  -1  -7 -13    5.07    0.95
  -2  -7 -13    1.26    0.50
  -3  -7 -13    1.91    0.44
  -3  -7 -13    0.56    0.48
  -4  -7 -13    0.08    0.33
  -5  -7 -13   -0.37    0.30
  -6  -7 -13    1.33    0.48
  -7  -7 -13    0.53    0.42
   2  -8 -13    0.66    0.59
   1  -8 -13    6.45    1.06
   0  -8 -13    0.23    0.45
  -1  -8 -13    5.99    0.93
  -2  -8 -13    3.99    0.74
  -3  -8 -13    3.42    0.64
  -3  -8 -13    4.47    0.80
  -4  -8 -13    2.08    0.53
  -5  -8 -13    0.55    0.40
  -6  -8 -13    0.84    0.43
  -7  -8 -13    0.05    0.37
   1  -9 -13    1.64    0.71
   0  -9 -13    2.10    0.69
  -1  -9 -13    1.72    0.53
  -2  -9 -13    0.07    0.36
  -3  -9 -13    0.21    0.42
  -4  -9 -13    0.13    0.37
  -5  -9 -13    1.00    0.48
  -6  -9 -13    0.13    0.37
   0 -10 -13    9.71    1.20
  -1 -10 -13    0.28    0.41
  -2 -10 -13    4.95    0.79
  -3 -10 -13    0.12    0.42
  -4 -10 -13   -0.43    0.40
  -5 -10 -13   -0.20    0.38
  -6 -10 -13    0.13    0.42
  -3 -11 -13    0.29    0.42
  -4 -11 -13    0.04    0.44
  -5 -11 -13    0.13    0.41
  -3 -12 -13    1.19    0.52
  -4 -12 -13    2.48    0.62
  -2   2 -14    3.91    0.85
  -3   2 -14    1.18    0.62
   0   1 -14    3.41    0.89
  -1   1 -14    0.03    0.57
  -2   1 -14    6.52    1.14
  -3   1 -14    0.05    0.56
  -3   1 -14    0.82    0.54
  -4   1 -14    6.58    1.07
  -4   1 -14    8.55    1.14
  -5   1 -14   -0.06    0.65
  -5   1 -14    0.06    0.48
   0   0 -14    3.58    0.90
  -1   0 -14    0.74    0.62
  -2   0 -14    1.58    0.67
  -3   0 -14    1.54    0.60
  -3   0 -14    0.83    0.59
  -4   0 -14    1.90    0.73
  -4   0 -14    2.57    0.70
  -5   0 -14    0.53    0.48
  -5   0 -14    0.25    0.64
  -6   0 -14    0.68    0.69
   1  -1 -14    0.01    0.54
   0  -1 -14   12.90    1.67
  -1  -1 -14    0.12    0.54
  -2  -1 -14    5.76    1.02
  -3  -1 -14    2.74    0.74
  -3  -1 -14    1.74    0.66
  -4  -1 -14    0.27    0.52
  -4  -1 -14   -0.04    0.43
  -5  -1 -14    3.72    0.76
  -5  -1 -14    1.07    0.64
  -6  -1 -14    0.34    0.60
   1  -2 -14    1.76    0.73
   0  -2 -14    1.14    0.63
  -1  -2 -14    5.10    1.00
  -2  -2 -14    6.00    1.11
  -3  -2 -14    1.37    0.57
  -3  -2 -14    3.21    0.79
  -4  -2 -14   -0.35    0.41
  -4  -2 -14    0.23    0.47
  -5  -2 -14    0.03    0.50
  -5  -2 -14    0.45    0.51
  -6  -2 -14    0.16    0.52
   1  -3 -14   -0.10    0.56
   0  -3 -14   -0.48    0.47
  -1  -3 -14    7.43    1.23
  -2  -3 -14    6.00    1.10
  -3  -3 -14   12.28    1.27
  -3  -3 -14   14.49    1.65
  -4  -3 -14    0.99    0.52
  -4  -3 -14    0.03    0.49
  -5  -3 -14    0.03    0.46
  -6  -3 -14   -0.71    0.45
  -7  -3 -14   -0.35    0.47
   2  -4 -14    2.77    0.82
   1  -4 -14    2.78    0.85
   0  -4 -14    0.80    0.59
  -1  -4 -14    0.65    0.59
  -2  -4 -14    4.28    0.97
  -3  -4 -14   -0.17    0.31
  -3  -4 -14    0.83    0.54
  -4  -4 -14    0.48    0.52
  -4  -4 -14    0.13    0.38
  -5  -4 -14    2.15    0.54
  -6  -4 -14   -0.34    0.40
  -7  -4 -14   -0.80    0.39
   2  -5 -14    2.73    0.85
   1  -5 -14    0.21    0.55
   0  -5 -14    4.32    0.98
  -1  -5 -14   -0.06    0.51
  -2  -5 -14   11.47    1.55
  -3  -5 -14   -0.19    0.40
  -3  -5 -14   -0.08    0.33
  -4  -5 -14    1.47    0.60
  -4  -5 -14    0.88    0.45
  -5  -5 -14    1.11    0.46
  -6  -5 -14   -0.28    0.39
  -7  -5 -14   -0.25    0.46
   1  -6 -14   -0.08    0.54
   0  -6 -14    2.84    0.82
  -1  -6 -14    3.48    0.83
  -2  -6 -14    0.39    0.49
  -3  -6 -14    0.21    0.44
  -3  -6 -14    0.17    0.34
  -4  -6 -14    0.92    0.40
  -4  -6 -14    1.62    0.60
  -5  -6 -14   -0.26    0.34
  -6  -6 -14    1.08    0.50
  -7  -6 -14    0.47    0.48
   1  -7 -14   -0.51    0.46
   0  -7 -14    0.39    0.54
  -1  -7 -14   -0.04    0.49
  -2  -7 -14    0.85    0.52
  -3  -7 -14    0.14    0.46
  -3  -7 -14    0.20    0.34
  -4  -7 -14    0.24    0.37
  -5  -7 -14    0.49    0.39
  -6  -7 -14    0.56    0.43
   1  -8 -14    0.17    0.53
   0  -8 -14    0.46    0.57
  -1  -8 -14    1.13    0.59
  -2  -8 -14   -0.05    0.38
  -3  -8 -14    0.11    0.37
  -3  -8 -14    0.34    0.45
  -4  -8 -14   -0.25    0.35
  -5  -8 -14    0.44    0.38
  -6  -8 -14   -0.21    0.34
   0  -9 -14    0.61    0.56
  -1  -9 -14    2.82    0.69
  -2  -9 -14   -0.14    0.40
  -3  -9 -14    1.54    0.53
  -4  -9 -14    0.21    0.41
  -5  -9 -14   -0.07    0.39
  -6  -9 -14   -0.08    0.36
   0 -10 -14    0.12    0.48
  -1 -10 -14    0.30    0.44
  -2 -10 -14    2.16    0.61
  -3 -10 -14    2.04    0.57
  -4 -10 -14    0.01    0.45
  -5 -10 -14   -0.45    0.42
  -4 -11 -14    4.61    0.80
  -3   0 -15    0.57    0.59
  -1  -1 -15    0.34    0.62
  -2  -1 -15    0.54    0.61
  -3  -1 -15    0.09    0.48
  -4  -1 -15    5.05    0.89
  -4  -1 -15    5.10    0.97
   0  -2 -15    0.70    0.67
  -1  -2 -15    2.70    0.83
  -2  -2 -15    0.69    0.59
  -3  -2 -15   -0.01    0.52
  -4  -2 -15    0.12    0.49
  -4  -2 -15    1.83    0.65
  -5  -2 -15   -0.77    0.46
  -5  -2 -15    0.12    0.50
   0  -3 -15   -0.05    0.50
  -1  -3 -15    0.95    0.68
  -2  -3 -15    0.44    0.59
  -3  -3 -15    1.93    0.74
  -4  -3 -15    1.76    0.55
  -4  -3 -15    2.78    0.79
  -5  -3 -15    3.35    0.84
  -5  -3 -15    2.44    0.66
   0  -4 -15    0.77    0.64
  -1  -4 -15    5.46    1.15
  -2  -4 -15    0.57    0.60
  -3  -4 -15    1.69    0.67
  -4  -4 -15    0.75    0.60
  -4  -4 -15    0.40    0.43
  -5  -4 -15    1.58    0.51
  -6  -4 -15    2.03    0.66
   0  -5 -15    2.35    0.85
  -1  -5 -15    2.71    0.88
  -2  -5 -15    1.15    0.66
  -3  -5 -15    3.99    0.86
  -4  -5 -15    0.21    0.40
  -4  -5 -15   -0.16    0.48
  -5  -5 -15   -0.09    0.41
  -6  -5 -15    0.53    0.49
   0  -6 -15    0.69    0.66
  -1  -6 -15    2.91    0.89
  -2  -6 -15   12.83    1.69
  -3  -6 -15    1.96    0.68
  -4  -6 -15    0.35    0.41
  -4  -6 -15    0.47    0.55
  -5  -6 -15    0.18    0.42
  -6  -6 -15   -0.07    0.43
   0  -7 -15    0.09    0.61
  -1  -7 -15    1.28    0.67
  -2  -7 -15    0.92    0.58
  -3  -7 -15    1.52    0.63
  -4  -7 -15    1.16    0.43
  -4  -7 -15    1.64    0.60
  -5  -7 -15    0.57    0.42
  -1  -8 -15    0.30    0.54
  -2  -8 -15    0.65    0.52
  -3  -8 -15    0.51    0.51
  -4  -8 -15    1.27    0.51
  -5  -8 -15   -0.52    0.35
  -2  -9 -15    0.41    0.50
  -3  -9 -15    1.48    0.59
  -4  -9 -15    0.45    0.44
  -3  -4 -16    3.52    0.91
  -3  -5 -16    3.26    0.88
  -3  -6 -16    0.98    0.65
   0   0   0    0.00    0.00
;
_shelx_hkl_checksum              88124
_olex2_submission_special_instructions 'No special instructions were received'
loop_
_space_group_symop_operation_xyz
'x, y, z'
'-x, -y, -z'
loop_
_atom_site_label
_atom_site_type_symbol
_atom_site_fract_x
_atom_site_fract_y
_atom_site_fract_z
_atom_site_U_iso_or_equiv
_atom_site_adp_type
_atom_site_occupancy
_atom_site_site_symmetry_order
_atom_site_calc_flag
_atom_site_refinement_flags_posn
O1 O 0.1810(4) 0.2280(2) 0.7862(2) 0.0381(6) Uani 1 1 d .
O2 O 0.2493(4) 0.1056(3) 0.5296(2) 0.0422(7) Uani 1 1 d .
O3 O 0.1701(4) 0.0797(2) 1.1833(2) 0.0374(6) Uani 1 1 d .
C1 C 0.2439(5) 0.1068(3) 0.8311(3) 0.0292(7) Uani 1 1 d .
C2 C 0.2376(5) 0.0440(3) 0.9732(3) 0.0275(7) Uani 1 1 d .
C3 C 0.2713(5) -0.0932(3) 1.0398(3) 0.0304(7) Uani 1 1 d .
H3 H 0.2561 -0.1115 1.1314 0.036 Uiso 1 1 calc R
C4 C 0.3243(5) -0.2152(3) 1.0022(3) 0.0303(7) Uani 1 1 d .
C5 C 0.3688(5) -0.2195(3) 0.8758(3) 0.0319(8) Uani 1 1 d .
H5 H 0.4016 -0.3089 0.8666 0.038 Uiso 1 1 calc R
C6 C 0.3716(5) -0.1069(4) 0.7582(3) 0.0323(8) Uani 1 1 d .
H6 H 0.4118 -0.1312 0.6797 0.039 Uiso 1 1 calc R
C7 C 0.3265(5) 0.0307(3) 0.7379(3) 0.0283(7) Uani 1 1 d .
C8 C 0.3522(5) 0.1237(3) 0.5941(3) 0.0317(8) Uani 1 1 d .
C9 C 0.5120(5) 0.2321(3) 0.5356(3) 0.0309(8) Uani 1 1 d .
C10 C 0.6817(5) 0.2170(4) 0.5839(3) 0.0356(8) Uani 1 1 d .
H10 H 0.6940 0.1373 0.6575 0.043 Uiso 1 1 calc R
C11 C 0.8330(6) 0.3168(4) 0.5258(3) 0.0378(8) Uani 1 1 d .
H11 H 0.9486 0.3049 0.5590 0.045 Uiso 1 1 calc R
C12 C 0.8143(6) 0.4340(4) 0.4189(3) 0.0396(9) Uani 1 1 d .
H12 H 0.9158 0.5036 0.3798 0.048 Uiso 1 1 calc R
C13 C 0.6474(6) 0.4493(4) 0.3692(3) 0.0411(9) Uani 1 1 d .
H13 H 0.6352 0.5298 0.2961 0.049 Uiso 1 1 calc R
C14 C 0.4987(6) 0.3492(3) 0.4245(3) 0.0347(8) Uani 1 1 d .
H14 H 0.3875 0.3593 0.3876 0.042 Uiso 1 1 calc R
C15 C 0.3267(6) -0.3490(4) 1.1150(3) 0.0386(9) Uani 1 1 d .
H15A H 0.1876 -0.3707 1.1723 0.058 Uiso 1 1 calc GR
H15B H 0.4132 -0.3388 1.1667 0.058 Uiso 1 1 calc GR
H15C H 0.3810 -0.4249 1.0796 0.058 Uiso 1 1 calc GR
C16 C 0.1803(5) 0.1399(3) 1.0495(3) 0.0298(7) Uani 1 1 d .
C17 C 0.1351(5) 0.2784(4) 1.0231(3) 0.0347(8) Uani 1 1 d .
H17 H 0.1314 0.3448 0.9392 0.042 Uiso 1 1 calc R
C18 C 0.0945(5) 0.3053(4) 1.1447(3) 0.0391(8) Uani 1 1 d .
H18 H 0.0591 0.3928 1.1577 0.047 Uiso 1 1 calc R
C19 C 0.1161(6) 0.1828(4) 1.2375(3) 0.0400(9) Uani 1 1 d .
H19 H 0.0962 0.1699 1.3287 0.048 Uiso 1 1 calc R
loop_
_atom_site_aniso_label
_atom_site_aniso_U_11
_atom_site_aniso_U_22
_atom_site_aniso_U_33
_atom_site_aniso_U_23
_atom_site_aniso_U_13
_atom_site_aniso_U_12
O1 0.0494(15) 0.0317(14) 0.0220(11) -0.0022(9) -0.0042(11) 0.0055(11)
O2 0.0527(16) 0.0485(16) 0.0213(12) -0.0043(10) -0.0118(11) -0.0043(12)
O3 0.0464(15) 0.0414(15) 0.0203(11) -0.0081(10) -0.0065(10) 0.0003(11)
C1 0.0276(17) 0.0297(18) 0.0235(16) -0.0029(13) -0.0038(13) -0.0020(14)
C2 0.0239(16) 0.0316(18) 0.0199(15) -0.0030(13) -0.0025(12) -0.0006(13)
C3 0.0289(17) 0.0367(19) 0.0186(15) -0.0022(13) -0.0045(13) -0.0022(14)
C4 0.0272(17) 0.0311(18) 0.0244(16) -0.0029(13) -0.0034(13) -0.0001(13)
C5 0.0356(19) 0.0262(17) 0.0258(16) -0.0028(13) -0.0046(14) 0.0010(14)
C6 0.0339(18) 0.036(2) 0.0203(15) -0.0069(13) -0.0001(14) -0.0010(15)
C7 0.0289(17) 0.0327(18) 0.0179(15) -0.0026(12) -0.0044(13) -0.0030(14)
C8 0.0377(19) 0.0340(19) 0.0206(16) -0.0091(14) -0.0066(14) 0.0057(15)
C9 0.043(2) 0.0289(18) 0.0149(14) -0.0060(12) -0.0024(14) 0.0030(15)
C10 0.048(2) 0.0336(19) 0.0203(15) -0.0041(13) -0.0086(15) 0.0011(16)
C11 0.0375(19) 0.040(2) 0.0300(18) -0.0103(15) -0.0023(15) -0.0014(16)
C12 0.048(2) 0.034(2) 0.0274(17) -0.0083(14) 0.0029(16) -0.0069(16)
C13 0.059(2) 0.033(2) 0.0194(16) -0.0017(14) -0.0025(16) -0.0006(17)
C14 0.046(2) 0.0331(19) 0.0193(15) -0.0050(13) -0.0077(14) 0.0072(16)
C15 0.045(2) 0.032(2) 0.0288(17) -0.0029(14) -0.0065(16) 0.0027(16)
C16 0.0287(17) 0.0380(19) 0.0178(14) -0.0026(13) -0.0072(13) -0.0016(14)
C17 0.0361(19) 0.036(2) 0.0256(16) -0.0060(14) -0.0046(15) 0.0003(15)
C18 0.040(2) 0.041(2) 0.0363(19) -0.0164(16) -0.0065(16) 0.0009(16)
C19 0.044(2) 0.050(2) 0.0261(17) -0.0174(16) -0.0035(16) -0.0005(17)
loop_
_atom_type_symbol
_atom_type_description
_atom_type_scat_dispersion_real
_atom_type_scat_dispersion_imag
_atom_type_scat_source
C C 0.0033 0.0016 'International Tables Vol C Tables 4.2.6.8 and 6.1.1.4'
H H 0.0000 0.0000 'International Tables Vol C Tables 4.2.6.8 and 6.1.1.4'
O O 0.0106 0.0060 'International Tables Vol C Tables 4.2.6.8 and 6.1.1.4'
loop_
_geom_angle_atom_site_label_1
_geom_angle_atom_site_label_2
_geom_angle_atom_site_label_3
_geom_angle
C19 O3 C16 107.0(3)
O1 C1 C2 120.7(3)
O1 C1 C7 117.4(3)
C7 C1 C2 121.9(3)
C3 C2 C1 126.8(3)
C3 C2 C16 117.8(3)
C16 C2 C1 115.4(3)
C2 C3 H3 112.9
C2 C3 C4 134.2(3)
C4 C3 H3 112.9
C3 C4 C15 115.0(3)
C5 C4 C3 126.1(3)
C5 C4 C15 119.0(3)
C4 C5 H5 116.2
C4 C5 C6 127.5(3)
C6 C5 H5 116.2
C5 C6 H6 114.6
C7 C6 C5 130.9(3)
C7 C6 H6 114.6
C1 C7 C8 112.5(3)
C6 C7 C1 131.4(3)
C6 C7 C8 116.0(3)
O2 C8 C7 120.4(3)
O2 C8 C9 122.1(3)
C9 C8 C7 117.5(3)
C10 C9 C8 121.5(3)
C10 C9 C14 118.7(3)
C14 C9 C8 119.7(3)
C9 C10 H10 119.5
C11 C10 C9 121.0(3)
C11 C10 H10 119.5
C10 C11 H11 120.2
C12 C11 C10 119.6(3)
C12 C11 H11 120.2
C11 C12 H12 120.0
C13 C12 C11 119.9(3)
C13 C12 H12 120.0
C12 C13 H13 119.6
C14 C13 C12 120.8(3)
C14 C13 H13 119.6
C9 C14 H14 120.0
C13 C14 C9 119.9(3)
C13 C14 H14 120.0
C4 C15 H15A 109.5
C4 C15 H15B 109.5
C4 C15 H15C 109.5
H15A C15 H15B 109.5
H15A C15 H15C 109.5
H15B C15 H15C 109.5
O3 C16 C2 115.1(3)
C17 C16 O3 108.6(3)
C17 C16 C2 136.3(3)
C16 C17 H17 126.4
C16 C17 C18 107.1(3)
C18 C17 H17 126.4
C17 C18 H18 126.7
C19 C18 C17 106.6(3)
C19 C18 H18 126.7
O3 C19 H19 124.7
C18 C19 O3 110.7(3)
C18 C19 H19 124.7
loop_
_geom_bond_atom_site_label_1
_geom_bond_atom_site_label_2
_geom_bond_distance
O1 C1 1.241(4)
O2 C8 1.218(4)
O3 C16 1.386(4)
O3 C19 1.358(4)
C1 C2 1.478(4)
C1 C7 1.461(4)
C2 C3 1.366(4)
C2 C16 1.466(4)
C3 H3 0.9500
C3 C4 1.429(5)
C4 C5 1.371(4)
C4 C15 1.502(5)
C5 H5 0.9500
C5 C6 1.408(4)
C6 H6 0.9500
C6 C7 1.357(5)
C7 C8 1.521(4)
C8 C9 1.489(5)
C9 C10 1.394(5)
C9 C14 1.406(4)
C10 H10 0.9500
C10 C11 1.390(5)
C11 H11 0.9500
C11 C12 1.388(5)
C12 H12 0.9500
C12 C13 1.385(5)
C13 H13 0.9500
C13 C14 1.381(5)
C14 H14 0.9500
C15 H15A 0.9800
C15 H15B 0.9800
C15 H15C 0.9800
C16 C17 1.359(5)
C17 H17 0.9500
C17 C18 1.424(5)
C18 H18 0.9500
C18 C19 1.342(5)
C19 H19 0.9500
loop_
_geom_torsion_atom_site_label_1
_geom_torsion_atom_site_label_2
_geom_torsion_atom_site_label_3
_geom_torsion_atom_site_label_4
_geom_torsion
O1 C1 C2 C3 169.1(3)
O1 C1 C2 C16 -8.1(4)
O1 C1 C7 C6 -166.4(3)
O1 C1 C7 C8 9.3(4)
O2 C8 C9 C10 -152.2(3)
O2 C8 C9 C14 24.3(5)
O3 C16 C17 C18 -0.3(4)
C1 C2 C3 C4 1.5(6)
C1 C2 C16 O3 178.6(3)
C1 C2 C16 C17 -2.6(5)
C1 C7 C8 O2 -113.7(3)
C1 C7 C8 C9 68.6(4)
C2 C1 C7 C6 14.5(5)
C2 C1 C7 C8 -169.8(3)
C2 C3 C4 C5 4.5(6)
C2 C3 C4 C15 -174.6(3)
C2 C16 C17 C18 -179.2(4)
C3 C2 C16 O3 1.1(4)
C3 C2 C16 C17 180.0(4)
C3 C4 C5 C6 -0.1(6)
C4 C5 C6 C7 -2.4(6)
C5 C6 C7 C1 -5.9(6)
C5 C6 C7 C8 178.5(3)
C6 C7 C8 O2 62.7(4)
C6 C7 C8 C9 -114.9(3)
C7 C1 C2 C3 -11.9(5)
C7 C1 C2 C16 170.9(3)
C7 C8 C9 C10 25.5(4)
C7 C8 C9 C14 -158.1(3)
C8 C9 C10 C11 178.0(3)
C8 C9 C14 C13 -179.4(3)
C9 C10 C11 C12 0.6(5)
C10 C9 C14 C13 -2.9(5)
C10 C11 C12 C13 -1.3(5)
C11 C12 C13 C14 -0.1(5)
C12 C13 C14 C9 2.2(5)
C14 C9 C10 C11 1.5(5)
C15 C4 C5 C6 179.0(3)
C16 O3 C19 C18 -0.9(4)
C16 C2 C3 C4 178.7(3)
C16 C17 C18 C19 -0.3(4)
C17 C18 C19 O3 0.7(4)
C19 O3 C16 C2 179.9(3)
C19 O3 C16 C17 0.7(4)
