#------------------------------------------------------------------------------
#$Date: 2019-11-24 19:28:11 +0200 (Sun, 24 Nov 2019) $
#$Revision: 239162 $
#$URL: file:///home/coder/svn-repositories/cod/cif/1/55/58/1555834.cif $
#------------------------------------------------------------------------------
#
# This file is available in the Crystallography Open Database (COD),
# http://www.crystallography.net/
#
# All data on this site have been placed in the public domain by the
# contributors.
#
data_1555834
loop_
_publ_author_name
'Dwight, Stephen J.'
'Levin, Sergiy'
_publ_section_title
;
 Scalable Regioselective Synthesis of Rhodamine Dyes.
;
_journal_issue                   20
_journal_name_full               'Organic letters'
_journal_page_first              5316
_journal_page_last               5319
_journal_paper_doi               10.1021/acs.orglett.6b02635
_journal_volume                  18
_journal_year                    2016
_chemical_formula_moiety         'C9 H6 O5'
_chemical_formula_sum            'C9 H6 O5'
_chemical_formula_weight         194.14
_space_group_crystal_system      monoclinic
_space_group_IT_number           7
_space_group_name_Hall           'P -2yc'
_space_group_name_H-M_alt        'P 1 c 1'
_atom_sites_solution_hydrogens   mixed
_atom_sites_solution_primary     direct
_audit_creation_date             2015-05-06
_audit_creation_method
;
Olex2 1.2
(compiled 2015.01.26 svn.r3150 for OlexSys, GUI svn.r4998)
;
_cell_angle_alpha                90
_cell_angle_beta                 91.943(2)
_cell_angle_gamma                90
_cell_formula_units_Z            4
_cell_length_a                   7.26017(16)
_cell_length_b                   9.48057(19)
_cell_length_c                   11.4368(3)
_cell_measurement_reflns_used    4268
_cell_measurement_temperature    100.05(10)
_cell_measurement_theta_max      74.8930
_cell_measurement_theta_min      6.0090
_cell_volume                     786.75(3)
_computing_cell_refinement
;
CrysAlisPro, Agilent Technologies,
Version 1.171.37.35 (release 13-08-2014 CrysAlis171 .NET)
(compiled Aug 13 2014,18:06:01)
;
_computing_data_collection
;
CrysAlisPro, Agilent Technologies,
Version 1.171.37.35 (release 13-08-2014 CrysAlis171 .NET)
(compiled Aug 13 2014,18:06:01)
;
_computing_data_reduction
;
CrysAlisPro, Agilent Technologies,
Version 1.171.37.35 (release 13-08-2014 CrysAlis171 .NET)
(compiled Aug 13 2014,18:06:01)
;
_computing_molecular_graphics    'Olex2 (Dolomanov et al., 2009)'
_computing_publication_material  'Olex2 (Dolomanov et al., 2009)'
_computing_structure_refinement  'ShelXL (Sheldrick, 2008)'
_computing_structure_solution    'ShelXS (Sheldrick, 2008)'
_diffrn_ambient_environment      N~2~
_diffrn_ambient_temperature      100.05(10)
_diffrn_detector                 'CCD plate'
_diffrn_detector_area_resol_mean 4.1587
_diffrn_detector_type            Onyx
_diffrn_measured_fraction_theta_full 0.996
_diffrn_measured_fraction_theta_max 0.994
_diffrn_measurement_details
;
#__ type_ start__ end____ width___ exp.time_
  1 omega  -91.00   -8.00   1.0000    1.0000
omega____ theta____ kappa____ phi______ frames
    -      -41.9419  125.0000  -30.0000 83

#__ type_ start__ end____ width___ exp.time_
  2 omega   78.00  119.00   1.0000    1.0000
omega____ theta____ kappa____ phi______ frames
    -       41.9419  125.0000   90.0000 41

#__ type_ start__ end____ width___ exp.time_
  3 omega   59.00  171.00   1.0000    3.0000
omega____ theta____ kappa____ phi______ frames
    -      107.0000   15.0000   60.0000 112

#__ type_ start__ end____ width___ exp.time_
  4 omega   89.00  178.00   1.0000    3.0000
omega____ theta____ kappa____ phi______ frames
    -      107.0000  111.0000 -120.0000 89

#__ type_ start__ end____ width___ exp.time_
  5 omega  144.00  172.00   1.0000    3.0000
omega____ theta____ kappa____ phi______ frames
    -      107.0000  111.0000 -150.0000 28

#__ type_ start__ end____ width___ exp.time_
  6 omega   82.00  168.00   1.0000    3.0000
omega____ theta____ kappa____ phi______ frames
    -      107.0000   45.0000 -150.0000 86

#__ type_ start__ end____ width___ exp.time_
  7 omega   81.00  129.00   1.0000    3.0000
omega____ theta____ kappa____ phi______ frames
    -      107.0000  111.0000 -150.0000 48

#__ type_ start__ end____ width___ exp.time_
  8 omega   31.00   69.00   1.0000    3.0000
omega____ theta____ kappa____ phi______ frames
    -      107.0000  -30.0000 -180.0000 38

#__ type_ start__ end____ width___ exp.time_
  9 omega   27.00   61.00   1.0000    3.0000
omega____ theta____ kappa____ phi______ frames
    -      107.0000 -111.0000 -120.0000 34

#__ type_ start__ end____ width___ exp.time_
 10 omega   80.00  112.00   1.0000    3.0000
omega____ theta____ kappa____ phi______ frames
    -      107.0000 -111.0000 -120.0000 32

#__ type_ start__ end____ width___ exp.time_
 11 omega   69.00  106.00   1.0000    3.0000
omega____ theta____ kappa____ phi______ frames
    -      107.0000 -111.0000 -180.0000 37

#__ type_ start__ end____ width___ exp.time_
 12 omega   29.00   95.00   1.0000    3.0000
omega____ theta____ kappa____ phi______ frames
    -      107.0000 -111.0000  -30.0000 66

#__ type_ start__ end____ width___ exp.time_
 13 omega   79.00   92.00   1.0000    3.0000
omega____ theta____ kappa____ phi______ frames
    -      107.0000 -111.0000    0.0000 13

#__ type_ start__ end____ width___ exp.time_
 14 omega   65.00  105.00   1.0000    3.0000
omega____ theta____ kappa____ phi______ frames
    -      107.0000 -118.0000   48.0000 40

#__ type_ start__ end____ width___ exp.time_
 15 omega   45.00   75.00   1.0000    3.0000
omega____ theta____ kappa____ phi______ frames
    -      107.0000 -111.0000    0.0000 30

#__ type_ start__ end____ width___ exp.time_
 16 omega   29.00  107.00   1.0000    3.0000
omega____ theta____ kappa____ phi______ frames
    -      107.0000  -94.0000   60.0000 78

#__ type_ start__ end____ width___ exp.time_
 17 omega   39.00  127.00   1.0000    3.0000
omega____ theta____ kappa____ phi______ frames
    -      107.0000  -61.0000  120.0000 88

#__ type_ start__ end____ width___ exp.time_
 18 omega   31.00   57.00   1.0000    3.0000
omega____ theta____ kappa____ phi______ frames
    -      107.0000  -30.0000   30.0000 26

#__ type_ start__ end____ width___ exp.time_
 19 omega   34.00   76.00   1.0000    3.0000
omega____ theta____ kappa____ phi______ frames
    -      107.0000  -45.0000  -30.0000 42

#__ type_ start__ end____ width___ exp.time_
 20 omega   28.00   99.00   1.0000    3.0000
omega____ theta____ kappa____ phi______ frames
    -      107.0000 -111.0000  -60.0000 71

#__ type_ start__ end____ width___ exp.time_
 21 omega   29.00   61.00   1.0000    3.0000
omega____ theta____ kappa____ phi______ frames
    -      107.0000 -111.0000 -180.0000 32

#__ type_ start__ end____ width___ exp.time_
 22 omega -113.00  -16.00   1.0000    1.0000
omega____ theta____ kappa____ phi______ frames
    -      -41.9419  -57.0000  120.0000 97

#__ type_ start__ end____ width___ exp.time_
 23 omega -119.00  -10.00   1.0000    1.0000
omega____ theta____ kappa____ phi______ frames
    -      -41.9419  -77.0000 -120.0000 109
;
_diffrn_measurement_device       'four-circle diffractometer'
_diffrn_measurement_device_type  'Xcalibur, Onyx, Nova'
_diffrn_measurement_method       '\w scans'
_diffrn_orient_matrix_UB_11      0.0894963000
_diffrn_orient_matrix_UB_12      -0.0059502000
_diffrn_orient_matrix_UB_13      0.1239961000
_diffrn_orient_matrix_UB_21      -0.0221946000
_diffrn_orient_matrix_UB_22      0.1609562000
_diffrn_orient_matrix_UB_23      0.0113872000
_diffrn_orient_matrix_UB_31      -0.1912862000
_diffrn_orient_matrix_UB_32      -0.0213953000
_diffrn_orient_matrix_UB_33      0.0515650000
_diffrn_radiation_monochromator  mirror
_diffrn_radiation_probe          x-ray
_diffrn_radiation_type           CuK\a
_diffrn_radiation_wavelength     1.54184
_diffrn_reflns_av_R_equivalents  0.0471
_diffrn_reflns_av_unetI/netI     0.0470
_diffrn_reflns_Laue_measured_fraction_full 0.996
_diffrn_reflns_Laue_measured_fraction_max 0.994
_diffrn_reflns_limit_h_max       8
_diffrn_reflns_limit_h_min       -9
_diffrn_reflns_limit_k_max       11
_diffrn_reflns_limit_k_min       -11
_diffrn_reflns_limit_l_max       14
_diffrn_reflns_limit_l_min       -14
_diffrn_reflns_number            6659
_diffrn_reflns_point_group_measured_fraction_full 0.742
_diffrn_reflns_point_group_measured_fraction_max 0.730
_diffrn_reflns_theta_full        67.684
_diffrn_reflns_theta_max         74.704
_diffrn_reflns_theta_min         4.664
_diffrn_source                   'sealed X-ray tube'
_diffrn_source_type              'Nova (Cu) X-ray Source'
_exptl_absorpt_coefficient_mu    1.186
_exptl_absorpt_correction_T_max  0.939
_exptl_absorpt_correction_T_min  0.875
_exptl_absorpt_correction_type   analytical
_exptl_absorpt_process_details
;
CrysAlisPro, Agilent Technologies,
Version 1.171.37.35 (release 13-08-2014 CrysAlis171 .NET)
(compiled Aug 13 2014,18:06:01)
Analytical numeric absorption correction using a multifaceted crystal
			model based on expressions derived by R.C. Clark & J.S. Reid.
(Clark, R. C. & Reid, J. S. (1995). Acta Cryst. A51, 887-897)
Empirical absorption correction using spherical harmonics,
 implemented in SCALE3 ABSPACK scaling algorithm.
;
_exptl_crystal_colour            colourless
_exptl_crystal_colour_primary    colourless
_exptl_crystal_density_diffrn    1.639
_exptl_crystal_description       'rect. Prism'
_exptl_crystal_F_000             400
_exptl_crystal_recrystallization_method
'Crystals grown from ethylacetate/heptane'
_exptl_crystal_size_max          0.1455
_exptl_crystal_size_mid          0.0751
_exptl_crystal_size_min          0.0618
_refine_diff_density_max         0.241
_refine_diff_density_min         -0.277
_refine_diff_density_rms         0.048
_refine_ls_abs_structure_details
;
 Classical Flack method preferred over Parsons because s.u. lower.
;
_refine_ls_abs_structure_Flack   0.0(3)
_refine_ls_extinction_method     none
_refine_ls_goodness_of_fit_ref   1.037
_refine_ls_hydrogen_treatment    mixed
_refine_ls_matrix_type           full
_refine_ls_number_parameters     285
_refine_ls_number_reflns         2356
_refine_ls_number_restraints     16
_refine_ls_restrained_S_all      1.034
_refine_ls_R_factor_all          0.0415
_refine_ls_R_factor_gt           0.0385
_refine_ls_shift/su_max          0.000
_refine_ls_shift/su_mean         0.000
_refine_ls_structure_factor_coef Fsqd
_refine_ls_weighting_details
'w=1/[\s^2^(Fo^2^)+(0.0613P)^2^+0.1326P] where P=(Fo^2^+2Fc^2^)/3'
_refine_ls_weighting_scheme      calc
_refine_ls_wR_factor_gt          0.1005
_refine_ls_wR_factor_ref         0.1035
_reflns_Friedel_coverage         0.462
_reflns_Friedel_fraction_full    0.487
_reflns_Friedel_fraction_max     0.463
_reflns_number_gt                2227
_reflns_number_total             2356
_reflns_threshold_expression     'I > 2\s(I)'
_iucr_refine_instructions_details
;

    cs2179.res created by SHELXL-2014/7

TITL cs2179 in Pc #7
REM reset to Pc #7
REM DFIX 2.1 0.04 H8B O4_$3
CELL 1.54184 7.260166 9.480571 11.436809 90 91.9431 90
ZERR 4 0.000155 0.000194 0.0003 0 0.0021 0
LATT -1
SYMM +X,-Y,0.5+Z
SFAC C H O
UNIT 36 24 20
EQIV $1 +X,-Y,0.5+Z
EQIV $2 +X,3-Y,-0.5+Z
EQIV $3 -1+X,2-Y,-0.5+Z
DFIX 0.84 O4 H4A H10B O10 O9 H9A H5B O5 O8A H8A O8B H8B O3 H3
DFIX 1.79 0.04 O10 H4A O4 H10B H8A O6_$2
DFIX 1.83 0.04 O5 H9A O9 H5B H3 O1_$1
DFIX 2.5 0.04 H8B O4_$3
 
L.S. 4 0 0
PLAN  5
TEMP -173
HTAB O3 O1_$1
HTAB O4 O10
HTAB O5 O9
HTAB O8A O6_$2
HTAB O8B O4_$3
HTAB O9 O5
HTAB O10 O4
BOND
MORE -1
BOND $H
CONF
fmap 2 53
acta
REM <olex2.extras>
REM <HklSrc "%.\\cs2179.hkl">
REM </olex2.extras>
 
WGHT    0.061300    0.132600
FVAR      17.36169   0.57683   0.54338
O1    3    0.694142   -0.088415    0.479801    11.00000    0.03887    0.02081 =
         0.03706   -0.00633    0.00090    0.00699
O2    3    0.704279    0.031609    0.647638    11.00000    0.03127    0.02019 =
         0.03158   -0.00180   -0.00277    0.00455
O3    3    0.526934    0.161027    0.775711    11.00000    0.03514    0.03017 =
         0.02924    0.00308    0.00574    0.00377
H3    2    0.578497    0.149990    0.844222    11.00000   -1.50000
O4    3    0.383989    0.649219    0.531448    11.00000    0.10111    0.02485 =
         0.03910   -0.00552   -0.00804    0.02553
PART 1
H4A   2    0.309509    0.717984    0.521329    31.00000   -1.50000
PART 0
O5    3    0.275429    0.594172    0.351553    11.00000    0.03688    0.02114 =
         0.04320    0.00767   -0.00555    0.00263
PART 2
H5B   2    0.243629    0.679920    0.354562   -31.00000   -1.50000
PART 0
C1    1    0.580020    0.153961    0.489618    11.00000    0.02287    0.01684 =
         0.03150   -0.00144    0.00380    0.00308
C2    1    0.575328    0.244570    0.584069    11.00000    0.02161    0.02075 =
         0.02685   -0.00091    0.00262   -0.00135
C3    1    0.506704    0.379835    0.571819    11.00000    0.02301    0.01793 =
         0.03063   -0.00354    0.00379   -0.00177
AFIX  43
H1    2    0.504867    0.442804    0.636384    11.00000   -1.20000
AFIX   0
C4    1    0.440145    0.420481    0.460931    11.00000    0.02423    0.01986 =
         0.02909    0.00235    0.00421   -0.00253
C5    1    0.445629    0.328382    0.364534    11.00000    0.02883    0.02351 =
         0.02798    0.00259    0.00225    0.00040
AFIX  43
H5    2    0.400980    0.358775    0.289664    11.00000   -1.20000
AFIX   0
C6    1    0.516158    0.193370    0.378837    11.00000    0.02772    0.02246 =
         0.02481   -0.00207    0.00436   -0.00124
AFIX  43
H6    2    0.520568    0.129884    0.314726    11.00000   -1.20000
AFIX   0
C7    1    0.660697    0.018515    0.532652    11.00000    0.02330    0.01799 =
         0.03445   -0.00117    0.00244    0.00088
C8    1    0.654248    0.172970    0.691698    11.00000    0.02667    0.01814 =
         0.03264   -0.00160    0.00133    0.00326
AFIX  13
H8    2    0.766085    0.224105    0.722635    11.00000   -1.20000
AFIX   0
C9    1    0.361406    0.564149    0.446998    11.00000    0.02948    0.02046 =
         0.03245    0.00219    0.00144   -0.00204
 
O6    3   -0.156987    1.595597    0.408654    11.00000    0.03880    0.02211 =
         0.05136    0.00040    0.01033    0.00580
O7    3   -0.161262    1.483080    0.237844    11.00000    0.04724    0.02923 =
         0.03419    0.00621    0.00420    0.01652
PART 1
O8A   3    0.002790    1.346545    0.106736    21.00000    0.03145    0.02996 =
         0.03304    0.01161    0.00683    0.00159
H8A   2   -0.042946    1.381644    0.045458    21.00000   -1.50000
PART 0
PART 2
O8B   3   -0.260155    1.296428    0.146565   -21.00000    0.03436    0.02710 =
         0.02950    0.00212   -0.00509    0.00090
H8B   2   -0.276035    1.303629    0.072710   -21.00000   -1.50000
PART 0
O9    3    0.123136    0.850460    0.344315    11.00000    0.03249    0.01987 =
         0.04357   -0.00286    0.00122    0.00018
PART 1
H9A   2    0.163349    0.768855    0.355928    31.00000   -1.50000
PART 0
O10   3    0.240367    0.904154    0.522199    11.00000    0.05603    0.02284 =
         0.04245    0.00267   -0.01194    0.00972
PART 2
H10B  2    0.282639    0.822111    0.513100   -31.00000   -1.50000
PART 0
C10   1   -0.048469    1.352702    0.393598    11.00000    0.02273    0.02248 =
         0.02818    0.00402    0.00550   -0.00002
C11   1   -0.046020    1.264899    0.297662    11.00000    0.02489    0.02452 =
         0.02866    0.00586    0.00231    0.00407
C12   1    0.018741    1.127797    0.306509    11.00000    0.02252    0.02293 =
         0.02574    0.00191    0.00144    0.00222
AFIX  43
H12   2    0.020987    1.067776    0.240057    11.00000   -1.20000
AFIX   0
C13   1    0.080354    1.081281    0.416303    11.00000    0.02192    0.01628 =
         0.03366    0.00163    0.00448    0.00203
C14   1    0.079540    1.170662    0.514383    11.00000    0.02527    0.02234 =
         0.02441    0.00453    0.00412   -0.00118
AFIX  43
H14   2    0.124256    1.136732    0.588174    11.00000   -1.20000
AFIX   0
C15   1    0.013691    1.308903    0.504597    11.00000    0.02581    0.02174 =
         0.02907    0.00000    0.00404   -0.00136
AFIX  43
H15   2    0.011365    1.370075    0.570321    11.00000   -1.20000
AFIX   0
C16   1   -0.126146    1.490369    0.354066    11.00000    0.03187    0.02847 =
         0.03543    0.00910    0.00680    0.00636
C17   1   -0.118400    1.341581    0.191246    11.00000    0.03486    0.03251 =
         0.02623    0.00547    0.00285    0.01285
PART 1
AFIX  13
H17   2   -0.234425    1.295416    0.161141    21.00000   -1.20000
AFIX  13
PART 0
PART 2
H17A  2   -0.020898    1.348520    0.131818   -21.00000   -1.20000
AFIX   0
PART 0
C18   1    0.152664    0.933863    0.427326    11.00000    0.02668    0.02015 =
         0.02845    0.00216    0.00441    0.00187
HKLF 4
 
REM  cs2179 in Pc #7
REM R1 =  0.0385 for    2227 Fo > 4sig(Fo)  and  0.0415 for all    2356 data
REM    285 parameters refined using     16 restraints
 
END  
     
WGHT      0.0613      0.1326 

REM Highest difference peak  0.241,  deepest hole -0.277,  1-sigma level  0.048
Q1    1   0.2929  0.6239  0.5404  11.00000  0.05    0.24
Q2    1   0.6122  0.0826  0.5004  11.00000  0.05    0.23
Q3    1   0.1189  1.0163  0.4206  11.00000  0.05    0.23
Q4    1   0.4068  0.4859  0.4575  11.00000  0.05    0.21
Q5    1  -0.0729  1.4250  0.3844  11.00000  0.05    0.20

REM The information below was added by Olex2.
REM
REM R1 = 0.0385 for 2227 Fo > 4sig(Fo) and 0.0415 for all 6888 data
REM n/a parameters refined using n/a restraints
REM Highest difference peak 0.24, deepest hole -0.28
REM Mean Shift 0, Max Shift 0.000.

REM +++ Tabular Listing of Refinement Information +++
REM R1_all = 0.0415
REM R1_gt = 0.0385
REM wR_ref = 0.1035
REM GOOF = 1.037
REM Shift_max = 0.000
REM Shift_mean = 0
REM Reflections_all = 6888
REM Reflections_gt = 2227
REM Parameters = n/a
REM Hole = -0.28
REM Peak = 0.24
REM Flack = -0.0(3)

;
_cod_data_source_file            ol6b02635_si_004.cif
_cod_data_source_block           cs2179
_cod_database_code               1555834
_chemical_oxdiff_formula         'C9 H6 O5'
_chemical_oxdiff_usercomment     'Laurent Bernad (Promega sample 48569)'
_shelx_space_group_comment
;
The symmetry employed for this shelxl refinement is uniquely defined
by the following loop, which should always be used as a source of
symmetry information in preference to the above space-group names.
They are only intended as comments.
;
_reflns_odcompleteness_completeness 99.60
_reflns_odcompleteness_iscentric 1
_reflns_odcompleteness_theta     66.97
_olex2_refinement_description
;
1. Fixed Uiso
 At 1.2 times of:
  All C(H) groups, All C(H,H) groups
 At 1.5 times of:
  All O(H) groups
2. Restrained distances
 O4-H4A = H10B-O10 = O9-H9A = H5B-O5 = O8A-H8A = O8B-H8B = O3-H3
 0.84 with sigma of 0.02
 O10-H4A = O4-H10B = H8A-O6_$2
 1.79 with sigma of 0.04
 O5-H9A = O9-H5B = H3-O1_$1
 1.83 with sigma of 0.04
 H8B-O4_$3
 2.5 with sigma of 0.04
3. Others
 Sof(O8B)=Sof(H8B)=Sof(H17A)=1-FVAR(1)
 Sof(O8A)=Sof(H8A)=Sof(H17)=FVAR(1)
 Sof(H5B)=Sof(H10B)=1-FVAR(2)
 Sof(H4A)=Sof(H9A)=FVAR(2)
4.a Ternary CH refined with riding coordinates:
 C8(H8), C17(H17), C17(H17A)
4.b Aromatic/amide H refined with riding coordinates:
 C3(H1), C5(H5), C6(H6), C12(H12), C14(H14), C15(H15)
;
_shelx_shelxl_version_number     2014/7
_olex2_date_sample_data_collection 2015-04-29
_olex2_date_sample_submission    2015-04-28
_olex2_exptl_crystal_mounting_method 'Cryoloop with Krytox oil'
_olex2_submission_original_sample_id 'Promega 48569'
_olex2_submission_special_instructions 'No special instructions were received'
loop_
_space_group_symop_operation_xyz
'x, y, z'
'x, -y, z+1/2'
loop_
_atom_site_label
_atom_site_type_symbol
_atom_site_fract_x
_atom_site_fract_y
_atom_site_fract_z
_atom_site_U_iso_or_equiv
_atom_site_adp_type
_atom_site_occupancy
_atom_site_site_symmetry_order
_atom_site_calc_flag
_atom_site_refinement_flags_posn
_atom_site_refinement_flags_occupancy
_atom_site_disorder_assembly
_atom_site_disorder_group
O1 O 0.6941(4) -0.0884(3) 0.4798(3) 0.0323(6) Uani 1 1 d D . . .
O2 O 0.7043(4) 0.0316(2) 0.6476(2) 0.0278(5) Uani 1 1 d . . . .
O3 O 0.5269(4) 0.1610(3) 0.7757(2) 0.0314(6) Uani 1 1 d D . . .
H3 H 0.578(7) 0.150(5) 0.844(3) 0.047 Uiso 1 1 d DR . . .
O4 O 0.3840(6) 0.6492(3) 0.5314(3) 0.0553(10) Uani 1 1 d D . . .
H4A H 0.310(11) 0.718(6) 0.521(12) 0.083 Uiso 0.54(5) 1 d DR P A 1
O5 O 0.2754(4) 0.5942(3) 0.3516(3) 0.0339(7) Uani 1 1 d D . . .
H5B H 0.244(16) 0.680(5) 0.355(11) 0.051 Uiso 0.46(5) 1 d DR P A 2
C1 C 0.5800(4) 0.1540(3) 0.4896(3) 0.0237(7) Uani 1 1 d . . . .
C2 C 0.5753(4) 0.2446(4) 0.5841(3) 0.0230(7) Uani 1 1 d . . . .
C3 C 0.5067(5) 0.3798(4) 0.5718(3) 0.0238(7) Uani 1 1 d . . . .
H1 H 0.5049 0.4428 0.6364 0.029 Uiso 1 1 calc R . . .
C4 C 0.4401(5) 0.4205(4) 0.4609(3) 0.0243(7) Uani 1 1 d . . . .
C5 C 0.4456(5) 0.3284(4) 0.3645(3) 0.0267(8) Uani 1 1 d . . . .
H5 H 0.4010 0.3588 0.2897 0.032 Uiso 1 1 calc R . . .
C6 C 0.5162(5) 0.1934(4) 0.3788(3) 0.0249(7) Uani 1 1 d . . . .
H6 H 0.5206 0.1299 0.3147 0.030 Uiso 1 1 calc R . . .
C7 C 0.6607(5) 0.0185(4) 0.5327(4) 0.0252(7) Uani 1 1 d . . . .
C8 C 0.6542(5) 0.1730(3) 0.6917(4) 0.0258(7) Uani 1 1 d . . . .
H8 H 0.7661 0.2241 0.7226 0.031 Uiso 1 1 calc R . . .
C9 C 0.3614(5) 0.5641(4) 0.4470(3) 0.0275(8) Uani 1 1 d . . . .
O6 O -0.1570(4) 1.5956(3) 0.4087(3) 0.0372(7) Uani 1 1 d D . . .
O7 O -0.1613(4) 1.4831(3) 0.2378(3) 0.0368(7) Uani 1 1 d . . . .
O8A O 0.0028(6) 1.3465(5) 0.1067(4) 0.0313(13) Uani 0.577(8) 1 d D P B 1
H8A H -0.043(13) 1.382(8) 0.045(5) 0.047 Uiso 0.577(8) 1 d DR P B 1
O8B O -0.2602(8) 1.2964(5) 0.1466(5) 0.0305(15) Uani 0.423(8) 1 d D P B 2
H8B H -0.276(7) 1.304(12) 0.073(3) 0.046 Uiso 0.423(8) 1 d DR P B 2
O9 O 0.1231(4) 0.8505(3) 0.3443(3) 0.0320(6) Uani 1 1 d D . . .
H9A H 0.163(12) 0.769(4) 0.356(9) 0.048 Uiso 0.54(5) 1 d DR P A 1
O10 O 0.2404(5) 0.9042(3) 0.5222(3) 0.0407(8) Uani 1 1 d D . . .
H10B H 0.283(19) 0.822(6) 0.513(11) 0.061 Uiso 0.46(5) 1 d DR P A 2
C10 C -0.0485(5) 1.3527(4) 0.3936(3) 0.0244(7) Uani 1 1 d . . . .
C11 C -0.0460(5) 1.2649(4) 0.2977(3) 0.0260(7) Uani 1 1 d . . . .
C12 C 0.0187(5) 1.1278(4) 0.3065(3) 0.0237(7) Uani 1 1 d . . . .
H12 H 0.0210 1.0678 0.2401 0.028 Uiso 1 1 calc R . . .
C13 C 0.0804(5) 1.0813(3) 0.4163(3) 0.0239(7) Uani 1 1 d . . . .
C14 C 0.0795(5) 1.1707(3) 0.5144(3) 0.0239(7) Uani 1 1 d . . . .
H14 H 0.1243 1.1367 0.5882 0.029 Uiso 1 1 calc R . . .
C15 C 0.0137(5) 1.3089(4) 0.5046(3) 0.0255(7) Uani 1 1 d . . . .
H15 H 0.0114 1.3701 0.5703 0.031 Uiso 1 1 calc R . . .
C16 C -0.1261(6) 1.4904(4) 0.3541(4) 0.0318(8) Uani 1 1 d . . . .
C17 C -0.1184(6) 1.3416(4) 0.1912(4) 0.0312(8) Uani 1 1 d . . . .
H17 H -0.2344 1.2954 0.1611 0.037 Uiso 0.577(8) 1 calc R P B 1
H17A H -0.0209 1.3485 0.1318 0.037 Uiso 0.423(8) 1 calc R P B 2
C18 C 0.1527(5) 0.9339(4) 0.4273(3) 0.0250(7) Uani 1 1 d . . . .
loop_
_atom_site_aniso_label
_atom_site_aniso_U_11
_atom_site_aniso_U_22
_atom_site_aniso_U_33
_atom_site_aniso_U_23
_atom_site_aniso_U_13
_atom_site_aniso_U_12
O1 0.0389(15) 0.0208(12) 0.0371(15) -0.0063(10) 0.0009(11) 0.0070(10)
O2 0.0313(12) 0.0202(10) 0.0316(13) -0.0018(10) -0.0028(10) 0.0046(10)
O3 0.0351(15) 0.0302(12) 0.0292(15) 0.0031(11) 0.0057(11) 0.0038(11)
O4 0.101(3) 0.0249(13) 0.0391(18) -0.0055(12) -0.0080(17) 0.0255(15)
O5 0.0369(14) 0.0211(12) 0.0432(17) 0.0077(10) -0.0056(12) 0.0026(10)
C1 0.0229(15) 0.0168(14) 0.032(2) -0.0014(13) 0.0038(14) 0.0031(13)
C2 0.0216(15) 0.0207(15) 0.0269(19) -0.0009(12) 0.0026(12) -0.0014(12)
C3 0.0230(15) 0.0179(14) 0.0306(19) -0.0035(12) 0.0038(13) -0.0018(12)
C4 0.0242(16) 0.0199(14) 0.0291(19) 0.0023(12) 0.0042(13) -0.0025(12)
C5 0.0288(17) 0.0235(15) 0.028(2) 0.0026(13) 0.0023(14) 0.0004(13)
C6 0.0277(17) 0.0225(15) 0.0248(18) -0.0021(13) 0.0044(14) -0.0012(13)
C7 0.0233(16) 0.0180(13) 0.0345(18) -0.0012(13) 0.0024(13) 0.0009(12)
C8 0.0267(16) 0.0181(14) 0.0326(18) -0.0016(13) 0.0013(13) 0.0033(12)
C9 0.0295(17) 0.0205(14) 0.032(2) 0.0022(13) 0.0014(14) -0.0020(13)
O6 0.0388(16) 0.0221(12) 0.0514(19) 0.0004(11) 0.0103(13) 0.0058(10)
O7 0.0472(16) 0.0292(13) 0.0342(15) 0.0062(11) 0.0042(12) 0.0165(12)
O8A 0.031(3) 0.030(2) 0.033(3) 0.0116(19) 0.0068(19) 0.0016(18)
O8B 0.034(3) 0.027(2) 0.029(3) 0.002(2) -0.005(2) 0.001(2)
O9 0.0325(12) 0.0199(11) 0.0436(17) -0.0029(10) 0.0012(11) 0.0002(10)
O10 0.0560(18) 0.0228(13) 0.0425(18) 0.0027(11) -0.0119(14) 0.0097(12)
C10 0.0227(15) 0.0225(14) 0.0282(19) 0.0040(13) 0.0055(14) 0.0000(13)
C11 0.0249(16) 0.0245(15) 0.0287(19) 0.0059(13) 0.0023(13) 0.0041(13)
C12 0.0225(15) 0.0229(15) 0.0257(18) 0.0019(13) 0.0014(13) 0.0022(12)
C13 0.0219(16) 0.0163(14) 0.034(2) 0.0016(12) 0.0045(14) 0.0020(12)
C14 0.0253(15) 0.0223(16) 0.0244(18) 0.0045(12) 0.0041(13) -0.0012(12)
C15 0.0258(16) 0.0217(15) 0.0291(19) 0.0000(14) 0.0040(14) -0.0014(13)
C16 0.0319(19) 0.0285(16) 0.035(2) 0.0091(14) 0.0068(15) 0.0064(14)
C17 0.0349(18) 0.0325(16) 0.0262(18) 0.0055(14) 0.0028(14) 0.0129(15)
C18 0.0267(16) 0.0201(14) 0.0285(19) 0.0022(12) 0.0044(13) 0.0019(13)
loop_
_atom_type_symbol
_atom_type_description
_atom_type_scat_dispersion_real
_atom_type_scat_dispersion_imag
_atom_type_scat_source
C C 0.0181 0.0091 'International Tables Vol C Tables 4.2.6.8 and 6.1.1.4'
H H 0.0000 0.0000 'International Tables Vol C Tables 4.2.6.8 and 6.1.1.4'
O O 0.0492 0.0322 'International Tables Vol C Tables 4.2.6.8 and 6.1.1.4'
loop_
_exptl_crystal_face_index_h
_exptl_crystal_face_index_k
_exptl_crystal_face_index_l
_exptl_crystal_face_perp_dist
_exptl_oxdiff_crystal_face_indexfrac_h
_exptl_oxdiff_crystal_face_indexfrac_k
_exptl_oxdiff_crystal_face_indexfrac_l
_exptl_oxdiff_crystal_face_x
_exptl_oxdiff_crystal_face_y
_exptl_oxdiff_crystal_face_z
0 1 -1 0.0312 -0.0002 1.0004 -1.0014 -0.1301 0.1496 -0.0730
0 -1 1 0.0312 0.0002 -1.0004 1.0014 0.1301 -0.1496 0.0730
0 -1 -1 0.0309 -0.0003 -1.0015 -0.9977 -0.1178 -0.1726 -0.0300
0 1 1 0.0309 0.0003 1.0015 0.9977 0.1178 0.1726 0.0300
-1 0 0 0.0710 -0.9997 -0.0005 -0.0013 -0.0896 0.0221 0.1912
1 0 0 0.0710 0.9997 0.0005 0.0013 0.0896 -0.0221 -0.1912
loop_
_geom_angle_atom_site_label_1
_geom_angle_atom_site_label_2
_geom_angle_atom_site_label_3
_geom_angle
C7 O2 C8 111.3(3)
C8 O3 H3 112(4)
C9 O4 H4A 109(8)
C9 O5 H5B 108(8)
C2 C1 C6 122.1(3)
C2 C1 C7 107.3(3)
C6 C1 C7 130.6(3)
C1 C2 C8 109.9(3)
C3 C2 C1 121.1(3)
C3 C2 C8 129.0(3)
C2 C3 H1 121.3
C2 C3 C4 117.5(3)
C4 C3 H1 121.3
C3 C4 C5 121.5(3)
C3 C4 C9 118.1(3)
C5 C4 C9 120.4(3)
C4 C5 H5 120.0
C6 C5 C4 120.0(4)
C6 C5 H5 120.0
C1 C6 C5 117.9(3)
C1 C6 H6 121.1
C5 C6 H6 121.1
O1 C7 O2 121.4(3)
O1 C7 C1 129.9(4)
O2 C7 C1 108.7(3)
O2 C8 C2 102.8(3)
O2 C8 H8 110.7
O3 C8 O2 110.2(3)
O3 C8 C2 111.5(3)
O3 C8 H8 110.7
C2 C8 H8 110.7
O4 C9 O5 124.1(3)
O4 C9 C4 117.6(3)
O5 C9 C4 118.3(3)
C16 O7 C17 111.5(3)
C17 O8A H8A 112(7)
C17 O8B H8B 118(5)
C18 O9 H9A 115(7)
C18 O10 H10B 106(9)
C11 C10 C15 122.1(3)
C11 C10 C16 107.7(3)
C15 C10 C16 130.2(4)
C10 C11 C12 121.5(3)
C10 C11 C17 109.9(3)
C12 C11 C17 128.6(4)
C11 C12 H12 121.3
C11 C12 C13 117.5(3)
C13 C12 H12 121.3
C12 C13 C14 121.3(3)
C12 C13 C18 118.3(3)
C14 C13 C18 120.4(3)
C13 C14 H14 119.6
C15 C14 C13 120.8(3)
C15 C14 H14 119.6
C10 C15 C14 116.8(3)
C10 C15 H15 121.6
C14 C15 H15 121.6
O6 C16 O7 121.5(4)
O6 C16 C10 130.3(4)
O7 C16 C10 108.2(4)
O7 C17 C11 102.7(3)
O7 C17 H17 109.6
O7 C17 H17A 110.3
O8A C17 O7 112.5(4)
O8A C17 C11 112.7(4)
O8A C17 H17 109.6
O8B C17 O7 106.6(4)
O8B C17 C11 116.2(4)
O8B C17 H17A 110.3
C11 C17 H17 109.6
C11 C17 H17A 110.3
O9 C18 O10 125.2(3)
O9 C18 C13 118.5(3)
O10 C18 C13 116.3(3)
loop_
_geom_bond_atom_site_label_1
_geom_bond_atom_site_label_2
_geom_bond_distance
O1 C7 1.209(5)
O2 C7 1.348(5)
O2 C8 1.481(4)
O3 H3 0.86(2)
O3 C8 1.360(5)
O4 H4A 0.85(3)
O4 C9 1.265(5)
O5 H5B 0.85(2)
O5 C9 1.271(5)
C1 C2 1.381(5)
C1 C6 1.386(5)
C1 C7 1.488(5)
C2 C3 1.381(5)
C2 C8 1.502(5)
C3 H1 0.9500
C3 C4 1.396(5)
C4 C5 1.408(5)
C4 C9 1.484(5)
C5 H5 0.9500
C5 C6 1.386(5)
C6 H6 0.9500
C8 H8 1.0000
O6 C16 1.202(5)
O7 C16 1.347(6)
O7 C17 1.480(4)
O8A H8A 0.83(2)
O8A C17 1.330(7)
O8B H8B 0.85(3)
O8B C17 1.212(7)
O9 H9A 0.84(2)
O9 C18 1.248(5)
O10 H10B 0.84(2)
O10 C18 1.271(5)
C10 C11 1.378(5)
C10 C15 1.396(6)
C10 C16 1.486(5)
C11 C12 1.385(5)
C11 C17 1.498(5)
C12 H12 0.9500
C12 C13 1.390(5)
C13 C14 1.406(5)
C13 C18 1.497(4)
C14 H14 0.9500
C14 C15 1.398(5)
C15 H15 0.9500
C17 H17 1.0000
C17 H17A 1.0000
loop_
_geom_hbond_atom_site_label_D
_geom_hbond_atom_site_label_H
_geom_hbond_atom_site_label_A
_geom_hbond_distance_DH
_geom_hbond_distance_HA
_geom_hbond_distance_DA
_geom_hbond_angle_DHA
_geom_hbond_site_symmetry_A
O3 H3 O1 0.86(2) 1.83(2) 2.684(4) 168(5) 2
O4 H4A O10 0.85(3) 1.84(4) 2.633(4) 155(9) .
O5 H5B O9 0.85(2) 1.84(3) 2.670(3) 166(12) .
O8A H8A O6 0.83(2) 1.76(3) 2.569(6) 163(8) 2_584
O8B H8B O4 0.85(3) 2.54(5) 2.906(7) 107(4) 2_474
O9 H9A O5 0.84(2) 1.85(3) 2.670(3) 168(10) .
O10 H10B O4 0.84(2) 1.81(3) 2.633(4) 166(13) .
loop_
_geom_torsion_atom_site_label_1
_geom_torsion_atom_site_label_2
_geom_torsion_atom_site_label_3
_geom_torsion_atom_site_label_4
_geom_torsion
C1 C2 C3 C4 0.9(5)
C1 C2 C8 O2 0.0(4)
C1 C2 C8 O3 -118.0(3)
C2 C1 C6 C5 -0.1(5)
C2 C1 C7 O1 -178.2(4)
C2 C1 C7 O2 -1.1(4)
C2 C3 C4 C5 -1.2(5)
C2 C3 C4 C9 178.4(3)
C3 C2 C8 O2 -179.4(3)
C3 C2 C8 O3 62.6(4)
C3 C4 C5 C6 0.8(5)
C3 C4 C9 O4 10.5(6)
C3 C4 C9 O5 -169.4(3)
C4 C5 C6 C1 -0.1(5)
C5 C4 C9 O4 -169.9(4)
C5 C4 C9 O5 10.2(5)
C6 C1 C2 C3 -0.2(5)
C6 C1 C2 C8 -179.7(3)
C6 C1 C7 O1 2.2(7)
C6 C1 C7 O2 179.3(4)
C7 O2 C8 O3 118.2(3)
C7 O2 C8 C2 -0.8(4)
C7 C1 C2 C3 -179.9(3)
C7 C1 C2 C8 0.6(4)
C7 C1 C6 C5 179.4(3)
C8 O2 C7 O1 178.5(3)
C8 O2 C7 C1 1.2(4)
C8 C2 C3 C4 -179.8(3)
C9 C4 C5 C6 -178.7(3)
C10 C11 C12 C13 0.4(5)
C10 C11 C17 O7 0.3(4)
C10 C11 C17 O8A 121.5(4)
C10 C11 C17 O8B -115.7(5)
C11 C10 C15 C14 0.1(5)
C11 C10 C16 O6 178.1(4)
C11 C10 C16 O7 -2.0(4)
C11 C12 C13 C14 -0.9(5)
C11 C12 C13 C18 -179.4(3)
C12 C11 C17 O7 -178.9(3)
C12 C11 C17 O8A -57.7(6)
C12 C11 C17 O8B 65.2(6)
C12 C13 C14 C15 1.0(5)
C12 C13 C18 O9 -13.4(5)
C12 C13 C18 O10 166.6(3)
C13 C14 C15 C10 -0.6(5)
C14 C13 C18 O9 168.1(3)
C14 C13 C18 O10 -11.9(5)
C15 C10 C11 C12 0.0(5)
C15 C10 C11 C17 -179.3(3)
C15 C10 C16 O6 -1.6(7)
C15 C10 C16 O7 178.3(4)
C16 O7 C17 O8A -123.0(4)
C16 O7 C17 O8B 121.0(5)
C16 O7 C17 C11 -1.6(5)
C16 C10 C11 C12 -179.8(3)
C16 C10 C11 C17 1.0(4)
C16 C10 C15 C14 179.8(4)
C17 O7 C16 O6 -177.9(4)
C17 O7 C16 C10 2.3(5)
C17 C11 C12 C13 179.5(4)
C18 C13 C14 C15 179.4(3)
loop_
_refln_index_h
_refln_index_k
_refln_index_l
_refln_F_squared_meas
_refln_F_squared_sigma
_refln_scale_group_code
-9 0 -1 69.2788 120.964 11
-9 0 0 26.347 133.775 11
-9 0 1 -48.485 127.457 11
-9 0 2 3357.4 396.047 11
-9 1 -1 253.256 137.669 11
-9 -1 0 3994.23 437.105 11
-9 1 0 4452.76 464.781 11
-9 1 1 1513.22 285.362 11
-9 -1 1 1970.39 321.971 11
-9 -1 2 -1.30991 122.664 11
-8 0 -6 7820.48 601.444 17
-8 0 -5 49.8376 193.09 17
-8 0 -4 24786.7 1291.18 11
-8 0 -4 26467.4 1420.89 17
-8 0 -3 44.6878 219.939 11
-8 0 -3 -87.3231 261.138 17
-8 0 -2 8852.22 925.332 11
-8 0 -2 9536.53 935.233 17
-8 0 -1 -3.03104 258.932 11
-8 0 -1 -336.833 272.196 17
-8 0 0 1127.26 339.762 17
-8 0 0 1391.18 485.861 11
-8 0 1 962.356 375.76 11
-8 0 1 -154.24 235.324 10
-8 0 2 12789.8 1150.12 16
-8 0 2 12839.6 995.508 10
-8 0 2 12831.5 1139.42 11
-8 0 3 -248.878 169.112 10
-8 0 3 133.084 237.154 11
-8 0 3 -11.2148 206.403 16
-8 0 4 2079.2 458.497 16
-8 0 4 1950.18 354.206 10
-8 0 4 2745.47 499.484 11
-8 0 5 -253.614 211.32 16
-8 0 5 13.5414 168.874 11
-8 0 6 5276.25 525.085 16
-8 -1 -6 4115.59 426.635 17
-8 1 -6 3853.39 423.925 17
-8 -1 -5 149.59 168.795 17
-8 1 -5 397.446 166.504 11
-8 1 -5 120.963 146.316 17
-8 -1 -4 2322.03 392.752 11
-8 -1 -4 3401.63 522.47 17
-8 1 -4 2852.71 476.663 11
-8 1 -4 3389.56 542.638 17
-8 1 -3 8893.95 894.311 11
-8 -1 -3 9840.41 915.189 17
-8 1 -3 10836.5 988.003 17
-8 -1 -3 9048.7 840.321 11
-8 -1 -2 12741.3 1055.56 11
-8 -1 -2 12854.2 1055.94 17
-8 1 -2 13523.6 1138.67 11
-8 1 -2 11648.3 1037.52 17
-8 -1 -1 30000.7 1691.16 11
-8 1 -1 28138 1579.36 17
-8 -1 -1 27018.3 1519.08 17
-8 1 -1 31901.1 1811.17 11
-8 -1 0 9510.97 867.747 17
-8 1 0 9937.41 1030.65 11
-8 -1 0 9436.06 932.606 10
-8 -1 0 10612.8 1058.64 11
-8 1 0 9208.39 865.463 17
-8 1 1 7192.91 879.704 11
-8 1 1 8207.84 972.73 16
-8 -1 1 7539.1 833.443 10
-8 -1 1 8095.22 922.064 11
-8 1 2 19767.3 1433.75 16
-8 -1 2 20622.5 1433.49 11
-8 1 2 17294.4 1289.4 11
-8 -1 2 17926.1 1253.73 10
-8 -1 3 944.366 330.356 10
-8 1 3 1223.93 401.383 11
-8 -1 3 1347.55 389.217 11
-8 1 3 1254.58 396.944 16
-8 1 4 414.624 285.376 16
-8 -1 4 480.421 248.699 11
-8 1 4 -122.497 239.393 11
-8 -1 4 -60.5275 207.255 10
-8 1 5 249.517 159.971 11
-8 -1 5 571.064 254.995 10
-8 1 5 899.989 293.815 16
-8 1 6 10617.3 783.056 16
-8 2 -5 13883.6 895.266 17
-8 2 -5 11992.2 794.066 11
-8 -2 -5 12666.5 822.855 17
-8 2 -4 14854.7 1040.08 17
-8 -2 -4 16054.8 1038.16 17
-8 2 -3 40461.2 1808.54 17
-8 -2 -3 45298.6 1820.18 17
-8 -2 -3 34317.7 1439.58 11
-8 2 -2 -283.358 255.637 17
-8 -2 -2 127.802 136.349 11
-8 -2 -2 75.4099 186.764 17
-8 -2 -1 4927.88 632.37 17
-8 -2 -1 4703.85 648.516 11
-8 2 -1 3713.44 588.369 17
-8 2 -1 5030.26 730.233 11
-8 2 -1 4456.86 671.578 4
-8 2 0 900.556 402.741 11
-8 2 0 747.517 386.382 4
-8 -2 0 263.312 252.067 11
-8 2 0 527.469 209.113 17
-8 -2 0 487.862 228.687 17
-8 2 1 447.531 270.137 16
-8 -2 1 286.823 279.285 11
-8 2 1 544.181 374.481 4
-8 2 1 359.439 286.929 11
-8 -2 1 277.782 292.828 10
-8 2 2 12689.2 1154.16 4
-8 -2 2 12790.8 1096.8 11
-8 -2 2 10960 996.527 10
-8 2 2 12418.1 1127.68 16
-8 2 2 11429 1015.7 11
-8 -2 3 6241.26 753.895 10
-8 2 3 6512.4 793.433 16
-8 2 3 5179.65 648.381 11
-8 -2 3 6628.66 781.042 11
-8 -2 4 14982.1 1098.12 11
-8 2 4 15632.4 1166.09 16
-8 -2 4 14294.6 1061.88 10
-8 2 4 12885.6 866.439 11
-8 -2 5 18328.3 1108.53 10
-8 2 5 17778.8 1144.91 16
-8 2 6 537.562 210.164 16
-8 -3 -5 5388.61 492.459 17
-8 3 -5 5785.28 542.528 17
-8 -3 -4 14487.1 898.308 17
-8 3 -4 14708.1 965.352 17
-8 -3 -3 31084.1 1410.45 17
-8 3 -3 32478.5 1547.62 17
-8 3 -2 98844.6 2753.36 17
-8 -3 -2 99940.3 2570.56 17
-8 -3 -2 88061.3 2231.47 11
-8 3 -1 3394.67 558 17
-8 -3 -1 4028.27 555.504 11
-8 -3 -1 2650.05 466.444 17
-8 3 -1 3101.48 540.671 4
-8 3 0 929.848 337.993 11
-8 3 0 1221.52 319.243 17
-8 3 0 1083.4 368.408 4
-8 -3 0 1329.42 367.477 11
-8 -3 0 900.547 240.538 17
-8 3 1 3978.57 670.308 4
-8 3 1 3529.73 560.292 11
-8 3 1 3058.17 555.481 16
-8 -3 1 3218.22 562.535 10
-8 -3 1 3237.88 541.645 11
-8 3 2 18178.4 1262.18 16
-8 3 2 20077.6 1378.52 4
-8 -3 2 20817.9 1334.37 10
-8 3 2 16720.7 1094.17 11
-8 -3 2 17063.5 1189.46 11
-8 3 3 6304.61 602.6 11
-8 -3 3 8289.36 829.329 10
-8 3 3 7708.82 847.886 4
-8 3 3 7028.43 791.147 16
-8 -3 4 52225.5 1935.43 10
-8 3 4 47525.9 1885.43 16
-8 -3 5 2018.67 378.515 10
-8 3 5 2558.21 431.559 16
-8 3 6 4238.82 464.967 16
-8 4 -4 9533.35 679.448 17
-8 -4 -4 11063.7 684.259 17
-8 -4 -3 9082.92 680.867 17
-8 4 -3 9102.8 738.855 17
-8 4 -2 12119.4 884.455 17
-8 -4 -2 13253.2 840.359 17
-8 4 -2 9823.44 735.386 4
-8 -4 -1 4279.77 482.642 17
-8 4 -1 4029.65 514.713 17
-8 4 -1 4408.39 590.441 4
-8 -4 0 7992.62 805.296 10
-8 4 0 7107.53 696.784 11
-8 -4 0 -93.0794 86.4831 17
-8 4 0 6916.89 755.198 4
-8 4 0 1518.76 296.298 17
-8 -4 1 -163.18 221.131 10
-8 4 1 66.1259 127.26 11
-8 4 1 303.263 265.675 4
-8 4 2 59967.4 2166.36 4
-8 -4 2 60433.1 2111.97 10
-8 4 2 59605.3 2018.91 16
-8 4 3 83807.3 2305.86 16
-8 -4 3 85218.1 2397.65 10
-8 4 3 85094.9 2445.13 4
-8 -4 4 13665.3 902.763 10
-8 4 4 13564.9 885.213 16
-8 -4 5 42445.8 1412.48 10
-8 4 5 39546.4 1348.49 16
-8 5 -2 6401.53 528.825 11
-8 -5 -2 8873.74 669.982 10
-8 5 -1 -31.6425 125.241 11
-8 5 -1 -255.901 143.513 4
-8 -5 -1 -78.7237 191.113 10
-8 -5 0 4670.66 515.976 10
-8 5 0 4047.97 508 4
-8 5 1 627.348 249.912 4
-8 -5 1 665.85 236.689 10
-8 5 2 275.041 192.986 4
-8 -5 2 817.523 254.159 10
-8 -5 3 26952.8 1129.19 10
-8 5 3 23427.5 1087.52 4
-7 0 -8 42460 1314.26 17
-7 0 -7 315.236 241.361 17
-7 0 -6 32073.5 1741.5 17
-7 0 -5 226.511 283.764 9
-7 0 -5 -60.9473 264.356 17
-7 0 -4 2791.43 560.749 9
-7 0 -4 2636.63 646.895 17
-7 0 -3 -220.441 460.486 17
-7 0 -2 11006.1 1234.19 17
-7 0 -1 929.8 433.506 4
-7 0 -1 204.279 375.836 17
-7 0 0 106096 3842.12 16
-7 0 0 105193 3813.99 4
-7 0 0 105517 3660.36 17
-7 0 1 96.153 313.138 16
-7 0 1 -858.733 395.819 17
-7 0 1 259.785 302.709 4
-7 0 1 -123.153 293.269 11
-7 0 2 6798.7 1065.35 4
-7 0 2 7540.08 961.107 10
-7 0 2 7432.56 1031.65 11
-7 0 2 7735.91 1085.36 16
-7 0 3 169.552 241.048 10
-7 0 3 -36.3485 232.096 16
-7 0 3 -344.404 328.973 11
-7 0 4 19863.9 1622.56 16
-7 0 4 20924.1 1543.5 10
-7 0 4 19716 1776.63 14
-7 0 4 18869 1526.07 11
-7 0 5 -412.691 304.172 16
-7 0 5 555.721 274.48 11
-7 0 5 -661.75 359.244 10
-7 0 5 -296.861 352.107 14
-7 0 6 30495.2 1960.74 14
-7 0 6 29089.8 1723.16 16
-7 0 6 29835.6 1637.66 11
-7 0 6 28303.1 1665.43 10
-7 0 7 204.231 193.003 16
-7 0 7 104.127 386.602 14
-7 0 8 3930.88 485.649 16
-7 0 8 17389.9 1226.19 14
-7 0 9 77.47 171.19 14
-7 1 -7 5590.7 645.729 17
-7 -1 -7 5857.34 655.542 17
-7 -1 -7 5487.31 609.309 9
-7 -1 -6 58097.7 2281.26 17
-7 -1 -6 52081.3 2094.29 9
-7 1 -6 59339.5 2365.75 17
-7 -1 -5 -45.4546 248.756 9
-7 -1 -5 769.315 371.57 17
-7 -1 -5 204.381 236.683 11
-7 1 -5 161.65 276.335 21
-7 1 -5 165.829 288.841 17
-7 1 -4 1871.75 553.42 21
-7 -1 -4 1845.86 550.684 9
-7 1 -4 1394.38 506.319 17
-7 -1 -4 2139.21 494.809 11
-7 -1 -4 2142.38 566.028 17
-7 1 -3 28260.5 1948.03 21
-7 -1 -3 28435.8 1837.13 9
-7 -1 -3 28131.5 1895.18 17
-7 1 -3 27288.9 1700.15 4
-7 1 -3 26887.3 1919.5 17
-7 1 -2 2952.67 676.643 4
-7 -1 -2 4682.64 815.695 17
-7 1 -2 3285.52 754.889 21
-7 1 -2 3754.62 773.93 17
-7 -1 -2 3865.37 712.803 11
-7 1 -1 3118.9 680.079 4
-7 1 -1 3393.48 712.813 16
-7 -1 -1 3332.71 679.729 17
-7 1 -1 3145.2 671.409 17
-7 -1 -1 3636.55 733.764 11
-7 1 0 16164.9 1544.49 16
-7 -1 0 18265.2 1491.35 17
-7 -1 0 17736.8 1578.57 11
-7 1 0 20213.1 1696.22 4
-7 1 0 16358.6 1480 17
-7 -1 0 17977.7 1579.59 16
-7 1 1 25145.5 1902.72 16
-7 -1 1 25834.5 1658.44 17
-7 -1 1 27351.6 1923.13 16
-7 -1 1 22610.4 1785.72 11
-7 1 1 23608.5 1870.16 4
-7 1 1 24703.2 1683.44 17
-7 1 2 14852.8 1472.64 16
-7 -1 2 13594 1351.12 16
-7 1 2 13734.8 1378.96 11
-7 1 2 15115.2 1512.78 4
-7 -1 2 13752.1 1389.76 11
-7 -1 2 14959.9 1419.76 20
-7 -1 3 20116 1712.2 20
-7 1 3 19845.8 1676.84 16
-7 -1 3 19104 1543.45 16
-7 -1 3 20531.2 1669.35 11
-7 1 3 18488.9 1648.16 4
-7 1 3 18485.7 1521.5 11
-7 -1 3 19491.1 1570.6 10
-7 1 4 777.08 329.658 11
-7 -1 4 2037.47 691.26 14
-7 1 4 374.507 325.381 16
-7 -1 4 2777.36 756.907 20
-7 1 4 2018.02 719.61 14
-7 1 4 252.878 352.226 4
-7 -1 4 -187.991 260.351 16
-7 -1 4 -93.9012 368.774 10
-7 1 4 128.721 242.361 10
-7 -1 4 665.581 338.963 11
-7 1 5 17537.2 1508.04 16
-7 -1 5 17077.5 1418.43 10
-7 -1 5 19117.4 1489.99 11
-7 1 5 18763.3 1619.55 14
-7 1 5 17238.2 1259.53 10
-7 1 5 18807.9 1357.76 11
-7 -1 5 17608.4 1380.98 16
-7 -1 5 18831.3 1583.71 14
-7 -1 6 271.586 327.188 10
-7 -1 6 445.082 287.172 11
-7 1 6 245.651 313.419 14
-7 -1 6 420.055 342.822 14
-7 1 6 442.504 310.12 16
-7 -1 6 283.24 182.55 16
-7 -1 7 25284 1615.53 14
-7 1 7 22362.6 1437.16 16
-7 1 7 24049 1582.15 14
-7 -1 8 4081.26 612.447 14
-7 1 8 3642.92 510.987 16
-7 1 8 3524.12 586.116 14
-7 -1 9 2349.19 402.634 14
-7 1 9 2663.22 419.77 14
-7 -2 -7 807.62 256.529 17
-7 2 -7 1490.61 339.857 17
-7 -2 -7 878.494 295.122 9
-7 -2 -6 5142.67 704.581 9
-7 2 -6 3752.24 627.296 17
-7 -2 -6 4800.85 658.793 17
-7 2 -6 3588.7 589.81 21
-7 -2 -5 15276 1287.85 9
-7 -2 -5 16754.3 1313.45 17
-7 2 -5 17580.6 1395.15 21
-7 2 -5 16905.9 1410.95 17
-7 -2 -4 14550.1 1311.94 17
-7 -2 -4 13433.1 1272.4 9
-7 2 -4 15934.8 1452.28 17
-7 -2 -4 11530 1008.41 11
-7 2 -4 16108.1 1435.94 21
-7 2 -3 54084 2700.72 21
-7 -2 -3 51429 2323.56 11
-7 2 -3 46748.7 2222.54 4
-7 -2 -3 48084.8 2440.2 9
-7 2 -3 53195.1 2690.01 17
-7 -2 -3 51435.8 2485.91 17
-7 2 -2 18847.5 1659.01 21
-7 -2 -2 15838.6 1456.29 9
-7 2 -2 19076.7 1535.85 4
-7 2 -2 17757.9 1573.1 17
-7 -2 -2 19726.5 1542.83 17
-7 -2 -2 18428.6 1481.6 11
-7 2 -1 1361.25 508.879 17
-7 2 -1 671.492 468.277 21
-7 2 -1 1253.63 558.615 16
-7 -2 -1 1566.11 490.023 11
-7 2 -1 1046.77 481.419 4
-7 -2 -1 1811.19 523.332 17
-7 2 0 4142.72 793.353 4
-7 -2 0 4098.16 766.976 11
-7 2 0 5209.25 837.34 17
-7 2 0 3701.48 770.277 16
-7 -2 0 3613.5 659.245 17
-7 -2 1 6599.33 970.464 11
-7 2 1 6586.64 883.712 17
-7 2 1 8072.66 1093.36 4
-7 -2 1 9360.75 996.413 17
-7 2 1 8308.71 1103.77 16
-7 2 2 47422.2 2595.93 16
-7 -2 2 49609.8 2558.06 11
-7 2 2 51501.1 2727.01 4
-7 -2 2 49106.6 2546.69 20
-7 2 2 46613.1 2410.83 11
-7 -2 2 48194 2367.87 16
-7 2 3 44522.8 2292 11
-7 -2 3 45345.3 2510.12 20
-7 -2 3 46029.9 2430.7 11
-7 -2 3 40559.4 2307.48 10
-7 -2 3 43103 2170.99 16
-7 2 3 43944.9 2469.59 16
-7 2 3 43738.7 2458.21 4
-7 -2 4 2315.9 593.144 11
-7 -2 4 525.126 402.975 20
-7 2 4 2118.49 614.871 4
-7 -2 4 1904.77 471.058 16
-7 2 4 2026.99 584.16 16
-7 -2 4 2675.77 641.673 10
-7 2 4 1779.04 456 11
-7 2 5 11632.1 1244.53 14
-7 -2 5 7841.86 1103.01 20
-7 2 5 8018.85 1040.7 16
-7 -2 5 8896.33 1043.82 10
-7 2 5 8240.93 1010 4
-7 -2 5 9061.73 1121.49 14
-7 -2 5 8339.1 1000.44 11
-7 2 6 -3.35786 269.301 16
-7 -2 6 875.425 423.844 14
-7 -2 6 68.7068 276.384 10
-7 2 6 616.435 378.437 14
-7 2 7 4955.15 720.106 16
-7 -2 7 5513.44 736.286 14
-7 2 7 5746.11 754.321 14
-7 2 8 5579.37 645.28 14
-7 -2 8 4994.67 624.436 14
-7 2 8 3907.17 546.458 16
-7 -3 -7 7586.32 636.139 17
-7 3 -7 6749.58 627.264 17
-7 -3 -7 8072.82 726.783 9
-7 3 -7 7857.38 683.285 21
-7 -3 -6 529.714 304.917 9
-7 3 -6 517.195 274.458 21
-7 3 -6 -93.3671 210.136 17
-7 -3 -6 487.142 253.647 17
-7 -3 -5 12342.8 1070.33 17
-7 -3 -5 12430.8 1129.69 9
-7 3 -5 13881.5 1222.84 21
-7 3 -5 12275.2 1149 17
-7 3 -4 5713.88 862.109 21
-7 -3 -4 6777.43 868.072 17
-7 -3 -4 4957.32 802.193 9
-7 3 -4 6058.15 920.053 17
-7 -3 -3 503.713 245.151 11
-7 3 -3 3.04337 283.467 4
-7 -3 -3 -242.456 278.181 17
-7 -3 -3 95.0833 323.357 9
-7 3 -3 105.866 409.273 21
-7 3 -3 892.703 452.161 17
-7 -3 -2 390.981 337.246 17
-7 3 -2 599.576 408.279 17
-7 -3 -2 681.012 312.569 11
-7 3 -2 252.041 346.974 21
-7 3 -2 651.502 336.671 4
-7 -3 -1 8006.59 977.44 17
-7 3 -1 8643.19 1084.5 4
-7 3 -1 8253.77 1037.8 16
-7 3 -1 10422.3 1203.84 17
-7 3 -1 9031.06 1143.23 21
-7 -3 -1 9002.17 1031.73 11
-7 3 0 10427.9 1175.9 17
-7 3 0 12664.5 1323.04 4
-7 -3 0 11119.6 1108.85 17
-7 3 0 11583.1 1277.75 21
-7 3 0 12217.1 1259.01 16
-7 -3 0 12014.2 1220.63 11
-7 -3 1 39390.7 2194 11
-7 -3 1 37360.4 1884.01 17
-7 -3 1 38635 2145.05 20
-7 3 1 38598.5 2326.75 4
-7 3 1 38236.4 2240.25 16
-7 3 1 33303.9 1946.3 17
-7 3 2 26554.5 1912.5 16
-7 -3 2 24682.2 1804.07 20
-7 -3 2 25226.4 1764.12 11
-7 3 2 25184.7 1865.58 4
-7 3 2 26446.9 1902.83 5
-7 -3 3 2531.59 628.657 10
-7 -3 3 3346.51 695.174 11
-7 3 3 1783.42 590.998 4
-7 3 3 3478.66 736.055 16
-7 3 3 3387.35 723.096 5
-7 3 3 3065.87 594.921 11
-7 -3 3 3387.96 701.219 20
-7 -3 4 29794.9 1994.28 12
-7 3 4 27830.9 1846.36 4
-7 -3 4 27114 1928.18 20
-7 -3 4 27167.3 1799.85 11
-7 -3 4 27530.5 1818.5 10
-7 3 4 26867.3 1882.62 5
-7 3 4 27051 1870.26 16
-7 3 5 56018.8 2576.24 16
-7 -3 5 52643 2578.97 12
-7 3 5 53157.5 2509.67 5
-7 -3 5 51262.6 2566.61 20
-7 -3 5 50430.8 2356.46 10
-7 3 5 50877.3 2308.62 4
-7 -3 6 3493.55 707.336 20
-7 -3 6 3070.22 605.291 10
-7 3 6 4104.96 694.09 16
-7 3 7 3325.12 572.091 16
-7 3 8 835.995 262.604 16
-7 4 -7 26492.5 1121.33 21
-7 -4 -7 29943 1238.26 9
-7 -4 -6 20935.9 1232.51 9
-7 4 -6 21755.4 1270.78 21
-7 -4 -6 21432 1133.92 17
-7 4 -6 18651.7 1146.91 17
-7 -4 -5 27438.9 1448.2 17
-7 -4 -5 30948.9 1649.09 9
-7 4 -5 27323.8 1602.66 21
-7 4 -5 24942.8 1520.33 17
-7 -4 -4 5330.78 762.376 9
-7 -4 -4 6394.13 778.815 17
-7 4 -4 4166.18 719.293 17
-7 4 -4 5666.7 835.82 21
-7 4 -3 37057.7 1846.16 4
-7 4 -3 46542.8 2349.71 21
-7 4 -3 43898.6 2284.08 17
-7 -4 -3 46713.9 2285.92 9
-7 -4 -3 44983.6 2093.95 17
-7 -4 -2 41996.6 2041.58 17
-7 4 -2 44447 2331.56 21
-7 4 -2 41090.2 2119.53 4
-7 4 -2 43939.1 2333.75 17
-7 4 -1 7022.48 969.494 4
-7 -4 -1 7090.84 862.122 11
-7 4 -1 7408.91 982.956 21
-7 4 -1 6472.68 908.489 17
-7 -4 -1 6077.71 834.134 17
-7 4 0 1628.6 490.86 17
-7 -4 0 2605.28 529.725 17
-7 -4 0 2011.54 486.541 11
-7 4 0 1970.24 549.262 21
-7 4 0 2129.92 610.542 4
-7 4 0 2472.62 549.951 16
-7 -4 1 3764.5 668.186 11
-7 4 1 3655.5 706.798 5
-7 4 1 2712.01 559.547 17
-7 -4 1 2402.44 484.67 17
-7 4 1 3501.32 745.04 4
-7 4 1 2406.28 548.527 16
-7 -4 1 2041.9 566.006 20
-7 4 2 8909.16 928.627 11
-7 4 2 9054.04 1043.07 16
-7 -4 2 11315.9 1136.66 11
-7 4 2 9261.4 1095.61 5
-7 4 2 9663.55 1146.71 4
-7 -4 2 8112.24 1019.21 20
-7 -4 3 7902.27 1041.54 20
-7 4 3 9409.09 1057.27 16
-7 -4 3 11402.4 1137.51 12
-7 -4 3 9771.89 1047.98 11
-7 4 3 9676.78 1122.05 5
-7 -4 3 9169.95 1041.49 10
-7 4 3 10516.7 1144.62 4
-7 -4 4 4156.27 693.199 10
-7 -4 4 4028.89 780.249 20
-7 4 4 3965.46 700.725 16
-7 -4 4 4296.01 750.42 12
-7 4 4 4582.06 768.656 4
-7 4 4 4417.17 777.541 5
-7 -4 5 26705.4 1619.82 10
-7 -4 5 28669.5 1810.69 20
-7 4 5 28662.1 1747.23 5
-7 4 5 27047.9 1657.02 16
-7 -4 5 25667.4 1657.91 12
-7 4 5 27727.7 1586.24 4
-7 4 6 7896.45 854.825 16
-7 -4 6 8803.92 976.34 20
-7 -4 6 9806.66 1036.3 12
-7 -4 6 7229.97 810.156 10
-7 4 7 23292 1285.06 16
-7 4 8 1559.05 285.109 16
-7 -5 -6 7167.43 552.302 17
-7 5 -6 7167.65 609.958 17
-7 5 -6 7536.59 655.897 21
-7 5 -5 5169.22 633.867 17
-7 -5 -5 5504.39 578.403 17
-7 5 -5 5470.78 671.692 21
-7 -5 -4 6101.14 683.09 17
-7 5 -4 5155.46 707.79 17
-7 5 -4 6719.8 808.328 21
-7 5 -3 4968.21 625.053 4
-7 -5 -3 6842.06 764.156 17
-7 5 -3 6159.6 821.665 17
-7 5 -3 5810.41 796.868 21
-7 5 -2 2003.47 465.384 4
-7 5 -2 2751.25 619.32 21
-7 5 -2 2888.79 598.094 17
-7 -5 -2 2639.19 503.372 17
-7 5 -1 12287.8 1143.05 21
-7 -5 -1 11682.3 1008.39 17
-7 5 -1 11763.3 1143.13 4
-7 5 -1 11717.6 1153.13 17
-7 -5 0 25464.4 1435.48 17
-7 5 0 26872 1772.95 4
-7 5 0 22973.7 1546.73 17
-7 5 0 24256.7 1431.35 16
-7 5 1 49247 2110.23 16
-7 -5 1 49037.9 2203.11 20
-7 -5 1 48265.5 1819.54 17
-7 5 1 36370 1802.31 17
-7 5 1 48822.5 2209.25 5
-7 5 1 53927.2 2491.17 4
-7 5 2 5746.49 852.179 4
-7 5 2 5773.15 810.943 5
-7 -5 2 5257.01 766.964 10
-7 5 2 5340.51 728.294 16
-7 -5 2 4410.41 716.911 20
-7 -5 3 25438.6 1571.76 10
-7 5 3 24090 1480.93 16
-7 5 3 22875.6 1559.84 5
-7 -5 3 22557.6 1568.67 20
-7 5 3 23528.7 1571.95 4
-7 -5 4 37167.9 1816.14 10
-7 5 4 37302.2 1812.72 4
-7 5 4 36077.4 1766.82 16
-7 5 4 36929.3 1923.22 5
-7 -5 4 37011.7 1959.89 20
-7 -5 4 37321.6 1754.23 12
-7 5 5 9751.45 839.665 4
-7 5 5 11000.3 935.43 16
-7 5 5 9782.73 944.865 5
-7 -5 5 10306.9 906.446 10
-7 -5 5 11282.1 963.742 12
-7 -5 5 10835.7 1036.45 20
-7 5 6 16952.4 1061.65 16
-7 -5 6 15902.1 1145.33 20
-7 -5 6 16228.5 1030.18 10
-7 5 7 1081.62 254.844 16
-7 -6 -5 6384.95 512.101 17
-7 6 -5 5026.76 506.104 21
-7 6 -5 4495.81 475.06 17
-7 6 -4 -28.1254 155.482 21
-7 -6 -4 -1.61706 124.174 17
-7 6 -4 -20.0416 149.335 17
-7 6 -3 7799.04 665.554 4
-7 -6 -3 9483.19 772.784 17
-7 6 -3 9653.26 840.881 21
-7 6 -3 8734.4 841.374 17
-7 -6 -2 214.024 185.864 17
-7 6 -2 727.466 283.095 4
-7 6 -2 687.796 288.822 21
-7 6 -2 233.101 267.421 17
-7 6 -1 21175.6 1350.14 4
-7 -6 -1 23142 1230.22 17
-7 6 -1 19826.8 1308.49 17
-7 -6 0 408.446 210.164 17
-7 6 0 696.632 328.955 4
-7 6 0 50.1828 154.85 17
-7 -6 1 47115.9 1923.02 20
-7 -6 1 49826.3 1996.37 10
-7 6 1 53060.3 2238.85 4
-7 -6 2 10399 956.374 20
-7 6 2 8790.22 850.366 5
-7 6 2 10995 998.095 4
-7 -6 2 9835.72 880.441 10
-7 6 3 1305.26 352.973 4
-7 6 3 610.334 280.426 5
-7 -6 3 782.02 296.312 10
-7 -6 3 934.116 356.93 20
-7 6 3 545.477 226.359 16
-7 6 4 1368.39 318.029 4
-7 -6 4 1073.61 346.602 20
-7 -6 4 1651.06 349.009 10
-7 6 4 1948.84 409.587 5
-7 6 4 1624.78 303.261 16
-7 -6 5 1168.26 329.501 20
-7 6 5 1621.45 358.958 5
-7 -6 5 1464.71 273.017 10
-7 7 -3 1902.67 330.175 17
-7 -7 -2 626.614 192.961 17
-7 7 -2 274.732 152.337 17
-7 7 -1 17062.6 1005.91 4
-7 -7 -1 16027.5 816.79 17
-7 -7 -1 17947.3 890.441 10
-7 7 -1 12147.2 808.477 17
-7 -7 0 171.839 132.266 10
-7 7 0 613.075 248.556 4
-7 -7 1 491.899 186.812 10
-7 7 1 729.209 257.622 4
-7 7 2 20274.8 1104.71 4
-7 -7 2 17351.4 954.389 20
-7 -7 3 167.791 120.207 20
-7 7 3 486.932 192.248 4
-6 0 -8 19130.2 1253.62 17
-6 0 -8 18692.6 1257.78 9
-6 0 -7 55.8537 169.662 9
-6 0 -7 306.046 288.919 17
-6 0 -6 2782.08 558.994 21
-6 0 -6 1809.44 524.678 9
-6 0 -6 1176.14 473.835 17
-6 0 -5 -368.082 353.983 21
-6 0 -5 -125.649 246.341 9
-6 0 -5 -21.0995 349.233 17
-6 0 -4 14454.2 1424.81 21
-6 0 -4 12917.6 1278.97 9
-6 0 -4 13526.5 1441.93 17
-6 0 -3 402.476 496.943 21
-6 0 -3 284.219 296.186 9
-6 0 -3 617.684 423.19 17
-6 0 -2 104355 3576.61 9
-6 0 -2 116507 4088.37 17
-6 0 -2 108902 3975.38 21
-6 0 -2 107469 3705.79 4
-6 0 -2 104211 3876.35 16
-6 0 -1 20.6698 322.575 17
-6 0 -1 -133.028 316.268 21
-6 0 -1 -296.573 290.103 9
-6 0 -1 56.2583 282.146 4
-6 0 -1 -136.951 423.487 16
-6 0 0 44796.2 2504.24 16
-6 0 0 47309.2 2553.35 4
-6 0 0 46098.8 2480.77 17
-6 0 0 48954.2 2663.85 21
-6 0 1 292.997 233.281 16
-6 0 1 -72.4536 416.434 4
-6 0 1 133.901 243.765 17
-6 0 2 7426.16 1060.94 4
-6 0 2 7510.24 1074.23 16
-6 0 2 7216.42 1067.46 20
-6 0 2 6722.08 1024.68 14
-6 0 3 -644.818 426.844 14
-6 0 3 4.37872 309.853 4
-6 0 3 675.099 393.898 16
-6 0 3 330.094 410.567 10
-6 0 3 -474.645 438.855 20
-6 0 3 -64.1773 284.857 11
-6 0 4 27821.4 2033.89 4
-6 0 4 24781.7 2039.85 20
-6 0 4 25069.6 1997.74 14
-6 0 4 25181.8 1919.24 16
-6 0 4 26312.4 1842.82 10
-6 0 4 23250.9 1746.28 11
-6 0 5 440.7 325.369 11
-6 0 5 897.369 425.809 10
-6 0 5 -4.20977 278.321 16
-6 0 5 243.835 318.724 14
-6 0 5 935.106 578.314 20
-6 0 5 1705.93 633.579 13
-6 0 6 51172.2 2582.31 10
-6 0 6 50388.9 2976.18 13
-6 0 6 52689.9 2468.75 11
-6 0 6 54145.8 2704.58 16
-6 0 6 49741.9 2798.5 14
-6 0 7 234.977 466.653 13
-6 0 7 -286.252 310.659 16
-6 0 7 114.599 395.49 14
-6 0 7 584.476 373.097 10
-6 0 8 -98.6621 407.521 14
-6 0 8 324.589 241.087 16
-6 0 9 -97.7787 164.309 16
-6 0 9 29.3911 231.519 14
-6 0 10 102.424 200.915 14
-6 0 11 -258.744 144.899 14
-6 -1 -9 4192.34 556.273 9
-6 -1 -8 14813.1 1198.26 9
-6 1 -8 13661.2 1060.68 17
-6 -1 -8 15130.1 1088.92 17
-6 -1 -7 45427.9 2162.81 17
-6 1 -7 42691.7 2154.54 17
-6 -1 -7 40033.2 2140.91 9
-6 1 -7 41501 2046.74 21
-6 1 -6 38592.1 2261.14 17
-6 -1 -6 38501.4 2201.58 17
-6 1 -6 36658.3 2133.68 21
-6 -1 -6 37478.1 2186.21 9
-6 1 -5 649.821 438.736 17
-6 -1 -5 810.812 458.422 17
-6 1 -5 492.807 376.191 21
-6 -1 -5 190.062 304.345 9
-6 -1 -4 2812.14 709.823 17
-6 1 -4 3599.79 789.015 21
-6 -1 -4 2999.56 685.906 9
-6 1 -4 2743.58 683.953 17
-6 -1 -4 2884.06 644.803 21
-6 1 -3 14292 1486.91 21
-6 1 -3 15676.6 1585.7 17
-6 1 -3 15377.8 1378.46 4
-6 -1 -3 16044 1540.99 17
-6 -1 -3 15497.1 1473.06 9
-6 -1 -3 15375.1 1440.06 21
-6 -1 -2 11168.1 1215.54 4
-6 1 -2 8636.59 1164.65 21
-6 -1 -2 10012.1 1187.51 9
-6 1 -2 9548.63 1169.05 16
-6 -1 -2 10187.7 1231.61 17
-6 1 -2 9291.06 1112.83 4
-6 1 -2 9939.67 1259.96 17
-6 1 -1 6445.28 957.779 4
-6 -1 -1 5581.68 928.129 9
-6 1 -1 6542.56 1019.84 21
-6 1 -1 6199.34 983.321 17
-6 -1 -1 6573.21 967.916 17
-6 1 -1 6101.12 982.813 16
-6 -1 -1 6053.36 953.243 16
-6 -1 -1 6206.07 938.792 4
-6 1 0 5819.7 990.199 21
-6 -1 0 5504.65 930.189 9
-6 -1 0 6614.48 1004.91 16
-6 -1 0 7784.04 1032.66 17
-6 1 0 6633.73 1056.28 16
-6 1 0 5897.62 933.363 17
-6 -1 0 6809.33 1022.34 4
-6 1 0 5707.55 939.287 4
-6 -1 1 19627.1 1650.72 16
-6 -1 1 18527 1651.41 4
-6 1 1 19064.9 1693.96 4
-6 -1 1 17988.2 1578.09 11
-6 1 1 17782.4 1622.14 5
-6 1 1 16856.8 1571.99 16
-6 1 1 19772.9 1704.94 21
-6 -1 1 19958.6 1556.15 17
-6 1 1 18996.8 1578.84 17
-6 -1 1 19920.9 1650.59 20
-6 -1 2 9851.46 1221.48 4
-6 -1 2 8079.19 1161.28 12
-6 1 2 7544.33 913.741 10
-6 1 2 7865.56 1121.18 5
-6 1 2 8294.75 1121.68 4
-6 -1 2 8645.7 1178.51 14
-6 1 2 8497.24 1163.43 16
-6 -1 2 16784.1 1567.79 20
-6 -1 2 9557.6 1157.63 11
-6 1 2 8045.36 1130.46 14
-6 -1 2 9568.93 1154.24 16
-6 1 3 5746.32 915.876 11
-6 -1 3 5399.25 942.912 14
-6 -1 3 5461.5 841.136 16
-6 -1 3 4965.2 927.863 20
-6 1 3 4990.01 864.587 14
-6 -1 3 5774.26 918.202 11
-6 1 3 5223.28 779.985 10
-6 1 3 6242.7 992.022 4
-6 -1 3 6410.82 1029.1 4
-6 1 3 7110.63 1055.65 16
-6 -1 3 5025.41 957.364 12
-6 1 3 5823.15 995.995 5
-6 -1 4 1295.55 633.902 20
-6 -1 4 807.006 472.653 12
-6 1 4 394.981 340.244 10
-6 1 4 1377.21 559.079 5
-6 1 4 1119.04 519.575 4
-6 1 4 1811.22 593.78 14
-6 1 4 1166.07 490.257 11
-6 -1 4 1236.92 553.454 13
-6 -1 4 1416.64 568.612 11
-6 -1 4 1100.39 475.968 10
-6 -1 4 1472.64 583.879 16
-6 -1 4 1828.39 623.212 14
-6 1 4 1090.41 492.999 16
-6 -1 5 78454.1 3190.65 11
-6 -1 5 74457 3566.67 13
-6 1 5 76550.4 3027.33 10
-6 1 5 75995 3243.52 4
-6 1 5 77481.4 3001.68 11
-6 -1 5 76211.1 3578.35 20
-6 -1 5 74626.5 3590.76 12
-6 -1 5 71506.7 3335.1 14
-6 1 5 74130.4 3318.96 16
-6 1 5 71337.5 3310.37 14
-6 -1 5 71859.5 3046.05 16
-6 -1 5 78137.6 3274.69 10
-6 1 5 76515.2 3362.91 5
-6 1 6 6106.24 978.512 16
-6 -1 6 6666.45 1058.57 14
-6 -1 6 5637.38 880.434 11
-6 -1 6 5693.74 857.288 16
-6 1 6 6649.55 1048.87 14
-6 -1 6 5013.68 1029.55 13
-6 -1 6 6426.05 969.324 10
-6 1 6 6387.77 990.5 5
-6 1 6 5726.6 854.146 10
-6 1 6 5245.21 735.223 11
-6 -1 6 5034.16 984.705 20
-6 -1 6 4420.17 941.707 12
-6 -1 7 605.949 399.262 14
-6 1 7 253.476 317.603 16
-6 1 7 372.597 339.638 14
-6 -1 7 949.502 348.946 16
-6 -1 7 423.752 407.965 10
-6 -1 7 343.216 380.05 13
-6 -1 7 2582.59 950.151 12
-6 1 8 5790.76 890.494 14
-6 1 8 4561.72 765.617 16
-6 -1 8 5042.42 889.569 13
-6 -1 8 5455.03 849.441 14
-6 -1 9 6054.47 816.229 14
-6 1 9 6595.42 780.131 16
-6 1 9 5806.34 784.038 14
-6 -1 9 6068.19 916.935 13
-6 1 10 18069.5 1183.16 14
-6 -1 10 17671.7 1162.38 14
-6 1 10 16599.6 942.528 16
-6 -2 -9 2071.55 410.862 9
-6 2 -8 504.351 212.871 21
-6 -2 -8 282.785 316.489 9
-6 2 -8 -2.33717 174.677 17
-6 -2 -8 312.728 213.463 17
-6 2 -7 1621.5 465.567 17
-6 2 -7 2320.5 563.485 21
-6 -2 -7 1491.78 426.465 17
-6 -2 -7 1854.47 545.846 9
-6 -2 -6 3133.64 702.222 9
-6 2 -6 3807.65 708.24 17
-6 -2 -6 3816.32 722.745 17
-6 2 -6 2742.17 709.038 21
-6 2 -5 3608.9 787.26 21
-6 -2 -5 4169.88 836.242 9
-6 -2 -5 3732.98 738.466 17
-6 2 -5 2252.62 617.87 17
-6 -2 -4 4416 804.383 9
-6 2 -4 6174.26 1017.25 21
-6 2 -4 4697.02 905.037 17
-6 -2 -4 6076.59 961.109 17
-6 2 -3 26077.7 1798.82 4
-6 -2 -3 27109.2 1954.48 9
-6 2 -3 27735.6 2097.97 21
-6 -2 -3 29772.7 2054.62 17
-6 2 -3 27376.3 2092.57 17
-6 -2 -2 7455.32 1074.66 9
-6 2 -2 9410.9 1168.93 16
-6 2 -2 7947.25 1052.46 4
-6 -2 -2 8520.36 1104.06 17
-6 2 -2 7567.54 1128.63 21
-6 -2 -1 17722.7 1606.63 9
-6 2 -1 19865.4 1766.38 21
-6 -2 -1 16127.3 1456.13 11
-6 -2 -1 15980.1 1489.73 17
-6 2 -1 16063.5 1529.28 16
-6 2 -1 17575.6 1570.5 4
-6 -2 0 36988.6 2160.04 17
-6 -2 0 36725.5 2279.45 9
-6 -2 0 36632.2 2210.88 11
-6 2 0 36922.7 2319.74 16
-6 2 0 35933.3 2280.9 4
-6 2 0 40126.7 2441.92 21
-6 2 0 34706.5 2203.06 5
-6 -2 0 38397 2237.59 16
-6 -2 1 43749.5 2461.42 20
-6 2 1 39031.2 2282.58 17
-6 -2 1 42136.2 2327.39 16
-6 2 1 41406 2437.53 21
-6 2 1 40965.1 2445.79 16
-6 2 1 40320.2 2428.71 4
-6 -2 1 43967.4 2251.54 17
-6 -2 1 39247.1 2320.99 11
-6 2 1 41691.5 2458.19 5
-6 2 2 21359.9 1788.01 14
-6 -2 2 22341.8 1779.6 11
-6 2 2 23299.2 1869.43 4
-6 2 2 21866.6 1835.35 5
-6 -2 2 22293.2 1692.09 16
-6 -2 2 20945.9 1789.23 14
-6 2 2 21466 1822.37 16
-6 -2 2 22193.2 1807.18 12
-6 -2 2 23792.7 1910.85 20
-6 -2 3 101518 4062.53 12
-6 -2 3 103712 3868.05 14
-6 2 3 98526.5 3889.05 5
-6 -2 3 104978 4074.43 20
-6 2 3 104431 3889.58 4
-6 2 3 92456.3 3696.41 14
-6 2 3 96319.1 3863.05 16
-6 -2 3 104779 4008.75 13
-6 -2 3 107521 3624.94 16
-6 -2 3 102429 3773.02 11
-6 -2 4 12903.4 1253.93 16
-6 2 4 13439.7 1455.44 5
-6 -2 4 14265.8 1569.14 20
-6 -2 4 13272.6 1450.46 14
-6 -2 4 13955.5 1438.8 10
-6 2 4 13132.3 1257.87 11
-6 -2 4 12429.9 1453.38 13
-6 2 4 11927.5 1350.31 14
-6 2 4 13470.7 1399.35 4
-6 -2 4 13440.7 1374.99 11
-6 2 4 12553.1 1426.79 16
-6 -2 4 13559.6 1507.56 12
-6 2 5 14893.7 1522.51 16
-6 -2 5 12993.2 1539.94 12
-6 -2 5 15955.1 1508.62 10
-6 2 5 14091.2 1473.91 14
-6 -2 5 16568.8 1576.35 14
-6 2 5 16545.1 1637.32 5
-6 -2 5 15822.9 1483.05 11
-6 -2 5 16658.5 1691.97 20
-6 -2 5 15632.7 1649.24 13
-6 2 5 15666.8 1478.36 4
-6 -2 6 7487.85 1054.96 10
-6 2 6 9579.17 1212.41 16
-6 -2 6 9055.08 1262.82 20
-6 2 6 9273.88 1075.34 4
-6 -2 6 9221.87 1176.73 14
-6 -2 6 8986.58 1275.49 12
-6 -2 6 8915.13 1107.34 11
-6 2 6 9259.21 1191.42 5
-6 -2 6 8692.73 1260.88 13
-6 2 6 9772.65 1204.64 14
-6 -2 7 61.0326 344.732 10
-6 2 7 757.73 399.321 16
-6 -2 7 214.315 422.279 20
-6 2 7 364.438 333.487 14
-6 -2 7 -101.912 460.336 12
-6 2 7 540.801 290.027 5
-6 -2 7 245.339 389.318 13
-6 -2 7 828.942 394.642 14
-6 2 8 543.099 341.567 14
-6 2 8 136.599 299.058 16
-6 -2 8 1096.61 581.266 12
-6 -2 8 105.077 336.761 13
-6 -2 8 485.242 340.838 14
-6 -2 9 4195.63 724.117 13
-6 -2 9 3239.34 583.764 14
-6 2 9 3714.97 610.794 16
-6 2 9 3618.43 604.646 14
-6 2 10 10577.1 831.759 14
-6 -2 10 11012.4 843.988 14
-6 2 10 10487.2 801.081 16
-6 -3 -9 13980.4 962.357 9
-6 -3 -8 5148.04 712.847 9
-6 3 -8 5571.69 676.694 21
-6 -3 -8 5421.85 585.457 17
-6 3 -8 3878.16 528.514 17
-6 3 -7 452.204 269.029 17
-6 -3 -7 1211.84 373.689 17
-6 -3 -7 1245.72 504.267 9
-6 3 -7 1333.87 494.986 21
-6 3 -6 7466.37 1036.26 21
-6 -3 -6 8539.67 978.718 17
-6 -3 -6 7942.36 1015.85 9
-6 3 -6 7635.91 997.949 17
-6 3 -5 45009.3 2554.37 21
-6 3 -5 42002.1 2498.98 17
-6 -3 -5 44158.1 2329.54 17
-6 -3 -5 45727.3 2516.61 9
-6 3 -4 35821.6 2359.48 21
-6 -3 -4 32839.5 2194.41 9
-6 -3 -4 35788.2 2153.04 17
-6 3 -3 16836.6 1656.03 21
-6 -3 -3 17417.4 1598.81 9
-6 -3 -3 17228.1 1536.11 17
-6 -3 -3 20007 1471.55 11
-6 3 -3 17785.9 1499.52 4
-6 3 -2 16215.8 1504.72 4
-6 3 -2 19153.4 1749.49 21
-6 3 -2 18763.5 1598.45 16
-6 -3 -2 17396.3 1544.76 17
-6 -3 -2 15887.4 1415.83 11
-6 -3 -2 18005.7 1635.38 9
-6 3 -1 968.628 454.888 16
-6 3 -1 1225.52 524.955 5
-6 -3 -1 1385.02 480.17 17
-6 -3 -1 1036.25 449.381 11
-6 3 -1 802.374 492.696 21
-6 3 -1 1410.56 544.346 4
-6 -3 -1 713.753 468.609 9
-6 -3 0 3974.28 772.566 11
-6 3 0 4663.65 880.038 21
-6 -3 0 3970 814.12 9
-6 3 0 3757.33 799.545 4
-6 3 0 4048.82 796.837 5
-6 -3 0 4119.97 761.223 17
-6 3 0 5418.18 900.227 16
-6 -3 1 36709.5 2325.06 20
-6 -3 1 34365.7 2158.35 11
-6 3 1 35876.8 2333.93 4
-6 3 1 34728.5 2239 5
-6 -3 1 38034.8 2083.35 17
-6 3 1 36281.1 2300.56 16
-6 3 1 36540.5 2299.75 21
-6 3 2 301627 6681.15 16
-6 -3 2 327765 6015.08 16
-6 3 2 310701 6843.22 4
-6 -3 2 307931 6877.77 20
-6 -3 2 304845 6705.16 12
-6 3 2 300123 6711.94 5
-6 3 2 316086 6465.08 21
-6 -3 2 302911 6442.09 11
-6 -3 3 262904 5973.48 14
-6 3 3 257296 6321.35 5
-6 3 3 257660 6324.51 16
-6 -3 3 276320 6675.3 20
-6 3 3 256243 5951.57 14
-6 3 3 285307 6423.67 4
-6 -3 3 270828 6184.89 13
-6 -3 3 269375 6542.51 12
-6 -3 3 274604 6152.65 11
-6 -3 4 5681.36 992.577 13
-6 -3 4 5776.63 1014.81 12
-6 3 4 4949.87 925.718 5
-6 -3 4 5586.29 995.69 20
-6 -3 4 6000.56 988.561 11
-6 -3 4 4742.37 836.273 14
-6 -3 4 5073.59 915.982 10
-6 3 4 4991.84 913.602 4
-6 3 4 5465.14 914.235 14
-6 3 4 5414.75 958.935 16
-6 3 5 52655.2 2644.77 14
-6 -3 5 50924 2937.98 12
-6 -3 5 54599.1 2715.23 11
-6 -3 5 53400 2902.93 13
-6 -3 5 53392.7 2979.38 20
-6 3 5 53841.9 2843.93 5
-6 -3 5 53949.5 2737.96 10
-6 3 5 53263 2842.63 16
-6 3 5 52161.5 2630.75 4
-6 -3 5 53140.1 2644.22 14
-6 -3 6 14428.6 1350.89 14
-6 3 6 15322.6 1476.64 5
-6 -3 6 15266.9 1569.92 20
-6 3 6 13915.9 1254.02 4
-6 -3 6 16842.9 1655.23 13
-6 3 6 15223.2 1418.87 14
-6 -3 6 15545.5 1476.71 10
-6 3 6 15954.5 1549.47 16
-6 -3 6 14829.8 1580.4 12
-6 3 7 284.855 333.611 16
-6 -3 7 57.3061 346.579 14
-6 3 7 379.93 308.633 5
-6 -3 7 583.681 336.034 10
-6 -3 7 171.109 326.247 20
-6 -3 7 377.896 379.11 13
-6 -3 7 17.5748 516.376 12
-6 3 7 238.804 263.863 14
-6 -3 8 5975.98 907.652 13
-6 -3 8 6548.66 954.184 12
-6 3 8 5134.13 720.442 5
-6 3 8 5946.57 834.764 16
-6 3 8 4962.39 718.102 14
-6 -3 8 4662.25 693.085 14
-6 -3 8 6750.26 985.274 20
-6 -3 9 2289.65 534.564 13
-6 3 9 2434.61 441.394 14
-6 -3 9 1770.82 381.68 14
-6 -3 9 4891.73 806.661 12
-6 3 9 2478.04 500.114 16
-6 3 10 14103.3 886.161 16
-6 -4 -9 2723.76 391.603 9
-6 -4 -8 43419.3 1442.64 17
-6 -4 -8 52468.3 2003.57 9
-6 4 -8 34405.4 1368.97 17
-6 4 -8 47919.4 1842.46 21
-6 -4 -7 21571.3 1469.67 9
-6 4 -7 19341.4 1399.9 21
-6 -4 -7 17937.7 1174.48 17
-6 4 -7 14826.8 1148.19 17
-6 4 -6 21041.9 1597.12 17
-6 4 -6 20551.8 1611.16 21
-6 -4 -6 22542.4 1487.94 17
-6 -4 -6 19971.1 1554.25 9
-6 -4 -5 140790 4260.32 9
-6 4 -5 145210 4500.1 21
-6 -4 -5 150997 4064.02 17
-6 4 -4 108136 4006.88 21
-6 -4 -4 107397 3793.81 9
-6 -4 -4 107739 3623.61 17
-6 4 -3 63523.9 3111.96 21
-6 4 -3 65697.5 2880.79 4
-6 -4 -3 66134.9 2886.56 17
-6 -4 -3 65143.7 3022.41 9
-6 4 -2 22301.2 1644.96 16
-6 4 -2 20456.8 1802.02 21
-6 -4 -2 20415.3 1738.12 9
-6 -4 -2 20557.1 1652.43 17
-6 4 -2 21138.6 1721.17 4
-6 -4 -1 1097.59 432.335 17
-6 -4 -1 845.236 429.887 9
-6 4 -1 872.893 386.109 5
-6 -4 -1 764.532 403.636 11
-6 4 -1 306.044 365.442 21
-6 4 -1 1333.52 491.135 4
-6 4 -1 1286.07 445.115 16
-6 4 0 1686.08 493.047 5
-6 -4 0 1650.35 514.551 20
-6 4 0 1364.06 560.199 21
-6 4 0 1227.1 446.603 16
-6 -4 0 1390.35 444.154 11
-6 4 0 1242.42 483.162 4
-6 -4 0 2139.99 547.262 17
-6 -4 1 32540.4 1879.74 17
-6 4 1 32247.1 2214.55 4
-6 4 1 29901.3 2050.14 21
-6 -4 1 30894.2 2005.13 11
-6 4 1 29593.7 2019.2 16
-6 -4 1 30136.9 2140 20
-6 4 1 28780.2 2041.36 5
-6 4 2 3254.63 778.746 5
-6 -4 2 3775.31 788.303 20
-6 -4 2 3194.95 699.365 11
-6 4 2 3972.72 836.192 4
-6 4 2 2587.87 578.062 21
-6 4 2 3688.31 759.856 16
-6 -4 2 3075.05 725.039 12
-6 4 3 51755.7 2843.43 5
-6 -4 3 48541.4 2833.43 20
-6 4 3 50430.5 2718.46 4
-6 4 3 49866.8 2699.6 16
-6 -4 3 55828.4 2902.19 12
-6 -4 3 53544.5 2715.14 11
-6 -4 4 21170.6 1716.07 10
-6 -4 4 23871.5 1822.35 11
-6 -4 4 21293.1 1872.55 20
-6 -4 4 20827.9 1678.06 13
-6 4 4 22031.4 1735.67 4
-6 4 4 22562.7 1819.74 16
-6 -4 4 20904.8 1830.96 12
-6 4 4 22374.6 1883.25 5
-6 -4 5 2007.13 654.984 20
-6 4 5 1880.33 545.54 14
-6 4 5 1352.57 509.649 5
-6 -4 5 1331.61 509.123 10
-6 -4 5 1111.74 475.525 13
-6 4 5 1067.74 479.939 16
-6 4 5 1153.03 429.662 4
-6 -4 5 1243.89 588.543 12
-6 -4 5 2073.35 501.415 14
-6 4 6 49894 2248.75 14
-6 -4 6 55418.7 2597.8 10
-6 -4 6 54890.3 2854.56 20
-6 4 6 50458.2 2256.61 4
-6 4 6 58976 2802.33 16
-6 -4 6 48502.5 2535.42 13
-6 -4 6 52056.5 2763.84 12
-6 4 6 54522.3 2668.48 5
-6 -4 6 53890.9 2299.71 14
-6 4 7 11421.2 1145.25 5
-6 4 7 13436.8 1076.98 14
-6 -4 7 14052.6 1414.14 12
-6 -4 7 11930.9 1019.3 14
-6 -4 7 13656.6 1356.48 20
-6 -4 7 12658.9 1251.75 13
-6 4 7 14578.4 1337.4 16
-6 -4 7 12816.3 1197.81 10
-6 -4 8 2716.05 599.102 12
-6 4 8 3323.23 567.934 5
-6 -4 8 2747.77 600.228 20
-6 4 8 3610.42 636.628 16
-6 -4 8 2866.04 599.17 13
-6 -4 9 25029.4 1445.62 12
-6 -4 9 24993.8 1405.43 13
-6 4 9 24864.1 1351.66 16
-6 -5 -8 20747.5 1093.74 9
-6 5 -8 19001.9 1033.92 21
-6 -5 -8 14235.2 858.228 8
-6 -5 -7 2385.06 492.867 9
-6 -5 -7 1434.1 356.068 8
-6 5 -7 2186.91 411.562 17
-6 -5 -7 2270.74 376.151 17
-6 5 -7 2555.67 516.405 21
-6 -5 -6 1672.39 394.988 17
-6 5 -6 535.403 324.288 17
-6 -5 -6 56.5288 174.432 8
-6 -5 -6 1398.06 454.77 9
-6 5 -6 837.53 384.814 21
-6 -5 -5 7584.86 933.099 9
-6 -5 -5 6046.98 801.433 8
-6 -5 -5 8019.09 913.922 17
-6 5 -5 7601.96 1014.18 21
-6 5 -4 20019.4 1672.83 21
-6 -5 -4 20313.9 1487.31 17
-6 -5 -4 17348 1356.79 8
-6 -5 -4 21510.3 1631.29 9
-6 5 -4 18481.3 1341.57 4
-6 -5 -3 3346.28 680.24 17
-6 -5 -3 3711.75 754.452 9
-6 5 -3 3855.76 701.399 4
-6 5 -3 4020.44 801.318 21
-6 5 -2 1365.95 476.41 21
-6 -5 -2 892.291 461.575 9
-6 5 -2 1361.84 493.338 4
-6 -5 -2 661.285 376.75 17
-6 -5 -1 19618.5 1402.02 11
-6 5 -1 18831.1 1657.93 21
-6 5 -1 20180.2 1695.24 4
-6 -5 -1 18050.3 1484.7 17
-6 5 0 11263 1160 16
-6 5 0 10113.9 1153.29 5
-6 5 0 10401.1 1263.6 4
-6 -5 0 12288.1 1192.73 17
-6 -5 0 12118.9 1174.3 11
-6 -5 0 11820.2 1280.45 20
-6 5 0 10392.3 1229.88 21
-6 -5 1 5206.13 811.579 11
-6 5 1 4558.2 815.375 21
-6 5 1 5396.65 871.954 5
-6 -5 1 5027.43 753.517 17
-6 -5 1 5860.37 959.329 20
-6 5 1 5312.12 933.634 4
-6 5 1 5021.72 803.923 16
-6 -5 2 8571.38 1047.58 11
-6 5 2 7738.78 1100.55 4
-6 -5 2 7825.19 1117.62 20
-6 5 2 7817.46 1016.54 16
-6 5 2 6600.68 1021.54 5
-6 5 3 35592.6 2200.28 4
-6 5 3 36067 2298.23 5
-6 -5 3 33759.4 2154.72 12
-6 -5 3 37600.7 2388.94 20
-6 5 3 37712.7 2215.52 16
-6 -5 3 36500 2153.25 10
-6 -5 4 22523.4 1855.16 20
-6 5 4 21993.1 1672.97 4
-6 -5 4 24366.5 1733.68 10
-6 5 4 21531 1762.97 5
-6 5 4 25246.1 1795.23 16
-6 -5 4 21939.3 1798.38 12
-6 -5 5 9732.12 1095.57 10
-6 -5 5 9244.53 1188.92 20
-6 5 5 10137.8 1172.37 5
-6 -5 5 8106.19 967.642 13
-6 -5 5 9734.07 1170.02 12
-6 5 5 9115.11 998.734 4
-6 5 5 10740.1 1171.92 16
-6 -5 6 53993.2 2319.92 13
-6 -5 6 56306.9 2676.03 12
-6 5 6 59080.6 2558.68 16
-6 -5 6 57993.3 2444.7 10
-6 5 6 51845 2061.72 4
-6 -5 6 56882.4 2700.41 20
-6 5 6 58875.4 2605.52 5
-6 -5 7 118636 3624.53 12
-6 -5 7 111753 3484.37 20
-6 5 7 113802 3294.66 16
-6 -5 7 106396 3090.33 13
-6 5 7 120939 3363.8 5
-6 -5 8 18653.5 1176.37 13
-6 5 8 21720 1202.47 5
-6 -5 8 18467.3 1300.9 12
-6 5 8 19864.5 1240.68 16
-6 -5 8 19296.2 1271.93 20
-6 -5 9 7137.06 677.053 12
-6 5 9 6510.79 589.782 16
-6 -6 -7 700.174 205.64 8
-6 6 -7 1151.25 305.014 21
-6 -6 -7 586.533 210.266 9
-6 -6 -7 909.23 212.598 17
-6 -6 -6 2355.51 400.812 17
-6 -6 -6 2348.22 456.618 9
-6 6 -6 2706.75 526.624 21
-6 -6 -6 2337.02 419.58 8
-6 6 -6 2325.68 447.9 17
-6 -6 -5 5815.95 730.573 9
-6 6 -5 8139.25 937.239 21
-6 -6 -5 5083.32 645.42 8
-6 -6 -5 7569.32 788.186 17
-6 -6 -4 11690.1 1025.44 8
-6 6 -4 11329.3 979.79 4
-6 6 -4 14229.4 1281.94 21
-6 -6 -4 15585.9 1202.04 17
-6 -6 -4 13456.7 1147.08 9
-6 6 -3 365.045 211.17 4
-6 6 -3 967.21 445.022 21
-6 -6 -3 422.804 276.823 8
-6 -6 -3 883.536 365.426 9
-6 -6 -3 1673.42 441.007 17
-6 6 -2 8702.7 1032.25 21
-6 -6 -2 8692.21 969.174 17
-6 6 -2 9988.47 1129.38 4
-6 -6 -1 5556.81 813.93 20
-6 -6 -1 5271.96 797.355 17
-6 6 -1 4003.02 721.112 21
-6 6 -1 5116.9 878.93 4
-6 6 0 13642.8 1217.33 5
-6 6 0 14011.4 1235.79 21
-6 6 0 14592.5 1425.62 4
-6 -6 0 14229.8 1337.81 20
-6 -6 0 16074.3 1281.21 17
-6 6 1 3281.43 655.592 5
-6 -6 1 3529.22 602.441 17
-6 6 1 2674.6 663.902 4
-6 -6 1 3365.59 708.751 20
-6 6 2 40058.6 1967.13 16
-6 -6 2 37756.6 2275.18 20
-6 6 2 40956.6 2294.54 4
-6 6 2 39045.3 2205.94 5
-6 -6 2 41067.6 2134.91 10
-6 6 3 2528.26 594.967 4
-6 6 3 2560.74 614.032 5
-6 -6 3 2479.64 557.99 10
-6 6 3 3252.11 622.488 16
-6 -6 3 2314.15 619.045 20
-6 -6 3 2376.15 546.291 12
-6 6 4 90.1996 298.028 5
-6 -6 4 419.727 316.259 10
-6 -6 4 1213.66 462.356 20
-6 6 4 388.112 307.703 4
-6 6 4 621.537 302.702 16
-6 -6 4 648.24 325.55 12
-6 -6 5 11301.6 1123.17 12
-6 6 5 12019.8 1056.59 16
-6 6 5 13411.6 1239.1 5
-6 6 5 11123.4 970.971 4
-6 -6 5 12023.8 1202.35 20
-6 -6 5 12367.1 1055.82 10
-6 -6 6 12836.2 1159.24 20
-6 -6 6 12479.1 1133.25 12
-6 6 6 12752.8 1040.12 16
-6 -6 6 12777.6 981.068 10
-6 6 6 13597 1147.58 5
-6 -6 7 492.809 271.73 12
-6 6 7 687.525 292.075 5
-6 -6 7 393.519 271.882 20
-6 6 7 450.47 217.862 16
-6 -6 8 -391.998 239.914 12
-6 7 -6 2743.95 404.03 21
-6 -7 -5 1465.61 318.728 17
-6 7 -5 1311.96 331.88 17
-6 7 -5 1449.98 369.821 21
-6 -7 -5 640.61 217.304 8
-6 -7 -4 2986.49 474.396 17
-6 -7 -4 2221.95 390.381 8
-6 7 -4 2665.06 492.516 21
-6 -7 -3 284.022 221.696 17
-6 7 -3 731.236 293.715 21
-6 -7 -3 170.811 187.206 8
-6 7 -3 -43.7831 182.452 4
-6 7 -2 443.762 275.434 21
-6 7 -2 822.527 339.514 4
-6 -7 -2 608.371 298.576 17
-6 7 -1 3408.81 560.397 21
-6 -7 -1 3578.1 570.466 17
-6 7 -1 4018.51 708.553 4
-6 -7 -1 4246.82 626.053 20
-6 -7 0 6674.72 858.474 20
-6 -7 0 6180.1 707.075 17
-6 7 0 7082.41 902.272 4
-6 7 1 3518.4 683.186 4
-6 -7 1 3093.72 488.807 17
-6 -7 1 3804.33 659.411 20
-6 -7 1 3615.78 577.907 10
-6 7 1 4119.72 621.907 5
-6 -7 2 1485.25 355.523 10
-6 -7 2 2015.46 540.061 20
-6 7 2 2620.75 587.553 4
-6 7 2 2106.29 486.226 5
-6 7 3 7114.46 849.434 5
-6 -7 3 7449.85 758.918 10
-6 -7 3 7620.16 931.246 20
-6 7 3 7459.55 861.455 4
-6 7 4 2484.99 507.988 5
-6 -7 4 2660 433.372 10
-6 7 4 1846.44 446.024 4
-6 -7 4 2748.84 578.074 20
-6 -7 4 2232.2 457.111 12
-6 7 5 118.268 94.306 4
-6 -7 5 8837.06 899.126 20
-6 7 5 9856.99 919.289 5
-6 -7 5 7995.07 788.304 12
-6 7 6 20272.2 1166.5 5
-6 -7 6 19338.4 1181.54 20
-6 -7 6 18547.4 1117.22 12
-6 -8 -4 3054.56 376.731 17
-6 8 -4 1988.38 357.821 17
-6 8 -3 6971.84 592.803 4
-6 -8 -3 9207.23 703.106 17
-6 -8 -2 98.6527 170.981 17
-6 8 -2 -79.074 151.031 4
-6 -8 -1 -170.672 96.5218 20
-6 8 -1 18943.2 1195.49 4
-6 -8 -1 21344.7 1115.11 17
-6 8 0 231.434 266.526 4
-6 -8 0 380.232 255.299 20
-6 -8 1 1469.02 369.63 20
-6 8 1 1049.78 359.021 4
-6 8 2 1078.49 255.362 5
-6 -8 2 1311.01 374.464 20
-6 8 2 1195.86 345.35 4
-6 8 3 15306.6 963.608 5
-6 -8 3 15651.1 1113.13 20
-6 8 3 16051.7 998.336 4
-6 8 4 10680.2 785.743 5
-6 -8 4 10285 840.531 20
-6 -8 5 1548.15 308.852 20
-5 0 -10 6015.58 696.932 9
-5 0 -9 -662.819 366.043 9
-5 0 -8 1935.95 499.178 17
-5 0 -7 -712.395 429.76 17
-5 0 -6 137990 4173.75 21
-5 0 -6 140366 4404.85 17
-5 0 -5 -11.5875 294.78 9
-5 0 -5 -20.9217 348.418 17
-5 0 -5 115.088 261.876 21
-5 0 -4 115495 3858.91 21
-5 0 -4 120631 4101.66 17
-5 0 -4 118927 3798.36 9
-5 0 -3 224.066 428.133 21
-5 0 -3 -89.6271 278.623 9
-5 0 -3 627.949 338.762 17
-5 0 -2 52949.3 2612.8 17
-5 0 -2 49748.9 2442.01 16
-5 0 -2 47726.6 2452.85 21
-5 0 -1 546.023 232.654 16
-5 0 -1 848.058 356.693 21
-5 0 2 14030.2 1305.54 16
-5 0 2 11371.2 1232.49 13
-5 0 2 13160.7 1290.5 5
-5 0 2 11631.3 1224.26 14
-5 0 2 13564 1275.6 4
-5 0 3 -152.591 304.455 5
-5 0 3 320.675 218.565 11
-5 0 3 -320.607 254.341 13
-5 0 3 -228.564 282.052 14
-5 0 3 292.505 418.094 20
-5 0 3 -846.827 672.01 1
-5 0 3 395.294 303.44 4
-5 0 3 -301.699 271.844 16
-5 0 4 17600.6 1585.23 14
-5 0 4 19029.6 1689.77 13
-5 0 4 18284 1699.45 12
-5 0 4 17961.6 1563.11 5
-5 0 4 18001.8 1465.65 11
-5 0 4 17877.7 1516.93 4
-5 0 4 18513.4 1692.09 20
-5 0 4 17460.2 1443.5 10
-5 0 4 17402.2 1531.55 16
-5 0 4 15569 2816.32 1
-5 0 5 458.052 300.462 16
-5 0 5 746.299 356.322 14
-5 0 5 285.38 255.605 11
-5 0 5 761.909 349.521 10
-5 0 5 80.9613 392.822 1
-5 0 5 -1083.51 580.312 12
-5 0 5 567.518 420.152 13
-5 0 5 683.248 321.009 4
-5 0 5 144.758 353.716 5
-5 0 5 556.924 415.098 20
-5 0 6 101728 3945.3 14
-5 0 6 105718 3754.42 5
-5 0 6 101753 3670.31 10
-5 0 6 99660.1 4066.37 20
-5 0 6 106238 3486.08 11
-5 0 6 98029.5 4082.19 12
-5 0 6 100491 3738.52 16
-5 0 6 107701 7895.51 1
-5 0 7 289.815 344.053 10
-5 0 7 90.3132 380.688 13
-5 0 7 475.012 359.989 14
-5 0 7 530.66 330.736 16
-5 0 7 -358.622 517.077 12
-5 0 8 18937.9 1807.83 12
-5 0 8 14565 1603.98 13
-5 0 8 15685.4 1440.56 16
-5 0 8 13144.4 1445.7 14
-5 0 9 91.1374 294.181 13
-5 0 9 159.432 202.512 16
-5 0 9 487.87 442.999 14
-5 0 10 57143.1 2576.2 13
-5 0 10 58534.4 2628.79 14
-5 0 11 220.232 237.479 14
-5 0 12 5052.14 531.601 14
-5 -1 -11 9631.72 728.821 9
-5 -1 -10 1755.68 439.352 9
-5 -1 -8 72417.6 2664.5 17
-5 1 -8 75953.9 2818.19 17
-5 1 -7 1848.99 569.396 9
-5 1 -7 3998.73 753.128 21
-5 -1 -7 3666.35 730.373 17
-5 1 -7 4062.67 800.388 17
-5 1 -6 22493.9 1746.75 21
-5 1 -6 20243.2 1692.78 17
-5 -1 -6 19429.2 1610.64 17
-5 1 -5 77569.2 3282.36 21
-5 1 -5 81106.2 3445.58 17
-5 -1 -5 81045.1 3365.43 17
-5 1 -4 78214 3295.2 21
-5 1 -4 83025.6 3467 17
-5 -1 -4 83505.4 3157.8 21
-5 -1 -4 83928.6 3387.25 17
-5 -1 -4 74612.9 3156.06 9
-5 1 -3 5035.41 876.759 21
-5 -1 -3 4950.48 848.249 9
-5 -1 -3 4280.27 801.196 17
-5 -1 -3 4938.83 775.472 21
-5 1 -3 2922.95 650.731 16
-5 -1 -2 156174 4405.41 17
-5 -1 -2 153545 4249.56 21
-5 -1 -2 142889 4128.78 9
-5 1 -2 147778 4386.71 21
-5 -1 -2 155031 4297.94 16
-5 1 -2 152618 4322.8 16
-5 1 -2 147604 4057.29 4
-5 -1 -1 17390.3 1435.91 16
-5 -1 -1 17577.4 1471.7 21
-5 -1 -1 18114.6 1488.73 17
-5 1 -1 16683.8 1449.07 16
-5 1 -1 15684.4 1454.92 21
-5 -1 0 90344.7 3340.71 14
-5 1 0 86890 3295.65 14
-5 -1 0 91754.7 3297.45 21
-5 1 0 94676.9 3441.18 21
-5 1 0 87190.8 3237.81 16
-5 1 1 20676.6 1569.96 5
-5 -1 1 21085 1613.73 4
-5 1 1 23417.1 1680.26 21
-5 1 1 20801.6 1569.64 4
-5 1 1 20351.2 1595.91 14
-5 -1 1 19990.5 1565.51 14
-5 1 1 20054.7 1593.61 16
-5 -1 2 67446.1 2796.26 11
-5 1 2 59932.5 2754.69 14
-5 -1 2 65081.1 2849.28 14
-5 1 2 66502.5 2847.65 4
-5 1 2 65095.6 2848.66 5
-5 -1 2 71520.4 2958.46 4
-5 1 2 63651.7 2758.5 21
-5 -1 2 67457.9 2791.82 16
-5 1 2 67402.4 2898.43 16
-5 -1 3 4676.5 829.912 13
-5 -1 3 3597.18 740.922 14
-5 1 3 4203.56 830.426 13
-5 1 3 6657.44 1082.38 12
-5 -1 3 3697.97 688.759 11
-5 1 3 4276.05 795.026 5
-5 -1 3 3826.92 772.659 12
-5 -1 3 3865.01 770.931 20
-5 1 3 3859.98 749.066 14
-5 -1 3 4773.02 835.965 4
-5 1 3 3217.18 717.337 20
-5 1 3 5518.28 1595.97 1
-5 -1 3 4284.09 740.839 16
-5 -1 3 5248.89 1612.15 1
-5 1 3 5401.64 864.243 16
-5 1 3 4321.52 711.663 4
-5 1 3 2934.35 570.107 10
-5 1 4 1361.58 515.256 5
-5 -1 4 1588.48 534.314 14
-5 -1 4 1606.25 547.402 4
-5 1 4 535.702 358.66 11
-5 1 4 1576.31 582.481 13
-5 1 4 3354.14 868.837 12
-5 -1 4 1387.36 444.135 11
-5 -1 4 1318.14 567.328 20
-5 1 4 1341.55 535.229 20
-5 1 4 1292.14 501.089 16
-5 1 4 936.877 868.537 1
-5 1 4 1792.02 562.841 14
-5 1 4 874.033 494.506 4
-5 -1 4 6270.05 2038.04 1
-5 -1 4 1334.73 482.978 12
-5 -1 4 1837.15 524.087 10
-5 -1 4 774.613 413.364 16
-5 1 4 2119.13 496.021 10
-5 1 5 48103.9 2647.29 14
-5 -1 5 47763.2 5102.13 1
-5 -1 5 50826.9 2882.09 20
-5 1 5 48623.8 2792.82 13
-5 1 5 51039.2 2952.4 12
-5 -1 5 49926 2906.05 12
-5 -1 5 47458.4 2506.87 10
-5 1 5 51217 2669.89 5
-5 1 5 50795.7 2353.27 11
-5 1 5 48509.7 2385.76 10
-5 -1 5 53602.5 2810.22 14
-5 1 5 50106.9 2564.74 4
-5 -1 5 50468 2505.07 16
-5 1 5 49284.5 2653.77 16
-5 -1 5 51128.6 2538.48 11
-5 1 5 51809.5 5200.83 1
-5 -1 6 3553.09 818.809 12
-5 1 6 3442.01 867.308 13
-5 1 6 2833.84 645.85 10
-5 -1 6 3384.12 697.002 16
-5 -1 6 3194.7 677.146 11
-5 -1 6 6732.69 2036.79 1
-5 -1 6 3875.36 874.629 20
-5 1 6 2365.35 641.762 14
-5 -1 6 3049.55 710.759 10
-5 1 6 2679.32 1260.83 1
-5 1 6 2853.19 588.187 4
-5 1 6 4384.89 839.885 16
-5 -1 6 3239.84 763.967 14
-5 1 6 3583.68 762.853 5
-5 1 7 24424.4 2035.78 13
-5 1 7 23138.1 1864.27 16
-5 1 7 24495.2 1808.02 5
-5 -1 7 23917.6 1726.2 16
-5 -1 7 25334.1 1913.41 10
-5 -1 7 25563.6 2091.24 20
-5 -1 7 23484.7 2021.49 12
-5 -1 7 25696.2 2019.45 14
-5 1 7 22471.2 1884.51 14
-5 -1 8 2007.52 659.694 12
-5 1 8 3669.94 760.024 14
-5 -1 8 3162.57 750.189 14
-5 1 8 2662.19 691.623 13
-5 -1 8 4164.12 960.561 20
-5 1 8 3476.42 771.13 16
-5 -1 9 418.462 323.877 14
-5 -1 9 1522.54 598.668 12
-5 1 9 -194.635 353.565 14
-5 1 9 427.674 276.83 16
-5 1 9 473.359 356.816 13
-5 -1 10 18176.1 1450.27 14
-5 -1 10 18158 1493.78 13
-5 1 10 17663.1 1309.54 16
-5 1 10 19438.3 1497.47 14
-5 1 11 19428.3 1279.4 14
-5 -1 11 22382.3 1374.67 14
-5 -1 11 21209.8 1348.75 13
-5 1 11 16692.3 993.778 16
-5 -1 12 2402.02 357.529 14
-5 1 12 2122.46 339.08 14
-5 -2 -11 858.207 242.208 9
-5 -2 -10 617.824 322.698 9
-5 -2 -9 1046.16 409.461 9
-5 2 -8 6022.72 845.541 21
-5 2 -8 5402.05 741.821 17
-5 -2 -8 6210.13 748.891 17
-5 -2 -7 129337 3836.29 17
-5 2 -7 124072 4060.86 21
-5 2 -7 127769 4043 17
-5 2 -6 7301.31 1055.71 17
-5 -2 -6 8782.89 1099.98 17
-5 2 -6 7611.3 1105.71 21
-5 -2 -5 3116.18 680.43 17
-5 -2 -5 3738.24 800.859 9
-5 2 -5 2492.87 694.376 21
-5 -2 -4 10149.9 1223.39 9
-5 -2 -4 11113.7 1236.67 17
-5 2 -4 10213.2 1271.1 21
-5 2 -3 41337.4 2183.1 4
-5 -2 -3 41949.5 2378.1 9
-5 -2 -3 44727.9 2420.61 17
-5 2 -3 40548.7 2422.96 21
-5 2 -3 40182.7 2250.78 16
-5 2 -2 29206.3 1872.69 4
-5 2 -2 29367.8 2038.14 21
-5 -2 -2 33750.4 2049.71 17
-5 2 -2 30736.4 1953.13 16
-5 -2 -2 27554.9 1884.22 9
-5 -2 -1 53338.6 2572.76 9
-5 2 -1 57182.2 2756.09 21
-5 2 -1 56485 2614.26 4
-5 -2 -1 56585.5 2586.4 17
-5 -2 -1 56007.1 2526.94 16
-5 2 -1 56382 2618.45 16
-5 2 0 152845 4318.36 4
-5 2 0 151463 4224.48 5
-5 2 0 156012 4468.81 21
-5 -2 0 155522 4319.63 4
-5 -2 0 148471 4219.78 9
-5 -2 0 155321 4160.7 17
-5 -2 0 157557 4181.77 16
-5 2 0 151456 4326.52 16
-5 2 1 18795.2 1525.08 14
-5 -2 1 19175.4 1540.63 14
-5 2 1 20740.3 1614.63 4
-5 2 1 20200.3 1599.52 5
-5 -2 1 20074.9 1550 11
-5 -2 1 21848.3 1666.58 4
-5 2 1 21043.4 1611.64 21
-5 -2 1 17792.2 1482.75 9
-5 2 1 19458.9 1600.81 16
-5 -2 1 21798.2 1543.51 16
-5 2 2 38167.2 2216.06 14
-5 -2 2 46000 2432.28 13
-5 2 2 41603.7 2326.59 5
-5 -2 2 40377.1 2253.73 14
-5 2 2 43958.9 2316.35 21
-5 2 2 41734.1 2296.2 4
-5 -2 2 43345.7 2429.06 20
-5 -2 2 42953.5 2287.83 11
-5 -2 2 41465.6 2135.56 16
-5 -2 2 41227.8 2344.01 12
-5 2 2 38856.6 2274.36 16
-5 -2 3 233341 5501.51 14
-5 2 3 236389 5633.84 5
-5 -2 3 245952 5544.61 11
-5 2 3 227801 5472.14 14
-5 2 3 233288 5500.21 4
-5 -2 3 233423 5861.19 12
-5 2 3 239855 10069.2 1
-5 2 3 227617 5611.4 16
-5 -2 3 241672 5225.57 16
-5 -2 3 227119 5762.79 20
-5 -2 4 69706.2 5926.67 1
-5 2 4 66332.1 5555.05 1
-5 2 4 68464.5 3095.22 5
-5 2 4 64810.7 3002.59 14
-5 -2 4 65604.6 3227.93 12
-5 -2 4 64569.9 2907.91 10
-5 2 4 66019.7 2922.16 4
-5 -2 4 68587.4 3255.99 20
-5 2 4 63744.2 2622.96 11
-5 -2 4 67559.7 2960.08 11
-5 2 4 65056.6 3074.41 16
-5 -2 4 53358.9 2742 14
-5 -2 4 59436 3031.89 15
-5 2 5 9654.99 2223.46 1
-5 -2 5 7738.26 1087.69 14
-5 2 5 8928.58 1105.83 4
-5 -2 5 8893.33 2368.69 1
-5 2 5 8979.76 1165.4 14
-5 -2 5 8864.46 1113.52 11
-5 -2 5 9839.34 1193.52 10
-5 -2 5 6890.32 1097.59 15
-5 2 5 9736.54 1256.33 16
-5 2 5 7172.01 1056.81 5
-5 -2 5 8911.76 1238.08 20
-5 -2 5 8395.83 1248.43 12
-5 2 6 13658.1 1448.73 14
-5 -2 6 13331.3 1413.48 14
-5 -2 6 13299 1527.17 12
-5 -2 6 15277.8 1435.21 11
-5 2 6 15470.2 1498.79 5
-5 2 6 12742.8 1282.71 4
-5 -2 6 13149.1 1395.22 10
-5 -2 6 13505.6 1529.59 20
-5 2 6 13452.1 1471.41 16
-5 -2 6 14706 1613.36 15
-5 2 7 1671.9 557.276 14
-5 -2 7 1240.03 512.425 10
-5 2 7 1092.44 494.274 5
-5 2 7 1567.36 597.432 16
-5 -2 7 1380.73 564.131 20
-5 -2 7 1396.63 612.532 15
-5 -2 7 1793.67 643.505 12
-5 -2 7 1355.88 571.872 14
-5 -2 8 2079.1 618.662 14
-5 2 8 2392.45 534.715 19
-5 -2 8 1337.27 556.046 12
-5 2 8 2400.29 624.199 5
-5 2 8 2278.55 642.955 16
-5 2 8 1865.91 578.612 14
-5 -2 8 2334.13 684.227 15
-5 -2 8 1543.6 548.118 20
-5 -2 9 16186.7 1450.68 14
-5 2 9 17060.8 1276.31 19
-5 2 9 20643.1 1608.49 14
-5 -2 9 18531.2 1634.1 12
-5 2 9 17325.1 1505 16
-5 2 10 232.579 267.816 14
-5 -2 10 2811.35 722.29 12
-5 -2 10 124.377 203.958 14
-5 -2 10 121.302 296.824 13
-5 2 10 341.006 230.336 16
-5 2 11 33459.3 1541.13 14
-5 -2 11 38125.2 1661.97 14
-5 -2 11 33871 1690.85 13
-5 2 11 35500.4 1527.61 16
-5 -3 -11 696.468 209.628 9
-5 -3 -10 7382.75 790.885 9
-5 -3 -9 32032.5 1865.19 9
-5 3 -9 29034.4 1565.81 21
-5 -3 -8 22625.7 1716 9
-5 -3 -8 20299 1324.44 17
-5 3 -8 18754.2 1372.12 17
-5 3 -8 21433.2 1577.95 21
-5 3 -7 99918.4 3720.7 21
-5 -3 -7 99738.2 3750.09 9
-5 -3 -7 103060 3334.63 17
-5 3 -7 104035 3675.21 17
-5 -3 -6 10309.6 1269.32 9
-5 -3 -6 10897.6 1180.42 17
-5 -3 -5 65734.4 3123.55 9
-5 -3 -5 65673.7 2954.69 17
-5 -3 -4 19866.8 1738.73 9
-5 -3 -4 20449.3 1664.37 17
-5 -3 -3 3499.94 780.79 9
-5 3 -3 3528.61 692.724 16
-5 -3 -3 3673.99 708.705 17
-5 3 -3 4756.65 779.094 4
-5 -3 -2 37047.6 2016.55 11
-5 -3 -2 36077.3 2226.34 9
-5 3 -2 38040.5 2207.84 4
-5 3 -2 34492.7 2063.56 16
-5 -3 -2 39894.1 2248.82 17
-5 3 -2 35569.3 2294.81 21
-5 3 -1 22404.7 1618.14 5
-5 -3 -1 20051.9 1519.25 11
-5 3 -1 19184.4 1590.96 4
-5 -3 -1 19786 1625.64 9
-5 3 -1 19973.2 1696.12 21
-5 -3 -1 21043.6 1609.16 17
-5 3 -1 22367.7 1675.1 16
-5 -3 0 8741.09 1027.48 11
-5 3 0 8764.49 1067.68 5
-5 -3 0 10308.5 1160.38 20
-5 -3 0 8477.09 1090.82 9
-5 3 0 8300.37 1097.87 21
-5 3 0 9663.64 1161.72 4
-5 -3 0 10570.1 1113.53 17
-5 3 0 9497.88 1119.45 16
-5 3 1 84460.2 3218.72 14
-5 -3 1 87519.5 3227.1 14
-5 3 1 85118.2 3308.01 21
-5 3 1 81186 3264.72 5
-5 3 1 83040.7 3367.64 4
-5 -3 1 85541.9 3235.11 11
-5 -3 1 87211.1 3032.12 17
-5 -3 1 83553.5 3272.62 9
-5 3 1 86924 3364.86 16
-5 -3 1 82001.3 3353.4 20
-5 3 2 53847.7 2599.11 14
-5 -3 2 61180.7 2735.09 14
-5 -3 2 60122.5 2764.82 11
-5 -3 2 63265.1 3016.48 20
-5 3 2 63338 2744.51 21
-5 -3 2 61217.4 2908.39 12
-5 3 2 55235 2752.44 5
-5 3 2 56657.8 2805.59 16
-5 3 2 57261.9 2768.1 4
-5 3 3 12194.9 1267.49 14
-5 -3 3 10170.8 1142.72 14
-5 -3 3 11276.5 1230.97 11
-5 -3 3 13623.8 1481.1 20
-5 3 3 11649 1344.5 5
-5 3 3 12757.3 1233.28 21
-5 -3 3 10229.2 1250.58 12
-5 3 3 10689.6 1233.13 4
-5 3 3 10938.3 1292.7 16
-5 -3 4 31226 2043.05 14
-5 -3 4 32547.5 2322.85 12
-5 -3 4 34120.4 2341.81 20
-5 -3 4 33292.5 2131.17 10
-5 3 4 29702.4 2026.72 4
-5 -3 4 33665.6 2157.88 11
-5 3 4 29804.2 2112.3 16
-5 3 4 31688.4 2172.6 5
-5 3 4 33314 2107.2 14
-5 -3 4 31443 2178.71 15
-5 3 5 1934.69 548.006 14
-5 -3 5 1717.58 514.265 14
-5 3 5 2175.77 657.672 5
-5 -3 5 1987.32 578.514 10
-5 -3 5 2440.88 622.226 11
-5 -3 5 2059.38 654.211 12
-5 -3 5 1868.42 635.038 15
-5 3 5 2155.92 637.579 16
-5 3 5 1667.4 502.73 4
-5 -3 5 1872.2 601.555 20
-5 -3 6 1245.94 571.818 12
-5 -3 6 -17.0495 277.369 10
-5 3 6 775.371 368.342 14
-5 -3 6 739.949 515.984 15
-5 -3 6 554.887 446.292 20
-5 3 6 107.325 247.512 4
-5 3 6 1200.11 531.733 5
-5 -3 6 825.956 408.711 14
-5 3 6 893.633 511.828 16
-5 -3 7 12964.1 1511.3 12
-5 3 7 11894.6 1276.81 14
-5 -3 7 12183.2 1304.6 14
-5 -3 7 11686.3 1504.06 20
-5 -3 7 11317.6 1291.61 10
-5 3 7 12120.4 1375.08 16
-5 3 7 12658.2 1330.97 5
-5 -3 7 11956 1478.4 15
-5 -3 8 13398.7 1472.33 15
-5 3 8 14736.6 1362.28 14
-5 -3 8 12759.7 1269.34 14
-5 -3 8 14779.6 1514.81 12
-5 3 8 12656.4 1249.33 5
-5 -3 8 13799.1 1487.44 20
-5 3 8 15622.5 1521.97 16
-5 -3 9 36.2023 405.314 12
-5 3 9 275.732 219.781 14
-5 -3 9 -64.9305 221.068 14
-5 -3 9 1293.99 546.509 20
-5 3 9 364.089 351.917 16
-5 -3 9 340.168 377.587 15
-5 3 10 2901.97 518.568 14
-5 -3 10 2800.94 506.419 14
-5 -3 10 2371.65 549.12 12
-5 3 10 3749.8 639.009 16
-5 3 11 880.146 232.365 14
-5 -3 11 632.264 192.147 14
-5 -3 11 1026.63 324.396 13
-5 3 11 1565.76 364.548 16
-5 -4 -10 22453 1216.33 9
-5 -4 -9 715.075 351.195 9
-5 4 -9 417.394 265.641 21
-5 4 -8 2260.88 572.334 21
-5 -4 -8 2673.99 474.11 17
-5 4 -8 2287.54 492.899 17
-5 -4 -8 3527.82 748.45 9
-5 -4 -7 6537.07 826.227 17
-5 -4 -7 7336.47 1005.22 9
-5 4 -7 6534.09 908.484 17
-5 -4 -6 30885.9 2089.89 9
-5 -4 -6 29918.7 1874.37 17
-5 -4 -5 27342.1 2013.94 9
-5 -4 -5 25819.4 1853.83 17
-5 4 -4 6380.71 888.23 4
-5 -4 -4 6005.4 909.389 17
-5 -4 -4 5677.59 960.648 9
-5 -4 -3 53115.3 2769.19 9
-5 4 -3 54477.1 2675.24 4
-5 -4 -3 56170.6 2748.33 17
-5 -4 -2 3282.25 742.17 9
-5 -4 -2 3489.34 730.733 17
-5 4 -2 3607.5 759.533 4
-5 4 -2 3956.14 699.637 16
-5 -4 -1 5298.01 763.287 11
-5 4 -1 2900 674.515 4
-5 4 -1 4226.29 765.594 5
-5 -4 -1 4145.66 802.227 9
-5 4 -1 3543.97 788.814 21
-5 -4 -1 3476.05 711.501 17
-5 -4 -1 2799.09 636.581 20
-5 4 -1 3888.64 717.408 16
-5 4 0 5256.67 827.466 5
-5 -4 0 5403.12 812.134 11
-5 -4 0 3808.95 768.23 20
-5 -4 0 5124.61 861.1 9
-5 4 0 4309.65 810.551 21
-5 4 0 4825.09 862.65 4
-5 -4 0 6876.05 924.398 17
-5 4 0 4933.12 805.671 16
-5 -4 1 580.566 315.3 17
-5 -4 1 311.736 192.26 11
-5 4 1 1539.31 478.777 5
-5 4 1 439.519 322.902 21
-5 -4 1 943.867 404.463 20
-5 4 1 721.476 452.6 4
-5 4 1 296.564 300.628 18
-5 4 1 1642.91 493.783 16
-5 -4 2 791.557 428.581 12
-5 -4 2 359.24 256.298 17
-5 -4 2 491.366 285.596 11
-5 4 2 381.758 273.333 18
-5 4 2 401.074 343.943 21
-5 4 2 1091.96 437.965 4
-5 -4 2 452.491 378.199 20
-5 4 2 395.287 292.065 16
-5 -4 3 6712.15 1092.78 12
-5 -4 3 8600.9 1106.68 11
-5 -4 3 9298.18 1281.06 20
-5 4 3 6279.87 997.999 4
-5 4 3 7236.81 1038.17 16
-5 -4 4 5594 892.242 10
-5 4 4 6932.68 1003.75 4
-5 -4 4 5102.37 953.818 20
-5 -4 4 6751.67 1015.48 15
-5 4 4 5550.85 946.648 16
-5 -4 4 6897.51 1043.52 11
-5 -4 4 6575.11 1084.05 12
-5 4 5 84994.1 3206.85 14
-5 -4 5 84845.7 3177.45 14
-5 -4 5 77971.3 3284.69 10
-5 4 5 80637.9 3227.48 4
-5 -4 5 75102.2 3545.75 20
-5 -4 5 79867.7 3489.58 15
-5 4 5 81692.3 3516 5
-5 4 5 76712.8 3428.62 16
-5 -4 5 81338.8 3724.16 12
-5 -4 6 5211.12 976.769 15
-5 -4 6 5323.53 788.619 14
-5 4 6 4225.84 770.187 14
-5 -4 6 5747.59 1052.84 12
-5 4 6 5453.62 928.727 5
-5 -4 6 4748 849.519 10
-5 -4 6 4838.17 966.56 20
-5 4 6 4915.21 921.11 16
-5 4 7 6115.77 877.17 14
-5 -4 7 5858.43 849.913 14
-5 4 7 5796.17 950.876 5
-5 -4 7 6506.83 1045.65 20
-5 -4 7 5289.16 862.512 10
-5 -4 7 5475.27 1005.76 12
-5 4 7 5821.7 979.733 16
-5 -4 7 6065.32 972.929 15
-5 4 8 40957.5 2011.98 14
-5 -4 8 39073.4 1968.04 14
-5 4 8 39403.8 2114.67 5
-5 -4 8 41198.8 2393.42 20
-5 -4 8 41962 2483.82 12
-5 -4 8 39484.5 2380.8 15
-5 4 8 40690.1 2346.14 16
-5 -4 9 22324.9 1322.5 14
-5 -4 9 23243 1689.89 12
-5 4 9 21243.6 1323.37 5
-5 -4 9 20328.5 1519.12 20
-5 4 9 25681.2 1719.84 16
-5 -4 9 23712.2 1692.87 15
-5 -4 10 765.34 291.848 12
-5 4 10 1542.7 436.273 16
-5 -4 11 2417.06 413.037 13
-5 4 11 2744.19 392.566 16
-5 -5 -10 265.936 152.003 8
-5 5 -9 7969.99 749.898 21
-5 -5 -9 8021.39 782.102 9
-5 -5 -8 24388.7 1530.94 9
-5 5 -8 20783.7 1453.14 21
-5 -5 -8 21385 1147.34 17
-5 -5 -7 2904.99 634.347 9
-5 -5 -7 2485.15 473.889 17
-5 -5 -6 5251.28 774.944 17
-5 -5 -6 4886.4 813.559 9
-5 -5 -5 3297.51 674.931 17
-5 -5 -5 3712.69 764.275 9
-5 -5 -4 54272.1 2630.78 17
-5 -5 -4 52375.7 2717 9
-5 5 -4 52579.7 2536.75 4
-5 -5 -3 185722 5092.67 9
-5 5 -3 189483 5016.63 4
-5 -5 -3 206733 5099.68 17
-5 -5 -2 1001.52 450.389 17
-5 -5 -2 1300.32 475.506 9
-5 -5 -2 1314.62 477.071 8
-5 5 -2 4.26499 489.394 4
-5 -5 -1 15799.1 1445.83 8
-5 -5 -1 14615.9 1441.41 9
-5 5 -1 16051.9 1573.36 4
-5 5 -1 14817.5 1508.35 21
-5 -5 -1 17435.4 1487.6 17
-5 -5 -1 15766.5 1509.01 20
-5 5 0 19000.7 1720.15 4
-5 -5 0 20402.2 1574.25 11
-5 -5 0 21405.6 1811.21 20
-5 5 0 19476 1646.29 5
-5 5 0 18614 1611.96 21
-5 -5 0 19313.7 1633.08 9
-5 -5 0 20592.3 1601.31 17
-5 -5 1 1078.26 441.627 17
-5 -5 1 1627.18 546.054 11
-5 5 1 541.698 305.213 18
-5 5 1 1334.99 448.025 21
-5 -5 1 452.689 349.251 20
-5 5 1 967.831 438.03 4
-5 5 1 852.797 383.936 16
-5 -5 2 10053.4 1169.96 11
-5 -5 2 10195.3 1224.37 12
-5 -5 2 10734.5 1053.4 17
-5 5 2 10438.8 1207.4 16
-5 -5 2 9258.59 1280.15 20
-5 5 2 10706.9 1235.99 18
-5 5 2 13075.9 1404.35 4
-5 5 3 3678.69 730.363 18
-5 -5 3 3813.29 809.535 12
-5 -5 3 3418.05 810.355 20
-5 5 3 3884.71 814.692 4
-5 5 3 3726.46 776.039 16
-5 -5 4 14900.2 1591.12 20
-5 -5 4 11715.2 1252.37 10
-5 5 4 14497.9 1426.7 4
-5 5 4 11917.8 1245.23 18
-5 -5 4 13398.2 1501.74 12
-5 5 4 13978.5 1418.91 16
-5 -5 4 10685.4 1248.39 15
-5 -5 5 110524 4326.58 12
-5 -5 5 110014 3787.9 10
-5 5 5 110377 3680.36 4
-5 -5 5 113271 4315.77 20
-5 5 5 117641 3762 18
-5 5 5 105050 3906.49 16
-5 -5 5 103014 3776.15 15
-5 5 6 19310.1 1678.33 5
-5 -5 6 21311.3 1834.86 20
-5 -5 6 19842.9 1687.79 15
-5 -5 6 20903.1 1854.1 12
-5 5 6 19855.2 1662.06 16
-5 -5 6 21590.2 1650.54 10
-5 -5 7 198.231 378.712 12
-5 -5 7 646.021 399.236 20
-5 -5 7 150.44 276.853 10
-5 5 7 368.271 361.875 5
-5 5 7 717.505 433.004 16
-5 -5 7 564.171 386.811 15
-5 -5 8 743.712 361.775 15
-5 -5 8 697.085 417.099 20
-5 5 8 661.948 369.376 5
-5 -5 8 1325.41 539.652 12
-5 5 8 1185.28 454.813 16
-5 -5 9 -95.2377 275.456 12
-5 -5 9 389.769 261.635 20
-5 5 9 287.034 256.888 5
-5 5 9 582.482 302.656 16
-5 -5 10 143.666 223.867 12
-5 -5 10 757.166 267.329 13
-5 5 10 827.486 276.629 16
-5 6 -9 4184.18 470.374 21
-5 -6 -9 4036.1 477.863 8
-5 -6 -8 17686.7 1207.2 8
-5 -6 -8 18485.6 1116.94 9
-5 6 -8 16757.8 1172.3 21
-5 -6 -7 7604 725.733 17
-5 -6 -7 7805.53 843.587 9
-5 6 -7 6728.98 871.132 21
-5 6 -7 5829.16 732.684 17
-5 -6 -6 2942.67 543.716 17
-5 -6 -6 3024.97 591.891 9
-5 -6 -5 13332.2 1259.75 9
-5 -6 -5 14720.3 1245.22 17
-5 -6 -4 2441.55 638.553 8
-5 -6 -4 2450.95 582.566 9
-5 6 -4 2362.83 563.926 4
-5 -6 -4 2716.45 617.069 17
-5 -6 -3 922.273 474.955 9
-5 -6 -3 949.602 462.394 8
-5 6 -3 1163.31 383.063 4
-5 -6 -3 1574.46 535.899 17
-5 6 -2 12558.9 1339.58 4
-5 -6 -2 11138.9 1223.21 20
-5 -6 -2 14151.3 1418.58 8
-5 -6 -2 11607.9 1260.44 9
-5 6 -2 10237 1285.62 21
-5 -6 -2 13400.9 1323.49 17
-5 -6 -1 68528.5 2951.95 8
-5 6 -1 61031.2 3008.71 4
-5 6 -1 60546.8 2928.66 21
-5 -6 -1 68120 3165.34 20
-5 -6 -1 72241.1 2991.72 17
-5 -6 -1 64808.8 2886.79 9
-5 6 0 1285.34 489.073 5
-5 -6 0 1101.13 344.423 8
-5 6 0 1316.19 456.576 21
-5 -6 0 1672.27 461.644 17
-5 -6 0 1824.48 586.555 20
-5 6 0 2104.36 644.477 4
-5 -6 1 9516.75 1286.84 20
-5 6 1 8974.73 1218.35 4
-5 -6 1 9120.64 1025.72 17
-5 -6 2 77829 3321.7 12
-5 6 2 83273.1 3490.02 18
-5 -6 2 84489.4 3697.67 20
-5 6 2 83768.3 3501.21 4
-5 -6 2 77815.8 2848 17
-5 -6 3 58403.6 2984.86 12
-5 6 3 62969.3 2978.69 18
-5 -6 3 58823 3092.79 20
-5 -6 3 59189.2 2692.79 10
-5 6 3 61380.1 2932.63 4
-5 6 3 65329.2 2827.58 16
-5 -6 4 13440.6 1477.44 12
-5 -6 4 10950.1 1369.19 20
-5 6 4 12630.3 1306.25 18
-5 -6 4 11685.3 1194.23 10
-5 6 4 10937.3 1205.96 4
-5 6 4 12061.5 1235.54 16
-5 -6 5 6954.59 1086.12 12
-5 -6 5 7912.63 948.634 10
-5 6 5 6127.92 836.578 4
-5 -6 5 6330.12 1036.86 20
-5 6 5 7510.5 931.248 18
-5 6 5 8163.35 1031.21 16
-5 6 6 10263.3 1019.9 18
-5 -6 6 9665.2 1224.55 12
-5 -6 6 8398.27 950.456 10
-5 -6 6 11820.1 1312.97 20
-5 6 6 9367.82 1122.19 5
-5 6 6 10804 1139.41 16
-5 -6 6 7927.41 951.546 15
-5 -6 7 3383.54 721.033 12
-5 -6 7 3615.94 661.78 20
-5 6 7 3547.33 653.456 5
-5 6 7 3348.88 641.62 16
-5 -6 8 1325.59 440.825 12
-5 6 8 1607.15 389.354 5
-5 -6 8 923.585 353.665 20
-5 6 8 914.256 358.737 16
-5 -6 9 1947.3 391.085 13
-5 -6 9 1782.17 392.476 12
-5 6 9 1315.5 281.547 5
-5 6 9 1620.18 354.302 16
-5 7 -8 8087.39 652.136 21
-5 -7 -8 7479.59 614.255 8
-5 -7 -7 15711.9 861.172 17
-5 7 -7 16841.7 1150.86 21
-5 -7 -7 16133 1090.4 8
-5 -7 -7 16948.2 938.189 9
-5 7 -7 9617.56 743.06 17
-5 -7 -6 4090.01 628.195 8
-5 -7 -6 3565.27 540.883 9
-5 7 -6 4049.32 677.306 21
-5 -7 -6 3314.8 505.423 17
-5 -7 -5 5138 686.967 17
-5 -7 -5 3188.58 623.914 8
-5 7 -5 3289.78 653.215 21
-5 -7 -5 3476.57 579.27 9
-5 7 -4 24899.5 1737.39 21
-5 7 -4 24403.9 1571.25 4
-5 -7 -4 21345.5 1612.12 8
-5 -7 -4 28757 1686.68 17
-5 -7 -4 24346.9 1515.09 9
-5 -7 -3 790.316 345.586 9
-5 7 -3 297.151 351.099 21
-5 -7 -3 1109.84 446.711 8
-5 7 -3 280.314 260.298 4
-5 -7 -3 382.915 291.101 17
-5 -7 -2 8896.53 1054.33 20
-5 7 -2 7487.28 979.356 21
-5 7 -2 9613.13 1152.68 4
-5 -7 -2 9318.84 1024.25 17
-5 -7 -2 8558.25 1050.01 8
-5 7 -1 23912.7 1815.62 4
-5 -7 -1 23204.5 1645.8 8
-5 7 -1 22126.5 1630.82 21
-5 -7 -1 24065 1811.08 20
-5 -7 -1 23168.1 1609.56 17
-5 7 0 5840.09 837.626 5
-5 7 0 5886.81 967.884 4
-5 -7 0 6311.56 1000.72 20
-5 -7 0 5251.99 788.976 8
-5 -7 0 5131.85 768.707 17
-5 -7 1 81722.9 2879.57 8
-5 7 1 73569.4 3223.94 4
-5 -7 1 75095.6 3324.98 20
-5 -7 1 77796.4 2833.31 17
-5 -7 2 44917.2 2347.88 12
-5 -7 2 41676.6 1956.78 17
-5 -7 2 43303 2090.39 10
-5 7 2 41750.2 2372.91 4
-5 -7 2 43954.6 2568.31 20
-5 7 2 41421.7 2383.59 18
-5 -7 3 11662.4 1245.62 12
-5 7 3 13129.1 1337.34 18
-5 -7 3 12246.4 1094.43 10
-5 7 3 12213.7 1248.02 4
-5 -7 3 11014.7 1300.75 20
-5 -7 4 3329.76 688.907 12
-5 7 4 3256.61 640.83 18
-5 -7 4 2814.81 670.662 20
-5 7 4 2774.38 577.116 4
-5 -7 5 8450.78 1050.35 12
-5 7 5 7360.99 880.697 18
-5 7 5 7101.86 802.598 4
-5 -7 5 8281.98 1045.44 20
-5 7 5 8141.57 856.867 16
-5 -7 6 4106.92 717.268 12
-5 7 6 3877.32 564.256 18
-5 -7 6 3699.29 685.321 20
-5 7 6 4471.67 621.909 16
-5 7 6 5036.32 744.555 5
-5 -7 7 1029.78 377.458 12
-5 -7 7 1272.92 368.436 20
-5 7 7 548.5 292.651 5
-5 7 7 1267.71 329.055 16
-5 7 8 208.583 164.413 5
-5 -7 8 213.606 159.781 20
-5 -7 8 412.054 232.039 12
-5 7 8 244.172 125.716 16
-5 8 -6 5778.9 620.204 21
-5 -8 -6 6445.87 608.727 8
-5 -8 -5 37878.8 1651.9 8
-5 8 -5 37442.7 1662.13 21
-5 -8 -5 34043.3 1448.94 17
-5 -8 -4 634.402 259.748 8
-5 8 -4 1008.21 353.332 21
-5 8 -4 1116.53 335.507 4
-5 -8 -4 440.51 260.372 17
-5 -8 -3 6140.6 733.168 17
-5 8 -3 5648.77 729.603 4
-5 8 -3 5761.54 729.016 21
-5 -8 -3 5206.06 689.197 8
-5 8 -2 370.199 283.443 21
-5 -8 -2 901.599 298.742 17
-5 8 -2 1317.14 437.515 4
-5 -8 -2 555.308 287.721 8
-5 -8 -2 796.393 296.115 20
-5 8 -1 8663.94 1010.65 4
-5 -8 -1 7955.09 869.562 17
-5 -8 -1 7889.92 958.77 20
-5 -8 -1 8059.41 867.329 8
-5 -8 0 907.196 418.499 20
-5 -8 0 277.445 254.09 17
-5 8 0 1368.95 475.906 4
-5 -8 0 1319.05 420.58 8
-5 -8 1 49248 2468.64 20
-5 8 1 52420.1 2456.97 4
-5 -8 1 48090.4 1999.28 17
-5 8 1 46496 2091.62 5
-5 8 2 7195.84 875.596 5
-5 -8 2 7263.52 968.065 20
-5 8 2 6670.46 892.892 4
-5 8 3 3282.92 632.413 5
-5 8 3 4023.6 644.796 4
-5 -8 3 3258.69 593.304 12
-5 -8 3 3675.5 688.566 20
-5 -8 4 3396.2 603.284 12
-5 -8 4 4355.61 742.482 20
-5 8 4 3341.56 548.213 4
-5 8 4 5224.2 743.787 5
-5 -8 5 547.538 328.855 12
-5 8 5 197.987 282.302 5
-5 -8 5 542.145 285.678 20
-5 -8 6 3574.26 553.329 12
-5 -8 6 4148.01 550.387 20
-5 8 6 3925.52 556.117 5
-5 -8 7 1358.61 268.886 12
-5 8 7 1493.65 301.776 5
-5 -9 -4 29186.5 1170.8 8
-5 -9 -3 17139 977.054 8
-5 9 -3 16067.8 976.088 4
-5 -9 -2 287.954 145.708 20
-5 9 -2 603.913 279.044 4
-5 -9 -2 349.085 180.915 8
-5 9 -1 17183.6 1178.88 4
-5 -9 -1 17647.2 1153.43 20
-5 9 0 29202.2 1561.95 4
-5 -9 0 29113.8 1565.22 20
-5 9 1 11260.6 966.467 4
-5 -9 1 11239.3 1003.24 20
-5 9 2 523.53 211.033 5
-5 -9 2 539.792 295.611 20
-5 9 2 1097.14 334.477 4
-5 -9 3 314.152 259.857 20
-5 9 3 666.933 252.874 5
-5 9 3 315.912 213.327 4
-5 9 4 7819.61 690.15 5
-5 -9 4 7568.42 731.08 20
-5 9 5 4590.2 486.69 5
-5 -9 5 4091.1 474.89 20
-4 0 -12 5479.08 530.481 9
-4 0 -12 6262.61 629.141 3
-4 0 -11 143.403 211.568 3
-4 0 -10 877.282 390.599 3
-4 0 -9 97.7495 295.281 3
-4 0 -8 69288.8 3182.05 3
-4 0 -7 -462.692 268.457 3
-4 0 -7 -699.588 313.541 17
-4 0 -6 163357 4517.94 17
-4 0 -5 10.7472 182.408 17
-4 0 2 112132 5967.05 1
-4 0 3 -10.5102 627.397 1
-4 0 4 94431.7 6030.43 1
-4 0 5 13.314 513.896 1
-4 0 6 12790.7 1231.06 10
-4 0 6 12666.1 2568.77 1
-4 0 6 15853.3 1564.37 12
-4 0 6 13066.3 1222.42 5
-4 0 6 11545.5 1342.4 20
-4 0 6 12782.7 1372.76 15
-4 0 6 11543.4 1205.05 16
-4 0 7 -605.161 683.461 1
-4 0 7 -213.934 410.887 12
-4 0 7 -224.217 319.883 10
-4 0 7 -243.617 357.429 20
-4 0 7 96.8889 308.642 15
-4 0 7 296.13 282.422 16
-4 0 8 17850.2 1711.22 12
-4 0 8 21339.9 1608.96 19
-4 0 8 20292.5 1653.85 16
-4 0 8 20621.9 1795.58 15
-4 0 9 1629.1 600.233 12
-4 0 9 -88.2901 155.205 19
-4 0 9 402.06 310.402 16
-4 0 9 336.355 318.796 15
-4 0 10 79994.6 2915.85 19
-4 0 10 76833.6 2871.08 16
-4 0 11 307.384 273.118 13
-4 0 11 676.93 276.9 19
-4 0 11 687.009 421.507 14
-4 0 12 89125.3 2770.76 14
-4 0 12 -157.296 155.883 19
-4 0 13 138.895 119.794 14
-4 -1 -12 5810.93 575.061 3
-4 1 -12 4959.08 546.665 3
-4 -1 -11 3821.77 621.976 3
-4 1 -11 4542.3 699.649 3
-4 1 -10 11049 1207.29 3
-4 -1 -10 10869.7 1166.88 3
-4 1 -9 3356.69 763.276 3
-4 -1 -9 4155.72 822.876 3
-4 1 -8 4445.99 830.374 3
-4 -1 -8 5518.2 908.481 3
-4 1 -7 6224.43 1018.41 3
-4 1 -7 7215.03 953.946 17
-4 -1 -7 7905.82 964.714 17
-4 -1 -7 5649.76 897.568 3
-4 -1 -6 6448.88 915.862 17
-4 1 -6 5735.7 882.869 17
-4 -1 -5 38491.1 2127.17 17
-4 1 1 239585 8341.23 1
-4 1 2 121439 6102.23 1
-4 -1 2 119775 6337.52 1
-4 1 3 393390 11550.4 1
-4 -1 3 346915 11172.8 1
-4 1 4 93968.1 6002.02 1
-4 -1 4 83989 5786.85 1
-4 1 5 15593.4 1484.61 12
-4 -1 5 14616.5 1448.21 12
-4 1 5 17335.7 2833.52 1
-4 -1 5 14474.7 1297.57 10
-4 -1 5 15948.6 1475.31 20
-4 1 5 13329.1 1368.59 20
-4 -1 5 15748.3 1489.05 15
-4 -1 5 17022.4 2777.47 1
-4 -1 6 1347.12 508.708 15
-4 -1 6 1990.73 628.515 12
-4 1 6 792.953 401.194 12
-4 1 6 1115.48 866.331 1
-4 -1 6 1272.73 417.123 11
-4 -1 6 2572.73 653.393 20
-4 1 6 2412.56 678.056 5
-4 1 6 1750.42 509.307 10
-4 -1 6 1647.33 494.798 10
-4 1 6 3077.34 711.981 20
-4 -1 6 3771.91 1348.06 1
-4 -1 6 766.92 339.644 16
-4 1 6 1146.58 490.059 16
-4 1 7 10047.8 1314.02 12
-4 -1 7 11412.4 1365.91 12
-4 1 7 8561.87 1022.18 5
-4 -1 7 7914.87 2091.81 1
-4 -1 7 10036.1 1202.94 10
-4 -1 7 9826.52 1267.63 20
-4 -1 7 10134.6 1309.27 15
-4 1 7 9014.05 1164.8 16
-4 1 7 9237.18 1018.84 19
-4 1 7 9825.81 2511.94 1
-4 -1 8 7475.51 1132.35 12
-4 1 8 6549.74 892.424 19
-4 -1 8 6174.74 1058.19 20
-4 -1 8 7023.31 1132.51 15
-4 1 8 6287.07 992.184 16
-4 1 9 2752.7 664.85 13
-4 -1 9 3501.56 769.059 15
-4 1 9 1908.42 571.887 19
-4 1 9 2174.67 613.932 16
-4 -1 9 1703.24 591.948 12
-4 1 10 23460.6 1722.67 13
-4 -1 10 23963.9 1759.97 12
-4 1 10 22306.1 1589.63 19
-4 1 10 22239.2 1682.98 16
-4 -1 10 24896.2 1869.45 15
-4 1 11 28353.5 1614.09 19
-4 -1 11 32001.2 1933.59 14
-4 1 11 35135 1991.62 14
-4 1 11 29277.6 1648.88 16
-4 1 12 3178.8 530.612 14
-4 -1 12 3640.73 574.751 14
-4 -1 12 3216.38 523.902 13
-4 1 12 2422.42 397.888 19
-4 -2 -12 1103.25 286.851 9
-4 -2 -11 505.277 266.842 3
-4 2 -11 280.362 301.724 3
-4 2 -10 446.941 287.282 3
-4 -2 -10 560.564 299.185 3
-4 2 -9 8166.51 1133.18 3
-4 -2 -9 8780.46 1107.54 3
-4 -2 -8 6958.57 1004.33 3
-4 -2 -7 83978 3329.83 3
-4 -2 -7 77018.3 2947.45 17
-4 2 -7 70379.7 3016.5 17
-4 -2 -6 5639.25 840.326 17
-4 -2 -5 50457.6 2456.95 17
-4 2 2 387845 10659.3 1
-4 -2 2 351457 11055.5 1
-4 -2 3 747915 16598.4 1
-4 2 3 801974 16376.1 1
-4 2 4 10497.9 2036.54 1
-4 -2 4 11048.4 2177.54 1
-4 -2 5 51050.5 2509.78 14
-4 -2 5 56705.2 2550.77 11
-4 2 5 56728.8 2765.56 13
-4 -2 5 54520.8 2818.57 12
-4 -2 5 53750.7 2753.92 15
-4 -2 5 54994.6 2543.03 10
-4 -2 5 52901.7 2732.77 20
-4 2 5 55920.9 4984.3 1
-4 2 5 55162.1 2637.79 14
-4 -2 5 56030.3 5077.21 1
-4 2 5 57542 2753.18 16
-4 2 6 73949.9 3208.1 13
-4 -2 6 71866.8 3378.93 12
-4 -2 6 72897.7 3337.8 15
-4 2 6 77018.3 6204.58 1
-4 2 6 73179.9 3043.01 5
-4 -2 6 74527.5 2985.23 11
-4 -2 6 73094.7 3320.68 20
-4 2 6 70355.6 2862.16 19
-4 -2 6 66846.2 2964.62 10
-4 2 6 69053.6 3172.77 16
-4 -2 6 74134.5 6121.38 1
-4 2 7 134180 4091.85 5
-4 2 7 125956 4009.26 19
-4 -2 7 124057 8162.04 1
-4 2 7 127687 4330.85 13
-4 -2 7 122813 4174.74 10
-4 -2 7 122731 4394.1 20
-4 2 7 133303 8575.06 1
-4 -2 7 120295 4420.71 12
-4 2 7 126110 4360.04 16
-4 -2 7 118016 4398.18 15
-4 2 8 4934.95 827.8 19
-4 -2 8 6586.75 986.995 10
-4 2 8 7308.89 1087.94 13
-4 -2 8 5860.27 1011.87 12
-4 -2 8 5243.97 986.44 20
-4 2 8 5847.37 987.114 16
-4 -2 8 4524.28 869.814 15
-4 2 9 12303.7 1323.32 13
-4 -2 9 11828.4 1383.23 12
-4 -2 9 11298.7 1324.81 20
-4 2 9 13705.6 1350.72 19
-4 2 9 14042.5 1459.54 16
-4 -2 9 11530.5 1395.62 15
-4 -2 10 5727.14 904.637 14
-4 -2 10 6044.73 899.361 12
-4 2 10 5654.02 869.67 16
-4 2 10 6300.86 863.357 19
-4 2 10 6762.91 967.833 14
-4 -2 10 7821.26 1081.83 15
-4 2 11 11469.3 1105.37 14
-4 -2 11 10831.4 1070.57 14
-4 2 11 11406.6 1074.83 16
-4 2 11 10993.9 1034.52 19
-4 2 12 289.473 197.798 14
-4 -2 12 467.073 263.728 14
-4 -2 12 353.579 230.663 13
-4 2 12 454.996 229.006 19
-4 2 12 292.584 196.221 16
-4 -3 -12 4507.38 477.544 9
-4 -3 -11 1080.32 313.68 3
-4 3 -11 823.158 305.743 3
-4 3 -10 2580.87 575.903 3
-4 -3 -10 3015.16 587.827 3
-4 -3 -9 25103.8 1760.24 3
-4 3 -9 23485.3 1821.53 3
-4 -3 -8 163415 4671.27 3
-4 -3 -7 38623.2 2244.07 3
-4 -3 -7 38053.1 2055.9 17
-4 -3 -6 13381.5 1280.99 17
-4 -3 -5 3513.55 666.357 17
-4 -3 -4 19922.6 1511.78 17
-4 -3 -3 11744.4 1145.45 17
-4 3 2 19040.1 2327.85 1
-4 -3 3 25651.4 3155.78 1
-4 3 3 18442.5 2467.92 1
-4 -3 4 66386.2 5278.03 1
-4 -3 4 70029.1 3172.78 12
-4 3 4 66613.9 4957.35 1
-4 -3 4 72280 2896.07 11
-4 3 4 66424.3 2937.05 16
-4 -3 4 67473.2 2975.13 15
-4 -3 4 68064.7 3066.5 20
-4 -3 5 148496 8194.05 1
-4 3 5 144950 4204.14 14
-4 -3 5 137621 4481.9 15
-4 -3 5 146668 4212.98 14
-4 -3 5 146996 4770.35 12
-4 -3 5 141936 4239.82 11
-4 -3 5 142464 4197.9 10
-4 3 5 142238 3998.33 4
-4 -3 5 144415 4616.47 20
-4 3 5 145629 7871.6 1
-4 3 5 139459 4438.38 16
-4 3 5 146792 4134.26 19
-4 -3 6 8589.01 1232.37 15
-4 3 6 8007.9 1062.5 14
-4 -3 6 6843.62 990.516 14
-4 3 6 6656.76 953.604 19
-4 3 6 6496.44 2102.64 1
-4 -3 6 7930.81 2129.98 1
-4 -3 6 7548.46 1042.84 10
-4 -3 6 7633.98 1110.54 20
-4 -3 6 7540.86 1167.51 12
-4 3 6 8920.12 1182.79 16
-4 -3 7 39692.3 2589.38 15
-4 -3 7 40007.3 2344.19 14
-4 -3 7 35751.5 2455.64 12
-4 3 7 39874.4 2332.04 14
-4 -3 7 37700 2294.29 10
-4 -3 7 40100.6 2535.5 20
-4 3 7 36430.6 4601.45 1
-4 3 7 36673.7 2257.63 5
-4 3 7 37839.2 2273.22 19
-4 3 7 38187.3 2480.32 16
-4 -3 7 39761.7 4727.76 1
-4 3 8 6276.34 945.557 14
-4 -3 8 5299.19 866.225 14
-4 3 8 5975.5 927.139 19
-4 -3 8 5104.99 940.085 12
-4 3 8 5827.3 886.621 5
-4 -3 8 5109.75 883.34 20
-4 3 8 5857.51 974.346 16
-4 -3 8 5519.49 1018.67 15
-4 -3 9 3304.29 783.278 15
-4 -3 9 3735.3 760.004 20
-4 3 9 4868.13 825.204 14
-4 -3 9 3222.52 674.342 14
-4 3 9 4787.53 823.506 19
-4 -3 9 4477.15 875.883 12
-4 3 9 5011.18 896.9 16
-4 -3 10 3227.52 620.642 14
-4 -3 10 4563.62 829.052 15
-4 -3 10 3069.96 671.276 12
-4 3 10 3396.92 667.46 19
-4 3 10 4745.85 794.507 16
-4 3 10 3763.22 687.785 14
-4 -3 11 8658.16 875.582 14
-4 3 11 9673.19 900.928 14
-4 -3 11 8256.94 863.957 12
-4 3 11 8797.04 887.757 19
-4 3 11 10532.2 1018.41 16
-4 -3 11 9689.78 1036.05 15
-4 -3 12 12596.7 785.222 14
-4 -3 12 17185 1079.46 13
-4 3 12 17416.2 1026.14 16
-4 4 -11 1117.34 307.103 3
-4 -4 -11 1668.45 363.682 9
-4 -4 -11 878.895 205.599 3
-4 4 -10 9151.36 977.318 3
-4 -4 -10 7599.44 830.914 3
-4 4 -10 9326.24 866.766 21
-4 -4 -9 10293.7 1072 3
-4 -4 -8 17563.6 1482.33 3
-4 -4 -7 15747 1292.47 17
-4 -4 -7 14559.4 1356.81 3
-4 -4 -6 13056 1243.49 17
-4 -4 -5 108632 3591.56 17
-4 4 -4 42350.1 2200.61 4
-4 -4 -4 43072.4 2267.62 17
-4 -4 -3 45102.2 2422.49 9
-4 4 -3 45528.4 2298.85 4
-4 -4 -3 50609.2 2409.25 17
-4 -4 -2 3320.94 656.947 17
-4 4 -2 3605.82 678.468 4
-4 -4 -2 2771.83 636.75 9
-4 -4 -1 19051.4 1495.06 9
-4 4 -1 18621.3 1503.05 4
-4 -4 -1 18977.4 1430.29 17
-4 4 -1 21295 1623.77 18
-4 4 0 32296.6 1947.22 4
-4 4 1 19550 1519.76 4
-4 -4 2 10199.2 1082 11
-4 -4 2 8086.81 1077.86 20
-4 4 2 11341.4 1172.41 4
-4 4 3 47658.8 2379.72 18
-4 -4 3 44135.3 2524.36 12
-4 -4 3 49117.1 2643.22 20
-4 4 3 43773.9 2292.5 4
-4 4 3 46474.7 2428.26 16
-4 -4 3 48738.9 2404.35 11
-4 -4 4 86925.1 3414.14 15
-4 -4 4 89547.2 3712.5 12
-4 -4 4 85620.4 3313.23 11
-4 -4 4 86601 3231.94 10
-4 4 4 83625.2 3170.46 4
-4 -4 4 89592.9 3670.53 20
-4 4 4 87354.7 3458.47 16
-4 4 5 7186.08 972.499 19
-4 -4 5 6851.58 1047.9 15
-4 -4 5 7068.68 1109.47 12
-4 -4 5 7789.72 1056.24 10
-4 4 5 6389.87 904.041 4
-4 -4 5 7619.78 1123.12 20
-4 -4 5 6487.76 1714.11 1
-4 4 5 7743.25 1089.08 16
-4 -4 6 54880.5 2986.55 15
-4 -4 6 50402 2602.02 10
-4 -4 6 49630.6 2896.64 12
-4 -4 6 55445.8 5326.44 1
-4 -4 6 48774.6 2819.18 20
-4 4 6 54466.5 2711.23 19
-4 4 6 51022.7 2811.87 16
-4 -4 7 80705.6 3669.21 15
-4 4 7 82715.2 3173.78 14
-4 -4 7 83074.1 3166.7 14
-4 -4 7 74776.1 3577.28 12
-4 -4 7 75375.6 3198.78 10
-4 -4 7 70602.8 3332.6 20
-4 4 7 84851.8 3388.8 19
-4 4 7 78151.3 3521.91 16
-4 4 8 40852.3 2198.1 14
-4 -4 8 39784.2 2164.18 14
-4 4 8 41338.5 2286.99 5
-4 -4 8 40405.5 2594.51 12
-4 -4 8 42424.5 2496.08 20
-4 4 8 41546.1 2343.17 19
-4 4 8 43066.2 2583.42 16
-4 -4 8 42776.3 2621.76 15
-4 4 9 1152.57 361.131 14
-4 -4 9 805.363 285.614 14
-4 4 9 757.054 407.852 19
-4 -4 9 1005.13 467.999 12
-4 4 9 580.085 313.186 5
-4 -4 9 712.767 349.588 20
-4 -4 9 219.323 398.965 15
-4 4 9 275.464 342.754 16
-4 -4 10 3167.2 574.269 14
-4 -4 10 2527.91 565.452 12
-4 4 10 3573.75 707.525 16
-4 4 10 2370.45 547.105 19
-4 -4 10 2570.46 588.399 15
-4 -4 11 9290.02 835.649 12
-4 4 11 12006.7 1022.33 16
-4 -4 11 9929.37 982.986 15
-4 -4 12 -246.426 161.844 13
-4 4 12 -125.751 140.635 16
-4 -5 -11 4151.73 435.188 9
-4 -5 -10 4564.48 542.673 3
-4 -5 -10 5915.85 684.479 9
-4 5 -10 4835.31 635.951 3
-4 5 -10 6197.14 664.649 21
-4 -5 -9 31487.5 1690.86 3
-4 -5 -9 36778.7 1938.83 9
-4 -5 -8 5639.84 812.09 3
-4 -5 -7 44848 2302.42 3
-4 -5 -7 45630.5 2116.22 17
-4 -5 -6 33097.6 1934.89 17
-4 -5 -5 225668 5648.6 9
-4 -5 -5 247129 5440.27 17
-4 -5 -4 74866.6 3189.33 9
-4 5 -4 72844 2990.88 4
-4 -5 -4 75919.3 3076.37 17
-4 -5 -3 20798.1 1641.97 9
-4 5 -3 21876 1686.94 4
-4 -5 -3 21208.7 1624.71 17
-4 -5 -2 768.289 366.67 20
-4 -5 -2 1409.16 463.023 9
-4 -5 -2 238.856 245.162 17
-4 5 -2 859.713 419.903 4
-4 5 -1 1719.25 497.032 18
-4 -5 -1 1899.86 538.061 17
-4 -5 -1 1389.23 498.936 9
-4 5 -1 1545.45 503.252 4
-4 -5 -1 1100.54 420.706 8
-4 -5 -1 994.877 360.291 20
-4 -5 0 12544.4 1255.39 8
-4 -5 0 12842.1 1357.7 20
-4 -5 0 11803.1 1138.59 11
-4 5 0 10614.6 1231.9 18
-4 5 0 11647.6 1287.6 4
-4 -5 0 11876.1 1169.22 17
-4 -5 0 11527.5 1196.22 9
-4 -5 1 47376 2499.68 12
-4 -5 1 51415.3 2417.61 11
-4 5 1 51335.6 2644.07 18
-4 -5 1 52316.3 2489.6 9
-4 -5 1 52273 2764.04 20
-4 -5 1 50199.5 2381.22 8
-4 5 1 45820.1 2485.85 4
-4 -5 1 52040.9 2346.65 17
-4 5 2 164748 4667.02 4
-4 5 2 175909 4903.49 18
-4 -5 2 180094 4635.77 11
-4 -5 2 177837 5152.92 20
-4 -5 2 181011 4236.17 17
-4 -5 2 178557 5089.97 12
-4 5 2 179374 4661.6 16
-4 -5 3 8220.65 1173.43 12
-4 5 3 9674.13 1157.84 4
-4 5 3 9108.03 1138.94 18
-4 -5 3 9251.78 1235.4 20
-4 5 3 9925.63 1159.03 16
-4 -5 4 12329.3 1322.17 15
-4 -5 4 13281.3 1536.93 12
-4 5 4 12789.8 1363.17 16
-4 -5 4 12933.9 1457.73 20
-4 -5 4 12483.4 1263.69 10
-4 5 4 12208.8 1280.77 4
-4 5 4 11683.9 1304.89 18
-4 -5 5 4115.82 873.529 15
-4 -5 5 3521.66 853.427 12
-4 -5 5 4505.34 800.228 10
-4 -5 5 4365.39 876.678 20
-4 5 5 3575.54 672.531 4
-4 5 5 3705.11 763.082 16
-4 -5 6 7828.09 1201.4 12
-4 -5 6 7487.44 1021.43 10
-4 -5 6 7511.21 1118.77 20
-4 -5 6 7781.3 1121.16 15
-4 5 6 6751.7 1049.22 16
-4 -5 7 1843.33 663.986 15
-4 -5 7 1961.99 640.228 12
-4 -5 7 2257.54 611.386 10
-4 -5 7 1955.71 618.993 20
-4 5 7 2175.09 609.824 16
-4 -5 8 34646.8 2257 15
-4 -5 8 35277.2 2188.74 20
-4 -5 8 34572.1 2312.17 12
-4 5 8 34977.1 2214.18 16
-4 -5 9 2376.2 648.953 15
-4 5 9 2044.03 449.931 5
-4 -5 9 2453.62 603.993 12
-4 -5 9 2132.39 534.379 20
-4 5 9 2180.29 598.408 16
-4 -5 10 37978.3 1911.74 12
-4 5 10 44114.3 2078.13 16
-4 -5 10 46924.9 2208.98 15
-4 -5 11 891.797 314.636 15
-4 5 11 1394.46 327.623 16
-4 -6 -10 3840.48 489.516 8
-4 6 -10 4782.86 500.46 21
-4 -6 -10 4625.5 455.885 9
-4 -6 -9 2661.26 482.288 9
-4 -6 -9 1490.03 314.289 3
-4 -6 -8 18379.5 1256.38 3
-4 -6 -8 20353.7 1402.33 9
-4 -6 -7 3531.62 582.422 17
-4 -6 -7 2660.44 560.498 3
-4 -6 -7 2769.37 596.201 9
-4 -6 -6 15930.8 1411.37 9
-4 -6 -6 16151.3 1315.66 17
-4 -6 -5 23277 1754.05 9
-4 -6 -5 25325.7 1732.07 17
-4 -6 -4 56907.6 2743.64 9
-4 6 -4 58233.8 2725.19 4
-4 -6 -4 60292.7 2712.28 17
-4 -6 -3 4300.44 776.435 9
-4 -6 -3 4514.57 813.703 17
-4 6 -3 4573.8 834.067 4
-4 -6 -3 4719.31 833.006 20
-4 -6 -2 3311.77 698.528 9
-4 -6 -2 4287.03 859.282 20
-4 -6 -2 3700.52 702.785 17
-4 6 -2 3612.88 765.661 4
-4 -6 -2 3951.98 780.48 8
-4 -6 -1 5674.71 954.708 8
-4 -6 -1 6078.04 998.734 20
-4 -6 -1 5314.08 828.376 9
-4 6 -1 5535.81 945.558 18
-4 -6 -1 4943.46 837.156 17
-4 6 -1 4792.67 875.483 4
-4 6 0 22069.3 1848.8 18
-4 -6 0 21290.2 1728.15 8
-4 -6 0 19716.5 1558.84 9
-4 -6 0 22512.5 1896.81 20
-4 -6 0 22577.2 1665.93 17
-4 6 0 21024.9 1769.71 4
-4 -6 1 38819.2 2337.25 12
-4 6 1 38008 2396.12 18
-4 -6 1 38856.3 2493.81 20
-4 -6 1 38277.1 2180.15 8
-4 6 1 37049.6 2318.15 4
-4 -6 1 36351.3 2038.84 17
-4 6 2 11429.7 1337.54 18
-4 -6 2 11699.8 1195.18 8
-4 -6 2 11935.3 1388.59 12
-4 -6 2 13312.5 1501.41 20
-4 6 2 11799.2 1319.21 4
-4 -6 2 11783.5 1126.24 17
-4 -6 3 2058.18 648.415 12
-4 6 3 1162.29 448.466 18
-4 -6 3 1826.92 493.041 10
-4 6 3 1260.98 518.615 4
-4 -6 3 1231.26 552.653 20
-4 6 3 1488.75 478.027 16
-4 -6 4 248883 6442.28 12
-4 6 4 240449 5915.34 18
-4 -6 4 217162 5960.32 20
-4 -6 4 229780 5174.78 10
-4 6 4 227983 5497.05 4
-4 6 4 228096 5510.73 16
-4 6 5 9762.99 1188.78 18
-4 -6 5 9552.52 1333.47 12
-4 -6 5 11134.7 1153.48 10
-4 6 5 9185.09 1061.29 4
-4 -6 5 10066.4 1285.81 20
-4 6 5 10212.2 1221.52 16
-4 -6 5 10496.5 1241.27 15
-4 -6 6 337570 6215.4 10
-4 -6 6 336514 7464.54 12
-4 -6 6 340284 7147.62 20
-4 6 6 349534 6784.51 18
-4 6 6 350286 6807.35 16
-4 -6 6 329026 6725.36 15
-4 -6 7 69458.2 3309.1 12
-4 -6 7 73456.3 3165.46 20
-4 6 7 68865.5 2838.3 18
-4 6 7 72007.4 3064.11 16
-4 -6 7 72592.3 3122.18 15
-4 -6 8 3883.04 776.028 12
-4 6 8 2715.98 518.917 18
-4 -6 8 2989.98 603.397 20
-4 -6 8 3530.67 719.159 15
-4 6 8 3918.04 717.328 16
-4 -6 9 2306.2 543.042 15
-4 6 9 1676.27 391.859 5
-4 -6 9 2403.03 536.754 12
-4 6 9 2271.96 523.428 16
-4 -6 10 2272.18 474.038 15
-4 -6 10 2180.46 423.823 12
-4 6 10 2702.26 460.639 16
-4 7 -9 1065.18 301.044 21
-4 -7 -9 1168.46 307.802 8
-4 -7 -8 11434.2 824.694 9
-4 -7 -8 12156.3 1062.44 8
-4 -7 -7 19296.9 1232.43 9
-4 -7 -7 20222.3 1532.82 8
-4 -7 -7 20096 1181.48 17
-4 -7 -6 1276.84 475.977 8
-4 -7 -6 1171.8 373.305 9
-4 -7 -6 1056.57 375.058 17
-4 -7 -5 4238.75 802.024 8
-4 -7 -5 3832.7 657.912 17
-4 -7 -5 3904.25 654.808 9
-4 7 -5 3366.04 591.717 4
-4 -7 -4 6157.21 1012.63 8
-4 -7 -4 7248.49 901.297 9
-4 -7 -4 5494.46 833.554 20
-4 7 -4 7065.74 949.668 4
-4 -7 -4 6249.24 891.015 17
-4 -7 -3 2728.76 658.685 8
-4 -7 -3 3397.2 641.025 9
-4 -7 -3 2051.74 551.192 17
-4 -7 -3 4152.29 800.497 20
-4 7 -3 2961.97 707.113 4
-4 -7 -2 3138.83 681.619 20
-4 -7 -2 2305.45 625.296 8
-4 -7 -2 3012.31 666.837 17
-4 7 -2 3682.26 799.107 4
-4 -7 -1 32051.3 2156.92 8
-4 -7 -1 32520.2 2006 17
-4 7 -1 29467.5 2085.23 4
-4 -7 -1 30791.2 2218.18 20
-4 7 0 9401.26 1276.26 18
-4 -7 0 10147.3 1201.47 8
-4 -7 0 10325.8 1158.97 17
-4 7 0 9678.85 1241.87 4
-4 -7 0 8741.31 1207.49 20
-4 -7 1 10508.6 1227.35 12
-4 -7 1 11505.5 1395.3 20
-4 -7 1 12975 1236.22 17
-4 7 1 10063 1252.91 4
-4 -7 1 11089.7 1213.26 8
-4 7 1 10473.3 1312.74 18
-4 -7 2 77472.6 3394.56 12
-4 7 2 82829.8 3429.78 4
-4 -7 2 82402.5 3188.24 8
-4 -7 2 76426.3 3530.65 20
-4 -7 2 81504.3 2972.22 17
-4 7 2 77228 3474.67 18
-4 -7 3 39193 2532.35 12
-4 7 3 41495 2526.75 18
-4 7 3 36928.8 2248.29 4
-4 -7 3 37667 2486.24 20
-4 -7 3 35167.6 1856.17 17
-4 -7 4 1677.94 588.828 12
-4 7 4 2062.09 620.817 18
-4 7 4 766.742 435.415 4
-4 -7 4 2307.47 687.487 20
-4 -7 5 1321.61 642.857 12
-4 7 5 908.222 448.682 18
-4 -7 5 1188.43 480.436 20
-4 7 5 444.896 271.443 4
-4 7 5 936.023 351.023 16
-4 -7 6 8480.22 1167.08 12
-4 7 6 7021.36 955.677 18
-4 -7 6 7899.13 1047.51 20
-4 7 6 8499.1 967.059 16
-4 -7 6 6533.04 890.303 15
-4 -7 7 21161.5 1698.31 12
-4 7 7 20065.4 1434.7 18
-4 -7 7 18657.5 1443.74 20
-4 7 7 20652.3 1422.17 16
-4 -7 7 16797.8 1312.47 15
-4 -7 8 959.923 357.231 15
-4 -7 8 1810.14 526.629 12
-4 -7 8 1055.28 330.02 20
-4 7 8 808.653 308.806 18
-4 7 8 1106.31 347.153 16
-4 7 8 1307.84 392.409 5
-4 -7 9 4261.59 606.434 12
-4 7 9 2818.21 391.417 5
-4 7 9 3568.54 484.177 16
-4 -7 9 3457.17 490.646 15
-4 8 -8 1314.81 298.755 21
-4 -8 -8 1515.54 282.819 8
-4 -8 -7 2365.87 465.895 8
-4 -8 -6 16162.5 1249.02 8
-4 -8 -6 14679.2 999.357 17
-4 -8 -5 38723.7 2099.11 8
-4 -8 -5 37517.3 1789.45 17
-4 8 -5 35345.5 1716.47 4
-4 8 -4 7286.73 902.376 4
-4 -8 -4 6968.45 831.287 20
-4 -8 -4 7366.05 997.189 8
-4 -8 -4 8792.01 952.962 17
-4 -8 -3 5718.93 834.395 20
-4 -8 -3 4661.11 758.643 17
-4 8 -3 4769.44 798.73 4
-4 -8 -3 4651.4 802.108 8
-4 -8 -2 275.899 301.347 8
-4 -8 -2 1172.16 451.726 17
-4 8 -2 1005.8 449.193 4
-4 -8 -2 964.025 484.935 20
-4 -8 -1 38021 2347.17 20
-4 -8 -1 39285.9 2112.63 17
-4 8 -1 39620.7 2336.9 4
-4 -8 -1 42599 2359.79 8
-4 -8 0 2453.49 628.007 20
-4 -8 0 1700.27 504.055 8
-4 -8 0 1940.65 483.34 17
-4 8 0 2334.91 613.299 4
-4 -8 1 15796.9 1335.97 17
-4 8 1 15283.2 1535.97 18
-4 -8 1 16761.9 1604.69 20
-4 8 1 15683.9 1479.3 4
-4 -8 1 16914.4 1433.18 8
-4 -8 2 3160.42 654.059 12
-4 -8 2 3422.38 772.186 20
-4 8 2 3026.02 683.963 4
-4 8 2 3014.21 713.315 18
-4 -8 3 1115.48 440.375 12
-4 -8 3 1158.19 506.476 20
-4 8 3 1062.03 438.071 4
-4 8 3 887.418 468.654 18
-4 -8 4 796.507 401.068 12
-4 -8 4 237.06 320.68 20
-4 8 4 240.75 266.21 4
-4 8 4 733.254 383.598 18
-4 -8 5 470.397 336.835 12
-4 -8 5 1224.9 424.426 20
-4 8 5 632.816 358.398 18
-4 -8 6 16060.8 1371.35 12
-4 8 6 15164.7 1233.2 18
-4 -8 6 15399.4 1262.81 20
-4 -8 7 21700.9 1459.61 12
-4 -8 7 20849.1 1247.08 20
-4 8 7 24344.1 1370.79 18
-4 8 8 92551.8 2267.69 5
-4 -8 8 90876.2 2546.95 12
-4 8 8 75495.7 1900.08 18
-4 -9 -6 15490.7 941.931 8
-4 9 -6 13636.8 851.227 21
-4 9 -5 5530.02 626.626 21
-4 -9 -5 6365.38 698.74 8
-4 9 -4 5746.37 650.704 21
-4 9 -4 6123.18 694.655 4
-4 -9 -4 4915.01 589.751 20
-4 -9 -4 7508.81 816.846 8
-4 9 -3 13651.9 986.996 21
-4 -9 -3 15960.6 1211.83 20
-4 9 -3 17994.4 1289.44 4
-4 -9 -3 18568.8 1315.55 8
-4 9 -2 37431.1 1960.71 4
-4 -9 -2 32264.6 1837.26 20
-4 -9 -2 36435.1 1902.94 8
-4 -9 -1 1679.95 464.86 8
-4 9 -1 2244.51 550.901 4
-4 -9 -1 1220.31 431.87 20
-4 9 0 21481.4 1556.94 4
-4 -9 0 21983.7 1637.56 20
-4 -9 0 22414.8 1512.9 8
-4 -9 1 3826.19 712.705 20
-4 9 1 4134.82 708.575 4
-4 9 2 4133.54 686.422 4
-4 -9 2 3466.94 574.832 12
-4 -9 2 5024.48 809.661 20
-4 9 2 4777.99 777.401 18
-4 -9 3 4703.97 687.453 12
-4 -9 3 5195.83 788.349 20
-4 9 3 5415.35 785.547 18
-4 9 3 4931.26 675.815 4
-4 -9 4 4760.14 696.182 12
-4 9 4 4702.57 585.306 4
-4 -9 4 4267.11 677.555 20
-4 9 4 4714.73 703.186 18
-4 -9 5 11253.6 986.442 12
-4 9 5 12815.1 1034.58 18
-4 -9 5 11865.5 1008.92 20
-4 -9 6 9830 855.437 12
-4 -9 6 8048.28 700.795 20
-4 9 6 8973.8 771.865 18
-4 -9 7 6189.64 580.797 12
-4 9 7 5371.46 511.638 5
-4 -10 -4 12441.2 759.267 8
-4 10 -3 20272.8 1052.8 4
-4 10 -2 44601.8 1705.11 4
-4 -10 -2 44439.9 1687.65 20
-4 10 -1 28782.3 1445.34 4
-4 -10 -1 30446.8 1517.17 20
-4 10 0 15047.5 1073.46 4
-4 -10 0 15943.9 1150.34 20
-4 10 1 25680.9 1345.67 4
-4 -10 1 23958.3 1399.1 20
-4 10 2 4412.26 490.615 5
-4 10 2 4548.59 544.88 4
-4 -10 2 4418.72 606.455 20
-4 10 3 6105.69 586.932 5
-4 -10 3 4675.03 584.687 20
-4 10 4 17743.3 944.23 5
-4 -10 4 17665.2 982.487 20
-3 0 -13 -396.809 202.538 3
-3 0 -12 3180.96 627.295 3
-3 0 -11 -230.134 377.1 3
-3 0 -10 4586.9 928.513 3
-3 0 -9 -310.539 367.936 3
-3 0 -8 12354.4 1448.21 3
-3 0 -7 -809.876 428.97 3
-3 0 1 6.18324 441.154 1
-3 0 2 236608 7293.75 1
-3 0 3 -799.509 478.712 1
-3 0 4 9548.62 1767.44 1
-3 0 5 1120.76 726.306 1
-3 0 6 178797 8581.25 1
-3 0 7 -496.691 338.988 15
-3 0 7 1262.76 1244.13 1
-3 0 7 -16.0753 267.281 20
-3 0 7 15.8542 255.985 12
-3 0 7 156.81 291.229 10
-3 0 7 -316.843 301.764 16
-3 0 8 7443.75 1008.28 16
-3 0 8 8688.59 1088.76 12
-3 0 8 5940.47 1898.93 1
-3 0 8 8245.57 1045.91 19
-3 0 8 8998.28 1143.83 15
-3 0 9 279.074 331.031 15
-3 0 9 71.5395 419.807 19
-3 0 9 332.352 346.782 12
-3 0 9 536.999 320.789 16
-3 0 10 144572 4374.47 19
-3 0 10 152267 4323.87 16
-3 0 10 155806 4637.97 15
-3 0 11 326.953 308.592 19
-3 0 12 10213.4 987.06 19
-3 0 13 -122.322 176.655 14
-3 0 13 196.84 177.552 19
-3 -1 -13 1946.88 340.366 3
-3 1 -13 1944.35 356.728 3
-3 1 -12 2422.89 549.945 3
-3 -1 -12 2550.89 544.644 3
-3 -1 -11 447.734 445.776 3
-3 1 -11 590.183 412.607 3
-3 1 -10 3380.73 828.743 3
-3 -1 -10 2936.22 775.868 3
-3 -1 -9 23810 1997.56 3
-3 1 -9 24549.9 2047.82 3
-3 -1 -8 3460.16 851.238 3
-3 -1 -7 89138.6 3598.26 3
-3 -1 1 33998.6 2782.45 1
-3 1 1 32249 2531.61 1
-3 1 2 354032 8737.39 1
-3 -1 2 362527 9367.15 1
-3 1 3 146787 6095.39 1
-3 -1 3 141298 6154.48 1
-3 1 4 76491 4829.84 1
-3 -1 4 72619.3 4692.35 1
-3 1 5 180470 7957.93 1
-3 -1 5 173483 7804.63 1
-3 1 6 27612.3 3480.8 1
-3 -1 6 22394.4 3108.62 1
-3 -1 7 13372.7 1361.28 15
-3 -1 7 12343.7 1247.29 10
-3 1 7 13965.9 1366.43 12
-3 -1 7 15752.8 1496.83 12
-3 1 7 13285.3 1288.22 19
-3 1 7 13604.6 2671.67 1
-3 -1 7 11820.2 1299.52 20
-3 -1 7 16010.2 2721.72 1
-3 1 7 12166.9 1266.95 16
-3 1 7 14373.4 1381.08 15
-3 1 8 341.241 329.375 15
-3 -1 8 275.562 229.433 15
-3 1 8 214.779 315.359 12
-3 -1 8 568.808 329.346 12
-3 1 8 -508.052 688.829 1
-3 -1 8 -631.358 393.144 20
-3 1 8 2363.86 594.3 19
-3 -1 8 -48.9917 794.069 1
-3 1 8 449.091 301.319 16
-3 1 9 25251.2 1875.69 19
-3 -1 9 27229.9 1981.37 12
-3 1 9 25035.2 1907.75 16
-3 -1 9 26497.3 2013.09 15
-3 1 9 24891.6 1874.56 15
-3 -1 10 1423.46 516.045 15
-3 1 10 1785.89 572.05 19
-3 -1 10 1110.07 469.935 19
-3 1 10 983.416 502.421 16
-3 -1 11 59618.3 2578.14 19
-3 1 11 58785.1 2656.1 19
-3 1 11 57538.5 2575.07 16
-3 -1 11 64576.8 2843.92 15
-3 -1 12 47743.1 2019.02 19
-3 1 12 51780.5 2024.49 16
-3 1 12 51908.3 2208.25 19
-3 1 13 5330.09 617.584 14
-3 -1 13 5654.44 638.255 14
-3 -1 13 4600.76 501.188 19
-3 1 13 5842.61 604.011 19
-3 -2 -13 3737.64 440.078 3
-3 2 -13 3264.14 430.341 3
-3 -2 -12 -86.7519 231.984 3
-3 2 -12 113.894 221.33 3
-3 -2 -11 29643.8 1941.39 3
-3 2 -11 28103.7 1966.06 3
-3 2 -10 113.475 369.487 3
-3 -2 -10 101.396 402.224 3
-3 -2 -9 262132 6488.48 3
-3 -2 -8 9726.99 1241.39 3
-3 -2 -7 124061 4232.07 3
-3 -2 1 153952 6158.25 1
-3 2 1 164650 5474.71 1
-3 2 2 33766.2 2671.87 1
-3 -2 2 34009 2959.64 1
-3 2 3 40614.5 3244.31 1
-3 -2 3 45133.8 3533.25 1
-3 2 4 98164.5 5489.18 1
-3 -2 4 89090.3 5290.19 1
-3 2 5 10321.2 1938.85 1
-3 -2 5 12027.3 2136.78 1
-3 2 6 50222.8 4716.91 1
-3 -2 6 42784.6 4205.23 1
-3 -2 7 17199.1 1598.06 15
-3 -2 7 18291.3 1615.67 12
-3 2 7 19255.2 3139.97 1
-3 -2 7 15824.6 1436.27 10
-3 -2 7 19301.1 1624.49 20
-3 2 7 17390.7 1476.03 19
-3 -2 7 15731.3 2658.89 1
-3 2 7 14082.8 1422.69 16
-3 2 8 41928.8 4927.93 1
-3 -2 8 36492 2415.34 15
-3 -2 8 36654.3 2381.64 12
-3 -2 8 34250.2 4371.85 1
-3 -2 8 34006.3 2205.1 20
-3 2 8 37569.8 2388.63 16
-3 2 8 37148.7 2272.94 19
-3 -2 9 31273.8 2245.4 15
-3 -2 9 31458.4 2150.92 12
-3 -2 9 28186.2 1996.38 20
-3 2 9 31450.9 2109.05 19
-3 2 9 29790.2 2140.8 16
-3 -2 10 63593.5 2894.73 12
-3 -2 10 68940.2 2836.53 19
-3 2 10 68337.5 3045.42 19
-3 2 10 69340.1 3157.05 16
-3 -2 10 70689.5 3270.25 15
-3 -2 11 15106.8 1250.86 19
-3 2 11 16105.8 1425.83 16
-3 2 11 17864.7 1459.05 19
-3 -2 11 16616.2 1459.77 15
-3 -2 12 21180.6 1253.49 19
-3 2 12 23298.4 1457.02 19
-3 2 12 22539.6 1416.57 16
-3 -2 12 21569.2 1409.5 15
-3 2 13 7895.98 666.86 14
-3 -2 13 7258.9 652.422 14
-3 2 13 9322.08 743.796 19
-3 3 -12 149.861 218.119 3
-3 -3 -12 299.143 270.013 3
-3 3 -11 1628.8 497.189 3
-3 -3 -11 1439.03 450.548 3
-3 -3 -10 2679.9 641.987 3
-3 -3 -9 18422.8 1735.53 3
-3 -3 -8 107620 4029.61 3
-3 -3 -7 31391.3 2193.79 3
-3 -3 -6 14072.3 1209.92 17
-3 -3 -6 15537.5 1469.25 3
-3 3 1 137663 4754.97 1
-3 3 2 15465.9 1776.75 1
-3 -3 2 15098.1 2060.76 1
-3 -3 3 11642.5 1875.31 1
-3 3 3 13654.6 1969.83 1
-3 3 4 51966.5 3966.81 1
-3 -3 4 49760.3 4141.6 1
-3 3 5 44352.1 4067.28 1
-3 -3 5 43808.2 4040.68 1
-3 -3 6 2014.92 558.289 12
-3 3 6 1315.12 810.712 1
-3 -3 6 2272.73 602.535 10
-3 -3 6 1789.73 939.46 1
-3 -3 6 3311.76 670.472 20
-3 3 6 1715.74 492.719 19
-3 3 6 2248.15 605.092 16
-3 -3 7 64105 3162.03 15
-3 -3 7 55055.4 2687.77 10
-3 -3 7 58356.7 3015.27 12
-3 3 7 57513.5 5466.48 1
-3 -3 7 55876.4 2807.33 20
-3 -3 7 60996.9 5448.8 1
-3 3 7 58432.8 2949.67 16
-3 3 7 58686.1 2796.42 19
-3 -3 8 139846 4816.01 15
-3 -3 8 140795 4705.21 12
-3 3 8 137138 8757.3 1
-3 -3 8 140010 4437.04 20
-3 3 8 148555 4580.51 19
-3 -3 8 143376 8608.06 1
-3 3 8 134346 4656.26 16
-3 -3 9 51511 2894.01 15
-3 3 9 53269.9 2760.2 19
-3 -3 9 50146.6 2752.33 12
-3 3 9 50209.6 2793.46 16
-3 -3 10 41268.7 2506.59 15
-3 -3 10 43559.9 2369.65 12
-3 3 10 44259.8 2422.39 19
-3 3 10 41162.9 2436.09 16
-3 -3 11 1559.25 499.351 15
-3 -3 11 1718.44 411.754 19
-3 3 11 1074.87 447.314 19
-3 3 11 1315.27 465.24 16
-3 -3 12 1101.94 383.13 15
-3 3 12 987.372 309.894 14
-3 -3 12 703.758 283.05 14
-3 3 12 687.289 302.381 19
-3 3 12 511.789 271.314 16
-3 3 13 2494.95 365.407 19
-3 -4 -12 1668.43 328.31 3
-3 4 -12 1044.9 327.622 3
-3 4 -11 3485.97 674.87 3
-3 -4 -11 3901.29 660.078 3
-3 -4 -10 1311.89 535.789 3
-3 -4 -9 5716.84 961.871 3
-3 -4 -8 92804.3 3699.32 3
-3 -4 -7 4577.52 818.398 3
-3 -4 -6 4653.47 753.813 17
-3 -4 -6 4015.03 794.382 3
-3 -4 -5 24896.1 1783.91 3
-3 -4 -5 24498.7 1604.38 17
-3 -4 4 62302.7 4586.12 1
-3 4 5 2480.11 596.364 6
-3 -4 5 1375.13 450.108 10
-3 -4 5 1889.47 530.074 20
-3 4 5 1215.61 420.016 19
-3 4 5 1987.45 972.248 1
-3 4 5 2634.98 602.145 7
-3 -4 5 2050.28 949.347 1
-3 4 5 1650.12 548.931 16
-3 -4 5 1940.88 597.246 12
-3 4 6 7277.08 1011.72 7
-3 4 6 8465.79 1060.23 19
-3 -4 6 8842.97 1218.17 12
-3 -4 6 7110.54 957.852 10
-3 -4 6 7321.52 1035.64 20
-3 4 6 7492.69 1810.34 1
-3 -4 6 7423.51 1758.89 1
-3 4 6 8978.02 1058.07 6
-3 4 6 6558.49 999.279 16
-3 -4 7 15133.4 1611.31 12
-3 4 7 13045.8 1416.24 16
-3 -4 7 13206.2 1315.72 10
-3 -4 7 15425.1 1527.11 20
-3 4 7 13610 2681.21 1
-3 4 7 15733.5 1514.51 19
-3 4 7 15068.9 1392.67 6
-3 -4 8 6117.59 1065.4 15
-3 -4 8 5716.97 1005.08 12
-3 -4 8 7391.25 1021.17 20
-3 4 8 5486.99 941.993 19
-3 4 8 6522.94 1080.52 16
-3 -4 9 25673.9 1963.85 12
-3 -4 9 26057.1 2074.46 15
-3 4 9 24705.6 1872.66 19
-3 4 9 23704.9 1909.04 16
-3 -4 10 3947.66 822.241 15
-3 4 10 4295.26 801.078 19
-3 4 10 3203.52 579.222 14
-3 -4 10 3155.07 645.485 12
-3 4 10 3667.66 801.757 16
-3 -4 11 933.842 430.346 15
-3 -4 11 1123.26 316.328 14
-3 4 11 895.524 415.716 19
-3 4 11 1113.04 425.052 16
-3 -4 12 963.505 331.588 15
-3 4 12 948.79 330.455 19
-3 4 12 616.158 300.466 16
-3 5 -11 1939.55 461.28 3
-3 -5 -11 1713.78 405.845 3
-3 -5 -10 46668.4 2199.67 3
-3 -5 -9 13121.9 1346.9 3
-3 -5 -8 2324.55 682.594 3
-3 -5 -7 28128.1 2041.01 3
-3 -5 -7 27325.1 1674.35 17
-3 -5 -6 40633.5 2411.12 3
-3 -5 -6 42010.5 2144.75 17
-3 -5 -5 33486.1 2153.5 3
-3 -5 -5 37711 2072.72 17
-3 -5 -4 29974.5 1833.8 17
-3 -5 -4 33590.9 2020.49 3
-3 5 -4 32319.4 1899.94 4
-3 5 -3 68276.2 2774.35 4
-3 -5 -3 66294.6 2661.89 17
-3 -5 -2 164145 4117.25 17
-3 5 -2 159722 4450.92 18
-3 5 3 2474.21 643.195 6
-3 -5 3 2355.16 620.495 12
-3 5 3 2574.21 617.497 7
-3 -5 3 3653.46 725.904 20
-3 -5 4 44409.9 2635 12
-3 -5 4 44769.7 2203.48 10
-3 -5 4 45483.1 2516.38 20
-3 5 4 45332 2226.46 4
-3 5 4 43832.2 2460.84 7
-3 5 4 41308.4 2386.48 6
-3 5 4 41602.1 2293.22 16
-3 -5 5 53247.3 2944.35 12
-3 -5 5 48509 2328.97 10
-3 -5 5 53363 2780.29 20
-3 5 5 52063.7 2640.3 19
-3 5 5 48922.2 2662.13 7
-3 5 5 43973.1 2512.77 6
-3 5 5 50701.3 2629.91 16
-3 -5 6 8676.63 1261.8 12
-3 5 6 7499.97 1088.69 7
-3 -5 6 8151.57 1000.57 10
-3 -5 6 9209.76 1185.85 20
-3 5 6 8246.68 1119.03 19
-3 5 6 8567.06 1134.63 6
-3 5 6 8810.98 1160.9 16
-3 5 7 20257.3 1728.95 19
-3 -5 7 20132.9 1865.51 12
-3 -5 7 19210 1683.74 20
-3 5 7 19713 1670.94 6
-3 5 7 19511.9 1751.52 16
-3 -5 8 833.543 547.637 15
-3 5 8 812.071 391.089 6
-3 -5 8 903.841 462.34 12
-3 -5 8 498.554 367.126 20
-3 5 8 16.9762 296.903 19
-3 5 8 749.733 632.511 16
-3 -5 9 32113.8 2223.12 15
-3 -5 9 35936 2271.19 12
-3 5 9 32624.1 2062.9 19
-3 5 9 36606.8 2264.33 16
-3 -5 10 35615.2 2147.35 15
-3 -5 10 32142.3 1889.74 12
-3 5 10 37090.1 2017.03 19
-3 5 10 40493.8 2200.95 16
-3 -5 11 1115.76 397.665 15
-3 5 11 1635.76 404.479 16
-3 5 12 21690.9 1098.04 16
-3 -5 12 19704.6 1083.1 15
-3 6 -11 377.303 203.045 3
-3 -6 -11 742.011 197.285 3
-3 -6 -10 6279.56 719.102 3
-3 -6 -10 5829.76 680.9 9
-3 -6 -9 5118.73 766.5 3
-3 -6 -8 50389.9 2550.62 3
-3 -6 -7 23693.6 1813.57 3
-3 -6 -7 26386.7 1588.01 17
-3 -6 -6 79794.7 3346.54 3
-3 -6 -6 75120.6 2847.95 17
-3 6 -5 35685.1 2034.43 4
-3 -6 -5 35155 2206.95 3
-3 -6 -5 28607.3 1936.74 9
-3 -6 -5 36113.1 2036.34 17
-3 6 -4 194101 4903.12 4
-3 -6 -4 206766 5231.04 3
-3 -6 -4 208283 4990.39 9
-3 -6 -4 207084 4925.58 17
-3 -6 -3 78847.8 2999.4 9
-3 -6 -3 82568.6 3185.15 3
-3 -6 -3 78210.3 3024.86 17
-3 6 -3 77955.4 3163.18 4
-3 6 -2 85480.7 3378.34 4
-3 6 -2 85015.5 3473.44 18
-3 -6 -2 85278.7 3141.43 17
-3 6 -1 9304.83 1145.52 4
-3 6 -1 8297.57 1085.7 18
-3 -6 -1 10512.1 1249.81 8
-3 -6 -1 9387.78 1042.76 17
-3 -6 0 5785.13 896.772 8
-3 6 0 4872.55 814.496 18
-3 -6 0 5668.94 818.067 17
-3 6 0 3905.76 766.432 7
-3 6 0 5192.91 843.692 4
-3 -6 1 856.508 404.987 12
-3 -6 1 1860.96 548.099 8
-3 6 1 1612.73 560.436 18
-3 -6 1 794.395 386.954 17
-3 6 1 1268.31 441.713 7
-3 6 1 885.181 418.597 4
-3 -6 1 1223.95 552.185 20
-3 -6 2 166274 5048.33 12
-3 6 2 163706 4508.66 4
-3 -6 2 173695 4582.18 8
-3 -6 2 166002 4162.73 17
-3 6 2 160303 4733.62 7
-3 6 2 164135 4902.37 6
-3 -6 2 168800 4968.41 20
-3 6 3 982.838 461.168 6
-3 -6 3 939.909 461.347 12
-3 -6 3 975.826 384.426 8
-3 -6 3 931.567 429.425 20
-3 -6 3 548.445 308.86 17
-3 6 3 776.927 400.689 7
-3 6 3 1571.93 492.359 4
-3 -6 4 75613 3596.89 12
-3 -6 4 77623.1 3449.3 20
-3 6 4 78001.4 3059.44 4
-3 6 4 77117.1 3401.06 7
-3 6 4 78633 3455.04 6
-3 6 4 77098.9 3092.28 16
-3 -6 5 97003.1 4095.07 12
-3 -6 5 95404.7 3833.52 20
-3 6 5 104012 3984.3 7
-3 6 5 101332 3969.79 6
-3 6 5 96783.4 3598.26 16
-3 -6 6 8498.54 1261.03 12
-3 -6 6 8803.01 1178.13 20
-3 6 6 8605.89 1123.68 16
-3 6 6 11868.2 1371.65 7
-3 6 6 10267.7 1256.04 6
-3 -6 7 1164.56 445.481 15
-3 6 7 1031.52 456.856 6
-3 -6 7 1758.71 676.194 12
-3 6 7 1417.9 512.16 7
-3 -6 7 1275.83 431.563 20
-3 6 7 1611.56 529.058 16
-3 -6 8 14183.8 1446.99 15
-3 -6 8 14173.8 1473.78 12
-3 6 8 12460.4 1264.53 6
-3 6 8 12115.4 1302.9 16
-3 -6 9 11814.5 1267.56 15
-3 -6 9 11716.5 1241.69 12
-3 6 9 10792.8 1032.93 6
-3 6 9 13114.5 1260.21 16
-3 -6 10 53287.3 2209.81 12
-3 6 10 55411.7 2270.41 16
-3 -6 10 60154 2493.34 15
-3 6 11 6442.42 657.532 16
-3 -6 11 6190.18 685.052 15
-3 -7 -10 13.3622 127.683 8
-3 -7 -10 432.622 167.866 3
-3 -7 -9 138.521 227.169 8
-3 -7 -9 -161.225 168.126 3
-3 -7 -8 887.444 363.463 8
-3 -7 -8 625.452 315.868 3
-3 -7 -7 1336.64 423.79 3
-3 -7 -7 836.25 320.078 17
-3 -7 -6 7803.08 1020.8 3
-3 -7 -6 7964.72 907.77 17
-3 -7 -5 49309.9 2614.51 3
-3 7 -5 50172.9 2433 4
-3 -7 -5 52636.9 2456.42 17
-3 -7 -4 10799.5 1328.51 8
-3 -7 -4 10224.5 1168.5 3
-3 7 -4 9029.55 1087.16 4
-3 -7 -4 10181.1 1125.07 17
-3 -7 -3 9057.93 1081.52 17
-3 -7 -3 9271.65 1122.06 3
-3 -7 -3 10006.2 1282.36 8
-3 7 -3 8926.35 1126.96 4
-3 -7 -2 9916.04 1124.93 3
-3 -7 -2 9164.6 1232.45 8
-3 -7 -2 8857.58 1079.73 17
-3 7 -2 8748.94 1159.43 4
-3 -7 -1 28947.4 1883.73 3
-3 -7 -1 27207.3 2024.76 8
-3 7 -1 26930.9 2057.79 18
-3 7 -1 27650.8 1986.96 4
-3 -7 -1 31250.8 1961.35 17
-3 -7 0 11317.6 1273.29 8
-3 7 0 10949.3 1323.1 18
-3 -7 0 10954.6 1176.25 17
-3 7 0 10040 1186.02 7
-3 7 0 11099.5 1258.69 4
-3 -7 1 108850 3887.04 8
-3 -7 1 109195 4049.75 12
-3 -7 1 111265 4214.79 20
-3 7 1 107321 4021.17 18
-3 -7 1 113454 3679.84 17
-3 7 1 98499.7 3760.07 7
-3 7 1 112444 3944.16 4
-3 -7 2 1431.55 490.95 12
-3 -7 2 1197.18 531.333 20
-3 -7 2 2129.66 616.745 8
-3 -7 2 1512.02 468.03 17
-3 7 2 1115.44 442.171 7
-3 7 2 1200.48 448.864 4
-3 7 2 1418.69 542.827 18
-3 -7 3 50585.8 2949.47 12
-3 -7 3 48208.6 2789.62 20
-3 7 3 48814.9 2540.78 4
-3 7 3 48320 2737.64 7
-3 7 3 46943.4 2779.97 6
-3 -7 4 5914.39 998.082 20
-3 7 4 4673.88 917.855 6
-3 -7 4 5403.33 1001.63 12
-3 7 4 6025.89 866.263 4
-3 7 4 5685.3 986.534 7
-3 -7 5 15554.9 1392.6 15
-3 -7 5 13912.7 1568.94 12
-3 -7 5 15893.3 1572.16 20
-3 7 5 15474 1568.69 7
-3 7 5 16357.8 1612.62 6
-3 -7 6 2131.82 596.835 15
-3 7 6 2577.42 702.356 6
-3 -7 6 2186.9 598.401 20
-3 -7 6 2387.23 727.828 12
-3 7 6 3313.59 813.318 7
-3 7 6 2734.84 609.634 16
-3 -7 7 3714.91 737.195 15
-3 7 7 2918.44 624.461 6
-3 -7 7 2759.5 689.613 12
-3 -7 7 3121.82 631.446 20
-3 7 7 3121.38 630.071 16
-3 -7 8 16107.2 1380.32 15
-3 -7 8 17330.8 1520.66 12
-3 7 8 16149.1 1345.87 6
-3 7 8 16249.1 1303.1 16
-3 -7 9 10933.1 1052.59 15
-3 -7 9 10051.8 1025.25 12
-3 7 9 10983.7 973.096 16
-3 -7 10 8882.02 762.446 12
-3 7 10 7602.73 631.785 18
-3 7 10 9466.78 758.741 16
-3 -7 10 10245.7 853.162 15
-3 -8 -8 9655.61 828.072 3
-3 -8 -8 9715.46 864.947 8
-3 -8 -7 7194 829.296 3
-3 -8 -7 8880.39 967.358 8
-3 -8 -6 206.016 268.972 3
-3 -8 -6 144.703 257.158 8
-3 -8 -5 11572.3 1185.06 3
-3 8 -5 11644.2 1118.49 4
-3 -8 -5 13275.6 1358.81 8
-3 -8 -5 11922.1 1101.86 17
-3 -8 -4 13029.7 1270.5 3
-3 8 -4 12034.7 1231.23 4
-3 -8 -4 12501.5 1371.64 8
-3 -8 -4 13241.9 1233.72 17
-3 -8 -3 18651.7 1533.49 3
-3 -8 -3 18924.8 1696.26 8
-3 -8 -3 18972 1521.03 17
-3 8 -3 18285.4 1569.2 4
-3 -8 -2 53075.1 2573.49 3
-3 -8 -2 46866.7 2657.56 8
-3 8 -2 46375.5 2539.46 4
-3 -8 -2 46091.1 2408.23 17
-3 8 -1 40211.2 2483.2 18
-3 -8 -1 41712.3 2476.2 8
-3 8 -1 40126.3 2393.77 4
-3 -8 -1 41819.2 2287.39 17
-3 -8 -1 41357.6 2254.39 3
-3 -8 0 57929.2 3067.72 20
-3 8 0 56938.1 2877.85 4
-3 -8 0 61957.2 2963.72 8
-3 8 0 55441.5 2687.16 7
-3 -8 0 58583.1 2720.64 17
-3 8 0 55101.8 2912.03 18
-3 -8 0 59091.9 2691.92 3
-3 -8 1 41700.9 2478.72 12
-3 -8 1 40165.2 2210.78 17
-3 -8 1 39471.6 2523 20
-3 -8 1 45553.5 2506.83 8
-3 8 1 39190 2457.8 18
-3 8 1 39040.7 2320.35 7
-3 8 1 38356.3 2333.01 4
-3 -8 2 195.206 349.857 12
-3 -8 2 517.785 376.99 8
-3 8 2 607.519 435.462 18
-3 8 2 304.026 324.704 7
-3 8 2 449.844 314.372 4
-3 -8 2 173.482 347.611 20
-3 8 3 5354.5 945.384 18
-3 8 3 5725.83 904.188 4
-3 -8 3 4588.68 900.698 20
-3 8 3 4666.23 871.867 7
-3 -8 3 5352.43 923.345 12
-3 -8 4 2165.29 656.36 12
-3 -8 4 2524.54 606.813 20
-3 8 4 1047.74 479.891 18
-3 8 4 2357.3 687.741 7
-3 8 4 1851.35 538.976 4
-3 -8 5 976.854 449.952 20
-3 8 5 945.405 431.986 18
-3 8 5 1203.52 546.771 7
-3 -8 5 1829.72 601.248 12
-3 -8 6 3607.35 660.19 20
-3 8 6 3664.7 762.823 18
-3 8 6 3211.97 717.154 7
-3 -8 6 3615.29 744.464 12
-3 -8 7 1294.26 424.807 15
-3 -8 7 1571.58 500.32 12
-3 8 7 1312.04 448.039 18
-3 -8 8 21224.1 1449.44 12
-3 8 8 20767.7 1334.72 18
-3 -8 8 18282.2 1174.6 15
-3 -8 9 1238.03 278.788 15
-3 -8 9 2182.22 406.564 12
-3 8 9 1935.19 348.932 18
-3 -9 -7 3902.77 494.764 8
-3 -9 -7 3323.74 406.86 3
-3 -9 -6 12801.5 1021.19 8
-3 -9 -6 12664.7 944.129 3
-3 -9 -5 42528.2 1877.92 20
-3 9 -5 43904.7 1870.47 4
-3 -9 -5 49310.2 2208.03 8
-3 -9 -5 41859.8 1872.54 3
-3 -9 -4 4754.7 755.38 8
-3 9 -4 3792.53 654.904 4
-3 -9 -4 2804.71 583.905 20
-3 -9 -4 2864.64 534.644 3
-3 -9 -3 27168.2 1825.35 20
-3 9 -3 28715.6 1808.76 4
-3 -9 -3 30119.4 1902.34 8
-3 -9 -3 27346.5 1662.27 3
-3 -9 -2 57672 2776.12 20
-3 -9 -2 61541.5 2766.9 8
-3 9 -2 59265.9 2687.3 4
-3 -9 -2 61997 2544.47 3
-3 -9 -1 68334.7 3087.48 20
-3 -9 -1 71837 3005 8
-3 9 -1 68034.5 2944.99 4
-3 -9 -1 70477.8 2718.27 3
-3 -9 0 38646.7 2373.2 20
-3 -9 0 41653.9 2304.17 8
-3 9 0 46476.1 2513.01 18
-3 -9 0 44801.1 2185.35 3
-3 9 0 42476.5 2324.46 4
-3 9 1 47899.9 2432.63 4
-3 -9 1 48684.2 2381.34 12
-3 -9 1 48123.8 2638.21 20
-3 9 1 48768.2 2590.46 18
-3 9 1 46216.4 2351.32 7
-3 9 2 4247.33 793.313 18
-3 -9 2 4226.78 803.724 20
-3 9 2 4046.25 753.288 7
-3 9 2 3542.2 691.525 4
-3 -9 2 3565.11 690.081 12
-3 -9 3 5814.1 895.165 12
-3 9 3 4995.72 752.849 4
-3 9 3 6662.99 942.905 18
-3 -9 3 6116.3 919.727 20
-3 9 3 5929.93 880.303 7
-3 -9 4 2604.92 585.629 20
-3 9 4 3759.18 697.356 18
-3 9 4 2879.66 552.907 4
-3 -9 4 3669.35 722.971 12
-3 9 4 3445.05 669.653 7
-3 -9 5 2664.11 626.588 12
-3 -9 5 2540.24 530.673 20
-3 9 5 2995.37 593.209 18
-3 -9 6 30258.2 1765.84 12
-3 -9 6 28733.6 1472.62 20
-3 9 6 29329.8 1642.71 18
-3 -9 7 5539.93 709.365 12
-3 9 7 5610.89 659.895 18
-3 -9 8 2526.07 401.451 12
-3 9 8 2065.4 338.199 18
-3 -10 -5 10416.8 774.414 8
-3 -10 -4 -173.466 136.784 3
-3 10 -4 34472.7 1488.98 4
-3 -10 -4 33328.8 1512.23 20
-3 -10 -4 33354.9 1534.19 8
-3 -10 -3 4977.39 667.856 20
-3 10 -3 5445.77 676.387 4
-3 -10 -3 4771.63 650.033 8
-3 -10 -3 3411.09 470.819 3
-3 -10 -2 5586.38 759.424 20
-3 10 -2 5281.55 726.177 4
-3 -10 -2 5643.58 737.904 8
-3 -10 -2 3199.76 478.55 3
-3 -10 -1 10370 1054.35 20
-3 10 -1 8685.09 929.673 4
-3 -10 0 2510.75 562.646 20
-3 10 0 1811.11 471.023 4
-3 -10 1 2031.87 507.524 20
-3 10 1 2528.33 533.86 4
-3 -10 2 4104.02 576.85 12
-3 -10 2 3845.03 648.75 20
-3 10 2 4606.33 623.191 4
-3 10 2 3738.11 627.306 18
-3 -10 3 52866.4 2096.94 12
-3 10 3 53512.2 1901.92 4
-3 -10 3 51431.6 2151.42 20
-3 10 3 53576.5 2209.75 18
-3 -10 4 782.6 304.707 12
-3 -10 4 684.232 273.581 20
-3 10 4 774.084 305.984 18
-3 -10 5 866.293 274.871 12
-3 10 5 1255.83 310.264 18
-3 -10 6 1609.92 320.248 12
-3 10 6 1453.97 299.297 18
-3 -11 -2 864.429 222.649 20
-3 11 -2 1305.59 279.377 4
-3 -11 -1 22617.8 1136.92 20
-3 11 -1 23678.9 1120.68 4
-3 -11 0 12646.5 871.409 20
-3 11 0 13780.5 859.701 4
-3 -11 1 1118.91 272.319 20
-3 11 1 1258.49 272.633 4
-3 -11 2 7505.16 631.292 20
-2 0 -13 -163.071 256.592 3
-2 0 -12 29899.4 1982.65 3
-2 0 -11 -302.724 352.085 3
-2 0 -10 77276.6 3747.72 3
-2 0 -9 -70.703 422.442 3
-2 0 0 376002 6741.31 1
-2 0 1 298.916 304.501 1
-2 0 2 714799 10459.3 1
-2 0 3 1320.56 691.46 1
-2 0 4 248486 7723.14 1
-2 0 5 460.985 552.271 1
-2 0 6 407402 11942.5 1
-2 0 7 -1121.19 836.758 1
-2 0 8 303.112 249.728 15
-2 0 8 627.417 722.717 1
-2 0 9 -314.943 357.043 15
-2 0 9 753.018 879.401 1
-2 0 10 196072 4982.45 16
-2 0 10 197643 5073.09 15
-2 0 11 320.974 367.763 19
-2 0 11 232.399 267.73 16
-2 0 12 24414.4 1688.36 19
-2 0 13 352.26 255.566 19
-2 0 14 1176.68 247.721 14
-2 -1 -13 553.717 278.411 3
-2 1 -13 394.079 292.831 3
-2 -1 -12 2165.57 563.723 3
-2 1 -12 2622.9 631.737 3
-2 1 -11 187.814 368.55 3
-2 -1 -11 -205.817 356.178 3
-2 -1 -10 11093.8 1466.06 3
-2 1 -10 10495.3 1365.66 3
-2 -1 -9 2889.22 789.573 3
-2 -1 -8 2086.91 663.775 3
-2 1 3 276970 7352.83 1
-2 -1 3 303081 7630.89 1
-2 1 4 99689.2 4900.6 1
-2 -1 4 100717 4939.18 1
-2 1 5 45064.9 3659.67 1
-2 -1 5 44558.1 3550.35 1
-2 -1 6 474.041 727.004 1
-2 1 6 395.418 722.794 1
-2 1 7 190405 9057.19 1
-2 -1 7 182809 8671.01 1
-2 -1 8 1688.27 529.725 15
-2 -1 8 2291.43 1121.6 1
-2 1 8 91.9721 561.717 1
-2 -1 9 5417.66 918.654 15
-2 1 9 4911.29 1728.5 1
-2 -1 9 4975.18 2096.81 1
-2 1 9 3664.3 806.008 19
-2 -1 10 28944.4 2070.01 15
-2 1 10 27725.3 2004.32 19
-2 1 11 96894.6 3636.48 19
-2 1 11 90868.1 3398.32 16
-2 -1 11 94938 3461.45 15
-2 1 12 10263.5 1117.55 19
-2 -1 12 9435.09 1044.57 19
-2 1 12 10105.6 995.407 16
-2 1 13 2455.22 504.596 19
-2 -1 13 2746.99 507.509 19
-2 -2 -13 6976.2 752.299 3
-2 2 -13 7494.45 810.383 3
-2 -2 -12 5196.87 832.186 3
-2 2 -12 7398.57 1010.24 3
-2 -2 -11 70710.3 3251.26 3
-2 2 -11 66843.5 3244.38 3
-2 -2 -10 15935.3 1662.38 3
-2 -2 -9 65804.7 3408.1 3
-2 -2 -8 194287 5637.22 3
-2 -2 -7 5456.34 880.056 3
-2 2 0 982078 9621.66 1
-2 -2 1 153501 4919.44 1
-2 2 1 151636 4175.27 1
-2 2 2 1424.61 546.181 1
-2 -2 2 1482.22 597.331 1
-2 2 3 348640 8131.52 1
-2 -2 3 350424 8411.45 1
-2 2 4 49909.6 3484.77 1
-2 -2 4 45102.5 3333.93 2
-2 -2 4 47306.7 3359.64 1
-2 -2 5 4236.69 1172.86 1
-2 2 5 3597.19 989.543 1
-2 -2 6 27561.1 3102.89 1
-2 2 6 30281.7 3356.32 1
-2 -2 7 37729.5 3931.05 1
-2 2 7 50198.8 4716.97 1
-2 2 7 45313.9 2289.32 19
-2 -2 8 12487.1 1297.97 12
-2 -2 8 12174.9 2505.27 1
-2 2 8 12733.7 1333.71 19
-2 2 8 12241.4 2628.29 1
-2 2 9 3809.77 1813.17 1
-2 2 9 2358.98 675.268 19
-2 -2 9 3493.43 1490.39 1
-2 -2 10 882.682 422.675 15
-2 2 10 1306.35 524.405 19
-2 -2 11 1147.61 450.344 15
-2 2 11 2470.97 647.987 19
-2 2 11 1097.41 476.27 16
-2 -2 12 1965.06 503.204 15
-2 2 12 2587.86 582.561 19
-2 -2 12 1802.46 492.563 19
-2 2 12 1474.06 462.535 16
-2 2 13 10667.5 911.748 19
-2 -2 13 10806.9 868.078 19
-2 2 13 10909.5 834.248 16
-2 -3 -13 2249.3 397.71 3
-2 3 -13 1616.33 381.008 3
-2 -3 -12 19086.9 1407.01 3
-2 3 -12 18613.7 1465.9 3
-2 3 -11 1217.12 558.308 3
-2 -3 -11 789.597 442.818 3
-2 -3 -10 25630.5 2028.78 3
-2 -3 -9 51493.1 2945.73 3
-2 -3 -8 23299.1 1991.63 3
-2 -3 -7 35762.7 2320.38 3
-2 3 1 295996 5529.99 1
-2 -3 2 162795 5561.97 1
-2 3 2 166107 4928.64 1
-2 -3 3 44907.1 3234 2
-2 3 3 48332 3091.34 1
-2 -3 3 52158.3 3345.52 1
-2 3 4 10618.2 1743.34 1
-2 -3 4 11442.1 1802.25 2
-2 -3 4 13396 1853.81 1
-2 3 5 30698.8 3203.11 1
-2 -3 5 28713.9 3062.28 2
-2 -3 5 27761.3 2887.4 1
-2 3 6 349265 11776.8 1
-2 -3 6 319036 11027.3 2
-2 -3 6 320770 10427.8 1
-2 -3 7 9265.29 1149.26 12
-2 3 7 6712.63 956.521 19
-2 -3 7 7068.58 1835.37 1
-2 3 7 11574 2423.33 1
-2 3 8 45225.3 4945.76 1
-2 -3 8 51864.8 4927.24 1
-2 -3 8 47719.8 2612.7 12
-2 3 8 55821.6 2778.79 19
-2 -3 9 15533.1 1472.74 12
-2 3 9 16257.8 1574.51 19
-2 -3 10 67016.4 3223.58 15
-2 3 10 77055.5 3338.46 19
-2 -3 11 3408.29 716.663 15
-2 3 11 2778.83 637.024 19
-2 3 11 3587.34 727.174 16
-2 -3 12 735.282 336.139 15
-2 3 12 1259.49 430.367 19
-2 -3 12 992.285 358.102 19
-2 3 12 1198.81 404.931 16
-2 3 13 1065.5 248.224 14
-2 -3 13 1380.3 285.598 14
-2 3 13 968.729 290.931 19
-2 -3 13 1059.86 271.44 19
-2 3 13 1879.15 379.13 16
-2 4 -12 466.71 323.721 3
-2 -4 -12 259.182 250.295 3
-2 -4 -11 1190.56 457.091 3
-2 -4 -10 1224.12 535.484 3
-2 -4 -9 2962.74 789.68 3
-2 -4 -8 56048.2 3050.8 3
-2 -4 -7 37389.6 2380.55 3
-2 -4 -6 -443.857 368.15 3
-2 -4 3 187780 7058.69 2
-2 -4 3 201361 6644.66 1
-2 4 3 216298 6540.94 1
-2 4 4 29743.9 2790.98 1
-2 -4 4 26063.4 2904.11 2
-2 -4 4 27970.9 2694.96 1
-2 4 5 101912 5858.87 1
-2 -4 5 88608 5663.09 2
-2 -4 5 101079 5461.51 1
-2 4 6 99986.2 6353.99 1
-2 -4 6 103777 6598.83 2
-2 -4 6 109241 3951.6 12
-2 4 6 104621 3563.79 19
-2 -4 6 107077 5985.44 1
-2 4 6 101596 3448.52 7
-2 4 6 109480 3597.32 6
-2 4 7 1962.47 552.627 6
-2 4 7 2733.24 653.38 19
-2 4 7 2223.58 586.401 7
-2 4 7 -406.432 481.247 1
-2 -4 7 2387.7 621.068 12
-2 4 8 31275.6 4203.29 1
-2 -4 8 36098.9 2353.79 12
-2 4 8 37450.4 2319.33 19
-2 4 8 37177 2188.69 6
-2 -4 9 18048.9 1631.37 12
-2 4 9 18744.8 1658.29 19
-2 -4 10 160.675 412.935 15
-2 4 10 815.83 518.333 19
-2 -4 11 6429.07 930.157 15
-2 4 11 6200.8 877.184 19
-2 4 11 6013.92 896.998 16
-2 -4 12 14387.7 983.888 19
-2 4 12 17759.1 1239.84 19
-2 4 12 17316 1259.19 16
-2 -4 12 14918.7 1184.85 15
-2 4 13 618.32 220.804 19
-2 4 13 136.067 170.469 16
-2 -5 -12 12252.8 913.279 3
-2 5 -12 9341.44 860.83 3
-2 -5 -11 133.671 273.518 3
-2 -5 -10 16132.6 1462.4 3
-2 -5 -9 5804.53 969.305 3
-2 -5 -8 10909.4 1354.47 3
-2 -5 -7 21943.3 1879.81 3
-2 -5 -6 73473.1 3296.46 3
-2 -5 -6 67326.5 2547.15 17
-2 -5 -5 179563 4903.44 3
-2 -5 -5 174953 4114.77 17
-2 -5 3 106805 5676.1 2
-2 -5 4 144282 7104.23 2
-2 -5 5 40471.1 4092.44 2
-2 -5 5 41494.9 2506.92 12
-2 -5 5 40896.8 2272.16 20
-2 5 5 40163.7 2235.55 19
-2 5 5 36753.2 2150.67 7
-2 5 5 38811.7 2249.6 6
-2 -5 6 26167.4 3531.91 2
-2 -5 6 27660.7 2100.45 12
-2 -5 6 26612.9 1839.66 20
-2 5 6 28352.3 1961.25 19
-2 5 6 29967.8 2011.09 7
-2 5 6 27764.3 1969.56 6
-2 -5 7 95368.5 3935.48 12
-2 5 7 91141.6 3524.08 7
-2 5 7 88390.3 3520.38 19
-2 5 7 96927 3694.06 6
-2 -5 8 12314.4 1399.83 12
-2 5 8 9857.92 1214.41 19
-2 5 8 11273.3 1216.02 7
-2 5 8 11060.5 1258.36 6
-2 5 9 1400.75 472.939 6
-2 -5 9 851.062 353.449 12
-2 5 9 1429 567.237 19
-2 -5 10 5386.54 932.199 15
-2 5 10 4533.37 670.981 6
-2 5 10 4943.18 833.905 19
-2 -5 10 5714 832.374 12
-2 5 10 5068.9 865.643 16
-2 -5 11 29345.9 1837.92 15
-2 5 11 31131.8 1741.52 19
-2 5 11 28032.7 1741.8 16
-2 -5 12 811.343 300.391 15
-2 5 12 511.001 253.242 16
-2 -6 -11 1055.69 257.769 8
-2 -6 -11 2429.63 468.478 3
-2 -6 -11 2119.48 334.291 9
-2 -6 -10 2388.97 569.228 3
-2 -6 -9 41992.3 2342.1 3
-2 -6 -8 28901.3 2098.92 3
-2 -6 -7 100755 3977.11 3
-2 -6 -6 115302 4202.38 3
-2 -6 -6 111026 3382.03 17
-2 -6 -5 164793 4902.47 3
-2 6 -5 163035 4290.81 4
-2 -6 -5 166537 4222.9 17
-2 -6 -4 16921.9 1551.46 3
-2 6 -4 15475.8 1360.39 4
-2 -6 -4 16161.8 1341.74 17
-2 -6 -3 49419.9 2516.71 3
-2 6 -3 47309.9 2347.58 4
-2 -6 -3 51716.8 2355.56 17
-2 6 -2 115257 3769.57 18
-2 6 -2 107879 3528.9 4
-2 -6 -2 116813 3482.88 17
-2 -6 -1 6770.33 946.605 8
-2 6 -1 5947.62 844.892 4
-2 -6 -1 6673.15 848.027 17
-2 -6 2 88830.4 3201.68 8
-2 6 2 84279.4 3030.58 4
-2 6 2 82793.5 3166.15 7
-2 6 2 83487.4 3322.09 6
-2 -6 3 27470.3 1909.59 20
-2 -6 3 24985.9 1757.92 8
-2 6 3 29038 1778.91 4
-2 6 3 28085.9 1908.61 7
-2 6 3 28474.4 1991.45 6
-2 -6 4 5554.19 904.806 20
-2 6 4 4608.76 820.311 7
-2 6 4 5145.09 906.382 6
-2 -6 5 31410.6 2306.24 12
-2 -6 5 30650.8 2047.41 20
-2 6 5 29373 2051.97 7
-2 6 5 30583.1 2140.66 6
-2 6 5 26654.7 1851.66 16
-2 6 6 4518.98 854.739 6
-2 -6 6 4925.74 941.678 12
-2 -6 6 4913.3 810.675 20
-2 6 6 5034.22 879.977 19
-2 6 6 4332.94 828.129 7
-2 6 6 4356.62 787.777 16
-2 -6 7 503.294 428.519 12
-2 6 7 144.753 366.208 6
-2 6 7 97.6004 249.263 19
-2 6 7 63.6137 221.045 7
-2 6 7 124.654 231.12 16
-2 -6 8 60012.8 3067.95 12
-2 6 8 62340.7 2921.15 19
-2 6 8 60223.7 2787.58 7
-2 6 8 63043.7 2976.07 6
-2 6 8 59134.8 2907.28 16
-2 -6 9 13563.3 1361.31 12
-2 6 9 14302 1344.36 19
-2 6 9 12735.9 1249.29 6
-2 6 9 12449.8 1298.67 16
-2 -6 10 5675.61 854.101 15
-2 -6 10 4984.19 711.71 12
-2 6 10 4792.85 683.411 6
-2 6 10 5313.14 796.283 16
-2 -6 11 704.861 326.667 15
-2 6 11 525.93 284.023 16
-2 6 12 14198.9 825.303 16
-2 -6 12 14380 869.296 15
-2 7 -11 161.519 147.179 3
-2 -7 -10 660.731 238.328 8
-2 -7 -10 1160.09 350.349 3
-2 -7 -9 -155.463 192.704 8
-2 -7 -9 -161.435 244.23 3
-2 -7 -8 13917.7 1337.24 3
-2 -7 -8 12939.8 1261.78 8
-2 -7 -7 8787.09 1176.13 3
-2 -7 -6 18137.1 1656.64 3
-2 -7 -6 15747.6 1288.44 17
-2 -7 -5 101360 3906.37 3
-2 -7 -5 92264.7 3212.74 17
-2 7 -5 91535 3356.96 4
-2 -7 -4 24260.5 1878.72 3
-2 7 -4 23656.9 1746.26 4
-2 -7 -4 22371.1 1633.88 17
-2 -7 -4 22466.3 1909.34 8
-2 -7 -3 7485 1101.03 8
-2 -7 -3 8828.95 1116.39 3
-2 7 -3 8878.68 1098.57 4
-2 -7 -3 9711.54 1105.37 17
-2 -7 -2 44894.8 2499.78 3
-2 7 -2 44439.7 2471.41 18
-2 -7 -2 45323.6 2617.09 8
-2 -7 -2 43410.6 2287.12 17
-2 7 -2 43154.6 2375.38 4
-2 -7 -1 244194 5667.46 3
-2 -7 -1 249132 5958.15 8
-2 7 -1 239103 5755.2 18
-2 7 -1 239612 5572.9 4
-2 -7 -1 250205 5440.42 17
-2 -7 0 35403.6 2156.06 3
-2 -7 0 34720.7 2183.23 8
-2 7 0 34939.1 2201.18 18
-2 7 0 36462.4 2176.13 4
-2 -7 0 34042.9 2003.71 17
-2 7 0 33100.5 2065.88 7
-2 7 1 3139.17 721.635 6
-2 -7 1 2685.26 655.838 8
-2 -7 1 2873.68 622.259 3
-2 7 1 3598.34 713.621 18
-2 -7 1 2192.81 529.091 17
-2 7 1 2661.52 637.426 7
-2 7 1 2881.8 658.852 4
-2 -7 2 21147.1 1710.08 8
-2 -7 2 20047.8 1499.63 17
-2 7 2 20176.3 1600.77 4
-2 7 2 19928.2 1662.51 7
-2 7 2 19600.7 1750.99 6
-2 -7 2 19353.4 1610.06 3
-2 -7 3 119441 4228.8 20
-2 7 3 123487 3889.16 4
-2 7 3 120930 4177.37 7
-2 7 3 121251 4343.51 6
-2 -7 4 339396 7081.79 20
-2 7 4 363361 6432.3 4
-2 7 4 327970 7039.57 7
-2 7 4 339743 7315.88 6
-2 -7 5 75558.6 3666.92 12
-2 -7 5 74449.4 3263.63 20
-2 7 5 78833.2 3444.1 7
-2 7 5 77755.3 3518.4 6
-2 -7 6 260255 6699.2 12
-2 -7 6 273789 5973.43 20
-2 7 6 271989 6369.18 7
-2 7 6 265904 6454.53 6
-2 7 6 275541 5842.58 16
-2 -7 7 29325.6 2213.35 12
-2 7 7 27384.1 1946.26 7
-2 7 7 25836.8 1981.14 6
-2 7 7 28045.9 1866.33 16
-2 -7 8 23271.9 1805.89 12
-2 7 8 21206.6 1590.32 7
-2 7 8 21846.7 1700.31 6
-2 7 8 22098.8 1593.22 16
-2 -7 9 14135.3 1298.21 15
-2 -7 9 14352 1281.23 12
-2 7 9 16028.3 1288.7 6
-2 7 9 12955.8 1150.09 16
-2 -7 10 800.23 348.626 15
-2 7 10 345.225 241.518 6
-2 -7 10 684.701 273.682 12
-2 7 10 1212.21 364.938 16
-2 -7 11 1062.72 279.428 15
-2 -8 -9 2166.52 419.275 3
-2 -8 -9 1053.94 253.958 8
-2 -8 -8 9187.04 896.59 8
-2 -8 -8 11005.2 1037.7 3
-2 -8 -7 2173 543.172 8
-2 -8 -7 2533.88 589.738 3
-2 -8 -6 7816.45 1058.22 3
-2 8 -6 8572.75 932 4
-2 -8 -6 8183.22 1076.86 8
-2 -8 -5 1579.86 561.314 3
-2 -8 -5 1531.8 500.34 8
-2 8 -5 1916.02 572.74 4
-2 -8 -4 17559.7 1605.38 3
-2 8 -4 14290.2 1387.37 4
-2 -8 -4 14890.2 1601.06 8
-2 -8 -4 15018.4 1350.52 17
-2 -8 -3 8787.93 1152.1 3
-2 -8 -3 7475.05 1073.94 8
-2 8 -3 8435.38 1085.59 4
-2 -8 -3 8377.3 1039.76 17
-2 -8 -2 40751.4 2414.31 3
-2 -8 -2 41311.3 2502.21 8
-2 8 -2 39346.5 2335.89 4
-2 -8 -2 42846.7 2333.35 17
-2 -8 -1 11181.4 1343.64 3
-2 -8 -1 10972.4 1318.8 8
-2 8 -1 8261.92 1169.1 18
-2 8 -1 8995.18 1172.65 4
-2 -8 -1 8699.22 1056.42 17
-2 -8 0 8487.29 1132.21 8
-2 8 0 10001.5 1208.69 4
-2 8 0 7868.61 1084.39 18
-2 -8 0 7923.37 1033.03 17
-2 8 0 7676.28 1033.32 7
-2 -8 0 8163.77 1083.38 3
-2 -8 1 27306.1 1985.16 8
-2 8 1 26136.8 1904.48 4
-2 8 1 27612.9 2043.28 18
-2 8 1 26730.7 1917.7 7
-2 -8 1 25716.3 1912.31 3
-2 8 2 1311.82 529.432 6
-2 -8 2 1382.39 504.02 20
-2 -8 2 487.183 369.053 8
-2 8 2 864.283 477.102 18
-2 8 2 397.584 315.126 7
-2 8 2 464.975 350.804 4
-2 -8 2 449.914 378.37 3
-2 -8 3 7301.7 1075.65 20
-2 8 3 6776.09 992.988 4
-2 8 3 7069.08 1076.65 7
-2 8 3 6281.07 1011.32 6
-2 -8 4 7858.36 1203.71 12
-2 -8 4 8864.26 1147.57 20
-2 8 4 8027.51 971.215 4
-2 8 4 8290.21 1147.59 7
-2 8 4 8305.47 1159.92 6
-2 -8 5 7425.65 1143.58 12
-2 -8 5 7693.53 1028.07 20
-2 8 5 8156.08 1154.6 7
-2 8 5 8093.43 1163.9 6
-2 -8 6 41260.5 2561.32 12
-2 8 6 39992.1 2340.6 7
-2 8 6 41405.2 2428.22 6
-2 -8 7 70024.8 3117.7 12
-2 8 7 65826.8 2823.08 7
-2 8 7 65908.5 2874.47 6
-2 -8 8 67456.8 2570.8 15
-2 -8 8 75098.4 2900.88 12
-2 8 8 74314.8 2782.06 6
-2 -8 9 11284.9 948.515 15
-2 -8 9 11020.7 948.803 12
-2 8 9 11183.3 933.621 6
-2 -8 10 1089.98 278.141 15
-2 8 10 640.711 216.584 18
-2 -9 -8 407.908 182.467 3
-2 -9 -7 26433.1 1475.55 3
-2 -9 -7 24096.2 1308.76 8
-2 -9 -6 1566 419.073 8
-2 -9 -6 1470.49 424.315 3
-2 9 -6 1436.56 349.58 4
-2 -9 -5 26195.6 1740.66 3
-2 -9 -5 27968.8 1763.37 8
-2 9 -5 25337.4 1569.61 4
-2 -9 -4 93909.3 3430.64 3
-2 -9 -4 101226 3537.09 8
-2 9 -4 99989.1 3358.78 4
-2 -9 -3 73331.2 3102.85 3
-2 -9 -3 75518.4 3111.48 8
-2 9 -3 71781 2985.54 4
-2 -9 -2 14535 1413.7 8
-2 9 -2 13025.2 1331.78 4
-2 -9 -2 12689.8 1323.16 3
-2 -9 -1 204562 5317.56 8
-2 9 -1 193544 5075.22 4
-2 9 -1 204467 5213.73 18
-2 -9 -1 207288 5262.23 3
-2 -9 0 22675 1799.49 8
-2 9 0 19285 1620.27 4
-2 9 0 21914.7 1752.29 18
-2 9 0 17228.5 1470.63 7
-2 -9 0 20911.5 1706.17 3
-2 -9 1 2565.6 651.284 3
-2 9 1 1987.33 590.635 18
-2 -9 1 3386.54 786.96 20
-2 9 1 2387.71 592.251 7
-2 9 1 2850.62 657.025 4
-2 -9 2 2933.03 690.912 12
-2 -9 2 2962.53 720.354 20
-2 9 2 3426.78 716.403 18
-2 9 2 3268.27 711.463 7
-2 9 2 2857.29 681.034 4
-2 -9 3 12672.4 1414.51 12
-2 -9 3 15040.6 1453.37 20
-2 9 3 13255 1358.83 18
-2 9 3 13958.1 1384.56 7
-2 9 3 13434.9 1239.48 4
-2 -9 4 6068.66 991.489 12
-2 -9 4 6364.89 895.077 20
-2 9 4 6863.19 800.613 4
-2 9 4 5805.79 921.586 7
-2 9 4 6866.45 984.97 18
-2 9 4 6314.4 977.798 6
-2 9 5 2339.79 620.49 6
-2 -9 5 2355.13 619.122 12
-2 -9 5 2461.03 528.941 20
-2 9 5 2562.29 625.4 18
-2 9 5 2349.19 587.622 7
-2 -9 6 11845.8 1235.81 12
-2 9 6 11122.7 1123.81 18
-2 9 6 11187.6 1131.45 7
-2 9 6 10652.1 1112.38 6
-2 -9 7 52894.3 2319.97 12
-2 9 7 54792.3 2250.72 18
-2 9 7 55382.3 2236.77 7
-2 9 7 56972.7 2307.37 6
-2 -9 8 11106.5 909.048 12
-2 9 8 10564.2 859.914 18
-2 -10 -6 1884.62 359.797 3
-2 -10 -6 1566.19 292.798 8
-2 -10 -5 12942.7 986.418 20
-2 10 -5 12944.9 912.134 4
-2 -10 -5 14288.1 994.332 8
-2 -10 -5 14906.6 1062.15 3
-2 -10 -4 321.197 310.14 3
-2 -10 -4 22.9514 198.404 8
-2 10 -4 82.1669 214.133 4
-2 -10 -3 19037.7 1370.97 8
-2 10 -3 16878.5 1288.41 4
-2 -10 -3 16041 1248.32 3
-2 -10 -2 14468.5 1238.88 8
-2 10 -2 12931.9 1195.42 4
-2 -10 -2 11277.3 1097.74 3
-2 -10 -1 4992.73 815.254 20
-2 -10 -1 4684.68 756.336 8
-2 10 -1 4300.38 747.091 4
-2 -10 -1 4572.02 724.374 3
-2 -10 0 49995.4 2485 20
-2 10 0 42623.9 2141.93 4
-2 -10 1 37616.8 2008.84 12
-2 -10 1 42979.8 2284.12 20
-2 10 1 40704.5 2047.03 4
-2 10 1 43074.7 2144.97 18
-2 10 1 38940.4 1951.56 7
-2 10 2 5710.31 749.885 4
-2 -10 2 6850.8 910.245 12
-2 -10 2 6421.6 873.225 20
-2 10 2 6704.77 866.674 18
-2 10 2 5684.86 803.802 7
-2 -10 3 61.7014 213.15 20
-2 10 3 219.348 292.717 18
-2 10 3 -217.848 283.923 7
-2 10 3 314.545 237.906 4
-2 -10 3 -54.2058 225.289 12
-2 -10 4 26717 1682.94 12
-2 -10 4 25347.9 1457.02 20
-2 10 4 26119.8 1583.46 18
-2 10 4 26166.9 1606.02 7
-2 10 5 90.814 225.085 18
-2 10 5 -231.449 233.909 7
-2 -10 5 269.178 250.267 12
-2 -10 6 179.376 188.996 12
-2 10 6 -66.3729 132.216 18
-2 -10 7 496.41 199.989 12
-2 10 7 1548.44 288.654 18
-2 -11 -3 -131.462 150.4 20
-2 11 -3 43.9947 155.801 4
-2 -11 -2 1051.83 330.171 20
-2 11 -2 1332.17 331.978 4
-2 -11 -1 2838.56 508.564 20
-2 11 -1 2328.58 433.719 4
-2 -11 0 9203.19 865.589 20
-2 11 0 10029 841.132 4
-2 -11 1 10904.9 904.85 20
-2 11 1 10768.6 829.578 4
-2 -11 2 18957.8 1022.38 12
-2 -11 2 27114.5 1337.06 20
-2 11 2 26106.4 1161.49 4
-2 -11 3 23657 1152.57 12
-1 0 -14 3140.28 424.209 3
-1 0 -13 -354.712 290.342 3
-1 0 -12 7823.31 1097 3
-1 0 -11 125.619 354.707 3
-1 0 -10 57306.1 3193.72 3
-1 0 -9 4.92086 420.642 3
-1 0 0 156608 3123.88 1
-1 0 1 258.854 245.786 1
-1 0 3 855.771 393.287 2
-1 0 3 1080.07 513.631 1
-1 0 4 109026 3950.92 2
-1 0 4 122607 4748.27 1
-1 0 5 1814.78 875.677 1
-1 0 5 1852.09 675.674 2
-1 0 6 15420 1826.75 2
-1 0 6 14114.1 2138.7 1
-1 0 7 763.222 635.463 1
-1 0 8 40097.8 4228.93 1
-1 0 9 717.64 832.118 1
-1 0 12 130934 4048.82 19
-1 0 13 216.944 308.895 19
-1 0 14 1891.68 355.008 19
-1 -1 -14 3690.43 448.621 3
-1 1 -14 3408.98 441.217 3
-1 -1 -13 2990.22 584.645 3
-1 1 -13 1198.95 435.496 3
-1 -1 -12 18200.3 1608.38 3
-1 1 -12 17375.8 1610.64 3
-1 -1 -11 7220.91 1136.99 3
-1 1 -11 9922.37 1329.76 3
-1 -1 -10 95569.9 4089.64 3
-1 1 -10 88632.6 3976.31 3
-1 -1 -9 187881 5689.61 3
-1 -1 -8 107118 4002 3
-1 1 0 15308 846.905 1
-1 -1 0 14972.8 1064.69 1
-1 1 1 61138.7 2075.63 1
-1 -1 1 64591.4 2215.41 2
-1 1 1 62147.7 1801.34 23
-1 -1 1 53883.7 2164.14 1
-1 -1 2 5209.3 807.228 1
-1 -1 2 6265.17 818.586 2
-1 1 2 4986.34 746.076 23
-1 1 2 5872.81 812.683 1
-1 -1 3 116461 4056.42 1
-1 -1 3 110226 3814.13 2
-1 1 3 117351 4133.42 23
-1 1 3 124542 4260.52 1
-1 -1 4 21926.8 1922.46 2
-1 1 4 24435 2175.79 23
-1 1 4 23249.5 2169.33 1
-1 -1 4 23849.4 2095.93 1
-1 -1 5 29663.3 2464.32 2
-1 1 5 26333.8 2629.8 1
-1 -1 5 31447.1 2754.58 1
-1 -1 6 137300 5823.57 2
-1 1 6 131395 6456.58 1
-1 -1 6 135272 6188.43 1
-1 -1 7 29326 3064.8 2
-1 1 7 41898 4035.08 1
-1 -1 7 32775.3 3433.57 1
-1 -1 8 42381.2 4312.6 1
-1 1 8 41079.1 4437.95 1
-1 -1 9 108311 7486.37 1
-1 1 9 103460 7424.63 1
-1 -1 10 2046.84 612.805 15
-1 1 11 9633.18 1216.91 19
-1 1 12 9166.18 1085.68 19
-1 1 13 1902.47 464.935 19
-1 -1 13 1807.83 461.973 19
-1 1 14 1728.01 321.001 19
-1 -1 14 2085.46 356.905 19
-1 -2 -13 598.747 290.967 3
-1 2 -13 327.936 282.237 3
-1 2 -12 -57.2518 286.758 3
-1 -2 -12 529.162 454.153 3
-1 -2 -11 10413 1329.82 3
-1 2 -11 11263.3 1413.02 3
-1 -2 -10 1456.96 523.105 3
-1 -2 -9 22066.2 2000.22 3
-1 -2 -8 85189.2 3625.14 3
-1 -2 0 40942.2 1646.33 2
-1 2 0 51863 1449.51 23
-1 2 0 39099.6 1125.01 1
-1 2 1 99686.2 2530.07 23
-1 -2 1 99728.8 3073.03 2
-1 -2 1 92367.9 2899.4 1
-1 2 1 102328 2671.08 1
-1 2 2 162212 4166.33 23
-1 -2 2 163654 4538.49 2
-1 -2 2 144552 4069.93 1
-1 2 2 175671 4390.38 1
-1 -2 3 3668.38 777.884 1
-1 2 3 4500.22 894.57 23
-1 2 3 4118.05 890.75 1
-1 -2 3 3743.12 856.754 2
-1 2 4 113525 4799.22 23
-1 -2 4 117247 4637.04 1
-1 -2 4 118760 4870.93 2
-1 2 4 109156 4804.31 1
-1 -2 5 57674.6 3629.58 1
-1 -2 5 52854.7 3566.75 2
-1 2 5 49979.2 3665.87 23
-1 2 5 52298.2 3749.35 1
-1 -2 6 303266 9340.64 1
-1 -2 6 310891 9409.06 2
-1 2 6 301839 10221.3 23
-1 2 6 298302 9906.4 1
-1 -2 7 245820 9315.77 1
-1 -2 7 226500 8719.67 2
-1 2 7 268154 10305 1
-1 -2 8 27962.5 3323.93 2
-1 -2 8 31352.8 3660.15 1
-1 2 8 32303.4 3998.97 1
-1 -2 9 5864.54 1817.05 1
-1 2 9 1873.72 546.039 19
-1 2 9 1895.06 1226.07 1
-1 2 10 41780.4 2464.59 19
-1 -2 11 3930.67 765.977 15
-1 2 11 2293.54 626.939 19
-1 -2 12 12924.1 1147.66 15
-1 2 12 14563.8 1306.72 19
-1 2 13 1795.22 462.211 19
-1 -2 13 876.512 356.132 19
-1 2 13 1584.46 354.003 16
-1 2 14 1402.92 279.175 19
-1 -2 14 1384.29 268.461 19
-1 -3 -13 4429.58 594.079 3
-1 3 -13 3755.79 598.276 3
-1 3 -12 1516.71 538.705 3
-1 -3 -12 1342.51 490.922 3
-1 -3 -11 44998.4 2602.54 3
-1 -3 -10 106419 4177.08 3
-1 -3 -9 17961 1770.43 3
-1 -3 -8 47735.2 2724.94 3
-1 -3 -7 59420.3 2889.75 3
-1 3 -1 114316 2694.62 23
-1 3 0 9692.51 1263.87 23
-1 -3 0 17245.5 1222.35 2
-1 -3 1 9754.57 1109.67 2
-1 3 1 8767.06 994.505 23
-1 3 1 10388.8 854.569 1
-1 3 2 87584 3420.27 23
-1 -3 2 97029.3 3896.76 2
-1 3 2 82588.8 3177.05 1
-1 -3 2 82552.9 3133.5 1
-1 3 3 87418.2 3912.89 23
-1 -3 3 92393.4 4269.82 2
-1 -3 3 89684.3 3598.21 1
-1 3 3 99915.1 4090.91 1
-1 -3 4 418698 8779.59 1
-1 -3 4 473881 10576.1 2
-1 3 4 453067 10120.5 23
-1 3 4 472854 10192.9 1
-1 -3 5 121880 5258.75 1
-1 -3 5 132224 6034.69 2
-1 3 5 123125 6029.3 23
-1 3 5 122619 5871.49 1
-1 -3 6 10493.2 1916.85 2
-1 -3 6 10705.5 1763.87 1
-1 3 6 7426.44 1734.27 23
-1 3 6 12211.5 2114.73 1
-1 -3 7 89167.2 5856.62 2
-1 -3 7 89961.5 5560.24 1
-1 3 7 100712 3435.15 19
-1 3 7 105643 6685.73 1
-1 -3 8 14381.9 2561.68 2
-1 -3 8 11011.9 2186.6 1
-1 3 8 15304 1438.96 19
-1 3 8 16062.5 2905.81 1
-1 3 8 16947.9 1429.45 6
-1 -3 9 53963.2 5133.04 2
-1 3 9 56678.5 2831.09 19
-1 3 9 65208.8 6090.13 1
-1 3 10 73855.4 3252.08 19
-1 -3 11 29203.9 1996.35 15
-1 3 11 30416.4 2008.6 19
-1 -3 12 101.402 177.763 15
-1 3 12 -228.959 311.924 19
-1 3 13 7745.97 762.613 19
-1 -3 13 8315.56 788.317 19
-1 3 13 9182.89 818.121 16
-1 -4 -13 9674.27 778.512 3
-1 4 -13 8344.37 747.275 3
-1 4 -12 106.147 232.204 3
-1 -4 -12 126.338 250.879 3
-1 -4 -11 16615.2 1510.91 3
-1 -4 -10 9901 1301.9 3
-1 -4 -9 125413 4532.9 3
-1 -4 -8 27454.9 2125.78 3
-1 -4 -7 63160.1 3069.26 3
-1 4 -2 646.877 264.652 23
-1 4 -1 187886 4547.56 23
-1 -4 0 540692 7759.28 2
-1 4 0 335404 8689.25 23
-1 -4 1 34405.6 2298.94 2
-1 4 1 36090.3 2414.45 23
-1 -4 2 32854.8 2517.64 2
-1 4 2 31420 2354.97 23
-1 4 2 32910.4 2017.09 1
-1 4 3 2313.91 788.367 23
-1 -4 3 1068.57 557.337 2
-1 -4 3 1621.14 532.595 1
-1 4 3 1201.72 526.763 1
-1 -4 4 7424.68 1490.82 2
-1 4 4 7654.44 1438.36 23
-1 4 4 5155.66 1205.67 1
-1 -4 4 5679.11 1028.13 1
-1 4 5 2034.5 910.418 23
-1 -4 5 1102.85 750.978 2
-1 4 5 1229.46 794.402 1
-1 -4 6 19986.8 2818.28 2
-1 4 6 20563.7 2897.02 23
-1 4 6 23204.3 3019.8 1
-1 -4 7 10430.1 1226.28 12
-1 4 7 8076.76 2006.39 23
-1 -4 7 6645.3 1838.01 2
-1 4 7 9190.31 1049.1 19
-1 4 7 9375.68 2141.04 1
-1 4 7 9277.11 1108.09 6
-1 4 8 1601.63 498.009 6
-1 -4 8 3292.79 764.129 12
-1 -4 8 3047.82 1296.89 2
-1 4 8 2542.32 650.65 19
-1 4 8 4709 1650.37 1
-1 4 9 58795.2 2870.78 19
-1 4 9 64857 2886.2 6
-1 4 10 162212 4658.59 19
-1 4 10 172726 4453.4 6
-1 4 11 23814.1 1706.35 19
-1 -4 12 9628.08 970.192 15
-1 4 12 10248.2 975.863 19
-1 4 12 10392.5 1041.5 16
-1 4 13 10376.6 770.932 19
-1 -4 13 8572.24 683.006 19
-1 4 13 11000.8 831.979 16
-1 5 -12 1424.58 411.026 3
-1 -5 -12 1821.31 387.809 3
-1 -5 -11 6434.97 898.011 3
-1 -5 -10 17684 1605.26 3
-1 -5 -9 13129.5 1476.94 3
-1 -5 -8 119190 4414.06 3
-1 -5 -7 18407 1717.87 3
-1 -5 -6 33410 2206.1 3
-1 -5 -5 40994.9 2328.23 3
-1 -5 0 381198 7147.79 2
-1 -5 1 8711.93 1253.06 2
-1 5 1 6078.55 1199.05 23
-1 -5 2 55704.5 3563.78 2
-1 5 2 64050.3 3695.8 23
-1 5 3 217418 7374.32 23
-1 -5 3 185817 7190.61 2
-1 5 4 11165.5 1925.96 23
-1 -5 4 12297.1 1961.42 2
-1 5 5 20159.4 2775.45 23
-1 -5 5 18678.5 2701.48 2
-1 5 5 19918.2 2518.87 1
-1 5 5 18530.8 1513.18 6
-1 -5 6 15293.5 2564.82 2
-1 5 6 14837.3 2553.55 23
-1 5 6 13608.8 1300.8 19
-1 5 6 11077.3 2101.06 1
-1 5 6 13958.8 1299.34 7
-1 5 6 14395.4 1398.82 6
-1 -5 7 29811.8 3790.92 2
-1 -5 7 32753.8 2252.26 12
-1 5 7 25671.3 3701.91 23
-1 5 7 30733.5 2011.02 19
-1 5 7 30101.4 1925.05 7
-1 5 7 34798.2 4032.08 1
-1 5 7 28640.6 2010.13 6
-1 -5 8 55328.2 2882.13 12
-1 5 8 50728.7 2631.34 19
-1 5 8 51725.7 2704.64 6
-1 -5 9 76427.1 3209.41 12
-1 5 9 73057.9 3161.95 19
-1 5 9 70263.3 3089.5 6
-1 5 10 32697.2 2010.48 19
-1 5 10 32353.1 1967.59 6
-1 5 11 536.527 226.662 6
-1 5 11 159.442 307.929 19
-1 -5 12 357.059 219.454 15
-1 5 12 248.483 165.293 19
-1 5 12 438.221 222.781 16
-1 -6 -12 16013.4 924.864 3
-1 6 -12 12655.9 880.857 3
-1 -6 -11 18522.9 1287.96 3
-1 -6 -10 5704.75 863.139 3
-1 -6 -9 5985.08 961.325 3
-1 -6 -8 57424.7 2996.07 3
-1 -6 -7 18106.6 1708.43 3
-1 -6 -6 28614.4 2111.63 3
-1 -6 -5 6962.65 1034.03 3
-1 -6 -5 7538.94 890.505 17
-1 -6 -4 25526.9 1851.95 3
-1 -6 -4 29093.4 1701.04 17
-1 -6 -3 15590.5 1410.29 3
-1 -6 2 10031.7 1644.1 2
-1 -6 3 47138.9 3847.89 2
-1 -6 3 48151.3 2392 8
-1 6 3 51751.1 2457.18 7
-1 6 3 51701 2535.71 6
-1 -6 4 7312.4 957.028 20
-1 -6 4 6067.51 1544.97 2
-1 6 4 7701.4 994.805 7
-1 6 4 6492.5 970.325 6
-1 6 5 3686.27 773.268 6
-1 -6 5 1911.02 1086.31 2
-1 6 5 4776 814.733 19
-1 6 5 3361.24 694.857 7
-1 6 6 534.434 403.547 6
-1 -6 6 2428.22 1182.07 2
-1 6 6 710.233 390.822 19
-1 6 6 1017.31 450.885 7
-1 -6 7 8835.06 1236.58 12
-1 6 7 8725.48 1103.18 19
-1 6 7 7905.06 1056.01 7
-1 6 7 7522.13 1065.45 6
-1 -6 8 101269 3946.23 12
-1 6 8 99617.9 3623.15 19
-1 6 8 106767 3656.47 7
-1 6 8 114573 4056.91 6
-1 -6 9 8449.26 1067.49 12
-1 6 9 6800.4 925.067 19
-1 6 9 5871.79 918.483 6
-1 6 10 12633.9 1151.64 19
-1 6 10 13650.1 1216.75 6
-1 -6 11 1058.38 385.323 15
-1 6 11 1059 315.031 6
-1 6 11 374.14 231.423 16
-1 -6 12 472.71 203.426 15
-1 6 12 488.207 207.296 16
-1 -7 -11 583.727 221.915 3
-1 -7 -10 16866.7 1245.28 3
-1 -7 -9 3273.07 568.219 8
-1 -7 -9 4051.87 753.048 3
-1 -7 -8 61354.5 2920.97 3
-1 -7 -8 53509.4 2478.55 8
-1 -7 -7 3361.14 688.677 8
-1 -7 -7 3343.36 775.67 3
-1 -7 -6 50651.5 2796.05 3
-1 -7 -6 42279 2480.82 8
-1 7 -6 49563.1 2339.07 4
-1 -7 -5 65675.1 3190.91 3
-1 -7 -5 60627.6 3015.62 8
-1 -7 -5 63666.9 2597.9 17
-1 -7 -4 69189.2 3213.63 3
-1 -7 -4 66468.3 3120.26 8
-1 -7 -4 60809.2 2606.76 17
-1 -7 -3 53468.2 2775 3
-1 -7 -3 53261.4 2772.94 8
-1 -7 -3 53174.8 2471.68 17
-1 -7 -2 43128.1 2444.24 3
-1 -7 -2 41644.5 2411.03 8
-1 7 -2 41424.2 2240.93 18
-1 -7 -2 39380.1 2118.45 17
-1 -7 -1 10652.6 1231.61 3
-1 -7 -1 9124.58 1129.01 8
-1 7 -1 10158.3 1141.39 18
-1 -7 -1 7603.52 940.852 17
-1 7 -1 9894.77 1015.46 7
-1 -7 0 23000.4 1754.83 3
-1 -7 0 21713.1 1688.13 8
-1 7 0 19504.8 1564.15 18
-1 -7 0 21359.7 1551.24 17
-1 7 0 22791.3 1611.47 7
-1 7 0 21215.9 1639.97 6
-1 -7 1 10677.4 1187.1 8
-1 7 1 10233.1 1129.64 7
-1 7 1 9544.42 1143.19 6
-1 -7 1 11963 1267.94 3
-1 -7 2 46512.8 2496.27 8
-1 7 2 45843.6 2425.93 7
-1 7 2 44739.3 2503.17 6
-1 -7 2 43519.9 2456.22 3
-1 7 3 141158 3912.97 4
-1 7 3 133234 4218.85 7
-1 -7 3 130645 4321.64 3
-1 7 3 137155 4459.39 6
-1 -7 4 77743.4 5640.02 2
-1 -7 4 90024.2 3464.96 20
-1 7 4 92344.2 3572.75 7
-1 7 4 90051.6 3686.27 6
-1 -7 5 30380.9 3676.31 2
-1 7 5 30920.7 2108.71 7
-1 7 5 30975.9 2223.15 6
-1 7 6 15870.3 1507.84 7
-1 7 6 14988.3 1543.38 6
-1 -7 7 7830.7 1162.39 12
-1 7 7 8004.11 1053.22 7
-1 7 7 8486.29 1139.79 6
-1 -7 8 80079.8 3378.67 12
-1 7 8 76015.7 2989.25 7
-1 7 8 75163.9 3224.02 6
-1 7 9 1912.82 559.25 6
-1 -7 9 1781.14 505.253 12
-1 7 9 1559 439.685 7
-1 7 9 2029.58 518.245 16
-1 7 10 7279.29 815.856 6
-1 7 10 7061.52 792.286 16
-1 -7 11 5093.03 617.055 15
-1 7 11 4506.43 519.034 16
-1 -8 -10 455.555 209.831 3
-1 -8 -9 982.771 363.141 3
-1 -8 -8 595.898 264.608 8
-1 -8 -8 762.69 384.415 3
-1 -8 -7 41844.6 2351.91 3
-1 -8 -7 37102.4 1982.6 8
-1 -8 -6 5686.62 856.353 8
-1 -8 -6 4980.65 824.607 3
-1 8 -6 4728.21 702.787 4
-1 -8 -5 9248.38 1222.58 3
-1 -8 -5 11974.3 1310.47 8
-1 8 -5 10452.6 1152.8 4
-1 -8 -4 13886.2 1490.06 3
-1 -8 -4 12871.7 1372.58 8
-1 -8 -3 189120 5382.59 3
-1 -8 -3 165459 4899.9 8
-1 -8 -2 213230 5687.45 3
-1 -8 -2 206348 5434.92 8
-1 8 -2 203207 5060.03 18
-1 -8 -1 16257.1 1592.57 3
-1 -8 -1 14200.5 1442.36 8
-1 8 -1 15567.2 1452.3 18
-1 8 -1 16493.8 1408.27 7
-1 -8 0 26257.6 1960.38 8
-1 8 0 25793.5 1894.65 18
-1 8 0 25125.9 1786.1 7
-1 -8 0 27020.9 2014.39 3
-1 -8 1 51218.4 2774.27 8
-1 8 1 50449.5 2658.1 18
-1 8 1 52720.8 2628.51 4
-1 8 1 48493 2565.79 7
-1 8 1 48468.7 2627.98 6
-1 -8 1 52169.3 2810.84 3
-1 8 2 41481.1 2285.63 4
-1 8 2 41549.9 2426.88 7
-1 8 2 40346.1 2462.74 6
-1 -8 2 42633.4 2547.58 3
-1 8 3 3244.58 775.99 6
-1 -8 3 2113.88 653.977 20
-1 8 3 3779.65 786.242 7
-1 8 3 3348.31 661.589 4
-1 -8 4 6647.93 971.573 20
-1 8 4 5666.97 971.608 7
-1 8 4 6246.81 1022.05 6
-1 8 5 13981.4 1440.78 7
-1 8 5 14327.7 1496.83 6
-1 -8 6 34364.4 2372.96 12
-1 8 6 34899.8 2206.1 7
-1 8 6 35767.2 2288.88 6
-1 8 7 3892.85 768.294 6
-1 -8 7 6718.54 1018.32 12
-1 8 7 3187.52 660.14 7
-1 -8 8 4169.36 720.544 12
-1 8 8 3366.22 585.311 7
-1 8 8 4247.15 730.079 6
-1 -8 9 43462.8 1889.67 12
-1 8 9 47108.2 2057.63 6
-1 -8 10 14754.7 985.859 15
-1 8 10 14332.7 924.622 6
-1 -9 -9 2437.42 370.486 3
-1 -9 -8 3387.48 545.579 3
-1 -9 -7 851.334 328.49 3
-1 -9 -7 755.948 248.408 8
-1 -9 -6 1943.07 552.348 3
-1 -9 -6 2002.9 447.566 8
-1 9 -6 1956.83 453.503 4
-1 -9 -5 9702.2 1134.99 3
-1 -9 -5 10377.7 1057.84 8
-1 9 -5 9307.69 1000.56 4
-1 -9 -4 4452.49 766.596 8
-1 -9 -4 3865.6 772.857 3
-1 9 -4 12825.5 1303.2 4
-1 -9 -3 11277.9 1300.53 3
-1 -9 -3 11699.7 1237.2 8
-1 9 -3 10577.7 1196.06 4
-1 -9 -2 22594.7 1742.77 8
-1 9 -2 23813.9 1799.1 4
-1 -9 -2 22528.5 1858.26 3
-1 -9 -1 132864 4316.17 8
-1 9 -1 133954 4062.94 18
-1 9 -1 130967 4186.46 4
-1 -9 -1 131854 4409.07 3
-1 -9 0 9925.44 1228.96 8
-1 9 0 11667.2 1240.96 18
-1 9 0 9770.25 1162.4 4
-1 9 0 10509.3 1156.83 7
-1 -9 0 12520.3 1394.46 3
-1 -9 1 1987.49 591.36 3
-1 9 1 2036.47 586.806 18
-1 9 1 2062.74 557.59 7
-1 9 1 2190.97 604.425 4
-1 9 2 28272.7 1867.95 4
-1 9 2 26236.9 1898.92 18
-1 9 2 26401.7 1902.73 7
-1 9 2 28305.1 1991.33 6
-1 -9 3 23121.9 1780.28 20
-1 9 3 22037.6 1575.58 4
-1 9 3 21857.7 1725.77 18
-1 9 3 23894.1 1805.91 7
-1 9 3 22944.8 1817.73 6
-1 9 4 739.924 422.492 6
-1 -9 4 487.687 310.637 20
-1 9 4 940.383 484.741 7
-1 -9 5 4596.4 887.25 12
-1 9 5 4342.28 800.722 7
-1 9 5 5784.59 909.7 6
-1 -9 6 4093.69 769.901 12
-1 9 6 4281.63 753.664 7
-1 9 6 4759.1 804.192 6
-1 -9 7 25884.4 1692.45 12
-1 9 7 27923.2 1633.39 7
-1 9 7 27568.4 1701.78 6
-1 -9 8 243.616 152.401 15
-1 9 8 432.658 258.463 6
-1 -9 8 977.34 314.295 12
-1 9 8 471.701 235.779 7
-1 9 9 750.072 231.085 18
-1 9 9 964.212 256.902 6
-1 -10 -7 15473.1 947.368 3
-1 -10 -6 1474.79 384.272 3
-1 10 -6 629.07 201.332 4
-1 -10 -5 -36.8481 209.859 3
-1 -10 -5 395.435 213.369 8
-1 10 -5 342.007 252.751 4
-1 -10 -4 7670.95 811.532 8
-1 10 -4 8836.7 929.679 4
-1 -10 -4 8889.08 983.334 3
-1 -10 -3 2922.67 626.913 3
-1 -10 -3 2927.84 589.061 8
-1 10 -3 3564.8 644.383 4
-1 -10 -2 -22.6952 190.195 8
-1 -10 -2 235.971 282.29 3
-1 10 -2 345.838 351.819 4
-1 -10 -1 594.428 356.23 3
-1 10 -1 1234.98 489.283 4
-1 -10 0 3218.93 692.686 3
-1 10 0 3436.46 618.754 7
-1 10 0 3218.55 648.385 4
-1 -10 1 32246.7 2022.1 20
-1 10 1 28116.9 1741.68 4
-1 10 1 28852.8 1736.32 18
-1 10 1 29545.6 1789.52 7
-1 -10 2 24271 1679.73 20
-1 10 2 26209.1 1606.41 4
-1 10 2 24517.3 1634.5 18
-1 10 2 26949.6 1743.62 7
-1 -10 3 1200.18 412.729 20
-1 10 3 866.928 360.334 18
-1 10 3 1649.98 433.67 7
-1 10 3 900.35 316.081 4
-1 -10 4 26764.7 1830.4 12
-1 10 4 25172.5 1570.09 18
-1 10 4 27394.4 1706.44 7
-1 -10 5 1035.02 393.359 12
-1 10 5 1129.48 358.856 18
-1 10 5 1053.65 383.567 7
-1 -10 6 2438.28 502.121 12
-1 10 6 3817.55 550.419 18
-1 10 6 2959.31 514.654 7
-1 -10 7 -35.4478 183.432 12
-1 10 7 448.767 179.96 18
-1 10 7 359.714 202.178 7
-1 -11 -5 2885.01 381.304 3
-1 -11 -4 1096.24 287.538 3
-1 -11 -4 1244.49 297.275 20
-1 11 -4 662.568 217.151 4
-1 -11 -3 808.209 315.624 3
-1 11 -3 803.015 282.672 4
-1 -11 -2 5335.69 690.024 20
-1 11 -2 5257.89 648.139 4
-1 -11 -2 5490.53 669.933 3
-1 -11 -1 1241.5 389.098 20
-1 11 -1 1220.17 369.044 4
-1 -11 0 1181.25 356.695 20
-1 11 0 811.958 318.43 4
-1 -11 1 294.396 238.736 12
-1 -11 1 372.22 207.908 20
-1 11 1 -7.74581 141.982 7
-1 11 1 249.91 198.765 4
-1 -11 2 10233.1 912.156 12
-1 -11 2 9841.59 831.02 20
-1 11 2 11008.3 802.845 4
-1 11 2 9407.79 811.517 7
-1 -11 3 12254.9 988.067 12
-1 11 3 11909.2 907.001 7
-1 -11 4 2209.03 396.345 12
-1 11 4 2270.51 387.566 7
-1 -11 5 585.45 248.453 12
-1 11 5 694.334 226.95 7
0 0 -14 7272.79 606.161 3
0 0 -13 -131.064 256.168 3
0 0 -12 13005.4 1383.07 3
0 0 -11 175.525 402.348 3
0 0 -10 2176.56 683.753 3
0 0 -9 784.243 457.136 3
0 0 1 213.34 124.787 23
0 0 3 -172.583 358.376 23
0 0 3 103.506 164.736 22
0 0 3 354.068 294.29 2
0 0 4 42033.1 2790.37 23
0 0 4 40001.8 1440.59 22
0 0 4 37533.9 2175.24 2
0 0 5 20.8927 371.543 23
0 0 5 360.091 185.824 22
0 0 5 -56.6167 273.91 2
0 0 6 166814 5663.57 2
0 0 6 175573 7169.73 1
0 0 7 891.83 644.965 1
0 0 7 -666.442 510.015 2
0 0 8 46200.3 4479.63 1
0 0 9 1123.05 864.154 1
0 0 13 358.655 285.018 19
0 0 14 10668.2 776.654 19
0 -1 -13 2919.69 580.539 3
0 1 -13 1951.34 505.75 3
0 -1 -12 2807.93 663.698 3
0 1 -12 1618.76 529.903 3
0 -1 -11 79603.4 3547.2 3
0 1 -11 80664.3 3613.04 3
0 -1 -10 22157.5 1934.46 3
0 1 -10 19525.9 1812.83 3
0 -1 -9 27579.9 2161.09 3
0 -1 -8 113788 4034.25 3
0 -1 -1 70152 1727.33 22
0 1 0 802.827 183.527 23
0 -1 0 1194.73 243.47 22
0 1 1 67617 2784.95 23
0 -1 1 72545.7 1800.63 22
0 -1 1 76649.9 1540.24 1
0 1 2 121754 1992.98 2
0 1 2 137028 3658.39 23
0 -1 2 134363 2617.22 22
0 -1 2 127692 3036.41 1
0 1 3 3207.3 451.095 2
0 1 3 3293.81 763.557 23
0 -1 3 2853.2 475.35 22
0 1 4 156768 3668 2
0 -1 4 155003 3266.4 22
0 1 4 162991 5572.32 23
0 -1 4 158799 5016.94 2
0 -1 4 152582 4976.04 1
0 1 5 17289.9 1455.72 2
0 1 5 18818.9 2172.47 23
0 -1 5 16591.5 1105.26 22
0 -1 5 16619 1804.58 2
0 -1 5 16120.1 1848.26 1
0 1 6 214184 5747.83 2
0 1 6 211206 8242.16 23
0 -1 6 236588 7482.96 2
0 -1 6 226835 7797.6 1
0 1 7 5169.19 1517.16 1
0 -1 7 4632.94 1357.78 1
0 -1 7 5157.73 1267.38 2
0 -1 8 97908.2 5686.49 2
0 1 8 108758 6959.65 1
0 -1 8 105598 6591.23 1
0 1 9 30317.1 3981.79 1
0 -1 9 30442.6 3836.06 1
0 1 12 2590.9 624.73 19
0 1 13 2597.73 534.709 19
0 -1 13 2746.63 555.374 19
0 1 13 2568.28 422.197 16
0 1 14 3767.05 460.802 19
0 -1 14 3800.57 466.626 19
0 -2 -13 10120.7 960.369 3
0 2 -13 9707.21 949.466 3
0 2 -12 3744.01 765.453 3
0 -2 -12 2911.87 676.403 3
0 -2 -11 24293.1 1925.97 3
0 2 -11 22897.4 1935.03 3
0 -2 -10 132543 4696.68 3
0 -2 -9 33672 2382.86 3
0 -2 -8 524.536 388.341 3
0 -2 -1 343503 5362.69 22
0 2 0 7177.25 745.685 23
0 -2 0 4356.84 658.18 22
0 2 1 321124 7282.15 23
0 -2 1 368181 5596.77 22
0 -2 1 348948 3306.56 1
0 -2 2 84139.1 2295.78 1
0 2 2 118222 4356.64 23
0 -2 2 92802.6 2895.1 22
0 2 3 216120 6030.58 23
0 -2 3 190869 4330.9 22
0 -2 3 184069 4330.51 1
0 2 4 244510 7331.21 23
0 -2 4 254991 5204.42 22
0 -2 4 266408 7115.15 2
0 -2 4 238521 5889.42 1
0 2 5 5923.08 1334.69 23
0 -2 5 5556.22 1252.25 2
0 -2 5 6498.07 1159.18 1
0 -2 5 5707.14 824.255 22
0 2 6 26383.3 2967.8 23
0 -2 6 24754.6 2692.33 2
0 -2 6 25805.1 2566.61 1
0 2 7 17169.8 2706.75 23
0 -2 7 18379.7 2472.44 2
0 2 7 19056.6 2760.05 1
0 -2 7 20079.4 2604.33 1
0 2 8 -789.208 779.095 1
0 -2 8 663.589 551.103 2
0 -2 8 -820.982 849.809 1
0 2 9 32458.3 1961.56 6
0 -2 9 32121.9 3815.06 1
0 -2 9 32369 3711.75 2
0 2 9 31027.9 4090.5 1
0 2 10 131040 4303.53 19
0 2 11 22936.6 1771.39 19
0 2 12 4567.31 739.898 19
0 2 13 11597.7 982.394 19
0 -2 14 1972.16 331.186 19
0 -3 -13 12154.7 961.75 3
0 3 -13 10071.6 902.507 3
0 3 -12 2407.37 626.959 3
0 -3 -12 3753.77 711.514 3
0 -3 -11 14036.4 1442.96 3
0 -3 -10 3307.59 784.951 3
0 -3 -9 13183.2 1511.13 3
0 -3 -8 66358.6 3182.97 3
0 3 -1 575663 7917.3 23
0 -3 -1 540111 8321.87 22
0 3 0 1114.03 454.663 23
0 -3 0 1268.16 523.541 22
0 3 1 523758 10673.5 23
0 -3 1 571387 8638.99 22
0 3 2 783961 15001.4 23
0 -3 2 699808 9780.91 22
0 -3 2 640813 5835.46 1
0 -3 3 99200 3025.41 1
0 -3 3 98528.7 3754.64 22
0 3 3 112048 4966.27 23
0 -3 4 207247 5294.84 1
0 3 4 237141 7673.68 23
0 -3 4 219123 5693.52 22
0 -3 4 230615 7338.47 2
0 -3 5 97712.1 4257.53 1
0 3 5 100729 5502.99 23
0 -3 5 93985.3 3813.78 22
0 -3 5 109120 5516.35 2
0 -3 6 14447.7 1918.14 1
0 3 6 10461.4 2081.13 23
0 -3 6 11327.6 2017.03 2
0 3 7 975.743 802.418 23
0 3 7 264.051 927.92 1
0 -3 7 966.966 781.157 2
0 -3 7 -242.625 411.762 1
0 3 8 71526.7 2970.42 6
0 -3 8 62828.6 5233.82 2
0 3 8 73672.2 6271.39 23
0 3 8 71673.3 2983.28 19
0 3 8 69719.5 5975.15 1
0 -3 9 9990.74 2271.46 2
0 3 9 14457.5 2846 1
0 3 9 14232.3 1423.45 19
0 3 9 13401.2 1347.32 6
0 3 10 4774.71 802.569 6
0 3 10 4083.8 741.714 19
0 3 11 13193.5 1296.75 19
0 -3 12 3600.44 603.333 15
0 3 12 3233.32 606.671 19
0 3 13 11493.6 884.782 19
0 -4 -13 18736.6 1049.21 3
0 4 -13 13650.8 930.885 3
0 4 -12 2521.84 578.343 3
0 -4 -12 3520 629.693 3
0 -4 -11 9953.59 1193.94 3
0 -4 -10 27142 2044 3
0 -4 -9 10182.7 1288.33 3
0 -4 -8 1619.03 573.222 3
0 -4 -7 3069.78 696.057 3
0 4 -2 460271 8690.4 23
0 4 -1 388037 7718.3 23
0 -4 -1 400567 8507.33 22
0 4 0 983661 12984.8 23
0 -4 0 960125 13256 22
0 4 1 320629 10145.5 23
0 -4 1 380677 8451.49 22
0 4 2 509340 13461.5 23
0 -4 2 461739 9291.21 22
0 -4 3 236406 6833.23 22
0 4 3 270200 8651.85 23
0 -4 3 243018 7480.61 2
0 -4 4 12084.6 1639.72 22
0 4 4 10331.8 1763.92 23
0 -4 4 10310.8 1779.76 2
0 4 5 77394.4 5249.24 23
0 -4 5 76144.2 5054.06 2
0 -4 5 68354.8 3791.27 22
0 4 6 36177.3 3975.92 23
0 -4 6 36251.5 3705.82 2
0 4 7 2623.27 618.342 6
0 4 7 1140.69 1027.63 23
0 4 7 787.119 665.869 1
0 -4 7 2314.98 1228.27 2
0 4 7 3264.29 677.359 19
0 4 8 2171.95 528.904 6
0 4 8 -270.399 931.776 23
0 4 8 4247.14 1356.73 1
0 -4 8 2147.28 1042.78 2
0 4 8 2693.48 626.886 19
0 4 9 12552 1312.18 19
0 4 9 11665.6 1300.89 6
0 4 10 24005.1 1772.78 19
0 4 10 26886.5 1859.02 6
0 4 11 11532.8 1139.19 19
0 4 11 9188.29 994.779 6
0 -4 12 2694.39 513.32 15
0 4 12 3222.68 534.245 19
0 4 13 17240.6 895.009 19
0 4 13 23700.3 1237.26 16
0 -5 -12 6782.03 766.797 3
0 5 -12 5972.46 729.827 3
0 -5 -11 11693.2 1173.19 3
0 -5 -10 13570.3 1379.57 3
0 -5 -9 4425.59 874.033 3
0 -5 -8 11456.2 1368.63 3
0 -5 -7 2011.1 638.796 3
0 -5 -6 27052.3 1962.39 3
0 5 -3 387135 9476.01 23
0 5 -2 1659.16 728.22 23
0 5 -1 2403.36 864.056 23
0 -5 -1 3424.44 993.794 22
0 5 0 1150.84 846.338 23
0 -5 0 493.405 536.917 22
0 -5 0 165.431 334.244 2
0 -5 1 4217.26 1108.45 22
0 -5 1 2008.2 640.634 2
0 5 1 7077.57 2618.61 23
0 5 2 2001.58 1720.54 23
0 -5 2 1029.7 590.685 22
0 -5 2 1829.13 728.64 2
0 5 3 429566 11823.3 23
0 -5 3 402521 10145 22
0 -5 3 366872 10253.5 2
0 5 4 101303 6052.24 23
0 -5 4 105968 5318.85 22
0 -5 4 102120 5896.87 2
0 -5 5 328.479 532.265 22
0 -5 5 1924.64 1075.66 2
0 5 5 1137.18 1031.53 23
0 5 6 21744.9 3210.82 23
0 -5 6 26415.8 3419.02 2
0 5 6 27030.6 1737.55 19
0 5 6 23387 3251.33 1
0 5 6 23262.5 1622.89 7
0 5 6 26569.6 1884.21 6
0 5 7 1514.74 517.378 6
0 5 7 2648.55 1197.41 23
0 5 7 1223.9 1118.75 1
0 -5 7 1493.07 1120.01 2
0 5 7 2228.68 518.612 19
0 5 7 1505.55 474.841 7
0 -5 8 9035.17 2241.13 2
0 5 8 11043.2 1199.78 19
0 5 8 11132.9 1285.06 6
0 5 9 3569.91 808.366 6
0 5 9 4892.91 814.116 19
0 5 10 12460.1 1223.48 19
0 5 10 14017.3 1327.19 6
0 5 11 10193.7 972.116 19
0 5 11 12837 1108.59 6
0 -5 12 8327.53 825.872 15
0 5 12 6871.98 646.433 19
0 -6 -12 10487.2 750.553 3
0 6 -12 6085.14 590.826 3
0 -6 -11 13342.2 1109.96 3
0 -6 -10 1623.05 510.376 3
0 -6 -9 2024.73 574.497 3
0 -6 -8 58097.5 2982.26 3
0 -6 -7 10049.2 1270.92 3
0 -6 -6 146644 4696.48 3
0 -6 -5 12876 1369.76 3
0 -6 -4 40375.6 2330.76 3
0 6 -2 226015 7956.45 23
0 6 -1 98733.6 5749.17 23
0 6 0 57291.5 5560.23 23
0 -6 0 64673.7 4461 22
0 6 1 78705.4 7157.56 23
0 -6 1 73439.9 4203.8 2
0 -6 1 70454 4676.33 22
0 -6 2 214728 8181.29 22
0 6 2 269970 10609.5 23
0 -6 2 205361 7623.75 2
0 6 3 7967.27 1862.39 23
0 -6 3 9475.79 1790.84 22
0 -6 3 7559.14 1738.56 2
0 6 4 42685.8 4222.6 23
0 -6 4 36899.7 3799.63 2
0 -6 4 31409.7 3244.31 22
0 6 4 39890.5 2175.08 7
0 6 4 41805.8 2305.6 6
0 6 5 12803.1 2547.5 23
0 -6 5 12419.5 2041.51 22
0 6 5 13587.1 1216.73 19
0 -6 5 10412.9 2204.89 2
0 6 5 10871 1188.85 7
0 6 5 12052 1304.91 6
0 -6 6 128321 8165.61 2
0 6 6 153421 8845.4 23
0 6 6 144218 4143.74 19
0 6 6 151468 4371.22 7
0 6 6 153458 4762.15 6
0 6 7 9427.82 1082.03 19
0 6 7 11001.2 1173.21 7
0 6 7 10104.1 1260.86 6
0 -6 8 62994.9 3010.28 12
0 6 8 57163.2 2630.65 19
0 6 8 64043.7 2705.54 7
0 6 8 61936.2 3053.34 6
0 6 9 831.363 436.125 6
0 6 9 1204.76 425.707 19
0 6 10 1919.18 505.699 6
0 6 10 954.093 341.158 19
0 6 11 15542.6 1133.77 6
0 -6 12 12890.9 877.406 15
0 6 12 13831.4 903.552 16
0 -7 -11 5034.77 569.233 3
0 -7 -10 2285.4 505.124 3
0 -7 -9 4478.46 782.839 3
0 -7 -8 3470.36 750.556 3
0 -7 -7 231427 5938.38 3
0 -7 -6 129869 4466.85 3
0 -7 -6 115166 3780.36 8
0 -7 -5 11131 1321.22 3
0 -7 -5 11243.9 1206.67 8
0 -7 -4 15389.9 1536.21 3
0 -7 -4 14336.4 1376.51 8
0 -7 -3 52349 2759.18 3
0 -7 -3 49418.7 2529.31 8
0 -7 -2 27511.4 1957.64 3
0 -7 -2 26849.1 1816.3 8
0 -7 -1 94478.4 3567.62 3
0 -7 -1 96727.6 3417.23 8
0 -7 0 630.993 343.925 3
0 -7 0 710.082 334.909 8
0 -7 1 95820.6 3462.19 8
0 7 1 95382.9 3396.01 6
0 -7 1 96428.9 3652.35 3
0 7 2 29119.9 1910.33 7
0 7 2 27048.5 1847.86 6
0 -7 2 26043.2 1936.03 3
0 -7 3 44865 4108.13 2
0 7 3 52035.3 2600.39 7
0 -7 3 52737.9 2809.41 3
0 7 3 50458.7 2609.53 6
0 -7 4 11906.4 2182.72 2
0 7 4 13674.5 1353.88 7
0 7 4 13750.7 1423.25 6
0 -7 5 7212.58 1799.81 2
0 7 5 10654.6 1237.22 7
0 7 5 10997.2 1291.6 6
0 7 6 138114 4293.75 7
0 7 6 133287 4489.27 6
0 7 7 257153 5737.28 7
0 7 7 231401 5828.44 6
0 -7 8 4537.52 821.275 12
0 7 8 3986.89 695.396 7
0 7 8 5090.08 873.203 6
0 7 9 3880.67 705.658 6
0 7 10 1319.09 406.971 6
0 7 11 6112.46 601.487 6
0 7 11 6495.02 616.006 16
0 -8 -10 424.591 189.353 3
0 -8 -9 6373.9 773.806 3
0 -8 -8 2952.11 611.373 3
0 -8 -7 3739.32 738.148 3
0 -8 -6 7032.27 1048.21 3
0 -8 -5 155343 4837.67 3
0 -8 -5 147865 4215.9 8
0 -8 -4 124367 4379.28 3
0 -8 -4 132566 4075.73 8
0 -8 -3 176798 5204.19 3
0 -8 -3 179627 4797.77 8
0 -8 -2 30519.3 2174.51 3
0 -8 -2 32740.5 2089.66 8
0 -8 -1 275852 6470.18 3
0 -8 -1 262594 5920.42 8
0 8 -1 270615 5619.76 7
0 -8 0 836.142 433.85 3
0 -8 0 352.471 303.297 8
0 8 0 919.299 352.672 7
0 8 1 268838 5963.15 7
0 8 1 264618 5902.72 6
0 -8 1 274826 6523.25 3
0 8 2 32202.8 2121.91 7
0 8 2 32134.9 2123.55 6
0 -8 2 32693.1 2300.37 3
0 8 3 187003 4566.57 4
0 8 3 174197 4978.86 7
0 8 3 174969 5037.37 6
0 8 4 126702 4250.34 7
0 8 4 122011 4235.43 6
0 8 5 156346 4685.95 7
0 8 5 159595 4844.22 6
0 8 6 7198.1 1006.62 7
0 8 6 7529.21 1070.93 6
0 8 7 3365.33 736.081 6
0 -8 7 4011.34 806.036 12
0 8 7 3082.53 678.652 7
0 8 8 3003.15 658.603 6
0 -8 8 3248.62 649.424 12
0 8 8 2390.63 540.917 7
0 8 9 8713.37 914.425 6
0 8 10 309.641 145.409 6
0 -9 -9 4272.62 489.32 3
0 -9 -8 402.639 229.556 3
0 -9 -7 1312.83 423.596 3
0 -9 -6 1397.01 465.825 3
0 9 -6 994.497 384.006 4
0 -9 -5 5463.87 898.3 3
0 -9 -4 674.228 442.142 3
0 -9 -4 402.888 289.336 8
0 -9 -3 9839.88 1255.58 3
0 -9 -3 11988.5 1183.54 8
0 -9 -2 23864.1 1774.51 8
0 -9 -2 27283.8 2056.3 3
0 -9 -1 27200.2 1928.04 8
0 9 -1 26283.2 1752.91 7
0 -9 -1 30539.5 2180.7 3
0 9 0 22794.8 1691.94 7
0 -9 0 24090.1 1949.79 3
0 9 1 33035.2 1998.33 18
0 9 1 29330.7 1955.5 7
0 -9 1 31347.7 2225.58 3
0 9 2 28317.2 1864.52 18
0 9 2 26938.9 1801 4
0 9 2 23783.6 1797.63 7
0 9 2 25576.7 1837.54 6
0 -9 3 11432.9 1190.18 20
0 9 3 9904.19 1025.67 4
0 9 3 9540.46 1179.3 7
0 9 3 11122.6 1238.42 6
0 9 4 569.997 367.834 6
0 9 4 390.622 377.658 7
0 9 5 5339.28 840.26 7
0 9 5 5371.87 857.128 6
0 9 6 1605.88 477.4 6
0 -9 6 1766.55 571.976 12
0 9 6 2001.37 543.47 7
0 9 7 1226.15 422.207 6
0 -9 7 233.679 269.627 12
0 9 7 1392.05 437.973 7
0 9 8 290.341 190.027 6
0 -9 8 169.77 166.165 12
0 9 8 265.988 210.764 7
0 -9 9 3892.01 462.598 15
0 9 9 4711.31 529.242 6
0 -10 -7 9080.73 750.425 3
0 10 -6 9710.34 768.425 4
0 -10 -6 10793.2 950.263 3
0 10 -5 4643.95 622.626 4
0 -10 -5 4526.46 691.944 3
0 -10 -4 2196.54 549.036 3
0 10 -4 2080.24 507.86 4
0 -10 -3 2613.79 585.073 3
0 10 -3 3950.22 705.607 4
0 10 -2 12906.4 1225.82 4
0 -10 -2 13728.7 1343.74 3
0 -10 -1 1833.32 578.384 3
0 10 -1 950.988 398.613 4
0 -10 0 1650.86 584.542 3
0 10 0 1214.51 424.67 7
0 10 0 938.658 363.959 4
0 10 1 970.637 395.051 7
0 10 1 2072.75 512.305 4
0 -10 2 10045.9 1060.62 20
0 10 2 12723.1 1124.56 4
0 10 2 12578.6 1208.32 7
0 10 3 2847.53 584.167 18
0 10 3 3167.29 649.796 7
0 10 3 3289.49 523.617 4
0 10 3 2543.77 523.797 6
0 10 4 2215.7 498.053 6
0 10 4 2247.83 479.632 18
0 10 4 1890.99 536.58 7
0 -10 5 4410.86 747.674 12
0 10 5 4425.63 606.544 18
0 10 5 5368.97 745.464 7
0 10 5 4126.78 629.91 6
0 -10 6 8892.45 928.888 12
0 10 6 9365.37 811.189 18
0 10 6 10442.6 927.927 7
0 10 6 8853.13 844.204 6
0 -10 7 7331.19 692.082 12
0 10 7 7867.89 647.806 18
0 10 7 7317.76 660.517 7
0 10 7 8066.63 701.47 6
0 -11 -5 505.376 212.073 3
0 11 -4 14666.2 930.717 4
0 -11 -4 14095.9 978.658 3
0 11 -3 12126.7 928.849 4
0 -11 -3 12442.2 998.175 3
0 11 -2 21747.1 1292.65 4
0 -11 -2 19395.4 1300.23 3
0 11 -1 7388.59 786.359 4
0 -11 0 -55.9371 181.901 20
0 11 0 133.128 205.499 4
0 -11 1 6654.03 713.125 20
0 11 1 5980.88 675.837 4
0 11 1 5890.03 660.434 7
0 11 2 20048.3 1066.64 4
0 11 2 18944.1 1183.43 7
0 -11 3 10151.9 968.896 12
0 11 3 12034.5 935.04 7
0 -11 4 10179.4 893.488 12
0 11 4 13208.2 936.245 7
0 -11 5 552.979 228.158 12
0 11 5 260.198 152.554 7
1 0 -13 459.713 275.992 3
1 0 -12 117248 3761.13 3
1 0 -11 -26.5687 222.944 3
1 0 -10 366539 7630.94 3
1 0 -9 347.49 343.838 3
1 0 1 -3.30872 235.477 23
1 0 2 116463 3305.27 23
1 0 3 374.763 333.828 23
1 0 4 658775 10773.7 23
1 0 4 620744 8609.48 22
1 0 5 1717.51 873.982 23
1 0 5 397.155 358.148 22
1 0 6 49034.8 3839.07 23
1 0 6 47137 2620.39 22
1 0 6 53828.3 3247.17 2
1 0 7 100.899 360.907 2
1 0 8 -445.088 551.442 1
1 0 9 -15.185 623.621 1
1 0 13 -187.954 231.542 19
1 -1 -13 1013.35 288.066 3
1 1 -13 908.013 320.435 3
1 -1 -12 6410.59 897.635 3
1 1 -12 6485.67 912.427 3
1 -1 -11 8649.56 1139.49 3
1 1 -11 5962.73 987.376 3
1 1 -10 1523.31 596.117 3
1 -1 -10 2606.06 675.363 3
1 -1 -9 97704 3900.7 3
1 -1 -2 5382.79 507.077 22
1 -1 -1 60225.3 1808.63 22
1 1 0 14510.6 1041.57 23
1 -1 0 14633.4 978.437 22
1 1 1 817154 9123.16 23
1 -1 1 667025 7304.98 22
1 1 2 519657 10860.7 23
1 -1 2 643559 6690.47 23
1 -1 2 682630 7845.72 22
1 1 3 410231 8429.1 23
1 -1 3 315131 6108.73 23
1 -1 3 349690 6203.77 22
1 1 4 6684.19 1228.39 23
1 -1 4 5335.58 984.448 23
1 -1 4 4842.96 816.825 22
1 1 5 839102 14473.5 23
1 -1 5 799693 10634.1 22
1 1 5 758390 9796.26 2
1 1 6 279464 9455.02 23
1 1 6 308171 6987.41 22
1 -1 6 297997 6767.17 22
1 -1 6 319050 8744 2
1 1 7 1599.93 952.115 23
1 -1 7 2551.58 949.337 2
1 -1 7 2296.08 1074.54 1
1 -1 8 80376.4 5157.05 2
1 -1 8 95828.6 6368.45 1
1 1 9 203232 4927.7 6
1 1 9 197125 10239.7 1
1 -1 9 192156 9612.98 1
1 1 12 17248.7 1384.8 19
1 1 13 2114.46 458.674 19
1 -2 -13 1234.8 324.374 3
1 2 -13 672.131 235.802 3
1 -2 -12 10216.5 1081.9 3
1 2 -12 9948.83 1091.91 3
1 2 -11 2891.13 734.959 3
1 -2 -11 2654.91 708.781 3
1 -2 -10 41616.7 2509.46 3
1 -2 -9 2113 639.77 3
1 -2 -8 31342.3 2071.88 3
1 -2 -3 3753.7 586.086 22
1 -2 -2 142168 3510.79 22
1 -2 -1 82667.4 2831.96 22
1 2 0 39387 2086.36 23
1 -2 0 38344.2 1967.19 22
1 -2 1 220972 4923.12 22
1 2 1 243182 5751.48 23
1 2 2 36158.7 3424.3 23
1 -2 2 60053.7 2722.04 22
1 2 3 549283 11618.2 23
1 -2 3 391451 7375.98 22
1 2 4 22857.2 2407.86 23
1 -2 4 23242.5 1911.69 22
1 2 5 93461 5230.84 23
1 -2 5 93121.4 3955.09 22
1 2 6 46074.2 4039.37 23
1 -2 6 53959.6 3160.59 22
1 -2 6 58652 4139.79 2
1 -2 6 49950.8 3706.39 1
1 2 7 25562.5 3339 23
1 -2 7 26689.9 3057.79 2
1 -2 7 26916.5 2911.59 1
1 2 8 80545 3114.87 6
1 -2 8 75223.5 5392.99 2
1 2 8 74580.3 6240.33 23
1 -2 8 78343.2 5486.38 1
1 2 9 21516.9 1695.03 6
1 -2 9 15850.2 2701.55 2
1 2 9 24022.5 3598.05 1
1 2 10 832.319 421.184 6
1 2 11 10017.1 1131.06 19
1 2 11 9215.86 1013.97 6
1 2 12 140.723 256.039 19
1 2 13 622.44 258.426 19
1 -3 -13 5863.79 598.641 3
1 3 -12 -262.675 287.993 3
1 -3 -12 405.777 273.748 3
1 -3 -11 29113.3 1933.65 3
1 3 -11 26522.7 1912.18 3
1 -3 -10 74386.5 3289.98 3
1 -3 -9 56399.4 2920.93 3
1 -3 -8 14108.4 1400.31 3
1 -3 -3 90482.1 3430.85 22
1 -3 -2 81245.7 3317.33 22
1 3 -1 10281.1 1305.21 23
1 -3 -1 8792.2 1127.51 22
1 3 0 15874.3 1601.77 23
1 -3 0 14281.7 1474.74 22
1 3 1 123924 4829.7 23
1 -3 1 113673 4164.74 22
1 3 2 30488.9 3505.19 23
1 -3 2 46297.6 2794.37 22
1 3 3 35994.2 3794.03 23
1 -3 3 29879.3 2336.54 22
1 -3 3 29902 1424.12 1
1 3 4 23259.2 2739.36 23
1 -3 4 21974.6 2107.12 22
1 -3 4 21720.8 1642.15 1
1 3 5 873.094 700.254 23
1 -3 5 -81.5659 359.07 22
1 -3 5 742.408 429.807 1
1 3 6 253572 9903.19 23
1 -3 6 263779 7634.4 22
1 -3 6 225779 8804.75 2
1 3 7 65568 2795.17 6
1 3 7 61955.4 5392.04 23
1 -3 7 60204.8 4914.08 2
1 3 8 48822.5 2549.95 6
1 3 8 44871.8 5024.41 23
1 -3 8 40775.9 4250.77 2
1 3 8 48763.6 2403.63 19
1 3 9 17927.2 1595.41 6
1 3 9 15569.3 3184.55 23
1 3 9 12485.7 2793.06 1
1 -3 9 14519.9 2745.02 2
1 3 9 15621.8 1425.93 19
1 3 10 100628 3522.37 19
1 3 10 112201 3878.36 6
1 3 11 41667.1 2147.93 19
1 3 11 41977.5 2191.15 6
1 3 12 1416.03 379.94 19
1 -4 -12 9055.38 900.659 3
1 4 -12 7956.79 870.715 3
1 -4 -11 21846.3 1612.23 3
1 -4 -10 159982 4718.55 3
1 -4 -9 58691.3 2940.49 3
1 -4 -8 2879.16 623.029 3
1 -4 -7 9068.46 1142.15 3
1 -4 -3 1732.73 615.604 22
1 4 -2 33683.7 2688.4 23
1 -4 -2 33200.4 2498.7 22
1 -4 -1 34919.8 2606.09 22
1 4 -1 35246.1 2676.46 23
1 -4 0 454072 9389.99 22
1 4 0 482045 10047.5 23
1 4 1 205056 7548.29 23
1 -4 1 162958 5827.23 22
1 4 2 672.386 1591.96 23
1 -4 2 140.287 390.149 22
1 4 3 462866 14253.3 23
1 -4 3 404443 9593.27 22
1 4 4 739607 16858 23
1 -4 4 641078 12407.4 22
1 4 5 22068.1 2984.26 23
1 -4 5 19799.4 2308.7 22
1 -4 6 82047.7 4667.9 22
1 4 6 87024.9 6174.44 23
1 -4 6 78153.7 5627.3 2
1 4 7 62713.2 2888.21 6
1 4 7 61184 5651.18 23
1 -4 7 54840.6 4985.64 2
1 4 8 27065.8 1976.31 6
1 4 8 32071.5 4438.4 23
1 -4 8 24012.3 3431.62 2
1 4 8 26316.1 1743.78 19
1 4 9 112673 3669.09 19
1 4 9 135189 4384.78 6
1 4 10 7190.52 922.276 19
1 4 10 9722.87 1180.21 6
1 4 11 13557.7 1137.33 19
1 4 11 14899.8 1283.54 6
1 4 12 913.894 304.133 6
1 -5 -12 213.366 181.559 3
1 -5 -11 81.8558 231.806 3
1 -5 -10 31305.5 2003.17 3
1 -5 -9 73645.9 3227.71 3
1 -5 -8 52911.1 2836.09 3
1 -5 -7 31267.9 2127.97 3
1 -5 -6 15274 1452.01 3
1 5 -3 209167 7735.28 23
1 5 -2 57556.9 3959.72 23
1 -5 -2 51320.1 3576.38 22
1 5 -1 6918.04 1474.09 23
1 -5 -1 8781.07 1565.9 22
1 5 0 404121 10776.9 23
1 -5 0 343305 9282.21 22
1 5 1 3206.8 1357.3 23
1 -5 1 2445.82 876.867 22
1 5 2 31042.3 4892.79 23
1 -5 2 39276.6 3257.66 22
1 5 3 14999.5 3546.9 23
1 -5 3 8908.42 1634.01 22
1 5 4 6277.27 1482.13 23
1 -5 4 10507.1 1780.57 22
1 5 5 41742.7 2266.25 6
1 5 5 40094.5 4299.09 23
1 -5 5 41691 3635.61 22
1 -5 5 40669.7 4069.22 2
1 5 6 32783.9 2105.32 6
1 5 6 32815.8 4138.01 23
1 -5 6 25198.4 2882.44 22
1 -5 6 33116.9 3901.79 2
1 5 6 35209 1949.64 7
1 5 7 15422.1 2995.43 23
1 -5 7 13650.8 2680.89 2
1 5 7 17490.5 1620.95 6
1 5 8 129995 4383.96 6
1 5 9 12773.5 1372 6
1 5 10 16575.8 1450.59 6
1 5 11 5743.12 765.012 6
1 5 12 1994.23 383.471 6
1 -6 -11 810.7 259.26 3
1 -6 -10 14527.1 1274.38 3
1 -6 -9 5985.87 911.216 3
1 -6 -8 105513 3874.48 3
1 -6 -7 7666.09 1081.5 3
1 6 -6 758.533 844.695 23
1 -6 -6 1030.63 413.291 3
1 6 -5 4131.08 1299.28 23
1 -6 -5 3978.3 741.76 3
1 -6 -4 7706.29 1023.63 3
1 6 -4 7397.46 1745.52 23
1 6 -3 48723.6 4179.24 23
1 6 -2 7819.41 1675.82 23
1 -6 -2 8296.24 1677.43 22
1 6 -1 240295 9271 23
1 -6 -1 203174 8044.36 22
1 6 0 119694 7437.15 23
1 -6 0 80806.7 5104.74 22
1 6 1 15625.9 4152.07 23
1 -6 1 4959.7 1296.51 22
1 6 2 102158 9437.86 23
1 -6 2 108242 6059.52 22
1 6 3 10760.8 2845.05 23
1 -6 3 16033.3 2450.82 22
1 6 4 23542.4 3579.85 23
1 -6 4 22426.2 2909.69 22
1 -6 4 23326.9 3111.51 2
1 6 4 25372 1810.18 6
1 6 5 6573.58 2091.87 23
1 -6 5 5112.67 1349.8 22
1 -6 5 5730.69 1637.34 2
1 6 5 6276.23 949.757 6
1 6 6 28872.2 3998.1 23
1 -6 6 25979.3 3696.48 2
1 6 6 30566.2 1935.27 7
1 6 6 29067.1 2092.22 6
1 6 7 18678.5 1507.61 7
1 6 7 19382 1738.34 6
1 6 8 55087.4 2854.78 6
1 6 9 5274.71 878.051 6
1 6 10 6455.53 870.878 6
1 6 11 20490.7 1313.4 6
1 -7 -10 6714.66 753.037 3
1 -7 -9 2047.47 527.793 3
1 -7 -8 77984.7 3188.11 3
1 -7 -7 7654.94 1039.24 3
1 -7 -6 16424.7 1558.58 3
1 -7 -5 30316.9 2112.8 3
1 -7 -4 86237 3548.78 3
1 -7 -3 139516 4458.69 3
1 -7 -2 43960.5 2482.37 3
1 7 -2 56305.5 5072.14 23
1 -7 -1 10184.3 1204.93 3
1 7 -1 14802.8 3089.53 23
1 -7 -1 12592 2210.18 22
1 -7 -1 10127.1 1049.89 8
1 7 0 35858.3 6095.23 23
1 -7 0 19060.9 2781.92 22
1 -7 0 22153.2 1590.77 8
1 -7 0 22657.6 1761.13 3
1 7 1 15524.5 5731.17 23
1 -7 1 8153.83 1845.59 22
1 -7 1 8063.45 1105.12 3
1 7 2 51119.7 6107.49 23
1 -7 2 48370.3 4454.85 22
1 -7 2 37567 3655.1 2
1 -7 2 42822.6 2496.34 3
1 7 2 40817.4 2228.5 6
1 7 3 52582 5494.96 23
1 -7 3 59682.4 5077.55 22
1 -7 3 47973.5 4484.3 2
1 7 3 51788.3 2603.7 6
1 7 4 67791.2 6047.6 23
1 -7 4 61895.1 5328.85 2
1 -7 4 68539.6 5374.74 22
1 7 4 63471.3 2965.33 6
1 -7 5 60539.1 5550.66 2
1 7 5 66444.6 2988.5 7
1 7 5 63684.7 3068.34 6
1 7 6 50453.7 2569.84 7
1 7 6 47721 2657.72 6
1 7 7 2551.67 657.777 6
1 7 7 2434.51 572.221 7
1 7 8 63815.7 2536.96 7
1 7 8 64803.1 2951.43 6
1 7 9 5298.02 818.506 6
1 7 10 17382.6 1255.38 6
1 7 11 464.247 190.939 6
1 7 11 322.094 162.059 16
1 -8 -10 10433 711.958 3
1 -8 -9 40796.3 1803.93 3
1 -8 -8 2732.64 569.562 3
1 -8 -7 4005.88 739.976 3
1 -8 -6 32184.6 2106.79 3
1 -8 -5 14160.9 1444.79 3
1 -8 -4 5303.81 932.552 3
1 -8 -3 3349.38 737.369 3
1 -8 -2 42486 2556.38 3
1 -8 -2 41810.5 2190.79 8
1 -8 -1 53392.6 2570.89 8
1 -8 -1 50163.7 2757.75 3
1 -8 0 26397.2 2027.2 3
1 -8 1 15581 1576.06 3
1 -8 2 195195 5573.26 3
1 8 2 209275 5149.76 6
1 8 3 174666 4952.98 7
1 8 3 174530 4834.18 6
1 8 4 13591.7 1400.66 7
1 8 4 12967.1 1371.69 6
1 8 5 10344.4 1211.28 7
1 8 5 10049 1214.44 6
1 8 6 3680.55 751.882 6
1 8 6 4472.74 778.938 7
1 8 7 41856.4 2129.01 7
1 8 7 42275.1 2311.29 6
1 8 8 1358.97 466.283 6
1 -8 8 428.98 312.965 12
1 8 8 541.706 251.757 7
1 8 9 1148.34 361.727 6
1 8 10 210.817 165.078 6
1 -9 -8 516.763 229.476 3
1 -9 -7 26657.6 1586 3
1 -9 -6 4973.49 787.493 3
1 -9 -5 5625.24 879.183 3
1 -9 -4 1257.45 408.382 3
1 -9 -3 22635.6 1800.27 3
1 -9 -2 27938.5 2045.05 3
1 -9 -1 2967.96 706.525 3
1 9 -1 2518.65 564.094 7
1 9 0 11721 1224.5 7
1 -9 0 11091.1 1335.48 3
1 9 1 126801 4067.51 7
1 -9 1 127538 4423.76 3
1 9 2 23313.2 1783.14 7
1 9 3 10371.7 1037.45 4
1 9 3 10352.5 1199 7
1 9 3 10096.1 1129.33 6
1 9 4 5000.77 841.163 7
1 9 4 5065.69 786.511 6
1 9 5 9369.47 1093.84 7
1 9 5 10072.8 1118.08 6
1 9 6 2683.23 584.318 6
1 9 6 2346.38 519.486 7
1 9 7 840.05 321.498 6
1 -9 7 1314.54 411.52 12
1 9 7 940.891 309.552 7
1 9 8 3019.07 431.45 7
1 9 8 3958.5 574.909 6
1 9 9 2691.37 387.035 6
1 -10 -7 248.054 153.729 3
1 10 -6 3364.37 444.219 4
1 -10 -6 3518.16 527.233 3
1 -10 -5 928.466 358.413 3
1 10 -5 1827.92 428.526 4
1 -10 -4 26172.9 1665.26 3
1 -10 -3 1222.72 440.678 3
1 -10 -2 26684.6 1803.21 3
1 10 -1 29423.8 1632.3 7
1 -10 -1 31228.5 2011.64 3
1 10 0 3487.68 648.435 7
1 10 1 1369.14 453.483 7
1 10 2 135.377 264.056 7
1 10 2 563.618 296.673 4
1 10 3 3385.99 646.36 7
1 10 4 8974.46 971.289 7
1 10 4 8020.09 832.161 6
1 10 5 92.0159 209 6
1 10 5 262.693 224.291 7
1 -10 6 1356.18 387.11 12
1 10 6 1468.19 353.35 6
1 10 6 1420.42 367.969 7
1 10 7 12997.5 799.431 7
1 10 7 14884.8 856.198 6
1 11 -4 2722.4 408.611 4
1 -11 -4 2853.08 440.624 3
1 11 -3 13641.9 961.089 4
1 11 -2 12239.9 951.087 4
1 11 -1 576.125 294.099 4
1 11 0 1106.41 300.389 7
1 11 0 1202.42 321.742 4
1 11 1 1497.71 364.142 7
1 11 1 1438.31 309.909 4
1 11 2 4835.11 600.789 7
1 11 3 955.527 302.418 7
1 -11 4 1097.68 303.615 12
1 11 4 776.399 234.529 7
1 11 5 3320.97 416.252 7
2 0 -3 2138.42 319.479 22
2 0 -2 645227 6871.5 22
2 0 0 334083 5172.49 23
2 0 1 2186.7 563.819 23
2 0 2 174105 5564.81 23
2 0 3 514.206 420.921 23
2 0 4 296152 7587.86 23
2 0 5 44.6329 533.42 23
2 0 5 -581.376 519.621 22
2 0 6 22325.9 2674.83 23
2 0 6 22151.7 2293.18 22
2 0 7 186.644 630.801 23
2 0 9 -79.2014 97.8906 6
2 0 9 3010.29 1511.39 1
2 0 10 78161.9 3062.12 6
2 0 13 455.295 191.27 19
2 -1 -3 271024 4137.33 22
2 1 1 194749 5193.99 23
2 -1 1 212601 3283.1 23
2 -1 1 192276 4992.81 22
2 1 2 49424.8 3993.13 23
2 -1 2 73018.9 2397.42 23
2 -1 2 78503.3 3427.06 22
2 1 3 16862.9 2049.39 23
2 -1 3 10237.7 1115.35 23
2 -1 3 8828.87 1273.24 22
2 1 4 90655.9 4730.22 23
2 -1 4 72666.6 3513.95 23
2 -1 4 81924.9 3901.74 22
2 1 5 134094 6309.95 23
2 -1 5 140175 5693.49 23
2 -1 5 141194 5547.09 22
2 1 6 57921.7 4518.26 23
2 1 6 86073.8 4597.8 22
2 -1 6 78569.6 4273.79 22
2 1 7 1232.15 823.442 23
2 -1 7 3762.16 1241.03 2
2 1 8 2174.61 577.315 6
2 1 8 1587.15 770.969 23
2 1 9 2564.68 625.211 6
2 -1 9 795.438 1146.89 1
2 1 10 10240.5 1169.14 6
2 1 11 205.298 227.959 6
2 1 12 1675.8 425.604 19
2 -1 13 236.887 206.432 19
2 -2 -3 302617 5596.56 22
2 -2 -2 1444.4 482.299 22
2 -2 -1 134444 4157.33 22
2 2 0 999999 12514.4 23
2 -2 0 950350 11606.6 22
2 2 1 37091.3 2606.06 23
2 -2 1 36050.7 2359.58 22
2 2 2 130952 6551.38 23
2 -2 2 146564 5029.69 22
2 2 3 126211 7116.38 23
2 -2 3 126891 4960.49 22
2 2 4 79380.4 5012.61 23
2 -2 4 71902.2 3875.66 22
2 2 5 84511.9 5317.76 23
2 -2 5 87953.8 4555.97 22
2 2 6 3484.02 1269.85 23
2 -2 6 2696.44 885.549 22
2 2 7 2695.11 611.36 6
2 2 7 2885.23 1196.46 23
2 2 8 186618 5073.22 6
2 2 8 187401 9996.9 23
2 -2 8 193872 8955.33 2
2 2 9 65277.4 3051.3 6
2 2 9 67340.5 6374.07 23
2 2 10 15542.2 1452.76 6
2 2 10 12096 1203.93 19
2 2 11 68113.9 2758.87 6
2 2 11 62840.9 2507.99 19
2 2 12 5214.95 655.562 6
2 -3 -4 10401.7 1148.62 22
2 -3 -3 44387.9 2565.92 22
2 -3 -2 161420 5077.85 22
2 3 -1 283046 7656.79 23
2 -3 -1 291068 6989.24 22
2 3 0 291910 7866.71 23
2 -3 0 309147 7397.1 22
2 3 1 328719 8885.86 23
2 -3 1 308863 7751.52 22
2 3 2 1007.66 955.187 23
2 -3 2 1061.03 651.745 22
2 3 3 254228 12292.5 23
2 -3 3 356004 8896.82 22
2 3 4 16443.7 2650.1 23
2 -3 4 13334.3 1838.72 22
2 3 5 9607.86 1991.42 23
2 -3 5 9852.02 1618.18 22
2 3 6 2511.08 1170.37 23
2 -3 6 5335.54 1368.26 22
2 3 7 35774.3 2182.62 6
2 3 7 27732.2 3873.1 23
2 -3 7 29944.3 3677.77 2
2 3 8 24722 1905.62 6
2 3 8 23191.4 3734.94 23
2 -3 8 21622.2 3218.74 2
2 3 9 49713.6 2679.92 6
2 3 10 24369.6 1834.57 6
2 3 11 271.802 289.296 6
2 3 12 16566.3 1122.18 6
2 -4 -9 18078.3 1511.42 3
2 -4 -8 36680.4 2180.76 3
2 -4 -7 3566.8 736.425 3
2 -4 -4 31487.5 2420.84 22
2 -4 -3 210160 6481.59 22
2 4 -2 364814 9858.53 23
2 -4 -2 363914 8663.7 22
2 4 -1 9042.36 1575.45 23
2 -4 -1 7911.57 1353.03 22
2 4 0 106804 5413.25 23
2 -4 0 109935 5115.84 22
2 4 1 145795 6896.74 23
2 -4 1 116892 5441.77 22
2 4 2 16643.2 3081.15 23
2 -4 2 20165.9 2321.63 22
2 4 3 30014.7 4764.71 23
2 -4 3 29669.8 2837.3 22
2 4 4 51513.4 5162.68 23
2 -4 4 40056 3512.06 22
2 4 5 14101.5 2679.99 23
2 -4 5 16822.4 2383.52 22
2 4 6 874.059 386.591 6
2 4 6 404.525 767.653 23
2 -4 6 2062.39 879.43 22
2 4 7 36760.9 2296.5 6
2 4 7 37116.6 4570.74 23
2 -4 7 32972.2 4030.41 2
2 4 8 54127.7 2842.43 6
2 4 8 52423 5730.56 23
2 -4 8 53212.5 5299.34 2
2 4 9 3387.42 739.984 6
2 4 10 877.925 441.537 6
2 4 11 987.428 404.535 6
2 4 12 465.029 237.141 6
2 -5 -9 830.5 356.675 3
2 -5 -8 11847.8 1243.33 3
2 -5 -7 93479.3 3472.35 3
2 -5 -6 31315.7 1998.5 3
2 5 -4 162429 7886.99 23
2 5 -3 113263 6304.51 23
2 -5 -3 104338 5257.42 22
2 5 -2 503282 12793 23
2 -5 -2 443867 11030.1 22
2 5 -1 30945.1 3184.63 23
2 -5 -1 30078.6 2885.82 22
2 5 0 4283.74 1265.76 23
2 -5 0 3042.41 1077.39 22
2 5 1 33118.9 3944.73 23
2 -5 1 24366.4 2763.53 22
2 5 2 14648.5 3539.74 23
2 -5 2 16142.1 2269.13 22
2 5 3 43754.3 6716.63 23
2 -5 3 31016 3215.54 22
2 5 4 -3397.48 3039.1 23
2 -5 4 1837.82 930.291 22
2 5 5 169698 4665.09 6
2 5 5 201964 10330 23
2 -5 5 155819 7593.63 22
2 5 6 65363 3057.51 6
2 5 6 69542.5 6273.09 23
2 -5 6 57038.3 4625.24 22
2 5 7 20133.8 1758.12 6
2 5 7 21780.6 3668.99 23
2 -5 7 18785.8 3306.49 2
2 5 8 10263 1259.85 6
2 5 9 6506.71 980.415 6
2 5 10 15194.2 1369.11 6
2 5 11 452.4 277.51 6
2 5 12 11651 792.577 6
2 -6 -9 12867 1179.44 3
2 -6 -8 61850.1 2767.38 3
2 -6 -7 199.11 163.574 3
2 6 -6 6276.35 2005.98 23
2 -6 -6 5381.4 850.943 3
2 -6 -5 28243.8 1931.63 3
2 6 -5 30150.6 3918.68 23
2 6 -4 3806.76 1569.64 23
2 -6 -4 5428.62 864.298 3
2 -6 -3 26006.3 1767.22 3
2 -6 -3 27138.6 2995.13 22
2 6 -3 26749 3371.95 23
2 -6 -2 75927.3 5065.69 22
2 6 -2 87360.3 6017.15 23
2 6 -1 136534 7619.24 23
2 -6 -1 116685 6335.51 22
2 6 0 192367 9603.79 23
2 -6 0 161448 7523.38 22
2 6 1 5617.33 2310.26 23
2 -6 1 4880.43 1344.99 22
2 6 2 93245.7 9882.07 23
2 -6 2 105786 6349.23 22
2 -6 2 106462 3661.45 3
2 6 3 51474.2 7148.3 23
2 -6 3 49670.4 4429.03 22
2 6 3 49614.8 2426.77 6
2 6 4 10685.4 2745.85 23
2 -6 4 13806 2472.93 22
2 6 4 18471.7 1560.31 6
2 6 5 195973 10694 23
2 -6 5 160936 8254.38 22
2 6 5 162241 4763.04 6
2 -6 6 121945 7997.04 2
2 6 6 110560 4031.1 6
2 6 7 100677 3355.8 7
2 6 7 94926.3 3721.94 6
2 6 8 31089.9 2126.67 6
2 6 9 45567.6 2413.33 6
2 6 10 2399.72 561.002 6
2 6 11 3230.3 509.664 6
2 -7 -9 12954 1053.11 3
2 -7 -8 19924.6 1471.56 3
2 -7 -7 26588.4 1829.64 3
2 -7 -6 269068 5955.97 3
2 -7 -5 74183.6 3178.5 3
2 -7 -4 338333 6764.63 3
2 7 -4 380671 13828.2 23
2 -7 -3 124804 4112.76 3
2 7 -3 141555 8511.8 23
2 -7 -2 21697.3 1736.49 3
2 7 -2 23936.7 3553.28 23
2 -7 -2 19334.4 2758.54 22
2 7 -1 5202.8 2067.32 23
2 -7 -1 3627.19 1372.97 22
2 -7 -1 3135.37 713.983 3
2 7 0 47584.1 6401.72 23
2 -7 0 35242.8 3902.28 22
2 -7 0 34367.6 2196.01 3
2 7 1 183549 14399.4 23
2 -7 1 250961 10473.7 22
2 -7 1 232856 5745.84 3
2 7 2 41379 7419.82 23
2 -7 2 47513.9 4645.74 22
2 7 3 3809.95 3139.69 23
2 -7 3 11097.5 2356.9 22
2 7 3 9174.71 1105.79 6
2 7 4 25242.8 3977.54 23
2 -7 4 23940.8 3453.27 22
2 -7 4 26095.9 3586.5 2
2 7 4 28122.6 1961.65 6
2 7 5 97343.1 3688.08 6
2 7 6 16141.1 1449.19 7
2 7 6 13809.4 1410.03 6
2 7 7 9807.21 1053.67 7
2 7 7 8892.96 1120.69 6
2 7 8 13943.3 1348.93 6
2 7 9 60.2438 244.628 6
2 7 10 1030.06 328.836 6
2 -8 -8 66244.8 2325.02 3
2 -8 -7 63203.7 2559.92 3
2 -8 -6 40946.6 2213.22 3
2 -8 -5 8904.95 1095.23 3
2 -8 -4 8829.92 1125.55 3
2 -8 -3 7023.18 1029.32 3
2 -8 -2 69.9921 346.21 3
2 -8 -1 26275.8 1957.96 3
2 -8 0 7542 1095.35 3
2 -8 1 8767.56 1159.69 3
2 8 3 8940.25 1052.37 6
2 8 4 18484.7 1543.58 6
2 8 5 1910.53 573.257 6
2 8 5 1234.6 471.631 7
2 8 6 6742.79 905.01 7
2 8 6 8274.12 1044.57 6
2 8 7 2473.45 578.752 6
2 8 7 2152.09 478.265 7
2 8 8 11378.4 1052.75 6
2 8 9 1428.17 365.685 6
2 -9 -7 50993.5 1883.23 3
2 -9 -6 9780.54 957.22 3
2 -9 -5 1772.27 472.177 3
2 -9 -4 6658.58 915.3 3
2 -9 -3 15027.9 1403.18 3
2 -9 -2 3611.15 733.101 3
2 -9 -1 2754.97 695.489 3
2 -9 0 20820.4 1737.37 3
2 9 3 78593.1 3149.02 7
2 9 4 99304 3434.33 7
2 9 4 89869.9 3036.5 6
2 9 5 26398.2 1693.03 7
2 9 5 25941.1 1639.16 6
2 9 6 1923.49 442.047 6
2 9 6 2530.13 493.247 7
2 -9 7 18117.1 1134.17 12
2 9 7 23514.7 1282.87 7
2 9 7 23890.2 1376.91 6
2 9 8 530.219 221.683 6
2 -10 -6 -504.01 222.902 3
2 10 -6 192.359 185.751 4
2 -10 -5 201.4 204.309 3
2 -10 -4 26499.8 1505.77 3
2 -10 -3 256.031 238.116 3
2 -10 -2 7211.2 882.905 3
2 10 -1 41752.9 1910.55 7
2 10 0 41899.8 2021.92 7
2 10 1 5772.8 788.556 7
2 10 2 12558.4 1145.09 7
2 10 3 20011.2 1401.19 7
2 10 4 410.352 265.222 7
2 10 5 13341.4 1006.62 7
2 -10 6 1156.73 295.19 12
2 10 6 1955.32 345.367 7
2 11 -4 59361.2 1646.93 4
2 11 -3 29990.3 1301.39 4
2 11 -2 27591 1308.59 4
2 11 -1 10964.3 839.342 4
2 11 0 9298.2 742.418 4
2 11 0 8268.08 670.003 7
2 11 1 2258.66 386.096 7
2 11 1 2212.26 334.992 4
2 11 2 1270.63 304.216 7
2 11 3 65.1582 123.002 7
2 -11 4 1991.83 338.585 12
2 11 4 5107.92 511.991 7
3 0 -3 31.5781 210.023 22
3 0 -2 228681 5510.03 22
3 0 0 180.587 250.305 23
3 0 1 -32.8174 313.319 23
3 0 2 636208 13057.2 23
3 0 3 1527.92 601.311 23
3 0 4 248329 7446.14 23
3 0 4 269566 8391.7 22
3 0 5 494.829 454.908 23
3 0 5 401.713 548.834 22
3 0 6 436679 12187.4 23
3 0 6 446972 11970.3 22
3 0 7 1321.39 745.922 23
3 0 7 1538.1 681.738 22
3 0 10 4118.54 760.089 6
3 0 11 503.249 305.463 6
3 -1 -3 148854 4161.25 22
3 -1 -2 338805 6849.88 22
3 1 -1 30643.8 2318.51 23
3 -1 -1 31449.3 2249.49 22
3 1 0 191035 5730.24 23
3 -1 0 210214 4190.47 23
3 -1 0 201341 5964.62 22
3 1 1 91639.2 4307.84 23
3 -1 1 93413.9 3128.27 23
3 -1 1 84776.8 4100.88 22
3 -1 2 17756.8 1322.88 23
3 1 2 9459.16 2007.76 23
3 -1 2 16485.4 1980.11 22
3 1 3 26342.3 2979.33 23
3 -1 3 16889 1485.85 23
3 -1 3 19280.8 2240.62 22
3 1 4 353167 10250.1 23
3 -1 4 333679 9313.13 22
3 1 5 84115.1 5279.32 23
3 -1 5 87376.9 5270.74 22
3 1 6 7144.98 1719.07 23
3 1 6 6765.52 1628.08 22
3 -1 6 4593.08 1362.4 22
3 1 7 73613.2 5743.17 23
3 1 7 79238.3 5240.13 22
3 -1 7 78847.3 5238.39 22
3 1 8 5073.92 1647.24 23
3 1 9 24427.4 1889.45 6
3 1 10 2457.63 656.615 6
3 -1 10 2291.84 581.297 6
3 1 11 215.662 256.495 6
3 1 12 2060.03 380.653 6
3 -2 -3 43064.2 2492.25 22
3 -2 -2 32315.1 2330.25 22
3 2 -1 172328 6122.31 23
3 -2 -1 169552 5567.98 22
3 2 0 26576.8 2413.48 23
3 -2 0 25778 2292.77 22
3 2 1 13236.5 1841.64 23
3 -2 1 12396.9 1714.36 22
3 2 2 3129.16 1268.53 23
3 -2 2 4839.82 1165.44 22
3 2 3 600981 18230.9 23
3 -2 3 710940 13449 22
3 2 4 4709.36 1612.87 23
3 -2 4 3087.13 1064.61 22
3 2 5 17342 2594.05 23
3 -2 5 19003.5 2504.62 22
3 2 6 176946 8786.44 23
3 -2 6 184859 7946.23 22
3 2 7 114904 7574.04 23
3 2 7 129616 6996.47 22
3 -2 7 126668 6812.9 22
3 2 8 10016 1267.8 6
3 2 8 10068.6 2410.02 23
3 -2 8 10249.6 2142.21 2
3 2 9 261735 6250.42 6
3 2 10 -95.1795 274.838 6
3 2 11 29421.2 1780.46 6
3 2 12 484.104 218.275 6
3 -3 -3 13352.1 1582.2 22
3 3 -2 16846.1 2155.69 23
3 -3 -2 16197.9 1835.97 22
3 3 -1 132300 6027.98 23
3 -3 -1 139107 5543.41 22
3 3 0 407923 10669.3 23
3 -3 0 403722 9815.1 22
3 3 1 82866.3 5137.28 23
3 -3 1 71310.4 4261.6 22
3 3 2 14846 2803.21 23
3 -3 2 20289.7 2361.49 22
3 3 3 155813 10523.6 23
3 -3 3 208732 7934.04 22
3 3 4 93142.2 6813.06 23
3 -3 4 84635.4 5211.69 22
3 3 5 37282.1 4233.04 23
3 -3 5 44663.7 4008.21 22
3 3 6 15542 1454.13 6
3 3 6 15118.8 2768.91 23
3 -3 6 14411.1 2363.76 22
3 3 7 31776.2 2161.96 6
3 3 7 31644.5 4118.92 23
3 -3 7 28235.2 3327.62 22
3 3 8 106393 4077.21 6
3 3 9 20123.9 1759.91 6
3 3 10 2351.6 634.838 6
3 3 11 1099.76 411.731 6
3 3 12 114.284 165.072 6
3 4 -3 544.252 631.131 23
3 -4 -3 2532.46 825.244 22
3 4 -2 35743.5 3477.82 23
3 -4 -2 36482.3 3095.26 22
3 4 -1 50165.9 4065.98 23
3 -4 -1 49069.2 3661.6 22
3 4 0 4526.95 1331.61 23
3 -4 0 4047.03 1194.57 22
3 4 1 7124.07 1745.91 23
3 -4 1 6088.31 1402.17 22
3 4 2 1611.2 1427.99 23
3 -4 2 -95.751 529.139 22
3 4 3 51917.8 6750.29 23
3 -4 3 66251.6 4789.91 22
3 4 4 27971.2 4386.9 23
3 -4 4 23093.3 2961.8 22
3 4 5 25059 1807.57 6
3 4 5 28335.6 4073.34 23
3 -4 5 22143.2 3016.05 22
3 4 6 4302.26 822.628 6
3 4 6 2406.31 1364.03 23
3 -4 6 4030.01 1281.37 22
3 4 7 4411.55 881.092 6
3 4 7 5349.89 1979.49 23
3 4 8 89570.8 3637.63 6
3 4 9 5732.29 967.517 6
3 4 10 627.009 365.417 6
3 4 11 3467.88 617.263 6
3 4 12 1370.69 280.752 6
3 5 -6 9606.17 2281.41 23
3 5 -5 51666.4 5036.87 23
3 5 -4 43155.5 4411.62 23
3 5 -3 3036.4 1149.65 23
3 -5 -3 3335.26 890.053 22
3 5 -2 13207.6 2376.62 23
3 -5 -2 12104.2 1971.55 22
3 5 -1 29138.3 3468.14 23
3 -5 -1 22022.7 2697.13 22
3 5 0 11558.5 2290.85 23
3 -5 0 8718.34 1764.74 22
3 5 1 97630.7 7453.11 23
3 -5 1 89985.9 5692.41 22
3 5 2 113366 9786.46 23
3 -5 2 153094 7617.82 22
3 5 3 65896.3 8509.2 23
3 -5 3 68016.5 5233.27 22
3 5 4 34666.7 2073.21 6
3 5 4 40685.9 5582.02 23
3 -5 4 29992.3 3630.89 22
3 5 5 36770.1 2268.65 6
3 5 5 31220.4 4446.36 23
3 -5 5 33884.8 3943.88 22
3 5 6 39028.6 2383.88 6
3 5 6 36832.4 4798.16 23
3 -5 6 35526 4010.33 22
3 5 7 28358.4 2049.72 6
3 5 8 2510.24 661.164 6
3 5 9 13963.4 1366.61 6
3 5 10 52950.2 2414.41 6
3 5 11 1874.34 416.042 6
3 6 -5 113214 7762.5 23
3 6 -4 78437.9 6386.64 23
3 6 -3 1475.29 1077.47 23
3 -6 -3 -1415.94 714.552 22
3 6 -2 176601 9332.51 23
3 -6 -2 160776 7692.99 22
3 6 -1 1846.98 1276.01 23
3 -6 -1 -825.187 784.441 22
3 6 0 6249.05 2200.78 23
3 -6 0 4721.69 1503.32 22
3 6 1 10274.1 3412.54 23
3 -6 1 12794.6 2318.16 22
3 6 2 82588 10000.7 23
3 -6 2 88677.3 6220.02 22
3 6 3 78763.7 3049.88 6
3 6 3 101075 9692.65 23
3 -6 3 79534.8 5988.16 22
3 6 4 197127 5083.63 6
3 6 4 272326 13884 23
3 -6 4 214912 10021.8 22
3 6 5 32007.1 2117.83 6
3 6 6 71120.3 3180.63 6
3 6 7 25809.4 1914.38 6
3 6 8 56004.2 2685.63 6
3 6 9 5320.15 793.337 6
3 6 10 6413.36 762.353 6
3 6 11 954.474 252.117 6
3 7 -2 371.941 556.618 23
3 -7 -2 727.336 701.725 22
3 -7 -2 1594.59 488.773 3
3 7 -1 131301 9472.28 23
3 -7 -1 102449 6768.8 22
3 -7 -1 106276 3694.53 3
3 7 0 19754.3 4451.51 23
3 -7 0 13194.9 2429.83 22
3 -7 0 11502 1236.04 3
3 7 1 51870 8430.78 23
3 -7 1 26415.4 3652.04 22
3 7 2 11740.9 6697.28 23
3 -7 2 10262.2 2279.42 22
3 7 4 11196.9 1205.16 6
3 7 5 49451.9 2545.53 6
3 7 6 8675.97 1089.22 6
3 7 7 920.477 435.915 6
3 7 7 444.441 269.685 7
3 7 8 908.028 358.316 6
3 7 9 492.993 252.498 6
3 7 10 404.028 177.751 6
3 -8 -3 5966.28 868.103 3
3 -8 -2 792.492 377.004 3
3 -8 -1 39328.5 2276.16 3
3 8 4 13249.9 1197.3 6
3 8 5 12566.7 1186.21 6
3 8 6 -37.3891 189.204 6
3 8 6 466.295 277.76 7
3 8 7 7280.32 747.521 7
3 8 7 8671.32 897.084 6
3 8 8 9829.97 857.886 6
3 8 9 1204.16 257.587 6
3 -9 -3 6039.85 800.536 3
3 -9 -2 4149.27 717.718 3
3 9 4 4437.99 714.115 7
3 9 5 48109.4 2085.54 7
3 9 6 12994.7 960.235 7
3 9 6 12611.8 904.28 6
3 9 7 3965.03 442.809 6
3 10 -1 2141 441.382 7
3 10 0 2901.03 523.318 7
3 10 1 9497.93 924.26 7
3 10 2 5679.1 731.556 7
3 10 3 4792.04 669.29 7
3 10 4 33829.4 1556.17 7
3 10 5 10235.5 770.809 7
3 11 -2 7391.25 586.485 4
3 11 -1 795.156 205.509 4
4 0 -2 115181 4894.58 23
4 0 -2 111603 4706.22 22
4 0 -1 62.5477 344.409 23
4 0 -1 597.367 553.768 22
4 0 0 1290.77 501.136 23
4 0 0 554.079 421.664 22
4 0 1 390.082 584.857 23
4 0 1 24.7349 559.989 22
4 0 2 8174.85 1635.43 22
4 0 3 430.44 786.686 22
4 0 4 274442 9841.26 22
4 0 5 46.2497 282.064 22
4 0 6 164326 8197.34 22
4 0 7 -659.878 637.76 22
4 0 10 1720.25 516.145 6
4 0 11 -111.787 167.087 6
4 1 -2 120147 5522.33 23
4 -1 -2 120310 4940.04 22
4 1 -1 254094 7733.06 23
4 -1 -1 250560 7548.56 22
4 1 0 61547 3850.39 23
4 -1 0 53581.3 3674.27 22
4 1 1 8500.27 1750.85 23
4 -1 1 6176.84 1357.6 22
4 1 2 947.909 862.405 23
4 -1 2 3455.65 1059.2 22
4 1 3 73041.5 5146.38 23
4 -1 3 53207.6 4158.18 22
4 1 4 17713.2 2468.11 23
4 -1 4 22302 2830.76 22
4 1 5 38745.4 3726.17 23
4 1 5 39574.6 3990.32 22
4 -1 5 37053.5 3836.51 22
4 1 6 7377.61 1944.79 22
4 -1 6 6147.33 1797.59 22
4 1 7 4910.9 1438.1 22
4 -1 7 6346.33 1632.5 22
4 1 9 5024.34 888.032 6
4 1 10 11530.5 1203 6
4 -1 10 10744.4 1124.28 6
4 1 11 4392.74 652.243 6
4 -1 11 4384.7 599.088 6
4 1 12 6330.44 565.835 6
4 2 -3 712942 15430.3 23
4 2 -2 352857 10368.3 23
4 -2 -2 384786 9461.81 22
4 2 -1 914459 16288.1 23
4 -2 -1 947504 15481.8 22
4 2 0 94020.3 5329.59 23
4 -2 0 86911.4 4873.98 22
4 2 1 104333 6277 23
4 -2 1 81036.3 4941.62 22
4 2 2 41513.9 5099.67 23
4 -2 2 60273.3 4384.34 22
4 2 3 17476.3 3186.93 23
4 -2 3 16719.7 2426.41 22
4 2 4 -972.179 940.388 23
4 -2 4 551.211 534.4 22
4 2 5 47592.6 4611.36 23
4 -2 5 47083.2 4419.37 22
4 2 6 3554.34 1360.9 23
4 2 6 5058.5 1506.45 22
4 -2 6 5575.01 1644.4 22
4 2 7 78085.2 5993.83 22
4 -2 7 78275.1 5963.52 22
4 2 8 6565.1 1040.58 6
4 2 9 8905.61 1175.17 6
4 2 10 -128.318 248.661 6
4 -2 10 786.667 336.317 6
4 2 11 145.579 215.235 6
4 2 12 955.349 239.072 6
4 3 -4 61068.1 5067.49 23
4 3 -3 21346.1 2882.11 23
4 3 -2 14648.3 2344.89 23
4 -3 -2 17793.9 2236.09 22
4 3 -1 23719.1 2947.93 23
4 -3 -1 22126.9 2595.1 22
4 3 0 365339 11798.1 23
4 -3 0 348662 10409.1 22
4 3 1 34850.3 4060.95 23
4 -3 1 28967.2 3072.73 22
4 3 2 2472.22 1828.25 23
4 -3 2 6534.94 1605.65 22
4 3 3 11182.6 3476.16 23
4 -3 3 12070.9 2112.28 22
4 3 4 22654.5 3623.47 23
4 -3 4 17634.3 2770.48 22
4 3 5 1543.54 930.473 23
4 -3 5 5063.02 1562.47 22
4 3 6 12273 1355.83 6
4 3 6 10710.1 2359.12 23
4 -3 6 11102.9 2255.78 22
4 3 7 37828.7 2418.64 6
4 3 8 168333 4963.4 6
4 3 9 30023.1 2019.93 6
4 3 10 4323.82 715.903 6
4 3 11 900.936 339.373 6
4 4 -6 65125 5917 23
4 4 -5 5747.73 1958.51 23
4 4 -4 81663 6273.78 23
4 4 -3 46575.8 4620.23 23
4 4 -2 8862.04 2038.36 23
4 -4 -2 11618.6 1907.46 22
4 4 -1 20201 3037.49 23
4 -4 -1 18914.2 2525.09 22
4 4 0 32376.9 3823.93 23
4 -4 0 27570.5 3149.64 22
4 4 1 20669.1 3524.46 23
4 -4 1 20187.2 2732.53 22
4 4 2 1502.59 1409.61 23
4 -4 2 3036.27 1215.51 22
4 4 3 47067.9 2319.75 6
4 4 3 45758 6775.16 23
4 -4 3 48896 4604.63 22
4 4 4 43798.4 2351.52 6
4 4 4 52852.5 5874.32 23
4 -4 4 45379.7 4553.12 22
4 4 5 107145 3841.14 6
4 4 5 111000 8111.43 23
4 -4 5 109819 7201.85 22
4 4 6 12501.7 1376.17 6
4 4 7 13864.4 1431.36 6
4 4 8 19923.2 1680.1 6
4 4 9 10233 1145.31 6
4 4 10 9737.15 1011.78 6
4 4 11 1825.36 388.51 6
4 5 -5 1901.23 1227.17 23
4 5 -4 13046.2 2661.02 23
4 5 -3 10980.1 2435.02 23
4 5 -2 184490 9580.79 23
4 -5 -2 162019 7604.01 22
4 5 -1 50774.4 5165.98 23
4 -5 -1 48688.3 4405.47 22
4 5 0 15136.5 2951.53 23
4 -5 0 14393.5 2393.94 22
4 5 1 50.9109 795.251 23
4 -5 1 2095.28 1023.8 22
4 5 2 9685.4 3376.89 23
4 -5 2 40.8518 719.338 22
4 5 3 41196.7 6408.16 23
4 -5 3 21757.8 3242.36 22
4 5 4 76361.5 3127.87 6
4 5 4 79669.5 7736.4 23
4 -5 4 80904 6325.71 22
4 5 5 240969 5769.43 6
4 5 6 34700 2209.36 6
4 5 7 47572.7 2540.41 6
4 5 8 6536.09 923.425 6
4 5 9 39554.4 2081.06 6
4 5 10 6745.06 773.182 6
4 5 11 3724.54 440.342 6
4 6 -2 13184.9 2770.52 23
4 -6 -2 9216.46 2021.73 22
4 6 -1 43123.6 5315.45 23
4 -6 -1 34986.1 3994.46 22
4 6 0 26257.1 4818.98 23
4 -6 0 19603.2 3077.7 22
4 6 1 9993.53 3654.7 23
4 -6 1 6446.67 1799.88 22
4 6 2 23575.5 6934.46 23
4 -6 2 3553.63 1607.47 22
4 6 4 58716 2711.57 6
4 6 5 24208.2 1764.36 6
4 6 6 16503.6 1470.23 6
4 6 7 3184.22 671.187 6
4 6 8 20815.2 1479.87 6
4 6 9 3003.75 550.484 6
4 6 10 4353.5 520.666 6
4 7 5 3853.05 650.705 6
4 7 6 1023.86 391.135 6
4 7 7 20269.2 1374.97 6
4 7 8 12417 991.342 6
4 7 9 1768.17 350.429 6
4 8 6 15565.2 1071.43 7
4 8 6 14586.1 1006.51 6
4 8 7 2575.03 388.237 6
4 9 4 7046.87 767.965 7
4 9 5 6342.3 654.654 7
4 10 -1 25035.4 1179.48 7
4 10 0 16483.7 1018 7
4 10 1 29566.2 1390.38 7
4 10 2 44546.6 1678.26 7
4 10 3 21024.5 1084.7 7
4 10 4 13310 777.059 7
5 0 -2 11129.6 1763.72 22
5 0 -1 -1197.5 805.805 22
5 0 0 92797.3 5631.56 22
5 0 1 -408.048 592.793 22
5 0 2 44949.3 4248.92 22
5 0 3 1136.58 839.668 22
5 0 4 111395 7099.13 22
5 0 5 -3676.82 1517.94 22
5 0 9 11.0282 300.216 6
5 0 10 6040.22 798.24 6
5 0 11 14.3702 107.771 6
5 1 -4 788.486 842.986 23
5 1 -3 845.991 682.605 23
5 1 -2 62724.1 4513.26 23
5 1 -1 21207.3 2593 22
5 -1 -1 19455.3 2498.84 22
5 1 0 85961.6 5544.58 22
5 -1 0 87401.4 5487.18 22
5 1 1 17824.9 2613.98 22
5 -1 1 19853.9 2635.86 22
5 1 2 143259 7727.82 22
5 -1 2 137221 7404.7 22
5 1 3 4322.59 1488.05 22
5 -1 3 2938.68 1181.16 22
5 1 4 87093 6420.92 22
5 -1 4 89933.9 6427.36 22
5 1 5 82144 6342.12 22
5 -1 5 86392.9 6430.58 22
5 1 9 27589.3 1845.5 6
5 1 10 2217.87 496.242 6
5 -1 10 1807.73 462.472 6
5 1 11 10331 813.385 6
5 -1 11 8489.55 673.872 6
5 2 -5 9314.46 2188.22 23
5 2 -4 63919.1 5299.71 23
5 2 -3 228349 9638.5 23
5 2 -2 40027 3954.28 23
5 2 -1 22386.8 2974.57 23
5 -2 -1 18397.6 2556.62 22
5 2 0 175912 9020.88 23
5 -2 0 142217 7187.9 22
5 2 1 38994.5 5133.83 23
5 -2 1 50780.2 4503.11 22
5 2 2 21014.5 4036 23
5 -2 2 26902.3 3359.05 22
5 -2 3 40843.8 4319.9 22
5 -2 4 11309.1 2518.24 22
5 2 5 2365.71 1560.99 22
5 -2 5 2337.83 1361.85 22
5 2 7 130118 4332.84 6
5 2 8 6859.57 1048.27 6
5 2 9 1036.62 462.173 6
5 2 10 1229.91 359.057 6
5 -2 10 717.303 311.175 6
5 2 11 1261.91 296.727 6
5 3 -5 2179.74 1219.65 23
5 3 -4 32567.5 3972.42 23
5 3 -3 9996.42 2211.12 23
5 3 -2 56401.1 5080.86 23
5 3 -1 93608.7 6639.13 23
5 -3 -1 82027.2 5566.87 22
5 3 0 13499 2700.73 23
5 -3 0 11235.8 2107.53 22
5 3 1 18034.2 3881.86 23
5 -3 1 20745.4 2982.59 22
5 3 2 27574.1 5335.68 23
5 -3 2 37919.8 4146.72 22
5 3 3 7604.54 2434.93 23
5 -3 3 4375.1 1514.29 22
5 3 4 14087.3 2894.42 23
5 -3 4 18540.4 3101.29 22
5 3 5 62320.2 2939.88 6
5 3 6 10338.8 1237.22 6
5 3 7 103147 3777.05 6
5 3 8 24221.2 1785.09 6
5 3 9 33201.5 1890.48 6
5 3 10 8019.75 837.982 6
5 -3 10 5853.44 606.307 6
5 3 11 426.516 176.821 6
5 4 -4 9847.52 2194.3 23
5 4 -3 7384.48 2160.29 23
5 4 -2 -631.576 1047.82 23
5 4 -1 2767.02 1537.31 23
5 -4 -1 1405.28 829.742 22
5 4 0 11035.3 2701.54 23
5 -4 0 4823.34 1393.47 22
5 4 1 2764.1 2207.97 23
5 -4 1 1892.86 1099.32 22
5 4 2 10822.3 3444.43 23
5 -4 2 2761.56 1387.99 22
5 4 3 67564.9 7264.49 23
5 -4 3 54160.5 5360.11 22
5 4 4 6388.02 929.764 6
5 4 5 24224.1 1820.48 6
5 4 6 30364.7 2032.65 6
5 4 7 6843.69 959.468 6
5 4 8 2887.66 611.064 6
5 4 9 391.371 300.299 6
5 4 10 22020 1213.97 6
5 5 -1 -1475.86 1532.63 23
5 -5 -1 -13.1476 1166.8 22
5 5 0 28642.4 4946.31 23
5 -5 0 30688.3 3730.98 22
5 5 4 53485 2543.05 6
5 5 5 3857.71 716.827 6
5 5 6 4555.74 747.755 6
5 5 7 1653.72 452.861 6
5 5 8 22526.4 1467.17 6
5 5 9 7161.28 733.65 6
5 5 10 615.957 185.479 6
5 6 5 11817.8 1117.56 6
5 6 6 1884.26 499.895 6
5 6 7 7483.81 810.891 6
5 6 8 17669.2 1107.38 6
5 6 9 3685.15 420.879 6
5 7 6 3146.46 437.329 7
5 7 7 13554.8 833.3 6
5 8 5 35191.3 1475.79 7
5 9 4 28051.8 1171.4 7
6 0 0 49762.2 4615.11 22
6 0 1 567.903 799.568 22
6 0 2 112110 7439.91 22
6 0 9 26.3748 229.41 6
6 0 10 422.767 195.423 6
6 1 0 8334.55 2006.49 22
6 -1 0 5255.41 1741.6 22
6 1 1 4950.18 1592.23 22
6 -1 1 5983.56 1762.32 22
6 1 2 8318.83 2088.54 22
6 -1 2 13763.2 2671 22
6 1 8 17787.2 1425.06 6
6 1 9 4217.5 650.611 6
6 -1 9 4791.57 691.763 6
6 1 10 1621.16 335.152 6
6 -1 10 1737.76 320.999 6
6 2 0 42425.1 4449.18 22
6 -2 0 40160.1 4267.08 22
6 -2 1 20517.5 3134.72 22
6 2 1 16401.7 2809.58 22
6 2 6 3282.44 687.61 6
6 2 7 2366.26 582.762 6
6 2 8 -645.877 359.307 6
6 2 9 2358.2 459.254 6
6 -2 9 2557.5 494.971 6
6 2 10 1483.88 298.807 6
6 3 4 32643.6 2020.61 6
6 3 5 39724.1 2252.66 6
6 3 6 8350.67 1001.36 6
6 3 7 1160.77 410.747 6
6 3 8 5461.85 721.975 6
6 3 9 14136.8 980.553 6
6 4 5 127239 3722.48 6
6 4 6 16699.5 1309.46 6
6 4 7 15782 1199.94 6
6 4 8 45563.2 1831.1 6
6 4 9 2546.7 370.357 6
6 5 6 1260.6 359.436 6
6 5 7 1821.82 377.828 6
6 5 8 15193.7 862.338 6
7 0 7 393.983 251.521 6
7 0 8 58284.2 1939.07 6
7 1 6 51678.8 2255.47 6
7 1 7 6314 743.591 6
7 1 8 2218.13 390.345 6
7 -1 8 1952.08 378.025 6
7 2 4 12708.5 1134.28 6
7 2 5 14707.4 1198.31 6
7 2 6 4217.2 627.431 6
7 2 7 1081.58 308.584 6
7 2 8 702.542 215.207 6
7 -2 8 1124.19 301.268 6
7 3 5 11059.7 952.184 6
7 3 6 804.025 305.058 6
7 3 7 7009.85 622.762 6
8 0 5 -160.086 111.773 6
