#------------------------------------------------------------------------------
#$Date: 2019-11-24 15:26:22 +0200 (Sun, 24 Nov 2019) $
#$Revision: 238339 $
#$URL: file:///home/coder/svn-repositories/cod/cif/1/55/51/1555128.cif $
#------------------------------------------------------------------------------
#
# This file is available in the Crystallography Open Database (COD),
# http://www.crystallography.net/
#
# All data on this site have been placed in the public domain by the
# contributors.
#
data_1555128
loop_
_publ_author_name
'Liu, Weigang'
'Pan, Hongjie'
'Tian, Hua'
'Shi, Yian'
_publ_section_title
;
 Enantioselective 6-exo-Bromoaminocyclization of Homoallylic
 N-Tosylcarbamates Catalyzed by a Novel Monophosphine-Sc(OTf)3 Complex.
;
_journal_issue                   16
_journal_name_full               'Organic letters'
_journal_page_first              3956
_journal_page_last               3959
_journal_paper_doi               10.1021/acs.orglett.5b01779
_journal_volume                  17
_journal_year                    2015
_chemical_absolute_configuration ad
_chemical_formula_moiety         'C14 H17 Br Cl N O4 S'
_chemical_formula_sum            'C14 H17 Br Cl N O4 S'
_chemical_formula_weight         410.71
_space_group_crystal_system      monoclinic
_space_group_IT_number           4
_space_group_name_Hall           'P 2yb'
_space_group_name_H-M_alt        'P 1 21 1'
_atom_sites_solution_hydrogens   geom
_audit_creation_date             2014-11-17
_audit_creation_method
;
Olex2 1.2
(compiled 2013.12.10 svn.r2850 for OlexSys, GUI svn.r4736)
;
_cell_angle_alpha                90
_cell_angle_beta                 91.561(9)
_cell_angle_gamma                90
_cell_formula_units_Z            2
_cell_length_a                   9.240(5)
_cell_length_b                   6.262(3)
_cell_length_c                   14.504(8)
_cell_measurement_reflns_used    0
_cell_measurement_temperature    173.1500
_cell_measurement_theta_max      27.4855
_cell_measurement_theta_min      1.4073
_cell_volume                     838.9(8)
_computing_cell_refinement       'CrystalClear (Rigaku Inc., 2007)'
_computing_data_collection       'CrystalClear (Rigaku Inc., 2007)'
_computing_data_reduction        'CrystalClear (Rigaku Inc., 2007)'
_computing_molecular_graphics    'Olex2 (Dolomanov et al., 2009)'
_computing_publication_material  'Olex2 (Dolomanov et al., 2009)'
_computing_structure_refinement  'SHELXL (Sheldrick, 2013)'
_computing_structure_solution
;
'SHELXS (Sheldrick, 2013)'
;
_diffrn_ambient_temperature      173.1500
_diffrn_detector_area_resol_mean 28.5714
_diffrn_measured_fraction_theta_full 0.992
_diffrn_measured_fraction_theta_max 0.992
_diffrn_measurement_device
;
Saturn724+ (2x2 bin mode)
;
_diffrn_measurement_device_details
;
AFC10: Fixed Chi 2 circle
;
_diffrn_measurement_device_type  'Saturn724+ CCD'
_diffrn_measurement_method       '\w scans at fixed \c = 45\%'
_diffrn_orient_matrix_type       d*Trek
_diffrn_orient_matrix_UB_11      0.1046
_diffrn_orient_matrix_UB_12      0.0280
_diffrn_orient_matrix_UB_13      0.0022
_diffrn_orient_matrix_UB_21      -0.0342
_diffrn_orient_matrix_UB_22      0.1343
_diffrn_orient_matrix_UB_23      -0.0793
_diffrn_orient_matrix_UB_31      -0.0082
_diffrn_orient_matrix_UB_32      0.0332
_diffrn_orient_matrix_UB_33      0.0599
_diffrn_radiation_detector       CCD
_diffrn_radiation_monochromator  'Graphite Monochromator'
_diffrn_radiation_type           MoK\a
_diffrn_radiation_wavelength     0.71073
_diffrn_reflns_av_R_equivalents  0.0422
_diffrn_reflns_av_unetI/netI     0.0375
_diffrn_reflns_Laue_measured_fraction_full 0.992
_diffrn_reflns_Laue_measured_fraction_max 0.992
_diffrn_reflns_limit_h_max       11
_diffrn_reflns_limit_h_min       -11
_diffrn_reflns_limit_k_max       8
_diffrn_reflns_limit_k_min       -8
_diffrn_reflns_limit_l_max       18
_diffrn_reflns_limit_l_min       -18
_diffrn_reflns_number            10354
_diffrn_reflns_point_group_measured_fraction_full 0.972
_diffrn_reflns_point_group_measured_fraction_max 0.968
_diffrn_reflns_theta_full        26.000
_diffrn_reflns_theta_max         27.477
_diffrn_reflns_theta_min         3.525
_diffrn_source                   'Sealed Tube'
_diffrn_source_current           30.0000
_diffrn_source_power             1.5000
_diffrn_source_voltage           50.0000
_exptl_absorpt_coefficient_mu    2.749
_exptl_absorpt_correction_T_max  1.0000
_exptl_absorpt_correction_T_min  0.4151
_exptl_absorpt_correction_type   multi-scan
_exptl_absorpt_process_details   'CrystalClear (Rigaku Inc., 2007)'
_exptl_crystal_colour            Colorless
_exptl_crystal_density_diffrn    1.626
_exptl_crystal_description       rod
_exptl_crystal_F_000             416
_exptl_crystal_size_max          0.62
_exptl_crystal_size_mid          0.14
_exptl_crystal_size_min          0.09
_refine_diff_density_max         0.256
_refine_diff_density_min         -0.308
_refine_diff_density_rms         0.053
_refine_ls_abs_structure_details
;
 Flack x determined using 1513 quotients [(I+)-(I-)]/[(I+)+(I-)]
 (Parsons and Flack (2004), Acta Cryst. A60, s61).
;
_refine_ls_abs_structure_Flack   0.016(6)
_refine_ls_extinction_method     none
_refine_ls_goodness_of_fit_ref   1.105
_refine_ls_hydrogen_treatment    constr
_refine_ls_matrix_type           full
_refine_ls_number_parameters     200
_refine_ls_number_reflns         3711
_refine_ls_number_restraints     1
_refine_ls_restrained_S_all      1.105
_refine_ls_R_factor_all          0.0285
_refine_ls_R_factor_gt           0.0276
_refine_ls_shift/su_max          0.000
_refine_ls_shift/su_mean         0.000
_refine_ls_structure_factor_coef Fsqd
_refine_ls_weighting_details
'w=1/[\s^2^(Fo^2^)+(0.0251P)^2^+0.1963P] where P=(Fo^2^+2Fc^2^)/3'
_refine_ls_weighting_scheme      calc
_refine_ls_wR_factor_gt          0.0644
_refine_ls_wR_factor_ref         0.0647
_reflns_Friedel_coverage         0.788
_reflns_Friedel_fraction_full    0.949
_reflns_Friedel_fraction_max     0.938
_reflns_number_gt                3631
_reflns_number_total             3711
_reflns_threshold_expression     'I > 2\s(I)'
_cod_data_source_file            ol5b01779_si_003.cif
_cod_data_source_block           sa3717
_cod_database_code               1555128
_shelxl_version_number           2013-4
_shelx_space_group_comment
;
The symmetry employed for this shelxl refinement is uniquely defined
by the following loop, which should always be used as a source of
symmetry information in preference to the above space-group names.
They are only intended as comments.
;
_diffrn_number_total             2084
_olex2_refinement_description
;
1. Fixed Uiso
 At 1.2 times of:
  All C(H) groups, All C(H,H) groups
 At 1.5 times of:
  All C(H,H,H) groups
2.a Ternary CH refined with riding coordinates:
 C1(H1), C2(H2)
2.b Secondary CH2 refined with riding coordinates:
 C3(H3A,H3B), C4(H4A,H4B), C5(H5A,H5B), C6(H6A,H6B)
2.c Aromatic/amide H refined with riding coordinates:
 C9(H9), C10(H10), C12(H12), C13(H13)
2.d Idealised Me refined as rotating group:
 C14(H14A,H14B,H14C)
;
_shelx_res_file
;
TITL sa3717 in P2(1)
CELL 0.71073 9.2404 6.2617 14.5036 90 91.561 90
ZERR 2 0.0046 0.0033 0.0077 0 0.009 0
LATT -1
SYMM -X,0.5+Y,-Z

SFAC C H Br Cl N O S
UNIT 28 34 2 2 2 8 2

L.S. 4
PLAN  20
BOND
fmap 2
MORE -1
ACTA 52
CONF
OMIT -6 -3 7
OMIT -5 -3 8
OMIT 0 0 1
OMIT -4 -1 4
REM <HKL>D:/D/SXRD/sa(3700-3799)/sa3717/sa3717.hkl</HKL>

WGHT    0.025100    0.196300
FVAR       8.18923
BR1   3    0.125847    0.480229    0.924753    11.00000    0.03992    0.04070 =
         0.03087    0.00923    0.00731   -0.01026
CL1   4   -0.169417    0.758112    0.729383    11.00000    0.02917    0.05620 =
         0.03105   -0.01047   -0.00597    0.00009
S1    7    0.366292    0.414731    0.695985    11.00000    0.02454    0.02186 =
         0.01779   -0.00268    0.00221   -0.00153
O1    6    0.571891    0.631993    0.909144    11.00000    0.02799    0.02286 =
         0.02303   -0.00135   -0.00615    0.00256
O2    6    0.567959    0.313568    0.844357    11.00000    0.03665    0.02100 =
         0.03456    0.00013   -0.00437    0.00436
O3    6    0.260413    0.539062    0.645848    11.00000    0.02540    0.03500 =
         0.01976   -0.00338   -0.00256    0.00245
O4    6    0.332463    0.199512    0.718214    11.00000    0.03773    0.02244 =
         0.02778   -0.00416    0.00763   -0.00839
N1    5    0.399191    0.556688    0.793851    11.00000    0.02238    0.02286 =
         0.01602   -0.00170   -0.00020    0.00144
C1    1    0.306294    0.746412    0.812454    11.00000    0.02093    0.01775 =
         0.01890    0.00014    0.00077    0.00002
AFIX  13
H1    2    0.311071    0.839698    0.758367    11.00000   -1.20000
AFIX   0
C2    1    0.147156    0.689370    0.823855    11.00000    0.02305    0.02481 =
         0.01712    0.00001    0.00371   -0.00430
AFIX  13
H2    2    0.110898    0.623868    0.766369    11.00000   -1.20000
AFIX   0
C3    1    0.058440    0.887843    0.841585    11.00000    0.02353    0.03265 =
         0.03052   -0.00655    0.00252    0.00186
AFIX  23
H3A   2    0.081357    0.994034    0.795528    11.00000   -1.20000
H3B   2    0.087791    0.945236    0.901336    11.00000   -1.20000
AFIX   0
C4    1   -0.104704    0.855303    0.839981    11.00000    0.02512    0.04831 =
         0.02892   -0.01242    0.00068    0.00033
AFIX  23
H4A   2   -0.151899    0.989692    0.853415    11.00000   -1.20000
H4B   2   -0.129652    0.753791    0.887504    11.00000   -1.20000
AFIX   0
C5    1    0.370218    0.871455    0.894122    11.00000    0.02237    0.02472 =
         0.02184   -0.00492    0.00098   -0.00262
AFIX  23
H5A   2    0.341828    1.020262    0.889322    11.00000   -1.20000
H5B   2    0.333761    0.814755    0.951235    11.00000   -1.20000
AFIX   0
C6    1    0.532060    0.853743    0.894531    11.00000    0.02363    0.02067 =
         0.02738   -0.00270   -0.00005   -0.00203
AFIX  23
H6A   2    0.568334    0.903268    0.836152    11.00000   -1.20000
H6B   2    0.574179    0.941630    0.943362    11.00000   -1.20000
AFIX   0
C7    1    0.516434    0.488549    0.849845    11.00000    0.02477    0.02402 =
         0.01911    0.00471    0.00089   -0.00160
C8    1    0.528296    0.424348    0.635448    11.00000    0.02228    0.02129 =
         0.01728   -0.00172    0.00045    0.00030
C9    1    0.555611    0.603537    0.582479    11.00000    0.02651    0.02614 =
         0.02346    0.00302   -0.00120    0.00114
AFIX  43
H9    2    0.492025    0.718674    0.582250    11.00000   -1.20000
AFIX   0
C10   1    0.678144    0.609407    0.530062    11.00000    0.02916    0.03203 =
         0.02120    0.00438    0.00022   -0.00453
AFIX  43
H10   2    0.697957    0.730694    0.495615    11.00000   -1.20000
AFIX   0
C11   1    0.772123    0.436477    0.528155    11.00000    0.02639    0.03248 =
         0.02275   -0.00429    0.00210   -0.00343
C12   1    0.743247    0.257831    0.582137    11.00000    0.02710    0.02723 =
         0.03726   -0.00121    0.00514    0.00401
AFIX  43
H12   2    0.806406    0.142210    0.581882    11.00000   -1.20000
AFIX   0
C13   1    0.621616    0.250002    0.636256    11.00000    0.03265    0.02061 =
         0.02658    0.00130    0.00593    0.00152
AFIX  43
H13   2    0.602977    0.130744    0.672261    11.00000   -1.20000
AFIX   0
C14   1    0.903651    0.441265    0.468166    11.00000    0.03057    0.04859 =
         0.03935   -0.00277    0.01080   -0.00756
AFIX 137
H14A  2    0.895022    0.557691    0.425303    11.00000   -1.50000
H14B  2    0.910041    0.309247    0.434870    11.00000   -1.50000
H14C  2    0.989281    0.459893    0.506290    11.00000   -1.50000
AFIX   0
HKLF 4

REM  sa3717 in P2(1)
REM R1 =  0.0276 for    3631 Fo > 4sig(Fo)  and  0.0285 for all    3711 data
REM    200 parameters refined using      1 restraints

END

WGHT      0.0251      0.1963

REM Highest difference peak  0.256,  deepest hole -0.308,  1-sigma level  0.053
Q1    1   0.0409  0.4879  0.8906  11.00000  0.05    0.26
Q2    1  -0.1644  0.6250  0.7417  11.00000  0.05    0.25
Q3    1   0.3288  0.8246  0.8563  11.00000  0.05    0.23
Q4    1   0.1244  0.5750  0.9453  11.00000  0.05    0.22
Q5    1   0.4456  0.4242  0.6559  11.00000  0.05    0.21
Q6    1   0.0321  0.4684  0.8423  11.00000  0.05    0.20
Q7    1   0.0962  0.7864  0.8310  11.00000  0.05    0.20
Q8    1   0.2234  0.4342  0.6157  11.00000  0.05    0.19
Q9    1   0.5567  0.7465  0.9006  11.00000  0.05    0.18
Q10   1   0.4182  0.3259  0.5800  11.00000  0.05    0.18
Q11   1   0.2992  0.4946  0.6637  11.00000  0.05    0.18
Q12   1   0.7243  0.2805  0.6266  11.00000  0.05    0.18
Q13   1   0.3383  0.1254  0.7029  11.00000  0.05    0.17
Q14   1   0.1153  0.3622  0.7825  11.00000  0.05    0.17
Q15   1   0.2773  0.4368  0.6266  11.00000  0.05    0.17
Q16   1   0.3443  0.5755  0.9762  11.00000  0.05    0.17
Q17   1   0.1160  0.5532  0.7780  11.00000  0.05    0.17
Q18   1   0.7155  0.9909  0.5033  11.00000  0.05    0.17
Q19   1   0.0810  1.1828  0.8653  11.00000  0.05    0.16
Q20   1  -0.1943  0.9740  0.9405  11.00000  0.05    0.16
;
_shelx_res_checksum              16206
_shelx_hkl_file
;
   0   0   1 -111.78   35.38   1 0.45119-0.44980-0.89234 0.89234 0.01188 0.03722
   0   0  -1   59.89   19.90   1 0.24826-0.24960-0.96818 0.96818-0.03134-0.01778
   0   0   1   17.73   20.63   1 0.29596-0.29462-0.95505 0.95505 0.01651 0.03260
   0   0  -1  -58.06   19.42   1 0.81737-0.81869 0.57421-0.57421-0.04661-0.00252
   0   0  -368862.70  839.29   1 0.47059-0.47468-0.87806 0.87806-0.08682-0.06059
   0   0   370442.42  849.50   1 0.43974-0.43560-0.89602 0.89602 0.06136 0.08597
   0   0  -366725.67  821.45   1 0.19878-0.20279-0.97683 0.97683-0.07918-0.06825
   0   0  -365789.95  775.60   1 0.80052-0.80450 0.59166-0.59166-0.09532-0.05207
   0   0   4162330.9 1854.91   1 0.43357-0.42805-0.89699 0.89699 0.08611 0.11033
   0   0  -4153011.3 1770.16   1 0.17380-0.17915-0.97936 0.97936-0.10309-0.09348
   0   0   4147923.6 1665.95   1 0.36506-0.35970-0.92677 0.92677 0.08837 0.10811
   0   0  -4153857.7 1724.20   1 0.79118-0.79647 0.59976-0.59976-0.11965-0.07687
   0   0   5390455.1 4285.76   1 0.42710-0.42019-0.89738 0.89738 0.11086 0.13469
   0   0   5355406.6 3876.98   1 0.38742-0.38073-0.91502 0.91502 0.11235 0.13327
   0   0  -5370082.0 4029.73   1 0.78122-0.78791 0.60736-0.60736-0.14424-0.10151
   0   0   667822.92  912.39   1 0.42032-0.41204-0.89717 0.89717 0.13563 0.15903
   0   0  -667844.98  946.54   1 0.12282-0.13085-0.98089 0.98089-0.15088-0.14398
   0   0   660518.01  781.90   1 0.40945-0.40142-0.90208 0.90208 0.13633 0.15841
   0   0  -720333.97  509.73   1 0.48511-0.49466-0.85452 0.85452-0.18558-0.15839
   0   0   718761.18  400.15   1 0.41324-0.40357-0.89638 0.89638 0.16040 0.18337
   0   0  -720252.83  489.86   1 0.09682-0.10618-0.97983 0.97983-0.17476-0.16924
   0   0   716839.24  325.39   1 0.43234-0.42302-0.88733 0.88733 0.16038 0.18355
   0   0   718856.40  398.26   1 0.86032-0.85106 0.48752-0.48752 0.14889 0.19495
   0   0  -717515.01  368.47   1 0.75938-0.76875 0.62141-0.62141-0.19283-0.15122
   0   0  -8107564.1 2571.93   1 0.48797-0.49888-0.84715 0.84715-0.21025-0.18286
   0   0  -8120677.4 2865.35   1 0.07046-0.08116-0.97753 0.97753-0.19864-0.19451
   0   0   896004.04 2247.26   1 0.45368-0.44303-0.87187 0.87187 0.18439 0.20867
   0   0   896627.67 2288.07   1 0.86285-0.85227 0.47478-0.47478 0.17340 0.21956
   0   0  -9112905.6 2727.34   1 0.49052-0.50279-0.83916 0.83916-0.23491-0.20734
   0   0  -9128595.7 3068.66   1 0.04332-0.05532-0.97398 0.97398-0.22242-0.21974
   0   0   997685.64 2299.27   1 0.47465-0.46268-0.85513 0.85513 0.20841 0.23379
   0   0   9114658.5 2705.63   1 0.86472-0.85282 0.46159-0.46159 0.19793 0.24415
   0   0 -10 3139.38  359.90   1 0.49274-0.50638-0.83055 0.83055-0.25956-0.23183
   0   0 -10 5876.35  623.82   1 0.01622-0.02955-0.96906 0.96906-0.24626-0.24502
   0   0  10 3029.89  205.74   1 0.49525-0.48194-0.83707 0.83707 0.23243 0.25890
   0   0  10 3138.52  298.84   1 0.86593-0.85271 0.44795-0.44795 0.22247 0.26873
   0   0 -11110444.8 3845.69   1 0.49463-0.50964-0.82131 0.82131-0.28421-0.25633
   0   0 -11120131.0 4135.01   1-0.01126-0.00339-0.96276 0.96276-0.27010-0.27031
   0   0  11107634.0 3706.58   1 0.86645-0.85191 0.43385-0.43385 0.24704 0.29328
   0   0 -1222826.51 1282.74   1 0.49610-0.51263-0.81139 0.81139-0.30905-0.28078
   0   0 -1224899.25  938.41   1-0.03916 0.02317-0.95502 0.95502-0.29393-0.29562
   0   0  1223322.80  920.27   1 0.86627-0.85041 0.41926-0.41926 0.27162 0.31782
   0   0 -1335439.19 1887.06   1 0.49731-0.51522-0.80083 0.80083-0.33368-0.30530
   0   0 -1338844.94 2112.90   1-0.06750 0.05017-0.94576 0.94576-0.31774-0.32093
   0   0  1335697.91 1856.10   1 0.86537-0.84819 0.40419-0.40419 0.29622 0.34234
   0   0 -1443773.17 2590.63   1 0.49817-0.51746-0.78957 0.78957-0.35830-0.32983
   0   0 -1447510.26 2795.24   1-0.09629 0.07763-0.93491 0.93491-0.34154-0.34626
   0   0  1442709.33 2503.46   1 0.86373-0.84522 0.38861-0.38861 0.32085 0.36684
   0   0 -15  473.72  399.94   1 0.49867-0.51934-0.77762 0.77762-0.38291-0.35438
   0   0 -15 1018.96  225.10   1-0.12557 0.10557-0.92236 0.92236-0.36533-0.37160
   0   0  15  706.53  292.80   1 0.86146-0.84126 0.37254-0.37254 0.34509 0.39177
   0   0 -16 4328.77  868.58   1 0.49880-0.52084-0.76493 0.76493-0.40751-0.37893
   0   0 -16 4460.08  975.69   1-0.15535 0.13425-0.90805 0.90805-0.38896-0.39674
   0   0  16 4552.78  859.36   1 0.85826-0.83671 0.35589-0.35589 0.36976 0.41623
   0   0 -17 1325.69  570.49   1 0.49853-0.52195-0.75149 0.75149-0.43210-0.40349
   0   0 -17  824.13  331.69   1-0.18570 0.16327-0.89172 0.89172-0.41272-0.42209
   0   0  17  511.79  311.86   1 0.85422-0.83133 0.33867-0.33867 0.39445 0.44066
   0   0 -1822751.85 1716.32   1 0.49786-0.52266-0.73727 0.73727-0.45668-0.42807
   0   0 -1821777.93 1594.74   1-0.21665 0.19291-0.87324 0.87324-0.43646-0.44746
   0   0  1823103.26 1708.68   1 0.84932-0.82507 0.32085-0.32085 0.41916 0.46507
   0   1   0  226.43   73.36   1 0.23028-0.23028 0.05669 0.05669-0.97146 0.97146
   0   1   0   24.45   81.87   1 0.72415-0.72415 0.05668 0.05668 0.68730-0.68730
   0   1   0  200.84   48.55   1 0.70654-0.70654 0.05669 0.05669 0.70538-0.70538
   0   1  -1452747.6 4861.13   1 0.38708-0.38850-0.30422 0.41759-0.87040 0.82138
   0  -1  -1433689.0 4660.87   1 0.73485-0.73615-0.33167 0.21826 0.59158-0.64065
   0   1  -1449246.3 4811.71   1 0.62885-0.63011 0.37022-0.25689 0.68372-0.73277
   0  -1   1457790.6 4904.71   1 0.79482-0.79342 0.19177-0.30526 0.57574-0.52658
   0  -1  -2200023.9 2206.02   1 0.68536-0.68791-0.53867 0.42513 0.48999-0.58824
   0  -1   2198016.4 2159.61   1 0.57143-0.56882 0.48615-0.59958 0.66115-0.56297
   0   1  -3234702.9 2611.30   1 0.48239-0.48656-0.62570 0.73911-0.61301 0.46579
   0  -1  -3228252.0 2510.32   1 0.28086-0.28503-0.81696 0.70346 0.50366-0.65107
   0   1  -3236901.0 2581.13   1-0.46289 0.45888-0.64843 0.76201-0.60436 0.45690
   0  -1   3223312.7 2436.03   1-0.30286 0.30681-0.81148 0.69795-0.49976 0.64708
   0  -1  -3231238.9 2554.03   1 0.61988-0.62381-0.68074 0.56720 0.39029-0.53770
   0   1   3234999.0 2590.26   1 0.69156-0.68773-0.52064 0.63419 0.50067-0.35329
   0  -1   3226887.6 2500.67   1 0.85844-0.85440 0.35675-0.47020 0.36849-0.22112
   0   1   3229469.6 2490.45   1 0.62871-0.62467 0.66137-0.54790-0.40902 0.55640
   0   1   4224090.4 2481.34   1 0.24315-0.23759-0.78098 0.89449 0.57527-0.37872
   0  -1   4234269.3 2601.66   1 0.86314-0.85776 0.38330-0.49675 0.32870-0.13220
   0   1   4245004.8 2678.31   1 0.72678-0.72143 0.63717-0.52367-0.25649 0.45309
   0  -1  -4244919.5 2669.52   1 0.52715-0.53255 0.66472-0.77819-0.52938 0.33287
   0  -1   628265.92  516.47   1 0.48371-0.47552-0.85768 0.74412-0.17436 0.46920
   0   1  -629938.60  488.07   1-0.27804 0.27013-0.83088 0.94442-0.48198 0.18734
   0  -1   630341.76  491.85   1 0.05988-0.05186-0.97626 0.86273-0.20812 0.50299
   0  -1  -629419.79  496.48   1 0.43243-0.44042-0.88726 0.77377 0.16049-0.45530
   0   1   629996.48  500.25   1 0.63154-0.62369-0.66008 0.77361 0.40674-0.11190
   0  -1   630231.14  511.57   1 0.86514-0.85720 0.40148-0.51493 0.30057-0.00584
   0   1  -628505.76  473.96   1 0.83619-0.84413 0.54810-0.43466 0.01905-0.31384
   0   1   629241.13  474.69   1 0.80689-0.79894 0.58556-0.47211-0.07775 0.37254
   0  -1  -629643.35  453.14   1 0.60370-0.61179 0.66383-0.77729-0.44144 0.14668
   0   1  -718547.88  822.49   1 0.49809-0.50774-0.74141 0.85501-0.44967 0.10559
   0  -1  -717414.07  764.73   1 0.43174-0.44141-0.89716 0.78369 0.09322-0.43700
   0   1   717483.90  746.35   1 0.30276-0.29302-0.83576 0.94926 0.45807-0.11412
   0  -1   716178.92  670.51   1 0.13818-0.12881-0.98093 0.86740-0.13662 0.48064
   0  -1  -716641.63  711.73   1 0.37816-0.38752-0.92006 0.80665 0.10237-0.44624
   0   1   717802.07  728.14   1 0.62425-0.61509-0.67317 0.78670 0.39641-0.05243
   0   1   717696.81  736.50   1 0.82637-0.81710 0.56286-0.44942-0.01713 0.36105
   0  -1  -714899.79  620.18   1 0.61551-0.62495 0.66282-0.77628-0.42639 0.08250
   0   1  -882956.60 2044.82   1 0.49830-0.50932-0.74556 0.85916-0.44252 0.04930
   0  -1  -871969.46 1767.44   1 0.44652-0.45756-0.89417 0.78070 0.03269-0.42559
   0   1  -878640.47 1874.66   1-0.24048 0.22993-0.85772 0.97125-0.45438 0.06152
   0  -1   870058.52 1691.54   1 0.20381-0.19311-0.97618 0.86264-0.07432 0.46748
   0  -1  -873081.97 1764.70   1 0.32872-0.33942-0.94309 0.82968 0.05019-0.44319
   0   1   875464.97 1807.39   1 0.62139-0.61092-0.67815 0.79169 0.39239 0.00071
   0   1   879265.52 1885.32   1 0.83986-0.82927 0.54172-0.42828 0.03405 0.35899
   0  -1  -867938.75 1624.30   1 0.61943-0.63023 0.66242-0.77588-0.42129 0.02828
   0   1  -9101873.6 2911.60   1 0.49832-0.51072-0.74614 0.85974-0.44151-0.00085
   0  -1  -999864.31 2827.30   1 0.45803-0.47046-0.88869 0.77522-0.02048-0.42152
   0   1  -992753.95 2665.25   1-0.23542 0.22355-0.86112 0.97465-0.45060 0.00863
   0  -1   993619.43 2617.31   1 0.26076-0.24872-0.96521 0.85180-0.01892 0.46104
   0  -1  -991202.13 2575.41   1 0.28225-0.29429-0.95933 0.84592 0.00262-0.44474
   0  -1   999459.21 2809.67   1 0.86430-0.85240 0.39335-0.50680 0.31344 0.12864
   0   1   9100312.5 2794.42   1 0.84949-0.83757 0.52163-0.40819 0.07908 0.36309
   0  -1 -1076977.62 2702.38   1 0.46733-0.48097-0.88144 0.76788-0.06829-0.42311
   0   1 -1082836.78 2938.34   1-0.23649 0.22330-0.86041 0.97394-0.45140-0.03967
   0  -1 -1078750.32 2741.84   1 0.23810-0.25148-0.97035 0.85694-0.04136-0.44988
   0  -1  1076093.06 2660.93   1 0.86353-0.85006 0.38610-0.49954 0.32439 0.16685
   0   1  1088533.10 3046.23   1 0.85649-0.84327 0.50204-0.38859 0.11987 0.37133
   0  -1 -1123284.97 1026.36   1 0.47478-0.48979-0.87291 0.75935-0.11220-0.42834
   0   1 -1123962.97  883.37   1-0.24228 0.22777-0.85651 0.97004-0.45572-0.08445
   0  -1 -1122874.08  875.14   1 0.19534-0.21006-0.97725 0.86372-0.08249-0.45809
   0  -1  1123666.42  936.15   1 0.86225-0.84743 0.37731-0.49076 0.33787 0.20250
   0   1  1124568.67  928.17   1 0.86130-0.84676 0.48300-0.36955 0.15767 0.38265
   0   1 -1268877.02 2375.32   1 0.49768-0.51421-0.73440 0.84799-0.46148-0.12835
   0  -1 -1273004.42 2502.20   1 0.48087-0.49724-0.86331 0.74975-0.15309-0.43658
   0   1 -1266317.89 2211.05   1-0.25179 0.23596-0.84996 0.96349-0.46278-0.12650
   0  -1 -1278479.59 2642.26   1 0.15438-0.17044-0.98051 0.86698-0.12145-0.46828
   0  -1  1275730.00 2544.17   1 0.86053-0.84436 0.36728-0.48072 0.35297 0.23652
   0   1  1267559.12 2256.07   1 0.86441-0.84855 0.46414-0.35069 0.19325 0.39619
   0   1 -1321049.18 1214.16   1 0.49718-0.51509-0.72732 0.84092-0.47308-0.16590
   0  -1 -1318802.61 1149.01   1 0.48584-0.50358-0.85277 0.73921-0.19164-0.44718
   0   1 -1316215.89 1028.97   1-0.26432 0.24717-0.84104 0.95457-0.47199-0.16640
   0  -1 -1320949.34 1179.04   1 0.11446-0.13185-0.98068 0.86715-0.15860-0.48027
   0  -1  1321384.77 1212.35   1 0.85832-0.84081 0.35616-0.46961 0.36936 0.26925
   0   1  1318699.75 1048.87   1 0.86608-0.84889 0.44529-0.33184 0.22717 0.41139
   0   1 -1425817.25 1618.90   1 0.49649-0.51578-0.71901 0.83261-0.48632-0.20181
   0  -1 -1427386.05 1680.51   1 0.48987-0.50897-0.84135 0.72779-0.22833-0.45962
   0   1 -1424282.41 1455.21   1-0.27933 0.26087-0.82991 0.94344-0.48291-0.20458
   0  -1 -1429089.48 1740.92   1 0.07529-0.09402-0.97804 0.86451-0.19429-0.49373
   0  -1  1425987.21 1571.53   1 0.85557-0.83671 0.34407-0.45752 0.38678 0.30095
   0   1  1425568.66 1547.63   1 0.86645-0.84794 0.42634-0.31288 0.25979 0.42789
   0   1 -1525531.01 1521.77   1 0.49558-0.51624-0.70957 0.82316-0.50090-0.23638
   0  -1 -1523457.08 1426.52   1 0.49307-0.51353-0.82911 0.71555-0.26353-0.47357
   0   1 -1523686.70 1360.71   1-0.29646 0.27668-0.81661 0.93014-0.49521-0.24139
   0  -1 -1525452.09 2387.84   1 0.03629-0.05629-0.97283 0.85933-0.22864-0.50830
   0  -1  1525003.11 1470.02   1 0.85223-0.83202 0.33110-0.44454 0.40505 0.33181
   0   1  1524608.46 1441.10   1 0.86561-0.84578 0.40718-0.29372 0.29141 0.44539
   0   1 -1611262.08  948.55   1 0.49442-0.51646-0.69907 0.81266-0.51657-0.26987
   0  -1 -16 6662.94 1199.07   1 0.49552-0.51734-0.81605 0.70249-0.29751-0.48873
   0   1 -16 8369.16 1657.46   1-0.31543 0.29433-0.80112 0.91465-0.50862-0.27708
   0  -1 -16 5636.67 1212.84   1-0.00201-0.01930-0.96503 0.85153-0.26212-0.52394
   0  -1  16 6336.89 1134.63   1 0.84825-0.82670 0.31729-0.43073 0.42402 0.36197
   0   1  16 9323.19  723.25   1 0.86361-0.84246 0.38772-0.27427 0.32222 0.46370
   0   1 -1750086.96 3293.09   1 0.49267-0.51630-0.68813 0.80154-0.53267-0.30158
   0  -1 -1752671.8710235.04   1 0.49718-0.52061-0.80213 0.68853-0.33073-0.50486
   0   1 -1746573.81 2988.15   1-0.33585 0.31309-0.78327 0.89685-0.52314-0.31245
   0  -1 -1760222.9811675.55   1-0.04018 0.01752-0.95471 0.84121-0.29479-0.54041
   0  -1  1754886.6110652.33   1 0.84358-0.82068 0.30267-0.41612 0.44356 0.39155
   0   1  1749420.41 3205.83   1 0.86065-0.83775 0.36793-0.25448 0.35200 0.48312
   0   1 -18 7187.99  794.50   1 0.49095-0.51597-0.67565 0.78906-0.54995-0.33338
   0  -1 -18 6916.45  766.17   1 0.49829-0.52309-0.78740 0.67380-0.36288-0.52186
   0  -1 -18 6076.79 1112.64   1-0.07836 0.05436-0.94184 0.82835-0.32676-0.55756
   0  -1  18 7454.27  679.28   1 0.83817-0.81392 0.28728-0.40072 0.46360 0.42063
   0   1  18 6454.11  630.95   1 0.85642-0.83218 0.34767-0.23422 0.38164 0.50260
   0   2   0194826.1 2176.33   1 0.20175-0.20175 0.11339 0.11339-0.97284 0.97284
   0   2   0193916.0 2131.16   1 0.74709-0.74709 0.11349 0.11349 0.65495-0.65495
   0   2   1102989.6 1202.25   1 0.08724-0.08588 0.32235-0.09554-0.94258 0.99171
   0   2  -1102149.5 1210.98   1 0.29698-0.29840-0.08508 0.31183-0.95108 0.90206
   0   2   197063.26 1171.18   1 0.73700-0.73575-0.03144 0.25816 0.67515-0.62610
   0   2  -194816.41 1123.68   1 0.66761-0.66888 0.27231-0.04565 0.69291-0.74196
   0   2   196717.87 1092.15   1 0.61142-0.61004-0.05591 0.28271 0.78932-0.74021
   0   2  -199006.37 1139.42   1 0.81735-0.81869 0.23728-0.01039 0.52500-0.57413
   0   2   2260708.9 2870.82   1-0.02934 0.03210 0.50804-0.28123-0.86083 0.95910
   0  -2  -2230300.4 2544.29   1 0.11333-0.11606 0.27722-0.50403-0.95409 0.85584
   0   2  -2242515.4 2704.61   1 0.36583-0.36866-0.24862 0.47537-0.89685 0.79881
   0  -2  -2233699.6 2629.78   1 0.72535-0.72790-0.38873 0.16164 0.56809-0.66634
   0   2  -2235983.0 2606.91   1 0.59985-0.60246 0.43280-0.20595 0.67294-0.77111
   0  -2  -2237899.5 2594.94   1-0.00289 0.00024-0.50760 0.28050 0.86158-0.95985
   0   2   2242837.3 2636.54   1 0.39846-0.39583-0.25173 0.47846 0.88195-0.78382
   0  -2   2245348.3 2716.11   1 0.76755-0.76474 0.14508-0.37207 0.62434-0.52604
   0   2  -2241984.3 2665.33   1 0.85032-0.85302 0.32429-0.09740 0.41445-0.51270
   0   2   3 8025.97  668.20   1-0.13187 0.13605 0.64977-0.42297-0.74860 0.89586
   0  -2  -3 6139.64  421.12   1 0.02413-0.02826 0.42599-0.65281-0.90440 0.75699
   0   2  -3 6745.33  268.24   1 0.41121-0.41538-0.37132 0.59809-0.83247 0.68537
   0  -2  -3 5541.13  280.73   1 0.69686-0.70068-0.50416 0.27707 0.51009-0.65747
   0  -2   3 5312.51  219.83   1 0.65803-0.65422 0.29865-0.52531 0.69122-0.54408
   0   2  -3 6507.02  194.33   1 0.51265-0.51657 0.58065-0.35380 0.63246-0.77972
   0   2   3 6862.54  158.62   1 0.15402-0.15011-0.42163 0.64837 0.89358-0.74637
   0  -2   3 4953.10  196.41   1 0.80579-0.80158 0.21257-0.43957 0.55272-0.40526
   0   2   3 6767.18  179.12   1 0.29733-0.29324 0.62486-0.39793-0.72189 0.86928
   0  -2  -471750.26  885.15   1-0.04704 0.04153 0.53402-0.76083-0.84416 0.64761
   0   2  -463200.10  870.28   1 0.43963-0.44520-0.45879 0.68556-0.77215 0.57601
   0  -2  -467031.03  853.60   1 0.21195-0.21752-0.74818 0.52117 0.62872-0.82526
   0  -2   468887.33  843.04   1-0.41406 0.41941-0.70589 0.47873-0.57468 0.77129
   0  -2  -474288.67  987.23   1 0.65999-0.66523-0.60243 0.37535 0.44886-0.64542
   0  -2   472044.81  907.06   1 0.61449-0.60927 0.40279-0.62965 0.67834-0.48199
   0   2   466333.71  794.06   1-0.05318 0.05849-0.53163 0.75874 0.84530-0.64876
   0  -2   472755.10  932.87   1 0.82577-0.82039 0.25616-0.48305 0.50246-0.30596
   0   2   464482.16  779.42   1 0.50635-0.50096 0.66350-0.43658-0.55077 0.74728
   0  -2  -5154858.6 1783.91   1-0.10055 0.09358 0.60858-0.83538-0.78709 0.54164
   0   2  -5138232.5 1684.06   1 0.45754-0.46449-0.52001 0.74683-0.72127 0.47590
   0  -2  -5156275.9 1828.38   1 0.27534-0.28230-0.81197 0.58496 0.51466-0.76034
   0  -2   5150641.3 1718.28   1-0.31270 0.31929-0.80340 0.57634-0.50670 0.75224
   0   2   5137487.3 1633.76   1 0.72541-0.71903-0.38846 0.61556 0.56821-0.32259
   0  -2   5160948.9 1892.76   1 0.83707-0.83034 0.28432-0.51121 0.46739-0.22176
   0   2   5142265.5 1611.64   1 0.63546-0.62871 0.66049-0.43356-0.39992 0.64555
   0  -2  -619711.08  790.74   1-0.13953 0.13117 0.65954-0.88633-0.73860 0.44406
   0  -2  -621330.37  883.21   1 0.32310-0.33142-0.85204 0.62510 0.41184-0.70668
   0  -2   619056.50  758.46   1-0.21330 0.22121-0.87534 0.64827-0.43391 0.72855
   0  -2   620501.65  822.89   1 0.53373-0.52589 0.54888-0.77573 0.64332-0.34880
   0  -2   621380.41  901.92   1 0.84340-0.83532 0.30214-0.52903 0.44427-0.14952
   0  -2  -621010.81  826.61   1 0.29481-0.30300 0.62415-0.85108-0.72353 0.42876
   0   2  -7304240.7 8317.37   1 0.47531-0.48504-0.59182 0.81864-0.65101 0.30749
   0  -2  -7281482.3 7668.84   1 0.35991-0.36962-0.87607 0.64913 0.32085-0.66483
   0  -2   7241626.5 5522.23   1-0.11944 0.12877-0.92512 0.69812-0.36039 0.70429
   0  -2  -7245310.2 5642.15   1 0.52699-0.53631-0.80569 0.57871 0.27043-0.61437
   0  -2   7278200.2 7557.25   1 0.50210-0.49296 0.59580-0.82265 0.62682-0.28322
   0  -2   7269489.7 6191.78   1 0.84686-0.83743 0.31279-0.53968 0.43008-0.08621
   0   2   7290274.0 7871.22   1 0.76458-0.75521 0.61836-0.39136-0.18175 0.52581
   0  -2  -7248243.1 5658.36   1 0.35822-0.36776 0.64034-0.86727-0.67944 0.33553
   0   2  -869821.95 1762.78   1 0.47960-0.49072-0.61180 0.83862-0.62902 0.23643
   0  -2  -882792.81 2015.82   1 0.38850-0.39959-0.88955 0.66260 0.24034-0.63346
   0   2  -877998.46 1853.97   1-0.47772 0.46700-0.62936 0.85652-0.61292 0.21970
   0  -2   864534.65 1549.58   1-0.03378 0.04444-0.95662 0.72962-0.28936 0.68239
   0  -2  -874158.75 1807.96   1 0.48081-0.49145-0.84991 0.62294 0.21554-0.60861
   0  -2   869946.94 1728.93   1 0.84855-0.83778 0.31830-0.54519 0.42264-0.02964
   0   2   878588.86 1862.79   1 0.79793-0.78734 0.59400-0.36712-0.10222 0.49528
   0  -2  -870074.25 1660.06   1 0.39898-0.40988 0.64887-0.87580-0.64790 0.25487
   0   2  -910229.01  838.42   1 0.48225-0.49476-0.62497 0.85179-0.61387 0.17220
   0  -2  -913264.92  961.70   1 0.41070-0.42313-0.89596 0.66902 0.16902-0.61103
   0   2  -9 9242.73  677.25   1-0.45945 0.44740-0.65275 0.87990-0.60234 0.15996
   0  -2   911452.37  795.23   1 0.04407-0.03207-0.97410 0.74710-0.22176 0.66392
   0  -2  -913442.80  960.94   1 0.43489-0.44687-0.88555 0.65858 0.16324-0.60545
   0  -2   913497.09  962.22   1 0.84905-0.83693 0.31997-0.54686 0.42037 0.02174
   0   2   9 9214.90  668.80   1 0.82101-0.80909 0.56983-0.34295-0.03504 0.47722
   0  -2  -911135.74  761.53   1 0.42467-0.43695 0.65343-0.88036-0.62663 0.18447
   0   2 -10  472.25  343.82   1 0.48380-0.49770-0.63305 0.85987-0.60428 0.11354
   0  -2 -10  924.14  284.10   1 0.42882-0.44263-0.89733 0.67039 0.10439-0.59551
   0   2 -10  481.45  101.82   1-0.44703 0.43364-0.66796 0.89512-0.59495 0.10342
   0  -2 -10  -95.89  200.43   1 0.38847-0.40184-0.91444 0.68762 0.11347-0.60471
   0   2  10  738.31  205.39   1 0.83727-0.82403 0.54627-0.31939 0.02339 0.46791
   0   2 -11 2426.28  403.61   1 0.48458-0.49987-0.63723 0.86405-0.59925 0.05943
   0  -2 -11 3075.50  487.41   1 0.44353-0.45872-0.89509 0.66816 0.04554-0.58577
   0   2 -11 2431.23  425.83   1-0.43975 0.42502-0.67664 0.90380-0.59056 0.04987
   0  -2 -11 3016.22  429.07   1 0.34373-0.35844-0.93675 0.70993 0.06585-0.60622
   0  -2  11 2831.12  441.38   1 0.84756-0.83274 0.31503-0.54193 0.42706 0.11330
   0   2  11 3844.00  500.22   1 0.84880-0.83423 0.52329-0.29641 0.07548 0.46495
   0   2 -12 7732.42  574.47   1 0.48478-0.50146-0.63830 0.86513-0.59794 0.00905
   0  -2 -12 4625.65  431.52   1 0.45559-0.47216-0.89014 0.66320-0.00864-0.58070
   0   2 -12 6702.21  609.41   1-0.43692 0.42086-0.67996 0.90712-0.58884-0.00099
   0  -2 -12 5394.35  492.59   1 0.29962-0.31567-0.95384 0.72702 0.02024-0.60974
   0   2  12 7743.45  525.46   1 0.85692-0.84106 0.50058-0.27367 0.12285 0.46659
   0  -2 -13137362.3 9539.45   1 0.46563-0.48337-0.88300 0.65588-0.05902-0.57980
   0   2 -13119210.4 4913.56   1-0.43796 0.42055-0.67875 0.90591-0.58947-0.04951
   0  -2 -13134109.2 5567.36   1 0.25609-0.27348-0.96636 0.73954-0.02357-0.61504
   0  -2  13137497.7 9542.50   1 0.84344-0.82593 0.30225-0.52915 0.44412 0.19450
   0   2  13130804.1 5396.56   1 0.86222-0.84503 0.47833-0.25142 0.16665 0.47191
   0  -2 -1421232.43 1607.71   1 0.47384-0.49293-0.87417 0.64705-0.10629-0.58166
   0   2 -1420584.73 1485.32   1-0.44233 0.42358-0.67359 0.90075-0.59212-0.09601
   0  -2 -1420466.84 1531.90   1 0.21264-0.23137-0.97491 0.74784-0.06577-0.62224
   0  -2  1418056.94 1353.01   1 0.84047-0.82161 0.29364-0.52054 0.45539 0.23235
   0   2  1424161.06 1759.91   1 0.86528-0.84677 0.45621-0.22931 0.20771 0.47998
   0   2 -1515914.42 1169.46   1 0.48282-0.50367-0.62788 0.85470-0.61044-0.12566
   0  -2 -1510332.02 1741.33   1 0.48058-0.50104-0.86385 0.63673-0.15099-0.58611
   0   2 -1515516.38  976.72   1-0.44961 0.42953-0.66484 0.89200-0.59650-0.14079
   0  -2 -15 8788.77 1088.74   1 0.17000-0.19007-0.97964 0.75258-0.10670-0.63046
   0  -2  15 8747.70 1094.58   1 0.83687-0.81667 0.28378-0.51068 0.46808 0.26879
   0   2  1515092.69 1005.56   1 0.86645-0.84662 0.43410-0.20719 0.24660 0.49020
   0   2 -16 3136.08  688.64   1 0.48144-0.50368-0.62086 0.84768-0.61865-0.16652
   0  -2 -16 2965.75  707.64   1 0.48607-0.50789-0.85221 0.62509-0.19354-0.59270
   0   2 -16 2643.79  516.36   1-0.45946 0.43803-0.65274 0.87990-0.60234-0.18410
   0  -2 -16 3259.77  654.71   1 0.12763-0.14904-0.98095 0.75388-0.14643-0.63987
   0  -2  16 3257.08  643.66   1 0.83264-0.81109 0.27279-0.49969 0.48196 0.30403
   0   2  16 4052.48  740.37   1 0.86592-0.84477 0.41187-0.18496 0.28379 0.50214
   0   2 -17 1952.75  740.69   1 0.47972-0.50335-0.61237 0.83919-0.62838-0.20588
   0  -2 -17  286.41  342.28   1 0.49046-0.51364-0.83937 0.61225-0.23429-0.60108
   0   2 -17  152.59  179.91   1-0.47158 0.44882-0.63736 0.86451-0.60941-0.22619
   0  -2 -17  553.70  339.48   1 0.08541-0.10815-0.97899 0.75192-0.18514-0.65031
   0  -2  17  995.13  355.71   1 0.82773-0.80483 0.26076-0.48766 0.49685 0.33827
   0   2  17  677.39  392.00   1 0.86383-0.84136 0.38941-0.16251 0.31959 0.51546
   0   2 -1816254.73 1944.43   1 0.47765-0.50267-0.60252 0.82934-0.63938-0.24395
   0  -2 -1817795.43 2137.60   1 0.49385-0.51841-0.82539 0.59827-0.27353-0.61099
   0  -2 -1812076.49 2370.73   1 0.04290-0.06689-0.97392 0.74692-0.22279-0.66153
   0  -2  1816782.22 2003.23   1 0.82210-0.79786 0.24775-0.47465 0.51259 0.37164
   0   2  1817046.35 1971.24   1 0.86041-0.83617 0.36666-0.13977 0.35388 0.53035
   0  -3   0  174.26  120.69   1 0.33389-0.33389-0.17006-0.17006-0.92714 0.92714
   0   3   0  252.59  127.86   1 0.69927-0.69927 0.16999 0.16999 0.69434-0.69434
   0  -3   0  618.49  192.29   1 0.49483-0.49483-0.17004-0.17004 0.85218-0.85218
   0   3   0  410.02  137.94   1 0.78269-0.78269 0.17024 0.17024 0.59866-0.59866
   0   3  -194875.77 1197.09   1 0.24110-0.24248 0.03463 0.30553-0.96988 0.92078
   0  -3  -187744.61 1095.56   1 0.27473-0.27611-0.03608-0.30409-0.96084 0.91174
   0  -3   185020.24 1072.84   1 0.38473-0.38331-0.29791-0.04221-0.87362 0.92265
   0  -3   190404.75 1172.45   1 0.74113-0.73988-0.07463-0.26544 0.66719-0.61814
   0   3  -185432.65 1066.27   1 0.66632-0.66759 0.27595 0.06403 0.69271-0.74176
   0  -3  -189554.84 1062.46   1 0.33074-0.33205-0.30377-0.03632 0.89349-0.94256
   0  -3   187997.57 1076.72   1 0.61031-0.60893-0.05711-0.28308 0.79009-0.74098
   0   3  -191898.42 1105.00   1 0.82331-0.82466 0.25049 0.08984 0.50931-0.55844
   0  -3  -240509.07 1560.15   1 0.21122-0.21398 0.09481-0.43498-0.97282 0.87463
   0   3  -253269.57 1307.51   1 0.29798-0.30082-0.08731 0.42744-0.95056 0.85252
   0  -3   238250.86 1482.88   1 0.42517-0.42239-0.41295 0.07280-0.80541 0.90348
   0  -3   242886.39 1673.56   1 0.73051-0.72802 0.01806-0.35815 0.68265-0.58455
   0   3  -247992.14 1841.12   1 0.62202-0.62456 0.38543-0.04545 0.68155-0.77964
   0  -3  -243239.56 1663.19   1 0.11968-0.12233-0.44190 0.10124 0.88904-0.98731
   0   3   252103.68 1444.67   1 0.61971-0.61696-0.04692 0.38712 0.78342-0.68519
   0  -3   244608.95 1725.39   1 0.68653-0.68377 0.03101-0.37121 0.72643-0.62821
   0   3  -250716.57 1426.03   1 0.84741-0.85010 0.31454 0.02579 0.42773-0.52598
   0  -3  -388407.76 2119.78   1 0.71337-0.71719-0.44459 0.10394 0.54170-0.68907
   0  -3   388976.47 2112.77   1 0.71453-0.71079 0.10522-0.44530 0.69164-0.54449
   0   3  -3113984.9 2646.36   1 0.56707-0.57099 0.49382-0.15354 0.65920-0.80646
   0  -3  -387700.27 2036.49   1-0.11057 0.10639-0.55746 0.21696 0.82280-0.97036
   0   3   3118124.2 2707.25   1 0.49130-0.48735-0.17322 0.51332 0.85358-0.70638
   0  -3   392646.05 2179.99   1 0.73586-0.73165 0.09711-0.43760 0.67012-0.52266
   0   3   4251243.0 5742.38   1-0.13747 0.14305 0.65693-0.31674-0.74130 0.93766
   0  -3  -4239689.4 5481.48   1 0.09042-0.09586 0.31694-0.65716-0.94412 0.74762
   0  -3  -4257518.0 5922.23   1 0.69017-0.69527-0.52478 0.18414 0.49825-0.69475
   0  -3   4257089.5 5891.41   1 0.69528-0.69021 0.18457-0.52455 0.69462-0.49844
   0   3   4234105.1 5323.42   1 0.34506-0.33985-0.29313 0.63324 0.89162-0.69534
   0   3   4256486.8 5830.33   1 0.31828-0.31282 0.63054-0.29014-0.70789 0.90440
   0   3  -533580.23 1369.59   1 0.40189-0.40885-0.34472 0.68487-0.84831 0.60314
   0  -3  -533920.51 1349.36   1 0.19802-0.20497-0.73273 0.39221 0.65106-0.89674
   0  -3   529638.14 1153.63   1-0.42926 0.43596-0.68883 0.34809-0.58415 0.82991
   0  -3  -537394.43 1517.49   1 0.66204-0.66859-0.59778 0.25717 0.45204-0.69774
   0  -3   535305.89 1399.63   1 0.67376-0.66741 0.25447-0.59446 0.69374-0.44851
   0   3   531038.59 1192.24   1 0.20088-0.19436-0.39267 0.73277 0.89747-0.65211
   0  -3   539282.47 1563.51   1 0.78890-0.78189 0.18109-0.52158 0.58721-0.34144
   0   3   531687.82 1220.49   1 0.48574-0.47892 0.66150-0.32110-0.57137 0.81702
   0   3  -618468.60  819.00   1 0.42016-0.42851-0.39774 0.73789-0.81563 0.52143
   0  -3  -614033.19  666.24   1 0.25141-0.25975-0.78922 0.44870 0.56028-0.85509
   0  -3  -613568.66  634.10   1 0.63006-0.63792-0.66278 0.32217 0.40463-0.69946
   0  -3   613852.32  641.76   1 0.65203-0.64441 0.31436-0.65434 0.68995-0.39567
   0   3   616803.54  670.91   1 0.07607-0.06810-0.46645 0.80711 0.88127-0.58645
   0  -3   612805.72  589.96   1 0.80264-0.79423 0.20646-0.54695 0.55958-0.26465
   0   3   618361.56  752.40   1 0.60561-0.59751 0.66368-0.32329-0.43903 0.73379
   0   3  -7 8306.03  418.59   1 0.43339-0.44313-0.43861 0.77876-0.78726 0.44402
   0  -3  -7 6394.57  415.23   1 0.29589-0.30563-0.83004 0.48953 0.47271-0.81666
   0  -3  -7 6053.18  381.86   1 0.59512-0.60429-0.72020 0.37958 0.35655-0.70052
   0  -3   7 6656.17  391.77   1 0.63145-0.62257 0.36427-0.70426 0.68451-0.34119
   0   3   7 8114.77  306.50   1-0.02486 0.03415-0.51831 0.85897 0.85483-0.51088
   0  -3   7 6433.51  358.07   1 0.81162-0.80180 0.22427-0.56476 0.53941-0.19533
   0   3   7 8645.58  385.90   1 0.68867-0.67930 0.64996-0.30947-0.32135 0.66541
   0   3  -822973.48 1611.17   1 0.44293-0.45406-0.46973 0.80987-0.76365 0.37137
   0  -3  -814646.69 1071.21   1 0.33236-0.34345-0.85869 0.51827 0.39009-0.78321
   0  -3  -813703.39 1012.14   1 0.55758-0.56822-0.77072 0.43026 0.30834-0.70141
   0  -3   813874.66  981.25   1 0.61371-0.60327 0.40444-0.74472 0.67806-0.28537
   0   3   818170.75 1244.40   1-0.10200 0.11314-0.55382 0.89432 0.82635-0.43286
   0  -3   814807.57 1063.45   1 0.81686-0.80609 0.23625-0.57659 0.52621-0.13322
   0   3   822474.02 1502.77   1 0.74578-0.73507 0.62864-0.28814-0.22050 0.61371
   0   3  -934119.62 1260.29   1 0.44975-0.46227-0.49306 0.83320-0.74472 0.30341
   0  -3  -943051.51 1522.30   1 0.36285-0.37533-0.87769 0.53727 0.31302-0.75528
   0  -3  -938964.79 1397.44   1 0.51880-0.53078-0.81423 0.47376 0.26051-0.70271
   0  -3   938864.34 1351.04   1 0.59808-0.58633 0.43630-0.77658 0.67226-0.23048
   0  -3   941181.15 1484.82   1 0.82031-0.80818 0.24375-0.58409 0.51737-0.07524
   0   3   931230.18 1076.09   1 0.78534-0.77342 0.60436-0.26404-0.13409 0.57627
   0   3 -1058192.24 2060.07   1 0.45456-0.46847-0.51016 0.85030-0.73014 0.23980
   0  -3 -1061295.98 2114.73   1 0.38815-0.40202-0.88941 0.54900 0.24138-0.73278
   0  -3 -1055291.51 1917.02   1 0.47888-0.49218-0.85157 0.51111 0.21330-0.70464
   0  -3  1057506.36 1925.41   1 0.58551-0.57245 0.46046-0.80074 0.66719-0.17633
   0  -3  1060312.21 2091.44   1 0.82205-0.80858 0.24764-0.58798 0.51273-0.02148
   0   3  1051750.23 1721.46   1 0.81326-0.80002 0.57887-0.23855-0.05918 0.55050
   0   3 -1119948.42 1184.35   1 0.45811-0.47340-0.52211 0.86234-0.71939 0.17957
   0  -3 -1116435.33  957.06   1 0.40884-0.42403-0.89561 0.55520 0.17526-0.71549
   0  -3 -1115807.18  919.04   1 0.43814-0.45277-0.88328 0.54281 0.16687-0.70734
   0  -3  1115689.67  880.50   1 0.57609-0.56173 0.47780-0.81808 0.66319-0.12324
   0  -3  1116386.17 1024.92   1 0.82248-0.80766 0.24859-0.58893 0.51159 0.02878
   0   3  1119241.81 1043.34   1 0.83300-0.81844 0.55322-0.21289 0.00675 0.53369
   0   3 -12 4011.97  596.43   1 0.46022-0.47690-0.53002 0.87025-0.71222 0.12333
   0  -3 -12 6300.60  873.58   1 0.42649-0.44306-0.89738 0.55698 0.11312-0.70246
   0  -3 -12 5494.08  770.95   1 0.39581-0.41187-0.91026 0.57003 0.12143-0.71092
   0  -3  12 5273.48  672.00   1 0.56977-0.55410 0.48909-0.82937 0.66041-0.07138
   0  -3  12 4324.49  707.52   1 0.82182-0.80566 0.24712-0.58746 0.51335 0.07614
   0   3  12 4301.94  548.92   1 0.84687-0.83098 0.52771-0.18738 0.06579 0.52378
   0   3 -13 8041.21  871.45   1 0.46140-0.47947-0.53451 0.87474-0.70809 0.07012
   0  -3 -13 9028.65  869.02   1 0.44130-0.45925-0.89567 0.55526 0.05491-0.69336
   0  -3 -13 7703.24  668.54   1 0.35408-0.37147-0.93206 0.59183 0.07674-0.71536
   0  -3  13 8563.47  695.70   1 0.56641-0.54944 0.49498-0.83527 0.65890-0.02079
   0  -3  13 9297.09  848.38   1 0.82023-0.80272 0.24358-0.58392 0.51756 0.12105
   0   3  13 7297.96  594.90   1 0.85643-0.83924 0.50224-0.16188 0.11947 0.51909
   0   3 -14 3577.03  574.91   1 0.46182-0.48128-0.53611 0.87634-0.70661 0.01957
   0  -3 -14 3607.81  554.77   1 0.45374-0.47307-0.89113 0.55072 0.00011-0.68767
   0  -3 -14 4159.09  618.21   1 0.31202-0.33075-0.94950 0.60927 0.03294-0.72068
   0  -3  14 4633.71  643.03   1 0.56583-0.54756 0.49599-0.83627 0.65864 0.02855
   0  -3  14 4085.15  649.80   1 0.81781-0.79895 0.23828-0.57862 0.52383 0.16390
   0   3  14 3819.28  507.94   1 0.86244-0.84393 0.47711-0.13676 0.16897 0.51872
   0   3 -1517106.64 1541.66   1 0.46159-0.48244-0.53522 0.87545-0.70743-0.02867
   0  -3 -1512811.50 1177.74   1 0.46429-0.48475-0.88416 0.54348-0.05180-0.68530
   0  -3 -1511541.75 1086.85   1 0.26969-0.28976-0.96289 0.62266-0.01000-0.72686
   0  -3  1511805.51 1009.06   1 0.56783-0.54825 0.49249-0.83278 0.65954 0.07674
   0  -3  1513352.00 1222.67   1 0.81505-0.79401 0.23139-0.57188 0.53117 0.20613
   0   3  1517943.44 1503.87   1 0.86564-0.84581 0.45206-0.11171 0.21516 0.52165
   0   3 -1610650.27 1052.60   1 0.46078-0.48302-0.53216 0.87239-0.71026-0.07492
   0  -3 -1610511.01 1068.17   1 0.47299-0.49481-0.87524 0.53456-0.10112-0.68512
   0  -3 -1612424.00 1176.94   1 0.22666-0.24807-0.97257 0.63197-0.05210-0.73421
   0  -3  1611829.03 1033.21   1 0.57221-0.55133 0.48475-0.82503 0.66149 0.12387
   0   3  1610853.68  981.63   1 0.86645-0.84530 0.42698-0.08662 0.25872 0.52721
   0  -3 -1713408.70 1200.26   1 0.48019-0.50338-0.86454 0.52386-0.14824-0.68714
   0  -3 -1713970.90 1135.05   1 0.18380-0.20655-0.97849 0.63789-0.09355-0.74190
   0  -3  1711844.40  984.96   1 0.80632-0.78247 0.21362-0.55410 0.55155 0.28406
   0   3  17 8924.97  740.88   1 0.86516-0.84269 0.40173-0.06137 0.30016 0.53488
   0   4   090065.84 2570.98   1 0.14157-0.14157 0.22681 0.22681-0.96359 0.96359
   0  -4   095050.19 2628.41   1 0.42921-0.42921-0.22673-0.22673 0.87427-0.87427
   0   4   085516.38 2364.40   1 0.81294-0.81294 0.22699 0.22699 0.53628-0.53628
   0   4   119263.73  642.68   1 0.08214-0.08078 0.33102 0.12259-0.94003 0.98916
   0   4  -120444.02  687.14   1 0.19591-0.19729 0.12475 0.32880-0.97265 0.92355
   0  -4  -114550.47  591.62   1 0.73891-0.74021-0.29700-0.15663 0.60480-0.65387
   0  -4   114004.25  568.95   1 0.74483-0.74354-0.15720-0.29643 0.64846-0.59939
   0  -4  -114220.67  466.29   1 0.29824-0.29955-0.32727-0.12619 0.89662-0.94569
   0  -4   114338.46  478.75   1 0.53026-0.52894-0.13732-0.31614 0.83663-0.78757
   0   4   119284.27  589.88   1 0.77751-0.77611 0.16144 0.29253 0.60778-0.55862
   0   4  -118519.05  593.63   1 0.83652-0.83786 0.28284 0.17094 0.46928-0.51841
   0   4   2  654.03  247.64   1 0.01994-0.01718 0.43261 0.02101-0.90135 0.99963
   0   4  -2 1163.50  309.69   1 0.24382-0.24658 0.02905 0.42451-0.96938 0.87119
   0  -4  -2 1944.98  336.82   1 0.72921-0.73176-0.36678-0.08740 0.57767-0.67592
   0  -4   2 1998.22  260.45   1 0.74223-0.73973-0.08958-0.36386 0.66412-0.56603
   0  -4  -2 2164.16  260.00   1 0.13760-0.14025-0.43144-0.02276 0.89158-0.98985
   0  -4   2 1784.67  204.49   1 0.60575-0.60299-0.06198-0.39160 0.79323-0.69501
   0   4   2  388.60   71.22   1 0.72788-0.72508 0.08582 0.36815 0.68030-0.58199
   0   4   320323.55  835.77   1-0.04221 0.04635 0.52699-0.07337-0.84881 0.99622
   0   4  -318534.38  670.08   1 0.28456-0.28870-0.05742 0.51099-0.95693 0.80965
   0  -4  -320507.45  737.13   1 0.71578-0.71961-0.43444-0.01974 0.54671-0.69409
   0  -4   320039.18  697.29   1 0.73628-0.73253-0.02510-0.42834 0.67620-0.52906
   0  -4  -321087.09  650.53   1-0.04169 0.03771-0.52629 0.07208 0.84927-0.99668
   0   4   319232.84  578.36   1 0.66212-0.65799 0.00129 0.45230 0.74939-0.60205
   0  -4   320080.74  665.51   1 0.66035-0.65622-0.00080-0.45279 0.75095-0.60361
   0   4   4 3143.71  423.29   1-0.10202 0.10760 0.61056-0.15697-0.78536 0.98172
   0   4  -4 3318.56  357.54   1 0.31798-0.32365-0.13275 0.58625-0.93875 0.74266
   0  -4  -4 3229.43  452.93   1 0.69835-0.70345-0.49932 0.04513 0.51280-0.70930
   0  -4   4 2492.08  357.51   1 0.72784-0.72285 0.03512-0.48857 0.68483-0.48864
   0  -4  -4 3009.24  423.31   1-0.22192 0.21635-0.60001 0.14601 0.76858-0.96533
   0   4   4 2992.49  233.26   1 0.58060-0.57509-0.08822 0.54181 0.80939-0.61294
   0  -4   4 3597.38  330.77   1 0.69975-0.69423 0.04783-0.50142 0.71278-0.51633
   0   4   556919.91 1984.01   1-0.15759 0.16456 0.68208-0.22849-0.71409 0.95953
   0   4  -556802.50 2024.30   1 0.34527-0.35235-0.19745 0.65095-0.91749 0.67238
   0  -4  -571438.83 2522.52   1 0.67722-0.68359-0.56070 0.10651 0.47642-0.72204
   0  -4   568601.39 2411.67   1 0.71770-0.71145 0.09022-0.54367 0.69048-0.44523
   0   4   547086.48 1614.29   1 0.48762-0.48105-0.17651 0.62997 0.85502-0.60968
   0  -4   573176.14 2547.32   1 0.72795-0.72094 0.08592-0.53990 0.68022-0.43444
   0   4   555070.59 1888.83   1 0.38225-0.37543 0.64555-0.19169-0.66116 0.90680
   0   4  -638816.16 1476.78   1 0.36704-0.37553-0.25171 0.70521-0.89550 0.60137
   0  -4  -633172.30 1258.22   1 0.20575-0.21410-0.74136 0.28734 0.63877-0.93359
   0  -4  -635781.95 1404.68   1 0.65270-0.66056-0.61833 0.16418 0.43776-0.73259
   0  -4   633155.74 1256.34   1 0.70661-0.69912 0.13959-0.59304 0.69369-0.39940
   0   4   634286.98 1193.14   1 0.39037-0.38249-0.25816 0.71162 0.88371-0.58931
   0  -4   636100.96 1355.18   1 0.74834-0.73992 0.11535-0.56933 0.65320-0.35828
   0   4   637953.68 1324.86   1 0.51694-0.50885 0.66420-0.21034-0.54000 0.83475
   0   4  -737333.58 1346.77   1 0.38420-0.39411-0.29650 0.75000-0.87433 0.53118
   0  -4  -731174.93 1128.81   1 0.25056-0.26030-0.78839 0.33436 0.56183-0.90578
   0  -4  -731056.85 1185.08   1 0.62527-0.63444-0.67137 0.21722 0.39784-0.74181
   0  -4   731995.74 1170.64   1 0.69574-0.68686 0.18294-0.63625 0.69460-0.35127
   0   4   732882.22 1092.46   1 0.29679-0.28767-0.32830 0.78177 0.89673-0.55324
   0  -4   732949.95 1195.14   1 0.76293-0.75311 0.13773-0.59171 0.63163-0.28755
   0   4   736061.71 1216.47   1 0.62075-0.61131 0.66228-0.20843-0.41956 0.76344
   0   4  -820008.88 2099.91   1 0.39773-0.40887-0.33311 0.78664-0.85489 0.46262
   0  -4  -828582.57 1071.15   1 0.28975-0.30087-0.82479 0.37077 0.48555-0.87863
   0  -4  -825909.32 1021.88   1 0.59531-0.60579-0.71992 0.26577 0.35680-0.74992
   0  -4   826634.54  998.62   1 0.68487-0.67472 0.22001-0.67332 0.69464-0.30227
   0   4   818980.43 2043.43   1 0.21212-0.20169-0.38548 0.83895 0.89799-0.50543
   0  -4   827345.50 1042.25   1 0.77326-0.76204 0.15438-0.60836 0.61499-0.22176
   0   4   821347.35 2195.65   1 0.69703-0.68633 0.64758-0.19359-0.30784 0.70105
   0   4  -937683.97 1995.52   1 0.40812-0.42064-0.36241 0.81594-0.83790 0.39660
   0  -4  -941051.70 2139.03   1 0.32333-0.33581-0.85222 0.39833 0.41129-0.85355
   0  -4  -936438.44 1914.66   1 0.56319-0.57497-0.76392 0.30977 0.31500-0.75725
   0  -4   936521.97 1890.51   1 0.67494-0.66352 0.25095-0.70427 0.69388-0.25246
   0   4   928016.43 1451.60   1 0.14072-0.12878-0.42959 0.88381 0.89198-0.44976
   0  -4   938432.30 2031.82   1 0.78041-0.76778 0.16633-0.62031 0.60273-0.16034
   0   4   935016.58 1773.86   1 0.75199-0.73994 0.62546-0.17147-0.20808 0.65044
   0   4 -1019670.10 2284.88   1 0.41607-0.42999-0.38557 0.83909-0.82353 0.33319
   0  -4 -1022159.75 1073.90   1 0.35264-0.36651-0.87186 0.41797 0.33984-0.83124
   0  -4 -1021283.11 1606.16   1 0.52884-0.54214-0.80372 0.34977 0.27268-0.76402
   0  -4  1021309.87 1575.48   1 0.66632-0.65363 0.27597-0.72928 0.69271-0.20225
   0  -4  1023541.36 1155.40   1 0.78510-0.77107 0.17441-0.62839 0.59429-0.10275
   0   4  1020645.89 1481.94   1 0.79106-0.77782 0.59985-0.14608-0.11994 0.61126
   0   4 -1118683.04 1237.19   1 0.42207-0.43737-0.40348 0.85701-0.81182 0.27244
   0  -4 -1118800.15 1226.87   1 0.37784-0.39309-0.88515 0.43126 0.27155-0.81208
   0  -4 -1116854.90 1112.74   1 0.49329-0.50793-0.83886 0.38491 0.23013-0.77061
   0  -4  1117775.74 1093.50   1 0.65927-0.64531 0.29533-0.74864 0.69147-0.15196
   0  -4  1118975.74 1234.75   1 0.78786-0.77243 0.17925-0.63323 0.58917-0.04848
   0   4  1118895.43 1128.03   1 0.81892-0.80436 0.57237-0.11861-0.04172 0.58217
   0   4 -12 8365.24  969.70   1 0.42647-0.44317-0.41692 0.87045-0.80268 0.21427
   0  -4 -12 8380.87 1031.26   1 0.39948-0.41612-0.89318 0.43929 0.20647-0.79615
   0  -4 -12 6246.70  808.21   1 0.45643-0.47240-0.86977 0.41582 0.18752-0.77712
   0  -4  12 6698.05  775.83   1 0.65397-0.63874 0.30933-0.76264 0.69038-0.10182
   0  -4  12 8105.12  994.35   1 0.78905-0.77222 0.18136-0.63534 0.58693 0.00290
   0   4  1210067.07 1079.33   1 0.83844-0.82255 0.54425-0.09049 0.02814 0.56143
   0   4 -1317642.93 1246.20   1 0.42956-0.44765-0.42651 0.88004-0.79596 0.15852
   0  -4 -1328095.47 1786.31   1 0.41766-0.43561-0.89694 0.44307 0.14508-0.78353
   0  -4 -1325117.59 1595.57   1 0.41843-0.43573-0.89660 0.44265 0.14496-0.78370
   0  -4  1324443.56 1493.58   1 0.65050-0.63400 0.31826-0.77157 0.68960-0.05200
   0  -4  1324264.01 1570.43   1 0.78892-0.77068 0.18112-0.63510 0.58719 0.05180
   0   4 -1429238.47 2451.53   1 0.43155-0.45103-0.43277 0.88630-0.79149 0.10502
   0  -4 -1425086.53 2137.63   1 0.43358-0.45291-0.89699 0.44311 0.08606-0.77363
   0  -4 -1421635.41 1845.70   1 0.37848-0.39721-0.91988 0.46625 0.10272-0.79046
   0  -4  1424650.27 2036.35   1 0.64888-0.63112 0.32236-0.77568 0.68922-0.00257
   0  -4  1426563.43 2238.75   1 0.78763-0.76799 0.17884-0.63282 0.58961 0.09854
   0   4  1428405.46 2303.67   1 0.86033-0.84182 0.48747-0.03365 0.14899 0.53869
   0   4 -1530527.48 2678.00   1 0.43261-0.45348-0.43612 0.88965-0.78907 0.05356
   0  -4 -1528314.70 2405.26   1 0.44719-0.46791-0.89394 0.44006 0.02974-0.76642
   0  -4 -1526142.00 2255.89   1 0.33861-0.35868-0.93897 0.48533 0.06050-0.79736
   0  -4  1524581.83 2063.32   1 0.64909-0.63005 0.32184-0.77515 0.68927 0.04642
   0  -4  1528344.52 2431.14   1 0.78531-0.76427 0.17477-0.62875 0.59392 0.14339
   0   4 -16 3801.66  728.45   1 0.43285-0.45512-0.43689 0.89041-0.78851 0.00397
   0  -4 -16 5120.41  797.76   1 0.45878-0.48087-0.88822 0.43434-0.02414-0.76164
   0  -4 -16 3770.94  541.19   1 0.29793-0.31934-0.95440 0.50076 0.01853-0.80451
   0  -4  16 4475.51  678.41   1 0.78202-0.75958 0.16908-0.62307 0.59987 0.18659
   0   5   0  150.92  161.66   1 0.10974-0.10974 0.28351 0.28351-0.95266 0.95266
   0  -5   0  589.44  566.58   1 0.74020-0.74020-0.28352-0.28352 0.60968-0.60968
   0  -5   0  189.59  132.80   1 0.35794-0.35794-0.28341-0.28341 0.88968-0.88968
   0   5   1 4408.78  685.83   1 0.06128-0.05992 0.36594 0.20108-0.92861 0.97773
   0   5  -1 4246.86  578.23   1 0.15500-0.15636 0.20224 0.36478-0.96699 0.91786
   0  -5   1 5732.49  413.66   1 0.74379-0.74250-0.22962-0.33741 0.62772-0.57865
   0  -5  -1 6420.53  728.04   1 0.24505-0.24635-0.36390-0.20293 0.89862-0.94769
   0  -5   1 5549.84  367.66   1 0.44993-0.44862-0.20934-0.35748 0.86817-0.81910
   0   5   1 3080.54  194.63   1 0.81789-0.81654 0.23845 0.32877 0.52363-0.47451
   0   5   2133487.0 4319.24   1 0.01076-0.00800 0.44700 0.12002-0.89446 0.99273
   0   5  -2121127.0 3943.45   1 0.19604-0.19881 0.12449 0.44246-0.97265 0.87447
   0  -5  -2110242.9 3629.50   1 0.72444-0.72699-0.39356-0.17417 0.56593-0.66418
   0  -5   2113262.6 3710.45   1 0.74497-0.74238-0.17731-0.38972 0.64309-0.54495
   0  -5  -2111466.4 3581.58   1 0.11157-0.11422-0.44657-0.12119 0.88776-0.98603
   0  -5   2110304.3 3561.17   1 0.52310-0.52047-0.14406-0.42277 0.84000-0.74186
   0   5   2108029.4 3455.21   1 0.79268-0.78987 0.18787 0.37960 0.57996-0.48165
   0   5   3129143.3 4187.05   1-0.04025 0.04439 0.52413 0.04289-0.85068 0.99809
   0   5  -3128491.2 4195.84   1 0.23258-0.23673 0.05203 0.51492-0.97118 0.82389
   0  -5  -3132114.8 6568.81   1 0.71253-0.71635-0.44798-0.11975 0.54000-0.68737
   0  -5   3135815.6 6742.39   1 0.74404-0.74015-0.12727-0.43977 0.65589-0.50869
   0  -5  -3132113.1 6526.50   1-0.03627 0.03229-0.52374-0.04402 0.85110-0.99850
   0  -5   3136629.1 6754.36   1 0.58071-0.57658-0.08811-0.47887 0.80932-0.66198
   0   5   3116031.8 3720.36   1 0.75900-0.75479 0.13158 0.43588 0.63764-0.49018
   0   5   419442.77 2044.74   1-0.09053 0.09610 0.59498-0.02799-0.79862 0.99497
   0   5  -419819.59 2093.67   1 0.26436-0.26989-0.01391 0.58087-0.96432 0.76794
   0  -5  -431885.33 1227.20   1 0.69775-0.70285-0.50127-0.06646 0.51171-0.70822
   0  -5   428358.33 1055.49   1 0.74157-0.73658-0.08031-0.48650 0.66604-0.46985
   0  -5  -429060.23 1046.56   1-0.18941 0.18384-0.58851 0.02101 0.78598-0.98272
   0  -5   429939.71 1076.72   1 0.62480-0.61929-0.04134-0.52565 0.77968-0.58323
   0   5   416092.00 1657.56   1 0.71660-0.71099 0.07031 0.49716 0.69392-0.49731
   0   5   5  742.05  261.62   1-0.13874 0.14571 0.65855-0.09156-0.73963 0.98507
   0   5  -5 1341.30  456.68   1 0.29152-0.29843-0.07274 0.63970-0.95379 0.70832
   0  -5  -5 1505.78  439.61   1 0.68018-0.68655-0.55290-0.01483 0.48130-0.72692
   0  -5   5 1202.49  286.44   1 0.73758-0.73133-0.03664-0.53017 0.67426-0.42902
   0  -5   5 1087.47  366.92   1 0.65863-0.65174-0.00282-0.56416 0.75245-0.50689
   0   5   5  762.70  197.79   1 0.33415-0.32733 0.63460-0.06727-0.69686 0.94251
   0   5   627312.08 1432.03   1-0.18404 0.19240 0.71379-0.14680-0.67573 0.97027
   0   5  -625227.34 1403.35   1 0.31413-0.32262-0.12386 0.69074-0.94126 0.64713
   0  -5  -622112.40 1274.07   1 0.65990-0.66775-0.60264 0.03495 0.44872-0.74355
   0  -5   621388.71 1187.94   1 0.73266-0.72517 0.00318-0.56999 0.68058-0.38629
   0   5   621232.74 1080.89   1 0.60717-0.59890-0.06047 0.62746 0.79226-0.49759
   0  -5   622690.98 1237.91   1 0.68447-0.67620 0.02845-0.59544 0.72847-0.43380
   0   5   624449.93 1241.90   1 0.46729-0.45910 0.65949-0.09217-0.58881 0.88358
   0   5  -7 2390.83  390.22   1 0.33318-0.34309-0.16836 0.73524-0.92770 0.58455
   0  -5  -7 2080.51  384.29   1 0.22383-0.23356-0.76096 0.19344 0.60895-0.95290
   0  -5  -7 3543.28  625.50   1 0.63709-0.64626-0.64970 0.08201 0.41472-0.75869
   0  -5   7 3100.01  470.40   1 0.72723-0.71849 0.03885-0.60566 0.68528-0.34194
   0  -5   7 2918.37  479.42   1 0.70411-0.69446 0.05350-0.62049 0.70807-0.36428
   0   5   7 2598.53  347.42   1 0.57759-0.56815 0.66517-0.09786-0.47320 0.81708
   0   5  -813393.95 1053.63   1 0.34888-0.36020-0.20626 0.77314-0.91418 0.52201
   0  -5  -815144.35 1180.28   1 0.26200-0.27313-0.79950 0.23197 0.54050-0.93358
   0  -5  -813847.91 1136.22   1 0.61194-0.62242-0.69400 0.12631 0.37930-0.77241
   0  -5   814779.83 1107.87   1 0.72166-0.71168 0.07014-0.63696 0.68867-0.29628
   0  -5   814270.62 1127.83   1 0.71874-0.70752 0.07322-0.64070 0.69140-0.29817
   0   5   812836.66  932.93   1 0.66475-0.65395 0.65549-0.08818-0.35836 0.75137
   0   5  -914635.44 1136.25   1 0.36169-0.37443-0.23812 0.80500-0.90137 0.46017
   0  -5  -919411.21 1476.49   1 0.29630-0.30882-0.83039 0.26286 0.47185-0.91407
   0  -5  -918519.82 1445.53   1 0.58464-0.59643-0.73534 0.16766 0.34270-0.78495
   0  -5   919649.74 1445.29   1 0.71630-0.70506 0.09695-0.66376 0.69102-0.24958
   0  -5   920230.42 1508.64   1 0.72975-0.71712 0.08844-0.65591 0.67796-0.23558
   0   5   912550.84  922.32   1 0.73027-0.71822 0.63573-0.06823-0.25009 0.69245
   0   5 -1013350.99  906.41   1 0.37203-0.38619-0.26453 0.83141-0.88972 0.39951
   0  -5 -1011750.97  866.12   1 0.32648-0.34035-0.85452 0.28715 0.40397-0.89537
   0  -5 -1010547.23 1292.33   1 0.55504-0.56834-0.77383 0.20639 0.30514-0.79648
   0  -5  1011264.60  776.05   1 0.71142-0.69893 0.11921-0.68603 0.69257-0.20209
   0  -5  1012023.62  835.12   1 0.73772-0.72369 0.09978-0.66726 0.66768-0.17614
   0   5  1012575.12  728.90   1 0.77815-0.76477 0.60954-0.04204-0.15141 0.64292
   0   5 -1151924.00 8552.99   1 0.38027-0.39584-0.28606 0.85294-0.87952 0.34028
   0  -5 -1148296.46 7945.83   1 0.35356-0.36881-0.87240 0.30504 0.33748-0.87802
   0  -5 -1142793.60 7058.53   1 0.52396-0.53859-0.80889 0.24145 0.26675-0.80722
   0  -5  1144890.25 7377.48   1 0.70725-0.69352 0.13695-0.70377 0.69356-0.15403
   0  -5  1148844.75 8040.32   1 0.74323-0.72780 0.10779-0.67527 0.66028-0.11959
   0   5  1123311.65 1542.67   1 0.81208-0.79751 0.58016-0.01295-0.06270 0.60315
   0   5 -12 8105.85  823.45   1 0.38672-0.40371-0.30325 0.87012-0.87090 0.28265
   0  -5 -1212106.20 1147.25   1 0.37740-0.39404-0.88495 0.31759 0.27279-0.86247
   0  -5 -12 8962.64  912.44   1 0.49125-0.50721-0.84071 0.27328 0.22773-0.81734
   0  -5  12 9143.53  843.90   1 0.70439-0.68916 0.15028-0.71692 0.69371-0.10516
   0  -5  1210063.71 1001.14   1 0.74671-0.72988 0.11293-0.68041 0.65548-0.06563
   0   5 -13 3194.40  812.75   1 0.39176-0.40985-0.31669 0.88360-0.86384 0.22640
   0  -5 -13 5195.31 1126.76   1 0.39832-0.41635-0.89284 0.32548 0.21012-0.84894
   0  -5 -13 2795.32  688.73   1 0.45705-0.47435-0.86929 0.30185 0.18822-0.82696
   0  -5  13 3006.89  650.70   1 0.70214-0.68564 0.15910-0.72574 0.69403-0.05643
   0  -5  13 5224.18 1229.08   1 0.74848-0.73024 0.11556-0.68304 0.65301-0.01400
   0   5 -1422998.17 1728.93   1 0.39536-0.41485-0.32656 0.89347-0.85850 0.17203
   0  -5 -1421815.90 1651.33   1 0.41621-0.43554-0.89678 0.32944 0.15014-0.83771
   0  -5 -1418559.49 1395.04   1 0.42148-0.44011-0.89462 0.32718 0.14833-0.83621
   0  -5  1418549.58 1353.15   1 0.70099-0.68322 0.16352-0.73016 0.69416-0.00752
   0  -5  1420206.38 1549.85   1 0.74876-0.72912 0.11598-0.68346 0.65261 0.03554
   0   6   0 9616.42 1479.48   1 0.07670-0.07670 0.34021 0.34021-0.93721 0.93721
   0  -6   015588.13 1880.15   1 0.73369-0.73369-0.34022-0.34022 0.58816-0.58816
   0  -6   016483.59 2109.03   1 0.27998-0.27998-0.34010-0.34010 0.89774-0.89774
   0   6   167552.17 2862.98   1 0.03553-0.03415 0.40780 0.27262-0.91237 0.96151
   0   6  -162299.20 2650.88   1 0.11557-0.11694 0.27328 0.40715-0.95496 0.90584
   0  -6  -156707.11 2484.39   1 0.72607-0.72734-0.38486-0.29642 0.56982-0.61894
   0  -6   152565.09 2293.02   1 0.73891-0.73762-0.29697-0.38347 0.60481-0.55574
   0  -6  -151766.26 2269.16   1 0.17826-0.17957-0.40684-0.27335 0.89593-0.94500
   0  -6   150958.89 2148.98   1 0.36623-0.36492-0.27708-0.40311 0.88831-0.83924
   0   6   236747.81 2153.06   1-0.00704 0.00979 0.47447 0.20595-0.88023 0.97851
   0   6  -231645.78 2194.39   1 0.15165-0.15437 0.20841 0.47202-0.96621 0.86796
   0  -6  -241598.09 2463.85   1 0.71690-0.71945-0.42959-0.25168 0.54908-0.64733
   0  -6   236743.42 2199.55   1 0.74240-0.73981-0.25514-0.42531 0.61946-0.52132
   0  -6  -237091.21 2125.70   1 0.06098-0.06364-0.47463-0.20668 0.87806-0.97633
   0  -6   235746.14 2083.87   1 0.43766-0.43503-0.21970-0.46049 0.87188-0.77374
   0   6   3 9140.79 1058.73   1-0.05027 0.05440 0.53869 0.14173-0.84099 0.98840
   0   6  -3 9189.31  802.21   1 0.18441-0.18855 0.14687 0.53347-0.97181 0.82452
   0  -6  -3 8099.32  852.29   1 0.70561-0.70943-0.47441-0.20687 0.52634-0.67372
   0  -6   3 7569.84  674.35   1 0.74434-0.74046-0.21514-0.46530 0.63218-0.48497
   0  -6  -3 7768.93  792.57   1-0.06718 0.06320-0.53801-0.14330 0.84025-0.98765
   0  -6   3 7295.88  616.59   1 0.49615-0.49221-0.16885-0.51134 0.85165-0.70445
   0   6   411530.80 1350.28   1-0.09337 0.09894 0.59886 0.08152-0.79539 0.99174
   0   6  -4 9204.10  762.06   1 0.21390-0.21943 0.08950 0.59084-0.97274 0.77636
   0  -6  -4 9045.91  884.51   1 0.69214-0.69724-0.51888-0.16240 0.50169-0.69819
   0  -6   4 9763.35  890.12   1 0.74497-0.73979-0.17738-0.50306 0.64307-0.44679
   0  -6  -4 7611.22  898.35   1-0.20085 0.19528-0.59265-0.08834 0.78001-0.97675
   0  -6   4 7801.94  650.37   1 0.54346-0.53820-0.12470-0.55549 0.83011-0.63384
   0   6   5 8686.11  971.53   1-0.13540 0.14236 0.65428 0.02609-0.74402 0.98946
   0   6  -5 9051.94  805.14   1 0.23999-0.24689 0.03692 0.64342-0.97007 0.72459
   0  -6  -510521.97  981.02   1 0.67648-0.68285-0.56261-0.11867 0.47521-0.72084
   0  -6   5 9749.16  830.77   1 0.74452-0.73805-0.14222-0.53822 0.65226-0.40692
   0  -6   5 9664.35  800.35   1 0.58196-0.57507-0.08683-0.59355 0.80856-0.56300
   0   6   5 8638.39  648.20   1 0.33073-0.32391 0.63374 0.04704-0.69927 0.94491
   0   6   622476.72 1329.52   1-0.17575 0.18411 0.70402-0.02363-0.68808 0.98262
   0   6  -620210.73 1234.35   1 0.26276-0.27105-0.01052 0.69087-0.96480 0.67023
   0  -6  -622799.04 1376.29   1 0.65864-0.66650-0.60543-0.07579 0.44680-0.74163
   0  -6   620191.83 1204.65   1 0.74346-0.73597-0.11020-0.56997 0.65963-0.36534
   0  -6   621241.79 1268.21   1 0.61225-0.60398-0.05501-0.62537 0.78874-0.49407
   0   6   619626.86 1075.35   1 0.45623-0.44805 0.65811 0.02267-0.59894 0.89372
   0   6  -715324.55 1042.92   1 0.28242-0.29210-0.05276 0.73312-0.95783 0.61417
   0  -6  -713123.60  898.69   1 0.21186-0.22159-0.74807 0.06704 0.62888-0.97283
   0  -6  -719568.94 1354.35   1 0.63867-0.64784-0.64667-0.03455 0.41701-0.76098
   0  -6   713786.61  945.24   1 0.74163-0.73289-0.08115-0.59902 0.66587-0.32253
   0  -6   713718.66  956.98   1 0.63627-0.62662-0.02856-0.65182 0.77093-0.42714
   0   6  -8 1685.81  428.04   1 0.29895-0.31028-0.08947 0.76972-0.95006 0.55789
   0  -6  -8 3688.81  701.11   1 0.24762-0.25875-0.78547 0.10444 0.56719-0.96027
   0  -6  -8 3443.53  663.35   1 0.61665-0.62712-0.68622 0.00500 0.38578-0.77890
   0  -6   8 3411.61  646.78   1 0.73948-0.72949-0.05545-0.62471 0.67088-0.27850
   0  -6   8 3879.02  687.98   1 0.65518-0.64415-0.00687-0.67351 0.75543-0.36254
   0   6  -9  898.46  450.05   1 0.31317-0.32592-0.12168 0.80193-0.94186 0.50067
   0  -6  -9  875.26  298.54   1 0.28061-0.29313-0.81674 0.13570 0.50417-0.94639
   0  -6  -9 1202.23  353.63   1 0.59265-0.60443-0.72385 0.04263 0.35325-0.79551
   0  -6   9 1266.86  329.45   1 0.73721-0.72597-0.03327-0.64689 0.67484-0.23340
   0  -6   9 1462.36  394.40   1 0.66991-0.65750 0.01060-0.69099 0.74236-0.30036
   0   6 -10 6625.33 1168.21   1 0.32509-0.33925-0.14927 0.82952-0.93382 0.44361
   0  -6 -10 6195.86 1084.61   1 0.31033-0.32419-0.84229 0.16146 0.44071-0.93210
   0  -6  10 6079.03 1083.24   1 0.73502-0.72254-0.01473-0.66544 0.67787-0.18739
   0  -6  10 6169.40 1096.06   1 0.68118-0.66740 0.02436-0.70476 0.73170-0.24058
   0   6 -11 1424.16  567.80   1 0.33495-0.35052-0.17257 0.85282-0.92629 0.38705
   0  -6 -11  427.92  312.14   1 0.33765-0.35290-0.86231 0.18148 0.37735-0.91788
   0  -6 -11  706.18  393.64   1 0.53878-0.55341-0.79281 0.11189 0.28488-0.82535
   0  -6  11 1420.86  459.13   1 0.73309-0.71936 0.00008-0.68025 0.68012-0.14059
   0  -6  11 1717.99  553.13   1 0.68959-0.67443 0.03487-0.71526 0.72335-0.18312
   0   6 -1218010.11 1404.66   1 0.34299-0.35998-0.19191 0.87216-0.91952 0.33126
   0  -6 -1216558.49 1302.74   1 0.50939-0.52536-0.82365 0.14273 0.24921-0.83882
   0  -6  1216090.76 1217.17   1 0.73154-0.71656 0.01109-0.69127 0.68170-0.09312
   0  -6  1216544.72 1272.46   1 0.69559-0.67905 0.04248-0.72287 0.71718-0.12784
   0   7   0  759.94  300.75   1 0.04228-0.04228 0.39692 0.39692-0.91687 0.91687
   0  -7   0 1070.06  490.46   1 0.72370-0.72370-0.39741-0.39741 0.56419-0.56419
   0  -7   0   73.92  153.30   1 0.19437-0.19437-0.39678-0.39678 0.89709-0.89709
   0   7   1 4412.85  815.39   1 0.00653-0.00515 0.45359 0.34024-0.89118 0.94032
   0   7  -1 3675.34  717.75   1 0.07648-0.07784 0.34058 0.45325-0.93709 0.88797
   0  -7  -1 5037.13  896.50   1 0.71591-0.71719-0.43389-0.36094 0.54699-0.59611
   0  -7   1 5799.96 1028.96   1 0.73000-0.72873-0.36193-0.43289 0.57973-0.53061
   0  -7  -1 4828.10  987.45   1 0.09872-0.10005-0.45386-0.34100 0.88558-0.93472
   0  -7   1 5737.69 1159.08   1 0.27677-0.27546-0.34233-0.45124 0.89789-0.84882
   0   7   227286.98 1889.11   1-0.03036 0.03312 0.50956 0.28427-0.85989 0.95816
   0   7  -224246.48 1696.94   1 0.10859-0.11131 0.28553 0.50831-0.95219 0.85394
   0  -7  -228732.97 2021.49   1 0.70653-0.70908-0.47104-0.32379 0.52813-0.62638
   0  -7   227814.60 1935.91   1 0.73543-0.73284-0.32725-0.46660 0.59332-0.49519
   0  -7  -226658.72 1784.33   1-0.00742 0.00477-0.50984-0.28503 0.86023-0.95850
   0  -7   226058.01 2149.07   1 0.34726-0.34465-0.29149-0.50208 0.89131-0.79317
   0   7   3 8414.52 1149.24   1-0.06786 0.07199 0.56381 0.23002-0.82310 0.97051
   0   7  -3 9013.40 1367.06   1 0.13837-0.14245 0.23260 0.56123-0.96267 0.81530
   0  -7  -3 9765.71  960.61   1 0.69548-0.69930-0.50855-0.28627 0.50761-0.65499
   0  -7   3 7775.26  806.28   1 0.73915-0.73526-0.29466-0.49919 0.60566-0.45845
   0  -7   3 8284.67  761.16   1 0.40665-0.40270-0.24517-0.54839 0.88007-0.73286
   0   7   4 3177.51  733.67   1-0.10548 0.11106 0.61520 0.17858-0.78128 0.97763
   0   7  -4 4847.39 1041.66   1 0.16564-0.17109 0.18250 0.61133-0.96915 0.77265
   0  -7  -4 2075.36  539.04   1 0.68268-0.68778-0.54612-0.24871 0.48547-0.68197
   0  -7   4 1370.19  473.74   1 0.74179-0.73661-0.26394-0.52991 0.61649-0.42022
   0  -7   4 2408.92  472.90   1 0.45639-0.45113-0.20383-0.58973 0.86611-0.66984
   0   7   515461.39 1620.50   1-0.14249 0.14946 0.66328 0.13049-0.73467 0.98011
   0   7  -513878.88 1010.05   1 0.19018-0.19708 0.13582 0.65792-0.97230 0.72683
   0  -7  -515482.20 1270.75   1 0.66811-0.67448-0.58344-0.21138 0.46175-0.70738
   0  -7   513899.42 1063.20   1 0.74353-0.73705-0.23536-0.55849 0.62590-0.38056
   0  -7   514301.85 1024.81   1 0.49765-0.49108-0.16750-0.62606 0.85104-0.60570
   0   7   6 2833.91  617.46   1-0.17849 0.18685 0.70727 0.08651-0.68403 0.97857
   0   7  -6 3815.21  871.58   1 0.21225-0.22054 0.09277 0.70097-0.97280 0.67823
   0  -7  -6 1469.49  467.64   1 0.65172-0.65958-0.62040-0.17435 0.43629-0.73112
   0  -7   6 2656.36  648.54   1 0.74452-0.73675-0.20915-0.58470 0.63398-0.33957
   0  -7   6 1976.40  529.99   1 0.53164-0.52376-0.13600-0.65755 0.83597-0.54156
   0   7  -7 3196.70  695.31   1 0.23180-0.24147 0.05362 0.74012-0.97128 0.62762
   0  -7  -7 2615.98  633.43   1 0.21103-0.22077-0.74718-0.04735 0.63022-0.97417
   0  -7  -7 2517.48  684.05   1 0.63351-0.64268-0.65643-0.13832 0.40956-0.75354
   0  -7   7 2878.83  665.65   1 0.74493-0.73587-0.18552-0.60834 0.64082-0.29733
   0  -7   7 3184.96  714.09   1 0.55948-0.55028-0.10905-0.68450 0.82163-0.47816
   0   7  -8  284.34  314.09   1 0.24895-0.26000 0.01843 0.77530-0.96834 0.57558
   0  -7  -8 1368.58  513.22   1 0.24400-0.25513-0.78184-0.01269 0.57373-0.96682
   0  -7  -8 1139.53  474.93   1 0.61351-0.62399-0.69144-0.10332 0.38145-0.77457
   0  -7   8 1364.23  487.99   1 0.74492-0.73456-0.16464-0.62921 0.64651-0.25396
   0  -7   8  610.35  292.48   1 0.58266-0.57163-0.08611-0.70767 0.80813-0.41524
   0   7  -9 1209.26  520.14   1 0.26384-0.27627-0.01280 0.80655-0.96448 0.52263
   0  -7  -9  712.45  363.76   1 0.27496-0.28748-0.81162 0.01709 0.51541-0.95763
   0  -7  -9  682.50  339.14   1 0.59174-0.60352-0.72519-0.06957 0.35205-0.79430
   0  -7   9 1275.00  408.40   1 0.74464-0.73298-0.14669-0.64716 0.65114-0.20952
   0  -7   9 1051.83  359.33   1 0.60089-0.58848-0.06714-0.72664 0.79650-0.35449
   0   8   0 3935.16  589.57   1 0.00651-0.00651 0.45362 0.45362-0.89117 0.89117
   0  -8   0 2026.29  622.09   1 0.71097-0.71097-0.45419-0.45419 0.53685-0.53685
   0   8   1 8963.76 1554.18   1-0.02515 0.02653 0.50181 0.40542-0.86460 0.91374
   0   8  -1 8634.87 1334.35   1 0.03694-0.03832 0.40554 0.50170-0.91332 0.86419
   0  -8   1 8849.31 1154.64   1 0.71801-0.71673-0.42469-0.48369 0.55145-0.50232
   0  -8  -1 8069.60 1074.76   1 0.70271-0.70398-0.48467-0.42370 0.52085-0.56997
   0   8   2 8269.86 1523.12   1-0.05772 0.06048 0.54941 0.35783-0.83355 0.93182
   0   8  -2 8209.73 1672.77   1 0.06590-0.06862 0.35829 0.54895-0.93127 0.83303
   0  -8  -210317.53 1284.92   1 0.69311-0.69566-0.51590-0.39247 0.50341-0.60166
   0  -8   2 9496.23 1281.35   1 0.72390-0.72135-0.39640-0.51197 0.56464-0.46639
   0   8   3 3964.42  712.58   1-0.09093 0.09511 0.59554 0.31163-0.79816 0.94542
   0   8  -3 4157.38  778.86   1 0.09303-0.09712 0.31245 0.59479-0.94536 0.79799
   0  -8   3 3702.34  574.17   1 0.72875-0.72493-0.36955-0.53882 0.57649-0.42911
   0  -8   3 2891.66  753.18   1 0.31022-0.30631-0.31871-0.58823 0.89564-0.74843
   1   0 -18 6691.88  880.78   1 0.49876-0.44654-0.76120 0.76120-0.41448-0.47027
  -1   0  18 6180.94  618.86   1 0.82899-0.88172 0.26380-0.26380 0.49312 0.39111
   1   0 -1724591.35 1720.20   1 0.49872-0.44513-0.77529 0.77529-0.38753-0.44807
   1   0 -1723693.55 1634.02   1-0.21215 0.26666-0.87604 0.87604-0.43304-0.40178
  -1   0  1724581.46 1691.10   1 0.83529-0.88936 0.27960-0.27960 0.47339 0.36172
   1   0 -16  716.32  412.23   1 0.49823-0.44325-0.78862 0.78862-0.36031-0.42613
   1   0 -16  487.43  218.31   1-0.17905 0.23488-0.89545 0.89545-0.40756-0.37815
  -1   0  16  484.82  348.80   1 0.84078-0.89620 0.29453-0.29453 0.45423 0.33176
   1   0 -1535444.30 2031.20   1 0.49727-0.44092-0.80122 0.80122-0.33279-0.40450
   1   0 -1534218.47 1889.25   1-0.14637 0.20332-0.91250 0.91250-0.38198-0.35495
  -1   0  1535250.37 1962.58   1 0.84551-0.90228 0.30856-0.30856 0.43575 0.30111
   1   0 -14 3832.74  516.69   1 0.49586-0.43813-0.81311 0.81311-0.30489-0.38324
   1   0 -14 4854.71  730.11   1-0.11407 0.17235-0.92748 0.92748-0.35604-0.33177
  -1   0  14 4676.50  537.64   1 0.84954-0.90766 0.32162-0.32162 0.41811 0.26963
   1   0 -1331409.82 1707.28   1 0.49407-0.43481-0.82433 0.82433-0.27633-0.36249
   1   0 -1332258.61 1676.36   1-0.08199 0.14161-0.94049 0.94049-0.32977-0.30890
  -1   0  1331095.38 1633.89   1 0.85292-0.91238 0.33365-0.33365 0.40149 0.23712
   1   0 -1292780.62 3042.76   1-0.05002 0.11097-0.95164 0.95164-0.30309-0.28645
  -1   0  1287690.10 2900.01   1 0.85568-0.91648 0.34452-0.34452 0.38614 0.20334
   1   0 -1123627.95 1670.22   1-0.01797 0.08026-0.96102 0.96102-0.27587-0.26455
  -1   0  1119186.28 1288.94   1 0.58368-0.64624-0.73670 0.73670 0.34143 0.19909
  -1   0  1122933.44 1558.44   1 0.85786-0.92002 0.35405-0.35405 0.37243 0.16793
   1   0 -10 4381.08  495.85   1 0.48531-0.42196-0.85405 0.85405-0.18722-0.30418
   1   0 -10 4799.72  776.75   1 0.01435 0.04926-0.96867 0.96867-0.24790-0.24338
  -1   0  10 2976.48  258.97   1 0.57019-0.63406-0.75493 0.75493 0.32395 0.16743
  -1   0  10 3109.06  331.76   1 0.85951-0.92301 0.36197-0.36197 0.36083 0.13041
   1   0  -937826.33 1590.43   1 0.48120-0.41648-0.86271 0.86271-0.15545-0.28680
   1   0  -943044.07 1697.97   1 0.04779 0.01717-0.97457 0.97457-0.21890-0.22340
  -1   0   933407.04 1295.42   1 0.55776-0.62294-0.77068 0.77068 0.30812 0.13412
  -1   0   937422.50 1496.05   1 0.86064-0.92549 0.36789-0.36789 0.35205 0.09007
   1   0  -8 8603.17  545.85   1 0.47632-0.41025-0.87075 0.87075-0.12205-0.27107
   1   0  -8 8664.41  444.34   1 0.08185-0.01555-0.97868 0.97868-0.18836-0.20479
  -1   0   8 6975.26  318.19   1 0.54638-0.61268-0.78412 0.78412 0.29430 0.09877
  -1   0   8 6622.41  354.98   1 0.86123-0.92742 0.37118-0.37118 0.34713 0.04586
   1   0  -8 7229.49  368.04   1 0.81124-0.74489 0.58106-0.58106-0.06518-0.32786
   1   0  -7132787.6 1605.29   1 0.11785-0.05021-0.98078 0.98078-0.15548-0.18852
  -1   0   7118693.8 1371.38   1 0.53848-0.60612-0.79314 0.79314 0.28452 0.05941
  -1   0   7124537.5 1487.95   1 0.86116-0.92870 0.37079-0.37079 0.34771-0.00384
   1   0  -7119890.7 1424.86   1 0.82671-0.75904 0.56239-0.56239-0.01594-0.32797
  -1   0   6203417.5 2341.43   1 0.38677-0.45544-0.88889 0.88889 0.24549 0.04933
   1   0  -6204970.8 2321.34   1 0.15730-0.08833-0.98038 0.98038-0.11870-0.17616
  -1   0   6191764.3 2123.58   1 0.53540-0.60437-0.79657 0.79657 0.28072 0.01407
  -1   0   6197634.8 2229.11   1 0.86009-0.92898 0.36494-0.36494 0.35644-0.06169
   1   0  -6185032.2 2080.66   1 0.84160-0.77260 0.53849-0.53849 0.04151-0.33630
   1   0  -5 6278.42  348.44   1 0.45443-0.38439-0.89077 0.89077-0.00315-0.24240
  -1   0   5 6237.73  222.78   1 0.38750-0.45756-0.88917 0.88917 0.24332 0.00237
   1   0  -5 7833.94  234.28   1 0.20341-0.13310-0.97623 0.97623-0.07471-0.17100
  -1   0   5 6982.30  171.67   1 0.54108-0.61138-0.79021 0.79021 0.28772-0.04205
  -1   0   5 6022.35  191.06   1 0.85702-0.92726 0.35026-0.35026 0.37791-0.13229
   1   0  -445526.02  679.77   1 0.44255-0.37113-0.89536 0.89536 0.04968-0.24613
   1   0  -443103.86  548.71   1 0.26497-0.19335-0.96414 0.96414-0.01472-0.18176
  -1   0   441119.82  497.64   1 0.56524-0.63697-0.76131 0.76131 0.31762-0.12106
   1   0  -353953.73  696.54   1 0.42507-0.35227-0.89738 0.89738 0.11838-0.26571
  -1   0   351981.61  589.95   1 0.62932-0.70236-0.66412 0.66412 0.40358-0.25616
   1   0  -349793.99  597.13   1 0.86253-0.78960 0.37913-0.37913 0.33510-0.48247
   1   0  -2 8183.05  205.83   1 0.39484-0.32062-0.89176 0.89176 0.22100-0.31928
  -1   0   2 7987.60  193.16   1 0.35155-0.42577-0.87120 0.87120 0.34264-0.24436
   1   0  -2 7837.31  105.45   1 0.62202-0.54768-0.67706 0.67706 0.39327-0.49155
   1   0  -2 7653.46  143.07   1 0.81278-0.73853 0.22666-0.22666 0.53666-0.63497
  -1   0  -2423563.3 4541.91   1 0.49659-0.57637-0.72017 0.72017-0.48450 0.38619
   1   0   2406367.7 4361.48   1 0.49676-0.41698-0.80610 0.80610-0.32159 0.41990
  -1   0  -2406364.2 4423.28   1 0.10542-0.18510-0.98032 0.98032-0.16690 0.06861
  -1   0  -3 2021.97  187.21   1 0.49846-0.57962-0.78380 0.78380-0.37038 0.22292
   1   0   3 1531.54  150.88   1 0.48311-0.40202-0.85895 0.85895-0.16969 0.31712
  -1   0  -3 1436.10  155.68   1 0.11428-0.19529-0.98067 0.98067-0.15877 0.01133
  -1   0  -3 1313.97  150.27   1 0.61132-0.69229 0.66320-0.66320-0.43177 0.28440
  -1   0  -4529226.0 5790.86   1 0.11081-0.19316-0.98055 0.98055-0.16196-0.03461
   1   0   4515265.3 5611.98   1 0.27848-0.19616-0.96043 0.96043-0.00117 0.19767
  -1   0  -4534563.1 5764.41   1 0.64559-0.72790 0.65899-0.65899-0.38593 0.18942
  -1   0  -511458.93  385.56   1 0.10055-0.18424-0.98006 0.98006-0.17136-0.07436
   1   0   5 9886.47  288.99   1 0.31044-0.22679-0.95007 0.95007 0.03132 0.21429
  -1   0  -510911.34  281.21   1 0.66181-0.74547 0.65624-0.65624-0.36241 0.11665
  -1   0  -6  642.54  257.29   1 0.49575-0.58104-0.81383 0.81383-0.30315 0.00823
   1   0   6  504.30   91.35   1 0.44705-0.36182-0.89399 0.89399 0.03035 0.26431
   1   0   6  973.57  156.33   1 0.33972-0.25473-0.93850 0.93850 0.06166 0.23308
   1   0   6  510.14  200.74   1 0.80848-0.72360 0.58394-0.58394-0.07319 0.36798
  -1   0  -6 1192.66  199.78   1 0.66856-0.75356 0.65485-0.65485-0.35240 0.05749
  -1   0  -7 2465.39  326.66   1 0.49603-0.58269-0.81188 0.81188-0.30788-0.03618
   1   0   7 1383.89  187.60   1 0.43695-0.35034-0.89654 0.89654 0.07272 0.27106
  -1   0  -7 2402.18  286.31   1 0.06881-0.15517-0.97735 0.97735-0.20012-0.14388
   1   0   7 1600.20  141.80   1 0.36714-0.28081-0.92574 0.92574 0.09059 0.25327
   1   0   7 1645.64  208.43   1 0.82439-0.73818 0.56551-0.56551-0.02388 0.36780
  -1   0  -7 1931.78  165.21   1 0.66957-0.75591 0.65463-0.65463-0.35088 0.00682
  -1   0  -8113437.0 2695.59   1 0.49656-0.58460-0.80778 0.80778-0.31764-0.07557
  -1   0  -8139162.6 3312.84   1 0.04948-0.13718-0.97482 0.97482-0.21739-0.17575
   1   0   8104530.5 2463.44   1 0.39317-0.30550-0.91178 0.91178 0.11856 0.27442
   1   0   8120144.3 2822.85   1 0.83643-0.74889 0.54770-0.54770 0.01999 0.37305
  -1   0  -9327791.3 8950.65   1 0.49718-0.58660-0.80213 0.80213-0.33072-0.11165
  -1   0  -9402373.010980.40   1 0.02827-0.11721-0.97141 0.97141-0.23571-0.20645
   1   0   9323390.0 8802.23   1 0.84568-0.75682 0.53028-0.53028 0.06007 0.38210
  -1   0 -1061280.91 2189.35   1 0.49779-0.58859-0.79524 0.79524-0.34610-0.14542
  -1   0 -1079450.54 2841.71   1 0.00612-0.09640-0.96690 0.96690-0.25506-0.23622
   1   0  1061247.51 2168.97   1 0.85290-0.76274 0.51291-0.51291 0.09734 0.39386
  -1   0 -11 4811.87  502.59   1 0.49830-0.59048-0.78728 0.78728-0.36314-0.17753
  -1   0 -11 6670.19  695.02   1-0.01705-0.07454-0.96126 0.96126-0.27508-0.26534
   1   0  11 3973.35  386.72   1 0.85828-0.76680 0.49574-0.49574 0.13260 0.40772
  -1   0 -12 6601.77  797.56   1 0.49865-0.59220-0.77836 0.77836-0.38142-0.20840
  -1   0 -12 7584.51 1054.46   1-0.04115-0.05178-0.95442 0.95441-0.29561-0.29394
   1   0  12 6272.33  761.99   1 0.86218-0.76938 0.47852-0.47852 0.16629 0.42315
  -1   0 -13 1576.84  595.06   1 0.49880-0.59373-0.76855 0.76855-0.40065-0.23834
  -1   0 -13  300.55   98.70   1-0.06606-0.02820-0.94627 0.94627-0.31654-0.32213
   1   0  13  400.67  281.82   1 0.86477-0.77065 0.46114-0.46114 0.19876 0.43980
  -1   0 -1438939.09 2339.24   1 0.49870-0.59501-0.75787 0.75787-0.42060-0.26753
  -1   0 -1443153.71 3120.15   1-0.09172-0.00387-0.93673 0.93673-0.33780-0.35001
   1   0  1434358.18 2048.23   1 0.86617-0.77073 0.44353-0.44353 0.23025 0.45743
  -1   0 -1531562.68 1847.10   1 0.49833-0.59602-0.74635 0.74635-0.44114-0.29615
  -1   0 -1534370.99 1976.33   1-0.11810 0.02117-0.92571 0.92571-0.35931-0.37763
   1   0  1528650.93 1661.69   1 0.86644-0.76967 0.42564-0.42564 0.26097 0.47583
  -1   0 -16  580.24  338.21   1 0.49765-0.59672-0.73399 0.73399-0.46215-0.32429
  -1   0 -16  980.51  315.80   1-0.14517 0.04690-0.91309 0.91309-0.38103-0.40504
   1   0  16  890.33  433.10   1 0.86562-0.76754 0.40740-0.40740 0.29105 0.49487
  -1   0 -1710626.29  966.78   1 0.49664-0.59709-0.72078 0.72078-0.48353-0.35206
  -1   0 -17 9300.54 1062.77   1-0.17288 0.07353-0.89883 0.89883-0.40274-0.43207
   1   0  1710264.48  795.56   1 0.86375-0.76434 0.38875-0.38875 0.32062 0.51443
  -1   0 -1831707.75 2292.83   1 0.49528-0.59709-0.70670 0.70670-0.50523-0.37952
  -1   0 -1837086.05 6770.56   1-0.20132 0.10065-0.88263 0.88263-0.42477-0.45916
   1   0  1831810.49 2296.26   1 0.86096-0.75975 0.36969-0.36969 0.34936 0.53488
   1   1 -18 1157.29  447.90   1 0.49476-0.44254-0.70207 0.81566-0.51215-0.37260
   1  -1 -18 2482.02  691.91   1 0.49659-0.44437-0.80754 0.69394-0.31821-0.56653
  -1  -1  18 2135.82  549.95   1 0.81597-0.86778 0.23334-0.34684 0.52889 0.35588
  -1   1  18 1270.18  338.01   1 0.83802-0.89074 0.28686-0.17342 0.46413 0.42010
   1   1 -17 2947.02  663.09   1 0.49611-0.44252-0.71497 0.82857-0.49262-0.34298
   1  -1 -17 1929.83  549.66   1 0.49459-0.44079-0.82154 0.70798-0.28361-0.55177
   1  -1 -17 1324.32  385.04   1-0.04717 0.10145-0.95255 0.83905-0.30069-0.53450
  -1  -1  17 3376.19  706.86   1 0.82167-0.87575 0.24679-0.36024 0.51374 0.32137
  -1   1  17 4757.82  868.48   1 0.84442-0.89849 0.30519-0.19175 0.44023 0.39488
   1  -1 -1635529.14 2469.00   1 0.49176-0.43659-0.83460 0.72104-0.24821-0.53803
   1   1 -1634492.30 2288.80   1-0.35895 0.41453-0.76211 0.87569-0.53882-0.24762
   1  -1 -1633855.55 2442.71   1-0.00448 0.06010-0.96443 0.85094-0.26426-0.52180
  -1  -1  1635347.35 2396.48   1 0.82704-0.88246 0.25912-0.37257 0.49885 0.28714
  -1   1  1637308.25 2501.93   1 0.84990-0.90532 0.32283-0.20938 0.41646 0.36952
   1  -1 -15 3197.33  557.21   1 0.48812-0.43159-0.84673 0.73317-0.21158-0.52552
   1   1 -15  703.89  215.68   1-0.33993 0.39686-0.77963 0.89321-0.52594-0.21135
   1  -1 -15 3901.88  878.49   1 0.03868 0.01826-0.97323 0.85973-0.22653-0.51041
  -1  -1  15 2539.98  436.54   1 0.83165-0.88842 0.27032-0.38377 0.48504 0.25182
  -1   1  15  172.13  229.67   1 0.85451-0.91128 0.33979-0.22634 0.39287 0.34400
   1   1 -1418679.38 1321.68   1 0.49842-0.44069-0.74838 0.86198-0.43759-0.25054
   1  -1 -1415407.28 1296.68   1 0.48359-0.42570-0.85792 0.74436-0.17348-0.51448
   1   1 -1416060.80 1163.77   1-0.32353 0.38199-0.79425 0.90778-0.51428-0.17322
   1  -1 -1417053.71 1100.75   1 0.08302-0.02475-0.97878 0.86525-0.18730-0.50072
  -1  -1  1415747.14 1235.30   1 0.83555-0.89367 0.28029-0.39374 0.47252 0.21522
  -1   1  1414946.52 1108.75   1 0.85830-0.91642 0.35608-0.24264 0.36947 0.31827
   1   1 -1327988.58 1336.58   1 0.49870-0.43959-0.75771 0.87131-0.42090-0.21808
   1  -1 -1334040.89 1610.69   1 0.47807-0.41881-0.86809 0.75453-0.13359-0.50523
   1   1 -1326764.38 1236.71   1-0.30945 0.36924-0.80609 0.91962-0.50442-0.13397
   1  -1 -1333558.71 1508.98   1 0.12806-0.06845-0.98095 0.86742-0.14603-0.49284
  -1  -1  1334158.84 1554.74   1 0.83875-0.89821 0.28887-0.40231 0.46156 0.17705
  -1   1  1328070.37 1267.52   1 0.86132-0.92078 0.37172-0.25828 0.34631 0.29230
   1   1 -12 9269.46 1059.01   1 0.49880-0.43832-0.76608 0.87968-0.40535-0.18448
   1  -1 -1210210.93 1194.05   1 0.47139-0.41077-0.87716 0.76360-0.09151-0.49817
   1   1 -12 8512.94  930.69   1-0.29856 0.35966-0.81494 0.92847-0.49671-0.09257
   1  -1 -1210530.94 1145.97   1 0.17456-0.11361-0.97931 0.86577-0.10237-0.48736
  -1  -1  12 9827.04 1098.24   1 0.84124-0.90205 0.29585-0.40930 0.45251 0.13698
  -1   1  1210852.00 1173.10   1 0.86361-0.92442 0.38670-0.27325 0.32346 0.26603
   1   1 -1127955.40 1146.22   1 0.49876-0.43689-0.77341 0.88701-0.39124-0.14944
   1  -1 -1121922.73  957.38   1 0.46322-0.40146-0.88501 0.77154-0.04672-0.49350
   1   1 -1124048.59  913.06   1-0.29162 0.35404-0.82044 0.93397-0.49176-0.04842
   1  -1 -1122904.27  902.36   1 0.22296-0.16068-0.97323 0.85969-0.05572-0.48487
  -1  -1  1119673.22  701.50   1 0.41932-0.48164-0.89602 0.78254 0.14594 0.39452
  -1  -1  1120824.38  862.62   1 0.84300-0.90516 0.30096-0.41441 0.44581 0.09455
  -1   1  1123998.71  893.81   1 0.86509-0.92748 0.40097-0.28752 0.30137 0.23895
   1   1 -1041640.76 1619.97   1 0.49862-0.43538-0.77958 0.89318-0.37897-0.11255
   1  -1 -1027282.71 1910.97   1 0.45344-0.39031-0.89128 0.77781 0.00148-0.49260
   1   1 -1039805.22 1398.19   1-0.28975 0.35349-0.82190 0.93543-0.49042-0.00065
   1  -1 -1028324.42 1910.58   1 0.27436-0.21078-0.96160 0.84820-0.00531-0.48592
  -1  -1  1024410.91 1623.51   1 0.37450-0.43808-0.92198 0.80857 0.09845 0.39279
  -1   1  1037007.10 1311.70   1 0.67941-0.74362-0.55495 0.66850 0.48002 0.01122
  -1  -1  1029200.50 1972.50   1 0.84395-0.90746 0.30380-0.41724 0.44208 0.04916
  -1   1  1041610.51 1485.70   1 0.86606-0.92978 0.41453-0.30108 0.27942 0.21178
   1   1  -9102656.3 2927.13   1 0.49844-0.43382-0.78441 0.89801-0.36911-0.07326
   1  -1  -9151586.5 4220.16   1 0.44150-0.37698-0.89562 0.78215 0.05408-0.49609
   1   1  -9110702.9 3043.68   1-0.29457 0.35963-0.81811 0.93164-0.49387 0.05190
   1  -1  -9141236.3 3889.29   1 0.32834-0.26341-0.94324 0.82983 0.04980-0.49191
  -1  -1   9132223.2 3624.35   1 0.32432-0.38924-0.94484 0.83143 0.04563 0.39648
  -1   1   9113601.1 3136.85   1 0.68106-0.74655-0.55053 0.66408 0.48276-0.04063
  -1  -1   9140762.1 3897.16   1 0.84395-0.90880 0.30378-0.41722 0.44210 0.00001
  -1   1   9115958.3 3200.58   1 0.86646-0.93149 0.42729-0.31384 0.25819 0.18389
   1  -1  -9131978.2 3621.95   1 0.69949-0.63456 0.64684-0.76034-0.30381-0.13854
   1   1  -8277504.7 7614.46   1 0.49828-0.43229-0.78761 0.90120-0.36246-0.03076
   1   1  -8261375.4 5957.48   1-0.30849 0.37487-0.80689 0.92042-0.50374 0.11088
  -1  -1   8274746.0 7454.61   1 0.26447-0.33073-0.96427 0.85086-0.01522 0.40822
   1  -1  -8281886.6 7657.93   1 0.38610-0.31984-0.91576 0.80235 0.11092-0.50391
  -1   1   8263264.4 6012.80   1 0.68564-0.75240-0.53790 0.65145 0.49046-0.09746
  -1  -1   8292654.8 7967.20   1 0.84270-0.90889 0.30006-0.41351 0.44700-0.05401
  -1   1   8268487.9 6128.55   1 0.86634-0.93269 0.43910-0.32565 0.23797 0.15498
   1   1  -7205788.7 4784.44   1 0.49823-0.43085-0.78867 0.90227-0.36021 0.01614
   1   1  -7202486.5 4622.30   1-0.33508 0.40277-0.78418 0.89771-0.52227 0.17852
  -1  -1   7192249.7 4402.14   1 0.18952-0.25716-0.97791 0.86438-0.08808 0.43209
  -1   1   7200613.5 4593.91   1 0.69369-0.76172-0.51413 0.62768 0.50443-0.16055
  -1   1   7206074.7 4710.13   1 0.86581-0.93349 0.44973-0.33628 0.21932 0.12452
   1  -1  -7192594.2 4402.18   1 0.72116-0.65357 0.63939-0.75289-0.26662-0.07743
   1   1  -6 7260.77  294.32   1 0.49833-0.42958-0.78676 0.90036-0.36423 0.06931
  -1   1   6 7558.92  229.10   1 0.70552-0.77483-0.47473 0.58827 0.52618-0.23142
  -1   1   6 7304.57  233.66   1 0.86504-0.93404 0.45869-0.34524 0.20322 0.09149
   1   1  -594393.77 1235.78   1 0.49859-0.42847-0.78029 0.89389-0.37753 0.13177
   1   1  -590609.07 1031.24   1-0.44797 0.51829-0.66683 0.78040-0.59552 0.34975
  -1  -1   595168.31 1099.49   1-0.03835-0.03192-0.95526 0.84176-0.29324 0.53889
   1  -1  -597193.42 1153.99   1 0.58791-0.51749-0.73072 0.61718 0.34699-0.59268
  -1   1   590153.25 1070.72   1 0.72059-0.79117-0.41278 0.52633 0.55709-0.31147
   1   1  -591538.91 1105.40   1 0.86604-0.79572 0.41408-0.30063 0.28017-0.52577
  -1   1   593213.44 1076.33   1 0.86431-0.93463 0.46495-0.35149 0.19177 0.05383
   1   1  -4171044.5 1991.87   1 0.49880-0.42729-0.76608 0.87968-0.40534 0.20872
  -1  -1   4184849.1 2016.37   1-0.22086 0.14921-0.87058 0.75705-0.43965 0.63608
  -1   1   4161390.3 1806.47   1 0.73657-0.80827-0.31809 0.43150 0.59688-0.40060
   1   1  -4165713.9 1869.80   1 0.85782-0.78623 0.35383-0.24039 0.37274-0.56924
  -1   1   4171947.2 1882.43   1 0.86420-0.93585 0.46578-0.35233 0.19022 0.00626
   1   1  -3666934.524866.89   1 0.49784-0.42496-0.73698 0.85057-0.45717 0.30971
  -1  -1   3691183.025744.54   1-0.45212 0.37913-0.66179 0.54821-0.59800 0.74546
   1  -1  -3714071.326608.85   1 0.71732-0.64418-0.42776 0.31422 0.54996-0.69734
  -1   1   3637529.823757.22   1 0.74497-0.81796-0.17892 0.29233 0.64265-0.49544
   1   1  -3648736.524178.58   1 0.83180-0.75887 0.27068-0.15723 0.48459-0.63197
   1  -1  -224899.87  350.45   1-0.06163 0.13583 0.55498-0.66839-0.82957 0.73130
  -1  -1   224335.82  378.52   1 0.49864-0.57290-0.77884 0.66524-0.38047 0.47877
   1  -1  -224519.15  383.07   1 0.74490-0.67061-0.18916 0.07575 0.63979-0.73793
  -1  -1   224506.99  331.79   1 0.73566-0.80998-0.01991-0.09344 0.67705-0.57895
  -1  -1   224117.98  366.59   1 0.69569-0.76986 0.04261-0.15601 0.71706-0.61884
   1  -1   0154721.4 1709.50   1 0.22407-0.14715 0.06922-0.18261-0.97211 0.97211
   1   1   0155270.4 1686.27   1 0.31806-0.24118-0.13294 0.24631-0.93870 0.93870
   1   1   0148508.0 1640.45   1 0.72190-0.64495-0.40642 0.51996 0.56006-0.56006
   1  -1   0150797.7 1666.96   1 0.63780-0.56102 0.34945-0.46278 0.68635-0.68635
  -1  -1   0153317.3 1700.01   1 0.32846-0.40533-0.30545 0.19208 0.89376-0.89376
   1   1   0147683.1 1628.94   1 0.44145-0.36461-0.21651 0.32988 0.87076-0.87076
   1  -1   0153249.3 1654.62   1 0.85748-0.78055 0.49864-0.61210 0.12677-0.12677
   1  -1   1529415.8 5685.10   1 0.36063-0.28233-0.23547 0.12209-0.90249 0.95151
   1  -1   1514380.7 5517.30   1-0.45058 0.52893-0.66366 0.55008-0.59708 0.64624
  -1  -1  -1528103.1 5675.71   1 0.61657-0.69484-0.68635 0.57282 0.38568-0.43481
   1   1   1520177.4 5595.17   1 0.67274-0.59450-0.57212 0.68566 0.46914-0.42001
  -1  -1  -1506569.3 5441.26   1 0.02932-0.10766-0.49132 0.37776 0.87048-0.91962
  -1  -1  -2363927.4 3897.38   1-0.11038 0.03066 0.62172-0.73512-0.77542 0.67724
   1  -1   2351185.7 3811.45   1 0.44396-0.36427-0.47319 0.35981-0.76090 0.85897
  -1  -1  -2352420.5 3780.81   1 0.25132-0.33108-0.78914 0.67563 0.56043-0.65870
  -1   1  -2368370.1 3999.66   1-0.43318 0.35350-0.68432 0.79790-0.58655 0.48825
   1  -1   2360020.5 3914.42   1-0.32143 0.40100-0.79604 0.68251-0.51282 0.61103
  -1  -1  -2354665.3 3854.83   1 0.55271-0.63232-0.77664 0.66315 0.30221-0.40048
  -1  -1  -2344598.5 3724.81   1-0.24647 0.16670-0.60818 0.49468 0.75455-0.85293
   1   1   2358349.6 3877.48   1-0.07722 0.15699-0.54302 0.65652 0.83615-0.73778
   1  -1   2372050.4 4022.14   1 0.84739-0.76780 0.52654-0.63998 0.06836 0.02989
  -1   1  -2362508.5 3913.33   1 0.79678-0.87637 0.59502-0.48158-0.10527 0.00701
   1  -1   4415815.6 4545.99   1 0.49691-0.41439-0.72398 0.61039-0.47844 0.67505
  -1  -1  -4470490.1 5087.77   1 0.40143-0.48390-0.89389 0.78042 0.19949-0.39594
   1   1   4457406.9 4944.08   1 0.28154-0.19900-0.81757 0.93108 0.50229-0.30575
   1  -1   4446782.1 4860.82   1 0.85151-0.76927 0.51653-0.62997 0.09004 0.10647
   1  -1   5556109.5 6055.15   1 0.49844-0.41453-0.78434 0.67074-0.36925 0.61502
  -1  -1  -5651751.524302.19   1 0.42867-0.51252-0.89734 0.78387 0.10496-0.35052
   1   1   5513276.6 5566.01   1 0.30819-0.22425-0.84015 0.95366 0.44626-0.20058
   1  -1   5567676.0 6162.06   1-0.01704 0.10064-0.96127 0.84777-0.27507 0.52071
  -1  -1  -5596571.522257.27   1 0.39629-0.47994-0.90998 0.79657 0.12195-0.36757
   1  -1   5627731.523412.72   1 0.85455-0.77100 0.50816-0.62162 0.10727 0.13832
   1   1   5529371.6 5737.22   1 0.66027-0.57661 0.65655-0.54305-0.36466 0.61042
  -1  -1  -5570588.321274.11   1 0.43777-0.52153 0.65550-0.76896-0.61536 0.36971
  -1   1  -6144816.3 1761.31   1 0.48793-0.57318-0.65632 0.76973-0.57545 0.28101
   1  -1   6162017.0 1919.37   1 0.49422-0.40904-0.82356 0.71000-0.27837 0.57321
   1   1   6139510.7 1648.94   1 0.32128-0.23597-0.85069 0.96417 0.41603-0.12120
  -1   1  -6142524.3 1710.25   1-0.23141 0.14657-0.86377 0.97730-0.44759 0.15295
   1  -1   6156840.9 1851.45   1 0.85744-0.77258 0.49877-0.61222 0.12652 0.16820
   1   1   6143582.8 1685.40   1 0.71815-0.63315 0.64053-0.52703-0.27196 0.56687
  -1   1  -7116404.1 2763.69   1 0.49109-0.57772-0.67662 0.79003-0.54863 0.20511
  -1  -1  -798677.44 2351.31   1 0.45873-0.54534-0.88824 0.77478-0.02392-0.31986
   1   1   7113979.8 2677.39   1 0.32766-0.24096-0.85537 0.96884 0.40121-0.05724
  -1   1  -7112918.3 2659.33   1-0.21588 0.12972-0.87373 0.98726-0.43587 0.09212
   1  -1   792351.56 2205.28   1 0.12106-0.03469-0.98085 0.86732-0.15251 0.49653
   1   1   7111656.2 2622.68   1 0.56197-0.47584-0.76546 0.87899 0.31345 0.03051
   1   1   7120099.1 2803.17   1 0.75885-0.67251 0.62171-0.50821-0.19393 0.53799
  -1  -1  -790249.65 2113.43   1 0.50884-0.59520 0.66368-0.77714-0.54827 0.20439
  -1   1  -8104896.3 2525.13   1 0.49274-0.58076-0.68864 0.80205-0.53195 0.13935
  -1  -1  -888519.64 2140.49   1 0.46819-0.55609-0.88059 0.76703-0.07310-0.32002
  -1   1  -894083.53 2259.06   1-0.20824 0.12076-0.87845 0.99198-0.43006 0.03720
   1  -1   889457.60 2147.37   1 0.17750-0.08980-0.97906 0.86553-0.09957 0.49273
  -1  -1  -898191.75 2386.03   1 0.27358-0.36124-0.96182 0.84842-0.00610-0.38688
   1  -1   899404.86 2388.65   1 0.86238-0.77487 0.47741-0.59087 0.16839 0.22456
   1   1   8100258.9 2383.13   1 0.78836-0.70083 0.60202-0.48857-0.12667 0.51973
  -1   1  -9 2385.29  277.79   1 0.49388-0.58330-0.69464 0.80823-0.52301 0.08064
  -1  -1  -9 3688.74  380.97   1 0.47551-0.56478-0.87191 0.75835-0.11681-0.32545
  -1   1  -9 3678.45  471.59   1-0.20667 0.11787-0.87941 0.99294-0.42886-0.01310
  -1  -1  -9 3696.17  308.35   1 0.23595-0.32499-0.97081 0.85727-0.04299-0.39931
   1  -1   9 4475.08  411.89   1 0.86421-0.77538 0.46570-0.57915 0.19038 0.25170
   1   1   9 3133.49  359.20   1 0.81042-0.72156 0.58192-0.46848-0.06757 0.50976
  -1   1 -1043124.41 1633.34   1 0.49417-0.58496-0.69697 0.81056-0.51964 0.02810
  -1  -1 -1037299.81 1407.69   1 0.48136-0.57199-0.86240 0.74884-0.15666-0.33474
  -1   1 -1039399.71 1475.26   1-0.20984 0.11972-0.87747 0.99100-0.43128-0.05979
  -1  -1 -1037185.26 1411.57   1 0.19975-0.29013-0.97671 0.86318-0.07824-0.41320
   1   1  1043331.75 1581.59   1 0.82713-0.73694 0.56182-0.44838-0.01450 0.50582
  -1   1 -1135030.78 1351.74   1 0.49408-0.58626-0.69627 0.80987-0.52065-0.02003
  -1  -1 -1130024.17 1127.06   1 0.48609-0.57808-0.85216 0.73860-0.19372-0.34681
  -1   1 -1128712.09 1048.00   1-0.21680 0.12536-0.87315 0.98668-0.43657-0.10360
  -1  -1 -1130047.40 1120.08   1 0.16434-0.25606-0.98001 0.86648-0.11206-0.42853
   1  -1  1129420.16 1113.55   1 0.86629-0.77482 0.44045-0.55390 0.23564 0.30468
   1   1  1130443.77 1119.31   1 0.83984-0.74833 0.54176-0.42832 0.03396 0.50648
  -1   1 -1212371.15 1358.11   1 0.49370-0.58726-0.69320 0.80680-0.52508-0.06474
  -1  -1 -12 6433.46  816.57   1 0.48991-0.58327-0.84123 0.72767-0.22872-0.36095
  -1   1 -1212353.38 1741.90   1-0.22684 0.13408-0.86675 0.98028-0.44416-0.14512
  -1  -1 -12 6325.64  737.07   1 0.12948-0.22254-0.98096 0.86743-0.14472-0.44501
   1  -1  12 6946.87  852.98   1 0.86645-0.77366 0.42697-0.54043 0.25872 0.33072
   1   1  1211921.07 1274.85   1 0.84945-0.75662 0.52173-0.40829 0.07887 0.51070
  -1   1 -1318358.77 2172.61   1 0.49274-0.58771-0.68867 0.80208-0.53191-0.10605
  -1  -1 -1311567.66 1400.94   1 0.49295-0.58767-0.82962 0.71606-0.26214-0.37668
  -1   1 -1316655.69 2049.46   1-0.23943 0.14536-0.85843 0.97196-0.45360-0.18479
  -1  -1 -1313853.84 1668.64   1 0.09499-0.18938-0.97971 0.86618-0.17643-0.46244
   1  -1  1312703.08 1516.88   1 0.86598-0.77186 0.41295-0.52640 0.28203 0.35654
   1   1  1316906.58 1972.99   1 0.85664-0.76252 0.50152-0.38807 0.12093 0.51763
  -1   1 -1448208.64 2846.22   1 0.49185-0.58821-0.68203 0.79544-0.54120-0.14583
  -1  -1 -1449711.41 2920.57   1 0.49532-0.59140-0.81732 0.70376-0.29433-0.39363
  -1   1 -1445235.10 2626.75   1-0.25419 0.15880-0.84827 0.96180-0.46455-0.22295
  -1  -1 -1451853.40 3022.64   1 0.06072-0.15645-0.97637 0.86284-0.20737-0.48065
   1  -1  1449923.70 2912.77   1 0.86484-0.76940 0.39837-0.51182 0.30552 0.38216
   1   1  1446069.28 2671.08   1 0.86163-0.76619 0.48137-0.36791 0.16083 0.52686
  -1   1 -15 2821.23  494.93   1 0.49070-0.58845-0.67394 0.78735-0.55227-0.18383
  -1  -1 -15 4004.96  560.76   1 0.49696-0.59465-0.80429 0.69069-0.32579-0.41150
  -1   1 -15 3307.55  706.57   1-0.27082 0.17410-0.83628 0.94981-0.47673-0.25987
  -1  -1 -15 4099.81  675.20   1 0.02625-0.12318-0.97103 0.85753-0.23748-0.49945
   1  -1  15 2768.70  473.65   1 0.86314-0.76597 0.38327-0.49672 0.32875 0.40811
   1   1  15 2833.08  475.56   1 0.86478-0.76802 0.46104-0.34759 0.19893 0.53787
  -1   1 -16 2074.20  489.24   1 0.48926-0.58840-0.66453 0.77794-0.56480-0.22038
  -1  -1 -16 4239.58  785.68   1 0.49811-0.59718-0.79055 0.67696-0.35622-0.43022
  -1   1 -16 2526.97  625.42   1-0.28908 0.19105-0.82242 0.93595-0.48994-0.29577
  -1  -1 -16 3700.20  810.49   1-0.00794-0.09032-0.96359 0.85009-0.26725-0.51882
   1  -1  16 4292.43  772.98   1 0.86058-0.76206 0.36756-0.48101 0.35254 0.43345
   1   1  16 2571.63  557.60   1 0.86629-0.76821 0.44049-0.32703 0.23557 0.55035
  -1   1 -17 2389.91  621.32   1 0.48753-0.58806-0.65391 0.76732-0.57853-0.25572
  -1  -1 -17 7679.83  907.11   1 0.49871-0.59915-0.77607 0.66247-0.38600-0.44960
  -1   1 -17 3164.42  883.93   1-0.30883 0.20948-0.80661 0.92014-0.50398-0.33084
  -1  -1 -17 5929.53 1134.58   1-0.04227-0.05733-0.95407 0.84058-0.29655-0.53864
   1  -1  17 5234.00 1144.08   1 0.85725-0.75738 0.35128-0.46473 0.37644 0.45867
   1   1  17 3696.14  798.92   1 0.86628-0.76688 0.41963-0.30618 0.27101 0.56404
  -1   1 -1820918.10 1592.78   1 0.48547-0.58740-0.64212 0.75553-0.59328-0.29005
  -1  -1 -1821052.46 1593.88   1 0.49875-0.60057-0.76079 0.64719-0.41524-0.46951
  -1   1 -1820720.23 1629.16   1-0.32992 0.22925-0.78872 0.90225-0.51871-0.36521
  -1  -1 -1817870.58 1787.05   1-0.07681-0.02411-0.94242 0.82892-0.32548-0.55884
   1  -1  1818361.67 1373.54   1 0.85312-0.75190 0.33440-0.44785 0.40044 0.48380
   1   1  1820444.10 1530.32   1 0.86484-0.76412 0.39841-0.28495 0.30545 0.57872
   1   2 -18  909.15  456.87   1 0.48352-0.43164-0.63155 0.85837-0.60608-0.27725
   1  -2 -18 1284.41  433.51   1 0.48982-0.43738-0.84151 0.61439-0.22786-0.65666
   1  -2 -18 1728.94  457.20   1 0.04639 0.00653-0.97436 0.74729-0.22014-0.66445
  -1  -2  18 1097.96  363.23   1 0.79756-0.84936 0.19683-0.42382 0.57021 0.31455
  -1   2  18 1188.48  369.55   1 0.84300-0.89572 0.30094-0.07405 0.44585 0.43839
   1   2 -1712250.53 1319.12   1 0.48548-0.43221-0.64214 0.86897-0.59325-0.24100
   1  -2 -1715958.84 1683.08   1 0.48526-0.43146-0.85417 0.62705-0.18682-0.64856
   1  -2 -1716551.11 1665.09   1 0.09321-0.03895-0.97959 0.75252-0.17805-0.65740
  -1  -2  1716722.67 1699.07   1 0.80339-0.85660 0.20791-0.43490 0.55796 0.27765
  -1   2  1712741.44 1287.96   1 0.84964-0.90371 0.32194-0.09505 0.41767 0.41744
   1   2 -1610717.29 1065.98   1 0.48713-0.43246-0.65153 0.87835-0.58155-0.20363
   1  -2 -1612245.36 1154.26   1 0.47962-0.42445-0.86554 0.63842-0.14418-0.64206
   1  -2 -1611138.32 1006.23   1 0.14021-0.08461-0.98091 0.75384-0.13473-0.65158
  -1  -2  1612082.50 1031.47   1 0.51178-0.56774 0.58193-0.80878 0.63200 0.15337
  -1  -2  1611573.67 1061.55   1 0.80840-0.86301 0.21775-0.44474 0.54686 0.23959
  -1   2  1611361.47  995.13   1 0.85516-0.91058 0.34241-0.11552 0.38915 0.39684
   1   2 -1515329.83 1081.34   1 0.48848-0.43242-0.65963 0.88645-0.57119-0.16491
   1  -2 -1514177.60 1064.90   1 0.47275-0.41622-0.87553 0.64841-0.09968-0.63742
   1  -2 -1512645.09  916.90   1 0.18754-0.13060-0.97812 0.75105-0.08998-0.64718
  -1  -2  1513131.14  844.84   1 0.50335-0.56062 0.59403-0.82089 0.62749 0.10879
  -1  -2  1513721.69 1033.43   1 0.81259-0.86860 0.22627-0.45326 0.53711 0.20019
  -1   2  1514870.53  974.60   1 0.85960-0.91637 0.36242-0.13552 0.36018 0.37669
   1   2 -14 5310.45  631.74   1 0.48955-0.43210-0.66634 0.89317-0.56242-0.12461
   1  -2 -14 2939.40  474.09   1 0.46451-0.40662-0.88397 0.65685-0.05298-0.63497
   1  -2 -14 2993.94  342.00   1 0.23535-0.17707-0.97093 0.74386-0.04358-0.64444
  -1  -2  14 3153.18  315.59   1 0.49798-0.55655 0.60159-0.82844 0.62458 0.06262
  -1  -2  14 2904.41  384.22   1 0.81595-0.87337 0.23330-0.46029 0.52894 0.15921
  -1   2  14 4948.91  474.44   1 0.86296-0.92108 0.38205-0.15516 0.33063 0.35711
   1   2 -1339527.16 1877.09   1 0.49034-0.43150-0.67151 0.89833-0.55554-0.08241
   1  -2 -1338320.58 1788.41   1 0.45454-0.39555-0.89071 0.66377-0.00368-0.63477
   1  -2 -1336130.01 1618.07   1 0.28427-0.22470-0.95873 0.73191 0.00466-0.64328
  -1  -2  1336849.79 1578.04   1 0.49609-0.55597 0.60421-0.83107 0.62354 0.01457
  -1  -2  1339610.37 1789.77   1 0.81800-0.87746 0.23869-0.46558 0.52335 0.11526
  -1   2  1342711.46 1839.17   1 0.86513-0.92487 0.40139-0.17448 0.30071 0.33786
   1   2 -1253901.25 2804.94   1 0.49084-0.43062-0.67491 0.90173-0.55096-0.03792
   1  -2 -1268467.85 3503.70   1 0.44279-0.38242-0.89530 0.66836 0.04865-0.63799
   1  -2 -1265041.78 3272.15   1 0.33339-0.27248-0.94117 0.71435 0.05505-0.64454
  -1  -2  1268864.60 3431.55   1 0.49820-0.55938 0.60128-0.82813 0.62470-0.03566
  -1  -2  1263832.26 3246.81   1 0.81957-0.88038 0.24213-0.46903 0.51928 0.07020
  -1   2  1252732.37 2663.89   1 0.86632-0.92738 0.42060-0.19369 0.26940 0.32004
   1   2 -1171651.14 2483.97   1 0.49103-0.42942-0.67623 0.90305-0.54917 0.00935
   1  -2 -1165095.15 2252.23   1 0.42875-0.36700-0.89733 0.67040 0.10464-0.64487
   1  -2 -1160659.12 2042.67   1 0.38323-0.32098-0.91733 0.69051 0.10782-0.64819
  -1  -2  1164661.46 2129.54   1 0.50490-0.56739 0.59183-0.81868 0.62833-0.08838
  -1  -2  1162119.74 2125.83   1 0.82011-0.88226 0.24331-0.47021 0.51789 0.02248
  -1   2  1167501.45 2222.70   1 0.86631-0.92870 0.43982-0.21291 0.23674 0.30358
   1   2 -1028053.75 1941.15   1 0.49086-0.42785-0.67502 0.90184-0.55081 0.06007
   1  -2 -1019254.75 1443.79   1 0.41189-0.34876-0.89616 0.66923 0.16500-0.65612
  -1  -2  1016048.06 1091.40   1 0.14268-0.20630-0.98086 0.75380-0.13242 0.62387
   1  -2 -1016796.13 1168.38   1 0.43486-0.37121-0.88558 0.65860 0.16320-0.65454
  -1  -2  1019626.74 1332.21   1 0.51686-0.58065 0.57449-0.80134 0.63467-0.14381
  -1   2  1025544.00 1721.78   1 0.86498-0.92869 0.45926-0.23235 0.20218 0.28902
   1  -2 -1014876.08 1006.88   1 0.51456-0.45114 0.66405-0.89098-0.54244 0.05118
   1   2  -920118.21 1425.48   1 0.49021-0.42581-0.67064 0.89746-0.55671 0.11504
   1  -2  -922788.71 1607.64   1 0.39185-0.32734-0.89076 0.66381 0.23019-0.67245
  -1  -2   918884.63 1268.66   1 0.05980-0.12476-0.97625 0.74919-0.20819 0.65049
   1  -2  -919921.33 1364.30   1 0.48574-0.42076-0.84562 0.61865 0.22128-0.66349
  -1  -2   921138.53 1419.84   1 0.53469-0.59979 0.54737-0.77422 0.64380-0.20202
  -1  -2   921261.65 1474.07   1 0.81716-0.88201 0.23689-0.46379 0.52546-0.08334
  -1   2   917733.98 1203.08   1 0.86204-0.92708 0.47925-0.25235 0.16488 0.27720
   1  -2  -918978.58 1271.23   1 0.50677-0.44199 0.66353-0.89046-0.55036 0.10822
   1   2  -8 4717.79  458.92   1 0.48888-0.42310-0.66212 0.88894-0.56795 0.17536
   1  -2  -8 4418.07  343.92   1 0.36697-0.30108-0.87988 0.65293 0.30187-0.69499
  -1  -2   8 2467.25  440.48   1-0.03515-0.03112-0.95621 0.72922-0.29053 0.68356
   1  -2  -8 3885.66  244.84   1 0.53652-0.47021-0.79533 0.56835 0.28210-0.67517
  -1  -2   8 3744.84  222.49   1 0.55886-0.62526 0.50798-0.73484 0.65545-0.26276
  -1  -2   8 4683.94  385.68   1 0.81334-0.87917 0.22782-0.45481 0.53531-0.14208
  -1   2   8 4653.74  256.91   1 0.85700-0.92336 0.50030-0.27339 0.12342 0.26953
   1  -2  -8 4004.16  206.67   1 0.48980-0.42376 0.66188-0.88881-0.56744 0.17441
   1   2  -721761.98  961.51   1 0.48652-0.41935-0.64803 0.87485-0.58595 0.24243
   1  -2  -724628.89 1057.70   1 0.33628-0.26900-0.86139 0.63445 0.38066-0.72464
  -1  -2   719099.13  756.87   1-0.14158 0.07396-0.91484 0.68785-0.37816 0.72207
   1  -2  -721275.63  898.59   1 0.58677-0.51897-0.73234 0.50527 0.34549-0.68946
  -1   2   719115.01  799.04   1 0.73792-0.80574-0.30636 0.53318 0.60133-0.25785
  -1  -2   722291.26  884.38   1 0.58931-0.65702 0.45328-0.68013 0.66876-0.32515
  -1  -2   723894.98  994.40   1 0.80621-0.87344 0.21340-0.44039 0.55180-0.20772
  -1   2   719542.62  788.63   1 0.84873-0.91640 0.52345-0.29656 0.07514 0.26877
   1  -2  -720355.05  808.01   1 0.45706-0.38966 0.65822-0.88515-0.59819 0.25429
   1   2  -670395.35 1735.12   1 0.48247-0.41391-0.62611 0.85293-0.61253 0.31808
  -1  -2   656458.13 1330.57   1-0.25972 0.19071-0.84435 0.61729-0.46862 0.76326
   1  -2  -661708.16 1504.61   1 0.63410-0.56499-0.65535 0.42827 0.41040-0.70523
  -1   2   660538.26 1454.37   1 0.74203-0.81114-0.26058 0.48740 0.61763-0.32322
  -1  -2   659239.90 1401.71   1 0.62430-0.69347 0.38041-0.60706 0.68229-0.38801
  -1  -2   658087.98 1430.05   1 0.79492-0.86356 0.19195-0.41894 0.57554-0.28061
  -1   2   664037.83 1491.98   1 0.83520-0.90419 0.54973-0.32285 0.01516 0.27962
   1  -2  -657716.85 1346.39   1 0.39714-0.32838 0.64852-0.87545-0.64937 0.35460
   1   2  -5123160.2 1564.68   1 0.47554-0.40558-0.59282 0.81965-0.64993 0.40456
   1  -2  -5120145.6 1464.08   1 0.25044-0.18042-0.78826 0.56125 0.56205-0.80773
  -1  -2   5116107.4 1350.75   1-0.38268 0.31237-0.73893 0.51177-0.55455 0.80031
   1  -2  -5127630.8 1544.88   1 0.67686-0.60627-0.56163 0.33454 0.47583-0.72146
  -1   2   5114789.7 1385.16   1 0.74473-0.81513-0.20036 0.42718 0.63657-0.39123
  -1  -2   5121494.1 1408.75   1 0.66273-0.73317 0.28593-0.51259 0.69211-0.44688
  -1  -2   5130847.6 1593.19   1 0.77735-0.84739 0.16116-0.38815 0.60806-0.36229
  -1   2   5121766.8 1361.26   1 0.81029-0.88061 0.58206-0.35518-0.06795 0.31361
   1  -2  -4284349.0 3178.12   1-0.03661 0.10806 0.51878-0.74559-0.85411 0.65757
   1   2  -4283422.6 3194.59   1 0.46348-0.39214-0.54253 0.76935-0.70060 0.50430
  -1   2   4274080.0 3052.18   1 0.74389-0.81559-0.12351 0.35033 0.65678-0.46050
  -1  -2   4283741.3 3115.64   1 0.69921-0.77092 0.17021-0.39687 0.69435-0.49816
   1   2  -4283566.1 3099.17   1 0.50345-0.43183 0.59389-0.36703 0.62755-0.82389
  -1   2   4283110.0 3049.84   1-0.06815-0.00353-0.53845 0.76556 0.83989-0.64335
  -1  -2   4300726.1 3357.58   1 0.74999-0.82143 0.11783-0.34482 0.65086-0.45424
  -1   2   4290156.8 3125.18   1 0.75410-0.82571 0.62434-0.39734-0.20378 0.40038
  -1   2   3181287.9 2052.76   1-0.11829 0.04555 0.63216-0.40536-0.76575 0.91301
  -1  -2   3182408.3 2080.10   1 0.49184-0.56457-0.68193 0.45511-0.54134 0.68856
   1  -2  -3188542.3 2156.74   1 0.73605-0.66305-0.32235 0.09553 0.59524-0.74244
  -1  -2   3191428.2 2139.42   1 0.72749-0.80057 0.03726-0.26399 0.68509-0.53795
  -1   2   3177939.2 1919.14   1 0.33960-0.41256-0.29721 0.52395 0.89237-0.74516
  -1  -2   2120813.4 1406.70   1 0.47401-0.54813-0.58602 0.35920-0.65717 0.75532
   1  -2  -2120605.5 1424.89   1 0.74496-0.67067-0.18064-0.04616 0.64217-0.74031
  -1  -2   2124867.9 1453.71   1 0.74314-0.81747-0.10441-0.12231 0.66092-0.56283
   1   2  -2117722.1 1350.44   1 0.68385-0.60961 0.22331 0.00334 0.69459-0.79269
   1  -2  -2126349.6 1371.71   1-0.04806 0.12241-0.52926 0.30215 0.84709-0.94536
  -1  -2   2128144.4 1491.25   1 0.64049-0.71465-0.02380-0.20299 0.76759-0.66937
  -1   2   2133497.7 1445.14   1 0.73638-0.81063 0.09786 0.12913 0.66944-0.57113
  -1   2   125179.41  426.67   1 0.06746-0.14304 0.35569-0.12888-0.93216 0.98128
   1  -2  -124628.37  404.10   1 0.18721-0.11167 0.14150-0.36829-0.97207 0.92297
  -1  -2   122784.43  371.79   1 0.43553-0.51104-0.44544 0.21868-0.78223 0.83126
  -1  -2   123074.69  386.18   1 0.74307-0.81865-0.24414 0.01732 0.62308-0.57401
   1  -2  -125044.88  478.70   1 0.73703-0.66146-0.03165-0.19507 0.67511-0.72416
  -1   2   122429.80  385.05   1 0.68790-0.76341 0.21006 0.01659 0.69473-0.64569
  -1  -2   122748.00  368.00   1 0.53779-0.61332-0.13014-0.09658 0.83296-0.78389
   1  -2  -122978.53  292.88   1 0.53348-0.45795-0.13426-0.09247 0.83508-0.88415
  -1   2   123318.63  296.76   1 0.85067-0.92630 0.32553-0.09863 0.41276-0.36364
  -1   2   053156.48  704.75   1 0.16557-0.24252 0.18262 0.04418-0.96913 0.96913
  -1  -2   056893.55  707.68   1 0.36666-0.44354-0.25073 0.02398-0.89593 0.89593
  -1  -2   056750.33  751.06   1 0.72811-0.80507-0.37332 0.14623 0.57486-0.57486
   1   2   050080.55  661.81   1 0.74398-0.66710-0.12574 0.35255 0.65625-0.65625
   1  -2   050256.88  697.32   1 0.71237-0.63556 0.11498-0.34171 0.69231-0.69231
  -1   2   049209.68  650.75   1 0.64039-0.71717 0.34327-0.11661 0.68706-0.68706
  -1  -2   056276.80  711.84   1 0.38990-0.46674-0.25853 0.03180 0.88381-0.88381
   1   2   049796.95  639.04   1 0.59354-0.51662-0.07486 0.30166 0.80131-0.80131
  -1   2   051497.80  609.16   1 0.86630-0.94324 0.42021-0.19331 0.27004-0.27004
   1   2   1432860.7 4694.10   1 0.09818-0.01987 0.30360-0.07679-0.94772 0.99684
  -1   2  -1436178.2 4758.01   1 0.25294-0.33124 0.01013 0.21665-0.96742 0.91833
  -1  -2  -1398006.1 4304.92   1 0.26485-0.34315-0.01494-0.21183-0.96417 0.91507
   1   2   1405834.3 4428.76   1 0.74224-0.66407-0.25748 0.48430 0.61868-0.56961
  -1   2  -1411553.0 4474.61   1 0.57770-0.65586 0.47487-0.24802 0.66388-0.71297
   1   2   1409036.8 4427.84   1 0.44861-0.37045-0.21047 0.43720 0.86859-0.81952
   1  -2   1400070.5 4319.03   1 0.82781-0.74950 0.26097-0.48786 0.49659-0.44747
  -1   2  -1416091.5 4482.20   1 0.86365-0.94191 0.46971-0.24281 0.18292-0.23204
   1   2   2158358.8 1763.74   1-0.04505 0.12476 0.53113-0.30431-0.84609 0.94436
  -1  -2  -2159195.1 1772.87   1 0.14650-0.22617 0.21784-0.44465-0.96492 0.86667
  -1   2  -2153405.0 1779.75   1 0.32229-0.40200-0.14273 0.36949-0.93581 0.83777
   1  -2   2151532.7 1748.28   1 0.40940-0.32971-0.36611 0.13934-0.83567 0.93373
   1   2   2140508.3 1635.33   1 0.73093-0.65145-0.35873 0.58554 0.58056-0.48242
  -1   2  -2151581.7 1733.01   1 0.50215-0.58161 0.59574-0.36888 0.62684-0.72501
   1   2   2150350.5 1694.78   1 0.28185-0.20238-0.33879 0.56553 0.89764-0.79950
  -1   2  -2145323.5 1635.15   1 0.85665-0.93623 0.50149-0.27458 0.12100-0.21924
  -1  -2  -354244.36  677.35   1 0.03751-0.11861 0.40461-0.63142-0.91371 0.76630
  -1   2  -349484.35  714.33   1 0.37305-0.45419-0.26719 0.49394-0.88850 0.74143
   1  -2   349402.37  692.84   1 0.45058-0.36950-0.49598 0.26922-0.74227 0.88937
  -1  -2  -350617.28  756.08   1 0.63002-0.71091-0.66287 0.43579 0.40456-0.55198
   1   2   355870.93  760.29   1 0.71591-0.63513-0.43389 0.66099 0.54698-0.39961
   1  -2   354960.32  747.33   1 0.58331-0.50254 0.46456-0.69142 0.66627-0.51901
  -1  -2  -351899.61  706.92   1-0.21835 0.13720-0.59879 0.37179 0.77055-0.91811
   1   2   354930.66  697.64   1 0.11776-0.03678-0.44301 0.67012 0.88874-0.74133
  -1   2  -354046.31  703.34   1 0.84810-0.92901 0.52492-0.29804 0.07191-0.21931
  -1  -2  -4142047.7 1615.34   1-0.04757-0.03489 0.53479-0.76161-0.84363 0.64709
   1  -2   4133662.6 1596.39   1 0.47664-0.39417-0.59783 0.37101-0.64451 0.84081
  -1  -2  -4133886.8 1540.32   1 0.25180-0.33434-0.78961 0.56259 0.55956-0.75610
   1  -2   4132691.3 1567.37   1-0.33319 0.41555-0.78562 0.55846-0.52131 0.71793
  -1  -2  -4144590.8 1725.66   1 0.58929-0.67149-0.72873 0.50166 0.34881-0.54537
   1   2   4126227.4 1463.64   1-0.02391 0.10623-0.51785 0.74496 0.85513-0.65859
   1  -2   4138272.0 1629.24   1 0.86322-0.78086 0.38382-0.61072 0.32790-0.13140
   1   2   4130749.3 1507.62   1 0.38362-0.30123 0.64584-0.41891-0.66009 0.85660
  -1  -2  -523251.18  371.15   1-0.10886 0.02496 0.61970-0.84649-0.77724 0.53180
   1  -2   521733.83  423.81   1 0.49091-0.40706-0.67542 0.44860-0.55027 0.79564
  -1  -2  -525265.96  442.87   1 0.31443-0.39835-0.84550 0.61855 0.43157-0.67727
   1  -2   523451.13  404.85   1-0.24924 0.33277-0.85173 0.62467-0.46089 0.70643
  -1  -2  -525107.16  512.21   1 0.54724-0.63084-0.78312 0.55614 0.29537-0.54104
   1   2   522606.04  462.07   1 0.68907-0.60574-0.52802 0.75512 0.49635-0.25072
   1  -2   525395.90  500.14   1 0.49983-0.41645 0.59900-0.82585 0.62558-0.38015
   1  -2   525043.64  502.96   1 0.86440-0.78086 0.39425-0.62115 0.31203-0.06642
   1   2   522490.36  389.12   1 0.51145-0.42778 0.66385-0.43693-0.54562 0.79125
  -1  -2  -696565.97 2243.79   1-0.15151 0.06622 0.67457-0.90136-0.72249 0.42795
  -1   2  -686694.52 2089.60   1 0.44761-0.53287-0.48562 0.71239-0.75087 0.45666
  -1   2  -691315.04 2154.72   1-0.46766 0.38262-0.64239 0.86954-0.60714 0.31222
   1  -2   695225.57 2232.58   1-0.16824 0.25308-0.90133 0.67426-0.39911 0.69376
   1  -2   6101147.1 2392.08   1 0.86488-0.78002 0.39876-0.62567 0.30489-0.01016
   1   2   689202.33 2093.32   1 0.60588-0.52086 0.66366-0.43673-0.43869 0.73345
  -1  -2  -7161699.0 3723.01   1-0.18081 0.09412 0.71000-0.93679-0.68058 0.33696
  -1   2  -7178599.9 4172.29   1 0.45837-0.54500-0.52306 0.74988-0.71853 0.37501
  -1  -2  -7191136.1 4418.22   1 0.39154-0.47823-0.89065 0.66370 0.23115-0.57513
  -1   2  -7167332.8 4042.79   1-0.44196 0.35558-0.67402 0.90118-0.59190 0.24783
  -1  -2  -7163440.4 3803.23   1 0.46392-0.55019-0.86390 0.63692 0.19607-0.54000
   1  -2   7180199.9 4177.82   1 0.86492-0.77873 0.39918-0.62609 0.30422 0.03962
   1   2   7179532.2 4139.43   1 0.67495-0.58862 0.65342-0.42642-0.34273 0.68679
  -1  -2  -872920.84 2103.98   1 0.41537-0.50336-0.89668 0.66974 0.15306-0.54595
  -1   2  -856784.43 1667.09   1-0.42261 0.33489-0.69639 0.92355-0.58002 0.18680
  -1  -2  -861934.50 1794.25   1 0.42294-0.51054-0.89366 0.66668 0.14995-0.54302
   1  -2   867470.73 1939.04   1 0.86467-0.77716 0.39666-0.62356 0.30822 0.08474
   1   2   849586.21 1438.02   1 0.72595-0.63828 0.63751-0.41051-0.25800 0.65121
  -1  -2  -965555.45 2321.29   1 0.43399-0.52336-0.89694 0.67000 0.08446-0.52647
  -1   2  -952244.57 1843.73   1-0.40897 0.31991-0.71145 0.93861-0.57146 0.12908
  -1  -2  -959187.72 2089.45   1 0.38158-0.47059-0.91822 0.69140 0.10605-0.54817
   1  -2   965368.69 2298.45   1 0.86413-0.77530 0.39190-0.61881 0.31571 0.12637
   1   2   950628.80 1785.68   1 0.76408-0.67506 0.61866-0.39166-0.18284 0.62520
  -1  -2 -1024554.17 1699.86   1 0.44859-0.53934-0.89342 0.66648 0.02356-0.51468
  -1   2 -1027512.00 1853.58   1-0.40036 0.30996-0.72066 0.94782-0.56598 0.07445
  -1  -2 -1025215.42 1732.12   1 0.34175-0.43209-0.93762 0.71080 0.06377-0.55502
   1  -2  1021759.92 1511.02   1 0.86344-0.77300 0.38544-0.61233 0.32541 0.16583
   1   2  1027726.00 1882.92   1 0.79280-0.70262 0.59842-0.37153-0.11554 0.60685
  -1   2 -1118514.80 1978.72   1 0.47469-0.56688-0.58902 0.81584-0.65400 0.11418
  -1  -2 -1114199.44 1537.58   1 0.46023-0.55237-0.88723 0.66030-0.03142-0.50881
  -1   2 -1116431.33 1763.21   1-0.39613 0.30440-0.72511 0.95227-0.56327 0.02258
  -1  -2 -1114492.47 1564.64   1 0.30241-0.39410-0.95289 0.72607 0.02310-0.56346
   1  -2  1115147.25 1604.26   1 0.86227-0.77048 0.37746-0.60435 0.33764 0.20272
   1   2  1119135.90 2000.30   1 0.81475-0.72325 0.57721-0.35033-0.05467 0.59512
  -1   2 -12 8320.76  650.77   1 0.47561-0.56919-0.59313 0.81996-0.64960 0.06070
  -1  -2 -12 8360.72  668.25   1 0.46972-0.56307-0.87901 0.65189-0.08177-0.50790
  -1   2 -12 7972.48 1031.89   1-0.39570 0.30262-0.72557 0.95273-0.56299-0.02684
  -1  -2 -12 8780.34  684.13   1 0.26351-0.35653-0.96451 0.73770-0.01618-0.57330
   1  -2  12 6291.35  475.87   1 0.86070-0.76757 0.36825-0.59514 0.35152 0.23797
   1   2  12 8065.97  525.44   1 0.83147-0.73864 0.55556-0.32867 0.00104 0.58853
  -1   2 -13 4431.91  583.33   1 0.47584-0.57081-0.59419 0.82101-0.64846 0.01050
  -1  -2 -13 6021.35  698.02   1 0.47731-0.57203-0.86928 0.64216-0.12852-0.51029
  -1   2 -13 2813.37  520.19   1-0.39855 0.30414-0.72257 0.94973-0.56483-0.07416
  -1  -2 -13 4323.69  521.11   1 0.22457-0.31897-0.97295 0.74588-0.05414-0.58473
   1  -2  13 5765.40  550.76   1 0.85870-0.76422 0.35795-0.58485 0.36674 0.27187
   1   2  13 3785.80  455.71   1 0.84408-0.74993 0.53361-0.30673 0.05261 0.58609
  -1   2 -1420567.50 1542.80   1 0.47551-0.57187-0.59268 0.81951-0.65008-0.03695
  -1  -2 -1428917.75 2129.90   1 0.48345-0.57954-0.85822 0.63110-0.17237-0.51559
  -1   2 -1419681.92 1461.48   1-0.40428 0.30853-0.71649 0.94365-0.56849-0.11965
  -1  -2 -1426679.44 1984.15   1 0.18626-0.28199-0.97825 0.75118-0.09120-0.59681
   1   2  1422117.16 1616.08   1 0.85347-0.75803 0.51129-0.28439 0.10075 0.58694
  -1   2 -1530438.55 1917.93   1 0.47468-0.57243-0.58900 0.81582-0.65402-0.08209
  -1  -2 -1532655.43 2037.82   1 0.48837-0.58581-0.84602 0.61890-0.21387-0.52323
  -1   2 -1526363.55 1740.37   1-0.41252 0.31543-0.70758 0.93474-0.57371-0.16358
  -1  -2 -1534069.46 2111.70   1 0.14809-0.24516-0.98073 0.75367-0.12735-0.60981
   1  -2  1532082.59 1975.82   1 0.85315-0.75597 0.33452-0.56142 0.40027 0.33659
   1   2  1529643.70 1819.71   1 0.86000-0.76324 0.48889-0.26198 0.14620 0.59061
  -1   2 -1620925.00 1820.43   1 0.47342-0.57256-0.58341 0.81023-0.65992-0.12526
  -1  -2 -1615249.16 1388.05   1 0.49222-0.59103-0.83275 0.60563-0.25344-0.53280
  -1   2 -1616799.88 2032.34   1-0.42299 0.32456-0.69595 0.92311-0.58027-0.20618
  -1  -2 -1614345.95 1298.76   1 0.10999-0.20839-0.98052 0.75345-0.16271-0.62359
   1  -2  1614530.90 1349.99   1 0.84951-0.75099 0.32152-0.54842 0.41825 0.36774
   1   2  1620608.83 1737.58   1 0.86414-0.76606 0.46623-0.23933 0.18939 0.59654
  -1   2 -17 6856.74  873.14   1 0.47173-0.57226-0.57611 0.80293-0.66750-0.16675
  -1  -2 -17 5612.67  834.74   1 0.49513-0.59530-0.81848 0.59136-0.29142-0.54396
  -1   2 -17 4614.83 1463.21   1-0.43546 0.33569-0.68167 0.90883-0.58795-0.24765
  -1  -2 -17 7484.62  866.60   1 0.07184-0.17159-0.97768 0.75062-0.19739-0.63806
   1  -2  17 5559.27  676.57   1 0.84524-0.74537 0.30772-0.53461 0.43688 0.39824
   1   2  17 5897.92  677.04   1 0.86618-0.76677 0.44328-0.21637 0.23071 0.60434
  -1   2 -18  328.48  361.86   1 0.46962-0.57155-0.56725 0.79407-0.67651-0.20682
  -1  -2 -18  913.92  466.21   1 0.49708-0.59890-0.80317 0.57597-0.32836-0.55638
  -1   2 -18  270.80  203.05   1-0.44974 0.34863-0.66469 0.89185-0.59658-0.28817
  -1  -2 -18  423.31  180.54   1 0.03330-0.13424-0.97231 0.74532-0.23128-0.65305
   1  -2  18  740.73  329.21   1 0.84028-0.73907 0.29313-0.52002 0.45605 0.42818
   1   2  18  461.88  351.12   1 0.86630-0.76557 0.41996-0.19305 0.27047 0.61370
   1   3 -17 1955.65  515.92   1 0.46733-0.41406-0.55783 0.89807-0.68586-0.14839
   1  -3 -17  952.51  380.22   1 0.47306-0.41925-0.87515 0.53447-0.10152-0.73386
   1  -3 -17 1447.76  348.70   1 0.20026-0.14600-0.97665 0.63605-0.07775-0.75770
  -1  -3  17 2842.05  632.50   1 0.77897-0.83218 0.16389-0.50438 0.60525 0.23036
   1   3 -1625009.47 2225.02   1 0.46881-0.41414-0.56386 0.90409-0.67990-0.10528
   1  -3 -1632211.96 2772.26   1 0.46456-0.40939-0.88393 0.54325-0.05326-0.73298
   1  -3 -1629049.53 2460.53   1 0.24766-0.19210-0.96831 0.62809-0.03193-0.75405
  -1  -3  1632105.28 2743.14   1 0.78337-0.83798 0.17141-0.51190 0.59744 0.18902
  -1   3  1623898.52 2002.00   1 0.85714-0.91256 0.35077-0.01043 0.37718 0.40880
   1   3 -1521679.73 1861.60   1 0.46984-0.41378-0.56813 0.90836-0.67563-0.06048
   1  -3 -1523616.87 2047.12   1 0.45436-0.39813-0.89081 0.55040-0.00282-0.73385
   1  -3 -1520194.55 1707.12   1 0.29425-0.23735-0.95561 0.61538 0.01477-0.75164
  -1  -3  1518165.76 1498.24   1 0.61817-0.67544 0.39494-0.73522 0.67961 0.05667
  -1  -3  1517858.16 1586.94   1 0.78683-0.84284 0.17743-0.51791 0.59111 0.14619
  -1   3  1523315.68 1914.27   1 0.86171-0.91848 0.37402-0.03368 0.34285 0.39402
   1   3 -1438207.88 2366.66   1 0.47038-0.41294-0.57042 0.91065-0.67331-0.01372
   1  -3 -1429646.08 1862.41   1 0.44250-0.38489-0.89537 0.55497 0.04990-0.73747
   1  -3 -1426489.88 1628.95   1 0.34048-0.28225-0.93817 0.59794 0.06245-0.75019
  -1  -3  1428132.61 1680.98   1 0.61741-0.67598 0.39659-0.73687 0.67935 0.00785
  -1   3  1438708.19 2288.54   1 0.86472-0.92314 0.39714-0.05679 0.30745 0.38023
   1   3 -1337494.42 2718.52   1 0.47039-0.41156-0.57046 0.91069-0.67327 0.03530
   1  -3 -1339803.60 2856.18   1 0.42857-0.36958-0.89734 0.55693 0.10533-0.74379
   1  -3 -1334445.67 2462.46   1 0.38630-0.32673-0.91564 0.57542 0.11114-0.74975
  -1  -3  1336275.47 2547.09   1 0.61932-0.67920 0.39247-0.73275 0.68000-0.04188
  -1  -3  1338801.62 2779.22   1 0.79066-0.84948 0.18423-0.52472 0.58386 0.05513
  -1   3  1333477.71 2351.39   1 0.86631-0.92606 0.42037-0.08002 0.26977 0.36879
   1   3 -1225098.80 1248.78   1 0.46978-0.40956-0.56789 0.90812-0.67586 0.08697
   1  -3 -1228483.76 1352.07   1 0.41224-0.35187-0.89622 0.55581 0.16381-0.75316
   1  -3 -1224912.78 1146.59   1 0.43266-0.37167-0.88710 0.54664 0.16074-0.75035
  -1  -3  1228039.29 1238.83   1 0.62326-0.68482 0.38271-0.72269 0.68195-0.09340
  -1  -3  1230518.09 1418.90   1 0.79083-0.85105 0.18454-0.52503 0.58353 0.00631
  -1   3  1226024.93 1148.38   1 0.86615-0.92722 0.44394-0.10358 0.22954 0.35990
   1   3 -1125304.46 1423.84   1 0.46841-0.40679-0.56222 0.90245-0.68153 0.14171
   1  -3 -1128234.83 1545.50   1 0.39346-0.33172-0.89131 0.55089 0.22527-0.76581
   1  -3 -1122474.74 1232.62   1 0.47716-0.41484-0.85303 0.51257 0.21130-0.75178
  -1  -3  1125339.29 1320.09   1 0.63091-0.69373 0.36552-0.70551 0.68435-0.14484
  -1  -3  1126786.48 1485.57   1 0.78961-0.85123 0.18234-0.52283 0.58588-0.04519
  -1   3  1124457.38 1264.04   1 0.86388-0.92627 0.46816-0.12781 0.18581 0.35451
   1   3 -1035317.42 1323.82   1 0.46608-0.40308-0.55280 0.89303-0.69077 0.20003
   1  -3 -1030976.00 1189.09   1 0.37096-0.30783-0.88190 0.54148 0.29092-0.78232
   1  -3 -1028299.36 1072.98   1 0.52056-0.45691-0.81242 0.47196 0.26263-0.75397
  -1  -3  1029317.35 1037.41   1 0.64141-0.70550 0.34082-0.68081 0.68733-0.19687
  -1   3  1024511.36  839.04   1-0.24250 0.17945-0.60689 0.94739 0.75687-0.26501
  -1  -3  1030199.50 1178.48   1 0.78670-0.84972 0.17720-0.51768 0.59135-0.09981
  -1   3  1036807.79 1253.89   1 0.85887-0.92258 0.49348-0.15313 0.13711 0.35409
   1   3  -931195.50 1218.16   1 0.46250-0.39811-0.53874 0.87897-0.70415 0.26248
   1  -3  -930543.78 1166.21   1 0.34445-0.27994-0.86678 0.52637 0.36058-0.80284
   1  -3  -929814.19 1087.14   1 0.56283-0.49766-0.76437 0.42376 0.31455-0.75680
  -1  -3   929265.55 1036.22   1 0.65454-0.71991 0.30784-0.64782 0.69050-0.24909
  -1   3   925105.96  850.01   1-0.19539 0.13094-0.59068 0.93118 0.78288-0.34020
  -1  -3   931868.51 1164.90   1 0.78169-0.84612 0.16852-0.50900 0.60046-0.15807
  -1   3   932665.37 1106.71   1 0.84986-0.91488 0.52073-0.18041 0.08103 0.36115
   1   3  -8101588.4 3535.82   1 0.45695-0.39117-0.51890 0.85904-0.72244 0.33017
   1  -3  -8129940.9 4465.84   1 0.31319-0.24729-0.84454 0.50412 0.43435-0.82746
  -1  -3   896828.27 3290.43   1-0.22328 0.15690-0.86904 0.52845-0.44147 0.83433
   1  -3  -8123945.7 4246.50   1 0.60251-0.53603-0.70899 0.36838 0.36646-0.75958
  -1  -3   8119731.1 4076.97   1 0.66987-0.73650 0.26584-0.60582 0.69324-0.30087
  -1   3   890326.71 3063.68   1-0.12559 0.05975-0.56371 0.90421 0.81636-0.42286
  -1  -3   8127892.4 4391.52   1 0.77398-0.83981 0.15555-0.49604 0.61380-0.22056
  -1   3   899470.53 3368.48   1 0.83489-0.90124 0.55022-0.20990 0.01398 0.37906
   1   3  -781445.03 2348.46   1 0.44932-0.38216-0.49158 0.83172-0.74595 0.40271
   1  -3  -792259.25 2607.24   1 0.27666-0.20942-0.81318 0.47266 0.51204-0.85599
  -1  -3   776560.97 2123.54   1-0.31542 0.24772-0.80113 0.46054-0.50861 0.85236
   1  -3  -793069.60 2657.39   1 0.63928-0.57148-0.64551 0.30489 0.41789-0.76186
  -1  -3   786884.66 2427.36   1 0.68663-0.75453 0.21427-0.55426 0.69470-0.35138
  -1   3   778503.72 2159.98   1-0.02323-0.04448-0.51752 0.85818 0.85535-0.51140
  -1  -3   793412.14 2657.03   1 0.76268-0.82992 0.13734-0.47783 0.63201-0.28793
  -1   3   781721.46 2247.06   1 0.80935-0.87703 0.58304-0.24272-0.07068 0.41461
   1   3  -628552.20  921.92   1 0.43838-0.36983-0.45471 0.79485-0.77527 0.48107
   1  -3  -624820.83  809.77   1 0.23330-0.16467-0.77090 0.43039 0.59268-0.88749
  -1  -3   623200.95  691.94   1-0.40520 0.33623-0.71551 0.37477-0.56907 0.86399
   1  -3  -625653.80  888.35   1 0.67224-0.60293-0.57336 0.23271 0.46834-0.76309
  -1  -3   624378.61  760.41   1 0.70371-0.77288 0.15298-0.49297 0.69381-0.39954
  -1   3   628832.26  824.43   1 0.12298-0.19202-0.43999 0.78065 0.88953-0.59472
  -1  -3   626903.04  863.49   1 0.74651-0.81515 0.11263-0.45312 0.65576-0.36084
  -1   3   631154.60  883.17   1 0.76345-0.83238 0.61904-0.27854-0.18419 0.47910
  -1   3   528690.16 1164.92   1-0.18474 0.11478 0.71461-0.37442-0.67468 0.92012
   1   3  -528318.99 1181.95   1 0.42273-0.35278-0.40548 0.74563-0.81047 0.56530
   1  -3  -527077.63 1135.76   1 0.70018-0.62959-0.49328 0.15264 0.51615-0.76177
  -1  -3   527666.09 1124.20   1 0.71929-0.78986 0.08236-0.42245 0.68980-0.44456
  -1   3   526584.82 1012.37   1 0.31601-0.38636-0.31453 0.65463 0.89509-0.64974
  -1  -3   526802.31 1097.03   1 0.72359-0.79363 0.07987-0.42036 0.68558-0.43981
  -1   3   528254.44 1079.26   1 0.67411-0.74439 0.65361-0.31312-0.34401 0.58977
  -1   3   434949.63 1405.27   1-0.12690 0.05555 0.64338-0.30318-0.75495 0.95131
  -1  -3   426772.98 1077.15   1 0.73259-0.80441 0.00372-0.34381 0.68065-0.48446
   1   3  -434416.30 1338.30   1 0.56624-0.49461 0.49528-0.15500 0.65883-0.85517
  -1   3   433085.78 1250.91   1 0.53097-0.60256-0.13664 0.47674 0.83629-0.64002
  -1  -3   425428.83 1036.17   1 0.69142-0.76283 0.03718-0.37737 0.72148-0.52504
  -1   3   432984.86 1251.72   1 0.49656-0.56805 0.66248-0.32209-0.56082 0.75734
  -1   3   3163928.2 3787.82   1-0.06215-0.01066 0.55573-0.21551-0.82903 0.97644
   1   3  -3160356.8 3716.21   1 0.36854-0.29590-0.25555 0.59568-0.89379 0.74672
   1  -3  -3157812.2 3672.66   1 0.73740-0.66441-0.31100-0.02922 0.59959-0.74679
  -1  -3   3158794.5 3673.03   1 0.74162-0.81469-0.08095-0.25913 0.66591-0.51876
   1   3  -3151240.1 3480.18   1 0.62868-0.55571 0.37059-0.03061 0.68367-0.83081
   1  -3  -3151988.5 3453.66   1-0.19638 0.26918-0.59104 0.25054 0.78236-0.92992
  -1   3   3168127.7 3817.76   1 0.70455-0.77734 0.05408 0.28610 0.70758-0.56024
   1   3  -3133614.5 3086.86   1 0.82426-0.75133 0.25267 0.08766 0.50669-0.65406
  -1   3   2170820.9 4001.87   1 0.00771-0.08191 0.45176-0.11154-0.89210 0.99037
   1   3  -2156695.7 3624.15   1 0.32441-0.25036-0.14769 0.48782-0.93431 0.83626
  -1  -3   2157414.6 3629.50   1 0.45261-0.52674-0.50317 0.16302-0.73617 0.83424
   1  -3  -2158928.6 3694.24   1 0.74443-0.67013-0.21241-0.12781 0.63301-0.73114
  -1  -3   2168736.3 3901.15   1 0.74495-0.81924-0.16889-0.17133 0.64537-0.54724
   1   3  -2140081.2 3232.87   1 0.67703-0.60278 0.24466 0.09532 0.69409-0.79218
   1  -3  -2172582.5 3923.61   1 0.16623-0.09197-0.41424 0.07414 0.89485-0.99299
  -1   3   2159726.2 3631.56   1 0.80221-0.87645 0.20562 0.13486 0.56051-0.46220
   1   3  -2150891.4 3476.48   1 0.79239-0.71815 0.18735 0.15313 0.58052-0.67882
  -1   3   1108957.3 1343.73   1 0.07962-0.15521 0.33528 0.00493-0.93874 0.98786
   1   3  -1107158.7 2501.43   1 0.26536-0.18982-0.01603 0.35621-0.96401 0.91492
  -1  -3   1108076.7 1298.44   1 0.41856-0.49407-0.39294 0.05280-0.81877 0.86781
  -1  -3   1112572.8 1399.15   1 0.74223-0.81781-0.25773-0.08249 0.61860-0.56953
   1  -3  -1106330.9 1369.23   1 0.74354-0.66797-0.11183-0.22825 0.65926-0.70831
   1   3  -196164.89 2249.29   1 0.71030-0.63473 0.12407 0.21601 0.69287-0.74191
  -1  -3   1108235.7 2521.15   1 0.49578-0.57131-0.16918-0.17091 0.85180-0.80273
   1  -3  -1108466.4 2482.76   1 0.45342-0.37789-0.20637-0.13372 0.86707-0.91614
   1   3  -1104538.9 2428.77   1 0.74565-0.67000 0.11136 0.22912 0.65695-0.70611
  -1   3   1104574.5 1184.50   1 0.84487-0.92049 0.30656 0.03377 0.43841-0.38929
  -1   3   0134505.0 1619.53   1 0.14937-0.22631 0.21259 0.12762-0.96565 0.96565
   1   3   0136923.9 1603.21   1 0.19020-0.11328 0.13577 0.20440-0.97231 0.97231
  -1  -3   0123942.0 1458.09   1 0.37131-0.44820-0.26269-0.07743-0.89057 0.89057
  -1  -3   0127116.1 1496.58   1 0.38170-0.45855-0.26497-0.07512 0.88548-0.88548
   1  -3   0127477.0 1449.31   1 0.62914-0.55222-0.03653-0.30365 0.77642-0.77642
   1   3   0132762.9 1546.62   1 0.68146-0.60454 0.02470 0.31548 0.73143-0.73143
  -1   3   0130988.5 1478.33   1 0.86166-0.93863 0.37374-0.03340 0.34327-0.34327
   1   3   117195.70  722.39   1 0.10246-0.02415 0.29619 0.04402-0.94961 0.99873
  -1   3  -117324.42  749.88   1 0.21300-0.29131 0.09128 0.24889-0.97277 0.92368
  -1  -3  -113197.77  547.19   1 0.31179-0.39009-0.11851-0.22161-0.94272 0.89370
   1  -3   114178.13  610.06   1 0.35862-0.28032-0.23042-0.10970-0.90459 0.95361
   1   3   114693.50  634.50   1 0.74182-0.66375-0.08370 0.42378 0.66535-0.61630
   1  -3   113417.74  604.49   1 0.71935-0.64128 0.08206-0.42215 0.68978-0.64073
  -1  -3  -113695.19  649.60   1 0.23986-0.31803-0.36735 0.02725 0.89861-0.94768
   1   3   115488.17  623.79   1 0.59795-0.51965-0.07023 0.41043 0.79844-0.74933
   1  -3   115836.32  656.53   1 0.72585-0.64739 0.08299-0.42348 0.68282-0.63366
  -1   3  -116536.79  673.64   1 0.86632-0.94458 0.42074-0.08039 0.26916-0.31828
   1   3   2 8723.66  429.58   1 0.00916 0.07055 0.44950-0.10928-0.89323 0.99150
  -1  -3  -2 7551.07  342.56   1 0.24379-0.32348 0.02910-0.36928-0.96938 0.87120
  -1   3  -2 7082.24  367.63   1 0.26799-0.34768-0.02164 0.36181-0.96317 0.86498
  -1  -3  -2 7846.42  495.47   1 0.69701-0.77652-0.50366 0.16301 0.51038-0.60863
  -1   3  -2 6466.51  343.65   1 0.55634-0.63579 0.51225-0.17196 0.65428-0.75245
   1   3   2 7270.99  323.24   1 0.49680-0.41733-0.16826 0.50836 0.85139-0.75325
   1  -3   2 8127.90  392.22   1 0.77885-0.69899 0.16368-0.50417 0.60547-0.50716
  -1   3  -2 7790.05  357.23   1 0.86530-0.94488 0.45602-0.11566 0.20805-0.30630
   1   3   344464.01 1704.43   1-0.08062 0.16173 0.58135-0.24116-0.80964 0.95691
  -1  -3  -342936.20 1642.23   1 0.17373-0.25476 0.16732-0.50754-0.97047 0.82310
  -1   3  -342614.83 1670.54   1 0.31293-0.39407-0.12113 0.46125-0.94201 0.79495
  -1  -3  -348412.43 1891.80   1 0.67210-0.75288-0.57369 0.23305 0.46812-0.61550
   1   3   341526.43 1592.01   1 0.38443-0.30364-0.26284 0.60294 0.88494-0.73773
   1  -3   347219.89 1815.58   1 0.80845-0.72719 0.21786-0.55835 0.54674-0.39928
  -1   3  -341057.30 1582.48   1 0.86111-0.94201 0.48389-0.14353 0.15595-0.30332
   1   3   4113585.7 2631.96   1-0.16042 0.24292 0.68555-0.34535-0.71012 0.90648
  -1  -3  -4111887.6 2594.84   1 0.10785-0.19024 0.28682-0.62704-0.95189 0.75539
  -1   3  -4109821.7 2609.66   1 0.34872-0.43127-0.20588 0.54600-0.91433 0.71824
  -1  -3  -4122609.6 2900.91   1 0.64359-0.72579-0.63705 0.29643 0.42420-0.62076
   1  -3   4117915.4 2776.19   1 0.65056-0.56870 0.31812-0.65810 0.68961-0.49343
  -1  -3  -4113292.5 2624.14   1-0.25216 0.16961-0.61001 0.26951 0.75119-0.94794
   1   3   4106366.4 2465.62   1 0.27009-0.18801-0.34693 0.68703 0.89815-0.70187
   1  -3   4119279.7 2783.59   1 0.82494-0.74258 0.25422-0.59456 0.50481-0.30831
  -1   3  -4101131.3 2360.64   1 0.85498-0.93720 0.50685-0.16650 0.10999-0.30647
  -1  -3  -5110943.7 2580.47   1 0.05009-0.13395 0.38421-0.72443-0.92188 0.67620
  -1   3  -5110598.2 2636.98   1 0.37634-0.46031-0.27574 0.61587-0.88449 0.63938
  -1  -3  -5109207.7 2551.54   1 0.22519-0.30912-0.76241 0.42190 0.60663-0.85231
  -1  -3  -5114073.6 2723.54   1 0.61237-0.69587-0.69331 0.35270 0.37988-0.62558
   1  -3   5116218.7 2738.70   1 0.62587-0.54274 0.37692-0.71691 0.68279-0.43756
   1   3   5104903.9 2446.68   1 0.16267-0.07928-0.41640 0.75651 0.89450-0.64915
   1  -3   5113312.6 2672.05   1 0.83495-0.75124 0.27871-0.61905 0.47452-0.22889
   1   3   5115195.8 2680.25   1 0.38879-0.30503 0.64688-0.30649-0.65603 0.90167
  -1   3  -669648.69 2015.31   1 0.39742-0.48267-0.33224 0.67238-0.85537 0.56117
  -1  -3  -657205.51 1637.45   1 0.28004-0.36537-0.81623 0.47571 0.50531-0.80012
  -1  -3  -660655.91 1772.80   1 0.57909-0.66391-0.74304 0.40243 0.33545-0.63028
   1  -3   664970.60 1866.92   1 0.60342-0.51874 0.42565-0.76593 0.67431-0.37979
   1   3   664165.13 1799.28   1 0.06920 0.01576-0.47019 0.81085 0.87984-0.58503
   1  -3   663571.36 1833.25   1 0.84087-0.75582 0.29479-0.63513 0.45389-0.15914
   1   3   666346.07 1863.52   1 0.50250-0.41748 0.66321-0.32283-0.55464 0.84940
  -1   3  -750752.47 1821.80   1 0.41315-0.49980-0.37697 0.71711-0.82897 0.48573
  -1  -3  -751374.03 1521.51   1 0.32360-0.41030-0.85242 0.51200 0.41067-0.75465
  -1  -3  -748558.45 1481.24   1 0.54394-0.63020-0.78695 0.44648 0.29126-0.63520
   1  -3   752491.75 1561.19   1 0.58287-0.49688 0.46539-0.80567 0.66608-0.32248
   1   3   755901.17 1587.24   1-0.00925 0.09555-0.51074 0.85140 0.85968-0.51573
   1  -3   749251.19 1766.08   1 0.84429-0.75789 0.30480-0.64514 0.44075-0.09688
   1   3   761714.36 1756.36   1 0.59247-0.50611 0.66455-0.32416-0.45534 0.79922
  -1   3  -823265.31 1598.22   1 0.42486-0.51290-0.41197 0.75212-0.80608 0.41380
  -1  -3  -829656.48 2034.11   1 0.35877-0.44686-0.87543 0.53501 0.32386-0.71698
  -1  -3  -823800.53 1632.20   1 0.50804-0.59563-0.82497 0.48451 0.24759-0.64067
   1  -3   829239.29 1997.72   1 0.56531-0.47802 0.49690-0.83719 0.65841-0.26572
   1  -3   825471.26 1743.82   1 0.84607-0.75832 0.31027-0.65061 0.43346-0.04046
   1   3   825249.94 1698.07   1 0.66205-0.57438 0.65620-0.31570-0.36205 0.75525
  -1   3  -913195.82  605.46   1 0.43350-0.52294-0.43897 0.77911-0.78700 0.34569
  -1  -3  -913565.35  657.22   1 0.38701-0.47648-0.88898 0.54856 0.24478-0.68704
  -1  -3  -912036.18  626.35   1 0.47135-0.56028-0.85788 0.51742 0.20460-0.64680
   1  -3   912231.75  579.53   1 0.55099-0.46239 0.52116-0.86144 0.65175-0.20998
   1  -3   913015.64  637.31   1 0.84670-0.75760 0.31226-0.65261 0.43079 0.01132
   1   3   914344.73  627.59   1 0.71552-0.62651 0.64150-0.30100-0.27658 0.71894
  -1   3 -1052458.69 1833.73   1 0.43981-0.53064-0.45938 0.79953-0.77170 0.28136
  -1  -3 -1063403.22 2153.65   1 0.40944-0.50019-0.89573 0.55532 0.17327-0.66439
  -1  -3 -1052660.44 1848.23   1 0.43409-0.52435-0.88611 0.54565 0.16235-0.65369
   1  -3  1060786.31 2063.79   1 0.53996-0.45005 0.53906-0.87934 0.64641-0.15555
   1  -3  1057238.16 1965.18   1 0.84645-0.75602 0.31150-0.65184 0.43182 0.05942
   1   3  1051754.58 1744.48   1 0.75659-0.66623 0.62298-0.28248-0.19865 0.69016
  -1   3 -1157862.14 2979.56   1 0.44431-0.53653-0.47439 0.81453-0.75995 0.22058
  -1  -3 -1151328.54 2625.30   1 0.42807-0.52020-0.89736 0.55695 0.10721-0.64744
  -1  -3 -1145150.85 2355.90   1 0.39548-0.48716-0.91045 0.57022 0.12107-0.66144
   1  -3  1150273.32 2569.15   1 0.53211-0.44091 0.55138-0.89167 0.64251-0.10256
   1  -3  1149312.66 2532.99   1 0.84549-0.75371 0.30849-0.64883 0.43584 0.10452
   1   3  1154157.35 2726.77   1 0.78800-0.69650 0.60230-0.26198-0.12757 0.66802
  -1  -3 -1233466.49 1988.80   1 0.44335-0.53687-0.89514 0.55474 0.04629-0.63563
  -1  -3 -1232419.31 1927.71   1 0.35748-0.45050-0.93045 0.59022 0.08034-0.66983
   1  -3  1231865.54 1888.26   1 0.52730-0.43478 0.55880-0.89908 0.64007-0.05103
   1  -3  1232754.89 1952.44   1 0.84389-0.75076 0.30362-0.64396 0.44232 0.14717
   1   3  1237538.48 2192.44   1 0.81219-0.71936 0.58004-0.23972-0.06237 0.65195
  -1  -3 -1320588.43 1556.95   1 0.45593-0.55083-0.88995 0.54954-0.01029-0.62815
  -1  -3 -1321647.92 1639.19   1 0.31921-0.41357-0.94682 0.60659 0.04035-0.67896
   1  -3  1322532.68 1655.34   1 0.52531-0.43149 0.56183-0.90211 0.63905-0.00093
   1  -3  1319441.28 1493.12   1 0.84169-0.74721 0.29715-0.63749 0.45082 0.18779
   1   3  1314605.93 1103.10   1 0.83058-0.73643 0.55688-0.21655-0.00219 0.64091
  -1   3 -14 8033.41 1065.72   1 0.45037-0.54676-0.49523 0.83538-0.74290 0.05642
  -1  -3 -14 9059.91 1155.69   1 0.46642-0.56250-0.88229 0.54161-0.06327-0.62469
  -1  -3 -14 8919.37 1126.68   1 0.28071-0.37640-0.95979 0.61956 0.00106-0.68880
   1  -3  14 7806.54  939.16   1 0.52593-0.43080 0.56089-0.90117 0.63937 0.04783
   1  -3  14 7251.59  943.33   1 0.83890-0.74307 0.28928-0.62962 0.46103 0.22671
   1   3  14 6031.16  750.61   1 0.84434-0.74886 0.53310-0.19277 0.05377 0.63406
  -1   3 -1528304.95 2425.07   1 0.45060-0.54838-0.49605 0.83619-0.74221 0.00671
  -1  -3 -1525361.91 2152.56   1 0.47493-0.57238-0.87271 0.53203-0.11315-0.62395
  -1  -3 -1525349.40 2151.48   1 0.24196-0.33899-0.96955 0.62932-0.03756-0.69930
   1  -3  1525597.35 2104.44   1 0.52894-0.43251 0.55628-0.89656 0.64090 0.09538
   1  -3  1526280.63 2234.25   1 0.83551-0.73834 0.28018-0.62052 0.47266 0.26420
   1   3  1525736.99 2109.49   1 0.85437-0.75761 0.50869-0.16833 0.10619 0.63062
  -1   3 -16 5122.19 1105.29   1 0.45015-0.54932-0.49445 0.83460-0.74355-0.04098
  -1  -3 -16 2972.64  673.43   1 0.48188-0.58069-0.86142 0.52074-0.16045-0.62579
  -1  -3 -16 3038.62  693.98   1 0.20258-0.30098-0.97634 0.63574-0.07552-0.71079
   1  -3  16 3553.04  761.03   1 0.53416-0.43642 0.54820-0.88848 0.64353 0.14183
   1  -3  16 3604.34  850.76   1 0.83150-0.73298 0.26994-0.61028 0.48552 0.30047
   1   3  16 4234.97  904.25   1 0.86109-0.76300 0.48402-0.14366 0.15571 0.63022
  -1   3 -1713546.48 1692.58   1 0.44908-0.54964-0.49071 0.83086-0.74667-0.08690
  -1  -3 -17 8163.05 1100.11   1 0.48745-0.58763-0.84860 0.50792-0.20554-0.62983
  -1  -3 -17 6131.61  802.96   1 0.16329-0.26304-0.98007 0.63947-0.11305-0.72241
   1  -3  17 7801.80  961.59   1 0.54139-0.44235 0.53677-0.87705 0.64712 0.18734
   1   3  1711118.87 1341.79   1 0.86501-0.76561 0.45894-0.11858 0.20277 0.63227
   1   4 -16 3597.09  620.22   1 0.44242-0.38777-0.46801 0.92154-0.76499-0.01954
   1  -4 -16 3353.24  754.85   1 0.44908-0.39423-0.89323 0.43935 0.02138-0.80718
   1  -4 -16 2431.50  587.62   1 0.32158-0.26603-0.94591 0.49227 0.04280-0.82879
  -1  -4  16 3854.10  634.04   1 0.75193-0.80654 0.12076-0.57474 0.64807 0.13838
   1   4 -15  884.17  414.09   1 0.44250-0.38647-0.46830 0.92183-0.76477 0.02926
   1  -4 -15 1378.02  539.14   1 0.43627-0.38004-0.89664 0.44277 0.07542-0.81210
   1  -4 -15  976.32  358.91   1 0.36513-0.30824-0.92674 0.47310 0.08846-0.82532
  -1  -4  15  932.49  377.59   1 0.75439-0.81040 0.12449-0.57847 0.64450 0.09280
   1   4 -14 8170.39  727.99   1 0.44186-0.38443-0.46615 0.91968-0.76645 0.07998
   1  -4 -14 6399.03 1213.27   1 0.42145-0.36384-0.89725 0.44337 0.13160-0.81916
   1  -4 -14 4172.83  786.62   1 0.40763-0.34940-0.90320 0.44957 0.13433-0.82207
  -1  -4  14 5711.30  977.61   1 0.68723-0.74624 0.21230-0.66561 0.69472-0.00807
  -1  -4  14 6611.34 1227.10   1 0.75564-0.81306 0.12641-0.58039 0.64266 0.04549
   1   4 -13 2387.52  622.87   1 0.44037-0.38155-0.46122 0.91474-0.77028 0.13284
   1  -4 -13  906.08  501.14   1 0.40435-0.34536-0.89463 0.44075 0.19006-0.82852
   1  -4 -13  817.73  256.16   1 0.44996-0.39031-0.87467 0.42072 0.18018-0.81892
  -1  -4  13  654.53  194.41   1 0.68897-0.74925 0.20649-0.65980 0.69475-0.05715
  -1  -4  13 1768.91  554.59   1 0.75558-0.81440 0.12630-0.58029 0.64276-0.00375
  -1   4  13 1155.84  247.66   1 0.86642-0.92617 0.42468 0.02913 0.26259 0.37597
   1   4 -1233461.08 1950.42   1 0.43789-0.37768-0.45310 0.90662-0.77649 0.18808
   1  -4 -1237281.25 2101.72   1 0.38509-0.32474-0.88823 0.43434 0.25049-0.84017
   1  -4 -1233640.61 1910.52   1 0.48992-0.42893-0.84191 0.38796 0.22617-0.81577
  -1  -4  1233890.95 1854.37   1 0.69231-0.75386 0.19508-0.64839 0.69473-0.10617
  -1  -4  1240927.37 2299.17   1 0.75401-0.81423 0.12391-0.57790 0.64505-0.05521
  -1   4  1232404.65 1761.68   1 0.86556-0.92663 0.45300 0.00080 0.21349 0.37595
   1   4 -1132167.08 1947.92   1 0.43422-0.37262-0.44126 0.89479-0.78531 0.24594
   1  -4 -1134285.87 2076.12   1 0.36253-0.30079-0.87751 0.42362 0.31389-0.85443
   1  -4 -1128770.94 1764.73   1 0.52827-0.46596-0.80432 0.35037 0.27200-0.81247
  -1  -4  1127214.35 1591.88   1 0.69713-0.75995 0.17790-0.63121 0.69451-0.15501
  -1  -4  1132289.39 1968.40   1 0.75070-0.81233 0.11890-0.57288 0.64984-0.10914
  -1   4  1133136.69 1895.36   1 0.86138-0.92377 0.48258-0.02877 0.15848 0.38184
   1   4 -1055383.39 2422.20   1 0.42909-0.36610-0.42507 0.87859-0.79698 0.30664
   1  -4 -1051550.60 2233.25   1 0.33666-0.27354-0.86165 0.40776 0.37975-0.87115
   1  -4 -1046190.77 2013.63   1 0.56514-0.50127-0.76145 0.30730 0.31748-0.80887
  -1  -4  1047313.46 2012.45   1 0.70325-0.76734 0.15480-0.60811 0.69388-0.20342
  -1  -4  1051857.81 2255.42   1 0.74532-0.80834 0.11087-0.56485 0.65742-0.16588
  -1   4  1056932.34 2358.59   1 0.85237-0.91607 0.51425-0.06048 0.09489 0.39641
   1   4  -937580.98 1990.75   1 0.42214-0.35775-0.40369 0.85722-0.81168 0.37037
   1  -4  -939971.81 2086.45   1 0.30744-0.24298-0.83955 0.38553 0.44790-0.89012
   1  -4  -936232.64 1904.81   1 0.59937-0.53419-0.71381 0.25966 0.36223-0.80449
  -1  -4   936457.64 1877.74   1 0.70995-0.77554 0.12557-0.57902 0.69295-0.25152
  -1   4   931643.03 1583.72   1 0.18981-0.25495-0.39965 0.85312 0.89679-0.45516
  -1  -4   936965.99 1941.11   1 0.73739-0.80181 0.09930-0.55328 0.66812-0.22573
  -1   4   939016.86 1947.61   1 0.83626-0.90128 0.54798-0.09422 0.01933 0.42284
   1   4  -812813.17 1387.13   1 0.41286-0.34709-0.37615 0.82968-0.82948 0.43721
   1  -4  -814992.57 1613.91   1 0.27376-0.20791-0.81052 0.35650 0.51778-0.91086
   1  -4  -816029.44 1732.39   1 0.63099-0.56450-0.66109 0.20694 0.40595-0.79906
  -1  -4   815353.04 1626.32   1 0.71768-0.78451 0.09030-0.54375 0.69048-0.29809
  -1   4   812745.33 1365.13   1 0.29085-0.35728-0.33250 0.78597 0.89713-0.50457
  -1  -4   816048.47 1704.19   1 0.72628-0.79211 0.08359-0.53758 0.68228-0.28905
  -1   4   815282.43 1570.08   1 0.80821-0.87456 0.58422-0.13045-0.07397 0.46702
   1   4  -754167.05 1891.29   1 0.40065-0.33348-0.34124 0.79477-0.85031 0.50707
   1  -4  -756739.94 1925.98   1 0.23562-0.16837-0.77330 0.31927 0.58863-0.93258
   1  -4  -755936.79 1917.83   1 0.65955-0.59176-0.60340 0.14925 0.44819-0.79217
  -1  -4   755829.48 1874.41   1 0.72550-0.79358 0.04902-0.50247 0.68646-0.34312
  -1   4   749263.64 1583.58   1 0.40893-0.47658-0.24332 0.69679 0.87952-0.53604
  -1  -4   758078.93 1983.30   1 0.71131-0.77858 0.06300-0.51660 0.70004-0.35626
  -1   4   755452.69 1788.30   1 0.75960-0.82720 0.62128-0.16729-0.19236 0.53642
   1   4  -6184802.1 6303.66   1 0.38456-0.31617-0.29746 0.75096-0.87385 0.57972
   1  -4  -6157092.9 5374.64   1 0.68463-0.61532-0.54073 0.08654 0.48875-0.78350
  -1  -4   6156321.9 5313.48   1 0.73282-0.80215 0.00202-0.45547 0.68041-0.38612
  -1   4   6166828.8 5599.71   1 0.53507-0.60403-0.13275 0.58621 0.83431-0.53990
  -1  -4   6167296.0 5707.77   1 0.69102-0.75967 0.03667-0.49026 0.72189-0.42722
  -1   4   6182309.6 6119.32   1 0.67449-0.74342 0.65353-0.19953-0.34345 0.63835
  -1   4   5116092.5 3965.99   1-0.14758 0.07762 0.66967-0.21608-0.72783 0.97328
   1   4  -5112858.8 3889.97   1 0.36384-0.29403-0.24356 0.69706-0.89905 0.65394
   1  -4  -595288.88 3316.38   1 0.70570-0.63512-0.47407 0.01988 0.52653-0.77215
  -1  -4   593045.44 3206.13   1 0.73897-0.80955-0.05018-0.40326 0.67186-0.42661
  -1  -4   5102693.2 3540.93   1 0.66404-0.73407 0.00357-0.45716 0.74768-0.50212
  -1   4   5108644.2 3655.72   1 0.65107-0.72110-0.01166 0.46525 0.75892-0.51336
  -1   4   5107151.1 3606.89   1 0.53173-0.60190 0.66492-0.21107-0.52453 0.77017
  -1   4   435667.59 1288.59   1-0.09619 0.02484 0.60269-0.14910-0.79215 0.98850
   1   4  -434622.08 1274.25   1 0.33719-0.26597-0.17794 0.63144-0.92446 0.72837
   1  -4  -447506.50 1743.49   1 0.72243-0.65057-0.40381-0.05037 0.56126-0.75776
  -1  -4   447258.12 1703.27   1 0.74328-0.81510-0.10686-0.34658 0.66038-0.46419
  -1  -4   445426.28 1634.37   1 0.62839-0.69980-0.03737-0.41621 0.77699-0.58054
  -1   4   435594.54 1220.54   1 0.74098-0.81242 0.10450 0.34947 0.66334-0.46672
  -1   4   436414.34 1250.76   1 0.32128-0.39277 0.63132-0.17746-0.70583 0.90235
  -1   4   358387.25 1691.27   1-0.04152-0.03130 0.52598-0.07236-0.84947 0.99688
   1   4  -355872.96 1639.12   1 0.30341-0.23077-0.09949 0.55299-0.94764 0.80058
   1  -4  -361235.05 1812.93   1 0.73502-0.66202-0.33042-0.12320 0.59207-0.73928
  -1  -4   360959.94 1774.44   1 0.74494-0.81794-0.16684-0.28679 0.64592-0.49871
   1  -4  -362639.83 1728.30   1-0.07296 0.14599-0.54061 0.08640 0.83809-0.98550
  -1  -4   363382.10 1822.45   1 0.58161-0.65440-0.08719-0.36640 0.80877-0.66144
  -1   4   356241.26 1553.27   1 0.80014-0.87298 0.20168 0.25229 0.56487-0.41741
  -1   4   212872.29 1039.77   1 0.01496-0.08916 0.44044 0.01318-0.89765 0.99592
   1   4  -2 9107.25  417.87   1 0.26168-0.18752-0.00824 0.46180-0.96511 0.86692
   1  -4  -2 8367.54  448.45   1 0.74235-0.66806-0.25589-0.19773 0.61921-0.71735
  -1  -4   2 8156.33  438.50   1 0.74380-0.81809-0.22952-0.22411 0.62775-0.52961
   1  -4  -2 9529.25  550.89   1 0.17552-0.10126-0.40853-0.04493 0.89570-0.99384
  -1  -4   2 7720.67  371.70   1 0.52044-0.59466-0.14655-0.30691 0.84122-0.74308
  -1   4   2 9655.76  319.87   1 0.83426-0.90854 0.27693 0.17685 0.47676-0.37851
  -1   4   125816.48 1680.67   1 0.07154-0.14712 0.34888 0.10474-0.93443 0.98355
   1   4  -124240.79  771.76   1 0.21098-0.13543 0.09529 0.35827-0.97283 0.92373
  -1  -4   120469.69  725.70   1 0.73927-0.81486-0.29338-0.16024 0.60612-0.55706
   1  -4  -119644.56  737.60   1 0.74496-0.66937-0.18108-0.27254 0.64205-0.69112
   1  -4  -120210.65  608.71   1 0.37674-0.30121-0.26884-0.18462 0.88644-0.93551
  -1  -4   119687.68  646.71   1 0.44292-0.51845-0.21527-0.23818 0.87032-0.82125
  -1   4   123653.41  692.85   1 0.85320-0.92883 0.33474 0.11904 0.39997-0.35085
   1   4   094338.71 2637.14   1 0.15213-0.07518 0.20753 0.24609-0.96632 0.96632
  -1   4   096741.59 2717.62   1 0.12605-0.20299 0.25471 0.19890-0.95876 0.95876
  -1  -4   088375.60 2515.62   1 0.73116-0.80804-0.35724-0.09638 0.58118-0.58118
   1  -4   093069.32 2659.22   1 0.74330-0.66648-0.10731-0.34614 0.66028-0.66028
  -1  -4   085837.61 2397.21   1 0.34658-0.42345-0.29199-0.16147 0.89141-0.89141
   1  -4   087756.52 2419.97   1 0.52240-0.44556-0.14471-0.30875 0.84032-0.84032
  -1   4   091326.80 2510.79   1 0.86262-0.93959 0.37973 0.07404 0.33417-0.33417
   1   4   1103009.0 2956.32   1 0.08668-0.00838 0.32331 0.13031-0.94231 0.99143
  -1   4  -1103040.5 2889.18   1 0.17676-0.25506 0.16160 0.29202-0.97089 0.92177
  -1  -4  -1118816.8 3333.96   1 0.71899-0.79723-0.42020-0.03398 0.55359-0.60271
  -1  -4  -1121134.9 3343.41   1 0.23104-0.30921-0.37318-0.08028 0.89852-0.94759
   1  -4   1116876.3 3214.69   1 0.62222-0.54392-0.04418-0.40941 0.78158-0.73247
   1   4   195227.89 2632.77   1 0.69260-0.61430 0.03867 0.41492 0.72028-0.67117
  -1   4  -197764.83 2691.24   1 0.86612-0.94438 0.41570 0.03810 0.27751-0.32663
   1   4   2148911.6 4102.19   1 0.01762 0.06208 0.43626 0.01736-0.89964 0.99791
  -1   4  -2137661.6 3825.50   1 0.22220-0.30189 0.07297 0.38059-0.97226 0.87407
   1  -4   2135089.7 3774.04   1 0.72848-0.64916 0.03119-0.48464 0.68435-0.58625
  -1  -4  -2133379.2 3667.93   1 0.09902-0.17867-0.45369-0.00051 0.88563-0.98390
   1   4   2123221.5 3380.40   1 0.63121-0.55153-0.03423 0.48783 0.77485-0.67662
   1  -4   2141037.5 3876.23   1 0.68842-0.60874 0.03339-0.48698 0.72453-0.62631
  -1   4  -2124922.9 3425.56   1 0.86607-0.94565 0.44548 0.00832 0.22683-0.32507
   1   4   3176679.8 4842.49   1-0.05127 0.13237 0.54014-0.08652-0.84000 0.98741
  -1   4  -3171786.8 4753.59   1 0.26187-0.34293-0.00863 0.46219-0.96506 0.81778
  -1  -4  -3136439.0 3812.21   1 0.68525-0.76603-0.53899 0.08480 0.48980-0.63718
   1  -4   3135460.2 3779.97   1 0.71696-0.63640 0.09377-0.54723 0.69077-0.54362
  -1  -4  -3138435.0 3818.11   1-0.04187-0.03911-0.52637 0.07216 0.84921-0.99662
   1   4   3149261.8 4080.17   1 0.56007-0.47901-0.10887 0.56246 0.82125-0.67392
   1  -4   3143928.1 3965.19   1 0.73229-0.65103 0.09203-0.54601 0.67473-0.52727
   1   4   4 7775.65  822.64   1-0.11687 0.19938 0.63030-0.17671-0.76750 0.96385
  -1   4  -4 7398.24  587.98   1 0.29552-0.37797-0.08160 0.53517-0.95184 0.75546
  -1  -4  -4 8926.39  714.80   1 0.66372-0.74592-0.59394 0.13979 0.45464-0.65119
   1  -4   4 9268.64  711.81   1 0.70423-0.62238 0.15090-0.60421 0.69373-0.49755
  -1  -4  -4 9821.27  956.08   1-0.18267 0.10011-0.58603 0.13202 0.78942-0.98617
   1   4   4 5796.48  430.17   1 0.48187-0.39977-0.18162 0.63509 0.85720-0.66093
   1  -4   410035.56  753.53   1 0.76179-0.67912 0.13593-0.58992 0.63339-0.43678
   1   4   551673.15 1804.93   1-0.17674 0.26063 0.70519-0.25160-0.68662 0.93207
  -1   4  -551910.64 1870.74   1 0.32319-0.40716-0.14484 0.59834-0.93518 0.69007
  -1  -4  -549908.73 1817.47   1 0.63951-0.72301-0.64506 0.19091 0.41822-0.66392
   1  -4   548348.44 1755.34   1 0.69034-0.60722 0.20182-0.65514 0.69475-0.44952
   1   4   543992.90 1526.90   1 0.40083-0.31742-0.24984 0.70330 0.88142-0.63608
   1  -4   549385.38 1758.45   1 0.78169-0.69762 0.16852-0.62250 0.60046-0.35469
   1   4   553000.16 1852.44   1 0.31214-0.22838 0.62891-0.17505-0.71205 0.95770
  -1   4  -659296.49 2119.08   1 0.34603-0.43141-0.19930 0.65280-0.91680 0.62268
  -1  -4  -656269.26 1970.38   1 0.22750-0.31283-0.76485 0.31083 0.60269-0.89750
  -1  -4  -660041.86 2159.86   1 0.61297-0.69778-0.69233 0.23818 0.38070-0.67554
   1  -4   660771.85 2158.55   1 0.67643-0.59204 0.24645-0.69976 0.69403-0.39976
   1   4   650016.61 1730.90   1 0.32143-0.23674-0.31060 0.76407 0.89454-0.60012
   1  -4   662901.04 2211.51   1 0.79518-0.70971 0.19243-0.64641 0.57502-0.28010
   1   4   660773.66 2109.52   1 0.42969-0.34457 0.65424-0.20038-0.62235 0.91712
  -1   4  -7 6275.62  405.10   1 0.36445-0.45125-0.24513 0.69863-0.89837 0.55522
  -1  -4  -7 9728.66  493.08   1 0.27357-0.36029-0.81035 0.35633 0.51815-0.86209
  -1  -4  -710493.63  546.28   1 0.58441-0.67054-0.73567 0.28152 0.34240-0.68637
   1  -4   710246.84  503.16   1 0.66315-0.57748 0.28479-0.73810 0.69218-0.34886
   1  -4   710484.76  502.74   1 0.80428-0.71741 0.20963-0.66361 0.55603-0.21195
   1   4   7 7129.37  397.04   1 0.52859-0.44223 0.66479-0.21094-0.52785 0.87174
  -1   4  -886769.75 2916.61   1 0.37916-0.46738-0.28315 0.73665-0.88093 0.48876
  -1  -4  -875075.48 2489.65   1 0.31246-0.40054-0.84397 0.39008 0.43597-0.82909
  -1  -4  -869755.50 2372.73   1 0.55379-0.64139-0.77533 0.32138 0.30357-0.69665
   1  -4   872380.89 2447.60   1 0.65098-0.56405 0.31703-0.77034 0.68971-0.29734
   1  -4   876845.49 2586.28   1 0.81030-0.72202 0.22158-0.67556 0.54250-0.14926
   1   4   887894.22 2865.90   1 0.60976-0.52204 0.66334-0.20949-0.43377 0.82678
  -1   4  -922943.79 1312.99   1 0.39091-0.48034-0.31438 0.76791-0.86507 0.42376
  -1  -4  -933707.23 1787.75   1 0.34573-0.43520-0.86760 0.41371 0.35738-0.79964
  -1  -4  -927569.75 1486.94   1 0.52203-0.61096-0.81090 0.35695 0.26441-0.70661
   1  -4   932983.41 1724.80   1 0.64032-0.55212 0.34344-0.79676 0.68704-0.24562
   1  -4   933296.48 1751.35   1 0.81407-0.72439 0.22934-0.68332 0.53355-0.09116
   1   4   923771.64 1268.17   1 0.67456-0.58554 0.65351-0.19952-0.34334 0.78570
  -1   4 -10 6660.34  862.48   1 0.39999-0.49082-0.33941 0.79294-0.85134 0.36101
  -1  -4 -1012637.90 1507.78   1 0.37379-0.46465-0.88327 0.42938 0.28302-0.77442
  -1  -4 -1012216.89 1466.17   1 0.48901-0.57926-0.84273 0.38878 0.22510-0.71644
   1  -4  1013356.66 1574.43   1 0.63140-0.54193 0.36440-0.81771 0.68449-0.19403
   1  -4  1013577.10 1599.62   1 0.81614-0.72506 0.23370-0.68768 0.52847-0.03693
   1   4  10 8154.86  975.01   1 0.72560-0.63525 0.63765-0.18365-0.25863 0.75014
  -1   4 -11 2276.72  479.79   1 0.40699-0.49921-0.35918 0.81271-0.83984 0.30047
  -1  -4 -11 2152.70  375.90   1 0.39742-0.48966-0.89257 0.43868 0.21297-0.75351
  -1  -4 -11  946.34  241.40   1 0.45491-0.54649-0.87094 0.41699 0.18578-0.72626
   1  -4  11 1784.72  367.28   1 0.62437-0.53363 0.38025-0.83356 0.68231-0.14281
   1  -4  11  663.22  329.27   1 0.81687-0.72439 0.23526-0.68924 0.52665 0.01404
   1   4  11 3237.91  367.51   1 0.76544-0.67375 0.61784-0.16384-0.17990 0.72056
  -1   4 -12 1813.40  429.59   1 0.41226-0.50587-0.37438 0.82791-0.83058 0.24217
  -1  -4 -12 1923.64  316.84   1 0.41691-0.51043-0.89686 0.44299 0.14769-0.73703
  -1  -4 -12 2882.99  548.54   1 0.41986-0.51278-0.89567 0.44172 0.14654-0.73615
   1  -4  12 1608.11  286.83   1 0.62004-0.52752 0.39091-0.84462 0.68024-0.09121
   1  -4  12 2291.51  419.37   1 0.81650-0.72261 0.23445-0.68844 0.52759 0.06225
   1   4  12 1707.85  266.19   1 0.79610-0.70327 0.59561-0.14185-0.10704 0.69662
  -1   4 -13 3227.58  698.74   1 0.41609-0.51109-0.38561 0.83914-0.82350 0.18606
  -1  -4 -13 2992.69  605.55   1 0.43370-0.52860-0.89697 0.44310 0.08558-0.72404
  -1  -4 -13 2818.06  590.35   1 0.38309-0.47745-0.91741 0.46377 0.10767-0.74629
   1  -4  13 2370.98  493.06   1 0.61696-0.52314 0.39754-0.85125 0.67919-0.04108
   1  -4  13 2107.98  513.22   1 0.81517-0.71988 0.23164-0.68562 0.53088 0.10811
   1   4  13 2968.39  559.17   1 0.81967-0.72552 0.57147-0.11770-0.03934 0.67805
  -1   4 -14 5895.71 1104.98   1 0.41870-0.51509-0.39337 0.84690-0.81849 0.13202
  -1  -4 -14 7153.36 1248.80   1 0.44783-0.54411-0.89370 0.43983 0.02691-0.71448
  -1  -4 -14 8162.49  752.54   1 0.34647-0.44217-0.93553 0.48189 0.06873-0.75647
   1  -4  14 8087.47  662.14   1 0.61581-0.52069 0.39999-0.85370 0.67880 0.00840
   1  -4  14 8470.54  848.03   1 0.81298-0.71629 0.22707-0.68105 0.53619 0.15196
   1   4  14 6439.22 1099.86   1 0.83735-0.74187 0.54614-0.09237 0.02370 0.66414
  -1   4 -15 9640.19 1060.88   1 0.42027-0.51806-0.39807 0.85160-0.81541 0.07990
  -1  -4 -1512098.73 1303.50   1 0.45969-0.55735-0.88761 0.43373-0.02870-0.70797
  -1  -4 -1510913.27 1168.84   1 0.30916-0.40620-0.95053 0.49689 0.03000-0.76687
   1  -4  1510128.06 1072.33   1 0.61653-0.52010 0.39847-0.85218 0.67904 0.05724
   1  -4  1511523.96 1324.25   1 0.80999-0.71189 0.22095-0.67493 0.54322 0.19408
   1   4  15 9580.18  980.62   1 0.85017-0.75337 0.51995-0.06618 0.08272 0.65424
  -1  -4 -16 5674.97  854.63   1 0.46971-0.56852-0.87902 0.42478-0.08173-0.70450
  -1  -4 -16 3790.27  658.03   1 0.27119-0.36956-0.96248 0.50884-0.00849-0.77749
   1  -4  16 3473.38  710.59   1 0.61902-0.52128 0.39312-0.84683 0.67989 0.10547
   1  -4  16 3581.40  558.80   1 0.80622-0.70673 0.21343-0.66741 0.55176 0.23470
   1   5 -14 6251.50  811.97   1 0.40637-0.34895-0.35742 0.92433-0.84089 0.15442
   1  -5 -14 4028.01  783.19   1 0.40386-0.34625-0.89451 0.32717 0.19167-0.87924
   1  -5 -14 3153.65  644.73   1 0.44939-0.39106-0.87510 0.30766 0.17953-0.86741
  -1  -5  14 4075.44  799.70   1 0.71478-0.77219 0.06785-0.63533 0.69604-0.00789
   1   5 -13 3150.59  765.60   1 0.40320-0.34438-0.34841 0.91532-0.84618 0.20874
   1  -5 -13 2983.86  678.26   1 0.38513-0.32617-0.88824 0.32088 0.25036-0.88918
   1  -5 -13 4126.14  927.60   1 0.48633-0.42668-0.84510 0.27766 0.22198-0.86072
  -1  -5  13 3169.45  674.90   1 0.72543-0.78602 0.04944-0.61625 0.68651-0.04888
  -1  -5  13 3169.56  724.44   1 0.71322-0.77223 0.06556-0.63255 0.69785-0.05940
   1   5 -12 2832.96  646.16   1 0.39876-0.33855-0.33598 0.90289-0.85328 0.26487
   1  -5 -12  641.98  455.94   1 0.36354-0.30319-0.87806 0.31070 0.31117-0.90085
   1  -5 -12 1115.18  394.46   1 0.52155-0.46056-0.81140 0.24396 0.26383-0.85343
  -1  -5  12 1222.04  297.93   1 0.72703-0.78887 0.04006-0.60687 0.68543-0.09685
  -1  -5  12 1547.62  503.17   1 0.70973-0.77011 0.06091-0.62790 0.70182-0.11248
   1   5 -11 6956.52 1232.55   1 0.39285-0.33125-0.31967 0.88657-0.86225 0.32287
   1  -5 -11 6336.30 1113.66   1 0.33925-0.27752-0.86339 0.29603 0.37343-0.91397
   1  -5 -11 6395.35 1126.03   1 0.55487-0.49255-0.77403 0.20660 0.30492-0.84540
  -1  -5  11 5675.19  962.28   1 0.72931-0.79240 0.02590-0.59271 0.68368-0.14415
  -1  -5  11 6756.31 1146.16   1 0.70420-0.76596 0.05362-0.62061 0.70797-0.16774
   1   5 -1025484.88 1532.77   1 0.38507-0.32234-0.29882 0.86570-0.87316 0.38295
   1  -5 -1023530.84 1436.54   1 0.31205-0.24893-0.84365 0.27629 0.43687-0.92827
   1  -5 -1020931.61 1331.96   1 0.58644-0.52257-0.73281 0.16512 0.34505-0.83644
  -1  -5  1019140.79 1130.52   1 0.73212-0.79646 0.00703-0.57384 0.68113-0.19064
  -1  -5  1022360.46 1346.34   1 0.69626-0.75940 0.04334-0.61034 0.71647-0.22535
   1   5  -947387.96 3364.45   1 0.37532-0.31118-0.27308 0.83996-0.88575 0.44455
   1  -5  -946011.73 3264.18   1 0.28214-0.21768-0.81811 0.25058 0.50108-0.94330
   1  -5  -946885.28 3343.83   1 0.61537-0.55019-0.68836 0.12067 0.38401-0.82627
  -1  -5   942473.02 2986.38   1 0.73523-0.80082-0.01644-0.55036 0.67760-0.23617
  -1  -5   947161.94 3339.16   1 0.68546-0.74998 0.02968-0.59667 0.72750-0.28549
  -1   5   928480.25 1974.22   1 0.83038-0.89540 0.55718 0.01002-0.00294 0.44513
   1   5  -8 9993.90  867.48   1 0.36308-0.29752-0.24165 0.80852-0.89987 0.50770
   1  -5  -8 8988.22  782.08   1 0.24862-0.18277-0.78646 0.21893 0.56538-0.95846
   1  -5  -8 7283.55  664.23   1 0.64179-0.57531-0.64060 0.07292 0.42156-0.81467
  -1  -5   8 8181.68  694.57   1 0.73839-0.80522-0.04440-0.52241 0.67290-0.28051
  -1  -5   8 8021.38  727.41   1 0.67118-0.73708 0.01214-0.57913 0.74118-0.34829
  -1   5   8 9109.81  659.96   1 0.79041-0.85676 0.60038-0.03317-0.12158 0.51464
   1   5  -732198.68 1501.50   1 0.34787-0.28090-0.20380 0.77067-0.91512 0.57197
   1  -5  -717233.71 2010.80   1 0.21182-0.14458-0.74804 0.18051 0.62893-0.97288
   1  -5  -717549.86 2065.23   1 0.66550-0.59771-0.58979 0.02210 0.45743-0.80140
  -1  -5   717675.58 2040.63   1 0.74129-0.80937-0.07661-0.49019 0.66679-0.32345
  -1  -5   717922.34 2078.83   1 0.65267-0.71994-0.00980-0.55718 0.75757-0.41379
  -1   5   729294.66 1223.36   1 0.72155-0.78915 0.63924-0.07175-0.26592 0.60998
  -1   5   6 9672.55  656.59   1-0.17396 0.10540 0.70190-0.13491-0.69070 0.98523
   1   5  -6 9396.75  621.81   1 0.32914-0.26075-0.15880 0.72568-0.93082 0.63669
   1  -5  -6 7311.82  600.07   1 0.68629-0.61698-0.53604-0.03169 0.49158-0.78633
  -1  -5   6 6899.64  529.85   1 0.74359-0.81292-0.11281-0.45399 0.65904-0.36475
  -1  -5   6 8267.87  600.22   1 0.62893-0.69758-0.03677-0.53021 0.77658-0.48191
  -1   5   6 8264.62  446.98   1 0.61065-0.67947 0.66326-0.09595-0.43264 0.72739
  -1   5   537054.65 2274.23   1-0.13133 0.06138 0.64909-0.08210-0.74928 0.99473
   1   5  -534336.13 1259.98   1 0.30630-0.23650-0.10603 0.67290-0.94600 0.70090
   1  -5  -534666.60 1371.44   1 0.70397-0.63339-0.48024-0.08749 0.52324-0.76886
  -1  -5   530398.78 1591.00   1 0.74475-0.81516-0.15233-0.41471 0.64971-0.40437
  -1  -5   530168.94 1590.31   1 0.59877-0.66880-0.06938-0.49760 0.79790-0.55235
  -1   5   530462.00 1003.87   1 0.79276-0.86280 0.18801 0.37946 0.57980-0.33403
  -1   5   531396.67 1033.92   1 0.45321-0.52334 0.65771-0.09038-0.60167 0.84731
  -1   5   412087.65 1296.63   1-0.08638 0.01503 0.58930-0.02231-0.80328 0.99963
   1   5  -411972.67 1302.93   1 0.27903-0.20764-0.04539 0.61235-0.95920 0.76282
   1  -5  -410251.40 1185.13   1 0.71845-0.64659-0.42268-0.14505 0.55241-0.74891
  -1  -5   410317.74 1167.05   1 0.74482-0.81652-0.19536-0.37168 0.63802-0.44174
  -1  -5   4 9705.76 1069.77   1 0.56023-0.63182-0.10831-0.45851 0.82122-0.62495
  -1   5   411138.88 1148.67   1 0.82259-0.89418 0.24886 0.31836 0.51126-0.31477
  -1   5   3 9043.58 1518.17   1-0.03982-0.03300 0.52349 0.04353-0.85109 0.99850
   1   5  -3 7133.35  811.60   1 0.24628-0.17350 0.02396 0.54299-0.96890 0.82161
   1  -5  -3 9626.30 1091.89   1 0.72967-0.65654-0.36398-0.20375 0.57887-0.72624
  -1  -5   310414.35 1131.82   1 0.74324-0.81624-0.24098-0.32605 0.62410-0.47690
   1  -5  -310270.16 1174.81   1-0.05882 0.13184-0.53422-0.03354 0.84329-0.99070
  -1  -5   310443.21 1125.44   1 0.51265-0.58555-0.15378-0.41304 0.84470-0.69750
  -1   5   3 6564.44  689.85   1 0.84247-0.91540 0.29940 0.26783 0.44787-0.30050
  -1   5   233127.52 1237.55   1 0.00730-0.08150 0.45239 0.11463-0.89178 0.99005
   1   5  -229969.50 1073.60   1 0.20801-0.13385 0.10113 0.46582-0.97288 0.87469
  -1  -5   228627.01 1110.18   1 0.73973-0.81403-0.28859-0.27844 0.60786-0.50972
   1  -5  -228082.59 1126.39   1 0.73814-0.66385-0.30437-0.26267 0.60208-0.70021
   1  -5  -227438.63  927.02   1 0.13321-0.05886-0.43402-0.13374 0.89099-0.98926
  -1  -5   227949.32  995.67   1 0.45376-0.52798-0.20608-0.36074 0.86696-0.76882
  -1   5   227472.35  915.07   1 0.85487-0.92915 0.34123 0.22599 0.39082-0.29257
  -1   5   166704.82 2232.46   1 0.05392-0.12950 0.37795 0.18906-0.92425 0.97338
   1   5  -163473.25 2114.85   1 0.16439-0.08881 0.18482 0.38220-0.96892 0.91979
  -1  -5   160505.58 2063.95   1 0.73406-0.80965-0.33754-0.22949 0.58924-0.54017
   1  -5  -157769.30 1982.59   1 0.74299-0.66740-0.24552-0.32152 0.62263-0.67170
   1  -5  -158218.89 1893.93   1 0.29619-0.22063-0.32872-0.23811 0.89677-0.94584
  -1  -5   157952.64 1925.67   1 0.38191-0.45744-0.26481-0.30201 0.88544-0.83637
  -1   5   159405.19 1920.87   1 0.86209-0.93771 0.37632 0.19090 0.33936-0.29024
   1   5   011939.87  527.36   1 0.11571-0.03877 0.27303 0.29399-0.95501 0.95501
  -1   5   014274.87 1226.15   1 0.09901-0.17595 0.30217 0.26485-0.94809 0.94809
  -1  -5   010998.37  601.09   1 0.72560-0.80255-0.38744-0.18029 0.56867-0.56867
   1  -5   010986.83  627.16   1 0.74491-0.66803-0.18773-0.37930 0.64019-0.64019
  -1  -5   010161.98 1098.80   1 0.29611-0.37298-0.32878-0.23805 0.89678-0.89678
   1  -5   0 8808.35  401.71   1 0.42385-0.34700-0.23116-0.33566 0.87573-0.87573
  -1   5   011364.58  435.90   1 0.86553-0.94247 0.40623 0.16103 0.29294-0.29294
   1   5   121337.93  893.08   1 0.06314 0.01516 0.36287 0.20415-0.92969 0.97882
  -1   5  -121647.09  841.71   1 0.14141-0.21971 0.22710 0.33992-0.96354 0.91442
  -1  -5  -127958.42 1132.61   1 0.71516-0.79339-0.43712-0.13061 0.54540-0.59453
   1  -5   126845.61 1044.42   1 0.74420-0.66603-0.13176-0.43527 0.65482-0.60575
  -1  -5  -125305.27 1122.41   1 0.19617-0.27434-0.39565-0.17118 0.89720-0.94627
   1  -5   125385.25  891.49   1 0.52069-0.44253-0.14631-0.42051 0.84111-0.79204
   1   5   251760.03 1809.43   1 0.00809 0.07161 0.45115 0.11586-0.89240 0.99067
  -1   5  -245139.44 1781.18   1 0.18041-0.26008 0.15466 0.41236-0.97135 0.87310
  -1  -5  -252582.09 1845.00   1 0.70224-0.78175-0.48626-0.08147 0.51998-0.61824
   1  -5   249254.10 1759.44   1 0.74142-0.66211-0.07835-0.48845 0.66644-0.56834
  -1  -5  -249113.64 1637.83   1 0.08333-0.16299-0.46245-0.10531 0.88271-0.98098
   1  -5   251497.24 1714.09   1 0.59303-0.51335-0.07539-0.49160 0.80163-0.70341
   1   5   333938.95 1272.62   1-0.04744 0.12854 0.53461 0.03241-0.84376 0.99117
  -1   5  -335148.62 1304.63   1 0.21540-0.29647 0.08652 0.48043-0.97268 0.82539
  -1  -5  -326209.95 1073.23   1 0.68689-0.76767-0.53434-0.03339 0.49259-0.63997
   1  -5   325052.07 1009.00   1 0.73663-0.65606-0.02811-0.53869 0.67571-0.52856
  -1  -5  -325465.75  905.00   1-0.03747-0.04350-0.52431-0.04345 0.85070-0.99810
   1  -5   325046.52  903.46   1 0.64578-0.56472-0.01776-0.54922 0.76331-0.61597
   1   5   461434.25 2038.43   1-0.10187 0.18438 0.61036-0.04337-0.78554 0.98189
  -1   5  -465471.72 2233.62   1 0.24639-0.32884 0.02372 0.54323-0.96887 0.77249
  -1  -5  -449587.12 1780.26   1 0.66916-0.75121-0.58091 0.01317 0.46342-0.65992
   1  -5   444363.79 1582.43   1 0.73045-0.64864 0.01847-0.58528 0.68270-0.48651
  -1  -5  -444022.92 1537.34   1-0.16100 0.07845-0.57783 0.01033 0.80011-0.99686
   1  -5   447584.09 1628.43   1 0.68443-0.60200 0.02840-0.59539 0.72851-0.53207
   1   5   547849.90 2411.57   1-0.15355 0.23744 0.67709-0.11010-0.71969 0.96513
  -1   5  -544445.30 2301.66   1 0.27330-0.35713-0.03300 0.59996-0.96136 0.71588
  -1  -5  -551435.50 2651.37   1 0.64914-0.73265-0.62579 0.05811 0.43242-0.67811
   1  -5   549095.18 2518.20   1 0.72336-0.64030 0.06102-0.62783 0.68775-0.44251
   1  -5   552884.68 2678.89   1 0.71277-0.62896 0.06495-0.63195 0.69837-0.45282
  -1   5  -648964.79 2534.71   1 0.29632-0.38153-0.08338 0.65034-0.95144 0.65687
  -1  -5  -652365.83 2645.12   1 0.19913-0.28446-0.73398 0.16646 0.64931-0.94412
  -1  -5  -654695.33 2808.81   1 0.62700-0.71182-0.66831 0.10062 0.40028-0.69511
   1  -5   657506.18 2917.23   1 0.71581-0.63150 0.09926-0.66608 0.69119-0.39690
   1  -5   660907.54 3080.82   1 0.73339-0.64792 0.09358-0.66106 0.67333-0.37841
   1   5   650515.24 2527.77   1 0.39178-0.30665 0.64747-0.08015-0.65366 0.94843
  -1   5  -736756.87 1707.21   1 0.31549-0.40229-0.12700 0.69387-0.94039 0.59724
  -1  -5  -728713.15 1281.78   1 0.24285-0.32957-0.78068 0.21315 0.57580-0.91975
  -1  -5  -727784.71 1329.31   1 0.60289-0.68902-0.70841 0.14072 0.36697-0.71094
   1  -5   730213.30 1375.04   1 0.70819-0.62264 0.13304-0.69985 0.69336-0.35002
   1  -5   733707.19 1532.45   1 0.74859-0.66172 0.11573-0.68321 0.65284-0.30876
   1   5   733774.19 1439.88   1 0.49208-0.40559 0.66209-0.09477-0.56522 0.90912
  -1   5  -8 1058.13  248.52   1 0.33176-0.41997-0.16498 0.73186-0.92882 0.53665
  -1  -5  -8 1375.87  287.37   1 0.28190-0.37001-0.81789 0.25037 0.50156-0.89465
  -1  -5  -8 1384.19  439.50   1 0.57696-0.66440-0.74593 0.17824 0.33269-0.72580
   1  -5   8 1240.61  315.07   1 0.70128-0.61435 0.16240-0.72904 0.69413-0.30176
   1  -5   8 1386.96  325.42   1 0.75961-0.67133 0.13253-0.70001 0.63672-0.24349
   1   5   8 1112.03  181.72   1 0.57748-0.48977 0.66518-0.09786-0.47332 0.86633
  -1   5  -913999.94 1116.47   1 0.34522-0.43484-0.19732 0.76419-0.91754 0.47635
  -1  -5  -913869.04 1076.28   1 0.31595-0.40542-0.84667 0.27931 0.42815-0.87041
  -1  -5  -911180.58  923.29   1 0.54905-0.63798-0.78099 0.21355 0.29763-0.73984
   1  -5   913504.85 1078.07   1 0.69456-0.60636 0.18714-0.75378 0.69465-0.25324
   1  -5   914076.76 1126.43   1 0.76743-0.67775 0.14489-0.71236 0.62454-0.18215
   1   5   916290.87 1184.98   1 0.64868-0.55961 0.65848-0.09117-0.38158 0.82371
  -1   5 -10 3499.68  524.68   1 0.35623-0.44728-0.22445 0.79132-0.90703 0.41682
  -1  -5 -10 4630.80  617.43   1 0.34613-0.43699-0.86785 0.30049 0.35638-0.84778
  -1  -5 -10 3875.57  581.59   1 0.51993-0.61019-0.81307 0.24563 0.26187-0.75321
   1  -5  10 3788.87  524.85   1 0.68868-0.59921 0.20744-0.77408 0.69474-0.20428
   1  -5  10 5124.46  744.49   1 0.77275-0.68167 0.15353-0.72101 0.61585-0.12431
   1   5  10 3419.99  436.89   1 0.70624-0.61589 0.64470-0.07721-0.29252 0.78403
  -1   5 -1119257.01 1418.71   1 0.36513-0.45759-0.24685 0.81373-0.89762 0.35839
  -1  -5 -1117437.83 1266.92   1 0.37239-0.46463-0.88260 0.31523 0.28695-0.82749
  -1  -5 -1115386.02 1148.66   1 0.48941-0.58100-0.84236 0.27492 0.22558-0.76605
   1  -5  1118514.04 1350.87   1 0.68382-0.59308 0.22342-0.79006 0.69459-0.15509
   1  -5  1117634.13 1329.08   1 0.77608-0.68360 0.15905-0.72653 0.61023-0.06954
  -1   5 -1224352.72 2094.46   1 0.37220-0.46608-0.26499 0.83186-0.88951 0.30125
  -1  -5 -1228019.45 2339.24   1 0.39512-0.48875-0.89185 0.32449 0.22015-0.80983
  -1  -5 -1221801.73 1871.21   1 0.45763-0.55055-0.86884 0.30141 0.18888-0.77848
   1  -5  1224522.08 2030.21   1 0.68010-0.58809 0.23520-0.80184 0.69436-0.10581
   1  -5  1224742.05 2075.49   1 0.77778-0.68389 0.16189-0.72936 0.60732-0.01747
   1   5  1219723.95 1622.80   1 0.78746-0.69463 0.60272-0.03552-0.12890 0.71848
  -1   5 -13 2352.28  659.73   1 0.37769-0.47299-0.27929 0.84616-0.88280 0.24552
  -1  -5 -13 4468.75  998.88   1 0.41431-0.50920-0.89653 0.32919 0.15674-0.79519
  -1  -5 -13 3355.93  826.57   1 0.42466-0.51891-0.89252 0.32508 0.15185-0.79059
   1  -5  13 4578.99  976.07   1 0.67760-0.58432 0.24290-0.80954 0.69415-0.05655
   1  -5  13 3852.69  836.74   1 0.77809-0.68280 0.16241-0.72988 0.60678 0.03221
  -1   5 -14 1213.78  536.18   1 0.38180-0.47851-0.29012 0.85700-0.87752 0.19122
  -1  -5 -14  982.69  406.02   1 0.43119-0.52746-0.89720 0.32986 0.09535-0.78292
  -1  -5 -14 1263.51  462.28   1 0.38974-0.48544-0.91373 0.34668 0.11485-0.80259
   1  -5  14  832.72  371.94   1 0.67638-0.58183 0.24663-0.81327 0.69403-0.00738
   1  -5  14  467.97  312.49   1 0.77719-0.68050 0.16090-0.72838 0.60833 0.07981
   1   6 -12 1256.44  534.93   1 0.35445-0.29455-0.22001 0.90026-0.90882 0.32056
   1  -6 -12 2876.89  637.82   1 0.34909-0.28874-0.86970 0.18887 0.34891-0.93859
   1  -6 -12 2206.60  503.07   1 0.53684-0.47585-0.79498 0.11406 0.28248-0.87209
  -1  -6  12 5454.48  514.82   1 0.74229-0.80413-0.09052-0.58965 0.66392-0.07534
  -1  -6  12 1812.22  441.31   1 0.65765-0.71804-0.00397-0.67641 0.75330-0.16396
   1   6 -1117363.82 1827.26   1 0.34669-0.28538-0.20091 0.88116-0.91620 0.37697
   1  -6 -1118613.27 1909.34   1 0.32438-0.26264-0.85299 0.17215 0.40887-0.94940
   1  -6 -1115254.30 1550.07   1 0.56673-0.50417-0.75941 0.07819 0.31952-0.86005
  -1  -6  1115862.45 1576.10   1 0.74295-0.80604-0.10106-0.57911 0.66166-0.12213
  -1  -6  1118010.53 1853.70   1 0.64986-0.71162-0.01306-0.66732 0.75994-0.21971
   1   6 -1024524.00 1734.09   1 0.33709-0.27436-0.17769 0.85794-0.92454 0.43433
   1  -6 -1023577.02 1659.21   1 0.29764-0.23457-0.83151 0.15048 0.46902-0.96037
   1  -6 -1019118.75 1392.52   1 0.59426-0.53039-0.72148 0.04025 0.35540-0.84679
  -1  -6  1019956.36 1380.01   1 0.74372-0.80805-0.11552-0.56465 0.65843-0.16794
  -1  -6  1022932.95 1613.57   1 0.63941-0.70255-0.02502-0.65536 0.76845-0.27734
   1   6  -9 8647.36  879.89   1 0.32538-0.26124-0.14997 0.83022-0.93361 0.49241
   1  -6  -9 7094.01 1250.32   1 0.26804-0.20358-0.80522 0.12419 0.52892-0.97114
   1  -6  -9 7880.78  851.27   1 0.61964-0.55446-0.68115-0.00006 0.38995-0.83220
  -1  -6   910034.27  945.76   1 0.74425-0.80948-0.13325-0.54719 0.65446-0.21284
  -1  -6   910826.58 1003.48   1 0.62586-0.69038-0.04017-0.64021 0.77889-0.33689
   1   6  -8 7772.00 1351.19   1 0.31128-0.24572-0.11734 0.79759-0.94304 0.55087
   1  -6  -8 7932.34 1314.05   1 0.23599-0.17014-0.77369 0.09265 0.58796-0.98105
   1  -6  -8 6727.09 1180.57   1 0.64278-0.57629-0.63865-0.04256 0.42301-0.81612
  -1  -6   8 8083.26 1407.88   1 0.74480-0.81133-0.15511-0.52533 0.64900-0.25645
  -1  -6   8 7468.18 1263.43   1 0.60867-0.67456-0.05887-0.62151 0.79123-0.39834
   1   6  -7 1485.40  363.45   1 0.29472-0.22747-0.07983 0.76018-0.95224 0.60857
   1  -6  -7 1674.93  335.69   1 0.20160-0.13435-0.73674 0.05571 0.64541-0.98936
   1  -6  -7 3611.28  616.71   1 0.66359-0.59579-0.59424-0.08697 0.45443-0.79841
  -1  -6   7 1648.67  346.74   1 0.74496-0.81278-0.18034-0.50010 0.64226-0.29878
  -1  -6   7 2200.49  425.57   1 0.58715-0.65442-0.08150-0.59889 0.80536-0.46158
  -1   6   621826.05 1309.08   1-0.16720 0.09864 0.69378-0.01340-0.70049 0.99503
   1   6  -618298.56 1117.06   1 0.27483-0.20620-0.03631 0.71666-0.96080 0.66623
   1  -6  -623107.14 1434.24   1 0.68197-0.61266-0.54806-0.13321 0.48428-0.77903
  -1  -6   622292.43 1326.64   1 0.74453-0.81365-0.20868-0.47177 0.63412-0.33971
  -1  -6   624119.97 1419.15   1 0.55997-0.62893-0.10857-0.57162 0.82136-0.52695
  -1   6   533559.40 2406.22   1-0.12905 0.05909 0.64614 0.03423-0.75222 0.99766
   1   6  -534895.87 2497.77   1 0.25156-0.18154 0.01300 0.66734-0.96775 0.72228
   1  -6  -533792.46 2452.57   1 0.69788-0.62730-0.50085-0.18043 0.51195-0.75758
  -1  -6   531738.58 2295.97   1 0.74330-0.81371-0.23985-0.44060 0.62447-0.37913
  -1  -6   532662.37 2339.83   1 0.52725-0.59752-0.14016-0.54003 0.83806-0.59272
  -1   6   526876.04 1863.66   1 0.43762-0.50775 0.65548 0.02530-0.61548 0.86113
  -1   6   4 5948.09  665.80   1-0.08956 0.01821 0.59366 0.08671-0.79971 0.99606
   1   6  -4 5536.39  558.55   1 0.22462-0.15323 0.06811 0.61223-0.97206 0.77568
   1  -6  -4 4213.01  532.44   1 0.71133-0.63947-0.45279-0.22849 0.53757-0.73407
  -1  -6   4 3407.19  393.07   1 0.74105-0.81276-0.27352-0.40692 0.61320-0.41692
  -1  -6   4 3883.16  401.08   1 0.48737-0.55896-0.17673-0.50346 0.85511-0.65884
  -1   6   3 1024.44  244.16   1-0.04925-0.02357 0.53722 0.14321-0.84200 0.98941
   1   6  -3 1179.39  386.59   1 0.19385-0.12107 0.12873 0.55161-0.97254 0.82526
   1  -6  -3 1800.59  547.27   1 0.72233-0.64919-0.40433-0.27695 0.56102-0.70840
  -1  -6   3 1232.63  381.77   1 0.73759-0.81059-0.30934-0.37110 0.60021-0.45300
  -1  -6   3  733.35  302.89   1 0.43919-0.51209-0.21841-0.46178 0.87143-0.72423
  -1   6   2 2222.71  431.59   1-0.00889-0.06531 0.47729 0.20313-0.87869 0.97696
   1   6  -2 3301.54  481.92   1 0.15934-0.08512 0.19421 0.48621-0.96792 0.86968
  -1  -6   2 2442.73  352.90   1 0.73272-0.80702-0.34692-0.33352 0.58545-0.48731
   1  -6  -2 2280.72  399.31   1 0.73144-0.65715-0.35542-0.32502 0.58194-0.68007
   1  -6  -2 2445.15  363.19   1 0.06713 0.00721-0.47131-0.21000 0.87940-0.97767
  -1  -6   2 2447.23  319.11   1 0.38155-0.45576-0.26510-0.41509 0.88551-0.78738
  -1   6   112512.66 1530.71   1 0.03087-0.10645 0.41527 0.26516-0.90917 0.95830
   1   6  -111970.99 1230.72   1 0.12102-0.04544 0.26365 0.41678-0.95699 0.90786
  -1  -6   113439.72 1069.74   1 0.72582-0.80151-0.38620-0.29508 0.56922-0.52010
   1  -6  -113190.46 1047.42   1 0.73779-0.66220-0.30756-0.37288 0.60088-0.64995
   1  -6  -113039.95  985.47   1 0.20875-0.13319-0.38765-0.29255 0.89785-0.94692
  -1  -6   114669.33 1502.58   1 0.31355-0.38912-0.31631-0.36389 0.89533-0.84626
  -1   6   016524.09 1051.16   1 0.06942-0.14637 0.35242 0.32801-0.93326 0.93326
   1   6   018243.55 1873.42   1 0.07945-0.00250 0.33558 0.34485-0.93865 0.93865
  -1  -6   016178.44 1258.45   1 0.71770-0.79466-0.42606-0.25522 0.55079-0.55079
  -1  -6   014829.63 1516.75   1 0.23445-0.31131-0.37094-0.30926 0.89857-0.89857
   1  -6   015751.01 1472.86   1 0.32544-0.24857-0.30766-0.37253 0.89410-0.89410
   1   6   1 2798.52  465.44   1 0.03521 0.04312 0.40831 0.27211-0.91216 0.96129
  -1   6  -1 3144.08  399.36   1 0.10601-0.18431 0.29003 0.39040-0.95112 0.90200
  -1  -6  -1  153.35  325.49   1 0.70778-0.78601-0.46643-0.21485 0.53054-0.57967
   1  -6   1  104.77  314.81   1 0.74433-0.66616-0.21538-0.46506 0.63211-0.58304
  -1  -6  -1  593.91  147.89   1 0.14373-0.22206-0.42781-0.25350 0.89236-0.94150
   1  -6   1  478.38  181.31   1 0.41927-0.34111-0.23492-0.44527 0.87693-0.82787
   1   6   2 7209.83  852.66   1-0.01061 0.09033 0.47992 0.20051-0.87724 0.97551
  -1   6  -2 8254.66  981.76   1 0.14019-0.21986 0.22931 0.45112-0.96320 0.86495
  -1  -6  -210157.40  845.21   1 0.69599-0.77550-0.50692-0.17435 0.50854-0.60679
   1  -6   210334.01  908.99   1 0.74497-0.66549-0.17197-0.50847 0.64454-0.54641
  -1  -6  -2 8947.85  935.96   1 0.04406-0.12372-0.48364-0.19768 0.87415-0.97242
   1  -6   210659.10  825.38   1 0.49363-0.41416-0.17112-0.50907 0.85266-0.75452
   1   6   350260.20 2878.52   1-0.05711 0.13820 0.54853 0.13189-0.83417 0.98158
  -1   6  -348980.56 2897.53   1 0.17161-0.25264 0.17131 0.50911-0.97015 0.82278
   1  -6   345008.21 2632.08   1 0.74417-0.66341-0.13090-0.54954 0.65502-0.50782
  -1  -6  -343554.46 2530.54   1-0.06289-0.01809-0.53607-0.14524 0.84182-0.98923
   1  -6   344131.57 2532.85   1 0.55183-0.47104-0.11657-0.56362 0.82576-0.67856
   1   6   4 6001.97 1026.37   1-0.10329 0.18580 0.61227 0.06811-0.78386 0.98022
  -1   6  -4 6302.53  626.86   1 0.19993-0.28238 0.11695 0.56340-0.97280 0.77642
  -1  -6  -4 8051.42  739.32   1 0.66672-0.74892-0.58691-0.09430 0.45935-0.65590
   1  -6   4 7480.87  696.18   1 0.74243-0.66062-0.09262-0.58755 0.66348-0.46729
  -1  -6  -4 7221.22  967.93   1-0.17302 0.09046-0.58242-0.09858 0.79426-0.99100
   1  -6   4 7024.80  593.46   1 0.59766-0.51522-0.07055-0.60984 0.79863-0.60219
   1   6   5 9774.18  993.22   1-0.14803 0.23192 0.67023 0.01015-0.72723 0.97267
  -1   6  -5 8397.69  733.58   1 0.22533-0.30916 0.06669 0.61366-0.97199 0.72652
  -1  -6  -510633.15  908.82   1 0.64922-0.73273-0.62562-0.05559 0.43254-0.67824
   1  -6   5 8304.93  715.27   1 0.73965-0.65658-0.05728-0.62289 0.67054-0.42530
   1  -6   510127.39  836.13   1 0.63276-0.54895-0.03250-0.64788 0.77365-0.52810
  -1   6  -6 1444.08  299.59   1 0.24774-0.33295 0.02094 0.65940-0.96859 0.67403
  -1  -6  -6 4386.06  825.23   1 0.62988-0.71469-0.66312-0.01809 0.40436-0.69919
   1  -6   6 3615.48  579.15   1 0.73628-0.65197-0.02514-0.65503 0.67620-0.38191
   1  -6   6 3475.39  467.95   1 0.65992-0.57472-0.00131-0.67907 0.75133-0.45666
   1   6   6 1967.37  290.22   1 0.38592-0.30080 0.64630 0.03448-0.65829 0.95306
  -1   6  -738313.16 2341.14   1 0.26728-0.35388-0.02013 0.70048-0.96340 0.61974
  -1  -6  -733331.77 2007.70   1 0.22828-0.31499-0.76566 0.08463 0.60136-0.94531
  -1  -6  -733936.64 2106.28   1 0.60875-0.69487-0.69917 0.01795 0.37492-0.71890
   1  -6   735080.24 2173.15   1 0.73260-0.64705 0.00359-0.68377 0.68064-0.33730
   1  -6   734567.00 2105.64   1 0.68084-0.59427 0.02394-0.70433 0.73203-0.38825
   1   6   736715.90 2162.61   1 0.48317-0.39668 0.66124 0.01954-0.57384 0.91774
  -1   6  -822803.00 1641.01   1 0.28416-0.37213-0.05654 0.73690-0.95710 0.56435
  -1  -6  -818637.13 1418.59   1 0.58591-0.67334-0.73357 0.05234 0.34435-0.73747
   1  -6   819709.08 1446.59   1 0.72885-0.64205 0.02883-0.70901 0.68405-0.29166
   1  -6   819472.24 1389.62   1 0.69687-0.60892 0.04412-0.72451 0.71583-0.32294
   1   6   819815.60 1328.03   1 0.56869-0.48098 0.66537 0.01539-0.48358 0.87659
  -1   6  -9 1144.35  351.82   1 0.29829-0.38792-0.08800 0.76825-0.95040 0.50921
  -1  -6  -9 2059.33  431.64   1 0.29866-0.38815-0.83237 0.15133 0.46686-0.90908
  -1  -6  -9 1349.22  441.48   1 0.56143-0.65017-0.76613 0.08491 0.31276-0.75502
   1  -6   9 1462.45  442.86   1 0.72525-0.63720 0.05047-0.73065 0.68662-0.24519
   1  -6   9  900.99  330.27   1 0.70899-0.61966 0.05992-0.74031 0.70266-0.26065
  -1   6 -10 7406.18 1316.11   1 0.31048-0.40153-0.11553 0.79578-0.94352 0.45331
  -1  -6 -10 3985.12  788.11   1 0.32843-0.41929-0.85592 0.17508 0.39941-0.89080
  -1  -6 -10 4170.10  868.78   1 0.53508-0.62534-0.79692 0.11600 0.28033-0.77167
   1  -6  10 3019.26  598.94   1 0.72198-0.63268 0.06848-0.74866 0.68851-0.19802
   1  -6  10 5340.81  960.54   1 0.71778-0.62670 0.07191-0.75288 0.69254-0.20100
  -1   6 -11 8594.38 1029.25   1 0.32067-0.41313-0.13898 0.81923-0.93693 0.39769
  -1  -6 -11 7716.98  837.45   1 0.35542-0.44766-0.87350 0.19266 0.33266-0.87319
  -1  -6 -11 7737.98  914.95   1 0.50755-0.59914-0.82545 0.14452 0.24701-0.78748
   1  -6  11 8334.70  932.39   1 0.71919-0.62864 0.08284-0.76302 0.68985-0.15031
   1  -6  11 8273.96  997.64   1 0.72419-0.63171 0.08070-0.76167 0.68485-0.14415
  -1   6 -12 5520.01  779.98   1 0.32907-0.42294-0.15862 0.83888-0.93088 0.34262
  -1  -6 -12 6126.50  883.15   1 0.37935-0.47298-0.88582 0.20498 0.26721-0.85689
  -1  -6 -12 3949.55  592.42   1 0.47860-0.57152-0.85180 0.17088 0.21298-0.80259
   1  -6  12 4554.35  685.49   1 0.71701-0.62521 0.09355-0.77373 0.69075-0.10217
   1  -6  12 4900.34  712.75   1 0.72847-0.63458 0.08665-0.76762 0.67957-0.08972
   1   7  -9 8454.26 1073.14   1 0.27413-0.20964-0.03478 0.82853-0.96106 0.51921
   1  -7  -9 7151.88  953.60   1 0.26344-0.19898-0.80087 0.00634 0.53776-0.97998
   1  -7  -9 8475.90 1195.06   1 0.61623-0.55105-0.68692-0.10784 0.38521-0.82746
  -1  -7   9 6990.02  918.26   1 0.74353-0.80876-0.23534-0.55851 0.62591-0.18429
  -1  -7   9 7996.14 1066.77   1 0.55812-0.62313-0.11040-0.68316 0.82238-0.38076
   1   7  -8 4751.12  925.87   1 0.25903-0.19316-0.00264 0.79638-0.96586 0.57310
   1  -7  -8 4688.91  883.64   1 0.23341-0.16755-0.77101-0.02352 0.59249-0.98558
   1  -7  -8 6211.02  746.51   1 0.63728-0.57079-0.64934-0.14542 0.41499-0.80810
  -1  -7   8 5377.05  591.18   1 0.74259-0.80911-0.25220-0.54165 0.62044-0.22789
  -1  -7   8 5563.73  608.85   1 0.53825-0.60458-0.12971-0.66385 0.83274-0.44019
   1   7  -7 7458.88  838.69   1 0.24153-0.17427 0.03376 0.75998-0.96980 0.62614
   1  -7  -7 7413.17  869.17   1 0.20167-0.13443-0.73683-0.05770 0.64529-0.98924
   1  -7  -7 9833.03 1200.78   1 0.65631-0.58852-0.61055-0.18420 0.44324-0.78721
  -1  -7   7 7347.83  850.25   1 0.74118-0.80900-0.27189-0.52196 0.61376-0.27028
  -1  -7   7 7101.47  778.19   1 0.51407-0.58171-0.15247-0.64108 0.84408-0.50060
  -1   7   6 4378.28  940.88   1-0.17059 0.10203 0.69786 0.09591-0.69561 0.99014
   1   7  -6 5105.55 1076.16   1 0.22143-0.15280 0.07451 0.71923-0.97232 0.67775
   1  -7  -6 4881.62 1083.89   1 0.67331-0.60400-0.57069-0.22414 0.47006-0.76481
  -1  -7   6 4215.89  927.93   1 0.73919-0.80830-0.29420-0.49965 0.60583-0.31141
  -1  -7   6 3412.36  749.78   1 0.48491-0.55386-0.17893-0.61463 0.85606-0.56165
  -1   7   5 1841.07  390.61   1-0.13639 0.06643 0.65555 0.13822-0.74272 0.98816
   1   7  -5 2011.90  435.92   1 0.19858-0.12857 0.11956 0.67417-0.97276 0.72728
   1  -7  -5 2205.18  538.42   1 0.68828-0.61769-0.53034-0.26448 0.49497-0.74060
  -1  -7   5 2083.45  494.52   1 0.73647-0.80688-0.31891-0.47494 0.59656-0.35122
  -1  -7   5 1916.65  427.99   1 0.45002-0.52029-0.20927-0.58429 0.86814-0.62280
  -1   7   4 7225.51 1389.99   1-0.10140 0.03004 0.60972 0.18405-0.78609 0.98245
   1   7  -4 8420.29 1083.28   1 0.17300-0.10151 0.16868 0.62515-0.97036 0.77387
   1  -7  -4 8506.61  903.76   1 0.70125-0.62940-0.48965-0.30518 0.51814-0.71464
  -1  -7   4 6658.86 1175.67   1 0.73289-0.80460-0.34576-0.44809 0.58592-0.38964
  -1  -7   4 6114.26 1079.64   1 0.40861-0.48019-0.24359-0.54997 0.87960-0.68332
  -1   7   3  244.54  244.37   1-0.06594-0.00687 0.56111 0.23272-0.82510 0.97251
   1   7  -3  607.10  253.57   1 0.14440-0.07154 0.22166 0.57218-0.96437 0.81699
   1  -7  -3 -283.57  301.04   1 0.71229-0.63916-0.44894-0.34589 0.53951-0.68689
  -1  -7   3  517.95  314.43   1 0.72783-0.80096-0.37495-0.41988 0.57416-0.42678
  -1  -7   3   24.85  221.20   1 0.35993-0.43289-0.28190-0.51167 0.88936-0.74215
  -1   7   210295.08 1576.35   1-0.03067-0.04353 0.51001 0.28382-0.85961 0.95788
   1   7  -2 7675.58 1574.42   1 0.11298-0.03876 0.27784 0.51600-0.95395 0.85571
   1  -7  -2 6314.50 1084.84   1 0.72147-0.64706-0.40854-0.38629 0.55907-0.65732
  -1  -7   2 7860.43 1334.36   1 0.72214-0.79654-0.40528-0.38955 0.56058-0.46233
  -1  -7   2 8062.55 1669.63   1 0.30305-0.37731-0.32385-0.46972 0.89625-0.79811
  -1   7   121826.81 1538.26   1 0.00403-0.07961 0.45746 0.33637-0.88921 0.93835
   1   7  -118364.43 1311.26   1 0.07893-0.00335 0.33645 0.45738-0.93838 0.88926
  -1  -7   119397.12 1392.94   1 0.71520-0.79089-0.43692-0.35791 0.54550-0.49637
  -1  -7   117702.86 1254.85   1 0.23746-0.31302-0.36894-0.42462 0.89860-0.84953
  -1   7   0  469.27  232.50   1 0.03771-0.11467 0.40430 0.38953-0.91384 0.91384
   1   7   0 1071.07  286.80   1 0.04253 0.03443 0.39652 0.39731-0.91703 0.91703
  -1  -7   0  343.58  329.96   1 0.70693-0.78389-0.46958-0.32524 0.52889-0.52889
   1  -7   0  689.87  483.95   1 0.73515-0.65826-0.32945-0.46440 0.59246-0.59246
  -1  -7   0  -27.98  180.36   1 0.16287-0.23974-0.41628-0.37728 0.89452-0.89452
   1  -7   0  228.78  148.63   1 0.22216-0.14530-0.37899-0.41458 0.89833-0.89833
   1   7   1 4764.66 1008.05   1 0.00437 0.07396 0.45693 0.33690-0.88949 0.93862
  -1   7  -1 2892.38  571.54   1 0.07001-0.14832 0.35143 0.44240-0.93358 0.88446
  -1  -7  -1 3381.44  677.57   1 0.69723-0.77546-0.50297-0.29185 0.51076-0.55989
   1  -7   1 2999.85  612.07   1 0.73941-0.66123-0.29198-0.50187 0.60663-0.55757
  -1  -7  -1 3034.00  596.96   1 0.07859-0.15692-0.46506-0.32980 0.88177-0.93091
   1  -7   1 3686.49  776.15   1 0.31420-0.23603-0.31584-0.47772 0.89527-0.84620
   1   7   2 9596.94 1561.81   1-0.03501 0.11473 0.51644 0.27739-0.85560 0.95387
  -1   7  -2 9830.77 1512.38   1 0.10046-0.18013 0.29966 0.49418-0.94874 0.85049
  -1  -7  -210662.88  887.53   1 0.68603-0.76553-0.53679-0.25803 0.49112-0.58938
   1  -7   210059.50  838.82   1 0.74233-0.66286-0.25612-0.53773 0.61913-0.52100
  -1  -7  -2 8910.72 1160.97   1-0.01263-0.06702-0.51239-0.28248 0.85865-0.95692
   1  -7   2 9360.54  727.28   1 0.38997-0.31050-0.25847-0.53508 0.88380-0.78566
   1   7   3 3321.33  893.79   1-0.07511 0.15622 0.57369 0.22009-0.81562 0.96288
  -1   7  -3 4453.75 1172.24   1 0.12885-0.20988 0.24972 0.54411-0.95970 0.81233
  -1  -7  -3 2397.36  547.48   1 0.67328-0.75406-0.57076-0.22407 0.47001-0.61739
   1  -7   3 2632.19  589.04   1 0.74410-0.66333-0.22215-0.57170 0.63004-0.48283
  -1  -7  -3 2169.69  472.73   1-0.10917 0.02801-0.55687-0.23762 0.82339-0.97095
   1  -7   3 2497.38  491.76   1 0.45197-0.37118-0.20760-0.58595 0.86753-0.72032
   1   7   429232.70 2958.62   1-0.11500 0.19751 0.62784 0.16594-0.76979 0.96615
  -1   7  -429199.55 2456.85   1 0.15500-0.23739 0.20224 0.59159-0.96698 0.77049
   1  -7   429965.41 2484.56   1 0.74488-0.66282-0.19033-0.60352 0.63946-0.44318
  -1  -7  -426911.65 2178.75   1-0.21023 0.12768-0.59597-0.19852 0.77499-0.97174
   1  -7   428522.72 2331.82   1 0.50226-0.42016-0.16331-0.63024 0.84915-0.65287
   1   7   5  945.16  259.12   1-0.15415 0.23805 0.67784 0.11594-0.71886 0.96430
  -1   7  -5 1065.81  317.97   1 0.17881-0.26256 0.15772 0.63612-0.97115 0.72553
  -1  -7  -5 2285.17  645.42   1 0.64302-0.72653-0.63819-0.15657 0.42336-0.66905
   1  -7   5 1062.97  366.91   1 0.74488-0.66153-0.16089-0.63296 0.64749-0.40215
   1  -7   5  848.55  343.07   1 0.54285-0.45943-0.12529-0.66827 0.83042-0.58508
  -1   7  -6 8489.93  837.97   1 0.20012-0.28534 0.11657 0.67717-0.97281 0.67824
  -1  -7  -6 6736.17  744.14   1 0.62547-0.71028-0.67103-0.12372 0.39811-0.69295
   1  -7   610359.11 1014.36   1 0.74428-0.65963-0.13402-0.65983 0.65427-0.35986
   1  -7   610014.17  915.95   1 0.57605-0.49086-0.09286-0.70092 0.81212-0.51745
  -1   7  -7 5017.67  638.17   1 0.21925-0.30585 0.07886 0.71487-0.97247 0.62881
  -1  -7  -7 4453.20  968.62   1 0.22591-0.31263-0.76317-0.03135 0.60540-0.94935
  -1  -7  -7 3839.18  908.34   1 0.60632-0.69245-0.70303-0.09172 0.37162-0.71560
   1  -7   7 3182.98  734.73   1 0.74345-0.65789-0.11008-0.68345 0.65966-0.31632
   1  -7   7 5124.39  622.91   1 0.60216-0.51559-0.06579-0.72799 0.79565-0.45187
  -1   7  -8 2222.44  565.78   1 0.23614-0.32412 0.04478 0.74896-0.97068 0.57792
  -1  -7  -8 1031.24  286.69   1 0.25995-0.34805-0.79754 0.00300 0.54438-0.93746
   1  -7   8 2947.41  598.31   1 0.74218-0.65537-0.08887-0.70466 0.66427-0.27188
   1  -7   8 1886.33  433.53   1 0.62294-0.53499-0.04338-0.75040 0.78105-0.38816
  -1   7  -9 1741.57  470.59   1 0.25092-0.34028 0.01433 0.77941-0.96790 0.52604
  -1  -7  -9 2308.19  547.39   1 0.29156-0.38106-0.82636 0.03182 0.48178-0.92400
  -1  -7  -9 3159.92  742.02   1 0.56336-0.65211-0.76370-0.03105 0.31523-0.75748
   1  -7   9 2804.97  682.41   1 0.74081-0.65276-0.07064-0.72289 0.66798-0.22654
   1  -7   9 1805.39  407.79   1 0.63934-0.55001-0.02510-0.76868 0.76851-0.32650
  -1   8   3  612.67  156.14   1-0.08799 0.01524 0.59151 0.31566-0.80148 0.94874
   1   8  -3  352.49  225.81   1 0.09621-0.02336 0.30699 0.60026-0.94683 0.79946
  -1  -8   3  222.61  154.98   1 0.27350-0.34645-0.34458-0.56235 0.89802-0.75081
  -1   8   210688.49 2109.48   1-0.05657-0.01762 0.54776 0.35947-0.83471 0.93298
   1   8  -210473.70 1592.47   1 0.06758 0.00663 0.35549 0.55175-0.93223 0.83398
   1  -8  -211262.05 1403.13   1 0.70893-0.63452-0.46210-0.44627 0.53279-0.63104
  -1  -8   212403.62 1509.55   1 0.70869-0.78309-0.46302-0.44535 0.53231-0.43406
  -1  -8   2 8926.43 1500.52   1 0.21692-0.29118-0.38239-0.52455 0.89817-0.80003
  -1   8   1 3749.97  610.21   1-0.02578-0.04979 0.50275 0.40449-0.86404 0.91318
   1   8  -1 3668.92  640.54   1 0.03693 0.03864 0.40555 0.50168-0.91332 0.86418
  -1  -8   1 3878.56  606.30   1 0.70142-0.77711-0.48907-0.41930 0.51846-0.46933
   1  -8  -1 3157.60  723.67   1 0.71712-0.64144-0.42864-0.47973 0.54954-0.59866
  -1  -8   1 2970.60  611.07   1 0.15176-0.22743-0.42301-0.48540 0.89332-0.84418
   1   8   0 1729.84  413.47   1 0.00466 0.07230 0.45649 0.45075-0.88971 0.88971
  -1   8   0 3060.11  751.80   1 0.00417-0.08113 0.45724 0.45000-0.88933 0.88933
  -1  -8   0 2105.44  528.99   1 0.69303-0.76999-0.51616-0.39221 0.50326-0.50326
   1  -8   0 2331.33  541.38   1 0.72395-0.64700-0.39611-0.51226 0.56477-0.56477
   1   8   1  356.98  250.09   1-0.02896 0.10729 0.50747 0.39976-0.86117 0.91031
  -1   8  -1  516.71  230.84   1 0.03300-0.11134 0.41186 0.49538-0.91064 0.86151
  -1  -8  -1 1635.71  469.99   1 0.68343-0.76166-0.54406-0.36431 0.48673-0.53585
   1  -8   1 2618.60  700.49   1 0.72954-0.65131-0.36477-0.54361 0.57853-0.52941
   1   8   2 2466.29  609.86   1-0.06352 0.14324 0.55767 0.34956-0.82762 0.92589
  -1  -8  -2 2417.14  690.23   1 0.67256-0.75207-0.57256-0.33582 0.46886-0.56711
   1  -8   2 2534.93  685.48   1 0.73452-0.65504-0.33420-0.57306 0.59058-0.49244
   2   0 -18 8134.85  867.96   1 0.49862-0.36938-0.77958 0.77958-0.37898-0.50577
  -2   0  1726305.06 1792.36   1 0.80543-0.93569 0.21188-0.21188 0.55351 0.28210
   2   0 -1612665.97  922.17   1-0.22383 0.35658-0.86869 0.86869-0.44189-0.34382
  -2   0  1615210.54 1095.61   1 0.81134-0.94300 0.22369-0.22369 0.54008 0.24638
   2   0 -1549824.64 2839.43   1 0.49510-0.36158-0.81866 0.81866-0.29096-0.44614
   2   0 -1549788.76 2688.77   1-0.18837 0.32244-0.89020 0.89020-0.41479-0.32181
  -2   0  1555150.30 3002.76   1 0.81634-0.94940 0.23411-0.23411 0.52799 0.20932
   2   0 -14 3909.92  517.28   1 0.49282-0.35794-0.83019 0.83019-0.26058-0.42738
   2   0 -14 4001.92  651.17   1-0.15317 0.28857-0.90916 0.90916-0.38724-0.30025
  -2   0  14 5295.47  540.00   1 0.81999-0.95507 0.24305-0.24305 0.51819 0.16954
   2   0 -13 2365.87  563.07   1 0.48998-0.35373-0.84099 0.84099-0.22944-0.40938
   2   0 -13 1515.70  311.58   1-0.11791 0.25447-0.92580 0.92580-0.35915-0.27953
  -2   0  13  594.00  131.39   1 0.67953-0.81688-0.55462 0.55462 0.48022 0.15840
  -2   0  13  908.76  221.88   1 0.82316-0.95959 0.25014-0.25014 0.50973 0.12888
   2   0 -1248485.84 1804.51   1 0.48652-0.34891-0.85108 0.85108-0.19736-0.39232
   2   0 -1244139.63 1481.39   1-0.08250 0.22040-0.94029 0.94029-0.33020-0.25935
  -2   0  1241192.67 1369.08   1 0.67281-0.81143-0.57193 0.57193 0.46926 0.12024
  -2   0  1242847.54 1497.98   1 0.82532-0.96310 0.25510-0.25510 0.50374 0.08575
   2   0 -1183425.05 2811.84   1 0.48237-0.34340-0.86045 0.86045-0.16411-0.37642
   2   0 -1186787.60 2804.31   1-0.04649 0.18571-0.95276 0.95276-0.30012-0.24030
  -2   0  1180392.66 2587.58   1 0.66774-0.80763-0.58433 0.58433 0.46116 0.07921
  -2   0  1188263.75 2894.43   1 0.82634-0.96547 0.25749-0.25749 0.50084 0.03952
   2   0 -1076674.94 2739.51   1 0.47744-0.33710-0.86908 0.86908-0.12938-0.36201
   2   0 -1069298.85 2396.49   1-0.00929 0.14985-0.96325 0.96325-0.26841-0.22288
  -2   0  1072811.46 2481.10   1 0.66512-0.80629-0.59052 0.59052 0.45704 0.03420
  -2   0  1074777.03 2595.61   1 0.82597-0.96645 0.25663-0.25663 0.50189-0.01064
   2   0  -921277.30  779.27   1 0.47159-0.32989-0.87692 0.87692-0.09273-0.34953
   2   0  -922554.87  748.07   1 0.02994 0.11194-0.97171 0.97171-0.23423-0.20792
  -2   0   920609.92  626.47   1 0.66612-0.80857-0.58816 0.58816 0.45862-0.01649
  -2   0   921174.32  690.33   1 0.82377-0.96559 0.25154-0.25154 0.50804-0.06592
   2   0  -8164339.2 3866.01   1 0.46461-0.32154-0.88389 0.88389-0.05351-0.33961
   2   0  -8167991.0 3868.70   1 0.07350 0.06979-0.97786 0.97786-0.19590-0.19725
  -2   0   8156757.7 3580.62   1 0.67246-0.81618-0.57281 0.57281 0.46869-0.07569
  -2   0   8162079.5 3751.77   1 0.81895-0.96211 0.24076-0.24076 0.52091-0.12791
   2   0  -8141491.0 3266.53   1 0.85108-0.70778 0.51767-0.51767 0.08762-0.48067
   2   0  -7 1707.75  305.94   1 0.45604-0.31183-0.88988 0.88988-0.01082-0.33295
   2   0  -7 1678.65  146.92   1 0.12306 0.02157-0.98089 0.98089-0.15067-0.19334
  -2   0   7 1764.83  123.27   1 0.68652-0.83152-0.53538 0.53538 0.49197-0.14809
  -2   0   7 1597.28  172.93   1 0.81045-0.95474 0.22189-0.22189 0.54214-0.19807
   2   0  -7 1420.98  115.11   1 0.86154-0.71693 0.48179-0.48179 0.16000-0.50385
   2   0  -690344.39 1233.40   1 0.44556-0.29996-0.89449 0.89449 0.03684-0.33152
   2   0  -688622.22 1039.44   1 0.18594-0.03996-0.97828 0.97828-0.09151-0.20335
  -2   0   684410.29  956.06   1 0.71073-0.85699-0.45516 0.45516 0.53636-0.24160
  -2   0   690425.15 1122.16   1 0.79468-0.94037 0.19152-0.19152 0.57601-0.28108
   2   0  -681984.64  997.74   1 0.86644-0.72050 0.43473-0.43473 0.24552-0.54025
   2   0  -5 2832.12  223.87   1 0.43209-0.28511-0.89713 0.89713 0.09186-0.33742
  -2   0   5 2737.30  162.67   1 0.34042-0.48746-0.86416 0.86416 0.37058-0.12488
   2   0  -5 3199.60  102.82   1 0.28135-0.13411-0.95960 0.95960 0.00171-0.24734
  -2   0   5 3058.68  100.49   1 0.74066-0.88795-0.27828 0.27828 0.61153-0.36619
  -2   0   5 3664.63  214.63   1 0.76667-0.91376 0.14367-0.14367 0.62575-0.37998
   2   0  -5 2949.63  146.36   1 0.86100-0.71379 0.36988-0.36988 0.34908-0.59471
   2   0  -4188102.1 2169.87   1 0.41385-0.26549-0.89647 0.89647 0.15830-0.35475
  -2   0   4173839.0 1970.33   1 0.32748-0.47592-0.85524 0.85524 0.40163-0.20507
   2   0  -4163827.9 1763.66   1 0.46452-0.31594-0.86342 0.86342 0.19675-0.39329
  -2   0   4172713.6 1854.51   1 0.71093-0.85942 0.12317-0.12317 0.69238-0.49620
  -2   0   4183652.7 2050.89   1 0.71573-0.86422 0.06914-0.06914 0.69494-0.49832
   2   0  -4169836.9 1893.89   1 0.83438-0.68582 0.27723-0.27723 0.47638-0.67288
   2   0  -2164806.8 1848.79   1 0.34348-0.19228-0.86616 0.86616 0.36300-0.46128
   2   0  -2159351.3 1724.71   1-0.13452 0.28574-0.91822 0.91822-0.37252 0.27426
   2   0  -2160721.5 1732.63   1 0.52135-0.37026 0.56780-0.56780 0.63701-0.73518
   2   0  -2149211.2 1649.49   1 0.61772-0.46663-0.04910 0.04910 0.78486-0.88308
   2   0  -1243284.8 2623.03   1-0.14941 0.30187 0.67196-0.67196-0.72535 0.67626
   2   0  -1234612.6 2542.48   1 0.25968-0.10711-0.79728 0.79728 0.54489-0.59402
  -2   0   1246135.0 2658.07   1-0.22726 0.07472-0.86647 0.86647-0.44448 0.49358
  -2   0   1255513.8 2780.08   1 0.20486-0.35729-0.39013 0.39013 0.89767-0.84860
   2   0  -1245348.3 2676.16   1 0.36987-0.21744-0.27428 0.27428 0.88767-0.93674
  -2   0   0 1737.67  189.88   1-0.07696-0.07696 0.57657-0.57657-0.81341 0.81341
  -2   0   0 1784.04  264.34   1-0.07694-0.07694-0.94237 0.94237-0.32559 0.32559
   2   0   0 1829.25  137.66   1 0.07700 0.07700-0.97822 0.97822-0.19275 0.19275
   2   0   0 1388.32  266.81   1 0.07700 0.07700-0.46593 0.46593 0.88145-0.88145
  -2   0  -160320.23  682.25   1 0.22212-0.37735 0.07312-0.07312-0.97227 0.92317
   2   0   154771.13  736.20   1 0.13083 0.02450-0.98096 0.98096-0.14346 0.19261
   2   0   153584.63  649.49   1-0.16694 0.32230-0.58011 0.58011 0.79724-0.74805
   2   0   162278.54  754.63   1 0.31097-0.15573 0.62860-0.62860-0.71284 0.76197
  -2   0  -2348117.9 3741.15   1 0.41172-0.56833-0.37283 0.37283-0.83155 0.73348
   2   0   2350622.0 3771.61   1 0.48460-0.32801-0.63732 0.63732-0.59914 0.69729
   2   0   2344263.5 3824.30   1 0.17382-0.01714-0.97936 0.97936-0.10307 0.20135
   2   0   2350867.1 3811.67   1 0.47438-0.31777 0.66031-0.66031-0.58218 0.68044
  -2   0  -3648572.124167.65   1 0.47226-0.63024-0.57841 0.57841-0.66512 0.51790
   2   0   3640218.323859.68   1 0.49857-0.34040-0.78093 0.78093-0.37623 0.52369
  -2   0  -3588036.821952.01   1 0.05252-0.21054-0.97526 0.97526-0.21469 0.06725
   2   0   3523744.0 5744.22   1 0.21081-0.05279-0.97518 0.97518-0.06755 0.21498
   2   0   3645742.624072.24   1 0.58321-0.42533 0.66498-0.66498-0.46653 0.61391
  -2   0  -4107620.5 1260.29   1 0.48978-0.64914-0.66782 0.66782-0.56046 0.36417
   2   0   4102654.5 1220.00   1 0.49052-0.33109-0.83916 0.83916-0.23492 0.43149
  -2   0  -4114000.8 1478.08   1 0.05794-0.21730-0.97601 0.97601-0.20985 0.01327
  -2   0  -497752.96 1169.21   1 0.49398-0.65322 0.66251-0.66251-0.56306 0.36655
  -2   0  -530468.41  504.60   1 0.49563-0.65656-0.71009 0.71009-0.50011 0.25434
   2   0   528764.98  475.89   1 0.47869-0.31789-0.86709 0.86709-0.13781 0.38351
  -2   0  -533594.01  646.12   1 0.05572-0.21641-0.97571 0.97571-0.21184-0.03387
   2   0   527273.56  525.79   1 0.27510-0.11448-0.96140 0.96140-0.00457 0.25019
  -2   0  -528517.71  474.59   1 0.53266-0.69325 0.66495-0.66495-0.52354 0.27791
  -2   0  -6127499.3 1544.85   1 0.49750-0.65980-0.73171 0.73171-0.46591 0.17099
   2   0   6120134.6 1458.71   1 0.46667-0.30451-0.88206 0.88206-0.06465 0.35949
   2   0   6122901.9 1514.66   1 0.74690-0.58493 0.62808-0.62808-0.21828 0.51318
  -2   0  -6115004.5 1371.34   1 0.55643-0.71836 0.66544-0.66544-0.49755 0.20279
  -2   0  -7  621.00  261.30   1 0.49815-0.66183-0.74241 0.74241-0.44794 0.10387
   2   0   7  691.23  103.81   1 0.45496-0.29141-0.89049 0.89049-0.00564 0.34943
  -2   0  -7  825.33  280.77   1 0.03683-0.20005-0.97292 0.97292-0.22816-0.11574
  -2   0  -8112217.0 2671.46   1 0.49835-0.66341-0.74676 0.74676-0.44044 0.04721
  -2   0  -8144597.9 3462.51   1 0.02280-0.18735-0.97037 0.97037-0.24051-0.15252
  -2   0  -9 2544.76  327.76   1 0.49836-0.66480-0.74701 0.74701-0.44000-0.00237
  -2   0  -9 3128.87  430.44   1 0.00658-0.17246-0.96700 0.96700-0.25467-0.18749
   2   0   9 1593.16  242.22   1 0.81515-0.64935 0.57677-0.57677-0.05346 0.49565
  -2   0 -1066752.55 2379.59   1 0.49824-0.66606-0.74441 0.74441-0.44452-0.04700
  -2   0 -1071076.50 2920.53   1-0.01140-0.15581-0.96272 0.96272-0.27022-0.22107
   2   0  1063930.78 2260.87   1 0.82900-0.66188 0.55918-0.55918-0.00790 0.49922
  -2   0 -11199111.1 6411.24   1 0.49800-0.66719-0.73966 0.73966-0.45265-0.08803
  -2   0 -11208710.721245.74   1-0.03085-0.13769-0.95747 0.95747-0.28687-0.25355
   2   0  11190776.7 6135.60   1 0.84000-0.67156 0.54146-0.54146 0.03466 0.50578
  -2   0 -1210492.12 1195.71   1 0.49760-0.66817-0.73319 0.73319-0.46348-0.12635
  -2   0 -1211992.84 1667.43   1-0.05156-0.11832-0.95114 0.95114-0.30439-0.28515
   2   0  12 8921.48 1061.70   1 0.84867-0.67890 0.52358-0.52358 0.07485 0.51472
  -2   0 -1328158.96 1322.01   1 0.49702-0.66897-0.72528 0.72528-0.47637-0.16261
  -2   0 -1337222.57 2936.38   1-0.07336-0.09785-0.94367 0.94367-0.32262-0.31606
   2   0  1328836.14 1344.97   1 0.85546-0.68440 0.50537-0.50537 0.11304 0.52552
  -2   0 -1411389.47  959.82   1 0.49622-0.66955-0.71609 0.71609-0.49088-0.19725
  -2   0 -1411280.52 1357.08   1-0.09614-0.07639-0.93497 0.93497-0.34142-0.34638
   2   0  14 8880.02  752.88   1 0.86042-0.68805 0.48706-0.48706 0.14978 0.53791
  -2   0 -15 1828.18  382.55   1 0.49517-0.66988-0.70574 0.70574-0.50667-0.23061
  -2   0 -15 2130.51  416.92   1-0.11983-0.05404-0.92494 0.92494-0.36071-0.37623
   2   0  15 1343.28  345.43   1 0.86383-0.69014 0.46847-0.46847 0.18524 0.55157
  -2   0 -16 4722.15  861.97   1 0.49384-0.66992-0.69430 0.69430-0.52350-0.26294
  -2   0 -16 5532.17 1050.81   1-0.14436-0.03084-0.91349 0.91349-0.38038-0.40568
   2   0  16 4639.87  848.10   1 0.86582-0.69081 0.44955-0.44955 0.21964 0.56628
  -2   0 -17 1671.02  498.09   1 0.49191-0.66934-0.68245 0.68245-0.54062-0.29364
  -2   0 -17 1755.31  530.61   1-0.16963-0.00665-0.90058 0.90058-0.40020-0.43461
   2   0  17 1877.74  593.44   1 0.86647-0.69013 0.43025-0.43025 0.25317 0.58188
  -2   0 -18 9981.62  866.52   1 0.48995-0.66877-0.66896 0.66896-0.55895-0.32438
  -2   0 -18 7220.79 1620.81   1-0.19573 0.01813-0.88593 0.88593-0.42047-0.46345
   2   0  18 7577.95  679.26   1 0.86584-0.68818 0.41054-0.41054 0.28596 0.59821
   2   1 -18 3568.46  755.95   1 0.49687-0.36763-0.72338 0.83698-0.47941-0.40534
   2  -1 -18 1791.95  651.21   1 0.49441-0.36499-0.82252 0.70896-0.28107-0.60345
  -2  -1  18 2066.87  478.79   1 0.78443-0.91329 0.17325-0.28674 0.59551 0.28925
  -2   1  18 3197.48  619.90   1 0.80748-0.93634 0.21592-0.10242 0.54895 0.33582
   2   1 -17 4633.00 1027.19   1 0.49781-0.36720-0.73646 0.85006-0.45803-0.37756
   2  -1 -17 4553.60  996.91   1 0.49148-0.36068-0.83568 0.72212-0.24510-0.59028
  -2  -1  17 5964.94  671.97   1 0.79063-0.92089 0.18417-0.29767 0.58393 0.25168
  -2   1  17 5203.61 1089.87   1 0.81500-0.94526 0.23128-0.11778 0.53130 0.30431
   2   1 -16  265.01  368.70   1 0.49843-0.36644-0.74872 0.86232-0.43700-0.34944
   2  -1 -16 3300.68  752.32   1 0.48772-0.35557-0.84785 0.73429-0.20799-0.57825
   2  -1 -16  921.42  279.96   1-0.01922 0.15178-0.96069 0.84719-0.27693-0.50913
  -2  -1  16 1452.23  480.48   1 0.79587-0.92753 0.19370-0.30720 0.57363 0.21283
  -2   1  16  871.44  351.70   1 0.82113-0.95352 0.24557-0.13213 0.51519 0.27079
   2   1 -1518817.66 1261.41   1 0.49875-0.36538-0.76018 0.87378-0.41636-0.32092
   2  -1 -1519483.18 1214.06   1 0.48309-0.34957-0.85899 0.74543-0.16954-0.56755
   2   1 -1518270.41 1021.32   1-0.41218 0.54611-0.70795 0.82153-0.57349-0.16380
   2  -1 -1522167.44 1431.12   1 0.02989 0.10400-0.97170 0.85820-0.23429-0.50265
  -2  -1  1520201.61 1204.89   1 0.80015-0.93322 0.20171-0.31520 0.56485 0.17245
  -2   1  1519899.99 1155.68   1 0.82679-0.96053 0.25855-0.14510 0.49955 0.23731
   2   1 -1431976.42 1967.82   1 0.49879-0.36404-0.77085 0.88445-0.39622-0.29192
   2  -1 -1431616.06 1939.00   1 0.47746-0.34258-0.86905 0.75549-0.12951-0.55845
   2   1 -1428600.92 1652.49   1-0.39778 0.53305-0.72339 0.83696-0.56433-0.12381
   2  -1 -1438618.30 2248.71   1 0.08080 0.05446-0.97858 0.86505-0.18931-0.49871
  -2  -1  1434217.57 2037.96   1 0.80343-0.93790 0.20799-0.32149 0.55787 0.13028
  -2   1  1431972.62 1868.79   1 0.83158-0.96666 0.27014-0.15670 0.48527 0.20247
   2   1 -1324997.73 1347.75   1 0.49858-0.36245-0.78072 0.89432-0.37667-0.26231
   2   1 -1321289.79 1505.85   1-0.38721 0.52383-0.73433 0.84791-0.55750-0.08148
   2  -1 -1314244.99 1660.97   1 0.13311 0.00349-0.98096 0.86743-0.14134-0.49753
  -2  -1  1313038.17 1534.26   1 0.80565-0.94152 0.21230-0.32580 0.55303 0.08596
  -2   1  1322982.14 1039.01   1 0.83550-0.97194 0.28016-0.16672 0.47268 0.16593
   2   1 -1287196.92 2992.00   1 0.49816-0.36066-0.78978 0.90338-0.35785-0.23197
   2   1 -1274069.07 2393.07   1-0.38143 0.51938-0.74019 0.85377-0.55372-0.03611
   2  -1 -1288545.95 2911.86   1 0.18784-0.04989-0.97809 0.86456-0.08969-0.50004
  -2  -1  1270965.52 2295.99   1 0.55203-0.68997-0.77745 0.66396 0.30136 0.28824
  -2  -1  1287183.72 2908.28   1 0.80666-0.94393 0.21430-0.32779 0.55078 0.03906
  -2   1  1278778.05 2591.97   1 0.83855-0.97633 0.28832-0.17487 0.46226 0.12723
   2   1 -1129891.45 1200.33   1 0.49757-0.35868-0.79802 0.91162-0.33997-0.20071
   2  -1 -1130513.89 1204.01   1 0.45296-0.31427-0.89151 0.77804 0.00370-0.54393
   2   1 -1126697.47  937.72   1-0.38182 0.52111-0.73980 0.85338-0.55398 0.01329
   2  -1 -1130292.86 1082.20   1 0.24631-0.10709-0.96861 0.85520-0.03327-0.50709
  -2  -1  1124884.10  840.25   1 0.52193-0.66120-0.81100 0.69751 0.26429 0.27617
  -2   1  1124411.34  856.38   1 0.72584-0.86574-0.38610 0.49965 0.56926-0.02889
  -2  -1  1131234.95 1132.42   1 0.80627-0.94495 0.21353-0.32702 0.55165-0.01096
  -2   1  1126938.01  960.77   1 0.84066-0.97978 0.29419-0.18074 0.45467 0.08569
   2   1 -1050512.62 1921.91   1 0.49684-0.35658-0.80538 0.91898-0.32326-0.16826
   2  -1 -1051998.71 1937.83   1 0.44147-0.30140-0.89563 0.78216 0.05420-0.54532
   2   1 -1045665.63 1613.60   1-0.39050 0.53113-0.73096 0.84454-0.55963 0.06810
   2  -1 -1049625.44 1741.36   1 0.30803-0.16748-0.95093 0.83752 0.02885-0.52009
  -2  -1  1043713.23 1503.38   1 0.48764-0.62824-0.84394 0.73046 0.22350 0.26783
  -2   1  1044185.59 1545.82   1 0.72802-0.86919-0.37383 0.48737 0.57465-0.08339
  -2  -1  1051138.47 1842.50   1 0.80414-0.94422 0.20936-0.32286 0.55633-0.06479
  -2   1  1046735.65 1638.27   1 0.84168-0.98215 0.29711-0.18366 0.45087 0.04037
   2   1  -962962.13 1885.78   1 0.49604-0.35440-0.81179 0.92539-0.30809-0.13428
   2  -1  -961509.21 1840.77   1 0.42759-0.28614-0.89737 0.78390 0.10900-0.55101
   2   1  -958543.92 1617.20   1-0.41065 0.55262-0.70962 0.82320-0.57253 0.13015
   2  -1  -955603.41 1575.50   1 0.37435-0.23246-0.92206 0.80865 0.09828-0.54040
  -2  -1   951953.03 1441.23   1 0.44706-0.58899-0.87683 0.76334 0.17690 0.26530
  -2   1   957481.30 1618.81   1 0.73216-0.87428-0.35069 0.46409 0.58390-0.14228
  -2  -1   958096.33 1688.21   1 0.79975-0.94123 0.20094-0.31444 0.56570-0.12331
  -2   1   961692.99 1741.80   1 0.84131-0.98313 0.29605-0.18260 0.45226-0.01013
   2  -1  -953361.23 1506.68   1 0.77035-0.62846 0.61477-0.72827-0.16913-0.27322
   2  -1  -820729.20  920.52   1 0.41064-0.26780-0.89595 0.78248 0.16924-0.56213
   2  -1  -819060.89  777.34   1 0.44723-0.30397-0.87670 0.76321 0.17709-0.57017
  -2  -1   820556.07  864.47   1 0.79224-0.93513 0.18707-0.30057 0.58081-0.18758
   2  -1  -818930.31  775.75   1 0.78906-0.64577 0.60146-0.71490-0.12494-0.26810
   2  -1  -7196186.3 4565.68   1 0.38988-0.24561-0.89006 0.77658 0.23618-0.58016
  -2  -1   7181413.3 4125.80   1 0.32458-0.46915-0.94474 0.83133 0.04590 0.29796
   2  -1  -7172976.0 3962.14   1 0.52338-0.37879-0.80949 0.69600 0.26605-0.60998
  -2   1   7181930.0 4156.36   1 0.74224-0.88694-0.25753 0.37094 0.61866-0.27518
  -2  -1   7191817.7 4353.05   1 0.50557-0.65013 0.59087-0.70430 0.62869-0.28509
  -2   1   7196407.5 4487.69   1 0.83301-0.97752 0.27374-0.16029 0.48077-0.13690
   2  -1  -7179897.5 4111.62   1 0.80823-0.66362 0.58420-0.69764-0.07391-0.27000
   2   1  -6177742.0 2134.87   1 0.49420-0.34841-0.82363 0.93719-0.27818-0.01665
   2  -1  -6170017.5 2038.52   1 0.36321-0.21755-0.87788 0.76441 0.31207-0.60690
  -2  -1   6161656.3 1780.52   1 0.21528-0.36125-0.97450 0.86097-0.06321 0.35808
   2  -1  -6165754.7 1882.14   1 0.60223-0.45617-0.70942 0.59588 0.36609-0.66092
  -2   1   6177044.6 1984.07   1 0.74497-0.89097-0.17749 0.29090 0.64304-0.34863
  -2  -1   6157563.5 1718.89   1 0.59379-0.73966 0.44467-0.55810 0.67057-0.37605
   2  -1  -6155696.1 1746.67   1 0.82811-0.68217 0.56044-0.67388-0.01104-0.28374
  -2  -1   557813.85  788.95   1 0.44367-0.59065-0.89506 0.78159 0.04495 0.20060
   2  -1  -555629.67  666.81   1 0.84837-0.70110 0.52430-0.63774 0.07329-0.31895
   2  -1  -4106860.7 1249.26   1-0.16257 0.31085 0.68816-0.80156-0.70710 0.51074
   2   1  -4102979.7 1296.07   1 0.49484-0.34632-0.82017 0.93373-0.28713 0.09057
  -2  -1   4106862.3 1292.47   1 0.45110-0.59947-0.89238 0.77891 0.01225 0.18418
   2  -1  -4107158.9 1298.02   1 0.28295-0.13456-0.81883 0.70532 0.49945-0.69599
  -2  -1   4103053.9 1122.43   1-0.32875 0.18017-0.78974 0.67621-0.51790 0.71433
   2  -1  -4105045.7 1216.04   1 0.72904-0.58023-0.36779 0.25424 0.57724-0.77375
  -2   1   4101685.2 1172.25   1 0.72056-0.86920 0.07590 0.03745 0.68922-0.49302
  -2   1   4111986.7 1253.01   1 0.72193-0.87042 0.07758 0.03591 0.68759-0.49098
   2   1  -4103441.7 1224.94   1 0.80786-0.65937 0.21668-0.10319 0.54808-0.74470
   2  -1  -4104837.7 1167.09   1 0.86494-0.71636 0.45966-0.57311 0.20145-0.39794
   2  -1  -371346.92  896.08   1-0.10765 0.25732 0.61809-0.73148-0.77870 0.63143
  -2  -1   373349.92  902.63   1 0.45880-0.60855-0.88820 0.77473-0.02427 0.17161
   2  -1  -369485.63  842.55   1 0.74380-0.59392-0.12142 0.00801 0.65727-0.80447
  -2   1   374946.31  879.64   1 0.67703-0.82679 0.24463-0.13130 0.69409-0.54695
   2   1  -374167.03  823.08   1 0.66979-0.52003 0.26608-0.15275 0.69323-0.84037
   2  -1  -370694.26  790.19   1 0.84793-0.69803 0.31624-0.42969 0.42543-0.57281
   2  -1  -2271233.4 2971.22   1-0.02900 0.18016 0.50753-0.62094-0.86114 0.76286
  -2  -1   2258197.6 2825.04   1 0.46731-0.61856-0.88145 0.76789-0.06818 0.16646
  -2  -1   2260506.7 2814.39   1 0.61569-0.76700-0.68782 0.57428 0.38446-0.28619
   2   1  -2265904.9 2865.48   1 0.74252-0.59135-0.25327 0.36668 0.62008-0.71822
   2  -1  -2257487.8 2758.02   1 0.62644-0.47535-0.03953-0.07386 0.77846-0.87668
   2   1  -2269685.0 2960.57   1 0.65152-0.50044-0.01113 0.12453 0.75854-0.85676
   2  -1  -1381749.6 4144.43   1 0.07701 0.07551 0.33970-0.45311-0.93737 0.88824
  -2  -1   1385007.9 4138.70   1 0.47770-0.63031-0.86868 0.75512-0.13110 0.18024
  -2  -1   1369258.0 3978.32   1 0.54993-0.70251-0.77995 0.66646 0.29873-0.24960
   2   1  -1367995.5 3966.12   1 0.68517-0.53253-0.53921 0.65276 0.48967-0.53879
   2  -1  -1387106.2 4186.55   1 0.62615-0.47385 0.37630-0.48963 0.68288-0.73192
   2  -1  -1371168.6 3969.98   1 0.05166 0.10102-0.47962 0.36606 0.87595-0.92508
   2   1  -1362744.0 3938.09   1 0.51267-0.36029-0.15376 0.26713 0.84470-0.89376
   2  -1  -1383076.1 4095.99   1 0.40134-0.24882 0.64931-0.76278-0.64599 0.59686
   2  -1   0197207.4 2177.96   1 0.20197-0.04813 0.11296-0.22636-0.97285 0.97285
   2   1   0179379.4 1930.44   1 0.42682-0.27300-0.41802 0.53140-0.80191 0.80191
  -2  -1   0190549.7 2052.56   1 0.49296-0.64694-0.82959 0.71603-0.26222 0.26222
   2  -1   0187936.6 2072.49   1-0.40718 0.56120-0.71338 0.59980-0.57033 0.57033
   2  -1   0205262.1 2274.26   1 0.52908-0.37538 0.55607-0.66950 0.64097-0.64097
  -2  -1   0199042.4 2225.47   1 0.18038-0.33412-0.40553 0.29216 0.89610-0.89610
   2   1   0176462.7 1967.32   1 0.33846-0.18473-0.29806 0.41142 0.89252-0.89252
  -2   1   0187114.3 2033.53   1 0.35238-0.50626 0.63899-0.52553-0.68374 0.68374
  -2   1  -1317014.0 3453.63   1 0.22693-0.38216 0.06346 0.04992-0.97183 0.92274
   2  -1   1320164.2 3486.07   1 0.32084-0.16566-0.13938 0.02600-0.93681 0.98583
  -2  -1  -1307174.1 3267.97   1 0.41786-0.57307-0.39087 0.27749-0.82012 0.77108
  -2   1  -1315832.9 3455.54   1-0.43734 0.28198-0.67947 0.79305-0.58909 0.53994
   2  -1   1305585.6 3331.50   1-0.30604 0.46122-0.80889 0.69536-0.50201 0.55112
  -2  -1  -1291700.2 3192.76   1 0.45288-0.60812-0.87248 0.75899 0.18348-0.23262
   2   1   1296519.1 3248.98   1 0.57287-0.41763-0.75142 0.86495 0.32739-0.27825
  -2  -1  -1327342.0 3578.68   1-0.02044-0.13489-0.51618 0.40263 0.85623-0.90536
  -2   1  -1294713.9 3188.40   1 0.52684-0.68202 0.66471-0.55125-0.52971 0.48058
   2   1   346827.97  560.51   1 0.26437-0.10624-0.80176 0.91527 0.53598-0.38857
  -2   1  -351658.21  734.58   1-0.30414 0.14633-0.81044 0.92397-0.50067 0.35335
   2   1   346410.84  657.84   1 0.52289-0.36500-0.81000 0.92349 0.26546-0.11806
   2  -1   354964.80  744.72   1 0.77535-0.61739 0.61147-0.72497-0.15788 0.30533
  -2  -1  -483616.78  990.91   1 0.46667-0.62611-0.88205 0.76849-0.06467-0.13188
   2   1   476721.08  914.13   1 0.31597-0.15644-0.84668 0.96015 0.42811-0.23155
  -2   1  -480419.42 1065.11   1-0.26200 0.10286-0.84272 0.95625-0.47029 0.27386
  -2  -1  -481882.99 1061.28   1 0.34403-0.50331-0.93662 0.82321 0.06616-0.26266
   2  -1   480312.06 1022.94   1 0.79648-0.63730 0.59528-0.70872-0.10604 0.30256
  -2   1  -478809.16  972.34   1 0.66574-0.82503 0.65544-0.54195-0.35660 0.15999
   2   1   479474.20 1009.96   1 0.48092-0.32158 0.66101-0.54755-0.57599 0.77250
  -2  -1  -568222.67  870.19   1 0.47414-0.63493-0.87378 0.76022-0.10815-0.13754
  -2  -1  -566495.25  926.35   1 0.31197-0.47259-0.94952 0.83611 0.03289-0.27851
   2  -1   567325.31  900.96   1 0.81244-0.65193 0.57977-0.69321-0.06163 0.30729
  -2   1  -6245391.3 5631.90   1 0.46732-0.62947-0.55780 0.67121-0.68590 0.39145
   2  -1   6229668.1 5272.73   1 0.49831-0.33600-0.78714 0.67354-0.36343 0.65835
  -2  -1  -6252589.3 5772.37   1 0.47964-0.64180-0.86551 0.75195-0.14432-0.15051
   2   1   6227381.0 5205.51   1 0.34568-0.18338-0.86756 0.98104 0.35753-0.06269
  -2   1  -6231816.0 5346.04   1-0.21321 0.05143-0.87539 0.98892-0.43384 0.13920
   2  -1   6212069.6 4894.82   1 0.06868 0.09334-0.97733 0.86380-0.20023 0.49510
  -2  -1  -6254192.2 5848.62   1 0.28088-0.44284-0.95973 0.84633 0.00124-0.29599
   2  -1   6242931.6 5572.31   1 0.82497-0.66314 0.56474-0.67818-0.02191 0.31670
  -2   1  -739912.24 1572.39   1 0.47530-0.63884-0.59178 0.70519-0.65105 0.30753
  -2  -1  -753832.19 1336.57   1 0.48401-0.64754-0.85701 0.74345-0.17677-0.16720
   2   1   737694.42 1470.59   1 0.34842-0.18474-0.86929 0.98276 0.35061-0.00663
   2  -1   756014.75 1423.37   1 0.83506-0.67191 0.54995-0.66340 0.01462 0.32929
   2   1   743229.21 1688.56   1 0.69348-0.53017 0.64862-0.53512-0.31362 0.65768
  -2   1  -863522.24 1589.34   1 0.48008-0.64500-0.61411 0.72752-0.62640 0.23380
  -2  -1  -850295.02 1962.67   1 0.48762-0.65251-0.84813 0.73457-0.20707-0.18605
   2   1   852843.75 1315.14   1 0.34773-0.18265-0.86885 0.98233 0.35237 0.04074
  -2   1  -849500.78 2022.04   1-0.19637 0.03196-0.88556 0.99909-0.42096 0.02811
  -2  -1  -851343.01 1550.09   1 0.22011-0.38482-0.97371 0.86018-0.05850-0.33465
   2  -1   847568.38 1870.26   1 0.84327-0.67880 0.53525-0.64869 0.04891 0.34413
   2   1   864359.00 1619.85   1 0.73410-0.56946 0.63408-0.52058-0.24295 0.63616
  -2   1  -940573.83 1253.92   1 0.48291-0.64922-0.62834 0.74175-0.60989 0.16823
  -2  -1  -948263.58 1470.49   1 0.49062-0.65688-0.83879 0.72523-0.23601-0.20624
  -2  -1  -951285.22 1578.17   1 0.19030-0.35635-0.97783 0.86429-0.08733-0.35496
   2  -1   952110.15 1582.99   1 0.84996-0.68416 0.52049-0.63393 0.08156 0.36062
   2   1   941029.83 1244.50   1 0.76588-0.59990 0.61757-0.50407-0.17895 0.62131
  -2   1 -1018692.54 1306.06   1 0.48449-0.65220-0.63674 0.75015-0.59985 0.10910
  -2  -1 -1016663.88 1173.20   1 0.49311-0.66073-0.82892 0.71536-0.26405-0.22735
  -2   1 -1017177.97 1211.01   1-0.19961 0.03256-0.88364 0.99717-0.42345-0.06761
  -2  -1 -1015606.71 1124.89   1 0.16060-0.32798-0.98022 0.86669-0.11559-0.37585
   2  -1  1018149.06 1293.82   1 0.85543-0.68835 0.50545-0.61890 0.11289 0.37831
   2   1  1017304.15 1240.88   1 0.79089-0.62377 0.59999-0.48655-0.12038 0.61169
  -2   1 -1160172.98 2080.38   1 0.48523-0.65433-0.64078 0.75419-0.59492 0.05510
  -2  -1 -1161655.91 2113.56   1 0.49513-0.66411-0.81847 0.70491-0.29145-0.24909
  -2   1 -1150874.71 1805.32   1-0.20651 0.03814-0.87950 0.99303-0.42874-0.11144
  -2  -1 -1162628.82 2160.08   1 0.13092-0.29964-0.98096 0.86743-0.14338-0.39720
   2   1  1158447.30 1984.33   1 0.81083-0.64238 0.58150-0.46806-0.06639 0.60684
  -2   1 -1265965.03 3362.21   1 0.48536-0.65584-0.64146 0.75487-0.59409 0.00520
  -2  -1 -1262663.12 3196.65   1 0.49661-0.66718-0.80736 0.69376-0.31864-0.27119
  -2   1 -1263310.79 3241.07   1-0.21614 0.04645-0.87356 0.98710-0.43607-0.15321
  -2  -1 -1260884.49 3122.92   1 0.10116-0.27122-0.98009 0.86656-0.17080-0.41893
   2   1  1263263.33 3210.75   1 0.82666-0.65689 0.56246-0.44901-0.01611 0.60569
  -2   1 -1324741.58 1197.86   1 0.48499-0.65686-0.63945 0.75286-0.59655-0.04141
  -2  -1 -1318161.39 2138.49   1 0.49776-0.66971-0.79564 0.68204-0.34522-0.29376
  -2   1 -1325272.97 1676.72   1-0.22808 0.05707-0.86594 0.97947-0.44509-0.19329
  -2  -1 -1318978.81 2218.81   1 0.07127-0.24267-0.97762 0.86409-0.19791-0.44097
   2  -1  1319050.50 2207.96   1 0.86498-0.69393 0.45927-0.57272 0.20217 0.43639
   2   1  1323637.33 1113.95   1 0.83916-0.66806 0.54298-0.42954 0.03111 0.60759
  -2   1 -1417009.21 1359.85   1 0.48421-0.65747-0.63521 0.74862-0.60169-0.08534
  -2  -1 -1423423.45 1762.01   1 0.49849-0.67181-0.78324 0.66964-0.37153-0.31660
  -2   1 -1419210.78 1830.06   1-0.24202 0.06969-0.85669 0.97022-0.45552-0.23197
  -2  -1 -1427812.48 2261.63   1 0.04094-0.21349-0.97360 0.86010-0.22452-0.46328
   2  -1  1422702.76 1687.41   1 0.86618-0.69381 0.44322-0.55667 0.23081 0.45687
   2   1  1416914.63 1294.63   1 0.84886-0.67644 0.52313-0.40969 0.07582 0.61201
  -2   1 -1514435.11 1058.35   1 0.48305-0.65770-0.62907 0.74248-0.60904-0.12707
  -2  -1 -1521042.81 1398.42   1 0.49879-0.67350-0.77012 0.65652-0.39763-0.33966
  -2   1 -1514639.67 1845.81   1-0.25769 0.08405-0.84580 0.95933-0.46713-0.26947
  -2  -1 -1521007.91 2193.96   1 0.01061-0.18449-0.96788 0.85438-0.25116-0.48577
   2  -1  1520803.91 1392.72   1 0.86645-0.69276 0.42677-0.54022 0.25907 0.47774
   2   1  1513814.10  937.46   1 0.85626-0.68256 0.50279-0.38934 0.11834 0.61847
  -2   1 -16 5928.56 1070.36   1 0.48152-0.65756-0.62124 0.73466-0.61821-0.16697
  -2  -1 -16 4602.76  919.35   1 0.49867-0.67475-0.75625 0.64266-0.42355-0.36289
  -2   1 -16 5998.80 1315.42   1-0.27492 0.09995-0.83323 0.94676-0.47971-0.30599
  -2  -1 -16 4373.70 1063.80   1-0.02001-0.15520-0.96048 0.84698-0.27761-0.50845
   2  -1  16 6432.61 1201.40   1 0.86579-0.69078 0.40989-0.52334 0.28701 0.49892
   2   1  16 4546.52  883.77   1 0.86146-0.68644 0.48221-0.36876 0.15919 0.62673
  -2   1 -17 8264.25  918.48   1 0.47963-0.65706-0.61191 0.72532-0.62890-0.20536
  -2  -1 -17 9518.61  975.83   1 0.49810-0.67556-0.74161 0.62801-0.44933-0.38627
  -2   1 -17 6225.97 1361.71   1-0.29354 0.11726-0.81893 0.93246-0.49312-0.34169
  -2  -1 -17 7075.79 1207.43   1-0.05098-0.12555-0.95133 0.83783-0.30391-0.53128
   2  -1  17 7516.39  760.53   1 0.86421-0.68787 0.39255-0.50600 0.31469 0.52036
   2   1  17 7710.77  835.89   1 0.86476-0.68842 0.46124-0.34779 0.19857 0.63648
  -2   1 -18 2860.34  692.08   1 0.47736-0.65618-0.60117 0.71458-0.64087-0.24246
  -2  -1 -18  942.52  395.20   1 0.49709-0.67593-0.72614 0.61254-0.47499-0.40976
  -2   1 -18 2866.23  762.34   1-0.31344 0.13584-0.80278 0.91631-0.50723-0.37670
  -2  -1 -18 2363.90  655.93   1-0.08236-0.09551-0.94035 0.82685-0.33008-0.55424
   2  -1  18 2287.90  601.19   1 0.86183-0.68365 0.37474-0.48819 0.34176 0.54248
   2   1  18 3265.72  748.09   1 0.86631-0.68865 0.43984-0.32639 0.23670 0.64747
   2   2 -18 4406.78  804.85   1 0.48770-0.35891-0.65492 0.88175-0.57724-0.30609
   2  -2 -18 3944.43  765.30   1 0.48574-0.35631-0.85302 0.62590-0.19078-0.69374
  -2  -2  18 2384.34  461.08   1 0.76496-0.89382 0.14095-0.36794 0.62845 0.25631
  -2   2  18 3894.17  518.26   1 0.81053-0.93939 0.22205 0.00493 0.54196 0.34281
   2   2 -17 9287.79 1149.23   1 0.48950-0.35932-0.66604 0.89286-0.56282-0.27143
   2  -2 -17 6544.19  851.02   1 0.48024-0.34945-0.86445 0.63733-0.14859-0.68679
  -2  -2  17 6406.00  856.95   1 0.77048-0.90074 0.14982-0.37681 0.61959 0.21602
  -2   2  17 9080.43  982.06   1 0.81855-0.94960 0.23990-0.01300 0.52192 0.31319
   2   2 -1645993.16 3095.19   1 0.49101-0.35944-0.67606 0.90288-0.54940-0.23578
   2  -2 -1647655.01 3168.97   1 0.47360-0.34144-0.87447 0.64735-0.10482-0.68142
   2  -2 -1644141.65 2855.23   1 0.14606-0.01346-0.98079 0.75372-0.12926-0.65705
  -2  -2  1648985.77 3196.15   1 0.77497-0.90664 0.15720-0.38419 0.61212 0.17434
  -2   2  1645076.54 2918.48   1 0.82595-0.95835 0.25658-0.02969 0.50194 0.28404
   2   2 -1517132.25 1194.41   1 0.49225-0.35929-0.68494 0.91176-0.53715-0.19895
   2  -2 -1521223.69 1415.56   1 0.46567-0.33215-0.88297 0.65585-0.05922-0.67788
   2  -2 -1518849.45 1219.35   1 0.19935-0.06541-0.97676 0.74970-0.07863-0.65853
  -2  -2  1521367.06 1372.05   1 0.77840-0.91147 0.16293-0.38992 0.60624 0.13106
  -2   2  1519652.65 1240.24   1 0.83238-0.96612 0.27214-0.04525 0.48277 0.25409
   2   2 -14 8624.73 1109.49   1 0.49357-0.35882-0.69212 0.91932-0.52663-0.16150
   2  -2 -14 8427.02 1065.46   1 0.45617-0.32162-0.88981 0.66287-0.01143-0.67612
   2  -2 -14 8380.72  924.27   1 0.25388-0.11868-0.96689 0.74007-0.02576-0.66197
  -2  -2  14 8081.17  846.20   1 0.57903-0.71445 0.47245-0.69931 0.66445 0.02274
  -2  -2  1411180.68  837.72   1 0.78069-0.91516 0.16682-0.39381 0.60223 0.08592
  -2   2  14 9457.52 1027.65   1 0.83788-0.97296 0.28649-0.05959 0.46462 0.22312
   2   2 -13 3438.82  527.54   1 0.49435-0.35822-0.69848 0.92568-0.51742-0.12156
   2  -2 -13 3936.69  517.53   1 0.44512-0.30919-0.89462 0.66769 0.03873-0.67719
   2  -2 -13 3676.79  386.19   1 0.30864-0.17210-0.95072 0.72390 0.02947-0.66809
  -2  -2  13 3290.86  289.07   1 0.58088-0.71761 0.46905-0.69591 0.66524-0.02713
  -2  -2  13 2862.71  376.85   1 0.78174-0.91761 0.16860-0.39559 0.60037 0.03862
  -2   2  13 4438.68  423.71   1 0.84250-0.97893 0.29948-0.07258 0.44777 0.19084
   2   2 -12 5641.04  558.63   1 0.49491-0.35740-0.70335 0.93055-0.51024-0.07958
   2  -2 -12 1857.98  343.19   1 0.43212-0.29480-0.89713 0.67019 0.09177-0.68112
   2  -2 -12 2558.47  251.10   1 0.36417-0.22629-0.92721 0.70039 0.08743-0.67692
  -2  -2  12 1679.51  142.86   1 0.35711-0.49499-0.93063 0.70381 0.07995 0.50953
  -2  -2  12 2286.60  208.93   1 0.58742-0.72545 0.45687-0.68372 0.66798-0.07895
  -2  -2  12 2760.49  369.80   1 0.78136-0.91863 0.16795-0.39494 0.60105-0.01120
  -2   2  12 4728.19  345.80   1 0.84626-0.98404 0.31089-0.08399 0.43264 0.15685
   2   2 -1181564.80 2810.18   1 0.49525-0.35637-0.70648 0.93368-0.50556-0.03511
   2  -2 -1196700.00 3231.69   1 0.41678-0.27808-0.89685 0.66991 0.14816-0.68839
  -2  -2  1178346.24 2536.05   1 0.28725-0.42646-0.95782 0.73100 0.00767 0.53268
   2  -2 -1182822.85 2721.03   1 0.42160-0.28233-0.89454 0.66756 0.14846-0.68894
  -2  -2  1189233.08 2875.38   1 0.59912-0.73846 0.43424-0.66110 0.67266-0.13271
  -2  -2  1193585.46 3129.13   1 0.77930-0.91797 0.16444-0.39143 0.60468-0.06399
  -2   2  1178427.14 2555.61   1 0.84917-0.98830 0.32036-0.09346 0.41984 0.12052
   2   2 -10151471.6 4968.85   1 0.49536-0.35511-0.70754 0.93474-0.50397 0.01244
  -2  -2  10112507.2 3596.75   1 0.20368-0.34430-0.97620 0.74913-0.07445 0.56590
   2  -2 -10117532.8 3786.70   1 0.47801-0.33741-0.85230 0.62533 0.21229-0.70363
  -2  -2  10127249.0 4054.22   1 0.61630-0.75694 0.39896-0.62581 0.67896-0.18810
  -2  -2  10135550.1 4394.88   1 0.77517-0.91525 0.15752-0.38451 0.61179-0.12025
  -2   2  10134075.8 4277.19   1 0.85117-0.99165 0.32729-0.10040 0.41033 0.08091
   2  -2 -10117287.3 3750.05   1 0.59196-0.45162 0.66458-0.89150-0.45596-0.03529
  -2  -2   910188.55  706.94   1 0.10492-0.24689-0.98029 0.75322-0.16736 0.60966
   2  -2  -910277.76  748.69   1 0.53394-0.39201-0.79818 0.57120 0.27893-0.72114
  -2  -2   911064.63  760.30   1 0.63802-0.78017 0.34893-0.57559 0.68641-0.24499
  -2  -2   911527.05  855.55   1 0.76841-0.90989 0.14647-0.37346 0.62296-0.18057
   2  -2  -911056.91  766.00   1 0.59490-0.45321 0.66441-0.89134-0.45236 0.01023
   2   2  -814495.93  669.21   1 0.49466-0.35165-0.70117 0.92837-0.51347 0.12024
  -2  -2   819327.95  604.54   1-0.01417-0.12904-0.96201 0.73502-0.27261 0.66564
   2  -2  -821659.41  702.94   1 0.58865-0.44520-0.72966 0.50258 0.34796-0.74107
  -2  -2   820652.69  629.36   1 0.66498-0.80839 0.27972-0.50637 0.69249-0.30013
   2  -2  -818789.58  563.59   1 0.59152-0.44848 0.66460-0.89153-0.45650 0.06349
   2   2  -786727.46 2148.08   1 0.49353-0.34914-0.69183 0.91902-0.52705 0.18298
   2  -2  -783105.89 2038.59   1 0.32038-0.17611-0.85003 0.62308 0.41808-0.76206
  -2  -2   770828.58 1653.61   1-0.15291 0.00835-0.90923 0.68224-0.38717 0.73107
   2  -2  -782914.36 1990.92   1 0.63922-0.49447-0.64561 0.41853 0.41781-0.76178
  -2   2   777261.07 1834.63   1 0.74322-0.88812-0.10578 0.33251 0.66062-0.31728
  -2  -2   774795.46 1742.06   1 0.69380-0.83848 0.18986-0.41651 0.69468-0.35136
  -2  -2   783312.42 2044.34   1 0.74335-0.88764 0.10797-0.33496 0.66012-0.31604
  -2   2   781608.46 1886.82   1 0.84815-0.99266 0.31697-0.09008 0.42444-0.08057
   2  -2  -774484.38 1726.59   1 0.57712-0.43273 0.66519-0.89211-0.47375 0.12987
   2  -2  -6 4605.41  342.80   1 0.28293-0.13732-0.81881 0.59180 0.49948-0.79429
  -2  -2   6 4007.36  191.17   1-0.30839 0.16244-0.80697 0.57991-0.50367 0.79831
   2  -2  -6 4780.43  352.29   1 0.68356-0.53730-0.54369 0.31660 0.48695-0.78171
  -2   2   6 4375.27  295.03   1 0.73852-0.88466-0.04563 0.27235 0.67268-0.37839
  -2  -2   6 4716.47  254.75   1 0.71984-0.86599 0.07957-0.30630 0.68955-0.39526
  -2  -2   6 5241.46  349.92   1 0.72210-0.86779 0.07781-0.30480 0.68739-0.39247
  -2   2   6 4687.46  212.29   1 0.83774-0.98359 0.28610-0.05921 0.46511-0.17036
   2  -2  -6 4387.54  204.04   1 0.53965-0.39391 0.66518-0.89211-0.51603 0.22128
  -2  -2   5139591.4 3239.43   1 0.48866-0.63582-0.84514 0.61802-0.21665 0.46235
  -2  -2   5155955.2 3553.74   1-0.46327 0.31595-0.64795 0.42079-0.60458 0.85035
   2  -2  -5160996.1 3715.48   1 0.71807-0.57053-0.42438 0.19729 0.55159-0.79722
  -2  -2   5163309.3 3730.52   1 0.73862-0.88602-0.04667-0.18005 0.67249-0.42725
  -2   2   5164195.0 3774.47   1 0.72898-0.87638 0.02801 0.19870 0.68395-0.43871
   2  -2  -5154237.3 3496.55   1 0.43830-0.29124 0.65558-0.88251-0.61489 0.36924
   2   2  -484390.64 1116.45   1 0.47952-0.33127-0.61138 0.83821-0.62949 0.43319
   2  -2  -479186.17 1035.74   1 0.73975-0.59116-0.28845 0.06163 0.60791-0.80419
  -2  -2   480729.08  965.87   1 0.74497-0.89355-0.17889-0.04791 0.64266-0.44638
  -2   2   479428.71 1004.28   1 0.71238-0.86103 0.11494 0.11178 0.69230-0.49611
   2   2  -480601.99  948.51   1 0.59742-0.44895 0.43759-0.21073 0.67200-0.86834
  -2  -2   482298.67 1066.94   1 0.64958-0.79791-0.01338-0.21341 0.76016-0.56372
  -2   2   395358.34 1211.24   1-0.11742-0.03224 0.63102-0.40423-0.76682 0.91408
   2   2  -399314.43 1214.43   1 0.46479-0.31515-0.54765 0.77447-0.69573 0.54850
  -2  -2   392224.15 1136.18   1 0.49853-0.64843-0.78226 0.55507-0.37352 0.52098
  -2  -2   3103272.6 1213.90   1 0.73770-0.88758-0.30838 0.08157 0.60057-0.45336
  -2   2   398343.03 1183.81   1 0.68689-0.83665 0.21342 0.01323 0.69471-0.54757
  -2  -2   3102673.0 1264.85   1 0.59021-0.73992-0.07832-0.14846 0.80343-0.65610
   2  -2  -2228553.9 2590.01   1 0.10309 0.04807 0.29511-0.52192-0.94988 0.85163
   2   2  -2221923.9 2473.43   1 0.43498-0.28394-0.44368 0.67045-0.78353 0.68546
  -2  -2   2228747.3 2545.06   1 0.49687-0.64815-0.72346 0.49626-0.47928 0.57758
  -2  -2   2242225.0 2687.03   1 0.71788-0.86924-0.42527 0.19817 0.55116-0.45291
   2   2  -2217898.9 2411.84   1 0.73457-0.58343-0.01118 0.23791 0.67843-0.77652
   2  -2  -2231155.0 2602.86   1 0.73196-0.58082 0.00820-0.23492 0.68129-0.77939
  -2   2   2223680.1 2500.73   1 0.64998-0.80101 0.31958-0.09292 0.68948-0.59138
  -2  -2   2237507.6 2665.13   1 0.50866-0.65972-0.15746-0.06926 0.84644-0.74830
   2  -2  -150515.04  685.24   1 0.17771-0.02518 0.15980-0.38661-0.97102 0.92189
  -2  -2   150415.49  646.24   1 0.48257-0.63498-0.62660 0.39977-0.61195 0.66103
  -2  -2   152297.39  701.52   1 0.68971-0.84235-0.52613 0.29903 0.49746-0.44834
   2   2  -158825.45  750.58   1 0.74486-0.59239-0.19253 0.41935 0.63883-0.68790
   2  -2  -152062.01  747.00   1 0.70373-0.55143 0.15291-0.37957 0.69381-0.74286
  -2  -2   150698.44  692.96   1 0.40171-0.55408-0.24914 0.02240 0.88122-0.83215
   2  -2  -151837.67  587.92   1 0.84257-0.68998 0.29969-0.52658 0.44749-0.49661
   2   2   059289.51  715.64   1 0.26426-0.11041-0.01369 0.24047-0.96435 0.96435
   2  -2   058115.15  760.76   1 0.25442-0.10058 0.00702-0.23380-0.96706 0.96706
  -2  -2   056474.69  682.87   1 0.44152-0.59534-0.46504 0.23828-0.76732 0.76732
  -2  -2   060194.39  814.05   1 0.65630-0.81023-0.61058 0.38350 0.44322-0.44322
   2   2   053999.72  711.23   1 0.73474-0.58097-0.33256 0.55938 0.59123-0.59123
   2  -2   059021.25  794.38   1 0.66339-0.50983 0.28411-0.51077 0.69222-0.69222
  -2  -2   061564.43  810.74   1 0.26886-0.42259-0.34778 0.12104 0.89819-0.89819
   2  -2   057256.48  674.73   1 0.86635-0.71249 0.42185-0.64876 0.26731-0.26731
  -2   2   056316.49  658.70   1 0.70631-0.86025 0.64468-0.41768-0.29240 0.29240
   2  -2   152903.29  718.33   1 0.32568-0.17049-0.15067-0.07607-0.93339 0.98241
  -2  -2  -151467.06  621.11   1 0.35310-0.50829-0.21668-0.01006-0.91014 0.86112
   2  -2   150877.87  672.39   1-0.47677 0.63213-0.63060 0.40344-0.61238 0.66154
   2   2   156039.64  747.12   1 0.71559-0.56040-0.43529 0.66239 0.54630-0.49717
   2  -2   152881.67  735.57   1 0.61721-0.46221 0.39701-0.62386 0.67928-0.63019
  -2  -2  -153589.91  759.16   1 0.11636-0.27170-0.44382 0.21671 0.88852-0.93766
   2  -2   152425.30  656.10   1 0.86466-0.70947 0.46215-0.68906 0.19691-0.14779
  -2   2  -158177.29  704.22   1 0.74221-0.89748 0.63037-0.40337-0.22748 0.17833
   2   2   222866.31  312.11   1-0.09224 0.24889 0.59732-0.37053-0.79667 0.89485
  -2  -2  -221926.52  309.24   1 0.21765-0.37426 0.08205-0.30884-0.97256 0.87438
   2  -2   221612.97  387.97   1 0.38543-0.22882-0.29978 0.07303-0.87268 0.97072
   2  -2   222025.25  364.24   1-0.40561 0.56230-0.71507 0.48791-0.56933 0.66764
   2   2   221844.90  430.32   1 0.69515-0.53868-0.50959 0.73669 0.50702-0.40877
  -2  -2  -222880.27  442.40   1-0.04267-0.11398-0.52675 0.29964 0.84894-0.94721
   2   2   221627.64  371.30   1 0.24098-0.08464-0.36661 0.59335 0.89862-0.80048
   2  -2   221705.00  355.43   1 0.86223-0.70572 0.47825-0.70515 0.16680-0.06856
  -2   2  -221778.60  357.66   1 0.75574-0.91236 0.62344-0.39644-0.20039 0.10209
  -2  -2  -333314.06  432.34   1 0.07744-0.23541 0.33897-0.56578-0.93760 0.79023
   2  -2   332683.59  529.92   1 0.43082-0.27283-0.43047 0.20371-0.79314 0.94024
   2  -2   332665.01  496.86   1-0.33269 0.49073-0.78606 0.55890-0.52097 0.66843
  -2  -2  -331808.15  543.02   1 0.54511-0.70301-0.78559 0.55861 0.29272-0.44013
   2  -2   335006.26  572.22   1 0.52452-0.36691 0.56302-0.78987 0.63865-0.49139
   2  -2   333523.26  525.50   1 0.86110-0.70327 0.48396-0.71087 0.15582-0.00845
  -2  -2  -4243887.6 2675.09   1-0.03184-0.12758 0.51175-0.73856-0.85853 0.66199
  -2  -2  -4251870.0 2774.10   1 0.31640-0.47593-0.84701 0.62007 0.42713-0.62369
   2   2   4237871.1 2659.72   1 0.00986 0.14945-0.50124 0.72834 0.86525-0.66871
  -2  -2  -5241243.7 5490.95   1-0.10647-0.05435 0.61652-0.84331-0.78010 0.53466
  -2  -2  -5266454.2 6069.28   1 0.37082-0.53173-0.88183 0.65488 0.29131-0.53701
  -2   2  -5254706.8 5845.67   1-0.45146 0.29075-0.66259 0.88975-0.59761 0.35184
  -2  -2  -5240404.0 5525.39   1 0.47127-0.63183-0.85795 0.63097 0.20450-0.45017
   2   2   5232517.6 5333.53   1-0.08000 0.24093-0.54426 0.77126 0.83509-0.58915
  -2   2  -5212753.7 4874.30   1 0.75639-0.91702 0.62309-0.39609-0.19906-0.04668
   2   2   5260991.5 5964.89   1 0.43993-0.27923 0.65582-0.42889-0.61346 0.85911
  -2  -2  -6125486.3 2891.96   1-0.15558-0.00662 0.67961-0.90641-0.71687 0.42234
  -2   2  -6110247.5 2611.32   1 0.41980-0.58197-0.39667 0.62343-0.81633 0.52213
  -2   2  -6118323.6 2789.18   1-0.42438 0.26233-0.69439 0.92155-0.58112 0.28620
  -2  -2  -6120094.4 2835.82   1 0.43513-0.59702-0.88539 0.65842 0.16350-0.45830
   2   2   6113690.1 2664.27   1 0.53156-0.36963 0.66491-0.43798-0.52471 0.81947
  -2   2  -7 3642.62  339.75   1 0.43450-0.59806-0.44215 0.66892-0.78466 0.44142
  -2  -2  -7 3703.68  295.52   1 0.42935-0.59290-0.89731 0.67037 0.10237-0.44615
  -2   2  -7 4754.37  663.42   1-0.40339 0.24000-0.71745 0.94461-0.56792 0.22384
  -2  -2  -7 5242.61  424.97   1 0.39864-0.56193-0.90861 0.68179 0.12450-0.46837
   2  -2   7 3951.98  295.37   1 0.86381-0.70069 0.46863-0.69553 0.18494 0.15890
   2   2   7 4299.81  380.42   1 0.60507-0.44179 0.66372-0.43680-0.43971 0.78359
  -2   2  -8 7880.60  463.05   1 0.44481-0.60976-0.47607 0.70283-0.75861 0.36634
  -2  -2  -8 4833.76  335.20   1 0.44659-0.61152-0.89415 0.66721 0.03238-0.42528
   2   2   8 6135.23  265.13   1 0.20591-0.04082-0.74153 0.96855 0.63852-0.24544
  -2   2  -8 8436.19  396.27   1-0.38795 0.22322-0.73358 0.96074-0.55798 0.16475
  -2  -2  -8 4437.60  267.04   1 0.36344-0.52808-0.92757 0.70075 0.08666-0.47965
   2  -2   8 5483.31  421.49   1 0.86487-0.70042 0.46031-0.68721 0.20027 0.19268
   2   2   8 9659.36  528.59   1 0.66352-0.49888 0.65590-0.42890-0.35988 0.75309
  -2   2  -954776.85 1970.64   1 0.45199-0.61834-0.50096 0.72773-0.73805 0.29675
  -2  -2  -950307.24 1798.24   1 0.45948-0.62579-0.88775 0.66081-0.02764-0.41436
  -2   2  -955632.24 1973.29   1-0.37745 0.21138-0.74417 0.97133-0.55111 0.10873
  -2  -2  -949860.73 1808.88   1 0.32862-0.49459-0.94313 0.71631 0.05009-0.49221
   2  -2   951582.28 1848.83   1 0.86572-0.69996 0.45093-0.67783 0.21718 0.22489
   2   2   959875.15 2135.96   1 0.71005-0.54407 0.64342-0.41642-0.28604 0.72840
  -2   2 -10103704.0 3410.82   1 0.45693-0.62466-0.51881 0.74557-0.72253 0.23219
  -2  -2 -10109724.3 3572.37   1 0.46950-0.63712-0.87924 0.65212-0.08054-0.41085
  -2   2 -1091293.05 3017.26   1-0.37127 0.20387-0.75026 0.97742-0.54704 0.05551
  -2  -2 -10106803.2 3511.97   1 0.29409-0.46140-0.95566 0.72884 0.01461-0.50585
   2  -2  10114826.6 3753.10   1 0.86629-0.69920 0.44064-0.66755 0.23530 0.25590
   2   2  10100597.6 3282.89   1 0.74719-0.57986 0.62793-0.40094-0.21771 0.70922
  -2   2 -1131978.68 1209.79   1 0.46046-0.62956-0.53095 0.75777-0.71137 0.17156
  -2  -2 -1131583.75 1184.52   1 0.47729-0.64627-0.86932 0.64220-0.12834-0.41220
  -2   2 -1127037.74 1265.70   1-0.36888 0.20013-0.75259 0.97975-0.54545 0.00476
  -2  -2 -1131706.40 1250.12   1 0.25976-0.42841-0.96546 0.73864-0.01992-0.52044
   2  -2  1131639.39 1181.77   1 0.86647-0.69806 0.42954-0.65645 0.25437 0.28595
   2   2  1131478.96 1173.22   1 0.77689-0.60822 0.61042-0.38342-0.15434 0.69501
  -2   2 -12  634.14  326.69   1 0.46249-0.63298-0.53871 0.76553-0.70419 0.11530
  -2  -2 -12 1038.28  395.35   1 0.48344-0.65379-0.85825 0.63113-0.17228-0.41740
  -2   2 -12 1086.50  298.21   1-0.36978 0.19970-0.75171 0.97887-0.54605-0.04378
  -2  -2 -12  247.05  308.37   1 0.22525-0.39531-0.97283 0.74576-0.05348-0.53625
   2  -2  12 1060.50  487.05   1 0.86621-0.69648 0.41770-0.64461 0.27420 0.31524
   2   2  12  463.41  272.03   1 0.80053-0.63076 0.59166-0.36477-0.09531 0.68489
  -2   2 -13 5364.16  533.82   1 0.46355-0.63543-0.54281 0.76963-0.70033 0.06236
  -2  -2 -13 6153.02  598.72   1 0.48830-0.66001-0.84621 0.61909-0.21326-0.42556
  -2   2 -13 6093.48  884.35   1-0.37357 0.20215-0.74801 0.97517-0.54856-0.09043
  -2  -2 -13 8229.31  784.21   1 0.19112-0.36251-0.97774 0.75067-0.08655-0.55232
   2  -2  13 7400.91  697.35   1 0.86545-0.69440 0.40517-0.63207 0.29465 0.34391
   2   2  13 6015.32  556.66   1 0.81945-0.64836 0.57173-0.34485-0.04003 0.67874
  -2   2 -14 5072.70  651.80   1 0.46382-0.63709-0.54386 0.77069-0.69933 0.01229
  -2  -2 -14 3435.16  506.48   1 0.49209-0.66516-0.83328 0.60616-0.25194-0.43602
  -2   2 -14 5593.12  863.90   1-0.37989 0.20713-0.74173 0.96889-0.55272-0.13542
  -2  -2 -14 4810.60  773.61   1 0.15697-0.32971-0.98040 0.75333-0.11901-0.56901
   2  -2  14 3948.22  551.22   1 0.86414-0.69177 0.39196-0.61887 0.31561 0.37208
   2   2  14 3552.43  500.33   1 0.83439-0.66197 0.55103-0.32415 0.01203 0.67580
  -2   2 -1519572.91 1404.76   1 0.46343-0.63808-0.54233 0.76915-0.70078-0.03532
  -2  -2 -1520756.65 1476.21   1 0.49495-0.66939-0.81951 0.59239-0.28880-0.44830
  -2   2 -1521678.59 1519.51   1-0.38847 0.21436-0.73305 0.96021-0.55831-0.17898
  -2  -2 -1519787.89 1417.05   1 0.12275-0.29682-0.98088 0.75382-0.15095-0.58621
   2   2  1521525.97 1519.94   1 0.84595-0.67221 0.52970-0.30281 0.06138 0.67559
  -2   2 -1637596.87 2532.90   1 0.46245-0.63849-0.53854 0.76536-0.70434-0.08084
  -2  -2 -1637995.81 2539.67   1 0.49690-0.67298-0.80485 0.57765-0.32449-0.46195
  -2   2 -1632143.22 2148.08   1-0.39904 0.22360-0.72206 0.94922-0.56514-0.22131
  -2  -2 -1638116.32 2565.56   1 0.08838-0.26379-0.97923 0.75216-0.18244-0.60386
   2  -2  1637079.49 2457.66   1 0.85984-0.68435 0.36366-0.59056 0.35833 0.42765
   2   2  1633287.69 2211.02   1 0.85471-0.67969 0.50767-0.28076 0.10830 0.67762
  -2   2 -17  777.96  382.68   1 0.46094-0.63837-0.53275 0.75957-0.70971-0.12454
  -2  -2 -17  913.51  547.67   1 0.49818-0.67564-0.78939 0.56219-0.35870-0.47690
  -2   2 -17  247.91  230.08   1-0.41142 0.23464-0.70878 0.93594-0.57302-0.26258
  -2  -2 -17   -1.96  293.81   1 0.05380-0.23055-0.97544 0.74838-0.21355-0.62190
   2  -2  17   49.64  325.91   1 0.85662-0.67979 0.34853-0.57542 0.38040 0.45471
   2   2  17  864.38  436.84   1 0.86082-0.68449 0.48524-0.25833 0.15334 0.68171
   2   3 -17 3008.82  736.44   1 0.47329-0.34311-0.58285 0.92308-0.66051-0.17374
   2  -3 -17 1650.85  435.44   1 0.21169-0.08043-0.97505 0.63445-0.06669-0.76876
  -2  -3  17 1021.16  397.17   1 0.74472-0.87498 0.10999-0.45048 0.65824 0.17737
   2   3 -1613831.92 1533.26   1 0.47484-0.34327-0.58969 0.92992-0.65328-0.13190
   2  -3 -1612839.71 1429.08   1 0.45707-0.32528-0.88928 0.54888-0.01577-0.77001
   2  -3 -1611268.42 1180.34   1 0.26385-0.13133-0.96443 0.62420-0.01584-0.77014
  -2  -3  1613569.95 1445.20   1 0.74835-0.88001 0.11537-0.45586 0.65318 0.13327
   2   3 -15 6252.64 1189.96   1 0.47600-0.34304-0.59491 0.93514-0.64768-0.08842
   2  -3 -15 9966.89 1109.93   1 0.44602-0.31285-0.89434 0.55393 0.03486-0.77154
   2  -3 -15 7164.78 1245.92   1 0.31498-0.18112-0.94841 0.60818 0.03599-0.77285
  -2  -3  15 6871.64 1281.28   1 0.75078-0.88384 0.11901-0.45950 0.64973 0.08757
  -2   3  15 4405.36  768.15   1 0.83156-0.96529 0.27008 0.07025 0.48534 0.25152
   2   3 -1425789.91 1677.27   1 0.47675-0.34240-0.59833 0.93856-0.64397-0.04306
   2  -3 -1428686.38 1863.99   1 0.43317-0.29862-0.89703 0.55662 0.08766-0.77523
   2  -3 -1425411.64 1574.13   1 0.36555-0.23035-0.92653 0.58630 0.08890-0.77664
  -2  -3  1424672.72 1468.16   1 0.67835-0.81415 0.24061-0.58059 0.69421-0.00757
  -2  -3  1428599.08 1819.97   1 0.75191-0.88638 0.12072-0.46121 0.64810 0.04004
  -2   3  1426664.48 1596.34   1 0.83808-0.97316 0.28704 0.05329 0.46391 0.22382
   2   3 -1333041.09 1976.96   1 0.47704-0.34131-0.59970 0.93993-0.64247 0.00451
   2  -3 -1324291.65 1482.06   1 0.41828-0.28235-0.89700 0.55660 0.14287-0.78132
   2  -3 -1321780.99 1287.36   1 0.41658-0.27997-0.89779 0.55733 0.14292-0.78166
  -2  -3  1320729.84 1158.13   1 0.68104-0.81811 0.23225-0.57224 0.69443-0.05683
  -2  -3  1325149.21 1477.79   1 0.75160-0.88747 0.12026-0.46074 0.64855-0.00955
  -2   3  1333911.10 1841.68   1 0.84361-0.98004 0.30277 0.03756 0.44344 0.19518
   2   3 -1215252.20 1205.91   1 0.47683-0.33970-0.59870 0.93894-0.64356 0.05467
   2  -3 -1219322.57 1246.76   1 0.40105-0.26374-0.89379 0.55338 0.20072-0.79006
   2  -3 -1215815.20 1187.60   1 0.46544-0.32750-0.86269 0.52222 0.19780-0.78741
  -2  -3  1215768.95 1134.88   1 0.68616-0.82449 0.21583-0.55582 0.69469-0.10614
  -2   3  1215778.76 1140.91   1 0.84820-0.98597 0.31711 0.02322 0.42425 0.16524
   2   3 -11  566.21  407.54   1 0.47599-0.33748-0.59489 0.93512-0.64770 0.10788
   2  -3 -11 1549.98  493.19   1 0.38147-0.24274-0.88674 0.54632 0.26108-0.80162
  -2  -3  11  647.48  175.51   1 0.06546-0.20475-0.97696 0.63636-0.20312 0.74372
   2  -3 -11  969.42  313.94   1 0.51290-0.37363-0.82018 0.47972 0.25341-0.79388
  -2  -3  11  909.33  180.70   1 0.69350-0.83311 0.19089-0.53088 0.69469-0.15519
  -2  -3  11 1820.45  489.92   1 0.74575-0.88442 0.11150-0.45199 0.65682-0.11612
  -2   3  11  845.24  225.14   1 0.85187-0.99099 0.32977 0.01056 0.40689 0.13347
   2  -3 -11  749.32  130.13   1 0.31364-0.17476 0.62931-0.96971-0.71104 0.17062
   2   3 -10 2427.66  506.19   1 0.47438-0.33448-0.58766 0.92789-0.65544 0.16469
   2  -3 -10  896.80  351.54   1 0.35838-0.21827-0.87521 0.53479 0.32490-0.81630
  -2  -3  10  875.35  203.73   1-0.03319-0.10736-0.95679 0.61630-0.28886 0.78015
   2  -3 -10 1509.23  251.24   1 0.55885-0.41803-0.76933 0.42872 0.30951-0.80090
  -2  -3  10 1386.35  230.74   1 0.70268-0.84356 0.15699-0.49697 0.69396-0.20350
  -2  -3  10 2141.47  391.35   1 0.73951-0.87959 0.10237-0.44285 0.66531-0.17377
  -2   3  10 2594.89  315.79   1 0.85461-0.99509 0.34020 0.00013 0.39228 0.09896
   2   3  -921579.32  948.28   1 0.47174-0.33045-0.57619 0.91642-0.66742 0.22575
   2  -3  -916168.47  770.06   1 0.33161-0.19011-0.85817 0.51775 0.39187-0.83413
  -2  -3   912070.42  494.68   1-0.13780-0.00408-0.91666 0.57616-0.37515 0.81732
   2  -3  -916121.74  701.50   1 0.60165-0.45952-0.71031 0.36970 0.36530-0.80756
  -2  -3   913399.44  534.08   1 0.71265-0.85505 0.11376-0.45385 0.69223-0.25079
  -2   3   917024.40  590.78   1-0.22806 0.08663-0.60210 0.94260 0.76514-0.32246
  -2  -3   914143.99  622.64   1 0.73037-0.87185 0.08932-0.42980 0.67717-0.23479
   2   3  -820575.77 1435.32   1 0.46770-0.32501-0.55933 0.89956-0.68439 0.29180
   2  -3  -820550.77 1472.46   1 0.30091-0.15809-0.83424 0.49372 0.46204-0.85512
  -2  -3   817232.01 1150.08   1-0.24744 0.10413-0.85298 0.51239-0.45955 0.85241
   2  -3  -819004.47 1326.27   1 0.64086-0.49741-0.64243 0.30182 0.42020-0.81331
  -2  -3   819473.91 1316.98   1 0.72332-0.86697 0.06128-0.40136 0.68778-0.29539
  -2   3   817623.80 1164.05   1-0.13520-0.00761-0.56763 0.90813 0.81210-0.41860
  -2  -3   819737.04 1365.49   1 0.71759-0.86047 0.07165-0.41214 0.69276-0.29953
  -2   3   820261.37 1336.91   1 0.85671-0.99987 0.34889-0.00855 0.37989 0.01310
   2   3  -7123139.6 4246.68   1 0.46165-0.31758-0.53548 0.87571-0.70719 0.36367
   2  -3  -7132909.8 4542.83   1 0.26503-0.12081-0.80238 0.46186 0.53473-0.87868
  -2  -3   7115230.5 3892.23   1-0.35526 0.21062-0.76557 0.42484-0.53635 0.88042
   2  -3  -7131592.3 4492.42   1 0.67545-0.53045-0.56527 0.22463 0.47353-0.81740
  -2  -3   7130345.3 4413.58   1 0.73309-0.87799 0.00006-0.34014 0.68012-0.33678
  -2   3   7104692.1 3516.18   1 0.02819-0.17291-0.49190 0.83256 0.87019-0.52624
  -2  -3   7142663.6 4874.54   1 0.70029-0.84448 0.04853-0.38872 0.71220-0.36842
  -2   3   7114531.6 3845.87   1 0.85419-0.99870 0.33854 0.00179 0.39463-0.05076
   2   3  -672360.33 2092.35   1 0.45239-0.30692-0.50238 0.84253-0.73684 0.44264
   2  -3  -659160.85 1732.87   1 0.22367-0.07806-0.76080 0.42029 0.60921-0.90402
  -2  -3   657283.64 1596.99   1-0.45868 0.31269-0.65371 0.31297-0.60188 0.89680
   2  -3  -664509.29 1886.41   1 0.70408-0.55782-0.47985 0.13920 0.52345-0.81820
  -2  -3   663729.41 1805.04   1 0.74065-0.88680-0.06870-0.27138 0.66836-0.37407
  -2   3   669664.93 1890.06   1 0.33423-0.48003-0.30109 0.64119 0.89310-0.59869
  -2  -3   663874.83 1848.87   1 0.67679-0.82237 0.01896-0.35916 0.73592-0.44125
  -2   3   545399.62 1790.90   1-0.17831 0.03143 0.70706-0.36687-0.68429 0.92973
   2   3  -544213.90 1749.16   1 0.43908-0.29222-0.45699 0.79714-0.77353 0.52836
   2  -3  -532772.93 1324.77   1 0.72572-0.57818-0.38676 0.04612 0.56897-0.81460
  -2  -3   533581.11 1321.05   1 0.74453-0.89182-0.14246-0.19776 0.65220-0.40686
   2   3  -540658.36 1567.71   1 0.55029-0.40312 0.52231-0.18203 0.65142-0.89685
  -2  -3   535884.79 1443.63   1 0.64547-0.79242-0.01812-0.32207 0.76357-0.51801
  -2   3   431574.89 1263.73   1-0.12533-0.02293 0.64134-0.30115-0.75694 0.95329
   2   3  -429728.81 1199.90   1 0.41929-0.27103-0.39512 0.73527-0.81735 0.62122
   2  -3  -426097.67 1094.94   1 0.73988-0.59129-0.28704-0.05318 0.60842-0.80469
  -2  -3   429592.09 1175.96   1 0.74416-0.89275-0.22038-0.11984 0.63058-0.43431
   2   3  -427070.20 1073.97   1 0.62448-0.47599 0.38002-0.04003 0.68235-0.87853
  -2  -3   427139.43 1121.50   1 0.60404-0.75237-0.06380-0.27639 0.79439-0.59794
  -2   3   328851.26 1184.80   1-0.06697-0.08281 0.56256-0.22234-0.82403 0.97144
   2   3  -328191.58 1133.82   1 0.38984-0.24020-0.31148 0.65163-0.86659 0.71949
  -2  -3   326586.16 1063.66   1 0.49215-0.64178-0.68420 0.34397-0.53818 0.68541
  -2  -3   328273.00 1136.41   1 0.73870-0.88858-0.29903-0.04119 0.60406-0.45685
   2  -3  -326717.88 1123.71   1 0.74494-0.59506-0.18422-0.15600 0.64118-0.78838
   2   3  -324767.50  978.28   1 0.67990-0.53014 0.23582 0.10415 0.69434-0.84148
   2   3  -2136118.1 3154.24   1 0.34641-0.19546-0.20022 0.54034-0.91646 0.81842
  -2  -3   2111779.1 2601.42   1 0.47966-0.63068-0.61207 0.27184-0.62871 0.72686
  -2  -3   2120850.1 2821.01   1 0.72765-0.87902-0.37597 0.03533 0.57371-0.47546
   2   3  -2128269.2 2971.02   1 0.71586-0.56472 0.09900 0.24108 0.69117-0.78927
   2  -3  -2119549.7 2715.15   1 0.22542-0.07429-0.37686 0.03676 0.89841-0.99655
  -2  -3   2112224.4 2628.98   1 0.47991-0.63097-0.18336-0.15673 0.85793-0.75980
  -2   3   2131701.8 2984.32   1 0.78252-0.93378 0.60641-0.26591-0.14115 0.23946
  -2   3   149309.80 1933.20   1 0.05970-0.21223 0.36856-0.02834-0.92768 0.97680
  -2  -3   147890.71 1833.65   1 0.45635-0.60878-0.51669 0.17654-0.72441 0.77344
  -2  -3   154744.41 1358.15   1 0.71218-0.86482-0.44941 0.10877 0.53928-0.49015
   2  -3  -151617.89 1501.72   1 0.73008-0.57770 0.02090-0.36099 0.68303-0.73208
   2   3  -142781.21 1651.01   1 0.73622-0.58383-0.02463 0.36472 0.67628-0.72533
   2  -3  -151326.99 1410.65   1 0.62662-0.47415-0.03933-0.30085 0.77832-0.82743
   2   3  -144772.22 1723.05   1 0.67222-0.51976 0.01339 0.32679 0.74022-0.78933
  -2   3   143188.78 1627.76   1 0.81132-0.96388 0.58097-0.24065-0.06494 0.11407
  -2  -3   046163.42 1801.28   1 0.69244-0.84635-0.51796 0.17732 0.50222-0.50222
   2  -3   045598.26 1783.66   1 0.71195-0.55831 0.11687-0.45696 0.69243-0.69243
  -2  -3   045267.63 1771.19   1 0.28758-0.44132-0.33479-0.00531 0.89733-0.89733
   2   3   046118.51 1765.54   1 0.60108-0.44724-0.06694 0.40713 0.79637-0.79637
   2  -3   046743.36 1772.41   1 0.76510-0.61099 0.14117-0.48165 0.62824-0.62824
   2   3   1170234.9 3895.48   1 0.10004 0.05520 0.30038 0.03983-0.94855 0.99768
  -2   3  -1165211.0 3919.94   1 0.18191-0.33716 0.15181 0.18840-0.97152 0.92239
  -2  -3  -1183814.0 4201.25   1 0.36481-0.51999-0.24602-0.09410-0.89798 0.84896
  -2  -3  -1194288.5 4492.91   1 0.66916-0.82435-0.58090 0.24025 0.46342-0.51255
   2  -3   1154887.0 3606.14   1 0.68930-0.53447 0.20535-0.54534 0.69475-0.64570
  -2  -3  -1195273.5 4490.65   1 0.16662-0.32166-0.41400 0.07389 0.89489-0.94396
   2   3   1153337.0 3530.82   1 0.51809-0.36309-0.14874 0.48883 0.84228-0.79322
   2  -3   1193979.7 4426.73   1 0.81844-0.66316 0.23966-0.58000 0.52220-0.47308
  -2   3  -1162433.1 3710.73   1 0.81692-0.97213 0.57473-0.23441-0.04800-0.00113
   2   3   2126173.7 2904.95   1-0.00964 0.16632 0.47845-0.13823-0.87806 0.97633
  -2   3  -2118660.6 2805.29   1 0.23455-0.39115 0.04804 0.29213-0.97091 0.87272
  -2  -3  -2129424.0 2975.93   1 0.29560-0.45220-0.08199-0.25813-0.95178 0.85374
  -2  -3  -2141709.1 3325.94   1 0.64304-0.79958-0.63815 0.29754 0.42338-0.52166
   2  -3   2137398.0 3216.50   1 0.66332-0.50722 0.28430-0.62428 0.69221-0.59412
  -2  -3  -2129351.2 3072.11   1 0.03521-0.19188-0.48826 0.14760 0.87198-0.97025
   2   3   2110714.8 2575.38   1 0.42699-0.27067-0.22857 0.56867 0.87488-0.77675
   2  -3   2131553.7 3033.96   1 0.84169-0.68505 0.29712-0.63746 0.45085-0.35260
  -2   3  -2113166.9 2611.89   1 0.81390-0.97043 0.57817-0.23784-0.05725-0.04100
   2   3   340957.13 1587.50   1-0.11320 0.27124 0.62546-0.28526-0.77199 0.91926
  -2  -3  -338005.14 1455.36   1 0.21813-0.37612 0.08110-0.42128-0.97254 0.82525
  -2   3  -344396.45 1747.48   1 0.27962-0.43761-0.04667 0.38684-0.95897 0.81169
  -2  -3  -341057.55 1624.00   1 0.61470-0.77255-0.68946 0.34885 0.38310-0.53052
  -2  -3  -340316.10 1608.34   1-0.09813-0.06000-0.55216 0.21166 0.82793-0.97549
   2   3   336931.14 1427.56   1 0.33264-0.17499-0.30237 0.64248 0.89326-0.74605
   2  -3   337553.39 1454.14   1 0.85244-0.69446 0.33187-0.67221 0.40397-0.25660
  -2   3  -339941.06 1537.14   1 0.80919-0.96705 0.58321-0.24288-0.07115-0.07624
  -2  -3  -422630.27  888.26   1 0.14206-0.30140 0.22591-0.56613-0.96373 0.76723
  -2   3  -420917.27  888.97   1 0.31654-0.47597-0.12941 0.46954-0.93970 0.74362
  -2  -3  -422807.12  911.10   1 0.19812-0.35765-0.73285 0.39233 0.65089-0.84744
  -2  -3  -425352.52 1104.92   1 0.58472-0.74388-0.73524 0.39463 0.34279-0.53935
   2  -3   425953.40 1076.66   1 0.61027-0.45135 0.41165-0.75193 0.67683-0.48049
  -2  -3  -424016.03  973.42   1-0.22596 0.06643-0.60139 0.26089 0.76633-0.96307
   2   3   418833.91 1094.41   1 0.24028-0.08133-0.36707 0.70718 0.89861-0.70233
   2  -3   423077.70  940.13   1 0.85766-0.69833 0.35312-0.69346 0.37378-0.17728
  -2   3  -417792.00  734.35   1 0.80326-0.96244 0.58910-0.24877-0.08786-0.10865
  -2  -3  -538239.79 1469.23   1 0.07454-0.23524 0.34385-0.68407-0.93605 0.69043
  -2  -3  -540514.07 1574.24   1 0.26802-0.42894-0.80520 0.46468 0.52896-0.77464
   2  -3   542088.68 1676.69   1 0.58548-0.42526 0.46051-0.80079 0.66718-0.42175
   2  -3   540052.89 1572.93   1 0.86024-0.69957 0.36576-0.70610 0.35523-0.10960
  -2  -3  -684503.89 2342.42   1 0.01853-0.18072 0.43483-0.77504-0.90032 0.60550
  -2   3  -676292.58 2192.64   1 0.36992-0.53219-0.25910 0.59923-0.89219 0.59806
  -2  -3  -690494.04 2529.79   1 0.32100-0.48330-0.85049 0.51008 0.41665-0.71149
  -2  -3  -678697.82 2246.76   1 0.52100-0.68289-0.81196 0.47150 0.26317-0.55797
   2  -3   690553.46 2569.45   1 0.56324-0.40171 0.50048-0.84076 0.65747-0.36295
   2  -3   685543.54 2417.06   1 0.86147-0.69944 0.37256-0.71291 0.34505-0.05030
   2   3   676651.82 2158.95   1 0.44164-0.27958 0.65608-0.31568-0.61196 0.90673
  -2  -3  -7113812.4 3879.64   1 0.36156-0.52525-0.87699 0.53657 0.31647-0.66045
  -2  -3  -798708.76 3410.97   1 0.48815-0.65137-0.84349 0.50303 0.22410-0.56804
   2  -3   7115195.8 3968.27   1 0.54405-0.38121 0.53250-0.87279 0.64841-0.30481
   2  -3   7110037.6 3783.57   1 0.86191-0.69854 0.37521-0.71556 0.34104 0.00282
   2   3   7101663.1 3480.65   1 0.52732-0.36404 0.66473-0.32434-0.52919 0.87307
  -2  -3  -826515.82 1797.71   1 0.39253-0.55760-0.89099 0.55058 0.22811-0.62123
  -2  -3  -822169.94 1529.57   1 0.45478-0.61933-0.87103 0.53057 0.18564-0.57871
   2  -3   825351.93 1745.14   1 0.52811-0.36397 0.55755-0.89784 0.64048-0.24779
   2  -3   823350.21 1615.63   1 0.86184-0.69712 0.37477-0.71511 0.34172 0.05127
   2   3   830690.01 2065.14   1 0.59871-0.43408 0.66418-0.32379-0.44766 0.84067
  -2   3  -9 2599.71  277.51   1 0.41305-0.57940-0.37670 0.71685-0.82914 0.38783
  -2  -3  -9 2064.39  293.06   1 0.41605-0.58236-0.89676 0.55635 0.15071-0.59271
  -2  -3  -9 1380.64  287.91   1 0.42101-0.58689-0.89493 0.55446 0.14781-0.59001
   2  -3   9 2297.75  342.55   1 0.51547-0.35003 0.57652-0.91681 0.63395-0.19217
   2  -3   9 1785.90  327.99   1 0.86136-0.69529 0.37192-0.71226 0.34601 0.09610
   2   3   9 2065.33  250.39   1 0.65729-0.49130 0.65696-0.31657-0.36927 0.81141
  -2   3 -10 6883.58  838.11   1 0.42110-0.58884-0.40057 0.74071-0.81376 0.32342
  -2  -3 -10 7447.77  875.34   1 0.43488-0.60257-0.89684 0.55643 0.08096-0.57208
  -2  -3 -10 6504.99  832.79   1 0.38604-0.55335-0.91579 0.57556 0.11085-0.60209
   2  -3  10 7105.51  853.45   1 0.50604-0.33929 0.59020-0.93048 0.62894-0.13808
   2  -3  10 8409.36  993.84   1 0.86050-0.69309 0.36715-0.70749 0.35316 0.13808
   2   3  10 7097.22  827.39   1 0.70494-0.53762 0.64512-0.30463-0.29472 0.78623
  -2   3 -11  847.06  309.33   1 0.42705-0.59618-0.41873 0.75887-0.80142 0.26205
  -2  -3 -11 2157.59  394.08   1 0.44983-0.61890-0.89293 0.55252 0.01804-0.55827
  -2  -3 -11 2408.15  470.88   1 0.35166-0.52030-0.93318 0.59295 0.07419-0.61455
   2  -3  11 2401.70  405.20   1 0.49965-0.33159 0.59925-0.93953 0.62549-0.08554
   2  -3  11 2701.65  487.32   1 0.85927-0.69052 0.36078-0.70112 0.36259 0.17777
   2   3  11  303.76  273.17   1 0.74364-0.57498 0.62968-0.28918-0.22468 0.76534
  -2   3 -1222151.74 1387.87   1 0.43133-0.60185-0.43207 0.77222-0.79199 0.20359
  -2  -3 -1221181.57 1306.44   1 0.46180-0.63225-0.88610 0.54570-0.03938-0.54996
  -2  -3 -1221132.44 1351.03   1 0.31702-0.48700-0.94765 0.60742 0.03808-0.62758
   2  -3  1221862.14 1339.65   1 0.49610-0.32674 0.60419-0.94448 0.62355-0.03452
   2  -3  1221879.56 1355.08   1 0.85764-0.68754 0.35305-0.69339 0.37388 0.21560
   2   3  1222329.73 1351.03   1 0.77493-0.60493 0.61175-0.27126-0.15883 0.74864
  -2   3 -1314908.35 1005.99   1 0.43425-0.60616-0.44133 0.78148-0.78526 0.14782
  -2  -3 -1313826.62  901.93   1 0.47153-0.64324-0.87699 0.53631-0.09238-0.54644
  -2  -3 -1313168.22  940.87   1 0.28213-0.45345-0.95937 0.61914 0.00250-0.64112
   2  -3  1315653.22  982.32   1 0.49518-0.32451 0.60547-0.94576 0.62304 0.01506
   2  -3  1314671.74  956.59   1 0.85558-0.68413 0.34412-0.68447 0.38671 0.25190
   2   3  1315456.26  933.97   1 0.79994-0.62885 0.59219-0.25187-0.09688 0.73559
  -2   3 -14 9236.47  873.28   1 0.43604-0.60934-0.44710 0.78724-0.78100 0.09452
  -2  -3 -14 9279.62  809.42   1 0.47927-0.65234-0.86614 0.52546-0.14176-0.54620
  -2  -3 -14 7860.18 1358.57   1 0.24698-0.41965-0.96846 0.62824-0.03260-0.65513
   2  -3  14 9259.67  772.85   1 0.49667-0.32470 0.60341-0.94369 0.62386 0.06333
   2  -3  1410750.83  870.89   1 0.85305-0.68025 0.33414-0.67448 0.40081 0.28693
   2   3  14 9547.23  762.26   1 0.81997-0.64755 0.57110-0.23078-0.03838 0.72622
  -2   3 -1511869.18  919.27   1 0.43689-0.61158-0.44983 0.78998-0.77895 0.04344
  -2  -3 -1511257.16  922.48   1 0.48543-0.65987-0.85377 0.51309-0.18819-0.54890
  -2  -3 -1511746.54  933.56   1 0.21122-0.38529-0.97512 0.63452-0.06715-0.67001
   2  -3  1514506.08 1046.78   1 0.50038-0.32710 0.59823-0.93851 0.62588 0.11040
   2  -3  1512325.07  946.59   1 0.85000-0.67585 0.32317-0.66351 0.41599 0.32087
   2   3  1511806.69  877.73   1 0.83567-0.66193 0.54895-0.20862 0.01703 0.71994
  -2   3 -16 6690.69  888.79   1 0.43691-0.61300-0.44991 0.79006-0.77889-0.00564
  -2  -3 -16 5754.12  759.69   1 0.49025-0.66605-0.84007 0.49939-0.23220-0.55404
  -2  -3 -16 5224.12  697.87   1 0.17550-0.35091-0.97923 0.63863-0.10147-0.68484
   2  -3  16 6446.23  744.94   1 0.50611-0.33153 0.59010-0.93039 0.62898 0.15639
   2  -3  16 7130.01  925.03   1 0.84639-0.67090 0.31130-0.65164 0.43209 0.35390
   2   3  16 4621.78 1009.10   1 0.84767-0.67260 0.52591-0.18559 0.06975 0.71635
  -2   3 -17 3019.98  758.16   1 0.43620-0.61368-0.44762 0.78777-0.78061-0.05296
  -2  -3 -17 2297.22  573.39   1 0.49390-0.67107-0.82515 0.48447-0.27418-0.56120
  -2  -3 -17 1967.63  542.78   1 0.13944-0.31619-0.98092 0.64032-0.13545-0.70000
   2  -3  17 2124.28  493.51   1 0.51371-0.33782 0.57911-0.91940 0.63302 0.20143
   2  -3  17 1306.47  420.18   1 0.84218-0.66534 0.29856-0.63890 0.44897 0.38614
   2   3  17 2415.54  558.08   1 0.85651-0.68017 0.50196-0.16160 0.12004 0.71501
   2   4 -16 4620.40  759.36   1 0.44990-0.31835-0.49359 0.94711-0.74428-0.04026
   2  -4 -16 6245.73  928.42   1 0.44096-0.30917-0.89575 0.44188 0.05632-0.84211
   2  -4 -16 8262.85 1036.69   1 0.34168-0.20915-0.93765 0.48401 0.06370-0.84969
   2   4 -15 7680.49 1018.00   1 0.45023-0.31729-0.49476 0.94829-0.74329 0.00778
   2  -4 -15 9047.72 1044.34   1 0.42735-0.29417-0.89737 0.44350 0.10993-0.84661
   2  -4 -15 7920.84  861.89   1 0.38833-0.25447-0.91452 0.46088 0.11332-0.85019
  -2  -4  15 6917.98  813.20   1 0.71700-0.85006 0.07085-0.52484 0.69345 0.04385
   2   4 -1416479.63 1268.52   1 0.44990-0.31557-0.49361 0.94713-0.74426 0.05778
   2  -4 -1413845.79 1123.29   1 0.41178-0.27722-0.89614 0.44227 0.16539-0.85295
   2  -4 -1410548.75  788.62   1 0.43465-0.29937-0.88572 0.43177 0.16297-0.85084
  -2  -4  1411858.33  914.00   1 0.71684-0.85131 0.07064-0.52462 0.69364-0.00548
   2   4 -1321495.35 1565.11   1 0.44881-0.31309-0.48980 0.94333-0.74743 0.10999
   2  -4 -1323669.20 1708.07   1 0.39441-0.25846-0.89162 0.43773 0.22233-0.86115
   2  -4 -1320230.45 1441.14   1 0.47826-0.34165-0.85210 0.39815 0.21257-0.85132
  -2  -4  1321244.46 1428.30   1 0.72538-0.86279 0.04973-0.50318 0.68654-0.04891
  -2  -4  1324809.64 1791.95   1 0.71505-0.85092 0.06822-0.52221 0.69572-0.05672
   2   4 -1215640.49 1088.75   1 0.44682-0.30971-0.48293 0.93646-0.75307 0.16466
   2  -4 -1214987.33 1039.97   1 0.37426-0.23692-0.88349 0.42960 0.28170-0.87138
   2  -4 -1211247.17  769.71   1 0.51997-0.38203-0.81303 0.35908 0.26192-0.85153
  -2  -4  1212230.08  719.89   1 0.72757-0.86623 0.03678-0.49024 0.68503-0.09645
  -2  -4  1213681.40  964.71   1 0.71156-0.84887 0.06334-0.51694 0.69975-0.11041
   2   4 -1112440.63 1027.16   1 0.44375-0.30524-0.47248 0.92601-0.76147 0.22210
   2  -4 -1118825.52 1465.99   1 0.35140-0.21267-0.87111 0.41722 0.34302-0.88356
   2  -4 -1116421.65 1261.38   1 0.55987-0.42035-0.76808 0.31393 0.31079-0.85132
  -2  -4  1117578.75 1284.32   1 0.73061-0.87051 0.01744-0.47089 0.68257-0.14303
  -2  -4  1119198.32 1486.69   1 0.70576-0.84444 0.05566-0.50926 0.70625-0.16602
  -2   4  1110395.64  742.64   1 0.84470-0.98382 0.30605 0.14773 0.43909 0.10127
   2   4 -10 6737.97  874.37   1 0.43932-0.29942-0.45778 0.91130-0.77293 0.28259
   2  -4 -10 9140.40 1171.35   1 0.32554-0.18542-0.85383 0.39994 0.40618-0.89758
   2  -4 -1010237.46 1267.21   1 0.59672-0.45589-0.71781 0.26366 0.35868-0.85008
  -2  -4  1010588.32 1238.77   1 0.73419-0.87534-0.00817-0.44528 0.67889-0.18841
  -2  -4  1011464.38 1436.66   1 0.69740-0.83746 0.04480-0.49840 0.71527-0.22415
  -2   4  10 6676.98  769.80   1 0.84781-0.98828 0.31585 0.13792 0.42595 0.06528
   2   4  -936222.98 1924.06   1 0.43319-0.29190-0.43798 0.89150-0.78772 0.34642
   2  -4  -933309.04 1773.21   1 0.29670-0.15526-0.83073 0.37671 0.47100-0.91322
   2  -4  -933950.05 1796.35   1 0.63051-0.48837-0.66196 0.20781 0.40527-0.84752
  -2  -4   933107.12 1702.11   1 0.73792-0.88032-0.03983-0.41361 0.67370-0.23227
  -2   4   931467.03 1556.89   1 0.33467-0.47667-0.30087 0.75434 0.89301-0.45137
  -2  -4   931506.90 1677.89   1 0.68597-0.82741 0.03031-0.48391 0.72699-0.28499
   2   4  -851400.05 1845.80   1 0.42487-0.28218-0.41200 0.86553-0.80606 0.41379
   2  -4  -852700.12 1845.67   1 0.26394-0.12111-0.80135 0.34733 0.53680-0.92988
   2  -4  -856807.53 1988.56   1 0.66075-0.51730-0.60072 0.14657 0.45004-0.84315
  -2  -4   853417.20 1792.21   1 0.74133-0.88498-0.07720-0.37624 0.66667-0.27428
  -2   4   846430.26 1481.47   1 0.52797-0.67078-0.13989 0.59348 0.83766-0.44476
  -2  -4   856996.10 1982.79   1 0.67079-0.81361 0.01167-0.46526 0.74154-0.34865
   2   4  -7 1721.88  287.07   1 0.41368-0.26960-0.37853 0.83205-0.82799 0.48476
   2  -4  -7 2366.97  434.44   1 0.22737-0.08315-0.76471 0.31069 0.60291-0.94686
   2  -4  -7 3621.01  560.75   1 0.68695-0.54196-0.53415 0.07996 0.49271-0.83658
  -2  -4   7 3070.85  426.23   1 0.74370-0.88840-0.11907-0.33455 0.65782-0.31433
  -2  -4   7 2655.70  420.12   1 0.65102-0.79521-0.01172-0.44187 0.75896-0.41518
  -2   4   616003.64  666.34   1-0.18878 0.04329 0.71931-0.26572-0.66854 0.96307
   2   4  -616790.37  702.27   1 0.39874-0.25328-0.33592 0.78945-0.85331 0.55911
   2  -4  -619067.58  774.68   1 0.70858-0.56231-0.46341 0.00922 0.53211-0.82686
  -2  -4   620276.22  783.56   1 0.74494-0.89093-0.16628-0.28734 0.64607-0.35166
  -2  -4   618896.09  798.48   1 0.62557-0.77114-0.04049-0.41309 0.77911-0.48444
  -2   4   5 3029.32  443.46   1-0.14470-0.00217 0.66606-0.21247-0.73171 0.97716
   2   4  -5 2539.69  300.68   1 0.37880-0.23211-0.28219 0.73569-0.88140 0.63629
   2  -4  -5 3499.17  485.27   1 0.72530-0.57776-0.38902-0.06516 0.56797-0.81359
  -2  -4   5 3129.08  310.68   1 0.74428-0.89157-0.21715-0.23648 0.63157-0.38623
  -2  -4   5 3415.37  367.66   1 0.59313-0.74008-0.07528-0.37830 0.80157-0.55601
  -2   4   444342.89 1638.97   1-0.09725-0.05102 0.60412-0.15053-0.79093 0.98728
   2   4  -443467.96 1559.80   1 0.35265-0.20454-0.21556 0.66906-0.91058 0.71449
  -2  -4   436434.91 1340.91   1 0.74128-0.88987-0.27067-0.18296 0.61419-0.41791
   2  -4  -436515.19 1386.57   1 0.73735-0.58877-0.31144-0.14218 0.59942-0.79569
  -2  -4   437104.30 1359.80   1 0.55173-0.70017-0.11666-0.33679 0.82581-0.62954
  -2   4   383349.14 2911.34   1-0.04716-0.10262 0.53419-0.08057-0.84404 0.99145
   2   4  -382206.25 2841.72   1 0.31856-0.16904-0.13408 0.58759-0.93836 0.79130
  -2  -4   373794.28 2566.57   1 0.73562-0.88550-0.32578-0.12784 0.59390-0.44669
   2  -4  -369914.93 2456.82   1 0.74363-0.59376-0.23310-0.22052 0.62662-0.77383
   2  -4  -365103.89 2188.71   1-0.21518 0.36496-0.59769 0.14369 0.77230-0.91986
  -2  -4   372031.66 2506.37   1 0.50062-0.65037-0.16480-0.28866 0.84982-0.70262
  -2   4   378099.71 2623.21   1 0.83952-0.98943 0.54234-0.08858 0.03260 0.11479
  -2   4   244821.82 1350.06   1 0.00444-0.15560 0.45683-0.00320-0.88954 0.98781
   2   4  -238974.86 1174.47   1 0.27518-0.12410-0.03705 0.49062-0.96067 0.86248
  -2  -4   249978.89 1486.47   1 0.72667-0.87804-0.38153-0.07265 0.57128-0.47303
   2  -4  -249265.39 1508.43   1 0.74480-0.59362-0.15483-0.29880 0.64907-0.74721
   2  -4  -249635.49 1372.69   1 0.20991-0.05879-0.38690-0.06656 0.89790-0.99604
  -2  -4   249537.77 1452.97   1 0.43772-0.58878-0.21964-0.23381 0.87186-0.77372
  -2   4   1 5780.04  893.18   1 0.05616-0.20871 0.37427 0.07935-0.92561 0.97475
   2   4  -1 4452.50  282.10   1 0.22091-0.06844 0.07555 0.37801-0.97236 0.92326
  -2  -4   1 5654.32  377.09   1 0.71524-0.86788-0.43676-0.01742 0.54558-0.49645
   2  -4  -1 6846.19  466.35   1 0.74139-0.58900-0.07792-0.37552 0.66653-0.71557
  -2  -4   1 6582.92  588.76   1 0.36185-0.51428-0.28043-0.17303 0.88905-0.83998
   2  -4  -1 5698.83  224.70   1 0.47357-0.32120-0.18893-0.26452 0.86024-0.90931
  -2   4   1 4785.03  196.25   1 0.84426-0.99682 0.53325-0.07948 0.05343-0.00430
  -2   4   037067.36 1194.90   1 0.10656-0.26045 0.28906 0.16455-0.95135 0.95135
   2   4   035358.98 1237.43   1 0.15627-0.00238 0.19990 0.25372-0.96727 0.96727
  -2  -4   029597.25  888.12   1 0.41926-0.57308-0.39504-0.05848-0.81740 0.81740
  -2  -4   036830.71 1180.54   1 0.70094-0.85486-0.49070 0.03651 0.51756-0.51756
   2  -4   034788.85 1102.13   1 0.73366-0.58002-0.00417-0.44927 0.67949-0.67949
  -2  -4   036013.32 1081.87   1 0.27260-0.42633-0.34521-0.10826 0.89806-0.89806
   2  -4   034388.83  986.05   1 0.62529-0.47144-0.04081-0.41278 0.77932-0.77932
  -2   4   035163.71  998.66   1 0.84165-0.99553 0.53840-0.08463 0.04172-0.04172
   2   4   1 7178.79  556.71   1 0.08307 0.07217 0.32945 0.12416-0.94050 0.98963
  -2   4  -1 6923.36 1023.42   1 0.15401-0.30926 0.20405 0.24956-0.96676 0.91764
  -2  -4  -1 2997.16  179.93   1 0.38255-0.53774-0.29211-0.16138-0.87653 0.82751
  -2  -4  -1 4052.83  347.25   1 0.68393-0.83912-0.54268 0.08849 0.48757-0.53669
   2  -4   1 3073.27  311.15   1 0.72255-0.56767 0.06541-0.51886 0.68820-0.63915
  -2  -4  -1 4401.21  589.40   1 0.17109-0.32612-0.41126-0.04220 0.89531-0.94438
   2  -4   1 3721.89  218.67   1 0.71126-0.55576 0.06315-0.51713 0.70007-0.65092
   2   4   278968.15 2246.17   1 0.00527 0.15140 0.45554-0.00192-0.89019 0.98847
  -2   4  -272048.53 2080.73   1 0.19733-0.35393 0.12200 0.33155-0.97271 0.87452
  -2  -4  -271436.45 1994.95   1 0.33881-0.49541-0.18181-0.27168-0.92311 0.82507
  -2  -4  -281272.81 2345.06   1 0.66442-0.82096-0.59232 0.13817 0.45573-0.55401
   2  -4   279142.50 2293.46   1 0.70895-0.55282 0.12985-0.58330 0.69319-0.59510
  -2  -4  -277040.89 2268.69   1 0.05977-0.21644-0.47528 0.02107 0.87779-0.97606
   2  -4   283795.93 2335.99   1 0.76164-0.60473 0.13570-0.58968 0.63362-0.53531
  -2   4  -267337.73 1880.59   1 0.83296-0.98949 0.55328-0.09952 0.00659-0.10485
   2   4   396889.25 3295.01   1-0.07185 0.22991 0.56943-0.11581-0.81888 0.96629
  -2   4  -398521.48 3405.10   1 0.23595-0.39394 0.04519 0.40837-0.97071 0.82343
  -2  -4  -397087.97 3301.44   1 0.28994-0.44793-0.06925-0.38431-0.95453 0.80725
  -2  -4  -3109839.8 3853.85   1-0.05610-0.10188-0.53297 0.07876 0.84426-0.99167
   2  -4   3111615.1 3801.85   1 0.79191-0.63360 0.18648-0.64046 0.58145-0.43399
   2   4   486035.01 2932.52   1-0.14393 0.30336 0.66510-0.21151-0.73274 0.92910
  -2  -4  -460888.92 2093.61   1 0.23909-0.39846 0.03876-0.49233-0.97022 0.77384
  -2   4  -494376.85 3277.71   1 0.26948-0.42885-0.02482 0.47838-0.96268 0.76630
  -2  -4  -472016.03 2562.09   1 0.61879-0.77795-0.68261 0.22846 0.38875-0.58531
   2  -4   473996.85 2605.45   1 0.67825-0.51961 0.24093-0.69424 0.69420-0.49802
  -2  -4  -470126.75 2428.59   1-0.17158 0.01205-0.58187 0.12787 0.79496-0.99171
   2  -4   475255.42 2598.44   1 0.81059-0.65087 0.22217-0.67615 0.54182-0.34520
  -2   4  -5 8641.45  727.07   1 0.29772-0.45857-0.08672 0.54022-0.95070 0.70559
  -2  -4  -511333.50  815.18   1 0.20526-0.36617-0.74082 0.28680 0.63956-0.88524
  -2  -4  -512112.28  938.18   1 0.59322-0.75369-0.72302 0.26887 0.35401-0.59971
   2  -4   513171.69 1015.01   1 0.66240-0.50249 0.28685-0.74016 0.69205-0.44682
   2  -4   511602.05  841.84   1 0.82179-0.66112 0.24706-0.70085 0.51342-0.26779
  -2   4  -647130.77 1641.85   1 0.32156-0.48383-0.14105 0.59455-0.93632 0.64219
  -2  -4  -651742.57 1744.09   1 0.26028-0.42259-0.79786 0.34384 0.54375-0.83856
  -2  -4  -651348.33 1806.11   1 0.56613-0.72790-0.76019 0.30604 0.31874-0.61358
   2  -4   651690.92 1789.00   1 0.64725-0.48607 0.32647-0.77978 0.68882-0.39455
   2  -4   653675.75 1815.27   1 0.82923-0.66721 0.26437-0.71816 0.49242-0.19767
   2   4   651281.01 1726.38   1 0.38126-0.21920 0.64535-0.19149-0.66192 0.95670
  -2   4  -713277.42 1441.47   1 0.34123-0.50491-0.18765 0.64115-0.92105 0.57790
  -2  -4  -715699.29 1647.14   1 0.30620-0.46990-0.83856 0.38454 0.45060-0.79455
  -2  -4  -714866.34 1618.26   1 0.53738-0.70060-0.79437 0.34042 0.28316-0.62710
   2  -4   714810.57 1584.19   1 0.63330-0.47085 0.36001-0.81333 0.68506-0.34174
   2  -4   714602.44 1553.11   1 0.83385-0.67048 0.27589-0.72967 0.47808-0.13421
   2   4   713860.38 1467.89   1 0.47155-0.30812 0.65999-0.20613-0.58484 0.92874
  -2   4  -818631.71 1047.30   1 0.35727-0.52236-0.22703 0.68053-0.90598 0.51381
  -2  -4  -822523.56 1227.68   1 0.34363-0.50870-0.86626 0.41237 0.36263-0.75575
  -2  -4  -821361.60 1200.69   1 0.50780-0.67235-0.82520 0.37125 0.24732-0.64039
   2  -4   820848.07 1140.05   1 0.62093-0.45721 0.38783-0.84115 0.68119-0.28882
   2  -4   822113.89 1195.20   1 0.83657-0.67185 0.28297-0.73675 0.46912-0.07612
   2   4   819009.35 1012.98   1 0.54932-0.38469 0.66538-0.21153-0.50546 0.89847
  -2   4  -919859.64 2306.81   1 0.37020-0.53671-0.25981 0.71331-0.89187 0.45068
  -2  -4  -918843.56 2177.24   1 0.37467-0.54113-0.88369 0.42980 0.28054-0.72280
  -2  -4  -914455.21 1759.55   1 0.47723-0.64311-0.85297 0.39902 0.21138-0.65359
   2  -4   917909.48 2094.26   1 0.61105-0.44560 0.41003-0.86374 0.67711-0.23534
   2  -4   916198.96 1913.75   1 0.83790-0.67184 0.28656-0.74035 0.46453-0.02240
   2   4   919204.64 2201.07   1 0.61557-0.44959 0.66281-0.20896-0.42630 0.86844
  -2   4 -1031486.54 1909.75   1 0.38051-0.54844-0.28669 0.74019-0.87921 0.38899
  -2  -4 -1039010.70 2270.36   1 0.40009-0.56794-0.89335 0.43946 0.20452-0.69592
  -2  -4 -1033462.63 2022.84   1 0.44577-0.61298-0.87778 0.42383 0.17545-0.66679
   2  -4  1039748.29 2345.24   1 0.60248-0.43573 0.42754-0.88125 0.67395-0.18309
   2  -4  1035458.24 2091.32   1 0.83819-0.67078 0.28734-0.74113 0.46352 0.02771
   2   4  1029389.21 1717.16   1 0.67090-0.50358 0.65434-0.20034-0.34888 0.84039
  -2  -4 -1123548.74 1741.13   1 0.42052-0.58959-0.89719 0.44331 0.13493-0.67516
  -2  -4 -1119497.61 1517.68   1 0.41353-0.58208-0.89972 0.44577 0.13957-0.68004
   2  -4  1122588.23 1699.32   1 0.59594-0.42788 0.44051-0.89422 0.67142-0.13147
   2  -4  1120801.49 1566.30   1 0.83763-0.66887 0.28580-0.73959 0.46549 0.07487
   2   4  1120772.32 1504.28   1 0.71663-0.54797 0.64109-0.18710-0.27463 0.81529
  -2  -4 -1231140.22 1909.48   1 0.43770-0.60816-0.89641 0.44253 0.06966-0.65901
  -2  -4 -1231978.44 2007.72   1 0.37974-0.54973-0.91921 0.46558 0.10407-0.69356
   2  -4  1231723.87 1958.32   1 0.59141-0.42205 0.44927-0.90298 0.66961-0.08058
   2  -4  1233598.75 2082.29   1 0.83632-0.66622 0.28232-0.73610 0.46995 0.11954
   2   4  1234858.42 2086.80   1 0.75409-0.58409 0.62434-0.17035-0.20379 0.79360
  -2   4 -13 1433.90  545.92   1 0.39967-0.57158-0.33850 0.79203-0.85186 0.21442
  -2  -4 -13  962.92  299.40   1 0.45185-0.62368-0.89204 0.43817 0.00885-0.64731
  -2  -4 -13  176.52  275.35   1 0.34614-0.51747-0.93568 0.48204 0.06838-0.70700
   2  -4  13  765.66  389.53   1 0.58886-0.41820 0.45413-0.90784 0.66857-0.03046
   2  -4  13  265.97  318.29   1 0.83435-0.66289 0.27715-0.73094 0.47649 0.16213
   2   4  13 1410.65  378.22   1 0.78432-0.61322 0.60513-0.15137-0.13655 0.77526
  -2   4 -14 9118.59  796.65   1 0.40301-0.57631-0.34787 0.80140-0.84649 0.16002
  -2  -4 -14 7487.22 1308.65   1 0.46348-0.63669-0.88479 0.43092-0.04810-0.63946
  -2  -4 -14 8744.38  786.37   1 0.31193-0.48459-0.94953 0.49589 0.03285-0.72059
   2  -4  14 8166.81  697.69   1 0.58823-0.41625 0.45534-0.90904 0.66831 0.01888
   2  -4  14 8958.05  814.23   1 0.83173-0.65893 0.27051-0.72430 0.48480 0.20293
   2   4  14 9044.13  691.20   1 0.80869-0.63627 0.58372-0.12996-0.07258 0.76043
  -2   4 -15 1484.95  460.67   1 0.40519-0.57989-0.35406 0.80758-0.84288 0.10737
  -2  -4 -15 2496.06  685.64   1 0.47311-0.64755-0.87509 0.42085-0.10184-0.63526
  -2  -4 -15 2485.85  699.24   1 0.27713-0.45113-0.96082 0.50718-0.00253-0.73432
   2  -4  15 1950.60  518.71   1 0.58942-0.41614 0.45308-0.90679 0.66880 0.06748
   2  -4  15 3211.46  762.77   1 0.82848-0.65433 0.26256-0.71635 0.49464 0.24222
   2   4  15 2395.92  566.60   1 0.82791-0.65416 0.56073-0.10696-0.01176 0.74874
   2   5 -1417302.84 1354.57   1 0.41512-0.28079-0.38276 0.94967-0.82532 0.13885
   2  -5 -1422146.50 1706.34   1 0.39468-0.26011-0.89171 0.32435 0.22151-0.90946
   2  -5 -1417211.64 1313.98   1 0.47409-0.33881-0.85561 0.28817 0.20775-0.89563
  -2  -5  1423572.25 1805.44   1 0.67545-0.81000 0.01732-0.58432 0.73719-0.04963
   2   5 -1321571.40 1891.49   1 0.41229-0.27657-0.37448 0.94139-0.83052 0.19308
   2  -5 -1317530.25 1636.03   1 0.37519-0.23923-0.88393 0.31657 0.27908-0.91790
   2  -5 -1312747.09 1183.48   1 0.51230-0.37569-0.82078 0.25334 0.25269-0.89144
  -2  -5  1316343.61 1467.92   1 0.67211-0.80803 0.01326-0.58025 0.74032-0.10187
   2   5 -1216813.53 1265.05   1 0.40825-0.27113-0.36279 0.92970-0.83768 0.24927
   2  -5 -1225803.17 1814.34   1 0.35341-0.21607-0.87232 0.30496 0.33785-0.92752
   2  -5 -1220884.43 1465.58   1 0.54833-0.41039-0.78184 0.21440 0.29673-0.88634
  -2  -5  1222450.16 1490.33   1 0.74292-0.88158-0.10049-0.46632 0.66179-0.07320
  -2  -5  1224927.50 1700.14   1 0.66673-0.80403 0.00678-0.57377 0.74526-0.15592
   2   5 -1116689.64 1256.84   1 0.40277-0.26426-0.34720 0.91411-0.84689 0.30751
   2  -5 -1117556.24 1275.99   1 0.32919-0.19046-0.85646 0.28909 0.39762-0.93815
   2  -5 -1116048.09 1180.65   1 0.58231-0.44279-0.73861 0.17092 0.33964-0.88017
  -2  -5  1116609.69 1166.05   1 0.74364-0.88355-0.11392-0.45289 0.65879-0.11926
  -2  -5  1118188.27 1342.80   1 0.65901-0.79769-0.00238-0.56460 0.75212-0.21189
   2   5 -10  536.33  359.72   1 0.39557-0.25567-0.32713 0.89404-0.85819 0.36786
   2  -5 -10  778.21  320.45   1 0.30271-0.16267-0.83572 0.26819 0.45817-0.94953
   2  -5 -10  728.92  389.13   1 0.61330-0.47247-0.69178 0.12409 0.38117-0.87256
  -2  -5  10  458.67  269.82   1 0.74419-0.88501-0.13140-0.43564 0.65491-0.16422
  -2  -5  10  719.01  316.74   1 0.64858-0.78864-0.01454-0.55245 0.76100-0.26988
   2   5  -912012.69  859.31   1 0.38618-0.24515-0.30180 0.86868-0.87165 0.43045
   2  -5  -911190.19  836.81   1 0.27316-0.13172-0.80997 0.24244 0.51895-0.96117
   2  -5  -910387.59 1225.84   1 0.64143-0.49930-0.64131 0.07362 0.42104-0.86329
  -2  -5   912077.67  741.66   1 0.74479-0.88690-0.15435-0.41268 0.64919-0.20757
  -2  -5   910959.23 1328.18   1 0.63497-0.77640-0.03003-0.53695 0.77195-0.32994
   2   5  -818384.96 1203.64   1 0.37439-0.23194-0.27065 0.83752-0.88689 0.49472
   2  -5  -816089.91 1258.51   1 0.24081-0.09798-0.77861 0.21108 0.57946-0.97254
   2  -5  -815968.92 1251.25   1 0.66648-0.52303-0.58749 0.01980 0.45896-0.85208
  -2  -5   815559.45 1163.65   1 0.74496-0.88836-0.18154-0.38550 0.64192-0.24937
  -2  -5   818272.82 1157.58   1 0.61759-0.76040-0.04924-0.51775 0.78495-0.39206
   2   5  -728998.06 1336.56   1 0.35953-0.21567-0.23270 0.79957-0.90365 0.56050
   2  -5  -740574.71 1814.92   1 0.20566-0.06144-0.74126 0.17374 0.63892-0.98287
   2  -5  -740986.70 1832.29   1 0.68822-0.54322-0.53051-0.03722 0.49488-0.83875
  -2  -5   740932.47 1768.43   1 0.74442-0.88912-0.21256-0.35447 0.63296-0.28948
  -2  -5   740864.14 1796.25   1 0.59574-0.73993-0.07256-0.49442 0.79989-0.45610
  -2   5   639309.05 1712.61   1-0.16985 0.02436 0.69698-0.12999-0.69668 0.99121
   2   5  -638097.07 1696.41   1 0.34097-0.19570-0.18703 0.75391-0.92127 0.62714
   2  -5  -640405.98 1808.87   1 0.70646-0.56019-0.47132-0.09641 0.52798-0.82273
  -2  -5   637214.53 1640.53   1 0.74290-0.88890-0.24699-0.32004 0.62215-0.32774
  -2  -5   639165.96 1741.07   1 0.56857-0.71414-0.10040-0.46658 0.81648-0.52181
  -2   5   542247.12 2165.68   1-0.12985-0.01702 0.64718-0.08019-0.75118 0.99663
   2   5  -543967.48 2263.91   1 0.31799-0.17130-0.13277 0.69965-0.93874 0.69363
   2  -5  -535438.60 1882.48   1 0.72111-0.57356-0.41030-0.15743 0.55825-0.80388
  -2  -5   538098.67 1974.46   1 0.74013-0.88742-0.28430-0.28273 0.60940-0.36405
  -2  -5   536730.92 1905.42   1 0.53464-0.68175-0.13316-0.43366 0.83452-0.58918
  -2   5   4  874.03  319.98   1-0.08795-0.06032 0.59145-0.02447-0.80152 0.99787
   2   5  -4  658.38  341.86   1 0.29010-0.14178-0.06959 0.63655-0.95446 0.75808
  -2  -5   4  368.70  256.99   1 0.73585-0.88444-0.32395-0.24308 0.59461-0.39833
   2  -5  -4  384.72  345.82   1 0.73263-0.58405-0.34754-0.21950 0.58519-0.78147
  -2  -5   4  819.86  291.22   1 0.49384-0.64228-0.17093-0.39589 0.85258-0.65630
  -2   5   4  340.97   84.84   1 0.83346-0.98205 0.55251 0.01469 0.00848 0.18804
  -2   5   4 1032.36  129.10   1 0.48939-0.63782 0.66185-0.09452-0.56784 0.76435
  -2   5   3 2556.02  450.70   1-0.04473-0.10504 0.53067 0.03635-0.84639 0.99380
   2   5  -3 1988.97  292.64   1 0.25603-0.10633 0.00365 0.56330-0.96666 0.81937
  -2  -5   3 1965.44  292.62   1 0.72941-0.87950-0.36557-0.20215 0.57819-0.43081
   2  -5  -3 2309.94  478.61   1 0.74007-0.59019-0.28496-0.28207 0.60916-0.75637
   2  -5  -3 1790.85  280.59   1-0.14269 0.29247-0.57064 0.00314 0.80870-0.95626
  -2  -5   3 1866.47  299.90   1 0.44459-0.59434-0.21387-0.35295 0.86982-0.72262
  -2   5   3 2154.75  241.78   1 0.84553-0.99544 0.53061 0.03659 0.05934 0.08804
  -2   5   2  371.08  208.89   1-0.00105-0.15011 0.46530 0.10172-0.88514 0.98342
   2   5  -2  986.01  279.02   1 0.21556-0.06448 0.08621 0.48074-0.97267 0.87448
  -2  -5   2 1443.66  424.75   1 0.72155-0.87292-0.40813-0.15959 0.55926-0.46101
   2  -5  -2  881.02  378.36   1 0.74407-0.59290-0.22280-0.34424 0.62984-0.72798
   2  -5  -2 1150.10  190.29   1 0.14119 0.01016-0.42932-0.13844 0.89204-0.99031
  -2  -5   2 1078.13  334.47   1 0.38586-0.53693-0.26171-0.30511 0.88465-0.78651
  -2   5   2  269.35  120.51   1 0.84749-0.99873 0.52631 0.04089 0.06887 0.02938
  -2   5   174188.10 2482.07   1 0.04225-0.19479 0.39697 0.17004-0.91685 0.96599
   2   5  -168971.35 2283.02   1 0.16870-0.01618 0.17676 0.39026-0.96968 0.92056
  -2  -5   172731.29 2449.74   1 0.71171-0.86435-0.45128-0.11645 0.53833-0.48921
   2  -5  -170360.42 2405.80   1 0.74489-0.59242-0.16186-0.40518 0.64724-0.69631
   2  -5  -169106.71 2231.33   1 0.35082-0.19839-0.28881-0.27802 0.89079-0.93986
  -2  -5   175597.06 2535.56   1 0.31701-0.46944-0.31380-0.25302 0.89499-0.84592
  -2   5   0128375.6 4193.86   1 0.08435-0.23823 0.32728 0.23974-0.94115 0.94115
   2   5   0123517.2 3994.49   1 0.11574 0.03814 0.27298 0.29404-0.95502 0.95502
  -2  -5   0126507.6 4139.08   1 0.69983-0.85374-0.49445-0.07328 0.51550-0.51550
   2  -5   0122883.5 4047.53   1 0.74305-0.58942-0.10282-0.46399 0.66128-0.66128
  -2  -5   0121957.8 4075.52   1 0.23776-0.39149-0.36875-0.19808 0.89860-0.89860
   2  -5   0117641.6 3774.86   1 0.49477-0.34108-0.17009-0.39673 0.85220-0.85220
  -2   5   0114402.1 3665.55   1 0.84414-0.99803 0.53349 0.03371 0.05288-0.05288
   2   5   112114.44 1729.38   1 0.05805 0.09719 0.37128 0.19574-0.92670 0.97582
  -2   5  -112780.12 1686.63   1 0.12426-0.27951 0.25791 0.30912-0.95814 0.90901
  -2  -5  -1 8094.96  934.02   1 0.68590-0.84108-0.53716-0.03056 0.49090-0.54003
   2  -5   1 8583.44  975.52   1 0.73862-0.58374-0.04666-0.52015 0.67249-0.62344
  -2  -5  -110735.93 1469.14   1 0.14828-0.30362-0.42510-0.14266 0.89291-0.94205
   2  -5   1 9082.58  956.27   1 0.59341-0.43819-0.07500-0.49199 0.80139-0.75228
  -2   5  -1 9713.57 1014.22   1 0.84067-0.99587 0.54024 0.02695 0.03747-0.08660
   2   5   215811.75 1644.27   1-0.00252 0.15920 0.46757 0.09945-0.88395 0.98222
  -2   5  -215523.42 2088.76   1 0.16137-0.31799 0.19044 0.37658-0.96834 0.87009
  -2  -5  -218240.67 1934.09   1 0.66995-0.82642-0.57898 0.01124 0.46468-0.56293
  -2  -5  -217519.52 1835.88   1 0.05136-0.20803-0.47977-0.08798 0.87588-0.97415
   2  -5   218614.55 1922.32   1 0.66002-0.50342-0.00119-0.56579 0.75124-0.65302
   2   5   312384.41 1296.02   1-0.06344 0.22150 0.55756 0.00946-0.82770 0.97511
  -2   5  -311369.70 1245.04   1 0.19510-0.35309 0.12632 0.44063-0.97261 0.82532
  -2  -5  -310864.96 1205.42   1 0.65207-0.80992-0.61967 0.05198 0.43681-0.58422
   2  -5   311437.09 1249.47   1 0.72442-0.56704 0.05516-0.62198 0.68714-0.53999
  -2  -5  -313273.73 1680.24   1-0.05081-0.10717-0.53053-0.03722 0.84613-0.99354
   2  -5   311857.84 1252.28   1 0.70565-0.54767 0.05551-0.62251 0.70638-0.55904
   2   5   4 5930.02  948.41   1-0.12255 0.28198 0.63772-0.07073-0.76045 0.95680
  -2   5  -4 6256.92  737.96   1 0.22539-0.38476 0.06657 0.50038-0.97199 0.77561
   2  -5   4 8092.09  933.35   1 0.71565-0.55702 0.09999-0.66680 0.69125-0.49506
  -2  -5  -4 8312.58 1248.22   1-0.15451-0.00502-0.57530 0.00780 0.80321-0.99995
   2  -5   4 7531.70  834.82   1 0.73704-0.57733 0.09881-0.66628 0.66857-0.47196
   2   5   536310.11 1838.71   1-0.17777 0.33860 0.70642-0.13943-0.68509 0.93053
  -2   5  -533599.09 1774.42   1 0.25207-0.41282 0.01193 0.55502-0.96763 0.72216
  -2  -5  -524184.00 1325.49   1 0.61081-0.77128-0.69584 0.12815 0.37775-0.62344
   2  -5   523739.44 1312.40   1 0.70641-0.54654 0.14039-0.70721 0.69372-0.44848
  -2  -5  -523700.76 1245.08   1-0.25667 0.09574-0.61144 0.04394 0.74850-0.99443
   2  -5   525858.09 1364.03   1 0.75912-0.59800 0.13178-0.69925 0.63746-0.39169
  -2   5  -625002.41 1200.68   1 0.27525-0.43738-0.03720 0.60417-0.96065 0.66608
  -2  -5  -637180.18 1612.44   1 0.22559-0.38789-0.76283 0.19531 0.60595-0.90077
  -2  -5  -637850.67 1705.34   1 0.58770-0.74948-0.73101 0.16332 0.34672-0.64155
   2  -5   638594.96 1720.85   1 0.69753-0.53636 0.17642-0.74306 0.69448-0.40021
   2  -5   642419.78 1849.49   1 0.77463-0.61210 0.15663-0.72410 0.61270-0.31778
   2   5   627379.87 1200.84   1 0.35126-0.18919 0.63873-0.07140-0.68456 0.97933
  -2   5  -710150.97 1248.76   1 0.29513-0.45865-0.08074 0.64770-0.95203 0.60837
  -2  -5  -711175.00 1310.32   1 0.27038-0.43407-0.80739 0.23987 0.52440-0.86835
  -2  -5  -712850.12 1546.41   1 0.56309-0.72618-0.76404 0.19635 0.31488-0.65885
   2  -5   712491.07 1521.83   1 0.68860-0.52615 0.20773-0.77437 0.69474-0.35142
   2  -5   711457.70 1393.70   1 0.78549-0.62156 0.17508-0.74256 0.59358-0.24951
   2   5   710081.32 1190.26   1 0.44070-0.27727 0.65594-0.08861-0.61279 0.95669
  -2   5  -856254.29 3280.68   1 0.31170-0.47680-0.11831 0.68518-0.94278 0.55061
  -2  -5  -849866.30 2858.06   1 0.30942-0.47450-0.84113 0.27360 0.44356-0.83665
  -2  -5  -845413.04 2675.82   1 0.53679-0.70134-0.79503 0.22759 0.28243-0.67550
   2  -5   850201.50 2910.82   1 0.68030-0.51659 0.23455-0.80120 0.69437-0.30200
   2  -5   850178.55 2903.70   1 0.79299-0.62766 0.18842-0.75590 0.57936-0.18612
   2   5   855922.08 3184.38   1 0.52028-0.35565 0.66438-0.09707-0.53655 0.92956
  -2   5  -935830.30 2039.15   1 0.32585-0.49236-0.15105 0.71793-0.93327 0.49208
  -2  -5  -934417.81 1918.66   1 0.34263-0.50909-0.86561 0.29824 0.36512-0.80738
  -2  -5  -930683.51 1813.33   1 0.50951-0.67539-0.82354 0.25610 0.24935-0.69155
   2  -5   937024.37 2102.84   1 0.67290-0.50792 0.25700-0.82364 0.69364-0.25222
   2  -5   936399.51 2065.29   1 0.79798-0.63125 0.19763-0.76511 0.56934-0.12695
   2   5   935604.50 1947.04   1 0.59012-0.42414 0.66467-0.09736-0.45821 0.90034
  -2   5 -10 6800.75  882.31   1 0.33758-0.50552-0.17888 0.74576-0.92413 0.43392
  -2  -5 -10 6202.87  764.44   1 0.37139-0.53924-0.88211 0.31475 0.28972-0.78112
  -2  -5 -10 6429.06  891.83   1 0.48105-0.64826-0.84971 0.28227 0.21582-0.70716
   2  -5  10 6379.86  811.80   1 0.66658-0.50033 0.27522-0.84186 0.69275-0.20229
   2  -5  10 6862.96  888.56   1 0.80106-0.63292 0.20343-0.77090 0.56295-0.07141
   2   5  10 6646.02  821.41   1 0.64990-0.48257 0.65828-0.09096-0.37985 0.87111
  -2   5 -1122076.44 1568.93   1 0.34720-0.51655-0.20216 0.76903-0.91573 0.37650
  -2  -5 -1125205.77 1754.65   1 0.39584-0.56507-0.89208 0.32472 0.21790-0.75844
  -2  -5 -1122694.26 1662.02   1 0.45150-0.62004-0.87352 0.30609 0.18192-0.72239
   2  -5  1123722.41 1671.05   1 0.66147-0.49394 0.28939-0.85603 0.69188-0.15237
   2  -5  1123929.03 1677.44   1 0.80260-0.63306 0.20638-0.77386 0.55967-0.01897
   2   5  1121152.34 1441.61   1 0.70017-0.53151 0.64663-0.07914-0.30268 0.84334
  -2   5 -12 5677.81 1016.06   1 0.35495-0.52572-0.22127 0.78814-0.90831 0.32006
  -2  -5 -12 2953.13  565.28   1 0.41610-0.58655-0.89677 0.32942 0.15054-0.73988
  -2  -5 -12 2099.45  494.75   1 0.42093-0.59080-0.89498 0.32754 0.14772-0.73733
   2  -5  12 2982.18  589.95   1 0.65765-0.48886 0.29966-0.86630 0.69115-0.10259
   2  -5  12 3798.60  738.10   1 0.80288-0.63194 0.20692-0.77440 0.55907 0.03077
   2   5  12 6210.87 1065.60   1 0.74190-0.57190 0.63052-0.06302-0.22808 0.81789
  -2   5 -1320345.50 2049.67   1 0.36107-0.53325-0.23658 0.80345-0.90202 0.26474
  -2  -5 -1313855.05 1420.95   1 0.43361-0.60545-0.89698 0.32964 0.08594-0.72440
  -2  -5 -1314738.16 1536.47   1 0.38859-0.55992-0.91437 0.34732 0.11361-0.75222
   2  -5  1313124.68 1376.58   1 0.65517-0.48511 0.30619-0.87283 0.69064-0.05304
   2  -5  1315412.20 1617.42   1 0.80208-0.62974 0.20537-0.77285 0.56078 0.07821
   2   5  1318716.74 1848.40   1 0.77604-0.60470 0.61100-0.04351-0.15629 0.79525
  -2   5 -14 9863.99 1297.47   1 0.36575-0.53935-0.24843 0.81531-0.89694 0.21063
  -2  -5 -14 9499.58 1189.92   1 0.35617-0.52883-0.93107 0.36403 0.07895-0.76669
   2  -5  14 9423.36 1167.42   1 0.65405-0.48272 0.30912-0.87576 0.69039-0.00375
   2  -5  1411188.29 1362.71   1 0.80031-0.62657 0.20201-0.76949 0.56452 0.12363
   2   6 -12 7145.92  952.97   1 0.36348-0.22670-0.24266 0.92291-0.89944 0.31118
   2  -6 -12 8085.66 1045.39   1 0.33967-0.20233-0.86366 0.18283 0.37242-0.96209
   2  -6 -12 6304.75  884.47   1 0.56118-0.42297-0.76644 0.08522 0.31245-0.90212
  -2  -6  12 6683.49  910.20   1 0.61509-0.75239-0.05195-0.62843 0.78674-0.19740
   2   6 -11  813.18  357.37   1 0.35592-0.21772-0.22367 0.90392-0.90735 0.36811
   2  -6 -11 1319.15  421.74   1 0.31522-0.17650-0.84611 0.16528 0.42978-0.97032
   2  -6 -11 1344.99  457.32   1 0.59073-0.45122-0.72664 0.04542 0.35072-0.89125
  -2  -6  11  801.33  219.39   1 0.74413-0.88366-0.22117-0.45927 0.63034-0.09059
  -2  -6  11 2061.46  577.30   1 0.60550-0.74418-0.06225-0.61813 0.79340-0.25317
   2   6 -1011764.09 1165.92   1 0.34649-0.20687-0.20041 0.88066-0.91639 0.42617
   2  -6 -10 9720.31  931.02   1 0.28901-0.14896-0.82415 0.14312 0.48707-0.97843
   2  -6 -10 9709.36  958.78   1 0.61787-0.47704-0.68417 0.00294 0.38748-0.87887
  -2  -6  10 8202.12  748.96   1 0.74360-0.88441-0.23391-0.44653 0.62637-0.13568
  -2  -6  10 9511.41  973.79   1 0.59308-0.73314-0.07533-0.60505 0.80160-0.31048
   2   6  -924641.95 2080.53   1 0.33488-0.19385-0.17241 0.85266-0.92635 0.48515
   2  -6  -921632.36 1837.31   1 0.26026-0.11882-0.79783 0.11680 0.54380-0.98602
   2  -6  -922586.92 1897.96   1 0.64247-0.50033-0.63927-0.04195 0.42256-0.86481
  -2  -6   921618.69 1801.61   1 0.74270-0.88481-0.25043-0.43001 0.62102-0.17940
  -2  -6   921553.32 1833.61   1 0.57743-0.71887-0.09145-0.58893 0.81129-0.36929
   2   6  -8 9860.66  886.15   1 0.32077-0.17832-0.13920 0.81945-0.93687 0.54470
   2  -6  -811292.31  915.32   1 0.22938-0.08655-0.76682 0.08579 0.59946-0.99254
   2  -6  -812752.10 1011.21   1 0.66445-0.52100-0.59224-0.08897 0.45578-0.84890
  -2  -6   810839.47  833.44   1 0.74130-0.88471-0.27042-0.41002 0.61427-0.22172
  -2  -6   810703.28  879.26   1 0.55751-0.70068-0.11099-0.56919 0.82271-0.43016
   2   6  -7 2284.04  477.03   1 0.30376-0.15990-0.10029 0.78054-0.94745 0.60430
   2  -6  -7 1324.14  401.72   1 0.19651-0.05229-0.73103 0.05000 0.65343-0.99737
   2  -6  -7 1125.47  333.24   1 0.68372-0.53872-0.54326-0.13801 0.48721-0.83109
  -2  -6   7 1156.75  271.09   1 0.73925-0.88395-0.29358-0.38687 0.60605-0.26257
  -2  -6   7 1724.56  361.55   1 0.53381-0.67830-0.13395-0.54624 0.83492-0.49145
   2   6  -6 1203.09  287.47   1 0.28375-0.13819-0.05565 0.73601-0.95728 0.66271
   2  -6  -6 1348.51  393.35   1 0.70023-0.55396-0.49311-0.18816 0.51624-0.81099
  -2  -6   6 1056.35  360.96   1 0.73639-0.88239-0.31957-0.36088 0.59631-0.30190
  -2  -6   6  923.22  305.92   1 0.50512-0.65093-0.16070-0.51949 0.84795-0.55354
  -2   6   517212.52 1712.45   1-0.12786-0.01901 0.64461 0.03576-0.75373 0.99917
   2   6  -515845.85  967.75   1 0.25976-0.11282-0.00418 0.68454-0.96566 0.72019
   2  -6  -513860.64  918.25   1 0.71399-0.56644-0.44203-0.23925 0.54297-0.78860
  -2  -6   514598.08  943.87   1 0.73256-0.87985-0.34804-0.33240 0.58499-0.33964
  -2  -6   516481.66 1009.30   1 0.47073-0.61785-0.19142-0.48877 0.86125-0.61591
  -2   6   437314.91 2659.58   1-0.09076-0.05751 0.59530 0.08508-0.79835 0.99471
   2   6  -435212.29 2503.75   1 0.23171-0.08339 0.05381 0.62653-0.97129 0.77491
  -2  -6   434361.71 2472.50   1 0.72713-0.87595-0.37896-0.30232 0.57241-0.37591
   2  -6  -435778.57 2615.79   1 0.72503-0.57621-0.39049-0.29079 0.56731-0.76381
  -2  -6   436785.49 2620.42   1 0.42986-0.57830-0.22619-0.45400 0.87409-0.67782
  -2   6   312290.74 1722.21   1-0.05298-0.09679 0.54261 0.13781-0.83830 0.98571
   2   6  -310024.25  814.71   1 0.19932-0.04962 0.11814 0.56221-0.97278 0.82550
  -2  -6   313396.35 1089.40   1 0.72090-0.87099-0.41127-0.27001 0.55780-0.41043
   2  -6  -312362.66 1028.12   1 0.73394-0.58406-0.33839-0.34205 0.58890-0.73611
  -2  -6   312210.65  976.85   1 0.38176-0.53151-0.26493-0.41526 0.88547-0.73827
  -2   6   232652.31 2575.95   1-0.01519-0.13596 0.48686 0.19357-0.87334 0.97161
   2   6  -225455.85 1513.72   1 0.16263-0.01146 0.18811 0.49231-0.96858 0.87033
  -2  -6   226022.54 1587.33   1 0.71328-0.86465-0.44492-0.23636 0.54153-0.44328
   2  -6  -224254.69 1550.06   1 0.73984-0.58867-0.28745-0.39299 0.60827-0.70641
   2  -6  -222210.71 1268.24   1 0.05223 0.09912-0.47931-0.20200 0.87608-0.97435
  -2  -6   226923.38 2323.67   1 0.32584-0.47697-0.30737-0.37283 0.89406-0.79592
  -2   6   133705.82 2038.91   1 0.02208-0.17462 0.42924 0.25119-0.90291 0.95205
   2   6  -128170.76 1703.69   1 0.12154 0.03098 0.26273 0.41769-0.95718 0.90805
  -2  -6   133381.00 2012.84   1 0.70418-0.85682-0.47952-0.20176 0.52362-0.47449
   2  -6  -126087.69 1677.08   1 0.74342-0.59095-0.23758-0.44286 0.62520-0.67427
  -2  -6   130771.53 2626.21   1 0.26157-0.41400-0.35275-0.32744 0.89840-0.84933
   2  -6  -129285.69 1684.80   1 0.23377-0.08134-0.37138-0.30881 0.89856-0.94763
   2   6   0 6556.81  828.25   1 0.07666 0.07721 0.34028 0.34015-0.93719 0.93719
  -2   6   0 6441.27  632.48   1 0.05834-0.21222 0.37081 0.30962-0.92687 0.92687
  -2  -6   0 7228.43  669.73   1 0.69350-0.84742-0.51470-0.16658 0.50410-0.50410
   2  -6   0 6074.99  623.10   1 0.74490-0.59113-0.18927-0.49118 0.63976-0.63976
  -2  -6   0 8998.13  943.86   1 0.18897-0.34270-0.40018-0.28002 0.89673-0.89673
   2  -6   0 6835.19  668.27   1 0.37038-0.21669-0.27377-0.40642 0.88761-0.88761
   2   6   145225.29 2600.89   1 0.02872 0.12657 0.41870 0.26173-0.90766 0.95680
  -2   6  -147735.84 3605.45   1 0.09292-0.24817 0.31265 0.36778-0.94530 0.89618
  -2  -6  -145095.65 2678.94   1 0.68122-0.83641-0.55009-0.13119 0.48303-0.53216
  -2  -6  -144246.56 3013.44   1 0.10783-0.26317-0.44870-0.23261 0.88714-0.93628
   2  -6   141907.63 2390.98   1 0.47266-0.31766-0.18973-0.49045 0.86057-0.81150
   2   6   212339.40  983.65   1-0.02099 0.17767 0.49559 0.18484-0.86830 0.96657
  -2   6  -213110.97 1893.93   1 0.12544-0.28205 0.25580 0.42463-0.95855 0.86030
  -2  -6  -213054.84 1066.75   1 0.66734-0.82388-0.58544-0.09577 0.46032-0.55860
   2  -6   211077.48  938.01   1 0.74283-0.58670-0.09907-0.58110 0.66209-0.56400
  -2  -6  -210857.93  849.33   1 0.02070-0.17736-0.49574-0.18557 0.86821-0.96649
   2  -6   210947.98  833.16   1 0.54865-0.39233-0.11967-0.56052 0.82743-0.72930
   2   6   321997.72 1945.97   1-0.07128 0.22934 0.56863 0.11180-0.81949 0.96690
  -2   6  -320670.45 2139.01   1 0.15558-0.31355 0.20117 0.47926-0.96712 0.81974
  -2  -6  -331310.53 2257.80   1 0.65177-0.80962-0.62030-0.06091 0.43636-0.58377
   2  -6   329578.70 2187.22   1 0.73971-0.58233-0.05802-0.62215 0.67041-0.52326
  -2  -6  -330437.24 2167.64   1-0.07127-0.08671-0.53985-0.14146 0.83873-0.98613
   2  -6   331135.59 2202.79   1 0.60567-0.44769-0.06207-0.61831 0.79329-0.64595
   2   6   427846.86 2022.23   1-0.12091 0.28034 0.63559 0.04479-0.76249 0.95885
  -2   6  -428957.20 2101.95   1 0.18299-0.34236 0.14958 0.53076-0.97166 0.77528
  -2  -6  -425575.81 1914.93   1 0.63458-0.79374-0.65444-0.02678 0.41110-0.60765
   2  -6   424222.44 1794.46   1 0.73567-0.57704-0.02002-0.66015 0.67703-0.48084
  -2  -6  -422432.06 1676.94   1-0.16525 0.00571-0.57946-0.10153 0.79806-0.99481
   2  -6   425506.69 1839.48   1 0.64767-0.48832-0.01558-0.66480 0.76175-0.56530
   2   6   5 7680.65  845.15   1-0.16848 0.32931 0.69533-0.01494-0.69865 0.94410
  -2   6  -5 6741.01  876.25   1 0.20781-0.36856 0.10153 0.57881-0.97288 0.72741
  -2  -6  -510460.69 1300.07   1 0.61582-0.77629-0.68761 0.00638 0.38464-0.63033
   2  -6   510314.10 1229.61   1 0.73101-0.57113 0.01470-0.69488 0.68220-0.43695
  -2  -6  -5 8371.16  898.17   1-0.25944 0.09852-0.61231-0.06868 0.74682-0.99276
   2  -6   510362.41 1189.71   1 0.67906-0.51832 0.02174-0.70213 0.73375-0.48820
  -2   6  -6 1366.03  344.30   1 0.22992-0.39206 0.05743 0.62292-0.97151 0.67694
  -2  -6  -6 2465.61  357.46   1 0.21078-0.37308-0.74690 0.06586 0.63064-0.92545
  -2  -6  -6 2481.68  424.84   1 0.59553-0.75731-0.71960 0.03837 0.35709-0.65192
   2  -6   6 2299.54  455.24   1 0.72602-0.56490 0.04601-0.72619 0.68612-0.39183
   2  -6   6 3359.01  465.93   1 0.70255-0.54043 0.05146-0.73185 0.70976-0.41509
   2   6   6 2190.87  380.59   1 0.34816-0.18609 0.63800 0.04278-0.68682 0.98159
  -2   6  -7 9343.98 1123.21   1 0.24940-0.41292 0.01748 0.66286-0.96824 0.62457
  -2  -6  -7 9076.93 1061.51   1 0.25213-0.41583-0.78993 0.10890 0.55894-0.90289
  -2  -6  -7 9676.75 1649.24   1 0.57376-0.73685-0.75023 0.06900 0.32854-0.67252
   2  -6   7 9148.80 1097.13   1 0.72097-0.55859 0.07379-0.75397 0.68902-0.34568
   2  -6   710743.60  782.99   1 0.71990-0.55598 0.07480-0.75577 0.69002-0.34594
   2   6   7 9782.97 1588.21   1 0.43432-0.27089 0.65497 0.02581-0.61836 0.96226
  -2   6  -8 6560.92 1171.78   1 0.26639-0.43129-0.01823 0.69858-0.96369 0.57093
  -2  -6  -8 8665.06 1489.62   1 0.28956-0.45464-0.82463 0.14360 0.48593-0.87901
  -2  -6  -8 7651.84 1298.97   1 0.55031-0.71486-0.77950 0.09858 0.29920-0.69228
   2  -6   8 7721.88 1292.82   1 0.71608-0.55245 0.09799-0.77817 0.69110-0.29871
   2  -6   8 8239.74 1427.01   1 0.73297-0.56764 0.09299-0.77396 0.67387-0.28063
   2   6   8 6553.65 1088.57   1 0.51277-0.34814 0.66394 0.01683-0.54428 0.93729
  -2   6  -936752.63 2481.42   1 0.28105-0.44732-0.04976 0.73011-0.95840 0.51655
  -2  -6  -932750.78 2138.31   1 0.32254-0.48899-0.85163 0.17079 0.41314-0.85539
  -2  -6  -931320.57 2136.61   1 0.52576-0.69164-0.80699 0.12607 0.26894-0.71114
   2  -6   934567.96 2320.25   1 0.71155-0.54668 0.11861-0.79879 0.69254-0.25110
   2  -6   936528.21 2421.74   1 0.74253-0.57580 0.10677-0.78774 0.66123-0.21885
   2   6   936305.15 2346.24   1 0.58322-0.41724 0.66498 0.01578-0.46652 0.90865
  -2   6 -10 9280.38 1024.74   1 0.29355-0.46122-0.07724 0.75759-0.95281 0.46187
  -2  -6 -10 9256.76  845.26   1 0.35210-0.51994-0.87153 0.19070 0.34123-0.83263
  -2  -6 -10 9843.93  946.09   1 0.49992-0.66714-0.83273 0.15180 0.23795-0.72929
   2  -6  1010565.20 1025.95   1 0.70756-0.54144 0.13567-0.81585 0.69350-0.20301
   2  -6  1011076.72 1025.80   1 0.74933-0.58120 0.11684-0.79782 0.65179-0.16025
   2   6  10 8572.02  786.93   1 0.64470-0.47737 0.65913 0.02164-0.38717 0.87843
  -2   6 -11  486.27  363.08   1 0.30383-0.47318-0.10044 0.78069-0.94741 0.40817
  -2  -6 -11  522.95  231.23   1 0.37800-0.54723-0.88522 0.20438 0.27110-0.81164
  -2  -6 -11  809.71  518.83   1 0.47286-0.64140-0.85663 0.17571 0.20633-0.74681
   2  -6  11  623.07  290.48   1 0.70463-0.53711 0.14933-0.82930 0.69367-0.15417
   2  -6  11  489.24  455.44   1 0.75390-0.58437 0.12375-0.80472 0.64521-0.10452
  -2   6 -12 3087.40  790.32   1 0.31262-0.48338-0.12040 0.80065-0.94221 0.35395
  -2  -6 -12  896.69  273.99   1 0.40053-0.57115-0.89347 0.21264 0.20314-0.79282
  -2  -6 -12 1032.14  456.66   1 0.44461-0.61448-0.87863 0.19770 0.17414-0.76375
   2  -6  12 1687.86  485.65   1 0.70207-0.53328 0.15936-0.83933 0.69404-0.10548
   2  -6  12 2642.79  700.82   1 0.75663-0.58569 0.12792-0.80890 0.64119-0.05135
   2   7  -9  158.29  288.23   1 0.28166-0.14025-0.05109 0.84484-0.95815 0.51630
   2  -7  -9  272.78  296.73   1 0.25634-0.11490-0.79405-0.00048 0.55115-0.99337
   2  -7  -9  305.20  323.15   1 0.63698-0.49485-0.64990-0.14485 0.41456-0.85681
  -2  -7   9  -11.64  240.64   1 0.73431-0.87642-0.33574-0.45812 0.58996-0.14835
  -2  -7   9  269.76  292.01   1 0.51256-0.65442-0.15387-0.63969 0.84474-0.40313
   2   7  -813649.85 1135.69   1 0.26623-0.12343-0.01788 0.81162-0.96374 0.57098
   2  -7  -812259.81 1059.06   1 0.22739-0.08456-0.76473-0.02980 0.60288-0.99597
  -2  -7   812126.22  950.44   1 0.73220-0.87561-0.35042-0.44343 0.58401-0.19146
  -2  -7   813773.11 1103.36   1 0.49132-0.63450-0.17320-0.62036 0.85358-0.46103
   2   7  -7 3312.12  777.80   1 0.24822-0.10404 0.01995 0.77379-0.96849 0.62483
   2  -7  -7 2541.11  617.13   1 0.19700-0.05278-0.73158-0.06295 0.65267-0.99661
   2  -7  -7 2056.28  580.69   1 0.67499-0.52999-0.56644-0.22839 0.47278-0.81666
  -2  -7   7 3933.01  888.01   1 0.72895-0.87394-0.36837-0.42646 0.57700-0.23312
  -2  -7   7 2415.38  579.80   1 0.46593-0.61042-0.19560-0.59795 0.86292-0.51945
  -2   7   6 2924.01  655.10   1-0.16739 0.02189 0.69401 0.09977-0.70023 0.99476
   2   7  -6 3630.02  778.27   1 0.22739-0.08184 0.06253 0.73121-0.97179 0.67722
   2  -7  -6 1709.53  492.35   1 0.69060-0.54434-0.52349-0.27134 0.49901-0.79376
  -2  -7   6 2342.73  585.64   1 0.72544-0.87171-0.38827-0.40655 0.56830-0.27355
  -2  -7   6 2535.19  598.44   1 0.43585-0.58166-0.22121-0.57235 0.87240-0.57799
  -2   7   517786.95 1703.60   1-0.13494-0.01194 0.65370 0.14008-0.74462 0.99006
   2   7  -517938.81 1280.41   1 0.20355-0.05662 0.10987 0.68386-0.97287 0.72740
  -2  -7   516877.17 1228.25   1 0.72108-0.86862-0.41041-0.38441 0.55820-0.31257
   2  -7  -520399.82 1508.70   1 0.70401-0.55647-0.48009-0.31473 0.52331-0.76894
  -2  -7   519646.55 1380.15   1 0.40054-0.54766-0.25007-0.54348 0.88149-0.63615
  -2   7   4 4789.75  881.50   1-0.10184-0.04642 0.61032 0.18345-0.78557 0.98193
   2   7  -4 4536.31  977.12   1 0.17667-0.02823 0.16176 0.63208-0.97088 0.77438
  -2  -7   4 3862.08  754.54   1 0.71577-0.86459-0.43449-0.36033 0.54669-0.35019
   2  -7  -4 2281.38  477.71   1 0.71528-0.56646-0.43661-0.35821 0.54565-0.74215
  -2  -7   4 3693.35  715.07   1 0.35948-0.50800-0.28224-0.51132 0.88944-0.69316
  -2   7   3 3498.90  753.58   1-0.06839-0.08138 0.56457 0.22926-0.82254 0.96995
   2   7  -3 3466.47  809.23   1 0.14642 0.00337 0.21797 0.57586-0.96490 0.81753
  -2  -7   3 3993.04  818.06   1 0.70942-0.85951-0.46024-0.33458 0.53375-0.38638
   2  -7  -3 2930.91  624.22   1 0.72448-0.57439-0.39339-0.40144 0.56601-0.71338
  -2  -7   3 3640.96  741.19   1 0.31206-0.46189-0.31738-0.47618 0.89547-0.74826
  -2   7   2 3518.05  735.95   1-0.03513-0.11602 0.51660 0.27723-0.85549 0.95377
   2   7  -2 3775.12  762.08   1 0.11300 0.03816 0.27781 0.51603-0.95396 0.85571
  -2  -7   2 3268.68  659.85   1 0.70192-0.85329-0.48737-0.30746 0.51938-0.42113
   2  -7  -2 2966.00  575.75   1 0.73224-0.58107-0.35015-0.44370 0.58412-0.68226
  -2  -7   2 3839.75  822.32   1 0.25791-0.40904-0.35524-0.43832 0.89848-0.80034
  -2   7   1 8698.47 1049.69   1-0.00238-0.15015 0.46735 0.32648-0.88406 0.93320
   2   7  -1 7235.27 1531.43   1 0.07660 0.07591 0.34038 0.45346-0.93716 0.88803
  -2  -7   1 7220.70 1266.05   1 0.69322-0.84586-0.51559-0.27924 0.50359-0.45447
   2  -7  -1 7328.81 1280.92   1 0.73768-0.58521-0.30852-0.48533 0.60052-0.64959
  -2  -7   1 6971.91 1267.47   1 0.19679-0.34922-0.39526-0.39831 0.89723-0.84816
  -2   7   026903.89 2234.70   1 0.02944-0.18336 0.41755 0.37628-0.90817 0.90817
   2   7   025984.56 2601.63   1 0.03755 0.11636 0.40456 0.38927-0.91373 0.91373
  -2  -7   022420.77 1896.19   1 0.68323-0.83714-0.54462-0.25021 0.48639-0.48639
   2  -7   021587.12 1863.59   1 0.74147-0.58771-0.26820-0.52565 0.61504-0.61504
  -2  -7   019689.63 2372.21   1 0.12790-0.28191-0.43713-0.35773 0.89025-0.89025
   2   7   1 8120.70 1258.25   1-0.00344 0.15874 0.46897 0.32486-0.88320 0.93234
  -2   7  -1 8878.94 1344.82   1 0.06007-0.21532 0.36795 0.42589-0.92790 0.87877
  -2  -7  -1 6176.66 1118.00   1 0.67191-0.82709-0.57418-0.22064 0.46780-0.51693
   2  -7   1 6742.12 1253.29   1 0.74380-0.58874-0.22950-0.56435 0.62776-0.57869
  -2  -7  -1 6897.97 1208.33   1 0.05334-0.20867-0.47872-0.31614 0.87634-0.92547
   2   7   2 2760.05  604.22   1-0.04575 0.20243 0.53215 0.26168-0.84541 0.94368
  -2   7  -2 2361.30  521.94   1 0.08906-0.24567 0.31925 0.47458-0.94347 0.84522
  -2  -7  -2 4152.42  824.99   1 0.65925-0.81579-0.60409-0.19067 0.44772-0.54600
   2  -7   2 4016.20  842.38   1 0.74485-0.58850-0.19272-0.60113 0.63878-0.54064
  -2  -7  -2 3347.54  757.40   1-0.02684-0.12981-0.51926-0.27561 0.85419-0.95246
   2  -7   2 3331.69  596.46   1 0.43094-0.27462-0.22529-0.56826 0.87379-0.77566
   2   7   3 1690.87  416.87   1-0.08870 0.24674 0.59249 0.20129-0.80067 0.94794
  -2   7  -3 1566.07  438.90   1 0.11623-0.27421 0.27212 0.52172-0.95521 0.80784
  -2  -7  -3 1535.55  510.13   1 0.64513-0.80298-0.63396-0.16079 0.42647-0.57389
   2  -7   3  663.63  356.80   1 0.74485-0.58720-0.15811-0.63574 0.64822-0.50101
  -2  -7  -3 1264.87  308.51   1-0.11062-0.04751-0.55748-0.23701 0.82278-0.97034
   2  -7   3 1359.71  305.61   1 0.49525-0.33762-0.16966-0.62389 0.85201-0.70481
   2   7   4  316.04  172.52   1-0.13121 0.29064 0.64893 0.14485-0.74944 0.94580
  -2   7  -4 1115.03  333.17   1 0.14140-0.30074 0.22711 0.56673-0.96354 0.76705
  -2  -7  -4  443.48  332.48   1 0.62960-0.78877-0.66362-0.13114 0.40397-0.60053
   2  -7   4  777.31  341.34   1 0.74399-0.58504-0.12590-0.66795 0.65622-0.45994
  -2  -7  -4  524.28  191.56   1-0.19767 0.03814-0.59151-0.20299 0.78169-0.97843
   2  -7   4  868.16  357.45   1 0.54558-0.38663-0.12265-0.67091 0.82903-0.63275
   2   7   5 9548.87  700.35   1-0.17261 0.33343 0.70028 0.09349-0.69267 0.93812
  -2   7  -5 9835.22  977.99   1 0.16447-0.32517 0.18468 0.60915-0.96893 0.72331
  -2  -7  -5 6109.29 1070.40   1 0.61266-0.77313-0.69282-0.10193 0.38029-0.62599
   2  -7   5 7240.28 1262.36   1 0.74267-0.58279-0.09634-0.69720 0.66268-0.41744
   2  -7   5 6849.75 1166.93   1 0.58556-0.42483-0.08313-0.71065 0.80634-0.56079
  -2   7  -6 1442.22  396.05   1 0.18526-0.34739 0.14525 0.64849-0.97189 0.67732
  -2  -7  -6 2304.13  511.64   1 0.20991-0.37221-0.74594-0.04859 0.63206-0.92687
  -2  -7  -6 1804.37  561.80   1 0.59432-0.75610-0.72139-0.07337 0.35548-0.65032
   2  -7   6 1810.15  531.43   1 0.74072-0.57959-0.06948-0.72405 0.66820-0.37391
   2  -7   6 3318.83  723.82   1 0.61639-0.45427-0.05054-0.74324 0.78581-0.49114
   2   7   6 1861.64  427.74   1 0.36826-0.20619 0.64258 0.15166-0.67191 0.96668
  -2   7  -7 7075.08  866.32   1 0.20404-0.36756 0.10892 0.68482-0.97288 0.62922
  -2  -7  -7 4293.52  923.45   1 0.24741-0.41110-0.78525-0.00928 0.56759-0.91154
  -2  -7  -7 5779.62  802.08   1 0.57459-0.73768-0.74912-0.04564 0.32962-0.67359
   2  -7   7 4387.43  970.39   1 0.73850-0.57613-0.04548-0.74805 0.67270-0.32937
   2  -7   7 7031.79  779.24   1 0.64047-0.47698-0.02381-0.76997 0.76760-0.42382
  -2   7  -819441.39 1521.04   1 0.22074-0.38564 0.07588 0.71785-0.97237 0.57961
  -2  -7  -818200.90 1350.24   1 0.28218-0.44727-0.81814 0.02361 0.50100-0.89408
  -2  -7  -817961.49 1403.91   1 0.55326-0.71781-0.77597-0.01843 0.30291-0.69598
   2  -7   818966.44 1469.76   1 0.73620-0.57257-0.02442-0.76911 0.67632-0.28393
   2  -7   817745.40 1341.61   1 0.65921-0.49434-0.00214-0.79164 0.75195-0.35905
  -2   8   1 6383.52 1191.19   1-0.03017-0.12236 0.50928 0.39796-0.86006 0.90920
   2   8  -1 4649.00  734.29   1 0.03225 0.12028 0.41306 0.49418-0.91013 0.86099
  -2  -8   1 4103.14  619.12   1 0.67882-0.83146-0.55650-0.35187 0.47905-0.42993
   2  -8  -1 4339.35  666.92   1 0.72746-0.57482-0.37710-0.53127 0.57322-0.62235
  -2  -8   1 4782.38  793.66   1 0.12172-0.27440-0.44072-0.46769 0.88934-0.84021
   2   8   0  347.73  218.02   1-0.00218 0.15611 0.46705 0.44019-0.88422 0.88422
  -2   8   0  768.25  288.36   1-0.00175-0.15216 0.46638 0.44086-0.88458 0.88458
  -2  -8   0  757.03  460.51   1 0.66928-0.82319-0.58063-0.32775 0.46360-0.46360
  -2  -8   0  643.74  210.68   1 0.05677-0.21078-0.47689-0.43153 0.87712-0.87712
   2   8   1 5201.63  838.53   1-0.03808 0.19338 0.52094 0.38629-0.85273 0.90187
  -2   8  -1 6189.03 1074.52   1 0.02564-0.18094 0.42359 0.48365-0.90548 0.85635
  -2  -8  -1 5868.27  796.50   1 0.65862-0.81386-0.60547-0.30282 0.44677-0.49591
   2  -8   1 4320.02  732.29   1 0.73755-0.58249-0.30970-0.59756 0.60008-0.55101
  -2  -8  -1 4858.26  697.07   1-0.01369-0.14164-0.51290-0.39551 0.85833-0.90746
   3   0 -18 6969.82  955.50   1 0.49793-0.29168-0.79329 0.79329-0.35033-0.53441
  -3   0  18 7857.90 1020.67   1 0.75591-0.96182 0.12682-0.12682 0.64226 0.24250
   3   0 -17 1042.02  606.22   1 0.49669-0.28905-0.80671 0.80671-0.32017-0.51542
  -3   0  17  709.67  403.31   1 0.76228-0.96959 0.13670-0.13670 0.63264 0.20297
   3   0 -16 4183.12  873.87   1 0.49498-0.28584-0.81933 0.81933-0.28927-0.49697
  -3   0  16 3396.49  667.91   1 0.76740-0.97612 0.14485-0.14485 0.62458 0.16188
   3   0 -1526842.81 1731.74   1 0.49260-0.28209-0.83114 0.83114-0.25793-0.47917
  -3   0  1529566.75 1816.38   1 0.77122-0.98134 0.15103-0.15103 0.61837 0.11893
   3   0 -1418811.12 1456.60   1 0.48962-0.27774-0.84218 0.84218-0.22582-0.46214
   3   0 -1416481.17 1187.51   1-0.23233 0.44465-0.86316 0.86316-0.44828-0.23921
  -3   0  1417906.72 1310.57   1 0.77363-0.98515 0.15498-0.15498 0.61438 0.07377
   3   0 -13 1567.92  430.65   1 0.48598-0.27274-0.85244 0.85243-0.19278-0.44604
   3   0 -13 1105.94  214.79   1-0.19567 0.40931-0.88597 0.88597-0.42042-0.21796
  -3   0  13 1804.79  391.07   1 0.77444-0.98736 0.15631-0.15631 0.61302 0.02597
   3   0 -12 2051.62  439.37   1 0.48163-0.26703-0.86189 0.86189-0.15861-0.43107
   3   0 -12 1986.65  321.48   1-0.15900 0.37396-0.90618 0.90618-0.39185-0.19743
  -3   0  12 1635.24  142.19   1 0.73855-0.95366-0.30051 0.30051 0.60351-0.01468
  -3   0  12 3579.93  392.38   1 0.77334-0.98767 0.15451-0.15451 0.61486-0.02501
   3   0 -1140017.77 1550.86   1 0.47648-0.26051-0.87053 0.87053-0.12304-0.41749
   3   0 -1135024.41 1158.56   1-0.12148 0.33765-0.92421 0.92421-0.36204-0.17838
  -3   0  1132305.50 1057.67   1 0.74030-0.95670-0.28243 0.28243 0.61006-0.07031
  -3   0  1139163.71 1367.73   1 0.76989-0.98562 0.14887-0.14887 0.62056-0.07986
   3   0 -1086189.57 3057.28   1 0.47040-0.25307-0.87827 0.87827-0.08572-0.40568
   3   0 -1077170.17 2615.02   1-0.08282 0.30032-0.94017 0.94017-0.33045-0.16083
  -3   0  1075426.92 2548.18   1 0.74311-0.96081-0.24340 0.24340 0.62332-0.13263
  -3   0  1085695.96 2959.27   1 0.76338-0.98051 0.13843-0.13843 0.63094-0.13939
   3   0  -9228887.0 7347.97   1 0.46310-0.24470-0.88510 0.88510-0.04613-0.39587
   3   0  -9201243.0 6755.13   1-0.04112 0.25996-0.95442 0.95442-0.29558-0.14657
  -3   0   9214532.8 7189.83   1 0.74497-0.96396-0.17204 0.17204 0.64452-0.20291
  -3   0   9236230.9 7515.73   1 0.75269-0.97122 0.12190-0.12190 0.64699-0.20460
   3   0  -823606.49 1060.46   1 0.45454-0.23476-0.89071 0.89071-0.00365-0.38924
   3   0  -824362.12  956.11   1 0.00715 0.21301-0.96713 0.96713-0.25417-0.13885
  -3   0   822623.65  865.88   1 0.73835-0.95881-0.04395 0.04395 0.67298-0.28059
  -3   0   821790.09  898.02   1 0.73609-0.95603 0.09744-0.09744 0.66982-0.27659
   3   0  -7 4206.18  369.12   1 0.44419-0.22303-0.89491 0.89491 0.04272-0.38651
   3   0  -7 4596.48  206.52   1 0.07293 0.14870-0.97780 0.97780-0.19641-0.14760
  -3   0   7 3991.59  173.26   1 0.69951-0.92097 0.16910-0.16910 0.69432-0.35099
  -3   0   7 4510.26  299.18   1 0.71105-0.93216 0.06266-0.06266 0.70034-0.35655
   3   0  -7 4149.62  248.26   1 0.86429-0.64275 0.39326-0.39326 0.31357-0.65742
   3   0  -6245887.6 5666.08   1 0.43142-0.20888-0.89718 0.89718 0.09445-0.38912
   3   0  -6232487.1 5260.74   1 0.18784 0.03513-0.97809 0.97809-0.08969-0.20517
  -3   0   6225109.9 5084.28   1 0.56350-0.78621 0.50004-0.50004 0.65758-0.36307
  -3   0   6240728.5 5503.42   1 0.67300-0.89550 0.01434-0.01434 0.73949-0.44482
   3   0  -6211723.8 4835.22   1 0.85090-0.62807 0.32631-0.32631 0.41167-0.70642
  -3   0   5164483.6 1904.19   1 0.28855-0.51253-0.82375 0.82375 0.48801-0.24233
   3   0  -5161934.3 1734.99   1-0.29346 0.51765-0.81899 0.81899-0.49307 0.24753
   3   0  -5159964.9 1716.66   1 0.47314-0.24894-0.85640 0.85640 0.20666-0.45233
  -3   0   5175263.7 1995.68   1 0.61579-0.83966-0.05119 0.05119 0.78624-0.54068
   3   0  -5164515.4 1867.60   1 0.81854-0.59436 0.23987-0.23987 0.52195-0.76758
  -3   0   4  885.34  119.52   1 0.26612-0.49149-0.80341 0.80341 0.53264-0.33610
   3   0  -4 1489.18  127.89   1-0.10663 0.33213-0.93066 0.93066-0.34999 0.15348
   3   0  -4 1300.36   61.74   1 0.74363-0.51816-0.23319 0.23319 0.62659-0.82287
  -3   0   4 1483.30  155.56   1 0.53062-0.75590-0.13697 0.13697 0.83646-0.64019
   3   0  -4 1271.15  120.26   1 0.75697-0.53143 0.12845-0.12845 0.64068-0.83730
  -3   0   3 1205.02  127.49   1 0.22891-0.45567-0.76633 0.76633 0.60027-0.45286
   3   0  -3 1351.34  130.00   1-0.01792 0.24475-0.96104 0.96104-0.27582 0.12843
   3   0  -3  986.24   71.09   1 0.59793-0.37130 0.43659-0.43659 0.67220-0.81946
  -3   0   3  776.74  107.41   1 0.41008-0.63667-0.24240 0.24240 0.87924-0.73204
   3   0  -3  879.47  100.11   1 0.65334-0.42671-0.00902 0.00902 0.75700-0.90434
   3   0  -2103180.4 1170.66   1-0.16677 0.39477 0.69326-0.69326-0.70111 0.60293
   3   0  -2108771.9 1270.07   1 0.31783-0.08963-0.84810 0.84810 0.42391-0.52218
  -3   0   2101977.1 1143.73   1-0.37067 0.14232-0.75085 0.75085-0.54664 0.64494
   3   0  -2111218.6 1277.18   1 0.03707 0.19109-0.97296 0.97296-0.22795 0.12970
  -3   0   2108409.5 1266.48   1 0.25167-0.47967-0.35946 0.35946 0.89858-0.80043
   3   0  -2101709.0 1175.77   1 0.50095-0.27305-0.16450 0.16450 0.84969-0.94782
   3   0  -1217598.7 2370.49   1-0.05832 0.28782 0.55026-0.55026-0.83295 0.78381
   3   0  -1198935.5 2186.58   1 0.24316-0.01362-0.78099 0.78099 0.57525-0.62438
  -3   0   1227087.8 2500.83   1-0.21276-0.01670-0.87567 0.87567-0.43350 0.48261
   3   0  -1214877.1 2401.90   1 0.07928 0.15037-0.97844 0.97844-0.19068 0.14154
  -3   0   0125983.2 1391.71   1-0.11539-0.11539 0.62834-0.62834-0.76932 0.76932
   3   0   0123564.6 1365.85   1 0.11541 0.11541 0.27356-0.27356-0.95490 0.95490
  -3   0   0132833.6 1578.12   1-0.11541-0.11541-0.92689 0.92689-0.35713 0.35713
   3   0   0119630.0 1424.09   1 0.11550 0.11550-0.98071 0.98071-0.15764 0.15764
   3   0   0120504.0 1394.31   1 0.11550 0.11550-0.44431 0.44431 0.88839-0.88839
  -3   0  -198359.90 1110.35   1 0.07702-0.30921 0.33968-0.33968-0.93738 0.88825
   3   0   198608.90 1104.62   1 0.31932-0.08724-0.13583 0.13583-0.93786 0.98688
   3   0   195282.21 1132.65   1-0.05710 0.28944-0.53343 0.53343 0.84391-0.79477
  -3   0  -2 2436.30   91.69   1 0.26761-0.50114-0.02083 0.02083-0.96330 0.86511
   3   0   2 2202.38  105.02   1 0.44991-0.21640-0.49362 0.49362-0.74425 0.84232
  -3   0  -2 2996.84  309.19   1-0.02044-0.21305-0.96036 0.96036-0.27798 0.17972
   3   0   2 2175.24  174.29   1 0.17885 0.05482-0.97895 0.97895-0.09828 0.19657
   3   0   2 2536.02  250.54   1-0.19256 0.42628-0.58966 0.58966 0.78435-0.68598
   3   0   2 2310.08  170.98   1 0.40720-0.17365 0.65040-0.65040-0.64121 0.73947
  -3   0  -333003.91  438.90   1 0.38403-0.61894-0.29605 0.29605-0.87456 0.72750
   3   0   331192.30  428.90   1 0.49362-0.25843-0.69255 0.69255-0.52602 0.67348
  -3   0  -333042.95  584.28   1-0.00015-0.23467-0.96546 0.96546-0.26051 0.11313
   3   0   330517.79  553.65   1 0.20790 0.02711-0.97561 0.97561-0.07037 0.21780
   3   0   332616.23  540.85   1 0.50819-0.27339 0.66363-0.66363-0.54892 0.69630
  -3   0  -483145.75  990.24   1 0.44019-0.67649-0.46064 0.46064-0.77073 0.57459
   3   0   481255.16 1118.54   1 0.23580 0.00055-0.97084 0.97084-0.04313 0.23971
   3   0   485085.26 1105.77   1 0.58563-0.34947 0.66488-0.66488-0.46363 0.66014
  -3   0  -5291495.8 3220.94   1 0.46640-0.70406-0.55409 0.55409-0.68952 0.44415
   3   0   5285421.0 3173.51   1 0.49072-0.25293-0.83846 0.83846-0.23699 0.48270
   3   0   5285750.2 3226.64   1 0.64531-0.40781 0.65903-0.65903-0.38631 0.63195
  -3   0  -670464.54 1687.88   1 0.47886-0.71791-0.60824 0.60824-0.63302 0.33858
   3   0   669274.35 1664.93   1 0.47968-0.24053-0.86542 0.86542-0.14467 0.43951
  -3   0  -687815.56 2361.42   1 0.00967-0.24850-0.96768 0.96768-0.25198-0.04279
   3   0   674911.67 1843.69   1 0.69183-0.45290 0.64909-0.64909-0.31628 0.61119
  -3   0  -747697.66 1845.81   1 0.48515-0.72559-0.64033 0.64033-0.59547 0.25195
  -3   0  -759676.67 1914.04   1 0.00292-0.24308-0.96618 0.96618-0.25785-0.08605
   3   0   750528.45 1531.08   1 0.72871-0.48843 0.63638-0.63638-0.25297 0.59703
  -3   0  -814524.04  529.34   1 0.48842-0.73025-0.65929 0.65929-0.57163 0.17903
   3   0   813609.29  501.23   1 0.45581-0.21394-0.89002 0.89002-0.00971 0.40260
  -3   0  -816349.82 1022.04   1-0.00698-0.23451-0.96383 0.96383-0.26641-0.12661
   3   0   815714.48  623.34   1 0.75829-0.51668 0.62202-0.62202-0.19511 0.58831
  -3   0  -9 6579.25  531.28   1 0.49009-0.73331-0.66991 0.66991-0.55768 0.11601
  -3   0  -9 7604.59 1024.89   1-0.01941-0.22341-0.96064 0.96064-0.27710-0.16506
  -3   0 -10 4208.45  352.36   1 0.49084-0.73544-0.67489 0.67489-0.55098 0.06024
  -3   0 -10 4371.64  472.72   1-0.03390-0.21025-0.95658 0.95658-0.28946-0.20182
   3   0  10 3570.02  338.33   1 0.80175-0.55769 0.59052-0.59052-0.09199 0.58331
  -3   0 -1115496.37 1642.80   1 0.49098-0.73697-0.67584 0.67584-0.54970 0.00988
  -3   0 -1118591.45 2516.73   1-0.05013-0.19535-0.95160 0.95160-0.30319-0.23722
   3   0  1115286.06 1623.38   1 0.81777-0.57238 0.57375-0.57375-0.04537 0.58582
  -3   0 -12166561.818772.92   1 0.49067-0.73806-0.67375 0.67375-0.55253-0.03635
  -3   0 -12179963.520291.69   1-0.06785-0.17897-0.94564 0.94564-0.31803-0.27151
   3   0  12157526.217762.94   1 0.83084-0.58413 0.55650-0.55650-0.00126 0.59084
  -3   0 -13  685.56  362.46   1 0.48999-0.73877-0.66925 0.66925-0.55856-0.07940
  -3   0 -13 1112.31  257.36   1-0.08686-0.16128-0.93863 0.93863-0.33380-0.30488
   3   0  13 2127.49  436.08   1 0.84143-0.59339 0.53882-0.53882 0.04075 0.59795
  -3   0 -1412249.25  968.88   1 0.48898-0.73915-0.66277 0.66277-0.56711-0.11992
  -3   0 -1413373.85 1532.42   1-0.10704-0.14245-0.93048 0.93048-0.35032-0.33748
   3   0  1412370.12  905.50   1 0.84986-0.60049 0.52074-0.52074 0.08102 0.60681
  -3   0 -1518879.35 1276.71   1 0.48764-0.73920-0.65458 0.65458-0.57768-0.15842
  -3   0 -1515808.28 1991.50   1-0.12826-0.12256-0.92113 0.92113-0.36750-0.36944
   3   0  1516213.71 1150.08   1 0.85646-0.60583 0.50213-0.50213 0.11970 0.61710
  -3   0 -1612317.30 1139.65   1 0.48597-0.73891-0.64487 0.64487-0.58989-0.19529
  -3   0 -1613817.05 1849.96   1-0.15037-0.10151-0.91057 0.91057-0.38502-0.40069
   3   0  1612156.64 1105.25   1 0.86125-0.60930 0.48322-0.48322 0.15725 0.62867
  -3   0 -1727045.96 4435.87   1 0.48394-0.73827-0.63376 0.63376-0.60343-0.23082
  -3   0 -1725302.01 3101.45   1-0.17346-0.07974-0.89852 0.89852-0.40320-0.43162
   3   0  1726760.78 4383.97   1 0.86445-0.61118 0.46387-0.46387 0.19374 0.64130
  -3   0 -18  134.76  332.96   1 0.48154-0.73726-0.62135 0.62135-0.61809-0.26524
  -3   0 -18   51.31  199.81   1-0.19741-0.05711-0.88495 0.88495-0.42176-0.46216
   3   0  18  715.00  330.78   1 0.86614-0.61155 0.44406-0.44406 0.22934 0.65483
   3   1 -18 9579.42 1280.78   1 0.49800-0.29174-0.73969 0.85329-0.45258-0.43216
  -3  -1  1813512.24 1631.64   1 0.74315-0.94906 0.10768-0.22118 0.66039 0.22438
  -3   1  18 8795.47 1092.53   1 0.76174-0.96765 0.13586-0.02236 0.63347 0.25129
  -3   1  17 5080.50  619.48   1 0.76901-0.97632 0.14744-0.03394 0.62199 0.21362
  -3  -1  17 3778.43  871.51   1 0.74868-0.95600 0.11587-0.22936 0.65271 0.18290
   3   1 -16 1484.86  655.53   1 0.49880-0.28979-0.76512 0.87872-0.40715-0.37929
   3  -1 -16 1986.12  525.45   1 0.48399-0.27485-0.85706 0.74350-0.17660-0.60963
  -3  -1  16 1405.26  380.25   1 0.75296-0.96168 0.12231-0.23581 0.64659 0.13987
  -3   1  16 1042.91  274.89   1 0.77499-0.98370 0.15723-0.04373 0.61209 0.17436
   3   1 -15 2970.27  696.13   1 0.49869-0.28831-0.77668 0.89028-0.38477-0.35251
   3  -1 -15  595.55  530.34   1 0.47858-0.26808-0.86727 0.75371-0.13706-0.60003
   3  -1 -15  528.54  178.11   1 0.00313 0.20770-0.96622 0.85273-0.25766-0.47928
  -3  -1  15 1039.81  332.54   1 0.75591-0.96603 0.12681-0.24031 0.64227 0.09504
  -3   1  15  930.29  321.28   1 0.77963-0.98974 0.16500-0.05151 0.60410 0.13320
   3   1 -14 6564.54  800.47   1 0.49829-0.28652-0.78750 0.90110-0.36268-0.32545
   3  -1 -14 4888.65  596.39   1 0.47213-0.26026-0.87629 0.76273-0.09593-0.59203
   3  -1 -14 5459.04  497.26   1 0.06266 0.14961-0.97661 0.86308-0.20563-0.48238
  -3  -1  14 4254.05  449.09   1 0.75740-0.96892 0.12911-0.24261 0.64004 0.04811
  -3   1  14 4914.11  443.75   1 0.78281-0.99433 0.17045-0.05695 0.59845 0.08970
   3   1 -1336610.80 1745.31   1 0.49760-0.28446-0.79758 0.91118-0.34095-0.29804
   3  -1 -1329933.58 1475.31   1 0.46449-0.25126-0.88399 0.77043-0.05290-0.58591
   3  -1 -1335175.15 1528.42   1 0.12457 0.08903-0.98091 0.86738-0.14927-0.48960
  -3  -1  1331826.49 1322.78   1 0.52870-0.74228 0.55665-0.67008 0.64078-0.00266
  -3  -1  1334643.14 1547.40   1 0.75725-0.97018 0.12888-0.24238 0.64027-0.00126
  -3   1  1337227.10 1620.78   1 0.78435-0.99728 0.17311-0.05961 0.59566 0.04333
   3   1 -1216599.84 1078.29   1 0.49666-0.28214-0.80693 0.92053-0.31964-0.27019
   3  -1 -1225004.90 1406.77   1 0.45537-0.24111-0.89026 0.77680-0.00758-0.58175
   3  -1 -1232865.67 1689.81   1 0.19026 0.02468-0.97783 0.86430-0.08737-0.50236
  -3  -1  1227386.11 1366.51   1 0.68787-0.90344-0.53153 0.41798 0.49427 0.09522
  -3  -1  1231107.85 1547.95   1 0.53766-0.75254 0.54270-0.65613 0.64528-0.05624
  -3  -1  1232266.03 1714.60   1 0.75517-0.96949 0.12568-0.23917 0.64336-0.05351
  -3   1  1218271.61  989.10   1 0.78391-0.99824 0.17235-0.05885 0.59646-0.00661
   3   1 -1163441.17 2296.62   1 0.49559-0.27963-0.81558 0.92914-0.29867-0.24186
   3  -1 -1162390.05 2192.47   1 0.44474-0.22910-0.89474 0.78127 0.04038-0.58061
   3  -1 -1159980.37 1983.06   1 0.26152-0.04534-0.96502 0.85161-0.01816-0.52220
  -3  -1  1157605.74 1852.28   1 0.68177-0.89862-0.54862 0.43507 0.48394 0.05643
  -3   1  1152229.15 1706.05   1 0.74445-0.96085-0.13945 0.25286 0.65294-0.11319
  -3  -1  1151896.31 1666.60   1 0.55930-0.77549 0.50723-0.62066 0.65565-0.11571
  -3  -1  1162016.23 2110.14   1 0.75074-0.96646 0.11895-0.23245 0.64979-0.10910
  -3   1  1166964.21 2219.78   1 0.78095-0.99668 0.16726-0.05376 0.60177-0.06107
   3   1 -10106594.4 3562.65   1 0.49423-0.27691-0.82347 0.93703-0.27860-0.21280
   3  -1 -10108864.3 3593.57   1 0.43216-0.21514-0.89713 0.78366 0.09162-0.58274
   3  -1 -10100479.7 3225.49   1 0.33767-0.12015-0.93937 0.82596 0.05951-0.55075
  -3  -1  10101164.8 3203.99   1 0.68034-0.89846-0.55248 0.43893 0.48156 0.00969
  -3   1  1093299.94 2985.60   1 0.74312-0.96109-0.10391 0.21728 0.66103-0.17055
  -3  -1  10110050.7 3575.16   1 0.74335-0.96048 0.10797-0.22146 0.66012-0.16858
  -3   1  10108870.7 3511.90   1 0.77455-0.99168 0.15650-0.04300 0.61284-0.12130
   3   1  -9  779.90  547.68   1 0.49273-0.27404-0.83061 0.94417-0.25941-0.18285
   3  -1  -9 1135.88  468.70   1 0.41716-0.19876-0.89689 0.78342 0.14684-0.58884
   3  -1  -9  948.39  141.05   1 0.42155-0.20266-0.89457 0.78109 0.14840-0.59061
  -3  -1   9  820.14   76.31   1 0.68922-0.90862-0.52759 0.41404 0.49660-0.05447
  -3   1   9  551.05  204.62   1 0.73942-0.95864-0.05486 0.16822 0.67100-0.22956
  -3  -1   9   55.76   47.39   1 0.66154-0.88046 0.28920-0.40253 0.69189-0.25048
  -3  -1   9 1000.54  233.83   1 0.73213-0.95066 0.09180-0.20529 0.67494-0.23255
  -3   1   9  234.58  225.40   1 0.76315-0.98168 0.13808-0.02458 0.63129-0.18890
   3  -1  -9  805.34  119.29   1 0.82323-0.60432 0.56701-0.68046-0.02774-0.41444
   3   1  -845301.74 1423.87   1 0.49113-0.27108-0.83696 0.95052-0.24140-0.15172
   3  -1  -851248.53 1579.38   1 0.39939-0.17951-0.89315 0.77968 0.20676-0.59988
   3  -1  -844635.80 1261.44   1 0.50870-0.28849-0.82432 0.71084 0.24839-0.64146
  -3   1   847437.91 1336.58   1 0.73136-0.95183 0.01232 0.10103 0.68187-0.28948
  -3  -1   851258.85 1505.00   1 0.71581-0.93575 0.06925-0.18274 0.69484-0.30161
  -3   1   849616.51 1412.75   1 0.74403-0.96397 0.10897 0.00451 0.65919-0.26595
   3  -1  -843538.57 1239.43   1 0.84161-0.62138 0.53847-0.65191 0.04155-0.43461
   3   1  -7 4846.19  410.04   1 0.48953-0.26811-0.84245 0.95601-0.22500-0.11897
   3  -1  -7 9714.81  527.97   1 0.37739-0.15613-0.88495 0.77147 0.27282-0.61680
   3  -1  -7 9032.60  402.15   1 0.59731-0.37559-0.71693 0.60339 0.35947-0.70345
  -3   1   7 5259.70  269.29   1 0.71571-0.93743 0.09971 0.01364 0.69123-0.34789
  -3   1   7 5626.97  297.92   1 0.71232-0.93366 0.06455 0.04893 0.69887-0.35479
   3  -1  -7 9142.41  405.90   1 0.85732-0.63578 0.49920-0.61265 0.12565-0.46950
   3   1  -6228901.7 5303.73   1 0.48804-0.26526-0.84695 0.96051-0.21089-0.08394
  -3  -1   6259231.5 5936.44   1 0.39823-0.62088-0.89282 0.77934 0.21043 0.08440
   3  -1  -6289994.3 7909.19   1 0.35019-0.12754-0.87038 0.75691 0.34611-0.64095
   3  -1  -6273938.6 7417.83   1 0.67652-0.45329-0.56251 0.44897 0.47527-0.77002
  -3   1   6222243.2 5054.79   1 0.68875-0.91148 0.20723-0.09391 0.69474-0.40047
  -3   1   6236902.4 5392.33   1 0.65940-0.88189-0.00192 0.11532 0.75178-0.45711
  -3  -1   6262037.2 6003.39   1 0.66011-0.88260-0.00108-0.11231 0.75116-0.45649
   3  -1  -6252914.9 5746.96   1 0.86619-0.64332 0.44314-0.55659 0.23094-0.52567
   3  -1  -591526.03 1121.28   1-0.15908 0.38290 0.68391-0.79731-0.71200 0.46655
   3   1  -5103873.8 1355.44   1 0.48684-0.26269-0.85024 0.96380-0.20016-0.04553
  -3  -1   599355.39 1234.26   1 0.40037-0.62441-0.89343 0.77996 0.20364 0.04205
   3  -1  -5100145.4 1314.56   1 0.31601-0.09198-0.84672 0.73325 0.42800-0.67370
   3  -1  -594120.67 1109.61   1 0.73131-0.50714-0.35626 0.24285 0.58159-0.82693
  -3   1   5102442.1 1178.75   1 0.64580-0.86980 0.33007-0.21674 0.68846-0.44323
  -3   1   5106287.4 1224.33   1 0.56929-0.79316-0.09967 0.21307 0.81606-0.57050
   3   1  -5101451.5 1229.40   1 0.79840-0.57426 0.19841-0.08492 0.56848-0.81425
   3  -1  -592865.69 1069.65   1 0.85864-0.63446 0.35767-0.47112 0.36715-0.61277
  -3  -1   421286.83  377.91   1 0.40036-0.62578-0.89343 0.77996 0.20367-0.00711
   3  -1  -3158950.1 1814.51   1-0.06602 0.29276 0.56121-0.67461-0.82503 0.67762
   3   1  -3150619.3 1764.13   1 0.48664-0.25977-0.85076 0.96432-0.19844 0.05102
  -3  -1   3169478.7 1912.21   1 0.39668-0.62349-0.89235 0.77887 0.21529-0.06787
   3  -1  -3150120.9 1742.98   1 0.21652 0.01023-0.75314 0.63963 0.62119-0.76860
  -3  -1   3153734.0 1683.90   1 0.30094-0.52782-0.95339 0.83998 0.02159 0.12578
   3   1  -3148488.5 1619.30   1 0.73641-0.50965-0.31942 0.43282 0.59637-0.74358
   3  -1  -3159673.9 1798.41   1 0.70751-0.48080 0.13588-0.24924 0.69351-0.84065
  -3   1   3156336.0 1744.42   1 0.51221-0.73883 0.58131-0.46788 0.63222-0.48497
  -3   1   3162728.6 1798.58   1 0.19478-0.42147-0.39653 0.50989 0.89711-0.74990
  -3  -1   3162465.1 1869.83   1 0.46777-0.69436-0.19400 0.08064 0.86229-0.71508
   3  -1  -3159852.8 1756.94   1 0.67749-0.45086 0.01982-0.13322 0.73525-0.88259
   3   1  -3150302.1 1735.64   1 0.66853-0.44190 0.00894 0.10444 0.74362-0.89095
   3   1  -2114957.3 1350.22   1 0.48898-0.26074-0.84419 0.95775-0.21962 0.12134
  -3  -1   2121378.7 1377.05   1 0.38557-0.61376-0.88842 0.77494 0.24907-0.15079
   3  -1  -2108232.1 1234.24   1-0.43022 0.65857-0.68773 0.57415-0.58474 0.48643
  -3  -1   2114202.5 1286.99   1 0.32619-0.55441-0.94410 0.83069 0.04757 0.05067
   3   1  -2114812.7 1290.22   1 0.65752-0.42926-0.60791 0.72145 0.44508-0.54335
   3  -1  -2112967.8 1306.81   1 0.63526-0.40745 0.35545-0.46878 0.68563-0.78372
  -3   1   2119125.0 1333.86   1-0.07094-0.15741-0.53970 0.65326 0.83885-0.74058
   3  -1  -2114846.7 1281.36   1 0.42601-0.19810-0.22938 0.11601 0.87515-0.97328
   3   1  -2115486.3 1356.29   1 0.56653-0.33853-0.10244 0.21583 0.81764-0.91586
  -3   1   1110525.1 1304.99   1-0.05631-0.17319 0.54738-0.43398-0.83498 0.88411
   3  -1  -1112709.5 1291.14   1-0.34757 0.57726-0.77270 0.65912-0.53115 0.48199
  -3  -1   1115891.6 1326.52   1 0.32860-0.55816-0.94313 0.82972 0.05007-0.00094
   3  -1  -1117756.5 1339.07   1 0.11997 0.10971-0.44173 0.32818 0.88908-0.93822
   3   1  -1104997.1 1242.37   1 0.44140-0.21218-0.21656 0.32992 0.87078-0.91985
  -3   1   040362.00  558.89   1 0.04750-0.27838 0.38844-0.27504-0.92024 0.92024
   3  -1   043036.56  566.51   1 0.20032 0.03043 0.11617-0.22957-0.97281 0.97281
   3   1   036944.24  435.57   1 0.49638-0.26533-0.71786 0.83146-0.48813 0.48813
  -3  -1   041330.22  467.40   1 0.23783-0.46877-0.77557 0.66207 0.58473-0.58473
  -3  -1   042516.92  580.85   1 0.32134-0.55224-0.94600 0.83259 0.04255-0.04255
   3  -1   042327.05  539.03   1-0.13570 0.36665-0.56783 0.45433 0.81187-0.81187
   3   1   037850.13  564.39   1 0.30255-0.07195-0.32420 0.43757 0.89629-0.89629
   3  -1   043529.89  568.91   1 0.46749-0.23666 0.65952-0.77298-0.58862 0.58862
   3  -1   1244969.3 2707.32   1 0.30208-0.07001-0.09650-0.01686-0.94838 0.99740
  -3  -1  -1240435.0 2706.45   1 0.30892-0.54116-0.95062 0.83721 0.02976-0.07888
  -3   1  -2213426.3 2383.89   1 0.25000-0.48353 0.01625 0.09713-0.96810 0.86992
  -3  -1  -2225117.9 2543.65   1-0.20427-0.02945-0.59386 0.48036 0.77819-0.87657
  -3   1  -2196537.6 2188.43   1 0.41791-0.65147 0.65229-0.53883-0.63233 0.53407
   3   1   3217633.8 2495.47   1 0.47412-0.23927-0.85558 0.96907 0.20779-0.06039
  -3   1  -3241171.1 2675.98   1 0.48647-0.72139 0.66157-0.54810-0.57066 0.42328
   3  -1   4123497.8 1463.22   1 0.47647-0.24020-0.59706 0.48365-0.64535 0.84164
  -3  -1  -4128461.1 1447.99   1 0.49831-0.73487-0.74580 0.63220-0.44211 0.24550
   3   1   4137907.7 1548.56   1 0.34526-0.10875-0.86730 0.98077 0.35856-0.16200
  -3   1  -4130116.3 1612.97   1-0.25125 0.01519-0.85033 0.96386-0.46238 0.26595
   3  -1   4129632.6 1558.07   1 0.73406-0.49780 0.63410-0.74759-0.24304 0.43964
  -3   1  -541448.79 1612.99   1 0.41074-0.64842-0.36996 0.48334-0.83331 0.58814
   3  -1   542043.82 1631.83   1 0.49276-0.25511-0.68884 0.57543-0.53167 0.77704
  -3  -1  -543163.28 1647.13   1 0.49874-0.73669-0.77443 0.66083-0.38923 0.14347
   3   1   540736.05 1562.17   1 0.36018-0.12228-0.87622 0.98969 0.32014-0.07444
  -3   1  -539240.31 1563.47   1-0.22736-0.01001-0.86641 0.97994-0.44455 0.19902
  -3  -1  -541550.28 1647.02   1 0.23558-0.47327-0.97088 0.85735-0.04335-0.20237
   3   1   535350.05 1373.77   1-0.22950 0.46740-0.60258 0.71608 0.76433-0.51840
   3  -1   543483.43 1696.70   1 0.76224-0.52464 0.61975-0.73325-0.18677 0.43253
  -3   1  -6 3801.54  248.05   1 0.43338-0.67246-0.43857 0.55195-0.78729 0.49308
   3  -1   6 1641.79  179.59   1 0.49860-0.25927-0.75355 0.63995-0.42842 0.72334
  -3  -1  -6 2228.01  222.64   1 0.49843-0.73775-0.78462 0.67102-0.36868 0.07377
   3   1   6 3707.21  224.62   1 0.36447-0.12518-0.87856 0.99203 0.30868-0.01384
  -3   1  -6 4564.43  797.90   1-0.21133-0.02736-0.87655 0.99008-0.43242 0.13777
  -3  -1  -6 1867.25  301.61   1 0.21405-0.45308-0.97469 0.86116-0.06440-0.23046
   3  -1   6 1301.94  242.93   1 0.78434-0.54557 0.60512-0.71856-0.13650 0.43129
   3   1   6 4724.54  308.40   1 0.58519-0.34634 0.66490-0.55144-0.46415 0.75891
  -3   1  -799047.04 2352.73   1 0.44809-0.68856-0.48731 0.60069-0.74948 0.40625
  -3  -1  -786361.85 2042.52   1 0.49832-0.73902-0.78699 0.67339-0.36375 0.01968
   3   1   784775.53 2019.71   1 0.36399-0.12332-0.87831 0.99178 0.30996 0.03401
  -3   1  -791128.76 2243.66   1-0.20167-0.03834-0.88242 0.99595-0.42503 0.08128
  -3  -1  -792317.17 2273.60   1 0.19169-0.43206-0.97767 0.86414-0.08600-0.25801
   3  -1   787968.10 2130.45   1 0.80217-0.56207 0.59013-0.70357-0.09086 0.43479
   3   1   7100455.5 2407.47   1 0.64172-0.40152 0.65959-0.54612-0.39131 0.73520
  -3   1  -8180056.2 4957.68   1 0.45795-0.69978-0.52154 0.63495-0.71990 0.32731
  -3  -1  -8214457.913985.13   1 0.49840-0.74048-0.78517 0.67157-0.36753-0.02568
   3   1   8146086.3 4021.59   1 0.36089-0.11882-0.87661 0.99009 0.31827 0.07484
  -3   1  -8159137.9 4494.64   1-0.19719-0.04414-0.88508 0.99861-0.42159 0.02874
  -3  -1  -8219518.414345.05   1 0.16862-0.41032-0.97974 0.86621-0.10801-0.28514
   3  -1   8207667.813554.10   1 0.81671-0.57530 0.57498-0.68842-0.04865 0.44170
   3   1   8185924.4 5127.93   1 0.68763-0.44602 0.65025-0.53675-0.32300 0.71621
  -3   1  -925523.74 1746.12   1 0.46418-0.70740-0.54528 0.65869-0.69799 0.25632
  -3  -1  -917633.62 1216.88   1 0.49858-0.74204-0.78072 0.66712-0.37667-0.06570
  -3   1  -926077.30 1797.00   1-0.19696-0.04568-0.88521 0.99874-0.42142-0.02054
  -3  -1  -920118.60 1429.70   1 0.14489-0.38794-0.98082 0.86728-0.13035-0.31194
   3  -1   919059.38 1342.91   1 0.82867-0.58593 0.55964-0.67309-0.00906 0.45124
   3   1   928995.05 1996.12   1 0.72515-0.48220 0.63783-0.52433-0.25946 0.70182
  -3   1 -1044259.59 1551.19   1 0.46817-0.71278-0.56125 0.67466-0.68250 0.19175
  -3  -1 -1030287.66 1128.97   1 0.49874-0.74358-0.77438 0.66078-0.38932-0.10220
  -3   1 -1044497.39 1641.69   1-0.20027-0.04370-0.88325 0.99678-0.42396-0.06710
  -3  -1 -1032265.56 1232.54   1 0.12057-0.36496-0.98084 0.86731-0.15296-0.33848
   3  -1  1030427.22 1133.49   1 0.83852-0.59445 0.54412-0.65756 0.02846 0.46285
   3   1  1046958.95 1666.80   1 0.75590-0.51161 0.62336-0.50986-0.20007 0.69158
  -3   1 -1154810.51 1893.01   1 0.47060-0.71660-0.57135 0.68476-0.67236 0.13255
  -3  -1 -1158466.75 2023.21   1 0.49880-0.74501-0.76657 0.65297-0.40441-0.13626
  -3   1 -1156414.94 2026.22   1-0.20654-0.03875-0.87948 0.99301-0.42876-0.11141
  -3  -1 -1154939.90 1984.01   1 0.09569-0.34141-0.97976 0.86623-0.17579-0.36479
   3  -1  1155159.82 1909.22   1 0.84657-0.60118 0.52836-0.64180 0.06435 0.47609
   3   1  1157713.69 2010.78   1 0.78117-0.53554 0.60739-0.49389-0.14436 0.68502
  -3   1 -12 2439.96  322.02   1 0.47191-0.71930-0.57691 0.69032-0.66667 0.07778
  -3  -1 -12 1615.06  295.91   1 0.49870-0.74629-0.75751 0.64392-0.42126-0.16857
  -3   1 -12 3092.81  465.92   1-0.21533-0.03127-0.87407 0.98760-0.43546-0.15382
  -3  -1 -12 3292.25  464.88   1 0.07028-0.31734-0.97751 0.86398-0.19880-0.39093
   3  -1  12 2544.28  336.93   1 0.85315-0.60649 0.51221-0.62566 0.09882 0.49062
   3   1  12 2260.83  351.29   1 0.80182-0.55511 0.59046-0.47702-0.09181 0.68139
  -3   1 -1323370.82 1451.57   1 0.47237-0.72114-0.57885 0.69226-0.66467 0.02670
  -3  -1 -1322331.12 1378.37   1 0.49837-0.74734-0.74735 0.63375-0.43941-0.19957
  -3   1 -1322873.52 1769.29   1-0.22629-0.02163-0.86710 0.98063-0.44375-0.19464
  -3  -1 -1325601.53 1928.14   1 0.04415-0.29231-0.97411 0.86061-0.22168-0.41699
   3   1  1322158.99 1412.16   1 0.81881-0.57078 0.57250-0.45906-0.04207 0.68078
  -3   1 -14 3514.93  549.39   1 0.47213-0.72229-0.57784 0.69125-0.66572-0.02131
  -3  -1 -14 5531.86  674.96   1 0.49779-0.74814-0.73615 0.62255-0.45855-0.22958
  -3   1 -14 5394.17  906.59   1-0.23915-0.01009-0.85862 0.97215-0.45339-0.23411
  -3  -1 -14 5228.71  743.59   1 0.01770-0.26719-0.96936 0.85586-0.24498-0.44283
   3  -1  14 4512.02  590.59   1 0.86205-0.61274 0.47922-0.59268 0.16494 0.52275
   3   1  14 4025.27  617.86   1 0.83261-0.58325 0.55382-0.44038 0.00529 0.68255
  -3   1 -1530287.71 2089.53   1 0.47131-0.72286-0.57433 0.68774-0.66932-0.06678
  -3  -1 -1528307.59 1971.06   1 0.49691-0.74864-0.72396 0.61036-0.47848-0.25881
  -3   1 -1531711.07 2797.15   1-0.25368 0.00311-0.84863 0.96216-0.46417-0.27243
  -3  -1 -1524896.80 2751.39   1-0.00926-0.24155-0.96326 0.84976-0.26838-0.46855
   3  -1  1528818.63 2016.65   1 0.86465-0.61402 0.46220-0.57565 0.19682 0.53999
   3   1  1529688.85 2053.58   1 0.84364-0.59296 0.53450-0.42106 0.05060 0.68636
  -3   1 -1624591.32 1708.26   1 0.46997-0.72291-0.56868 0.68210-0.67506-0.11012
  -3  -1 -1622252.32 1526.91   1 0.49570-0.74880-0.71081 0.59721-0.49901-0.28743
  -3   1 -1622869.50 2024.44   1-0.26970 0.01781-0.83710 0.95063-0.47592-0.30978
  -3  -1 -1624393.44 1908.92   1-0.03675-0.21540-0.95574 0.84224-0.29188-0.49418
   3  -1  1624492.33 1721.49   1 0.86611-0.61416 0.44477-0.55822 0.22809 0.55784
   3   1  1622037.25 1511.36   1 0.85232-0.60038 0.51448-0.40102 0.09403 0.69189
  -3   1 -17 1957.59  617.80   1 0.46814-0.72248-0.56114 0.67455-0.68261-0.15165
  -3  -1 -17 3803.64  912.36   1 0.49413-0.74861-0.69669 0.58309-0.52004-0.31555
  -3   1 -17 2718.85  703.58   1-0.28709 0.03388-0.82397 0.93750-0.48850-0.34631
  -3  -1 -17 2976.23  846.86   1-0.06477-0.18871-0.94672 0.83322-0.31546-0.51973
   3  -1  17 3558.75  817.61   1 0.86645-0.61318 0.42690-0.54035 0.25884 0.57620
   3   1  17 1373.11  357.22   1 0.85874-0.60546 0.49401-0.38056 0.13607 0.69898
   3   2 -17 7238.69  762.20   1 0.49220-0.28513-0.68460 0.91143-0.53762-0.29663
   3  -2 -17 6150.00  673.64   1 0.47587-0.26809-0.87140 0.64428-0.11913-0.71625
  -3  -2  17 9096.89  853.05   1 0.72897-0.93628 0.08735-0.31434 0.67894 0.15667
   3   2 -1625672.26 1806.39   1 0.49387-0.28486-0.69451 0.92171-0.52319-0.26324
   3  -2 -1617737.89 1393.08   1 0.46850-0.25935-0.88028 0.65316-0.07483-0.71141
  -3  -2  1619177.62 1407.25   1 0.73237-0.94108 0.09214-0.31913 0.67463 0.11182
  -3   2  1626201.80 1739.43   1 0.77371-0.98243 0.15512 0.07186 0.61424 0.17222
   3   2 -1522363.51 1645.03   1 0.49498-0.28459-0.70395 0.93115-0.50935-0.22794
   3  -2 -1527273.50 1853.74   1 0.20326 0.00767-0.97625 0.74919-0.07486-0.66230
  -3  -2  1526268.43 1829.72   1 0.73437-0.94449 0.09498-0.32198 0.67206 0.06524
  -3   2  1520238.13 1403.49   1 0.77909-0.98921 0.16410 0.06288 0.60503 0.13227
   3   2 -1449943.52 2873.84   1 0.49585-0.28409-0.71230 0.93949-0.49674-0.19140
   3  -2 -1445269.92 2466.66   1 0.26555-0.05338-0.96399 0.73717-0.01414-0.67359
  -3  -2  1449560.36 2744.55   1 0.73484-0.94636 0.09566-0.32265 0.67145 0.01670
  -3   2  1454088.72 2921.70   1 0.78284-0.99436 0.17049 0.05650 0.59840 0.08974
   3   2 -1317594.89 1453.74   1 0.49653-0.28338-0.71946 0.94666-0.48561-0.15337
   3  -2 -1316326.46 1285.79   1 0.43774-0.22486-0.89640 0.66947 0.06953-0.70798
   3  -2 -1315023.67 1104.69   1 0.32800-0.11449-0.94338 0.71656 0.04944-0.68806
  -3  -2  1314639.54 1029.38   1 0.69431-0.90816 0.18804-0.41469 0.69466-0.05707
  -3  -2  1317015.61 1293.89   1 0.73359-0.94651 0.09386-0.32085 0.67307-0.03407
  -3   2  1319073.42 1384.96   1 0.78468-0.99761 0.17368 0.05330 0.59506 0.04394
   3   2 -12 1869.80  454.95   1 0.49702-0.28250-0.72532 0.95252-0.47630-0.11353
   3  -2 -12 2144.56  416.33   1 0.42399-0.20973-0.89736 0.67042 0.12237-0.71171
   3  -2 -12 2536.92  385.38   1 0.39106-0.17622-0.91298 0.68616 0.11628-0.70577
  -3  -2  12 2098.51  266.95   1 0.70325-0.91837 0.15477-0.38142 0.69388-0.10533
  -3  -2  12 2303.51  401.26   1 0.73032-0.94464 0.08924-0.31623 0.67724-0.08740
  -3   2  12 2051.70  280.97   1 0.78418-0.99851 0.17281 0.05417 0.59597-0.00612
   3   2 -1124553.41 1446.72   1 0.49736-0.28146-0.72970 0.95690-0.46920-0.07147
   3  -2 -1120210.38 1217.58   1 0.40797-0.19233-0.89543 0.66850 0.17817-0.71840
   3  -2 -1118023.89  964.24   1 0.45567-0.23945-0.87035 0.64337 0.18666-0.72713
  -3  -2  1116069.78  813.65   1 0.43489-0.65111-0.88556 0.65859 0.16323 0.37724
  -3  -2  1117677.07  896.35   1 0.71497-0.93169 0.10319-0.32992 0.69149-0.15196
  -3  -2  1120160.80 1162.36   1 0.72465-0.94038 0.08132-0.30832 0.68429-0.14360
  -3   2  1125088.07 1290.43   1 0.78052-0.99625 0.16652 0.06046 0.60253-0.06184
   3  -2 -1116772.54  877.18   1 0.65213-0.43622 0.65789-0.88482-0.37668-0.16370
   3   2 -1067542.10 2343.79   1 0.49754-0.28027-0.73235 0.95955-0.46486-0.02666
   3  -2 -1073675.21 2504.63   1 0.38958-0.17248-0.88995 0.66300 0.23707-0.72847
  -3  -2  1061372.36 1963.31   1 0.34364-0.56116-0.93679 0.70997 0.06576 0.42547
   3  -2 -1063535.76 2091.87   1 0.51805-0.30050-0.81499 0.58802 0.25961-0.75095
  -3  -2  1064895.89 2074.97   1 0.72841-0.94638 0.03163-0.25835 0.68440-0.19392
  -3  -2  1069884.32 2356.15   1 0.71605-0.93318 0.06957-0.29656 0.69457-0.20303
  -3   2  1071685.65 2328.00   1 0.77220-0.98933 0.15263 0.07435 0.61676-0.12522
   3  -2 -1065390.78 2120.30   1 0.66808-0.45056 0.65495-0.88195-0.35312-0.13838
   3   2  -961115.49 2222.98   1 0.49758-0.27892-0.73287 0.96006-0.46401 0.02163
   3  -2  -975760.19 2676.76   1 0.36766-0.14917-0.88023 0.65329 0.30000-0.74226
  -3  -2   964128.18 2173.79   1 0.22473-0.44359-0.97289 0.74607-0.05446 0.49658
   3  -2  -968652.25 2385.63   1 0.57860-0.35950-0.74371 0.51663 0.33481-0.77707
  -3  -2   966128.07 2238.68   1 0.73988-0.95910-0.05985-0.16686 0.67006-0.22862
  -3   2   954024.62 1877.59   1 0.72962-0.94884 0.02392 0.20280 0.68342-0.24199
  -3  -2   973393.39 2580.02   1 0.70395-0.92231 0.05329-0.28009 0.70824-0.26623
  -3   2   968313.21 2338.58   1 0.75635-0.97488 0.12749 0.09949 0.64161-0.19923
   3  -2  -965624.85 2239.41   1 0.68338-0.46453 0.65136-0.87836-0.32970-0.11265
   3   2  -888695.50 3129.84   1 0.49743-0.27739-0.73067 0.95786-0.46763 0.07440
   3  -2  -872489.97 2559.04   1 0.34185-0.12197-0.86510 0.63815 0.36706-0.76018
  -3  -2   873532.40 2486.59   1 0.06409-0.28439-0.97679 0.74972-0.20435 0.59751
   3  -2  -879910.97 2748.69   1 0.63397-0.41356-0.65559 0.42851 0.41021-0.80332
  -3  -2   880011.41 2701.12   1 0.74492-0.96521-0.16465-0.06216 0.64650-0.25395
  -3   2   869688.57 2390.83   1 0.72169-0.94216 0.07002 0.15669 0.68866-0.29627
  -3   2   897935.21 3314.83   1 0.72698-0.94692 0.08457 0.14242 0.68142-0.28819
  -3  -2   886852.71 3016.41   1 0.68706-0.90680 0.03168-0.25848 0.72590-0.33301
   3  -2  -879752.18 2701.67   1 0.69765-0.47745 0.64740-0.87440-0.30684-0.08636
   3   2  -766438.89 1962.15   1 0.49698-0.27557-0.72483 0.95203-0.47709 0.13302
   3  -2  -774089.86 2157.41   1 0.31133-0.09007-0.84308 0.61614 0.43848-0.78246
  -3  -2   766091.99 1808.02   1-0.13875-0.08274-0.91620 0.68921-0.37591 0.71982
   3  -2  -770502.25 1991.62   1 0.68171-0.45976-0.54876 0.32167 0.48385-0.82773
  -3  -2   771713.94 1966.46   1 0.74051-0.96210-0.27996 0.05314 0.61094-0.26746
  -3   2   760347.32 1704.24   1 0.70976-0.93148 0.12638 0.10034 0.69300-0.34966
  -3   2   765629.90 1805.73   1 0.67078-0.89189 0.01165 0.21514 0.74156-0.39778
   3   2  -651336.62 1526.40   1 0.49601-0.27322-0.71385 0.94105-0.49435 0.19943
   3  -2  -656933.76 1446.23   1 0.27545-0.05286-0.81207 0.58506 0.51444-0.80926
  -3  -2   652177.63 1431.35   1-0.35948 0.13649-0.76160 0.53445-0.53918 0.83410
   3  -2  -654912.48 1358.82   1 0.71804-0.49481-0.42455 0.19746 0.55151-0.84626
  -3  -2   657606.66 1342.81   1 0.72490-0.94813-0.39114 0.16404 0.56702-0.27227
  -3   2   646912.01 1804.53   1 0.69296-0.91569 0.19280 0.03385 0.69471-0.40043
  -3   2   650266.52 1892.27   1 0.55257-0.77507-0.11624 0.34304 0.82531-0.53064
   3  -2  -655327.12 1279.06   1 0.72178-0.49890 0.63915-0.86615-0.26552-0.02937
  -3   2   435231.54 1381.19   1-0.18367-0.04153 0.71335-0.48656-0.67630 0.87265
   3   2  -437231.80 1521.25   1 0.48925-0.26410-0.66444 0.89127-0.56492 0.36862
  -3  -2   441964.23 1619.34   1 0.47398-0.69949-0.87398 0.64686-0.10720 0.30376
  -3  -2   444556.24 1694.68   1 0.67199-0.89777-0.57397 0.34687 0.46794-0.27144
   3  -2  -444215.37 1711.52   1 0.74435-0.51888-0.13619-0.09062 0.65375-0.85002
   3   2  -431587.50 1206.84   1 0.68008-0.45481 0.23526-0.00860 0.69436-0.89054
  -3   2   434811.34 1353.15   1 0.63763-0.86290 0.34987-0.12322 0.68630-0.49011
   3  -2  -338095.49 1515.10   1 0.05326 0.17347 0.37903-0.60584-0.92384 0.77644
   3   2  -330952.11 1215.19   1 0.47976-0.25322-0.61256 0.83938-0.62815 0.48093
  -3  -2   338799.68 1498.83   1 0.48203-0.70891-0.86112 0.63400-0.16158 0.30900
  -3  -2   339873.08 1525.30   1 0.64081-0.86776-0.64253 0.41546 0.42012-0.27270
   3  -2  -342038.46 1642.60   1 0.73113-0.50442 0.01394-0.24066 0.68209-0.82924
   3   2  -330433.50 1172.48   1 0.73594-0.50923-0.02227 0.24900 0.67667-0.82381
  -3   2   329794.09 1166.59   1 0.59836-0.82499 0.43574-0.20888 0.67237-0.52511
  -3  -2   337277.32 1459.14   1 0.47347-0.70006-0.18902-0.03770 0.86028-0.71308
   3   2  -331394.61 1229.65   1 0.69654-0.46991 0.04370 0.18308 0.71617-0.86351
   3   2  -2404792.0 4409.57   1 0.45820-0.23027-0.52243 0.74925-0.71910 0.62095
  -3  -2   2361282.5 3938.59   1 0.48996-0.71820-0.84106 0.61394-0.22921 0.32749
  -3  -2   2385812.2 4207.28   1 0.60873-0.83700-0.69920 0.47212 0.37490-0.27662
   3   2  -2389545.1 4237.86   1 0.74392-0.51586-0.22670 0.45351 0.62863-0.72677
   3  -2  -2380358.0 4192.75   1 0.70270-0.47489 0.15691-0.38357 0.69395-0.79205
  -3   2   2403873.7 4413.18   1 0.55116-0.77910 0.52088-0.29402 0.65184-0.55366
   3  -2  -2393595.6 4203.29   1 0.32956-0.10156-0.30464 0.07791 0.89363-0.99177
  -3  -2   2392813.0 4345.83   1 0.38990-0.61781-0.25853 0.03180 0.88381-0.78568
   3  -2  -2386656.5 4129.41   1 0.79362-0.56540 0.59767-0.82467-0.11374 0.01544
   3  -2  -1175399.8 2011.37   1 0.17924 0.05022 0.15689-0.38370-0.97121 0.92208
   3   2  -1182043.8 2015.86   1 0.40671-0.17737-0.35838 0.58514-0.84032 0.79129
  -3  -2   1168488.7 1873.55   1 0.49671-0.72639-0.80651 0.57932-0.32063 0.36978
  -3  -2   1179186.6 2038.97   1 0.57682-0.80640-0.74612 0.51905 0.33250-0.28336
   3   2  -1182083.2 2061.02   1 0.72755-0.49795-0.37659 0.60368 0.57345-0.62257
  -3   2   1191672.5 2176.29   1 0.49752-0.72676 0.60222-0.37537 0.62433-0.57524
  -3  -2   1185915.3 2195.26   1 0.28963-0.51893-0.33335 0.10661 0.89720-0.84813
   3  -2  -1184841.2 2017.93   1 0.79760-0.56810 0.59430-0.82118-0.10311 0.05398
  -3   2   034665.38  834.98   1 0.08823-0.31907 0.32066-0.09385-0.94307 0.94307
   3  -2   037327.03  553.75   1 0.24763-0.01686 0.02117-0.24796-0.96862 0.96862
   3   2   036251.91  458.02   1 0.28569-0.05493-0.05991 0.28669-0.95644 0.95644
  -3  -2   035620.86  457.99   1 0.49787-0.72893-0.73742 0.51022-0.45643 0.45643
   3  -2   034420.30  503.70   1-0.43899 0.67002-0.67753 0.45037-0.59010 0.59010
  -3  -2   035012.96  550.27   1 0.54523-0.77609-0.78545 0.55848 0.29287-0.29287
   3   2   033129.79  521.20   1 0.70297-0.47210-0.48375 0.71085 0.52134-0.52134
   3  -2   037717.61  596.75   1 0.61731-0.38677 0.39678-0.62364 0.67932-0.67932
  -3  -2   038433.32  592.15   1 0.17515-0.40575-0.40877 0.18203 0.89567-0.89567
   3  -2   036178.19  481.36   1 0.80464-0.57382 0.58777-0.81465-0.08404 0.08404
  -3   2   034387.16  447.73   1 0.41358-0.64441 0.65154-0.42461-0.63595 0.63595
   3  -2   1 5193.03  172.86   1-0.37794 0.61031-0.74368 0.51652-0.55144 0.60059
  -3  -2  -1 5219.89  218.76   1 0.51425-0.74644-0.81884 0.59186 0.25503-0.30416
   3  -2   1 5368.73  247.65   1 0.57015-0.33829 0.48842-0.71528 0.66058-0.61149
  -3  -2  -1 5804.85  625.89   1 0.05137-0.28371-0.47977 0.25266 0.87588-0.92502
   3   2   1 7638.09  226.99   1 0.33616-0.10425-0.29977 0.52651 0.89282-0.84375
  -3  -2  -238183.98  455.20   1 0.36107-0.59456-0.23656 0.00981-0.90203 0.80398
   3  -2   236028.50  550.53   1-0.31639 0.54982-0.80031 0.57325-0.50929 0.60751
  -3  -2  -239171.52  734.55   1-0.07415-0.15957-0.54165 0.31465 0.83732-0.93569
   3  -2   239445.24  595.82   1 0.81964-0.58616 0.57151-0.79839-0.03945 0.13771
  -3   2  -238020.16  526.02   1 0.59084-0.82429 0.66464-0.43771-0.45733 0.35908
  -3  -2  -391557.51 2089.03   1 0.17334-0.40826 0.16804-0.39486-0.97041 0.82304
  -3   2  -380875.06 1927.53   1 0.28066-0.51557-0.04892 0.27570-0.95855 0.81127
   3  -2   379038.70 1864.90   1 0.41615-0.18125-0.38580 0.15903-0.82339 0.97049
  -3  -2  -385282.69 2026.40   1 0.45362-0.68847-0.87192 0.64494 0.18432-0.33172
  -3  -2  -390936.30 2173.69   1-0.19485-0.04026-0.59049 0.36349 0.78316-0.93072
   3   2   375656.90 1795.11   1 0.13371 0.10128-0.43373 0.66084 0.89106-0.74365
   3  -2   392664.25 2176.95   1 0.82671-0.59192 0.56239-0.78927-0.01593 0.16333
  -3   2  -376900.89 1809.58   1 0.62558-0.86038 0.66174-0.43482-0.41319 0.26581
  -3  -2  -4169490.0 3854.71   1 0.01490-0.25129 0.44053-0.66734-0.89761 0.70106
  -3   2  -4144630.6 3368.20   1 0.32462-0.56094-0.14819 0.37494-0.93416 0.73807
  -3  -2  -4167937.2 3825.81   1 0.41054-0.64689-0.89593 0.66899 0.16956-0.36601
  -3   2  -4146749.2 3420.66   1-0.45045 0.21407-0.66382 0.89098-0.59701 0.40039
  -3  -2  -4152363.8 3552.15   1 0.42379-0.65997-0.89310 0.66612 0.15089-0.34742
   3  -2   4161247.8 3727.17   1 0.83332-0.59720 0.55272-0.77960 0.00795 0.18856
  -3   2  -4139159.9 3215.05   1 0.64555-0.88171 0.65899-0.43207-0.38597 0.18947
  -3  -2  -552361.07 1223.65   1-0.08622-0.15152 0.58908-0.81588-0.80345 0.55801
  -3   2  -544025.67 1730.22   1 0.35882-0.59656-0.23091 0.45766-0.90439 0.65928
  -3  -2  -556636.79 1343.64   1 0.44033-0.67806-0.89589 0.66896 0.05893-0.30449
  -3   2  -546495.72 1820.76   1-0.42173 0.18401-0.69738 0.92453-0.57948 0.33371
  -3  -2  -552218.69 1544.65   1 0.39343-0.63101-0.91163 0.68482 0.11884-0.36446
   3  -2   555439.60 1375.47   1 0.83940-0.60195 0.54256-0.76944 0.03210 0.21355
   3   2   544834.96 1746.43   1 0.40158-0.16393 0.64936-0.42243-0.64580 0.89144
  -3  -2  -611447.50  478.17   1-0.14780-0.09133 0.66995-0.89675-0.72753 0.43300
  -3  -2  -611701.05  525.37   1 0.45762-0.69673-0.88895 0.66201-0.01846-0.27620
  -3  -2  -612086.16  609.87   1 0.36391-0.60283-0.92734 0.70052 0.08715-0.38190
   3  -2   611320.92  547.09   1 0.84491-0.60614 0.53191-0.75879 0.05643 0.23835
  -3  -2  -7110980.4 3045.43   1-0.18569-0.05484 0.71572-0.94251-0.67324 0.32962
  -3   2  -7121592.4 3392.71   1 0.40385-0.64432-0.35026 0.57703-0.84510 0.50187
  -3  -2  -7122359.0 3373.30   1 0.46910-0.70961-0.87967 0.65255-0.07824-0.26574
  -3   2  -7117445.7 3296.01   1-0.38116 0.14076-0.74046 0.96762-0.55355 0.20947
  -3  -2  -7119182.6 3348.38   1 0.33445-0.57471-0.94073 0.71391 0.05615-0.40002
   3  -2   7121478.0 3396.21   1 0.84983-0.60974 0.52080-0.74768 0.08089 0.26302
   3   2   7121678.1 3388.82   1 0.55668-0.31648 0.66545-0.43852-0.49726 0.84114
  -3   2  -828690.30 1945.94   1 0.41793-0.65979-0.39107 0.61783-0.81999 0.42772
  -3  -2  -825601.88 1737.44   1 0.47722-0.71910-0.86942 0.64230-0.12791-0.26521
   3   2   821298.78 1432.05   1 0.20619 0.03587-0.74185 0.96886 0.63807-0.24499
  -3   2  -825924.07 1792.36   1-0.36837 0.12663-0.75309 0.98025-0.54511 0.15189
  -3  -2  -825283.37 1748.26   1 0.30499-0.54659-0.95200 0.72518 0.02573-0.41873
   3  -2   825521.59 1757.66   1 0.85424-0.61286 0.50908-0.73598 0.10537 0.28759
   3   2   828361.80 1934.75   1 0.61638-0.37483 0.66273-0.43581-0.42525 0.81826
  -3   2  -920420.46  792.70   1 0.42819-0.67144-0.42226 0.64902-0.79896 0.35765
  -3  -2  -923678.39  914.61   1 0.48331-0.72655-0.85852 0.63140-0.17127-0.27099
  -3   2  -920189.17  822.98   1-0.35987 0.11679-0.76124 0.98840-0.53944 0.09706
  -3  -2  -922987.48  960.23   1 0.27548-0.51842-0.96129 0.73447-0.00419-0.43792
   3  -2   923927.58  958.69   1 0.85793-0.61523 0.49703-0.72394 0.13001 0.31207
   3   2   920955.18  869.20   1 0.66613-0.42318 0.65536-0.42837-0.35602 0.79837
  -3   2 -1026507.67 1006.25   1 0.43559-0.68024-0.44566 0.67242-0.78207 0.29173
  -3  -2 -1020215.09 2105.07   1 0.48800-0.73260-0.84708 0.61996-0.21046-0.28093
  -3   2 -1022502.17 1234.16   1-0.35515 0.11074-0.76568 0.99284-0.53627 0.04474
  -3  -2 -1020179.62 2136.90   1 0.24587-0.49015-0.96871 0.74189-0.03370-0.45753
   3  -2  1020551.17 2170.83   1 0.86098-0.61696 0.48452-0.71143 0.15473 0.33647
   3   2  1027431.25 1072.54   1 0.70754-0.46325 0.64427-0.41727-0.29033 0.78184
  -3   2 -11 5794.59  517.90   1 0.44083-0.68687-0.46275 0.68951-0.76910 0.22973
  -3  -2 -1111172.06  707.84   1 0.49163-0.73760-0.83510 0.60798-0.24677-0.29376
  -3   2 -11 5344.08 1037.52   1-0.35377 0.10801-0.76697 0.99413-0.53534-0.00534
  -3  -2 -1111260.68  732.76   1 0.21585-0.46157-0.97441 0.74734-0.06265-0.47793
   3  -2  1110028.59  671.19   1 0.86337-0.61804 0.47154-0.69844 0.17950 0.36082
   3   2  11 6042.34  551.38   1 0.74194-0.49631 0.63050-0.40350-0.22801 0.76867
  -3   2 -1239002.95 1762.28   1 0.44440-0.69183-0.47467 0.70144-0.75972 0.17132
  -3  -2 -1236533.69 1610.03   1 0.49441-0.74174-0.82254 0.59542-0.28101-0.30866
  -3   2 -1234286.46 1556.71   1-0.35532 0.10822-0.76552 0.99268-0.53638-0.05345
  -3  -2 -1234205.03 1583.88   1 0.18591-0.43297-0.97829 0.75122-0.09154-0.49819
   3  -2  1237249.93 1714.91   1 0.86510-0.61844 0.45808-0.68498 0.20433 0.38511
   3   2  1238027.56 1704.77   1 0.77046-0.52349 0.61470-0.38770-0.16889 0.75870
  -3   2 -1324515.56 1799.81   1 0.44665-0.69547-0.48234 0.70910-0.75355 0.11611
  -3  -2 -1317900.02 1328.02   1 0.49637-0.74534-0.80931 0.58212-0.31403-0.32496
  -3   2 -1322840.93 1703.97   1-0.35946 0.11102-0.76163 0.98879-0.53916-0.09982
  -3  -2 -1320604.76 1553.65   1 0.15575-0.40414-0.98045 0.75339-0.12016-0.51871
   3  -2  1320895.60 1623.75   1 0.86614-0.61816 0.44413-0.67104 0.22920 0.40936
   3   2  1325850.54 1877.29   1 0.79390-0.54586 0.59750-0.37061-0.11273 0.75144
  -3   2 -14 1969.48  371.37   1 0.44784-0.69805-0.48643 0.71320-0.75020 0.06373
  -3  -2 -14 3681.64  574.51   1 0.49777-0.74812-0.79548 0.56829-0.34556-0.34257
  -3   2 -14 2967.83  779.27   1-0.36590 0.11612-0.75548 0.98264-0.54347-0.14467
  -3  -2 -14 4504.88  748.24   1 0.12533-0.37507-0.98092 0.75386-0.14856-0.53945
   3  -2  14 3292.34  530.98   1 0.86647-0.61717 0.42969-0.65659 0.25413 0.43356
   3   2  14 2702.51  494.85   1 0.81324-0.56388 0.57889-0.35201-0.05922 0.74707
  -3   2 -15 3050.19  653.73   1 0.44814-0.69975-0.48748 0.71425-0.74934 0.01383
  -3  -2 -15 2468.24  550.51   1 0.49857-0.75030-0.78096 0.55376-0.37619-0.36110
  -3   2 -15 2764.68  681.71   1-0.37439 0.12328-0.74720 0.97436-0.54910-0.18819
  -3  -2 -15 2784.34  679.91   1 0.09462-0.34569-0.97969 0.75262-0.17677-0.56039
   3  -2  15 1710.86  424.40   1 0.86608-0.61545 0.41474-0.64164 0.27909 0.45771
   3   2  15 1417.46  391.21   1 0.82895-0.57826 0.55926-0.33237-0.00809 0.74507
  -3   2 -16 4457.60  967.47   1 0.44769-0.70068-0.48590 0.71266-0.75064-0.03389
  -3  -2 -16 3725.70  829.68   1 0.49880-0.75190-0.76568 0.53849-0.40609-0.38035
  -3   2 -16 3721.91 1042.11   1-0.38473 0.13228-0.73686 0.96402-0.55588-0.23056
  -3  -2 -16 4529.97 1029.43   1 0.06358-0.31599-0.97673 0.74966-0.20481-0.58150
   3  -2  16 3859.91  919.94   1 0.86493-0.61298 0.39926-0.62616 0.30410 0.48183
   3   2  16 3244.95  744.26   1 0.84147-0.58946 0.53874-0.31186 0.04094 0.74516
  -3   2 -17 4195.92  769.07   1 0.44655-0.70093-0.48198 0.70875-0.75384-0.07973
  -3  -2 -17 7439.71  717.49   1 0.49846-0.75294-0.74962 0.52242-0.43542-0.40017
  -3   2 -17 4209.51 1228.68   1-0.39674 0.14296-0.72447 0.95163-0.56366-0.27193
  -3  -2 -17 5343.76 1166.85   1 0.03200-0.28549-0.97208 0.74508-0.23243-0.60277
   3   2  17 5247.57  605.97   1 0.85117-0.59783 0.51743-0.29055 0.08813 0.74710
   3   3 -1610292.60 1164.50   1 0.47923-0.27076-0.60999 0.95022-0.63106-0.15412
   3  -3 -1611651.42 1377.90   1 0.45115-0.24241-0.89236 0.55195 0.01206-0.79785
  -3  -3  1610081.43 1097.17   1 0.70599-0.91470 0.05597-0.39616 0.70600 0.07978
   3   3 -1524622.21 1789.54   1 0.48045-0.27059-0.61594 0.95617-0.62431-0.11179
   3  -3 -1524955.35 1785.39   1 0.43947-0.22936-0.89607 0.55567 0.06245-0.79913
   3  -3 -1522362.65 1520.71   1 0.33102-0.12019-0.94215 0.60192 0.05258-0.78945
  -3  -3  1523580.02 1648.86   1 0.70698-0.91706 0.05726-0.39746 0.70491 0.03176
   3   3 -1410711.23  923.15   1 0.48131-0.27007-0.62022 0.96046-0.61939-0.06764
   3  -3 -1413201.03 1152.83   1 0.42605-0.21456-0.89738 0.55698 0.11476-0.80233
   3  -3 -1411008.84  840.56   1 0.38655-0.17439-0.91551 0.57528 0.11140-0.79914
  -3  -3  1414718.36 1182.43   1 0.70633-0.91780 0.05642-0.39661 0.70562-0.01805
   3   3 -1328137.05 1719.10   1 0.48179-0.26915-0.62262 0.96285-0.61660-0.02135
   3  -3 -1330232.33 1765.43   1 0.41066-0.19779-0.89595 0.55555 0.16915-0.80761
   3  -3 -1327314.03 1529.00   1 0.44209-0.22853-0.88045 0.53999 0.17130-0.81004
  -3  -3  1330118.33 1728.30   1 0.70386-0.91671 0.05318-0.39338 0.70833-0.06988
  -3   3  1323668.78 1294.92   1 0.76774-0.98067 0.14540 0.19508 0.62403 0.01496
   3   3 -1252579.58 3768.20   1 0.48183-0.26781-0.62284 0.96307-0.61635 0.02746
   3  -3 -1240032.39 2862.19   1 0.39339-0.17906-0.89129 0.55087 0.22547-0.81515
   3  -3 -1235218.89 2487.45   1 0.49463-0.27973-0.83764 0.49718 0.23170-0.82131
  -3  -3  1234933.04 2426.95   1 0.73942-0.95489-0.05481-0.28527 0.67100-0.08242
  -3  -3  1238665.54 2768.04   1 0.69930-0.91352 0.04725-0.38744 0.71326-0.12392
  -3   3  1245509.09 3153.60   1 0.76470-0.97902 0.14053 0.19995 0.62887-0.03902
   3   3 -1132480.36 1525.57   1 0.48137-0.26595-0.62048 0.96072-0.61909 0.07927
   3  -3 -1135573.51 1579.50   1 0.54479-0.32857-0.78596 0.44549 0.29233-0.83280
  -3  -3  1135559.82 1485.94   1 0.74188-0.95860-0.08458-0.25550 0.66517-0.12563
  -3   3  1131161.09 1306.62   1 0.75585-0.97158 0.12672 0.21376 0.64236-0.10166
   3   3 -1078216.25 3983.10   1 0.48026-0.26345-0.61499 0.95522-0.62540 0.13466
  -3  -3  1063288.28 3135.60   1 0.00518-0.22268-0.96669 0.62619-0.25589 0.74718
   3  -3 -1081854.10 4094.49   1 0.59220-0.37441-0.72451 0.38390 0.35266-0.84405
  -3  -3  1081179.16 4010.03   1 0.74407-0.96205-0.12358-0.21650 0.65656-0.16607
  -3   3  1074355.01 3667.11   1 0.73677-0.95390 0.09841 0.24207 0.66894-0.17739
   3  -3 -1070224.59 3468.02   1 0.31862-0.10143 0.63063-0.97102-0.70765 0.21637
   3   3  -926227.49 1061.48   1 0.47830-0.26011-0.60559 0.94582-0.63598 0.19431
   3  -3  -923210.40  965.45   1 0.32384-0.10535-0.85259 0.51217 0.41013-0.85239
  -3  -3   916383.73 1679.49   1-0.12670-0.09213-0.92184 0.58135-0.36625 0.80841
   3  -3  -920682.75 2144.13   1 0.63490-0.41580-0.65384 0.31323 0.41155-0.85380
  -3  -3   919691.58 2020.68   1 0.74495-0.96395-0.16906-0.17116 0.64533-0.20371
  -3  -3   921678.70 2274.09   1 0.66879-0.88715 0.00926-0.34945 0.74338-0.30138
  -3   3   925830.98  853.97   1 0.69628-0.91464 0.04336 0.29682 0.71645-0.27445
   3   3  -8 2143.17  354.89   1 0.47517-0.25558-0.59118 0.93141-0.65169 0.25909
   3  -3  -8 1791.56  378.14   1 0.29404-0.07423-0.82847 0.48796 0.47661-0.86970
  -3  -3   8  980.13  184.09   1-0.26373 0.04350-0.84146 0.50087-0.47156 0.86442
   3  -3  -8 2376.24  302.63   1 0.67224-0.45157-0.57334 0.23270 0.46835-0.86135
  -3  -3   8 1923.56  198.89   1 0.74407-0.96435-0.22302-0.11720 0.62977-0.23722
  -3   3   8 1425.92  176.53   1-0.09474-0.12565-0.55019 0.89085 0.82964-0.43656
  -3  -3   8 2526.14  317.22   1 0.65095-0.87069-0.01180-0.32839 0.75902-0.36613
   3   3  -733958.38 1292.06   1 0.47033-0.24936-0.57021 0.91044-0.67352 0.33000
   3  -3  -725586.79 1772.16   1 0.25974-0.03854-0.79734 0.45682 0.54477-0.88872
  -3  -3   721881.18 1447.04   1-0.39406 0.17240-0.72728 0.38654-0.56193 0.90601
   3  -3  -724923.45 1700.44   1 0.70282-0.48087-0.48427 0.14363 0.52106-0.86494
  -3  -3   723458.17 1560.48   1 0.74037-0.96195-0.28165-0.05856 0.61034-0.26686
  -3  -3   723786.04 1619.69   1 0.62778-0.84890-0.03805-0.30214 0.77745-0.43367
   3   3  -663942.24 2263.02   1 0.46293-0.24057-0.54041 0.88064-0.70259 0.40814
   3  -3  -658089.30 2079.53   1 0.22086 0.00172-0.75780 0.41729 0.61395-0.90877
  -3  -3   658856.46 2029.51   1 0.73332-0.95619-0.34283 0.00260 0.58711-0.29270
   3  -3  -657767.60 2051.89   1 0.72558-0.50235-0.38753 0.04689 0.56863-0.86338
   3   3  -661226.57 2090.55   1 0.51131-0.28860 0.58260-0.24232 0.63175-0.92627
  -3  -3   659229.31 2092.83   1 0.59808-0.82057-0.07010-0.27008 0.79836-0.50369
  -3   3   5159855.6 4409.43   1-0.17886-0.04494 0.70771-0.36751-0.68348 0.92892
   3   3  -5151918.9 4216.66   1 0.45126-0.22750-0.49839 0.83853-0.74024 0.49507
  -3  -3   5175275.8 4787.49   1 0.72232-0.94682-0.40437 0.06373 0.56100-0.31537
   3  -3  -5163462.2 4509.90   1 0.74014-0.51596-0.28422-0.05599 0.60943-0.85477
   3   3  -5138718.8 3786.89   1 0.60597-0.38195 0.42049-0.08021 0.67526-0.92069
  -3  -3   5172834.8 4775.35   1 0.55999-0.78395-0.10854-0.23155 0.82135-0.57601
  -3   3   464131.44 1624.16   1-0.13050-0.09470 0.64801-0.30782-0.75036 0.94671
   3   3  -471784.48 1741.24   1 0.43367-0.20851-0.43950 0.77965-0.78660 0.59047
  -3  -3   462539.57 1509.90   1 0.49626-0.72180-0.81017 0.46938-0.31198 0.50859
  -3  -3   481738.49 1951.95   1 0.70825-0.93403-0.46465 0.12401 0.53147-0.33497
   3  -3  -472506.75 1786.01   1 0.74497-0.51950-0.17854-0.16167 0.64275-0.83903
   3   3  -468004.46 1606.56   1 0.67349-0.44822 0.25527 0.08470 0.69371-0.88989
  -3  -3   474763.13 1822.91   1 0.51287-0.73814-0.15358-0.18651 0.84461-0.64834
   3   3  -382955.42 1968.20   1 0.40623-0.17967-0.35700 0.69715-0.84114 0.69404
  -3  -3   367520.60 1617.15   1 0.49870-0.72562-0.77653 0.43574-0.38507 0.53253
  -3  -3   377899.14 1871.43   1 0.69102-0.91807-0.52224 0.18160 0.49974-0.35236
   3  -3  -371972.15 1761.76   1 0.74095-0.51424-0.07237-0.26771 0.66764-0.81478
   3   3  -382090.28 1930.47   1 0.71579-0.48908 0.09933 0.24075 0.69120-0.83835
  -3  -3   373366.28 1792.14   1 0.45473-0.68133-0.20525-0.13484 0.86665-0.71944
  -3   3   2 1386.94  279.82   1-0.02178-0.20633 0.49678-0.15656-0.86760 0.96587
   3   3  -2 1160.91  180.52   1 0.36329-0.13546-0.24217 0.58230-0.89964 0.80160
  -3  -3   2  296.51   95.36   1 0.49735-0.72565-0.72961 0.38882-0.46935 0.56766
  -3  -3   2  863.77  259.17   1 0.67106-0.89939-0.57626 0.23562 0.46645-0.36820
   3  -3  -2  955.08  372.76   1 0.72860-0.50064 0.03041-0.37050 0.68425-0.78235
   3  -3  -2  423.67   37.34   1 0.04455 0.18380-0.48337 0.14271 0.87427-0.97254
  -3  -3   2  319.33  286.80   1 0.38443-0.61234-0.26283-0.07726 0.88494-0.78680
   3  -3  -2  353.15   32.28   1 0.44738-0.21947-0.21151-0.12858 0.86896-0.96710
  -3   3   179027.33 2048.46   1 0.03595-0.26545 0.40713-0.06691-0.91266 0.96179
   3   3  -173418.67 1726.96   1 0.29779-0.06854-0.08687 0.42700-0.95066 0.90164
  -3  -3   165147.51 1541.04   1 0.48892-0.71823-0.66234 0.32211-0.56767 0.61674
  -3  -3   167043.46 1636.92   1 0.64892-0.87849-0.62625 0.28564 0.43209-0.38295
   3   3  -167377.17 1606.12   1 0.74484-0.51549-0.15764 0.49787 0.64834-0.69741
   3  -3  -164486.76 1599.26   1 0.70952-0.48032 0.12741-0.46750 0.69306-0.74211
  -3  -3   167287.79 1642.81   1 0.30159-0.53089-0.32489-0.01521 0.89637-0.84730
   3  -3  -167834.71 1560.74   1 0.80584-0.57609 0.21268-0.55317 0.55260-0.60176
  -3   3   168378.67 1568.94   1 0.48690-0.71636 0.66161-0.32121-0.57025 0.61938
  -3   3   081265.35 2009.01   1 0.09342-0.32425 0.31180 0.02841-0.94554 0.94554
   3   3   081824.61 1902.17   1 0.20324 0.02751 0.11048 0.22969-0.97287 0.97287
  -3  -3   084493.66 1965.83   1 0.46949-0.70020-0.56669 0.22646-0.67707 0.67707
  -3  -3   089882.42 2152.68   1 0.62485-0.85574-0.67211 0.33150 0.39725-0.39725
   3  -3   086866.39 2094.65   1 0.68590-0.45555 0.21668-0.55667 0.69468-0.69468
  -3  -3   090870.29 2203.26   1 0.20714-0.43774-0.38868 0.04857 0.89778-0.89778
   3  -3   086164.72 1988.49   1 0.85176-0.62085 0.32939-0.66973 0.40742-0.40742
  -3   3   079450.67 1832.47   1 0.61181-0.84256 0.66316-0.32277-0.43115 0.43115
   3   3   1108420.1 2493.29   1 0.08073 0.15145 0.33341 0.00680-0.93931 0.98844
  -3   3  -1106418.1 2621.12   1 0.14823-0.38043 0.21466 0.12554-0.96537 0.91624
  -3  -3  -1107895.3 2483.34   1 0.43175-0.66387-0.43341 0.09326-0.79103 0.74200
  -3  -3  -1113597.7 2682.40   1 0.59936-0.83155-0.71383 0.37322 0.36222-0.41136
   3  -3   1117273.9 2784.40   1 0.65894-0.42732 0.29622-0.63621 0.69140-0.64236
  -3  -3  -1116659.2 2753.64   1 0.10319-0.33554-0.45133 0.11067 0.88636-0.93550
   3  -3   1113686.2 2622.47   1 0.86317-0.63091 0.38349-0.72383 0.32842-0.27929
  -3   3  -1107148.4 2467.90   1 0.66560-0.89784 0.65548-0.31498-0.35682 0.30767
   3   3   288285.47 2057.07   1-0.05341 0.28705 0.54323-0.20301-0.83788 0.93615
  -3  -3  -277066.26 1787.13   1 0.37121-0.60470-0.26242-0.07770-0.89069 0.79265
  -3  -3  -277741.07 1906.90   1 0.57274-0.80625-0.75158 0.41096 0.32723-0.42551
   3  -3   283224.28 2030.88   1 0.63085-0.39796 0.36566-0.70565 0.68433-0.58624
  -3  -3  -282893.05 1998.92   1-0.00573-0.22793-0.50901 0.16834 0.86074-0.95901
   3  -3   279976.74 1879.92   1 0.86590-0.63246 0.41155-0.75190 0.28432-0.18607
  -3   3  -284739.88 1974.90   1 0.69270-0.92628 0.64884-0.30835-0.31488 0.21658
   3   3   366848.32 1551.98   1-0.17429 0.40925 0.70228-0.36209-0.69022 0.83749
  -3  -3  -374413.38 1729.19   1 0.29054-0.52545-0.07056-0.26961-0.95425 0.80697
  -3  -3  -373754.89 1806.05   1 0.54498-0.77984-0.78574 0.44527 0.29257-0.43997
   3  -3   379091.33 1959.34   1 0.60372-0.36926 0.42505-0.76533 0.67442-0.52716
  -3  -3  -376887.13 1858.84   1-0.11533-0.11978-0.55946 0.21896 0.82079-0.96835
   3  -3   374909.95 1781.85   1 0.86645-0.63169 0.42676-0.76712 0.25908-0.11171
  -3  -3  -4 8358.34  281.54   1 0.20236-0.43865 0.11220-0.45238-0.97286 0.77648
  -3   3  -412619.98  545.07   1 0.28087-0.51716-0.04937 0.38954-0.95847 0.76209
  -3  -3  -4 7868.67  287.06   1 0.26461-0.50111-0.80199 0.46147 0.53552-0.73206
   3  -3   4 8766.00  485.73   1 0.57770-0.34194 0.47487-0.81515 0.66388-0.46754
  -3  -3  -4 8984.24  440.24   1-0.22131-0.01520-0.59980 0.25930 0.76892-0.96567
   3  -3   4 9947.65  431.41   1 0.86644-0.63036 0.43434-0.77470 0.24618-0.04970
  -3  -3  -5 2790.89  338.01   1 0.12032-0.35796 0.26490-0.60512-0.95673 0.71111
  -3   3  -5 3788.90  324.98   1 0.31221-0.54995-0.11948 0.45960-0.94246 0.69735
  -3  -3  -5 4031.18  247.44   1 0.33070-0.56860-0.85752 0.51711 0.39405-0.63975
  -3  -3  -5 4004.92  428.71   1 0.48796-0.72547-0.84366 0.50320 0.22387-0.46954
   3  -3   5 3282.48  299.68   1 0.86639-0.62899 0.43704-0.77740 0.24155 0.00405
   3   3   5 3986.33  332.70   1 0.31820-0.08055 0.63052-0.29012-0.70794 0.95359
  -3  -3  -629378.31 1941.42   1 0.05178-0.29093 0.38146-0.72168-0.92293 0.62811
  -3   3  -633879.47 1291.42   1 0.33800-0.57715-0.17988 0.52000-0.92379 0.62966
  -3  -3  -631967.87 1084.92   1 0.37677-0.61606-0.88466 0.54424 0.27459-0.56943
  -3  -3  -629441.04 1995.82   1 0.45869-0.69753-0.86802 0.52756 0.19009-0.48489
   3  -3   631940.68 1210.33   1 0.53346-0.29508 0.54929-0.88958 0.64318-0.34867
   3  -3   631909.91 1139.90   1 0.86641-0.62768 0.43637-0.77672 0.24271 0.05201
   3   3   634589.97 1297.66   1 0.40764-0.16863 0.65048-0.31008-0.64086 0.93563
  -3  -3  -742958.04 1490.31   1-0.00184-0.23868 0.46652-0.80674-0.88450 0.54055
  -3   3  -741773.71 1553.94   1 0.35870-0.59927-0.23061 0.57073-0.90451 0.56136
  -3  -3  -748898.28 1719.92   1 0.40849-0.64898-0.89554 0.55513 0.17644-0.52022
  -3  -3  -746330.27 1698.29   1 0.42901-0.66919-0.88960 0.54913 0.15668-0.50062
   3  -3   752739.04 1937.63   1 0.51597-0.27628 0.57580-0.91608 0.63421-0.29060
   3  -3   747880.25 1724.28   1 0.86646-0.62641 0.43323-0.77359 0.24810 0.09574
   3   3   741513.05 1521.20   1 0.48660-0.24623 0.66158-0.32119-0.57054 0.91444
  -3   3  -855519.72 1924.77   1 0.37510-0.61708-0.27250 0.61262-0.88602 0.49385
  -3  -3  -855980.78 1858.28   1 0.43176-0.67364-0.89716 0.55675 0.09313-0.48603
  -3  -3  -851000.12 1767.43   1 0.39819-0.63979-0.90888 0.56865 0.12401-0.51701
   3  -3   862039.94 2153.90   1 0.50170-0.26072 0.59636-0.93664 0.62660-0.23391
   3  -3   857339.73 1972.51   1 0.86646-0.62509 0.42819-0.76855 0.25666 0.13629
   3   3   854367.44 1838.09   1 0.55491-0.31336 0.66544-0.32505-0.49925 0.89226
  -3   3  -931764.59 1203.76   1 0.38795-0.63135-0.30655 0.64668-0.86920 0.42800
  -3  -3  -922833.53 1201.47   1 0.44898-0.69224-0.89327 0.55286 0.02182-0.46383
  -3  -3  -922534.57 1249.12   1 0.36781-0.61075-0.92540 0.58517 0.09131-0.53343
   3  -3   924747.72 1014.07   1 0.49060-0.24831 0.61176-0.95204 0.62052-0.17875
   3  -3   922131.61 1270.21   1 0.86635-0.62365 0.42163-0.76199 0.26768 0.17440
   3   3   934989.98 1276.75   1 0.61368-0.37078 0.66299-0.32260-0.42874 0.87088
  -3   3 -1028156.08 1553.61   1 0.39803-0.64268-0.33394 0.67409-0.85442 0.36408
  -3  -3 -1036081.64 1850.24   1 0.46202-0.70666-0.88593 0.54553-0.04054-0.45057
  -3  -3 -1034440.58 1828.89   1 0.33712-0.58140-0.93961 0.59938 0.05894-0.55019
   3  -3  1036472.87 1941.92   1 0.86603-0.62201 0.41380-0.75416 0.28063 0.21057
   3   3  1027641.99 1477.35   1 0.66359-0.41930 0.65589-0.31539-0.35978 0.85129
  -3   3 -11 3021.73  386.92   1 0.40563-0.65167-0.35530 0.69544-0.84215 0.30277
  -3  -3 -11 4797.95  491.96   1 0.47218-0.71815-0.87623 0.53555-0.09620-0.44434
  -3   3 -11 3338.09  385.87   1-0.47778 0.23202-0.62928 0.97001-0.61296 0.07227
  -3  -3 -11 3174.89  492.05   1 0.30613-0.55174-0.95160 0.61138 0.02689-0.56726
   3  -3  11 3918.68  515.28   1 0.86543-0.62009 0.40487-0.74522 0.29513 0.24519
   3   3  11 3096.55  419.94   1 0.70572-0.46009 0.64487-0.30437-0.29340 0.83406
  -3   3 -1220383.48 1538.98   1 0.41130-0.65873-0.37160 0.71174-0.83231 0.24390
  -3  -3 -1219973.92 1483.09   1 0.47998-0.72732-0.86491 0.52423-0.14676-0.44292
  -3   3 -1217686.05 1357.64   1-0.47520 0.22811-0.63265 0.97339-0.61149 0.02165
  -3  -3 -1219602.58 1525.05   1 0.27482-0.52177-0.96148 0.62125-0.00485-0.58463
   3  -3  1220831.71 1628.58   1 0.86448-0.61782 0.39496-0.73532 0.31090 0.27854
   3   3  1219284.64 1457.26   1 0.74110-0.49413 0.63090-0.29040-0.22963 0.81944
  -3   3 -13 7514.56  933.59   1 0.41538-0.66420-0.38353 0.72367-0.82483 0.18739
  -3  -3 -13 8842.47 1092.74   1 0.48605-0.73475-0.85226 0.51158-0.19338-0.44544
  -3   3 -13 6452.74  823.51   1-0.47505 0.22662-0.63285 0.97359-0.61140-0.02758
  -3  -3 -13 7319.25  931.16   1 0.24319-0.49148-0.96929 0.62906-0.03635-0.60226
   3  -3  13 8537.70 1069.84   1 0.86327-0.61485 0.38423-0.72457 0.32727 0.31134
   3   3  13 8608.03 1060.78   1 0.77062-0.52232 0.61459-0.27410-0.16853 0.80749
  -3   3 -1412557.42 1174.36   1 0.41814-0.66835-0.39169 0.73183-0.81959 0.13312
  -3  -3 -14 8604.23  858.24   1 0.49071-0.74077-0.83848 0.49780-0.23692-0.45103
  -3   3 -1410695.20  986.57   1-0.47713 0.22736-0.63013 0.97087-0.61259-0.07555
  -3  -3 -14 7075.82 1247.45   1 0.21091-0.46065-0.97517 0.63457-0.06745-0.62057
   3  -3  14 7242.03 1275.18   1 0.86147-0.61171 0.37262-0.71296 0.34497 0.34277
   3   3  1410672.45  990.68   1 0.79494-0.54557 0.59661-0.25629-0.11006 0.79790
  -3   3 -1512735.14 1194.11   1 0.41976-0.67136-0.39654 0.73669-0.81642 0.08091
  -3  -3 -1513694.83 1236.22   1 0.49419-0.74562-0.82369 0.48301-0.27803-0.45907
  -3  -3 -1510881.34 1110.94   1 0.17859-0.42966-0.97897 0.63837-0.09853-0.63863
   3  -3  1512992.45 1268.06   1 0.85916-0.60805 0.36022-0.70057 0.36341 0.37346
   3   3  1513335.48 1211.39   1 0.81499-0.56430 0.57695-0.23662-0.05394 0.79092
  -3   3 -1610292.14  925.07   1 0.42041-0.67340-0.39849 0.73863-0.81514 0.03060
  -3  -3 -1610711.56  926.98   1 0.49655-0.74965-0.80783 0.46704-0.31753-0.46891
  -3  -3 -16 9811.48  963.56   1 0.14589-0.39830-0.98079 0.64019-0.12942-0.65688
   3  -3  1612965.19 1169.89   1 0.85629-0.60383 0.34709-0.68743 0.38248 0.40351
   3   3  16 8580.45  745.59   1 0.83117-0.57916 0.55600-0.21568-0.00005 0.78615
   3  -4 -1526882.78 1997.17   1 0.42061-0.21049-0.89719 0.44332 0.13461-0.87129
   3  -4 -1522661.32 1625.67   1 0.40773-0.19690-0.90315 0.44951 0.13443-0.87130
  -3  -4  1525377.71 1851.01   1 0.67340-0.88349 0.01483-0.46842 0.73912-0.00244
   3   4 -14 6894.95  872.04   1 0.45596-0.24472-0.51527 0.96880-0.72566 0.03918
   3  -4 -1410378.90 1110.77   1 0.40468-0.19319-0.89471 0.44083 0.18898-0.87654
   3  -4 -14 9674.17  920.03   1 0.45705-0.24482-0.86929 0.41534 0.18822-0.87609
   3   4 -1323207.76 1986.38   1 0.45516-0.24253-0.51236 0.96588-0.72822 0.09078
   3  -4 -1323923.27 2074.52   1 0.38709-0.17415-0.88901 0.43512 0.24454-0.88336
   3  -4 -1319617.15 1649.25   1 0.50296-0.28940-0.82986 0.37591 0.24156-0.88030
  -3  -4  1321319.74 1803.60   1 0.66785-0.88069 0.00812-0.46171 0.74425-0.10580
   3   4 -12  799.07  380.82   1 0.45354-0.23951-0.50648 0.96001-0.73332 0.14491
   3  -4 -12  598.04  351.76   1 0.36689-0.15256-0.87983 0.42594 0.30211-0.89179
   3  -4 -12 1037.52  260.88   1 0.54628-0.33139-0.78423 0.33028 0.29418-0.88379
  -3  -4  12  557.19  178.50   1 0.74497-0.96008-0.17912-0.27450 0.64259-0.05377
  -3  -4  12 1776.24  507.93   1 0.66191-0.87614 0.00104-0.45464 0.74957-0.16023
   3   4 -11 9457.39 1137.71   1 0.45091-0.23549-0.49714 0.95066-0.74130 0.20192
   3  -4 -11 9431.83 1088.44   1 0.34421-0.12849-0.86663 0.41274 0.36120-0.90173
   3  -4 -11 8768.34  972.30   1 0.58697-0.37049-0.73206 0.27791 0.34575-0.88628
  -3  -4  11 8864.77  930.71   1 0.74481-0.96121-0.19588-0.25775 0.63787-0.09811
  -3  -4  11 7776.75  887.77   1 0.65346-0.86907-0.00888-0.44471 0.75690-0.21667
   3   4 -1028934.54 1809.07   1 0.44703-0.23022-0.48363 0.93715-0.75250 0.26216
   3  -4 -1037915.07 2245.64   1 0.31882-0.10172-0.84885 0.39496 0.42164-0.91304
   3  -4 -1033905.45 2006.77   1 0.62371-0.40592-0.67412 0.21997 0.39564-0.88703
  -3  -4  1034552.19 1985.19   1 0.74421-0.96191-0.21904-0.23458 0.63099-0.14031
  -3  -4  1035110.10 2084.38   1 0.64207-0.85906-0.02199-0.43159 0.76632-0.27520
   3   4  -970905.68 3033.00   1 0.44154-0.22333-0.46508 0.91861-0.76729 0.32598
   3  -4  -964525.89 2784.88   1 0.29083-0.07242-0.82573 0.37171 0.48329-0.92551
   3  -4  -961252.16 2617.18   1 0.65641-0.43731-0.61034 0.15619 0.44338-0.88563
  -3  -4   959246.09 2466.80   1 0.74285-0.96185-0.24784-0.20578 0.62187-0.18025
  -3  -4   961348.83 2638.00   1 0.62723-0.84559-0.03866-0.41493 0.77787-0.33586
   3   4  -822382.71 1245.77   1 0.43394-0.21435-0.44036 0.89389-0.78598 0.39371
   3  -4  -817683.86 1042.75   1 0.25940-0.03959-0.79701 0.34299 0.54541-0.93850
   3  -4  -816307.41  946.18   1 0.68456-0.46388-0.54093 0.08674 0.48863-0.88163
  -3  -4   816249.29  886.35   1 0.74038-0.96067-0.28147-0.17216 0.61041-0.21785
  -3  -4   817560.07 1047.45   1 0.60829-0.82802-0.05927-0.39431 0.79149-0.39860
   3   4  -725623.12  995.64   1 0.42355-0.20257-0.40800 0.86152-0.80878 0.46554
   3  -4  -730957.15 1197.06   1 0.70759-0.48564-0.46713 0.01294 0.53018-0.87405
  -3  -4   730963.38 1082.87   1 0.73646-0.95804-0.31903-0.13460 0.59652-0.25304
  -3  -4   731547.12 1174.22   1 0.58448-0.80560-0.08424-0.36934 0.80701-0.46323
  -3   4   631233.44 1142.04   1-0.18847-0.03394 0.71895-0.26536-0.66901 0.96355
   3   4  -629543.38 1083.11   1 0.40941-0.18703-0.36613 0.81966-0.83565 0.54145
  -3  -4   632074.44 1116.83   1 0.73079-0.95366-0.35960-0.09403 0.58019-0.28578
   3  -4  -632637.76 1246.99   1 0.72519-0.50197-0.38959-0.06459 0.56771-0.86246
  -3  -4   631899.39 1169.21   1 0.55446-0.77711-0.11399-0.33946 0.82436-0.52995
  -3   4   5 4029.33  491.68   1-0.14748-0.07632 0.66955-0.21596-0.72796 0.97341
   3   4  -5 2998.63  243.77   1 0.39021-0.16644-0.31248 0.76601-0.86607 0.62090
  -3  -4   5 3741.47  322.52   1 0.72273-0.94723-0.40233-0.05185 0.56194-0.31631
   3  -4  -5 2924.93  400.92   1 0.73766-0.51348-0.30876-0.14487 0.60043-0.84577
  -3  -4   5 2710.90  363.29   1 0.51818-0.74215-0.14865-0.30481 0.84224-0.59690
  -3   4   426930.81 1830.52   1-0.10371-0.12149 0.61282-0.15923-0.78338 0.97973
   3   4  -425191.45 1714.68   1 0.36413-0.13913-0.24429 0.69779-0.89873 0.70265
  -3  -4   425540.85 1733.93   1 0.71299-0.93877-0.44610-0.00808 0.54094-0.34444
   3  -4  -420223.96 1401.63   1 0.74389-0.51842-0.22746-0.22616 0.62839-0.82467
  -3  -4   423529.47 1625.92   1 0.47412-0.69940-0.18845-0.26500 0.86005-0.66377
  -3   4   377420.17 2723.11   1-0.05774-0.16900 0.54943-0.09581-0.83353 0.98094
   3   4  -371559.01 2479.81   1 0.32927-0.10285-0.15910 0.61260-0.93073 0.78367
  -3  -4   368287.50 2390.00   1 0.70109-0.92814-0.49020 0.03600 0.51784-0.37047
   3  -4  -363124.43 2275.79   1 0.74463-0.51787-0.14647-0.30716 0.65120-0.79840
  -3  -4   365960.50 2313.91   1 0.42130-0.64789-0.23325-0.22020 0.87640-0.72920
  -3   4   260216.28 2144.41   1-0.01043-0.21768 0.47964-0.02602-0.87739 0.97567
   3   4  -253734.49 1875.41   1 0.28346-0.05546-0.05503 0.50860-0.95740 0.85921
  -3  -4   269254.07 2428.21   1 0.68705-0.91537-0.53387 0.07968 0.49287-0.39462
   3  -4  -264267.19 2280.43   1 0.74051-0.51255-0.06702-0.38642 0.66869-0.76678
   3  -4  -264679.09 2175.77   1 0.23242-0.00442-0.37227-0.08119 0.89854-0.99668
  -3  -4   266216.91 2332.95   1 0.35897-0.58696-0.28263-0.17083 0.88952-0.79138
  -3   4   253389.19 1795.55   1 0.47952-0.70762 0.66087-0.20701-0.57732 0.67558
  -3   4   174258.17 2636.72   1 0.03712-0.26662 0.40525 0.04836-0.91344 0.96258
   3   4  -166064.34 2275.50   1 0.22428 0.00509 0.06879 0.38477-0.97209 0.92299
  -3  -4   168209.10 2343.64   1 0.47669-0.70601-0.59810 0.14445-0.64423 0.69330
  -3  -4   181286.71 2832.91   1 0.67096-0.90055-0.57652 0.12233 0.46629-0.41716
   3  -4  -176251.48 2673.62   1 0.73185-0.50265 0.00892-0.46237 0.68139-0.73044
  -3  -4   175773.17 2641.95   1 0.28685-0.51615-0.33530-0.11816 0.89737-0.84830
   3  -4  -173820.10 2493.43   1 0.59526-0.36587-0.07306-0.38052 0.80020-0.84931
  -3   4   167265.72 2272.69   1 0.65200-0.88140 0.65792-0.20406-0.37687 0.42599
  -3   4   051839.44 2003.86   1 0.08381-0.31464 0.32819 0.12543-0.94088 0.94088
   3   4   059143.72 2035.66   1 0.15168 0.07914 0.20835 0.24526-0.96621 0.96621
  -3  -4   048465.61 1685.82   1 0.45696-0.68767-0.51788 0.06424-0.72316 0.72316
  -3  -4   054844.01 1975.34   1 0.65298-0.88387-0.61773 0.16358 0.43819-0.43819
   3  -4   052940.35 1916.55   1 0.71966-0.48921 0.08046-0.53391 0.68963-0.68963
  -3  -4   053212.68 1951.44   1 0.20538-0.43598-0.38980-0.06366 0.89770-0.89770
   3  -4   054228.80 1854.94   1 0.72670-0.49554 0.08418-0.53816 0.68176-0.68176
  -3   4   058976.14 2007.91   1 0.70598-0.93689 0.64478-0.19079-0.29296 0.29296
   3   4   110745.50 1026.60   1 0.06778 0.16441 0.35516 0.09845-0.93234 0.98146
  -3   4  -110170.17 1389.99   1 0.12832-0.36051 0.25067 0.20295-0.95952 0.91040
  -3  -4  -1 5829.01  420.56   1 0.42791-0.66003-0.42137-0.03215-0.79958 0.75055
  -3  -4  -1 7005.68  600.83   1 0.63317-0.86536-0.65707 0.20292 0.40907-0.45821
   3  -4   1 7023.32  624.45   1 0.70524-0.47362 0.14689-0.60021 0.69357-0.64453
  -3  -4  -1 6665.93  681.17   1 0.11545-0.34779-0.44434-0.00986 0.88838-0.93751
   3  -4   1 7529.48  539.63   1 0.78712-0.55456 0.17794-0.63192 0.59057-0.54141
  -3   4  -1 9441.86  660.64   1 0.73042-0.96266 0.63566-0.18167-0.24981 0.20066
   3   4   245329.58 1618.41   1-0.02180 0.25544 0.49680-0.04318-0.86758 0.96585
  -3   4  -245762.12 1654.83   1 0.16970-0.40326 0.17489 0.27872-0.96985 0.87160
  -3  -4  -238519.00 1343.72   1 0.38949-0.62300-0.31052-0.14300-0.86710 0.76903
  -3  -4  -244941.14 1684.11   1 0.61176-0.84526-0.69430 0.24015 0.37905-0.47733
   3  -4   239818.50 1506.44   1 0.68879-0.45590 0.20710-0.66041 0.69474-0.59665
  -3  -4  -239025.68 1404.07   1 0.02016-0.25383-0.49602 0.04181 0.86807-0.96634
   3  -4   242344.66 1486.07   1 0.81711-0.58350 0.23678-0.69056 0.52560-0.42735
  -3   4  -239907.96 1388.07   1 0.74223-0.97581 0.63036-0.17636-0.22744 0.12914
   3   4   363658.57 2175.78   1-0.10935 0.34431 0.62036-0.16677-0.77665 0.92392
  -3   4  -365262.00 2321.36   1 0.20712-0.44203 0.10288 0.35068-0.97288 0.82560
  -3  -4  -363088.15 2160.83   1 0.34237-0.57728-0.19041-0.26308-0.92006 0.77300
  -3  -4  -369638.03 2494.37   1 0.58892-0.82373-0.72926 0.27511 0.34832-0.49574
   3  -4   372298.71 2572.67   1 0.67155-0.43740 0.26096-0.71427 0.69347-0.54633
  -3  -4  -368877.90 2440.66   1-0.07778-0.15733-0.54327 0.08927 0.83594-0.98350
   3  -4   369131.10 2386.10   1 0.83368-0.59873 0.27544-0.72923 0.47864-0.33127
  -3   4  -418372.49 1297.46   1 0.24039-0.47668 0.03610 0.41746-0.97000 0.77362
  -3  -4  -425608.77 1700.42   1 0.28952-0.52581-0.06831-0.38525-0.95472 0.75835
  -3  -4  -428780.40 1980.66   1 0.56481-0.80093-0.76187 0.30772 0.31706-0.51362
  -3  -4  -428348.28 1938.72   1-0.17561-0.06090-0.58339 0.12939 0.79297-0.98972
   3  -4   428533.77 1908.46   1 0.84303-0.60673 0.30103-0.75482 0.44573-0.24923
  -3  -4  -5118117.2 3770.14   1 0.23522-0.47290 0.04666-0.50023-0.97081 0.72534
  -3   4  -5171912.2 5547.14   1 0.26930-0.50698-0.02443 0.47800-0.96274 0.71727
  -3  -4  -5137018.0 4369.76   1 0.25243-0.49032-0.79022 0.33620 0.55840-0.80408
   3  -4   5150669.4 4885.26   1 0.63778-0.40108 0.34952-0.80283 0.68634-0.44111
   3  -4   5140086.7 4503.28   1 0.84841-0.61077 0.31782-0.77161 0.42328-0.17766
  -3  -4  -618568.80 1907.37   1 0.18328-0.42234 0.14902-0.60259-0.97169 0.67713
  -3  -4  -623667.56  861.84   1 0.30691-0.54619-0.83913 0.38510 0.44907-0.74388
  -3  -4  -622692.06 1250.38   1 0.51300-0.75184-0.82009 0.36614 0.25353-0.54833
   3  -4   624854.75 1017.12   1 0.62240-0.38444 0.38461-0.83792 0.68167-0.38740
   3  -4   625317.26  976.72   1 0.85149-0.61249 0.32841-0.78220 0.40878-0.11403
  -3  -4  -786086.75 2808.68   1 0.34955-0.59023-0.86998 0.41609 0.34775-0.69172
  -3  -4  -767964.65 2310.57   1 0.48581-0.72599-0.84556 0.39161 0.22137-0.56531
   3  -4   787691.86 2961.82   1 0.60921-0.36952 0.41384-0.86755 0.67645-0.33285
   3  -4   781789.30 2733.39   1 0.85312-0.61278 0.33443-0.78822 0.40040-0.05653
   3   4   768500.56 2285.11   1 0.43761-0.19724 0.65548-0.20162-0.61549 0.95939
  -3   4  -8  367.61  276.10   1 0.33185-0.57383-0.16520 0.61870-0.92875 0.53658
  -3  -4  -8  350.76  175.60   1 0.38337-0.62543-0.88753 0.43364 0.25556-0.64868
  -3  -4  -8  570.38  269.40   1 0.45782-0.69932-0.86869 0.41475 0.18910-0.58217
   3  -4   8  526.86  474.13   1 0.59723-0.35624 0.43798-0.89169 0.67192-0.27923
   3  -4   8 1191.82  413.53   1 0.85379-0.61210 0.33697-0.79076 0.39684-0.00384
   3   4   8 1070.00  378.05   1 0.50995-0.26840 0.66375-0.20990-0.54714 0.94015
  -3   4  -9 1944.38  364.86   1 0.34609-0.58949-0.19944 0.65294-0.91675 0.47556
  -3  -4  -9 1313.41  277.16   1 0.40937-0.65263-0.89571 0.44184 0.17349-0.61550
  -3  -4  -9 1550.20  341.25   1 0.42908-0.67192-0.88955 0.43560 0.15676-0.59897
   3  -4   9 1766.14  359.28   1 0.58720-0.34491 0.45728-0.91099 0.66789-0.22612
   3  -4   9 1730.50  408.48   1 0.85374-0.61071 0.33678-0.79057 0.39711 0.04501
   3   4   9 2457.95  424.52   1 0.57394-0.33104 0.66527-0.21142-0.47748 0.91962
  -3   4 -10 3678.57  424.82   1 0.35766-0.60248-0.22802 0.68152-0.90558 0.41536
  -3  -4 -10 1772.71  313.73   1 0.43033-0.67497-0.89726 0.44338 0.09864-0.58976
  -3  -4 -10 1130.71  411.39   1 0.39888-0.64315-0.90847 0.45483 0.12477-0.61601
   3  -4  10 1351.89  300.21   1 0.57920-0.33560 0.47214-0.92585 0.66453-0.17367
   3  -4  10 1588.83  298.34   1 0.85311-0.60873 0.33437-0.78816 0.40048 0.09076
   3   4  10 2884.62  377.74   1 0.62954-0.38529 0.66126-0.20741-0.40791 0.89918
  -3   4 -1129805.27 1715.30   1 0.36695-0.61318-0.25148 0.70498-0.89560 0.35636
  -3  -4 -1130042.81 1676.52   1 0.44696-0.69297-0.89402 0.44014 0.03077-0.57100
  -3  -4 -1129292.89 1732.63   1 0.36882-0.61444-0.92489 0.47125 0.09238-0.63275
   3  -4  1132693.70 1883.30   1 0.57323-0.32832 0.48294-0.93665 0.66194-0.12199
   3  -4  1132514.03 1885.46   1 0.85196-0.60624 0.33012-0.78391 0.40640 0.13396
   3   4  1128665.11 1615.36   1 0.67728-0.43165 0.65287-0.19888-0.33918 0.87984
  -3   4 -1218155.54 1346.77   1 0.37427-0.62192-0.27033 0.72384-0.88703 0.29878
  -3  -4 -1223607.12 1615.03   1 0.46020-0.70760-0.88726 0.43338-0.03124-0.55809
  -3  -4 -1223287.00 1689.84   1 0.33817-0.58512-0.93916 0.48552 0.06003-0.64953
   3  -4  1223743.27 1695.06   1 0.56926-0.32305 0.48999-0.94370 0.66018-0.07115
   3  -4  1223752.80 1663.96   1 0.85032-0.60325 0.32431-0.77809 0.41444 0.17505
   3   4  1218925.84 1336.37   1 0.71792-0.47095 0.64062-0.18662-0.27237 0.86218
  -3   4 -13 5617.52 1073.92   1 0.37989-0.62896-0.28507 0.73857-0.88000 0.24272
  -3  -4 -13 2943.63  614.92   1 0.47088-0.71958-0.87774 0.42350-0.08851-0.55031
  -3  -4 -13 3589.48  742.08   1 0.30694-0.55523-0.95132 0.49768 0.02773-0.66635
   3  -4  13 2620.13  556.22   1 0.56722-0.31971 0.49356-0.94727 0.65927-0.02115
   3  -4  13 2368.84  576.14   1 0.84820-0.59978 0.31712-0.77091 0.42424 0.21437
   3   4  13 4589.94  837.03   1 0.75221-0.50391 0.62534-0.17135-0.20762 0.84658
  -3   4 -14 6091.71  644.55   1 0.38406-0.63454-0.29611 0.74961-0.87453 0.18823
  -3  -4 -14 4961.54 1033.55   1 0.47926-0.72932-0.86615 0.41191-0.14169-0.54626
  -3  -4 -14 6811.01  848.77   1 0.27515-0.52478-0.96138 0.50774-0.00452-0.68321
   3  -4  14 5933.55  642.61   1 0.56704-0.31822 0.49389-0.94760 0.65919 0.02801
   3  -4  14 4850.37 1025.34   1 0.84557-0.59580 0.30871-0.76250 0.43555 0.25219
   3   4  14 6410.13  669.66   1 0.78087-0.53122 0.60761-0.15362-0.14507 0.83318
  -3   4 -15  190.90  357.46   1 0.38694-0.63884-0.30384 0.75734-0.87060 0.13527
  -3  -4 -15  -87.06  231.26   1 0.48584-0.73726-0.85279 0.39855-0.19158-0.54552
  -3  -4 -15  -72.17  299.29   1 0.24281-0.49377-0.96937 0.51573-0.03672-0.70013
   3  -4  15  763.98  394.29   1 0.56861-0.31848 0.49113-0.94484 0.65989 0.07639
   3  -4  15 1108.20  454.94   1 0.84240-0.59129 0.29920-0.75299 0.44813 0.28873
   3   4  15  800.27  367.30   1 0.80435-0.55366 0.58805-0.13429-0.08486 0.82183
   3   5 -14 1061.04  525.99   1 0.42175-0.21051-0.40253 0.96943-0.81246 0.12598
   3  -5 -14 1103.57  516.41   1 0.38787-0.17631-0.88931 0.32194 0.24223-0.93019
   3  -5 -14  268.06  262.72   1 0.49535-0.28311-0.83698 0.26955 0.23255-0.92042
  -3  -5  14   84.20  338.76   1 0.63064-0.84211-0.03487-0.53211 0.77528-0.08772
   3   5 -13  890.43  494.77   1 0.41918-0.20654-0.39480 0.96171-0.81756 0.18012
   3  -5 -13  636.55  318.69   1 0.53477-0.32121-0.79727 0.22983 0.27995-0.91869
  -3  -5  13 1356.56  426.43   1 0.62560-0.83844-0.04046-0.52652 0.77909-0.14064
   3   5 -1238899.66 2592.24   1 0.41542-0.20140-0.38365 0.95056-0.82475 0.23635
   3  -5 -1243463.78 2865.18   1 0.34679-0.13246-0.86827 0.30090 0.35473-0.94440
   3  -5 -1237535.83 2500.05   1 0.57182-0.35665-0.75280 0.18511 0.32604-0.91571
  -3  -5  1236841.39 2477.35   1 0.61828-0.83251-0.04848-0.51850 0.78445-0.19511
   3   5 -11 8113.17  797.73   1 0.41026-0.19484-0.36857 0.93548-0.83416 0.29479
   3  -5 -11 7304.58 1348.12   1 0.32299-0.10728-0.85197 0.28461 0.41208-0.95262
   3  -5 -11 7664.77  779.05   1 0.60550-0.38902-0.70433 0.13664 0.37050-0.91103
  -3  -5  11 7597.60  678.12   1 0.74016-0.95656-0.28399-0.28304 0.60951-0.06975
  -3  -5  11 6768.44 1208.06   1 0.60841-0.82401-0.05914-0.50784 0.79141-0.25118
   3   5 -10 9447.73 1134.02   1 0.40338-0.18657-0.34893 0.91584-0.84588 0.35554
   3  -5 -10 8507.48 1063.78   1 0.29721-0.08019-0.83116 0.26363 0.46992-0.96128
   3  -5 -10 9619.31 1176.94   1 0.63595-0.41816-0.65187 0.08418 0.41307-0.90446
  -3  -5  10 9002.96 1032.03   1 0.73878-0.95648-0.29829-0.26874 0.60433-0.11364
  -3  -5  10 9633.77 1163.15   1 0.59560-0.81258-0.07271-0.49427 0.79998-0.30886
   3   5  -9 9635.37 1109.26   1 0.39443-0.17622-0.32399 0.89090-0.85991 0.41860
   3  -5  -9 7312.37  872.42   1 0.26870-0.05028-0.80583 0.23830 0.52766-0.96988
   3  -5  -9 7707.51  971.14   1 0.66293-0.44383-0.59576 0.02807 0.45341-0.89566
  -3  -5   9 7304.04  810.88   1 0.73669-0.95568-0.31714-0.24989 0.59724-0.15562
  -3  -5   9 8726.59  994.03   1 0.57941-0.79777-0.08944-0.47755 0.81011-0.36810
   3   5  -8 5453.24  617.01   1 0.38280-0.16347-0.29276 0.85963-0.87621 0.48404
   3  -5  -8 5988.20  606.47   1 0.23774-0.01794-0.77548 0.20796 0.58488-0.97797
   3  -5  -8 5581.10  614.25   1 0.68622-0.46554-0.53624-0.03148 0.49145-0.88446
  -3  -5   8 5221.03  444.47   1 0.73372-0.95401-0.33998-0.22705 0.58826-0.19571
  -3  -5   8 6262.73  636.71   1 0.55882-0.77884-0.10970-0.45712 0.82199-0.42945
   3   5  -738549.86 2271.19   1 0.36809-0.14735-0.25441 0.82129-0.89430 0.55115
   3  -5  -735323.88 2093.80   1 0.20440 0.01679-0.73987 0.17234 0.64094-0.98489
   3  -5  -738393.52 2283.56   1 0.70562-0.48367-0.47436-0.09337 0.52637-0.87025
  -3  -5   738083.39 2203.61   1 0.72925-0.95120-0.36652-0.20121 0.57778-0.23391
  -3  -5   737082.12 2194.56   1 0.53426-0.75560-0.13351-0.43331 0.83470-0.49122
  -3   5   627105.68 1292.22   1-0.17067-0.05174 0.69796-0.13097-0.69550 0.99003
   3   5  -624319.64 1159.60   1 0.34947-0.12731-0.20772 0.77460-0.91362 0.61949
   3  -5  -626273.36 1248.44   1 0.72106-0.49783-0.41053-0.15720 0.55815-0.85290
  -3  -5   627690.16 1251.30   1 0.72405-0.94727-0.39561-0.17212 0.56500-0.27025
  -3  -5   626471.59 1247.73   1 0.50454-0.72719-0.16123-0.40559 0.84819-0.55378
  -3   5   511444.69 1912.03   1-0.13322-0.09058 0.65150-0.08452-0.74685 0.99229
   3   5  -510544.89 1244.10   1 0.32606-0.10248-0.15154 0.71842-0.93312 0.68801
  -3  -5   5 9485.05 1144.31   1 0.71749-0.94199-0.42700-0.14072 0.55033-0.30470
   3  -5  -5 9342.00 1183.62   1 0.73303-0.50886-0.34479-0.22224 0.58631-0.83166
  -3  -5   5 8592.96 1085.85   1 0.46893-0.69290-0.19299-0.37383 0.86188-0.61654
  -3   5   440590.78 2152.18   1-0.09417-0.13103 0.59995-0.03296-0.79447 0.99082
   3   5  -436396.14 1870.36   1 0.29687-0.07188-0.08483 0.65171-0.95114 0.75505
  -3  -5   431675.17 1655.50   1 0.70944-0.93522-0.46013-0.10760 0.53381-0.33731
   3  -5  -430750.50 1681.98   1 0.74056-0.51510-0.27939-0.28765 0.61114-0.80742
  -3  -5   431856.87 1697.24   1 0.42672-0.65200-0.22879-0.33803 0.87496-0.67868
  -3   5   314704.21 1356.09   1-0.05400-0.17273 0.54408 0.02294-0.83729 0.98470
   3   5  -313104.99  741.47   1 0.26122-0.03459-0.00726 0.57422-0.96525 0.81796
  -3  -5   316751.12  980.26   1 0.69983-0.92688-0.49445-0.07328 0.51550-0.36813
   3  -5  -314074.38  885.86   1 0.74436-0.51760-0.21446-0.35257 0.63239-0.77959
  -3  -5   314681.08  861.33   1 0.37725-0.60385-0.26844-0.29838 0.88634-0.73914
  -3   5   218419.04 1938.60   1-0.01340-0.21471 0.48415 0.08287-0.87488 0.97315
   3   5  -215994.65 1677.24   1 0.21777 0.01022 0.08181 0.48514-0.97256 0.87437
  -3  -5   218452.82 1952.84   1 0.68858-0.91690-0.52945-0.03828 0.49550-0.39725
   3  -5  -218672.70 2027.87   1 0.74472-0.51667-0.15086-0.41617 0.65009-0.74822
   3  -5  -216575.75 1690.58   1 0.10892 0.11943-0.44808-0.11968 0.88733-0.98560
  -3  -5   219953.61 2425.52   1 0.32006-0.54805-0.31159-0.25524 0.89468-0.79654
  -3   5   216067.77 1638.33   1 0.62800-0.85605 0.66145-0.09414-0.40997 0.50823
  -3   5   1  703.70  346.69   1 0.02694-0.25644 0.42153 0.14549-0.90641 0.95554
   3   5  -1  413.44  149.59   1 0.16662 0.06284 0.18066 0.38636-0.96932 0.92020
  -3  -5   1   85.77  273.73   1 0.67568-0.90528-0.56466-0.00307 0.47391-0.42479
   3  -5  -1 1081.57  311.33   1 0.74220-0.51300-0.08921-0.47759 0.66420-0.71325
  -3  -5   1 1437.49  300.80   1 0.25493-0.48423-0.35726-0.20957 0.89853-0.84946
   3  -5  -1 1200.17  165.92   1 0.41069-0.18147-0.24190-0.32492 0.87909-0.92816
  -3   5   1  339.18   90.16   1 0.70855-0.93812 0.64393-0.07644-0.28860 0.33775
  -3   5   0 9888.64 1381.93   1 0.06636-0.29720 0.35751 0.20951-0.93154 0.93154
   3   5   0 9678.94 1029.05   1 0.10802 0.12280 0.28652 0.28050-0.95196 0.95196
  -3  -5   011715.34 1279.89   1 0.66120-0.89208-0.59971 0.03202 0.45073-0.45073
   3  -5   012411.18 1368.79   1 0.73691-0.50646-0.03064-0.53617 0.67528-0.67528
  -3  -5   012804.23 1664.89   1 0.18216-0.41276-0.40443-0.16240 0.89624-0.89624
   3  -5   010566.37 1102.25   1 0.57084-0.34007-0.09812-0.46886 0.81517-0.81517
  -3   5   0 8877.74  930.10   1 0.73953-0.97044 0.63163-0.06413-0.23264 0.23264
   3   5   162868.87 2067.94   1 0.04353 0.18872 0.39490 0.17212-0.91769 0.96682
  -3   5  -163879.40 2224.72   1 0.10404-0.33623 0.29346 0.27357-0.95029 0.90116
  -3  -5  -154310.21 1915.87   1 0.64502-0.87722-0.63418 0.06649 0.42631-0.47545
   3  -5   153647.69 1906.71   1 0.72954-0.49783 0.02447-0.59129 0.68349-0.63445
  -3  -5  -152166.29 1809.88   1 0.10203-0.33438-0.45199-0.11577 0.88616-0.93530
   3  -5   153258.76 1753.25   1 0.66395-0.43181 0.00346-0.57045 0.74776-0.69865
  -3   5  -158544.93 1912.57   1 0.75408-0.98632 0.62435-0.05685-0.20381 0.15466
   3   5   271399.16 2333.14   1-0.02399 0.25763 0.50007 0.06695-0.86564 0.96392
  -3   5  -271315.40 2586.69   1 0.13942-0.37298 0.23070 0.33632-0.96298 0.86473
  -3  -5  -273272.42 2497.40   1 0.62730-0.86080-0.66777 0.10008 0.40071-0.49898
   3  -5   272711.65 2510.09   1 0.72060-0.48765 0.07566-0.64248 0.68919-0.59110
  -3  -5  -264314.08 2297.17   1 0.01706-0.25073-0.49760-0.07016 0.86723-0.96550
   3  -5   274520.42 2442.39   1 0.72081-0.48685 0.07604-0.64352 0.68894-0.59063
   3   5   323493.39 1233.19   1-0.09154 0.32651 0.59637-0.02938-0.79746 0.94473
  -3   5  -325889.62 2424.91   1 0.17207-0.40698 0.17045 0.39657-0.97022 0.82285
  -3  -5  -334847.72 1862.56   1 0.60810-0.84291-0.70021 0.13252 0.37404-0.52146
   3  -5   336757.94 1939.48   1 0.71065-0.47644 0.12258-0.68940 0.69278-0.54563
  -3  -5  -334597.07 1807.32   1-0.07100-0.16411-0.54025-0.02725 0.83850-0.98606
   3  -5   336503.23 1859.22   1 0.75716-0.52180 0.12874-0.69622 0.64040-0.49294
   3   5   4 6153.48  374.67   1-0.15579 0.39215 0.67987-0.11288-0.71659 0.91294
  -3   5  -4 6064.74  499.36   1 0.20156-0.43785 0.11377 0.45318-0.97284 0.77646
  -3  -5  -4 3618.34  398.43   1 0.58750-0.82362-0.73130 0.16361 0.34645-0.54301
   3  -5   4 2683.31  348.26   1 0.70054-0.46512 0.16522-0.73186 0.69421-0.49803
  -3  -5  -4 3892.70  705.85   1-0.16059-0.07592-0.57767 0.01017 0.80031-0.99706
   3  -5   4 4602.40  392.34   1 0.78089-0.54412 0.16715-0.73463 0.60188-0.40526
  -3   5  -5 4990.64  740.72   1 0.22801-0.46568 0.06130 0.50565-0.97172 0.72625
  -3  -5  -5 4694.37  594.36   1 0.21168-0.44957-0.74789 0.18036 0.62916-0.87484
  -3  -5  -5 6338.91  876.14   1 0.56559-0.80302-0.76087 0.19319 0.31806-0.56376
   3  -5   5 5361.49  763.05   1 0.68998-0.45329 0.20306-0.76971 0.69475-0.44952
  -3  -5  -5 4426.94  580.81   1-0.24887 0.01096-0.60896 0.04145 0.75314-0.99908
   3  -5   5 5678.35  702.93   1 0.79666-0.55849 0.19516-0.76264 0.57204-0.32627
  -3   5  -652029.23 2276.14   1 0.25130-0.49036 0.01353 0.55342-0.96781 0.67324
  -3  -5  -643527.72 1840.79   1 0.26366-0.50294-0.80108 0.23355 0.53735-0.83216
  -3  -5  -644279.17 1980.12   1 0.54218-0.78102-0.78896 0.22153 0.28908-0.58388
   3  -5   647907.28 2118.28   1 0.67973-0.44177 0.23634-0.80298 0.69433-0.40005
   3  -5   647656.14 2048.11   1 0.80723-0.56766 0.21543-0.78290 0.54950-0.25458
   3   5   657196.60 2434.68   1 0.33154-0.09253 0.63394-0.06662-0.69870 0.99347
  -3   5  -7 2076.24  356.66   1 0.27157-0.51201-0.02930 0.59626-0.96197 0.61830
  -3  -5  -7  593.06  244.72   1 0.30820-0.54887-0.84016 0.27263 0.44624-0.79019
  -3  -5  -7  336.28  281.29   1 0.51786-0.75804-0.81519 0.24775 0.25938-0.60331
   3  -5   7 1126.44  491.17   1 0.67012-0.43089 0.26514-0.83178 0.69328-0.34995
   3  -5   7  128.38  247.38   1 0.81428-0.57330 0.22977-0.79725 0.53305-0.18898
   3   5   7 2290.76  370.97   1 0.41135-0.17098 0.65115-0.08382-0.63779 0.98170
  -3   5  -819623.36 1476.44   1 0.28900-0.53082-0.06718 0.63414-0.95496 0.56221
  -3  -5  -827614.70 1955.48   1 0.34524-0.58731-0.86729 0.29992 0.35861-0.75173
  -3  -5  -825908.54 1927.82   1 0.49248-0.73398-0.83960 0.27217 0.22917-0.62224
   3  -5   827714.55 2064.72   1 0.66139-0.42089 0.28959-0.85623 0.69187-0.29950
   3  -5   829476.06 2133.02   1 0.81833-0.57665 0.23942-0.80666 0.52249-0.12949
   3   5   819502.92 1431.00   1 0.48462-0.24288 0.66139-0.09406-0.57245 0.96548
  -3   5  -918576.87 1140.11   1 0.30354-0.54694-0.09977 0.66665-0.94757 0.50638
  -3  -5  -921795.91 1257.77   1 0.37647-0.61992-0.88453 0.31716 0.27544-0.71769
  -3  -5  -920044.45 1275.44   1 0.46608-0.70892-0.86217 0.29473 0.19854-0.64075
   3  -5   920675.15 1238.60   1 0.65376-0.41199 0.30988-0.87652 0.69033-0.24892
   3  -5   920646.89 1230.55   1 0.82108-0.57805 0.24547-0.81270 0.51532-0.07320
   3   5   919767.28 1155.55   1 0.55032-0.30742 0.66540-0.09808-0.50436 0.94650
  -3  -5 -10 7313.99 1200.42   1 0.40177-0.64640-0.89398 0.32664 0.19841-0.68953
  -3  -5 -10 6071.43 1058.14   1 0.43875-0.68291-0.88284 0.31541 0.16755-0.65889
   3  -5  10 9255.19  837.91   1 0.64735-0.40432 0.32619-0.89283 0.68885-0.19839
   3  -5  10 6316.02 1135.38   1 0.82243-0.57805 0.24850-0.81573 0.51170-0.02045
   3   5  10 8211.16 1400.61   1 0.60886-0.36461 0.66342-0.09610-0.43492 0.92618
  -3   5 -11 3590.34  716.07   1 0.32636-0.57259-0.15226 0.71913-0.93289 0.39366
  -3  -5 -11 2721.35  538.14   1 0.42309-0.66911-0.89733 0.32998 0.12564-0.66588
  -3  -5 -11 3645.51  808.14   1 0.40975-0.65536-0.90190 0.33485 0.13665-0.67702
   3  -5  11 4355.58  852.07   1 0.64227-0.39796 0.33873-0.90537 0.68756-0.14805
   3  -5  11 2782.90  579.30   1 0.82266-0.57694 0.24902-0.81625 0.51108 0.02929
   3   5  11 3097.08  582.32   1 0.66001-0.41441 0.65644-0.08913-0.36532 0.90571
  -3   5 -12 1675.98  580.30   1 0.33483-0.58248-0.17229 0.73917-0.92639 0.33813
  -3  -5 -12 1688.60  479.05   1 0.44062-0.68802-0.89583 0.32848 0.05774-0.64708
  -3  -5 -12 1916.82  574.35   1 0.38067-0.62762-0.91872 0.35167 0.10506-0.69456
   3  -5  12 1740.60  555.21   1 0.63856-0.39298 0.34766-0.91430 0.68656-0.09800
   3  -5  12 1664.54  563.86   1 0.82195-0.57488 0.24741-0.81465 0.51300 0.07649
   3   5  12 1188.56  406.42   1 0.70407-0.45710 0.64540-0.07791-0.29617 0.88599
  -3   5 -13 1767.21  457.29   1 0.34162-0.59069-0.18860 0.75547-0.92071 0.28343
  -3  -5 -13  832.72  321.28   1 0.35077-0.59906-0.93358 0.36654 0.07325-0.71187
   3  -5  13 2368.75  578.20   1 0.63624-0.38939 0.35316-0.91980 0.68591-0.04831
   3  -5  13 3055.83  625.61   1 0.82041-0.57199 0.24397-0.81120 0.51710 0.12151
   3   5  13 1822.91  417.19   1 0.74165-0.49334 0.63064-0.06314-0.22857 0.86753
   3   6 -1112060.01 1045.44   1 0.36263-0.14755-0.24051 0.92077-0.90035 0.36112
   3  -6 -1110037.90  869.39   1 0.31013-0.09450-0.84170 0.16067 0.44198-0.98247
   3  -6 -1111340.53 1005.27   1 0.61113-0.39465-0.69533 0.01410 0.37819-0.91872
  -3  -6  1110956.99  946.48   1 0.55645-0.77253-0.11204-0.56815 0.82329-0.28354
   3   6 -10 1336.83  428.52   1 0.35323-0.13673-0.21700 0.89725-0.91001 0.41980
   3  -6 -10 1583.47  458.19   1 0.28433-0.06731-0.82005 0.13902 0.49664-0.98799
   3  -6 -10 1688.84  458.55   1 0.63769-0.41990-0.64856-0.03266 0.41558-0.90698
  -3  -6  10 1179.69  304.10   1 0.72858-0.94671-0.37056-0.31071 0.57605-0.08480
  -3  -6  10 1465.98  513.67   1 0.54226-0.75965-0.12586-0.55433 0.83072-0.34004
   3   6  -9 2388.90  603.64   1 0.34158-0.12366-0.18849 0.86875-0.92075 0.47956
   3  -6  -9 3637.70  704.16   1 0.25663-0.03821-0.79433 0.11330 0.55060-0.99282
   3  -6  -9 2971.12  631.45   1 0.66132-0.44222-0.59943-0.08178 0.45091-0.89316
  -3  -6   9 2550.95  508.45   1 0.72640-0.94580-0.38305-0.29823 0.57062-0.12849
  -3  -6   9 2818.64  582.39   1 0.52478-0.74348-0.14249-0.53770 0.83922-0.39761
   3   6  -843969.84 3584.66   1 0.32728-0.10795-0.15443 0.83468-0.93221 0.54004
   3  -6  -835260.07 2909.94   1 0.22709-0.00728-0.76441 0.08338 0.60340-0.99649
   3  -6  -837596.11 3079.40   1 0.68193-0.46125-0.54817-0.13311 0.48422-0.87722
  -3  -6   837259.76 3017.43   1 0.72339-0.94406-0.39901-0.28227 0.56346-0.17046
  -3  -6   838749.55 3166.69   1 0.50358-0.72360-0.16211-0.51808 0.84860-0.45605
   3   6  -711223.57  889.02   1 0.30990-0.08916-0.11421 0.79446-0.94388 0.60073
   3  -6  -7 6743.23 1180.38   1 0.19582 0.02537-0.73024 0.04921 0.65451-0.99846
   3  -6  -7 7923.78 1339.88   1 0.69949-0.47754-0.49558-0.18569 0.51488-0.85876
  -3  -6   7 6877.85 1148.66   1 0.71947-0.94142-0.41802-0.26325 0.55462-0.21075
  -3  -6   7 7258.97 1266.80   1 0.47819-0.69952-0.18488-0.49531 0.85857-0.51509
  -3   6   628105.03 1746.76   1-0.16492-0.05748 0.69103-0.01064-0.70375 0.99828
   3   6  -625635.84 1600.09   1 0.28923-0.06675-0.06767 0.74803-0.95486 0.66029
  -3  -6   633303.27 2022.48   1 0.71455-0.93777-0.43968-0.24160 0.54414-0.24939
   3  -6  -630912.97 1944.69   1 0.71400-0.49078-0.44195-0.23932 0.54301-0.83776
  -3  -6   631169.45 1938.30   1 0.44809-0.67074-0.21091-0.46928 0.86875-0.57434
  -3   6   5 2142.10  376.09   1-0.13099-0.09281 0.64864 0.03173-0.74973 0.99517
   3   6  -5 2303.79  398.46   1 0.26421-0.04035-0.01359 0.69394-0.96436 0.71889
  -3  -6   5 1795.78  337.31   1 0.70854-0.93304-0.46357-0.21771 0.53203-0.28640
   3  -6  -5 2408.52  560.50   1 0.72553-0.50103-0.38780-0.29348 0.56851-0.81414
  -3  -6   5 1300.29  319.49   1 0.41276-0.63672-0.24022-0.43997 0.87858-0.63324
  -3   6   4  951.57  343.14   1-0.09613-0.12907 0.60261 0.07777-0.79222 0.98858
   3   6  -4  852.94  204.15   1 0.23463-0.00938 0.04788 0.63247-0.97090 0.77452
  -3  -6   4  853.19  206.78   1 0.70135-0.92713-0.48931-0.19197 0.51832-0.32182
   3  -6  -4 1523.70  462.32   1 0.73468-0.50922-0.33294-0.34750 0.59108-0.78735
  -3  -6   4 1921.60  417.06   1 0.37168-0.59696-0.27276-0.40742 0.88738-0.69110
  -3   6   311048.71 1558.15   1-0.06070-0.16604 0.55366 0.12677-0.83052 0.97793
   3   6  -3 8761.64  961.53   1 0.20010 0.02651 0.11661 0.56374-0.97280 0.82552
  -3  -6   311248.00  782.62   1 0.69291-0.91996-0.51651-0.16476 0.50306-0.35568
   3  -6  -3 8826.48 1107.11   1 0.74057-0.51380-0.27935-0.40109 0.61115-0.75836
  -3  -6   311629.09 1342.75   1 0.32443-0.55112-0.30840-0.37180 0.89421-0.74700
  -3   6   2 5580.57  696.02   1-0.02524-0.20287 0.50195 0.17848-0.86452 0.96280
   3   6  -2 6228.96  836.07   1 0.16058 0.06751 0.19191 0.48852-0.96818 0.86993
  -3  -6   2 2338.57  401.67   1 0.68316-0.91148-0.54481-0.13647 0.48627-0.38802
   3  -6  -2 1811.32  465.90   1 0.74391-0.51586-0.22685-0.45360 0.62859-0.72672
  -3  -6   2 3058.72  397.27   1 0.27067-0.49866-0.34653-0.33367 0.89813-0.79999
  -3   6   1 6807.83  743.90   1 0.00978-0.23928 0.44853 0.23190-0.89371 0.94284
   3   6  -1 4600.78  810.24   1 0.11594 0.11352 0.27262 0.40780-0.95510 0.90598
  -3  -6   1 4018.24  465.80   1 0.67205-0.90164-0.57383-0.10744 0.46803-0.41890
   3  -6  -1 5383.74  662.84   1 0.74497-0.51562-0.17595-0.50450 0.64346-0.69253
  -3  -6   1 5350.34  845.93   1 0.21032-0.43962-0.38664-0.29356 0.89792-0.84885
   3  -6  -1 4169.30  455.86   1 0.24855-0.01925-0.36155-0.31864 0.89860-0.94767
  -3   6   037178.08 2694.41   1 0.04391-0.27479 0.39428 0.28614-0.91793 0.91793
   3   6   037326.82 2618.12   1 0.06686 0.16396 0.35668 0.32374-0.93182 0.93182
  -3  -6   035775.80 2554.41   1 0.65960-0.89049-0.60329-0.07792 0.44827-0.44827
   3  -6   035691.93 2585.81   1 0.74403-0.51339-0.12711-0.55333 0.65593-0.65593
  -3  -6   034299.41 2514.12   1 0.14293-0.37394-0.42829-0.25303 0.89226-0.89226
   3  -6   034059.39 2370.49   1 0.41478-0.18424-0.23858-0.44161 0.87808-0.87808
   3   6   116899.92 1379.39   1 0.01425 0.21800 0.44154 0.23888-0.89712 0.94626
  -3   6  -117145.31 2232.86   1 0.07675-0.30894 0.34013 0.34030-0.93723 0.88811
  -3  -6  -117282.92 1312.05   1 0.64568-0.87788-0.63285-0.04836 0.42729-0.47642
   3  -6   115965.04 1256.11   1 0.74160-0.50989-0.08067-0.59950 0.66597-0.61692
  -3  -6  -116695.38 1756.02   1 0.07042-0.30276-0.46953-0.21178 0.88010-0.92923
   3  -6   115530.38 1110.48   1 0.52560-0.29375-0.14171-0.53848 0.83884-0.78977
   3   6   2 2084.99  346.65   1-0.04023 0.27387 0.52410 0.15632-0.85070 0.94897
  -3   6  -2  758.95  240.94   1 0.10778-0.34133 0.28695 0.39348-0.95186 0.85361
  -3  -6  -2 1490.38  322.70   1 0.63037-0.86387-0.66223-0.01899 0.40506-0.50334
   3  -6   2 1074.98  338.99   1 0.73763-0.50468-0.03719-0.64298 0.67416-0.57607
  -3  -6  -2  983.93  207.87   1-0.00686-0.22680-0.50956-0.17175 0.86040-0.95867
   3  -6   2 1570.06  221.54   1 0.60213-0.36861-0.06583-0.61456 0.79567-0.69745
   3   6   3 9195.65  965.90   1-0.09515 0.33011 0.60127 0.07910-0.79335 0.94062
  -3   6  -311318.32 1629.07   1 0.13674-0.37166 0.23554 0.44489-0.96219 0.81482
  -3  -6  -3 7939.26  991.18   1 0.61368-0.84849-0.69116 0.00993 0.38169-0.52910
   3  -6   3 8316.90 1001.96   1 0.73266-0.49846 0.00317-0.68335 0.68058-0.53343
  -3  -6  -3 7706.17 1230.76   1-0.08707-0.14805-0.54736-0.13363 0.83234-0.97990
   3  -6   3 7142.59  775.07   1 0.65514-0.42025-0.00691-0.67347 0.75546-0.60813
   3   6   419818.17 1113.87   1-0.14853 0.38488 0.67085 0.00952-0.72655 0.92291
  -3   6  -422391.94 2321.20   1 0.16343-0.39971 0.18661 0.49382-0.96874 0.77224
  -3  -6  -419095.08 1186.13   1 0.59564-0.83176-0.71942 0.03820 0.35724-0.55380
   3  -6   419815.81 1201.45   1 0.72700-0.49155 0.04023-0.72041 0.68545-0.48925
  -3  -6  -418565.73 1498.34   1-0.16950-0.06700-0.58108-0.09991 0.79599-0.99273
   3  -6   420604.28 1176.75   1 0.69279-0.45651 0.03891-0.71930 0.72008-0.52364
  -3   6  -520925.09 1368.30   1 0.18760-0.42527 0.14077 0.53957-0.97210 0.72663
  -3  -6  -520289.43 1231.03   1 0.19629-0.43418-0.73078 0.04975 0.65376-0.89944
  -3  -6  -523460.58 1520.15   1 0.57630-0.81373-0.74683 0.06561 0.33182-0.57752
   3  -6   520416.33 1358.93   1 0.72096-0.48426 0.07383-0.75401 0.68902-0.44378
  -3  -6  -522271.53 1366.16   1-0.25175 0.01384-0.60988-0.07111 0.75143-0.99737
   3  -6   523332.91 1434.41   1 0.71958-0.48141 0.07436-0.75533 0.69041-0.44464
  -3   6  -6 8933.42 1100.96   1 0.20944-0.44850 0.09832 0.58202-0.97286 0.67829
  -3  -6  -6 8741.98 1003.35   1 0.24304-0.48232-0.78087 0.09984 0.57547-0.87028
   3  -6   610327.64 1759.10   1 0.71482-0.47687 0.10389-0.78407 0.69154-0.39725
   3  -6   610661.57  748.48   1 0.73918-0.49960 0.10189-0.78286 0.66575-0.37082
   3   6   6 9437.19 1088.23   1 0.32972-0.09071 0.63349 0.04730-0.69998 0.99475
  -3   6  -7   63.92  287.59   1 0.22887-0.46931 0.05955 0.62080-0.97163 0.62797
  -3  -6  -7 1087.75  258.80   1 0.28507-0.52574-0.82070 0.13967 0.49514-0.83909
  -3  -6  -7 1345.86  450.29   1 0.53359-0.77377-0.79856 0.11764 0.27850-0.62244
   3  -6   7 2102.48  666.78   1 0.70882-0.46963 0.13039-0.81056 0.69322-0.34988
   3  -6   7 1389.81  353.34   1 0.75338-0.51240 0.12295-0.80392 0.64598-0.30190
   3   6   7  638.19  310.30   1 0.40659-0.16622 0.65029 0.03049-0.64171 0.98561
  -3   6  -8 4702.32  919.21   1 0.24598-0.48780 0.02458 0.65576-0.96896 0.57620
  -3  -6  -8 5791.44 1008.55   1 0.32168-0.56374-0.85100 0.17016 0.41510-0.80822
  -3  -6  -8 6244.48 1173.64   1 0.51057-0.75207-0.82249 0.14157 0.25062-0.64369
   3  -6   8 5598.96 1061.02   1 0.70358-0.46308 0.15350-0.83346 0.69383-0.30146
   3  -6   8 4707.84  875.86   1 0.76359-0.52121 0.13877-0.81975 0.63060-0.23737
   3   6   8 5702.46  994.27   1 0.47845-0.23672 0.66075 0.02003-0.57834 0.97137
  -3   6  -9 2654.24  704.70   1 0.26088-0.50409-0.00655 0.68690-0.96534 0.52349
  -3  -6  -9 2078.08  488.69   1 0.35399-0.59744-0.87266 0.19182 0.33637-0.77863
  -3  -6  -9 1988.78  511.79   1 0.48641-0.72924-0.84503 0.16411 0.22207-0.66427
   3  -6   9 6245.60  791.08   1 0.69849-0.45672 0.17290-0.85287 0.69441-0.25299
   3  -6   9 2058.12  506.94   1 0.77078-0.52700 0.15031-0.83128 0.61911-0.17672
   3   6   9 2834.70  625.41   1 0.54398-0.30108 0.66529 0.01548-0.51133 0.95347
  -3   6 -1015498.66 1596.63   1 0.27373-0.51831-0.03393 0.71428-0.96120 0.47026
  -3  -6 -1012791.08 1279.96   1 0.38178-0.62661-0.88686 0.20603 0.26020-0.75159
  -3  -6 -1012634.85 1406.14   1 0.46117-0.70533-0.86608 0.18515 0.19292-0.68426
   3  -6  1014979.30 1564.68   1 0.69408-0.45105 0.18885-0.86882 0.69467-0.20421
   3  -6  1015257.28 1567.16   1 0.77562-0.53044 0.15828-0.83925 0.61102-0.11948
   3   6  1014534.65 1450.45   1 0.60335-0.35910 0.66385 0.01691-0.44188 0.93314
  -3   6 -11 4198.28  874.38   1 0.28466-0.53063-0.05765 0.73801-0.95689 0.41685
  -3  -6 -11 3534.82  749.47   1 0.43488-0.68038-0.88556 0.20464 0.16323-0.70370
   3  -6  11 5161.27 1024.17   1 0.69047-0.44616 0.20141-0.88138 0.69475-0.15524
   3  -6  11 6259.00  632.57   1 0.77859-0.53200 0.16325-0.84422 0.60592-0.06522
   3   7  -8 3299.33  744.50   1 0.27030-0.05059-0.02658 0.82032-0.96240 0.56965
   3  -7  -8 1720.27  455.69   1 0.22534-0.00553-0.76257-0.03196 0.60638-0.99947
   3  -7  -8 2137.08  579.25   1 0.67331-0.45263-0.57069-0.22413 0.47006-0.86306
  -3  -7   8 2290.10  521.13   1 0.71005-0.93072-0.45781-0.33701 0.53500-0.14200
  -3  -7   8 1459.84  413.43   1 0.44183-0.66185-0.21619-0.57736 0.87065-0.47810
   3   7  -7 5955.07  571.41   1 0.25157-0.03047 0.01298 0.78075-0.96775 0.62409
   3  -7  -7 6709.14  728.93   1 0.19633 0.02486-0.73083-0.06370 0.65371-0.99765
   3  -7  -7 8599.76  902.74   1 0.68992-0.46797-0.52551-0.26931 0.49782-0.84170
  -3  -7   7 8565.85  794.80   1 0.70635-0.92830-0.47169-0.32313 0.52778-0.18390
  -3  -7   7 5531.76  687.20   1 0.41559-0.63693-0.23792-0.55563 0.87787-0.53440
  -3   7   6 1005.13  416.58   1-0.16818-0.05423 0.69496 0.09881-0.69909 0.99362
   3   7  -6  280.69  261.23   1 0.22976-0.00728 0.05776 0.73597-0.97153 0.67696
  -3  -7   6  692.92  374.06   1 0.70173-0.92496-0.48801-0.30681 0.51903-0.22428
   3  -7  -6  236.67  341.72   1 0.70410-0.48088-0.47979-0.31503 0.52348-0.81823
  -3  -7   6  665.03  372.54   1 0.38501-0.60766-0.26238-0.53117 0.88482-0.59041
  -3   7   5 6747.70 1147.40   1-0.13743-0.08637 0.65687 0.13690-0.74136 0.98681
   3   7  -5 6789.32  670.02   1 0.20461 0.01924 0.10781 0.68592-0.97288 0.72741
  -3  -7   510578.30 1009.50   1 0.69614-0.92064-0.50646-0.28837 0.50880-0.26317
   3  -7  -5 8843.11  903.54   1 0.71591-0.49141-0.43390-0.36093 0.54698-0.79261
  -3  -7   5 7873.99 1291.21   1 0.34971-0.57380-0.28964-0.50393 0.89095-0.64560
  -3   7   427575.60 2950.57   1-0.10614-0.11906 0.61608 0.17770-0.78049 0.97685
   3   7  -424071.54 2190.59   1 0.17604 0.04933 0.16295 0.63088-0.97079 0.77430
  -3  -7   424815.30 2117.52   1 0.68951-0.91528-0.52673-0.26810 0.49711-0.30061
   3  -7  -425331.35 2237.28   1 0.72545-0.49968-0.38821-0.40662 0.56833-0.76483
  -3  -7   424013.33 2062.84   1 0.30931-0.53470-0.31936-0.47420 0.89572-0.69944
  -3   7   3  349.87  268.49   1-0.07462-0.15197 0.57300 0.22077-0.81614 0.96341
   3   7  -3  371.58  269.48   1 0.14370 0.08304 0.22294 0.57090-0.96418 0.81680
  -3  -7   3  740.17  408.87   1 0.68180-0.90885-0.54852-0.24630 0.48400-0.33662
   3  -7  -3 1315.66  516.05   1 0.73338-0.50662-0.34238-0.45147 0.58729-0.73450
  -3  -7   3  175.80  190.33   1 0.26351-0.49019-0.35144-0.44213 0.89835-0.75114
  -3   7   2 1800.59  483.04   1-0.04314-0.18498 0.52835 0.26548-0.84792 0.94620
   3   7  -2 1918.98  476.50   1 0.10774 0.12036 0.28701 0.50683-0.95184 0.85360
  -3  -7   2 2378.27  552.39   1 0.67296-0.90128-0.57156-0.22327 0.46950-0.37125
   3  -7  -2 1878.71  485.40   1 0.73879-0.51073-0.29822-0.49563 0.60435-0.70249
  -3  -7   2 2852.17  550.20   1 0.21211-0.44010-0.38549-0.40808 0.89799-0.79985
  -3   7   1 1298.73  425.58   1-0.01218-0.21731 0.48230 0.31153-0.87591 0.92505
  -3  -7   1 1108.90  424.59   1 0.66303-0.89260-0.59553-0.19922 0.45356-0.40442
   3  -7  -1  708.55  367.07   1 0.74238-0.51303-0.25538-0.53847 0.61938-0.66845
  -3  -7   1  790.89  316.28   1 0.15430-0.38399-0.42149-0.37338 0.89360-0.84447
   3   7   0  212.21  161.69   1 0.02607 0.20480 0.42291 0.37092-0.90579 0.90579
  -3   7   0  434.02  237.75   1 0.01797-0.24885 0.43572 0.35811-0.89990 0.89990
  -3  -7   0  539.17  301.37   1 0.65179-0.88267-0.62026-0.17449 0.43638-0.43638
   3  -7   0  708.33  337.98   1 0.74437-0.51373-0.21416-0.57969 0.63248-0.63248
  -3  -7   0  671.72  215.59   1 0.09187-0.32288-0.45770-0.33716 0.88434-0.88434
   3   7   115846.75 1482.37   1-0.01839 0.25065 0.49168 0.30215-0.87057 0.91971
  -3   7  -116134.98 1688.98   1 0.04702-0.27928 0.38923 0.40460-0.91993 0.87080
  -3  -7  -114999.66 1106.85   1 0.63931-0.87151-0.64543-0.14932 0.41794-0.46708
   3  -7   116391.68 1225.33   1 0.74497-0.51303-0.17488-0.61898 0.64376-0.59469
  -3  -7  -113598.60 1358.48   1 0.02449-0.25684-0.49380-0.30106 0.86922-0.91836
  -3   7  -2 6300.81 1289.25   1 0.07476-0.30831 0.34349 0.45035-0.93617 0.83792
  -3  -7  -2 4424.08  855.45   1 0.62559-0.85910-0.67081-0.12394 0.39829-0.49657
  -3  -7  -2 5188.80 1095.23   1-0.04705-0.18661-0.52879-0.26607 0.84744-0.94571
   3   7   3 2440.45  603.97   1-0.11049 0.34545 0.62186 0.17191-0.77528 0.92255
  -3   7  -3 4766.94  967.24   1 0.10082-0.33574 0.29903 0.49480-0.94889 0.80152
  -3  -7  -3 5344.50  973.66   1 0.61062-0.84543-0.69616-0.09859 0.37748-0.52490
   3  -7   3 3237.46  647.57   1 0.74307-0.50887-0.10305-0.69048 0.66122-0.51408
  -3  -7  -3 4432.63  942.39   1-0.12113-0.11398-0.56187-0.23262 0.81830-0.96586
   3  -7   3 4247.03  744.32   1 0.53578-0.30131-0.13206-0.66149 0.83395-0.68675
   3   7   4 6187.27  570.37   1-0.15591 0.39226 0.68001 0.11377-0.71643 0.91278
  -3   7  -4 5260.03 1349.09   1 0.12511-0.36138 0.25640 0.53744-0.95843 0.76194
  -3  -7  -4 7983.15  812.43   1 0.59439-0.83051-0.72129-0.07346 0.35557-0.55213
   3  -7   4 7259.98  784.17   1 0.74084-0.50539-0.07100-0.72253 0.66791-0.47171
  -3  -7  -4 5234.46 1408.91   1-0.19771-0.03879-0.59152-0.20297 0.78166-0.97841
   3  -7   4 6050.94  567.53   1 0.58626-0.34998-0.08241-0.71137 0.80591-0.60946
  -3   7  -5 1642.18  426.91   1 0.14750-0.38514 0.21601 0.57783-0.96518 0.71956
  -3  -7  -5  447.65  189.69   1 0.19706-0.43495-0.73164-0.06288 0.65257-0.89825
  -3  -7  -5  465.66  327.39   1 0.57691-0.81435-0.74600-0.04875 0.33262-0.57832
   3  -7   5 1546.97  455.38   1 0.73811-0.50142-0.04169-0.75184 0.67338-0.42814
   3  -7   5  747.82  296.74   1 0.62398-0.38632-0.04225-0.75153 0.78029-0.53473
  -3   7  -6 3572.49  970.44   1 0.16794-0.40695 0.17819 0.61564-0.96955 0.67481
  -3  -7  -6 3298.50  711.98   1 0.23856-0.47785-0.77632-0.01821 0.58343-0.87825
  -3  -7  -6 3812.71  869.16   1 0.55800-0.79685-0.77020-0.02420 0.30888-0.60368
   3  -7   6 4847.68  883.36   1 0.65266-0.41363-0.00981-0.78397 0.75758-0.46291
   3   7   6 3823.95  841.34   1 0.34806-0.10905 0.63798 0.15627-0.68690 0.98167
  -3   7  -712637.09 1048.26   1 0.18629-0.42673 0.14328 0.65046-0.97199 0.62832
   3  -7   714403.66 1214.47   1 0.73194-0.49275 0.00831-0.80185 0.68131-0.33797
   3  -7   713319.27 1044.17   1 0.67452-0.43411 0.01619-0.80998 0.73807-0.39428
   3   7   710495.37  848.13   1 0.42146-0.18109 0.65290 0.14135-0.62935 0.97325
  -3   7  -8 1366.30  368.92   1 0.20283-0.44465 0.11128 0.68245-0.97286 0.58011
  -3  -7  -8 1185.05  392.01   1 0.51695-0.75846-0.81611 0.02170 0.25828-0.65135
   3  -7   8 1369.24  521.69   1 0.72885-0.48840 0.02888-0.82242 0.68406-0.29167
   4   0 -17 1324.80  554.33   1 0.49551-0.21074-0.81613 0.81613-0.29731-0.53806
  -4   0  17  725.80  387.07   1 0.70585-0.99010 0.05578-0.05578 0.70615 0.12874
   4   0 -16 3195.26  706.62   1 0.49324-0.20711-0.82832 0.82832-0.26568-0.52056
  -4   0  16 4161.47  741.39   1 0.70908-0.99471 0.06005-0.06005 0.70255 0.08322
   4   0 -1512540.92 1035.57   1 0.49037-0.20287-0.83969 0.83969-0.23335-0.50374
  -4   0  1511902.60  899.27   1 0.71043-0.99744 0.06184-0.06184 0.70103 0.03563
   4   0 -1412120.72 1040.36   1 0.48685-0.19798-0.85023 0.85023-0.20020-0.48775
  -4   0  1412892.74  852.79   1 0.70965-0.99804 0.06080-0.06080 0.70191-0.01435
   4   0 -1364129.84 3757.99   1 0.48263-0.19240-0.85993 0.85993-0.16607-0.47275
  -4   0  1364939.06 3709.39   1 0.70637-0.99614 0.05647-0.05647 0.70557-0.06712
   4   0 -1229895.12 1509.55   1 0.47765-0.18606-0.86876 0.86876-0.13074-0.45894
   4   0 -1224041.10  984.50   1-0.39610 0.68807-0.72515 0.72515-0.56325-0.02658
  -4   0  1222534.46  923.95   1 0.65166-0.94357 0.31529-0.31529 0.68986-0.10131
  -4   0  1230082.80 1374.52   1 0.70007-0.99122 0.04825-0.04825 0.71243-0.12309
   4   0 -1113546.73 1504.88   1 0.47180-0.17885-0.87668 0.87668-0.09395-0.44658
  -4   0  1113439.92 1427.46   1 0.69000-0.98252 0.03538-0.03538 0.72293-0.18271
   4   0 -10 1671.90  443.02   1 0.46495-0.17064-0.88359 0.88359-0.05536-0.43604
  -4   0  10  862.85  342.39   1 0.67511-0.96902 0.01691-0.01691 0.73751-0.24639
   4   0  -928071.18 1963.20   1 0.45680-0.16146-0.88945 0.88945-0.01444-0.42755
  -4   0   930320.11 2036.60   1 0.65394-0.94922-0.00832 0.00832 0.75649-0.31449
   4   0  -850029.29 1844.56   1 0.44729-0.15057-0.89390 0.89390 0.02931-0.42220
  -4   0   847552.19 1676.61   1 0.62445-0.92111-0.04173 0.04173 0.77994-0.38705
   4   0  -771534.34 2124.21   1 0.43591-0.13781-0.89669 0.89669 0.07685-0.42064
  -4   0   767875.46 1924.44   1 0.58396-0.88200-0.08478 0.08478 0.80734-0.46355
   4   0  -759304.72 1667.59   1 0.84618-0.54773 0.31065-0.31065 0.43296-0.77684
   4   0  -6264149.5 6094.05   1 0.42205-0.12257-0.89728 0.89728 0.12942-0.42409
  -4   0   6244389.7 5595.41   1 0.52870-0.82820-0.13879 0.13879 0.83738-0.54297
   4   0  -5188305.4 4367.31   1 0.40474-0.10387-0.89472 0.89472 0.18880-0.43436
  -4   0   5145383.2 3351.13   1 0.23320-0.53416-0.77080 0.77080 0.59285-0.34717
   4   0  -5161720.8 3669.75   1 0.14341 0.15790-0.98085 0.98085-0.13174-0.11398
   4   0  -5172365.0 3900.88   1 0.73635-0.43530-0.31992 0.31992 0.59618-0.84152
  -4   0   5171535.9 3942.63   1 0.45604-0.75685-0.20413 0.20413 0.86623-0.62088
   4   0  -5172843.7 3966.17   1 0.76440-0.46320 0.14005-0.14005 0.62934-0.87511
   4   0  -427768.16 1136.78   1 0.38262-0.08020-0.88722 0.88722 0.25775-0.45431
  -4   0   422053.07  876.16   1 0.20302-0.50537-0.73833 0.73833 0.64315-0.44661
   4   0  -423469.95  906.00   1 0.10872 0.19392-0.98047 0.98047-0.16388-0.03269
   4   0  -424227.92  924.14   1 0.66445-0.36240 0.28117-0.28117 0.69241-0.88859
  -4   0   426666.03 1059.31   1 0.36242-0.66467-0.28000 0.28000 0.88895-0.69267
   4   0  -425037.46  989.25   1 0.68694-0.38477 0.03153-0.03153 0.72602-0.92247
   4   0  -311728.21  243.06   1-0.15841 0.46194 0.68309-0.68309-0.71294 0.56567
   4   0  -312858.59  349.50   1 0.35261-0.04881-0.87184 0.87184 0.33992-0.48734
   4   0  -311648.03  249.52   1 0.10790 0.19609-0.98043 0.98043-0.16463 0.01720
  -4   0   312046.73  453.14   1 0.24831-0.55186-0.36172 0.36172 0.89860-0.75139
   4   0  -311250.77  244.91   1 0.58043-0.27688-0.08839 0.08839 0.80949-0.95682
   4   0  -2 2031.08  184.85   1-0.08931 0.39423 0.59332-0.59332-0.79999 0.70181
   4   0  -2 1846.38  192.07   1 0.31048-0.00535-0.84198 0.84198 0.44121-0.53948
  -4   0   2 1699.08  270.83   1-0.33722 0.03186-0.78205 0.78205-0.52408 0.62239
   4   0  -2 1817.17  131.29   1 0.11867 0.18665-0.98080 0.98080-0.15472 0.05643
  -4   0   2 2182.74  295.39   1 0.11749-0.42286-0.44316 0.44316 0.88870-0.79043
   4   0  -2 1855.98  137.30   1 0.44794-0.14319-0.21103 0.21103 0.86879-0.96693
  -4   0   1998236.037200.60   1-0.22852-0.07787-0.86566 0.86566-0.44542 0.49453
   4   0  -1922695.634399.47   1 0.13488 0.17178-0.98096 0.98096-0.13970 0.09055
  -4   0   1999998.637272.23   1-0.02008-0.28660-0.51601 0.51601 0.85634-0.80720
   4   0  -1931911.434739.15   1 0.30069 0.00547-0.32553 0.32553 0.89644-0.94551
  -4   0   0515431.9 5538.95   1-0.15385-0.15385 0.67747-0.67747-0.71927 0.71927
   4   0   0498861.9 5360.64   1 0.15388 0.15388 0.20430-0.20430-0.96673 0.96673
  -4   0   0525719.4 5790.23   1-0.15385-0.15385-0.90881 0.90881-0.38778 0.38778
   4   0   0491033.4 5403.61   1 0.15400 0.15400-0.98053 0.98053-0.12181 0.12181
  -4   0   0501101.5 5459.08   1-0.15396-0.15396-0.57509 0.57509 0.80346-0.80346
   4   0   0485522.8 5320.72   1 0.15401 0.15401-0.42166 0.42166 0.89357-0.89357
  -4   0  -1 7812.32  306.38   1-0.02046-0.28875 0.49479-0.49479-0.86877 0.81963
   4   0   1 8115.72  184.42   1 0.30828 0.00067-0.11051 0.11051-0.94485 0.99387
  -4   0  -1 8646.74  725.19   1-0.10326-0.20584-0.93206 0.93206-0.34725 0.29812
   4   0   1 9533.63  285.83   1 0.17480 0.13454-0.97929 0.97929-0.10214 0.15128
  -4   0  -221118.17  418.22   1 0.13333-0.44383 0.24169-0.24169-0.96114 0.86290
   4   0   221942.05  331.51   1 0.42515-0.11473-0.41289 0.41289-0.80545 0.90352
  -4   0  -223341.56  499.41   1-0.06963-0.24080-0.94501 0.94501-0.31952 0.22126
   4   0   222693.31  439.39   1 0.38046-0.06996 0.64518-0.64518-0.66255 0.76081
  -4   0  -3 3106.19  153.74   1 0.26471-0.57654-0.01465 0.01465-0.96421 0.81693
   4   0   3 2839.67  144.31   1 0.48180-0.17002-0.62265 0.62265-0.61658 0.76380
  -4   0  -3 3548.42  598.23   1-0.04817-0.26360-0.95223 0.95223-0.30154 0.15415
   4   0   3 2832.19  188.76   1 0.21900 0.09301-0.97390 0.97390-0.05959 0.20702
   4   0   3 2347.13  304.64   1-0.18237 0.49447-0.58592 0.58592 0.78957-0.64201
   4   0   3 2986.35  250.95   1 0.46850-0.15664 0.65964-0.65964-0.58768 0.73507
  -4   0  -4 2665.10  171.43   1 0.35230-0.66551-0.21469 0.21469-0.91092 0.71483
   4   0   4 2167.50  161.83   1 0.49820-0.18461-0.74342 0.74342-0.44622 0.64283
   4   0   4 2349.24  227.75   1 0.54111-0.22804 0.66522-0.66522-0.51446 0.71096
  -4   0  -5190459.8 4358.20   1 0.40469-0.71929-0.35263 0.35263-0.84372 0.59855
   4   0   5181381.9 4161.21   1 0.49622-0.18125-0.81049 0.81049-0.31123 0.55700
  -4   0  -5200858.1 4693.43   1-0.02977-0.28466-0.95777 0.95777-0.28595 0.04030
   4   0   5194548.9 4506.66   1 0.60082-0.28640 0.66403-0.66403-0.44503 0.69066
  -4   0  -6 5049.73  284.04   1 0.43485-0.75084-0.44326 0.44326-0.78384 0.48964
   4   0   6 4349.54  293.39   1 0.48748-0.17134-0.84853 0.84853-0.20578 0.50062
  -4   0  -6 5095.60  791.82   1-0.02908-0.28668-0.95797 0.95797-0.28536-0.00941
   4   0   6 4858.23  349.54   1 0.64996-0.33419 0.65827-0.65827-0.37977 0.67453
  -4   0  -7 2424.13  234.67   1 0.45244-0.76982-0.50254 0.50254-0.73670 0.39347
   4   0   7 2297.80  203.40   1 0.47616-0.15866-0.87099 0.87099-0.12098 0.46497
  -4   0  -7 2725.15  379.58   1-0.03244-0.28465-0.95701 0.95701-0.28822-0.05567
   4   0   7 2169.29  335.06   1 0.69051-0.37327 0.64946-0.64946-0.31841 0.66246
  -4   0  -8208851.1 7053.38   1 0.46318-0.78190-0.54135 0.54135-0.70171 0.30911
  -4   0  -8233577.4 7506.44   1-0.03907-0.27936-0.95505 0.95505-0.29385-0.09918
   4   0   8211175.9 7164.49   1 0.72423-0.40565 0.63819-0.63819-0.26112 0.65432
  -4   0  -928263.88 1897.43   1 0.46948-0.78960-0.56664 0.56664-0.67712 0.23545
  -4   0  -932444.81 1448.54   1-0.04838-0.27138-0.95216 0.95216-0.30172-0.14044
   4   0   932991.85 1322.91   1 0.75239-0.43247 0.62525-0.62525-0.20727 0.64963
  -4   0 -1074189.85 2464.80   1 0.47324-0.79475-0.58264 0.58264-0.66073 0.16999
  -4   0 -1079520.48 2701.74   1-0.05992-0.26117-0.94838 0.94838-0.31141-0.17988
   4   0  1073260.71 2468.27   1 0.77597-0.45471 0.61105-0.61105-0.15644 0.64795
  -4   0 -1117782.75 1028.42   1 0.47535-0.79825-0.59200 0.59200-0.65082 0.11100
  -4   0 -1120465.38 1907.44   1-0.07336-0.24906-0.94367 0.94367-0.32262-0.21779
  -4   0 -12 1668.34  342.61   1 0.47633-0.80062-0.59643 0.59643-0.64604 0.05715
  -4   0 -12 3277.16  574.01   1-0.08845-0.23531-0.93801 0.93801-0.33510-0.25445
   4   0  12 1470.84  316.54   1 0.81223-0.48857 0.58000-0.58000-0.06225 0.65183
  -4   0 -1334667.14 2472.22   1 0.47647-0.80215-0.59707 0.59707-0.64534 0.00738
  -4   0 -1340807.57 3307.07   1-0.10497-0.22012-0.93135 0.93135-0.34864-0.29003
   4   0  1334128.10 2461.02   1 0.82604-0.50106 0.56330-0.56330-0.01826 0.65697
  -4   0 -14 8009.90  977.93   1 0.47594-0.80301-0.59467 0.59467-0.64794-0.03909
  -4   0 -14 9700.71 1889.73   1-0.12278-0.20364-0.92362 0.92362-0.36309-0.32472
   4   0  14 8093.35  991.37   1 0.83744-0.51113 0.54599-0.54599 0.02404 0.66379
  -4   0 -15 1308.02  429.97   1 0.47485-0.80331-0.58975 0.58975-0.65322-0.08289
  -4   0 -15 1212.38  311.51   1-0.14176-0.18600-0.91475 0.91475-0.37831-0.35863
   4   0  15 1361.91  507.40   1 0.84669-0.51906 0.52811-0.52811 0.06491 0.67206
  -4   0 -16 4118.89  913.36   1 0.47325-0.80310-0.58268 0.58268-0.66068-0.12450
  -4   0 -16 2639.12  812.69   1-0.16171-0.16710-0.90477 0.90477-0.39398-0.39173
   4   0  16 1974.19  503.03   1 0.85408-0.52519 0.50955-0.50955 0.10438 0.68155
  -4   0 -17  257.95  302.45   1 0.47116-0.80240-0.57371 0.57371-0.66996-0.16429
  -4   0 -17  301.40  306.43   1-0.18273-0.14740-0.89339 0.89339-0.41042-0.42439
   4   0  17  452.58  462.21   1 0.85960-0.52940 0.49056-0.49056 0.14290 0.69215
   4   1 -1725594.48 1945.37   1 0.49879-0.21414-0.76465 0.87825-0.40804-0.42756
   4  -1 -1722789.46 1788.35   1 0.48593-0.20117-0.85255 0.73899-0.19240-0.64298
  -4   1  1722488.17 1629.25   1 0.70575-0.99000 0.05565 0.05774 0.70626 0.12863
  -4  -1  1722186.64 1632.27   1 0.69626-0.98051 0.04334-0.15673 0.71647 0.11841
   4   1 -1610800.13 1022.92   1 0.49869-0.21266-0.77693 0.89053-0.38429-0.40215
   4  -1 -16 9345.05  834.79   1 0.48095-0.19482-0.86316 0.74960-0.15368-0.63255
  -4   1  1611136.99  836.63   1 0.70946-0.99509 0.06054 0.05285 0.70213 0.08364
  -4  -1  16 9346.07  815.49   1 0.69884-0.98447 0.04666-0.16005 0.71375 0.07203
   4   1 -15 8835.51  885.74   1 0.49824-0.21083-0.78845 0.90205-0.36067-0.37661
   4  -1 -15 8743.56 1584.24   1 0.47501-0.18752-0.87260 0.75904-0.11366-0.62344
  -4   1  15 9084.61  725.06   1 0.71104-0.99805 0.06264 0.05075 0.70035 0.03631
  -4  -1  15 8866.04  723.54   1 0.69964-0.98665 0.04769-0.16109 0.71289 0.02377
   4   1 -1410349.67 1360.21   1 0.49746-0.20867-0.79925 0.91285-0.33722-0.35092
   4  -1 -1411346.75  974.44   1 0.46801-0.17915-0.88077 0.76721-0.07210-0.61586
  -4   1  14 8654.73  936.83   1 0.71016-0.99855 0.06148 0.05191 0.70134-0.01378
  -4  -1  14 9558.98 1068.95   1 0.69844-0.98683 0.04614-0.15954 0.71417-0.02661
   4   1 -1324060.70 1841.83   1 0.49637-0.20620-0.80934 0.92294-0.31395-0.32503
   4  -1 -1327432.31 2027.68   1 0.45969-0.16987-0.88761 0.77414-0.02866-0.60978
   4  -1 -1326060.14 1831.03   1 0.09075 0.19986-0.97941 0.86588-0.18029-0.45858
  -4   1  1326489.85 1889.08   1 0.70634-0.99611 0.05643 0.05696 0.70561-0.06716
  -4  -1  1327577.62 2012.95   1 0.69494-0.98470 0.04165-0.15505 0.71785-0.07940
   4   1 -1243278.61 2016.78   1 0.49508-0.20349-0.81875 0.93231-0.29073-0.29895
   4  -1 -1243016.56 1947.30   1 0.45011-0.15891-0.89281 0.77934 0.01676-0.60610
  -4   1  1248060.39 2040.70   1 0.69883-0.98998 0.04665 0.06674 0.71375-0.12441
  -4  -1  1243234.95 1879.17   1 0.68872-0.97986 0.03376-0.14716 0.72423-0.13489
   4   1 -1121194.87 1251.57   1 0.49343-0.20047-0.82746 0.94102-0.26800-0.27254
   4  -1 -1112412.40  829.24   1 0.43893-0.14635-0.89618 0.78271 0.06469-0.60492
   4  -1 -1112392.53  667.36   1 0.26345 0.02969-0.96453 0.85112-0.01624-0.52412
  -4   1  1118173.11  929.42   1 0.69089-0.98407 0.19994-0.08661 0.69475-0.15524
  -4  -1  1113012.82  808.01   1 0.67922-0.97174 0.02194-0.13534 0.73360-0.19337
  -4   1  1122559.11 1210.53   1 0.68652-0.97904 0.03100 0.08239 0.72644-0.18621
   4   1 -1028591.47 1219.84   1 0.49152-0.19721-0.83549 0.94905-0.24564-0.24575
   4  -1 -1022709.30 1021.24   1 0.42583-0.13187-0.89738 0.78391 0.11557-0.60669
   4  -1 -1020398.67  706.55   1 0.36061-0.06613-0.92895 0.81554 0.08365-0.57490
  -4   1  1026164.78  877.83   1 0.67491-0.96936 0.25103-0.13770 0.69387-0.20341
  -4  -1  1021331.12  859.87   1 0.66567-0.95957 0.00551-0.11891 0.74622-0.25510
  -4   1  1030242.76 1073.36   1 0.66774-0.96164 0.00799 0.10540 0.74434-0.25323
   4   1  -9206062.8 7043.15   1 0.48941-0.19373-0.84285 0.95641-0.22376-0.21849
   4  -1  -9211093.3 7190.25   1 0.41042-0.11508-0.89591 0.78244 0.16998-0.61199
   4  -1  -9177077.0 5955.00   1 0.46596-0.17012-0.86227 0.74878 0.19839-0.64060
  -4   1   9188747.5 6337.85   1 0.65162-0.94733 0.31540-0.20207 0.68985-0.24844
  -4  -1   9199458.0 6761.02   1 0.64705-0.94233-0.01629-0.09710 0.76226-0.32026
   4  -1  -9164515.5 5546.68   1 0.85445-0.55862 0.50844-0.62189 0.10671-0.54880
   4   1  -813961.49 1036.54   1 0.48711-0.19007-0.84953 0.96309-0.20252-0.19060
   4  -1  -814317.08 1052.12   1 0.39241-0.09555-0.89095 0.77748 0.22848-0.62160
   4  -1  -812982.82  881.66   1 0.57017-0.27280-0.75496 0.64142 0.32393-0.71704
  -4   1   813274.16  891.75   1 0.61935-0.91630 0.39240-0.27898 0.68001-0.28732
  -4  -1   814623.60 1030.49   1 0.62206-0.91872-0.04435-0.06904 0.78170-0.38881
  -4   1   813999.16  957.19   1 0.59963-0.89629-0.06847 0.18186 0.79733-0.40444
   4  -1  -812508.45  849.40   1 0.86452-0.56736 0.46333-0.57678 0.19475-0.58771
   4   1  -7 1553.50  539.40   1 0.48469-0.18628-0.85551 0.96907-0.18213-0.16185
   4  -1  -7 1626.94  266.97   1 0.37053-0.07227-0.88168 0.76821 0.29212-0.63609
   4  -1  -7  384.46  130.51   1 0.66186-0.36318-0.59819 0.48465 0.45176-0.79573
  -4   1   7  620.07   90.61   1 0.57694-0.87520 0.47625-0.36282 0.66356-0.31995
  -4   1   7  481.39  159.29   1 0.54089-0.83907-0.12717 0.24054 0.83141-0.48794
  -4  -1   7  628.66  200.62   1 0.58902-0.88706-0.07956-0.03383 0.80418-0.46040
   4  -1  -7  370.68  133.44   1 0.86528-0.56681 0.40314-0.51659 0.29790-0.64175
   4   1  -642511.79 1724.42   1 0.48221-0.18244-0.86076 0.97432-0.16293-0.13191
   4  -1  -640254.61 1632.11   1 0.34404-0.04440-0.86652 0.75305 0.36162-0.65646
   4  -1  -637577.62 1441.05   1 0.72485-0.42467-0.39142 0.27787 0.56689-0.86164
  -4   1   642973.23 1631.42   1 0.52501-0.82457 0.56228-0.44886 0.63890-0.34438
  -4   1   644435.16 1699.16   1 0.45834-0.75784-0.20215 0.31552 0.86547-0.57106
  -4  -1   638065.83 1513.84   1 0.54552-0.84501-0.12271 0.00934 0.82906-0.53465
   4  -1  -636417.50 1397.76   1 0.84942-0.54962 0.32121-0.43466 0.41867-0.71342
   4   1  -5103629.0 2482.44   1 0.47980-0.17866-0.86523 0.97879-0.14547-0.10022
  -4  -1   593625.08 2199.46   1 0.34603-0.64706-0.86779 0.75432 0.35663-0.11094
   4  -1  -594854.21 2271.41   1 0.31163-0.01060-0.84332 0.72985 0.43782-0.68352
   4  -1  -585911.52 1978.33   1-0.46501 0.76635-0.64576 0.53218-0.60560 0.35983
   4  -1  -589727.17 2080.95   1 0.74473-0.44367-0.15101 0.03760 0.65005-0.89539
  -4   1   5105425.7 2434.26   1 0.34455-0.64550-0.29352 0.40688 0.89169-0.64634
  -4  -1   591544.91 2176.96   1 0.49030-0.79111-0.17411 0.06074 0.85398-0.60863
   4  -1  -593890.18 2169.75   1 0.80461-0.50341 0.21027-0.32377 0.55531-0.80108
  -4  -1   4 -138.61   48.73   1-0.13226-0.17017-0.91927 0.80577-0.37071 0.56723
   4  -1  -3 4381.39  404.36   1-0.02430 0.32801 0.50054-0.61395-0.86536 0.71795
   4   1  -3 1995.86  195.44   1 0.47607-0.17220-0.87112 0.98468-0.12037-0.02704
   4  -1  -3 4489.21  272.86   1 0.22210 0.08163-0.75913 0.64562 0.61186-0.75927
   4  -1  -3 4199.58  405.36   1-0.33738 0.64140-0.78191 0.66833-0.52419 0.37673
   4  -1  -3 4863.35  282.84   1 0.65664-0.35332 0.30233-0.41566 0.69094-0.83808
  -4   1   3 2114.94  237.84   1 0.02968-0.33372-0.49113 0.60468 0.87057-0.72317
   4   1  -3 2501.36  170.29   1 0.61216-0.30861-0.05511 0.16851 0.78880-0.93614
   4  -1  -2106983.6 1269.28   1 0.04193 0.26314 0.39748-0.51089-0.91664 0.81837
   4   1  -2111519.1 1335.79   1 0.47574-0.17051-0.87159 0.98515-0.11829 0.02001
  -4  -1   2102684.8 1180.89   1 0.27761-0.58274-0.81403 0.70053 0.51016-0.41189
  -4  -1   2105740.3 1258.20   1 0.12818-0.43351-0.98095 0.86742-0.14592 0.24421
   4  -1  -2108122.9 1288.62   1 0.57911-0.27433 0.47230-0.58573 0.66449-0.76266
   4  -1  -2106869.4 1233.11   1 0.37410-0.06934-0.27090 0.15753 0.88693-0.98507
  -4   1   137869.54  545.73   1-0.08772-0.21858 0.59114-0.47775-0.80177 0.85086
   4  -1  -139093.12  537.88   1 0.12176 0.18465 0.26235-0.37575-0.95725 0.90813
   4  -1  -138904.62  547.95   1-0.21548 0.52188-0.87398 0.76045-0.43557 0.38646
  -4  -1   138026.27  580.79   1 0.16689-0.47356-0.97985 0.86632-0.10964 0.15878
  -4  -1   142449.76  651.46   1 0.12645-0.43314-0.43798 0.32442 0.89004-0.84091
   4  -1  -141885.41  582.73   1 0.16861 0.13755-0.41278 0.29942 0.89508-0.94415
   4   1  -136894.01  564.45   1 0.40905-0.10298-0.24323 0.35660 0.87949-0.92856
   4  -1  -142490.03  578.03   1 0.29286 0.01354 0.62360-0.73706-0.72481 0.67568
   4   1   017396.71  256.11   1 0.00929 0.29855 0.44930-0.33589-0.89333 0.89333
  -4   1   016258.12  525.83   1-0.00254-0.30529 0.46760-0.35419-0.88393 0.88393
   4  -1   015418.29  299.65   1 0.21033 0.09736 0.09657-0.20996-0.97284 0.97284
   4   1   015071.51  233.81   1 0.48764-0.17969-0.84807 0.96163-0.20727 0.20727
  -4   1   015300.07  405.13   1-0.42904 0.12100-0.68909 0.80267-0.58401 0.58401
   4  -1   015796.28  310.60   1-0.15944 0.46716-0.90595 0.79242-0.39220 0.39220
  -4  -1   015476.06  374.60   1 0.18568-0.49369-0.97831 0.86478-0.09176 0.09176
   4   1   014686.68  306.22   1 0.48639-0.17857-0.84505 0.95854 0.22204-0.22204
   4  -1   014031.69  399.97   1-0.01424 0.32226-0.51317 0.39962 0.85816-0.85816
   4   1   015470.89  972.04   1 0.29591 0.01155-0.32892 0.44229 0.89679-0.89679
   4  -1   016157.76  333.10   1 0.41510-0.10733 0.65181-0.76527-0.63468 0.63468
   4  -1   126787.59  418.39   1 0.29796 0.01099-0.08727-0.02610-0.95057 0.99959
  -4  -1  -125303.56  477.73   1 0.19284-0.50219-0.97754 0.86401-0.08489 0.03574
   4   1   128579.02  497.40   1 0.46484-0.15570-0.86316 0.97665 0.19712-0.14798
   4  -1   124941.58  396.22   1-0.15978 0.46910-0.57736 0.46386 0.80070-0.75151
  -4  -1  -126339.82  481.97   1-0.10656-0.20275-0.55576 0.44226 0.82447-0.87366
   4  -1   125270.17  448.80   1 0.50993-0.20091 0.66375-0.77722-0.54716 0.59628
   4  -1   296599.59 1159.85   1 0.37365-0.06327-0.26873 0.15536-0.88778 0.98582
  -4  -1  -299806.75 1315.74   1 0.19255-0.50323-0.97758 0.86404-0.08517-0.01311
   4   1   299195.37 1235.65   1 0.08184 0.22883-0.46327 0.57683 0.88242-0.78415
   4  -1   299368.49 1236.54   1 0.58253-0.27215 0.66501-0.77847-0.46734 0.56560
  -4   1  -359575.83 1423.93   1 0.25099-0.56282 0.01419 0.09919-0.96788 0.82060
   4  -1   345265.29 1731.39   1 0.43021-0.11840-0.42855 0.31517-0.79451 0.94161
   4   1   356574.58 1290.54   1 0.31394-0.00185-0.84468 0.95819 0.43352-0.28611
   4   1   355324.87 1389.74   1 0.31705-0.00519 0.63021-0.51675-0.70873 0.85611
  -4   1  -357856.09 1392.74   1 0.34590-0.65776 0.63746-0.52400-0.68846 0.54107
  -4   1  -496447.98 2258.04   1 0.31043-0.62364-0.11541 0.22879-0.94356 0.74747
  -4  -1  -4109780.8 2504.24   1 0.41668-0.72989-0.38738 0.27400-0.82237 0.62624
   4  -1   4106311.4 2474.93   1 0.46717-0.15400-0.55718 0.44376-0.68651 0.88280
   4   1   482933.39 1907.41   1 0.36571-0.05220-0.87922 0.99269 0.30531-0.10875
  -4   1  -494852.22 2288.32   1-0.25458-0.05840-0.84800 0.96153-0.46484 0.26841
   4   1   496679.14 2328.06   1 0.40612-0.09290 0.65020-0.53674-0.64210 0.83861
  -4   1  -583064.53 1977.37   1 0.35485-0.66947-0.22100 0.33438-0.90842 0.66331
  -4  -1  -572074.24 1671.60   1 0.46555-0.78011-0.55068 0.43727-0.69282 0.44745
  -4   1  -574959.84 1993.94   1-0.23387-0.08043-0.86214 0.97567-0.44944 0.20390
  -4  -1  -574149.92 1878.29   1 0.16602-0.48072-0.97991 0.86638-0.11047-0.13525
   4  -1   574714.62 1817.35   1 0.71783-0.40326 0.64065-0.75415-0.27253 0.51829
   4   1   578912.85 1912.63   1 0.48321-0.16862 0.66125-0.54778-0.57380 0.81944
  -4   1  -646271.37 1801.42   1 0.38666-0.70270-0.30307 0.41645-0.87099 0.57686
  -4  -1  -650459.61 1420.37   1 0.48196-0.79791-0.62350 0.51009-0.61558 0.32114
   4  -1   644527.48 1730.05   1 0.49713-0.18079-0.72666 0.61306-0.47414 0.76906
  -4   1  -640487.69 1659.31   1-0.21963-0.09599-0.87136 0.98489-0.43872 0.14407
  -4  -1  -651745.28 1589.78   1 0.15185-0.46788-0.98061 0.86708-0.12383-0.17103
   4  -1   651385.52 1548.11   1 0.74641-0.43051 0.62832-0.74182-0.21925 0.51415
   4   1   646074.45 1854.64   1 0.54896-0.23319 0.66538-0.55191-0.50587 0.80062
  -4   1  -7  640.91  142.35   1 0.40915-0.72653-0.36538 0.47877-0.83611 0.49287
  -4  -1  -7  598.75  103.37   1 0.48857-0.80591-0.66022 0.54681-0.57043 0.22691
   4   1   7  123.62  154.85   1 0.37352-0.05586-0.88314 0.99662 0.28376 0.06021
  -4   1  -7 1608.12  206.93   1-0.21078-0.10616-0.87689 0.99042-0.43200 0.08825
  -4  -1  -7  762.44  257.14   1 0.13589-0.45326-0.98095 0.86742-0.13876-0.20524
   4  -1   7  834.13  386.59   1 0.76994-0.45270 0.61503-0.72853-0.17004 0.51409
  -4   1  -8 8713.20  646.01   1 0.42478-0.74355-0.41174 0.52512-0.80624 0.41397
  -4  -1  -813077.31  925.92   1 0.49149-0.81022-0.67942 0.56601-0.54480 0.15221
   4   1   8 8225.59  608.17   1 0.36858-0.04953-0.88071 0.99418 0.29747 0.09564
  -4   1  -812482.42 1717.44   1-0.20644-0.11182-0.87955 0.99308-0.42868 0.03582
  -4  -1  -813980.05 1078.79   1 0.11844-0.43715-0.98079 0.86726-0.15493-0.23822
   4  -1   812856.89  942.00   1 0.78942-0.47106 0.60118-0.71462-0.12406 0.51711
   4   1   810324.77  863.03   1 0.65223-0.33376 0.65787-0.54441-0.37654 0.76955
  -4   1  -9151149.9 4859.21   1 0.43564-0.75581-0.44582 0.55920-0.78195 0.34065
  -4  -1  -9155605.9 4983.74   1 0.49305-0.81353-0.68811 0.57451-0.53234 0.08996
  -4   1  -9156333.6 5225.41   1-0.20588-0.11370-0.87988 0.99342-0.42826-0.01370
  -4  -1  -9162704.5 5296.35   1 0.09972-0.41977-0.98001 0.86648-0.17211-0.27018
   4  -1   9161725.4 5224.33   1 0.80579-0.48610 0.58665-0.70009-0.08084 0.52303
   4   1   9163998.0 5296.53   1 0.69220-0.37228 0.64899-0.53549-0.31569 0.75805
  -4   1 -1014778.07 1554.82   1 0.44314-0.76469-0.47043 0.58381-0.76309 0.27275
  -4  -1 -1016598.96 1733.55   1 0.49348-0.81534-0.69145 0.57785-0.52759 0.03606
  -4   1 -1014011.97 1594.68   1-0.20853-0.11237-0.87827 0.99180-0.43028-0.06078
  -4  -1 -1014761.40 1620.31   1 0.07990-0.40129-0.97850 0.86496-0.19012-0.30132
   4  -1  1014537.44 1556.73   1 0.81952-0.49851 0.57165-0.68510-0.03983 0.53114
   4   1  1017667.72 1903.61   1 0.72601-0.40475 0.63748-0.52398-0.25789 0.74940
  -4   1 -11 6431.15  448.47   1 0.44821-0.77115-0.48770 0.60108-0.74916 0.20979
  -4  -1 -1110225.09  635.77   1 0.49338-0.81661-0.69065 0.57705-0.52873-0.01194
  -4   1 -11 8047.43  987.13   1-0.21393-0.10828-0.87494 0.98847-0.43439-0.10578
  -4  -1 -1111104.41  777.46   1 0.05910-0.38182-0.97616 0.86263-0.20882-0.33177
   4  -1  11 8967.22  619.05   1 0.83102-0.50868 0.55624-0.66968-0.00062 0.54107
   4   1  11 6857.70  518.54   1 0.75459-0.43199 0.62407-0.51057-0.20276 0.74343
  -4   1 -1221488.31 1584.24   1 0.45149-0.77583-0.49918 0.61256-0.73957 0.15116
  -4  -1 -1225531.41 1166.35   1 0.49259-0.81688-0.68754 0.57413-0.53350-0.05538
  -4   1 -1220901.56 1833.76   1-0.22171-0.10183-0.87004 0.98358-0.44029-0.14899
  -4  -1 -1226681.01 1989.11   1 0.03728-0.36105-0.97300 0.85950-0.22776-0.36178
   4  -1  1224513.73 1234.52   1 0.84057-0.51692 0.54041-0.65386 0.03708 0.55250
   4   1  1219552.01 2291.24   1 0.77871-0.45477 0.60915-0.49565-0.15012 0.73993
  -4   1 -13 3162.73  441.37   1 0.45341-0.77914-0.50602 0.61940-0.73372 0.09628
  -4  -1 -13 2821.50  367.39   1 0.49176-0.81744-0.68138 0.56797-0.54210-0.09585
  -4   1 -13 5625.87  723.29   1-0.23156-0.09330-0.86367 0.97720-0.44770-0.19068
  -4  -1 -13 4259.18  636.88   1 0.01477-0.33988-0.96876 0.85526-0.24753-0.39114
   4  -1  13 3461.96  533.80   1 0.84841-0.52343 0.52419-0.63763 0.07352 0.56518
   4   1  13 3428.92  499.61   1 0.79888-0.47390 0.59315-0.47971-0.09972 0.73843
  -4   1 -1417846.72 1158.75   1 0.45426-0.78138-0.50907 0.62245-0.73108 0.04461
  -4  -1 -1420430.27 1310.82   1 0.49060-0.81767-0.67330 0.55989-0.55314-0.13389
  -4   1 -1420368.18 1740.74   1-0.24323-0.08294-0.85586 0.96939-0.45643-0.23106
  -4  -1 -1417700.16 2022.51   1-0.00849-0.31794-0.96345 0.84996-0.26772-0.42009
   4  -1  1420558.73 1333.31   1 0.85479-0.52855 0.50743-0.62089 0.10879 0.57889
   4   1  1418715.54 1257.94   1 0.81584-0.48954 0.57598-0.46254-0.05134 0.73918
  -4   1 -15 5349.28 1004.95   1 0.45422-0.78273-0.50895 0.62233-0.73119-0.00431
  -4  -1 -15 2386.70  484.91   1 0.48911-0.81757-0.66356 0.55015-0.56608-0.17002
  -4   1 -15 5347.59 1179.82   1-0.25654-0.07095-0.84661 0.96015-0.46628-0.27032
  -4  -1 -15 2562.29  652.40   1-0.03248-0.29527-0.95699 0.84350-0.28826-0.44868
   4   1  15 5308.66 1006.89   1 0.82988-0.50225 0.55792-0.44447-0.00476 0.74174
  -4   1 -1610723.77 1046.25   1 0.45343-0.78334-0.50611 0.61950-0.73364-0.05089
  -4  -1 -16 8212.09  818.01   1 0.48726-0.81711-0.65233 0.53892-0.58054-0.20464
  -4   1 -16 8711.94 1716.36   1-0.27132-0.05749-0.83591 0.94944-0.47710-0.30861
  -4  -1 -16 7287.62 1079.53   1-0.05718-0.27191-0.94930 0.83580-0.30911-0.47695
   4  -1  16 8787.71  949.71   1 0.86316-0.53428 0.47286-0.58631 0.17702 0.60890
   4   1  16 8387.73  863.76   1 0.84130-0.51235 0.53905-0.42561 0.04022 0.74588
  -4   1 -1720318.66 2371.39   1 0.45198-0.78327-0.50091 0.61429-0.73810-0.09547
  -4  -1 -1724792.08 2588.26   1 0.48504-0.81628-0.63973 0.52632-0.59621-0.23804
  -4   1 -1719001.69 3378.71   1-0.28744-0.04269-0.82370 0.93723-0.48875-0.34606
  -4  -1 -1724346.86 2767.55   1-0.08255-0.24787-0.94027 0.82678-0.33024-0.50496
   4  -1  1724773.97 2601.84   1 0.86540-0.53520 0.45488-0.56833 0.21011 0.62493
   4   1  1720097.07 2358.26   1 0.85038-0.52010 0.51944-0.40600 0.08380 0.75143
   4   2 -17  492.99  426.17   1 0.49426-0.20961-0.69774 0.92494-0.51851-0.31709
   4  -2 -17  631.36  403.02   1 0.47246-0.18769-0.87589 0.64877-0.09791-0.73747
  -4  -2  17  527.14  293.12   1 0.67906-0.96332 0.02175-0.24855 0.73375 0.10114
   4   2 -16  666.21  460.22   1 0.49547-0.20944-0.70849 0.93569-0.50253-0.28391
   4  -2 -16  418.61  370.83   1 0.46462-0.17849-0.88388 0.65676-0.05358-0.73266
  -4  -2  16  234.52  297.74   1 0.68090-0.96653 0.02402-0.25081 0.73197 0.05380
   4   2 -1512258.99 1158.10   1 0.49642-0.20901-0.71827 0.94546-0.48749-0.24980
   4  -2 -15 7537.05  793.67   1 0.45536-0.16830-0.89027 0.66333-0.00753-0.72914
  -4  -2  15 8377.68  811.67   1 0.68098-0.96799 0.02411-0.25091 0.73189 0.00477
  -4   2  1511314.15  955.43   1 0.69568-0.98269 0.04260 0.18419 0.71708 0.01959
   4   2 -1428714.25 1873.09   1 0.49716-0.20837-0.72702 0.95422-0.47356-0.21457
   4  -2 -1428329.79 1802.88   1 0.44479-0.15635-0.89473 0.66779 0.04017-0.72773
   4  -2 -1425740.25 1550.70   1 0.26805 0.02107-0.96333 0.73651-0.01164-0.67609
  -4  -2  1428976.57 1820.94   1 0.67911-0.96750 0.02181-0.24860 0.73370-0.04614
   4   2 -1366804.65 3690.12   1 0.49770-0.20754-0.73469 0.96189-0.46098-0.17800
   4  -2 -1358006.79 3250.66   1 0.43260-0.14278-0.89709 0.67015 0.08990-0.72835
   4  -2 -1353811.55 2895.46   1 0.34045-0.04998-0.93818 0.71136 0.06242-0.70104
  -4  -2  1362584.01 3401.47   1 0.67502-0.96479 0.01680-0.24360 0.73760-0.09915
  -4   2  1350109.89 2684.76   1 0.68712-0.97689 0.03176 0.19503 0.72584-0.08738
   4   2 -12 2398.62  453.36   1 0.49808-0.20654-0.74120 0.96839-0.45003-0.13980
   4  -2 -12  478.61  389.15   1 0.41855-0.12735-0.89703 0.67009 0.14192-0.73126
   4  -2 -12  558.87  139.76   1 0.41443-0.12258-0.89916 0.67218 0.14055-0.73016
  -4   2  12 2440.85  255.50   1 0.67540-0.96655 0.01726 0.20953 0.73724-0.14790
  -4  -2  12 1630.49  447.63   1 0.66836-0.95951 0.00874-0.23554 0.74377-0.15443
   4   2 -11 1437.04  413.18   1 0.49833-0.20541-0.74639 0.97359-0.44108-0.09960
   4  -2 -11 4193.07  668.61   1 0.40236-0.10978-0.89413 0.66720 0.19651-0.73674
   4  -2 -11 3772.34  502.68   1 0.48565-0.19248-0.84570 0.61872 0.22118-0.76166
  -4   2  11 2142.43  306.24   1 0.65613-0.94865-0.00577 0.23256 0.75462-0.21439
  -4  -2  11 3614.74  533.05   1 0.65868-0.95120-0.00277-0.22402 0.75241-0.21218
   4  -2 -11 3238.75  409.13   1 0.71338-0.42023 0.64226-0.86926-0.28031-0.26034
   4   2 -1055248.86 1973.17   1 0.49848-0.20418-0.75007 0.97727-0.43461-0.05691
   4  -2 -1056105.19 2040.96   1 0.38399-0.08990-0.88779 0.66084 0.25372-0.74511
   4  -2 -1048396.73 1616.58   1 0.55394-0.25943-0.77516 0.54819 0.30375-0.79509
  -4   2  1040837.95 1357.16   1 0.68448-0.97892 0.22130 0.00534 0.69462-0.20416
  -4   2  1056007.30 1831.62   1 0.62578-0.91968-0.04026 0.26705 0.77895-0.28783
  -4  -2  1051349.00 1782.29   1 0.64536-0.93926-0.01824-0.20855 0.76365-0.27253
   4  -2 -1049575.07 1627.45   1 0.73739-0.44290 0.63261-0.85961-0.23675-0.25475
   4   2  -9 8561.72  643.50   1 0.49855-0.20287-0.75194 0.97914-0.43130-0.01107
   4  -2  -9 4949.75  517.23   1 0.36237-0.06689-0.87743 0.65049 0.31430-0.75656
   4  -2  -9 5514.39  353.98   1 0.61718-0.32112-0.68532 0.45825 0.38653-0.82878
  -4   2   9 7452.25  333.70   1 0.67138-0.96709 0.26148-0.03482 0.69345-0.25203
  -4  -2   9 5459.55  409.34   1 0.62766-0.92295-0.03817-0.18861 0.77754-0.33553
  -4   2   9 8370.75  360.78   1 0.57850-0.87378-0.09036 0.31716 0.81065-0.36865
   4  -2  -9 4286.22  226.71   1 0.76238-0.46655 0.61967-0.84667-0.18648-0.25587
   4   2  -8198884.9 6808.25   1 0.49853-0.20148-0.75152 0.97872-0.43205 0.03883
   4  -2  -8199944.3 6805.71   1 0.33729-0.04042-0.86207 0.63513 0.37822-0.77134
   4  -2  -8201717.7 6810.38   1 0.67104-0.37340-0.57633 0.34923 0.46641-0.85941
  -4   2   8179037.0 6032.55   1 0.65399-0.95097 0.30927-0.08261 0.69038-0.29801
  -4   2   8187685.2 6303.17   1 0.50376-0.80062-0.16195 0.38868 0.84852-0.45598
  -4  -2   8202833.6 6888.83   1 0.60464-0.90130-0.06316-0.16362 0.79398-0.40109
   4  -2  -8185966.8 6246.96   1 0.78906-0.49189 0.60146-0.82834-0.12494-0.26810
   4  -2  -744798.85 1645.11   1 0.30839-0.01021-0.84031 0.61330 0.44583-0.78978
  -4  -2   745079.09 1516.68   1 0.00114-0.29978-0.96565 0.73858-0.25981 0.60383
  -4  -2   738608.37 1298.18   1 0.40249-0.70099-0.90650 0.67952 0.12748 0.21645
   4  -2  -743873.93 1557.24   1 0.71210-0.41320-0.44970 0.22260 0.53913-0.88301
  -4  -2   742169.46 1556.93   1 0.57515-0.87319-0.09377-0.13302 0.81265-0.46887
   4  -2  -741446.48 1416.34   1 0.81797-0.51947 0.57351-0.80039-0.04473-0.29918
   4   2  -676550.56 2230.78   1 0.49804-0.19823-0.74038 0.96757-0.45142 0.15651
   4  -2  -672115.31 2094.45   1 0.27444 0.02512-0.81114 0.58413 0.51645-0.81126
  -4  -2   667964.93 1847.57   1-0.41989 0.11989-0.69943 0.47228-0.57833 0.87325
   4  -2  -670794.40 2002.24   1 0.73780-0.43804-0.30748 0.08067 0.60091-0.89532
  -4   2   673040.30 2033.38   1 0.60408-0.90364 0.42433-0.19747 0.67455-0.38004
  -4   2   676457.07 2090.99   1 0.20848-0.50812-0.38782 0.61456 0.89784-0.60342
  -4  -2   672613.94 2081.83   1 0.53746-0.83696-0.13046-0.09627 0.83313-0.53872
   4  -2  -672144.16 1969.77   1 0.84787-0.54804 0.52545-0.75234 0.07075-0.36554
   4   2  -5144965.4 3424.17   1 0.49710-0.19592-0.72632 0.95352-0.47469 0.22892
  -4  -2   5147754.3 3421.32   1 0.42809-0.72895-0.89735 0.67042 0.10715 0.13840
   4  -2  -5144800.2 3404.85   1 0.23498 0.06597-0.77264 0.54563 0.58974-0.83542
  -4  -2   5140258.5 3196.59   1 0.47975-0.78091-0.85082 0.62385 0.21431 0.03135
   4  -2  -5145601.2 3373.76   1 0.74485-0.44380-0.15835-0.06846 0.64816-0.89350
   4   2  -5133909.3 3051.04   1 0.64341-0.34262 0.33595-0.10930 0.68786-0.93309
  -4   2   5138869.4 3203.66   1 0.57061-0.87148 0.48759-0.26074 0.66078-0.41535
  -4   2   5130082.1 2963.21   1-0.03896-0.26242-0.52500 0.75211 0.85020-0.60452
   4  -2  -5149673.1 3398.47   1 0.86647-0.56535 0.43097-0.65787 0.25195-0.49756
   4   2  -429084.44 1170.48   1 0.49476-0.19219-0.70202 0.92921-0.51222 0.31561
  -4  -2   434050.89 1334.44   1 0.43239-0.73463-0.89711 0.67017 0.09072 0.10572
  -4  -2   432443.60 1242.97   1 0.47711-0.77960-0.85307 0.62609 0.21125-0.01471
   4   2  -427815.66 1069.46   1 0.73085-0.42857 0.01581 0.21091 0.68235-0.87854
   4  -2  -433350.62 1316.75   1 0.73421-0.43193-0.00832-0.21840 0.67887-0.87506
  -4   2   428417.35 1122.95   1 0.53173-0.83390 0.55198-0.32513 0.64231-0.44597
   4  -2  -434468.07 1299.38   1 0.81913-0.51663 0.24115-0.46805 0.52044-0.71694
   4  -2  -440179.20 1515.89   1 0.30463-0.00231 0.62688-0.85381-0.71709 0.52057
  -4   2   347938.78 1851.50   1-0.13885-0.16467 0.65867-0.43188-0.73950 0.88676
   4   2  -347884.88 1847.64   1 0.48852-0.18508-0.65990 0.88672-0.57084 0.42362
  -4  -2   348133.69 1842.49   1 0.43566-0.73928-0.89673 0.66979 0.07787 0.06945
  -4  -2   345278.35 1728.29   1 0.46789-0.77171-0.86071 0.63373 0.20061-0.05321
   4   2  -343124.53 1642.29   1 0.74407-0.44043-0.22292 0.44974 0.62980-0.77701
   4  -2  -347107.74 1839.54   1 0.70806-0.40453 0.13361-0.36033 0.69339-0.84054
  -4  -2   348805.70 1915.02   1 0.36585-0.66940-0.27737 0.05064 0.88837-0.74116
   4  -2  -346490.22 1747.98   1 0.61547-0.31192-0.05153-0.17525 0.78646-0.93380
   4  -2  -346218.23 1740.59   1 0.49372-0.19004 0.66224-0.88917-0.56362 0.41623
  -4   2   236527.57 1483.78   1-0.08073-0.22418 0.58151-0.35471-0.80952 0.90769
   4   2  -237286.37 1435.92   1 0.47320-0.16837-0.58245 0.80927-0.66092 0.56277
  -4  -2   238224.29 1465.99   1 0.43727-0.74228-0.89648 0.66955 0.07141 0.02680
   4  -2  -234020.33 1313.82   1-0.44019 0.74555-0.67612 0.44896-0.59083 0.49252
  -4  -2   234418.45 1326.23   1 0.45484-0.75999-0.87099 0.64401 0.18571-0.08744
   4   2  -236643.23 1413.64   1 0.72525-0.41997-0.38927 0.61637 0.56785-0.66610
   4  -2  -236618.88 1442.42   1 0.67104-0.36645 0.26247-0.48912 0.69340-0.79149
  -4  -2   238816.69 1531.34   1 0.28611-0.59097-0.33582 0.10908 0.89741-0.79927
   4  -2  -236475.75 1380.29   1 0.29730 0.00755-0.32794 0.10120 0.89669-0.99483
   4  -2  -235703.75 1358.29   1 0.60487-0.29990 0.66374-0.89066-0.43996 0.34171
  -4   2   124800.77 1006.27   1-0.01768-0.28877 0.49061-0.26380-0.87119 0.92033
   4  -2  -131619.95 1233.50   1 0.18836 0.11794 0.13930-0.36609-0.97216 0.92307
   4   2  -123261.73  898.81   1 0.42967-0.12342-0.42686 0.65362-0.79572 0.74668
  -4  -2   136562.85 1392.30   1 0.43557-0.74196-0.89674 0.66981 0.07822-0.02911
   4  -2  -131028.19 1206.64   1-0.39000 0.69670-0.73147 0.50432-0.55931 0.51016
  -4  -2   132858.19 1286.81   1 0.43927-0.74575-0.88247 0.65550 0.16814-0.11900
   4   2  -123705.68  937.48   1 0.69676-0.39021-0.50448 0.73157 0.50992-0.55904
   4  -2  -136590.25 1454.04   1 0.62732-0.32146 0.37368-0.60033 0.68325-0.73229
   4  -2  -130769.26 1170.57   1 0.00807 0.29861-0.50214 0.27503 0.86474-0.91388
  -4  -2   132674.80 1385.04   1 0.19594-0.50210-0.39580 0.16906 0.89718-0.84811
   4  -2  -133741.51 1290.88   1 0.66978-0.36324 0.65458-0.88158-0.35057 0.30142
  -4   2   058014.23 1421.30   1 0.04805-0.35590 0.38754-0.16073-0.92059 0.92059
   4  -2   048758.04 1868.43   1 0.24976 0.05792 0.01674-0.24353-0.96816 0.96816
   4   2   055102.53 1266.74   1 0.29212 0.01542-0.07426 0.30101-0.95349 0.95349
  -4  -2   067917.82 1556.87   1 0.42412-0.73189-0.89736 0.67042 0.12187-0.12187
   4  -2   060291.00 1447.10   1-0.33826 0.64629-0.78113 0.55397-0.52479 0.52479
  -4  -2   061220.30 1475.81   1 0.42189-0.72970-0.89435 0.66738 0.14878-0.14878
   4   2   053041.82 1288.45   1 0.66811-0.36028-0.58344 0.81054 0.46175-0.46175
   4  -2   058529.32 1366.91   1-0.19869 0.50661-0.59187 0.36487 0.78115-0.78115
  -4  -2   064763.11 1585.80   1 0.09743-0.40545-0.45458 0.22748 0.88535-0.88535
   4  -2   063066.80 1486.73   1 0.71162-0.40375 0.64288-0.86988-0.28335 0.28335
  -4   2  -1221575.7 5084.97   1 0.11333-0.42247 0.27722-0.05041-0.95409 0.90497
  -4  -2  -1194001.7 4470.72   1 0.40262-0.71182-0.90624 0.67943 0.12885-0.17797
   4   2   1209447.4 4815.65   1 0.64313-0.33398-0.63795 0.86503 0.42353-0.37439
   4  -2   1213139.3 4916.51   1 0.53773-0.22903 0.54259-0.76945 0.64531-0.59622
  -4  -2  -1216326.9 4991.27   1-0.00519-0.30415-0.50874 0.28163 0.86090-0.91003
   4  -2   1204800.2 4687.74   1 0.74133-0.43212 0.63078-0.85778-0.22918 0.27833
  -4   2  -1217271.3 4950.67   1 0.33488-0.64402 0.63478-0.40785-0.69634 0.64721
  -4   2  -290902.82 2158.31   1 0.17456-0.48506 0.16575 0.06105-0.97059 0.87234
   4  -2   276145.70 1806.77   1 0.36249-0.05212-0.24016 0.01341-0.90050 0.99855
  -4  -2  -277909.57 1879.19   1 0.38267-0.69321-0.91763 0.69081 0.10722-0.20547
   4  -2   289694.39 2172.61   1 0.49707-0.18706 0.60285-0.82971 0.62408-0.52591
  -4  -2  -285154.85 2047.96   1-0.10815-0.20255-0.55644 0.32943 0.82381-0.92219
   4  -2   284331.94 1993.03   1 0.76398-0.45343 0.61872-0.84571-0.18304 0.28134
  -4   2  -291909.80 2136.09   1 0.42247-0.73296 0.65306-0.42613-0.62850 0.53024
  -4   2  -356561.60 1396.00   1 0.22894-0.54078 0.05940 0.16737-0.97162 0.82434
  -4   2  -359916.98 1494.93   1-0.46156 0.14951-0.65010 0.87726-0.60358 0.45612
  -4  -2  -359648.34 1479.94   1 0.36181-0.67368-0.92837 0.70155 0.08492-0.23230
  -4  -2  -362331.12 1625.20   1-0.20771-0.10438-0.59508 0.36808 0.77635-0.92391
   4  -2   361016.81 1482.23   1 0.78213-0.47024 0.60669-0.83369-0.14207 0.28952
  -4   2  -355032.92 1326.68   1 0.48017-0.79203 0.66093-0.43400-0.57670 0.42932
  -4   2  -4 5228.94  843.35   1-0.43118 0.11778-0.68663 0.91379-0.58532 0.38871
  -4  -2  -4 2673.56  349.50   1 0.34015-0.65337-0.93831 0.71149 0.06211-0.25861
   4  -2   4 2540.87  259.18   1 0.79707-0.48401 0.59476-0.82165-0.10450 0.30103
  -4  -2  -516289.77  473.34   1-0.02960-0.28513 0.50843-0.73524-0.86059 0.61491
  -4   2  -512322.23  497.69   1 0.31266-0.62728-0.12050 0.34725-0.94218 0.69708
  -4  -2  -516170.05  498.70   1 0.49672-0.81168-0.80645 0.57925-0.32078 0.07501
  -4   2  -512517.45  513.98   1-0.40614 0.09141-0.71450 0.94166-0.56967 0.32390
   4  -2   516513.11  601.98   1 0.80977-0.49538 0.58261-0.80949-0.06947 0.31513
   4   2   512358.03  512.65   1 0.38417-0.06959 0.64595-0.41902-0.65966 0.90530
  -4  -2  -6108316.8 2950.72   1-0.11978-0.19629 0.63410-0.86090-0.76391 0.46937
  -4   2  -6128585.1 3573.10   1 0.34267-0.65871-0.19113 0.41788-0.91980 0.62567
  -4  -2  -6114036.5 3123.57   1 0.49633-0.81267-0.80961 0.58242-0.31331 0.01839
  -4   2  -6128230.2 3600.18   1-0.38619 0.07012-0.73537 0.96253-0.55683 0.26191
  -4  -2  -6110954.1 3134.96   1 0.29481-0.61070-0.95542 0.72861 0.01535-0.31009
   4  -2   6117204.8 3282.33   1 0.82065-0.50493 0.57028-0.79716-0.03621 0.33100
   4   2   6132864.4 3696.81   1 0.45976-0.14381 0.65857-0.43164-0.59573 0.89050
  -4  -2  -762618.19 2130.26   1-0.17007-0.14739 0.69724-0.92403-0.69636 0.35274
  -4   2  -769034.77 2414.23   1 0.36604-0.68350-0.24916 0.47591-0.89661 0.55346
  -4  -2  -768039.03 2334.06   1 0.49665-0.81437-0.80701 0.57981-0.31947-0.02459
  -4   2  -764980.11 2321.75   1-0.37092 0.05351-0.75061 0.97777-0.54680 0.20273
  -4  -2  -768140.13 2421.65   1 0.27124-0.58847-0.96247 0.73565-0.00844-0.33542
   4  -2   769938.80 2465.83   1 0.83001-0.51297 0.55772-0.78460-0.00427 0.34820
   4   2   767359.47 2371.66   1 0.52597-0.20885 0.66467-0.43774-0.53061 0.87450
  -4   2  -849127.42 1669.86   1 0.38399-0.70287-0.29595 0.52270-0.87461 0.48244
  -4  -2  -853202.59 1753.70   1 0.49724-0.81634-0.80151 0.57432-0.33213-0.06109
  -4   2  -847299.41 1699.69   1-0.35987 0.04113-0.76123 0.98839-0.53944 0.14622
  -4  -2  -855802.96 1943.95   1 0.24713-0.56569-0.96843 0.74161-0.03245-0.36053
   4  -2   854171.03 1872.09   1 0.83808-0.51972 0.54489-0.77177 0.02665 0.36640
   4   2   852450.81 1799.32   1 0.58372-0.26526 0.66496-0.43804-0.46591 0.85892
  -4   2  -911677.96 1254.22   1 0.39776-0.71793-0.33320 0.55996-0.85484 0.41353
  -4  -2  -914754.27 1543.69   1 0.49787-0.81834-0.79418 0.56698-0.34841-0.09396
   4   2   9 7424.35  788.91   1 0.21382 0.10660-0.75022 0.97723 0.62565-0.18343
  -4   2  -9 9478.85 1124.67   1-0.35261 0.03253-0.76805 0.99521-0.53456 0.09218
  -4  -2  -915569.19 1691.79   1 0.22228-0.54233-0.97334 0.74628-0.05638-0.38591
   4  -2   914764.55 1589.36   1 0.84499-0.52530 0.53175-0.75863 0.05680 0.38538
   4   2   911572.61 1291.97   1 0.63359-0.31377 0.66074-0.43382-0.40246 0.84459
  -4   2 -1011207.41  685.33   1 0.40802-0.72957-0.36212 0.58889-0.83808 0.34774
  -4  -2 -1011778.65  691.84   1 0.49839-0.82024-0.78546 0.55827-0.36693-0.12459
  -4   2 -1012028.05 1164.71   1-0.34872 0.02729-0.77165 0.99881-0.53192 0.04039
  -4  -2 -1010617.90  775.64   1 0.19714-0.51853-0.97704 0.74997-0.08076-0.41068
   4  -2  1011548.53  733.28   1 0.85084-0.52983 0.51827-0.74515 0.08633 0.40498
   4   2  1011238.33  811.59   1 0.67638-0.35512 0.65308-0.42609-0.34055 0.83206
  -4   2 -11 9281.02 1143.39   1 0.41561-0.73856-0.38420 0.61096-0.82440 0.28503
  -4  -2 -11 6347.11  790.70   1 0.49872-0.82195-0.77560 0.54840-0.38692-0.15375
  -4   2 -11 8581.47 1603.67   1-0.34781 0.02505-0.77248 0.99964-0.53131-0.00937
  -4  -2 -11 6970.81  982.93   1 0.17151-0.49424-0.97954 0.75247-0.10526-0.43532
   4  -2  11 5724.45  795.24   1 0.85580-0.53352 0.50430-0.73120 0.11526 0.42506
   4   2  11 8125.86 1078.02   1 0.71302-0.39043 0.64239-0.41539-0.28092 0.82158
  -4   2 -1234750.25 2480.42   1 0.42110-0.74543-0.40055 0.62732-0.81377 0.22536
  -4  -2 -1236444.27 2570.72   1 0.49879-0.82340-0.76470 0.53750-0.40794-0.18188
  -4   2 -1230626.56 2222.53   1-0.34956 0.02546-0.77087 0.99802-0.53250-0.05733
  -4  -2 -1234587.09 2513.69   1 0.14540-0.46946-0.98080 0.75374-0.12987-0.45985
   4  -2  1238812.45 2788.27   1 0.85972-0.53613 0.49006-0.71696 0.14390 0.44555
   4   2  1235822.12 2563.24   1 0.74427-0.42034 0.62937-0.40238-0.22345 0.81326
  -4   2 -1329336.45 1699.50   1 0.42490-0.75062-0.41209 0.63886-0.80599 0.16855
  -4  -2 -1333383.00 1858.18   1 0.49857-0.82456-0.75283 0.52564-0.42971-0.20927
  -4   2 -1327266.73 1626.00   1-0.35369 0.02825-0.76704 0.99420-0.53529-0.10370
  -4  -2 -1330945.34 1852.80   1 0.11882-0.44422-0.98080 0.75374-0.15458-0.48429
   4  -2  1330739.04 1757.92   1 0.86274-0.53782 0.47541-0.70231 0.17221 0.46635
   4   2  1330424.39 1767.95   1 0.77082-0.44554 0.61447-0.38747-0.16809 0.80706
  -4   2 -14  148.06  334.08   1 0.42732-0.75444-0.41955 0.64632-0.80085 0.11437
  -4  -2 -14  875.12  249.08   1 0.49802-0.82538-0.74002 0.51282-0.45203-0.23610
  -4   2 -14  379.52  160.37   1-0.35994 0.03316-0.76117 0.98833-0.53949-0.14865
  -4  -2 -14  936.33  347.90   1 0.09175-0.41849-0.97949 0.75242-0.17938-0.50864
   4  -2  14  318.43  333.19   1 0.86486-0.53863 0.46032-0.68722 0.20025 0.48743
   4   2  14 1498.69  662.22   1 0.79309-0.46679 0.59817-0.37129-0.11480 0.80264
  -4   2 -15 7141.93 1264.64   1 0.42860-0.75711-0.42351 0.65028-0.79808 0.06257
  -4  -2 -15 4920.73  879.72   1 0.49710-0.82584-0.72626 0.49907-0.47478-0.26250
  -4   2 -15 6006.37 1400.86   1-0.36810 0.03998-0.75335 0.98050-0.54494-0.19235
  -4  -2 -15 5314.44  967.10   1 0.06420-0.39228-0.97680 0.74974-0.20425-0.53291
   4  -2  15 5168.24 1018.52   1 0.86611-0.53855 0.44477-0.67168 0.22808 0.50872
   4   2  15 7455.77 1285.30   1 0.81186-0.48423 0.58040-0.35352-0.06336 0.80033
  -4   2 -1617941.15 1804.81   1 0.42889-0.75879-0.42443 0.65119-0.79743 0.01289
  -4  -2 -1618332.38 1817.59   1 0.49578-0.82590-0.71156 0.48436-0.49787-0.28857
  -4   2 -1618118.50 2471.10   1-0.37800 0.04854-0.74362 0.97078-0.55147-0.23497
  -4  -2 -1615656.26 2664.45   1 0.03603-0.36513-0.97278 0.74579-0.22887-0.55719
   4  -2  1619392.93 1951.98   1 0.86647-0.53759 0.42874-0.65565 0.25573 0.53020
   4   2  1618113.91 1846.60   1 0.82737-0.49842 0.56148-0.33459-0.01365 0.79976
   4   3 -1615659.35 1290.77   1 0.48227-0.19690-0.62508 0.96531-0.61374-0.17144
   4  -3 -1612014.66 1064.75   1 0.44686-0.16118-0.89405 0.55365 0.03120-0.81699
  -4  -3  1611139.61  972.77   1 0.65623-0.94186-0.00565-0.33454 0.75453 0.03124
   4   3 -15 6258.90  776.08   1 0.48352-0.19676-0.63155 0.97178-0.60608-0.13003
  -4  -3  15 2735.41  665.92   1 0.65549-0.94250-0.00651-0.33367 0.75517-0.01849
   4   3 -14 8228.01  880.06   1 0.48444-0.19629-0.63646 0.97669-0.60019-0.08684
   4  -3 -1410806.06 1098.26   1 0.42123-0.13279-0.89723 0.55683 0.13237-0.81994
   4  -3 -14 7910.26  706.40   1 0.40256-0.11342-0.90628 0.56606 0.12878-0.81652
  -4  -3  14 9032.66  855.35   1 0.65280-0.94119-0.00964-0.33054 0.75746-0.06989
   4   3 -13 4452.57  711.48   1 0.48502-0.19548-0.63959 0.97982-0.59638-0.04158
   4  -3 -13 2161.61  509.74   1 0.40572-0.11591-0.89495 0.55454 0.18558-0.82403
   4  -3 -13 3967.46  536.47   1 0.46324-0.17272-0.86444 0.52398 0.19528-0.83402
  -4  -3  13 4192.93  614.53   1 0.64793-0.93770-0.01529-0.32490 0.76154-0.12309
   4   3 -12 4423.28  684.32   1 0.48522-0.19429-0.64069 0.98092-0.59504 0.00614
   4  -3 -12 2634.02  526.29   1 0.38848-0.09716-0.88954 0.54912 0.24039-0.83007
   4  -3 -12 1597.49  289.22   1 0.51966-0.22782-0.81334 0.47288 0.26155-0.85116
  -4  -3  12 1330.75  280.01   1 0.64056-0.93171-0.02371-0.31647 0.76753-0.17819
   4   3 -1130382.24 1888.75   1 0.48498-0.19266-0.63938 0.97961-0.59663 0.05682
   4  -3 -1140604.36 2460.90   1 0.36857-0.07586-0.88070 0.54028 0.29751-0.83805
   4  -3 -1130391.86 1773.11   1 0.57279-0.27934-0.75152 0.41091 0.32729-0.86782
  -4   3  1127221.02 1544.75   1 0.54367-0.83659-0.12450 0.46459 0.83001-0.29026
  -4  -3  1138356.00 2284.16   1 0.63031-0.92283-0.03524-0.30495 0.77553-0.23531
   4   3 -1023802.37 1238.88   1 0.48420-0.19049-0.63515 0.97539-0.60176 0.11102
   4  -3 -1018315.67 2154.16   1 0.34603-0.05194-0.86779 0.52737 0.35664-0.84804
   4  -3 -1019298.01 2220.72   1 0.62052-0.32577-0.67965 0.33904 0.39117-0.88256
  -4  -3  1016648.85 1884.08   1 0.68476-0.97984-0.54036 0.19972 0.48897 0.00227
  -4   3  1017668.91 1995.68   1 0.45557-0.74981-0.20453 0.54463 0.86637-0.37569
  -4  -3  1020362.67 1511.59   1 0.61669-0.91060-0.05021-0.28998 0.78559-0.29448
   4   3  -968312.94 3493.81   1 0.48270-0.18760-0.62727 0.96751-0.61115 0.16949
   4  -3  -964498.53 3286.41   1 0.32055-0.02507-0.85015 0.50973 0.41770-0.85996
  -4  -3   958039.69 2863.62   1-0.07794-0.21783-0.94200 0.60150-0.32642 0.76859
   4  -3  -973514.10 3677.34   1 0.66211-0.36605-0.59763 0.25702 0.45214-0.89439
  -4  -3   966623.01 3285.65   1 0.67994-0.97630-0.55352 0.21288 0.48091-0.03878
  -4   3   958867.58 2891.77   1 0.26619-0.56193-0.34960 0.68971 0.89828-0.45665
   4   3  -814976.78 1604.03   1 0.48020-0.18371-0.61469 0.95493-0.62573 0.23314
   4  -3  -8 8629.16 1060.18   1 0.29208 0.00469-0.82680 0.48629 0.48069-0.87378
  -4  -3   8 7343.78  764.64   1-0.26537-0.03179-0.84028 0.49969-0.47276 0.86562
  -4  -3   8 8431.15  880.83   1 0.67176-0.96939-0.57456 0.23391 0.46756-0.07456
   4  -3  -8 9722.96 1066.66   1 0.69629-0.39865-0.50599 0.16535 0.50906-0.90207
  -4  -3   8 9081.92 1031.70   1 0.57687-0.87353-0.09202-0.24817 0.81162-0.41873
   4   3  -710245.27  508.96   1 0.47621-0.17833-0.59588 0.93611-0.64663 0.30311
   4  -3  -7 7606.21  529.92   1 0.25974 0.03843-0.79733 0.45682 0.54477-0.88872
  -4  -3   7 7010.85  265.00   1-0.42954 0.13088-0.68851 0.34777-0.58432 0.92839
  -4  -3   7 7620.76  321.22   1 0.66129-0.95997-0.59950 0.25889 0.45087-0.10689
   4  -3  -7 6991.27  500.00   1 0.72182-0.42291-0.40683 0.06619 0.55987-0.90374
  -4  -3   7 8489.28  469.41   1 0.54869-0.84687-0.11963-0.22046 0.82742-0.48394
   4   3  -623209.33 1612.12   1 0.46994-0.17067-0.56855 0.90878-0.67520 0.38075
   4  -3  -617896.62 1285.15   1 0.22353 0.07603-0.76065 0.42013 0.60945-0.90426
  -4  -3   617001.79 1143.17   1 0.64815-0.94814-0.62783 0.28722 0.43094-0.13611
   4  -3  -617314.17 1213.79   1 0.73850-0.43874-0.30098-0.03924 0.60334-0.89775
   4   3  -621638.58 1434.74   1 0.56149-0.26193 0.50349-0.16321 0.65666-0.95118
  -4  -3   619440.12 1350.46   1 0.51458-0.81407-0.15200-0.18809 0.84386-0.54945
  -4   3   584117.13 2921.28   1-0.18487-0.11586 0.71476-0.37457-0.67448 0.91992
   4   3  -580307.94 2792.86   1 0.46001-0.15935-0.52924 0.86947-0.71294 0.46757
  -4  -3   574812.89 2554.80   1 0.63310-0.93440-0.65720 0.31659 0.40897-0.16327
   4  -3  -573771.07 2567.23   1 0.74485-0.44379-0.19321-0.14701 0.63864-0.88398
   4   3  -574141.59 2523.93   1 0.65314-0.35236 0.31148 0.02849 0.69020-0.93543
  -4  -3   566547.25 2338.33   1 0.47311-0.77392-0.18934-0.15075 0.86041-0.61507
  -4   3   448636.81 1760.36   1-0.14082-0.16130 0.66118-0.32098-0.73688 0.93324
   4   3  -447356.32 1674.25   1 0.44373-0.14166-0.47242 0.81257-0.76152 0.56538
  -4  -3   446473.09 1616.17   1 0.61640-0.91901-0.68664 0.34602 0.38544-0.18889
   4  -3  -446142.04 1651.82   1 0.74192-0.43964-0.08518-0.25490 0.66504-0.86123
   4   3  -445055.00 1563.91   1 0.70867-0.40639 0.13101 0.20907 0.69325-0.88945
  -4  -3   449646.78 1772.01   1 0.42339-0.72552-0.23153-0.10855 0.87585-0.67958
  -4  -3   315730.72  546.12   1 0.59827-0.90219-0.71548 0.37486 0.36076-0.21334
   4  -3  -315527.48  608.49   1 0.73036-0.42683 0.01909-0.35918 0.68279-0.82993
  -4  -3   315445.82  581.46   1 0.36469-0.66824-0.27826-0.06183 0.88857-0.74136
   4   3  -260976.37 1709.84   1 0.37425-0.06954-0.27030 0.61042-0.88705 0.78901
  -4  -3   258593.71 1648.62   1 0.49190-0.79713-0.83403 0.49335-0.24982 0.34810
  -4  -3   260149.82 1716.14   1 0.57891-0.88414-0.74329 0.40268 0.33521-0.23693
   4   3  -254373.56 1539.75   1 0.74487-0.43993-0.15984 0.50007 0.64777-0.74591
   4  -3  -264822.09 1891.49   1 0.71182-0.40705 0.11742-0.45751 0.69246-0.79056
   4  -3  -262654.19 1705.69   1 0.23035 0.07450-0.37363 0.03353 0.89851-0.99665
  -4  -3   263414.42 1878.99   1 0.29690-0.60176-0.32822-0.01187 0.89672-0.79858
   4  -3  -260936.17 1656.12   1 0.84803-0.54284 0.31656-0.65690 0.42500-0.52325
  -4   3   178094.56 2244.21   1 0.00938-0.31584 0.44916-0.10894-0.89339 0.94253
   4   3  -166517.82 1841.80   1 0.30258 0.00354-0.09763 0.43775-0.94810 0.89908
  -4  -3   165680.29 1819.53   1 0.49681-0.80351-0.80560 0.46481-0.32274 0.37190
  -4  -3   168451.79 1940.76   1 0.55847-0.86501-0.76980 0.42919 0.30902-0.25988
   4   3  -160158.02 1703.71   1 0.74155-0.43531-0.26723 0.60746 0.61537-0.66444
   4  -3  -169774.62 2006.46   1 0.68850-0.38264 0.20806-0.54804 0.69474-0.74379
   4  -3  -164289.82 1759.48   1-0.17334 0.47987-0.58254 0.24204 0.79409-0.84328
  -4  -3   174112.00 2169.20   1 0.22036-0.52652-0.38016 0.04006 0.89828-0.84921
   4  -3  -172961.86 1996.98   1 0.86646-0.56006 0.43237-0.77273 0.24956-0.29868
  -4   3   0 2805.98  364.49   1 0.06175-0.36952 0.36518-0.02496-0.92888 0.92888
   4   3   0 2338.75  139.64   1 0.18880 0.11888 0.13846 0.20170-0.97220 0.97220
  -4  -3   0 1996.70  131.87   1 0.49875-0.80683-0.76051 0.41971-0.41576 0.41576
  -4  -3   0 2894.54  230.46   1 0.53696-0.84477-0.79484 0.45438 0.28264-0.28264
   4  -3   0 2395.61  308.48   1 0.66162-0.35449 0.28897-0.62895 0.69191-0.69191
  -4  -3   0 2739.39  250.98   1 0.13588-0.44391-0.43245 0.09179 0.89135-0.89135
   4  -3   0 3382.42  196.61   1 0.86341-0.55568 0.47134-0.81170 0.17987-0.17987
  -4   3   0 2363.09  131.64   1 0.36868-0.67645 0.64267-0.30228-0.67159 0.67159
   4   3   1 2290.07  233.47   1 0.02813 0.28108 0.41964-0.07942-0.90725 0.95639
  -4   3  -1 1876.61  263.70   1 0.11253-0.42166 0.27863 0.06158-0.95378 0.90465
  -4  -3  -1 3377.96  153.03   1 0.49251-0.80196-0.68405 0.34325-0.53805 0.48890
  -4  -3  -1 2767.61  269.07   1 0.51471-0.82385-0.81837 0.47791 0.25558-0.30472
   4  -3   1 3403.22  334.97   1 0.63334-0.32494 0.35992-0.69991 0.68507-0.63602
  -4  -3  -1 4015.48  327.32   1 0.04624-0.35559-0.48248 0.14182 0.87468-0.92381
   4  -3   1 3779.15  235.14   1 0.86014-0.55109 0.48827-0.82862 0.14742-0.09830
  -4   3  -252989.78 1633.76   1 0.16020-0.47070 0.19262 0.14759-0.96810 0.86985
  -4  -3  -239498.76 1097.57   1 0.46557-0.77595-0.55074 0.21051-0.69276 0.59461
  -4  -3  -236260.91 1102.58   1 0.49173-0.80220-0.84028 0.49982 0.22829-0.32656
   4  -3   242075.21 1327.06   1 0.60569-0.29568 0.42106-0.76135 0.67515-0.57698
  -4  -3  -241632.48 1275.02   1-0.04632-0.26434-0.52845 0.18779 0.84769-0.94596
   4  -3   239529.35 1150.55   1 0.85838-0.54800 0.49537-0.83573 0.13334-0.03510
  -4   3  -249893.54 1402.93   1 0.53646-0.84683 0.66508-0.32470-0.51947 0.42122
  -4   3  -356610.09 1683.65   1 0.20341-0.51525 0.11015 0.23002-0.97287 0.82559
  -4  -3  -346968.78 1296.07   1 0.40324-0.71506-0.34854 0.00840-0.84611 0.69901
  -4  -3  -348157.67 1332.03   1 0.28518-0.59726-0.82080 0.48028 0.49492-0.64233
  -4  -3  -345450.08 1367.20   1 0.46808-0.77989-0.86055 0.52009 0.20083-0.34824
   4  -3   351831.36 1555.20   1 0.57889-0.26758 0.47271-0.81299 0.66439-0.51713
  -4  -3  -349264.18 1485.09   1-0.13892-0.17318-0.56913 0.22863 0.81042-0.95798
   4  -3   348883.58 1421.32   1 0.85791-0.54622 0.49710-0.83745 0.12989 0.01747
  -4   3  -347818.54 1357.67   1 0.57503-0.88675 0.66524-0.32486-0.47621 0.32883
  -4   3  -4213357.5 7231.21   1 0.24161-0.55483 0.03359 0.30658-0.96979 0.77341
  -4  -3  -4221819.5 7435.00   1 0.30774-0.62094-0.10927-0.23084-0.94517 0.74908
  -4  -3  -4240829.9 7605.72   1 0.37013-0.68364-0.88149 0.54107 0.29320-0.48976
  -4  -3  -4207801.0 7043.78   1 0.44384-0.75697-0.87919 0.53873 0.17327-0.36980
   4  -3   4211817.0 7204.54   1 0.55425-0.24163 0.51575-0.85603 0.65329-0.45695
  -4  -3  -4224028.9 7146.45   1-0.22897-0.08451-0.60241 0.26191 0.76463-0.96138
   4  -3   4235676.8 7502.71   1 0.85835-0.54534 0.49546-0.83581 0.13318 0.06330
  -4  -3  -528761.45 1888.23   1 0.20377-0.51837 0.10945-0.44962-0.97288 0.72740
  -4   3  -533083.17 1248.74   1 0.27445-0.58904-0.03547 0.37565-0.96094 0.71547
  -4  -3  -532991.56 1150.28   1 0.41650-0.73117-0.89681 0.55641 0.14913-0.39469
  -4  -3  -530637.70 2087.55   1 0.41903-0.73350-0.89621 0.55575 0.14562-0.39129
   4  -3   535184.00 1365.75   1 0.53230-0.21838 0.55109-0.89138 0.64260-0.39717
   4  -3   531823.68 2141.52   1 0.85937-0.54503 0.49150-0.83186 0.14104 0.10455
   4   3   533057.38 1237.19   1 0.31253 0.00205 0.62902-0.28862-0.71179 0.95743
  -4  -3  -6 9746.61  526.91   1 0.11367-0.42961 0.27663-0.61685-0.95422 0.65948
  -4   3  -613042.37  623.10   1 0.30177-0.61781-0.09580 0.43592-0.94855 0.65442
  -4  -3  -610997.97  439.22   1 0.44377-0.75983-0.89503 0.55462 0.04451-0.33918
  -4  -3  -6 9371.73  533.63   1 0.39300-0.70889-0.91188 0.57165 0.11838-0.41313
   4  -3   611552.12  553.09   1 0.86069-0.54503 0.48584-0.82620 0.15216 0.14255
   4   3   615315.52  717.82   1 0.39144-0.07549 0.64741-0.30701-0.65393 0.94870
  -4  -3  -7  909.43  154.95   1 0.04344-0.36093 0.39505-0.73526-0.91763 0.57367
  -4   3  -7  853.68  218.27   1 0.32462-0.64207-0.14817 0.48830-0.93416 0.59101
  -4  -3  -7  617.10  124.40   1 0.46082-0.77825-0.88682 0.54642-0.03436-0.30941
  -4  -3  -7  699.97  220.50   1 0.36717-0.68440-0.92572 0.58549 0.09062-0.43449
   4  -3   7 1532.39  372.74   1 0.49747-0.18093 0.60230-0.94258 0.62430-0.28069
   4  -3   7 1804.91  399.64   1 0.86212-0.54514 0.47883-0.81919 0.16569 0.17815
   4   3   7 1746.80  286.28   1 0.46305-0.14574 0.65898-0.31858-0.59271 0.93662
  -4  -3  -8 8133.26  854.56   1-0.00867-0.31019 0.47696-0.81718-0.87888 0.48579
  -4   3  -816652.23 1781.33   1 0.34325-0.66212-0.19253 0.53266-0.91929 0.52712
  -4  -3  -810091.56 1060.98   1 0.47240-0.79127-0.87596 0.53528-0.09756-0.29555
  -4  -3  -8 9428.66 1099.14   1 0.34087-0.65943-0.93800 0.59777 0.06286-0.45585
   4  -3   811321.49 1253.83   1 0.86350-0.54520 0.47071-0.81107 0.18105 0.21191
   4   3   816238.72 1724.40   1 0.52685-0.20838 0.66471-0.32432-0.52969 0.92270
  -4   3  -984614.87 4248.24   1 0.35826-0.67854-0.22950 0.56963-0.90497 0.46377
  -4  -3  -988247.72 4377.27   1 0.48055-0.80078-0.86391 0.52323-0.15075-0.29150
  -4   3  -983592.71 4218.41   1-0.47528 0.15519-0.63255 0.97329-0.61153 0.16915
  -4  -3  -990812.8210268.69   1 0.31411-0.63402-0.94873 0.60850 0.03509-0.47721
   4  -3   994984.2810733.49   1 0.86471-0.54509 0.46164-0.80200 0.19783 0.24425
   4   3   989068.4710059.12   1 0.58346-0.26364 0.66497-0.32458-0.46623 0.90836
  -4   3 -1016586.01 1939.43   1 0.37020-0.69190-0.25981 0.59994-0.89187 0.40166
  -4  -3 -1012382.80 1434.16   1 0.48652-0.80812-0.85107 0.51039-0.19740-0.29400
  -4   3 -1015424.05 1841.15   1-0.46828 0.14686-0.64159 0.98233-0.60750 0.11597
  -4  -3 -1013264.08 1602.89   1 0.28692-0.60816-0.95792 0.61769 0.00734-0.49858
   4  -3  1012549.40 1493.20   1 0.86566-0.54472 0.45173-0.79209 0.21576 0.27544
   4   3  1017872.12 2096.57   1 0.63304-0.31188 0.66081-0.32043-0.40319 0.89445
  -4   3 -11 6390.74  628.89   1 0.37957-0.70269-0.28422 0.62435-0.88041 0.34118
  -4  -3 -11 2880.78  369.35   1 0.49096-0.81392-0.83759 0.49691-0.23954-0.30099
  -4   3 -11 5520.52  531.17   1-0.46390 0.14114-0.64716 0.98790-0.60495 0.06426
  -4  -3 -11 3020.19  540.17   1 0.25928-0.58186-0.96558 0.62535-0.02040-0.51996
   4  -3  11 3688.37  453.61   1 0.86627-0.54400 0.44104-0.78140 0.23461 0.30571
   4   3  11 7181.22  738.41   1 0.67611-0.35351 0.65315-0.31265-0.34096 0.88162
  -4   3 -1221780.46 1296.87   1 0.38679-0.71133-0.30343 0.64356-0.87081 0.28255
  -4  -3 -1223074.11 1313.42   1 0.49423-0.81855-0.82351 0.48283-0.27849-0.31119
  -4   3 -1219569.16 1233.97   1-0.46195 0.13785-0.64961 0.99035-0.60381 0.01397
  -4  -3 -1224254.02 1468.59   1 0.23094-0.55500-0.97178 0.63118-0.04791-0.54182
   4  -3  1224578.41 1451.22   1 0.86647-0.54288 0.42964-0.76999 0.25422 0.33523
   4   3  1221391.22 1293.12   1 0.71332-0.38938 0.64228-0.30179-0.28041 0.87022
  -4   3 -13 4886.94  852.57   1 0.39233-0.71806-0.31826 0.65840-0.86300 0.22556
  -4  -3 -13 4758.19  814.69   1 0.49645-0.82243-0.80870 0.46791-0.31548-0.32350
  -4   3 -13 4337.41  765.43   1-0.46225 0.13681-0.64923 0.98997-0.60399-0.03500
  -4  -3 -13 5579.95 1071.01   1 0.20242-0.52782-0.97637 0.63576-0.07567-0.56320
   4  -3  13 6178.34 1132.40   1 0.86620-0.54129 0.41755-0.75790 0.27446 0.36410
   4   3  13 5429.53  958.08   1 0.74526-0.41998 0.62889-0.28840-0.22152 0.86048
  -4   3 -14 1942.37  458.62   1 0.39621-0.72333-0.32890 0.66905-0.85722 0.17075
  -4  -3 -14 1734.62  503.10   1 0.49793-0.82530-0.79329 0.45250-0.35033-0.33781
  -4   3 -14 1299.17  369.12   1-0.46462 0.13784-0.64625 0.98698-0.60537-0.08277
  -4  -3 -14  467.10  314.81   1 0.17344-0.50018-0.97939 0.63879-0.10343-0.58459
   4  -3  14 1066.34  305.59   1 0.86542-0.53918 0.40480-0.74515 0.29525 0.39244
   4   3  14  953.09  327.43   1 0.77248-0.44587 0.61338-0.27289-0.16436 0.85248
  -4   3 -15 6761.99  815.31   1 0.39877-0.72728-0.33600 0.67615-0.85327 0.11776
  -4  -3 -15 7234.18  782.33   1 0.49868-0.82743-0.77716 0.43637-0.38382-0.35346
  -4   3 -15 6939.62  839.47   1-0.46890 0.14078-0.64080 0.98154-0.60786-0.12943
  -4  -3 -15 8460.81 1020.63   1 0.14401-0.47208-0.98084 0.64024-0.13118-0.60598
   4  -3  15 8090.65  954.53   1 0.86407-0.53652 0.39140-0.73176 0.31649 0.42031
   4   3  15 5296.51  621.73   1 0.79533-0.46771 0.59627-0.25595-0.10903 0.84601
  -4   3 -16 5352.53  740.73   1 0.40019-0.73009-0.33995 0.68010-0.85104 0.06650
  -4  -3 -16 5480.42  730.01   1 0.49875-0.82887-0.76024 0.41944-0.41626-0.37018
  -4   3 -16 6475.13  860.52   1-0.47494 0.14548-0.63300 0.97374-0.61134-0.17511
  -4  -3 -16 6054.72  974.80   1 0.11410-0.44351-0.98067 0.64007-0.15893-0.62737
   4  -3  16 5767.37  803.50   1 0.86226-0.53283 0.37740-0.71774 0.33773 0.44825
   4   3  16 5740.27  807.10   1 0.81455-0.48559 0.57744-0.23712-0.05529 0.84140
   4   4 -1511739.03 1452.33   1 0.46044-0.17368-0.53085 0.98449-0.71146-0.02464
   4  -4 -15 9030.97 1175.51   1 0.41609-0.12904-0.89676 0.44289 0.15055-0.88723
  -4  -4  15 8886.80 1167.87   1 0.62360-0.91061-0.04267-0.41092 0.78057-0.04390
   4   4 -14 1405.20  476.56   1 0.46050-0.17235-0.53109 0.98473-0.71124 0.02420
   4  -4 -14 1016.34  388.14   1 0.40050-0.11195-0.89347 0.43958 0.20324-0.89119
   4  -4 -14 1030.75  317.77   1 0.47540-0.18621-0.85451 0.40056 0.20926-0.89714
  -4  -4  14 2939.93  730.09   1 0.62001-0.90840-0.04659-0.40699 0.78320-0.09563
   4   4 -13 4650.70  900.68   1 0.45991-0.17037-0.52885 0.98249-0.71329 0.07533
   4  -4 -13 7623.19 1580.91   1 0.38266-0.09273-0.88724 0.43335 0.25762-0.89644
   4  -4 -13 7856.21 1577.98   1 0.52375-0.23323-0.80911 0.35516 0.26649-0.90524
  -4  -4  13 7348.04 1298.39   1 0.61425-0.90401-0.05286-0.40072 0.78733-0.14888
   4   4 -1212064.81  963.45   1 0.45854-0.16761-0.52372 0.97736-0.71794 0.12905
   4  -4 -1210407.46  792.66   1 0.56901-0.27687-0.75647 0.30232 0.32243-0.91210
   4   4 -1125499.57 1659.26   1 0.45595-0.16362-0.51524 0.96876-0.72569 0.18631
   4  -4 -1125905.81 1606.31   1 0.60980-0.31636-0.69748 0.24333 0.37636-0.91689
  -4  -4  1122878.46 1454.15   1 0.59501-0.88753-0.07332-0.38026 0.80036-0.26013
   4   4 -1019933.42 1556.89   1 0.45244-0.15872-0.50256 0.95609-0.73669 0.24635
   4  -4 -1029131.83 2157.00   1 0.31604-0.02195-0.84674 0.39285 0.42794-0.91933
   4  -4 -1024453.04 1767.22   1 0.64603-0.35128-0.63216 0.17801 0.42780-0.91919
  -4  -4  1025560.18 1798.97   1 0.70406-0.99915-0.47993 0.02573 0.52340-0.03215
  -4  -4  1024891.20 1851.88   1 0.58081-0.87471-0.08801-0.36558 0.80926-0.31814
   4   4  -9  886.78  350.05   1 0.44739-0.15228-0.48487 0.93840-0.75149 0.31018
   4  -4  -9  920.02  456.45   1 0.28920 0.00618-0.82432 0.37030 0.48667-0.92889
  -4  -4   9  907.66  166.82   1 0.70013-0.99649-0.49345 0.03926 0.51605-0.07393
   4  -4  -9 1502.17  374.51   1 0.67718-0.38082-0.56081 0.10662 0.47635-0.91848
  -4  -4   9  790.35  347.16   1 0.56295-0.85823-0.10601-0.34757 0.81966-0.37765
   4   4  -820708.10 1534.18   1 0.44029-0.14378-0.46095 0.91447-0.77049 0.37822
   4  -4  -831353.98 1493.27   1 0.25934 0.03744-0.79695 0.34293 0.54552-0.93861
   4  -4  -832386.29 1473.07   1 0.70267-0.40504-0.48480 0.03061 0.52078-0.91378
  -4  -4   834533.63 1490.60   1 0.69431-0.99195-0.51219 0.05800 0.50554-0.11254
  -4  -4   832342.40 1504.90   1 0.54039-0.83726-0.12765-0.32581 0.83166-0.43912
   4   4  -737769.07 1975.96   1 0.43041-0.13252-0.42919 0.88272-0.79406 0.45082
   4  -4  -728963.48 1549.30   1 0.22667 0.07149-0.76398 0.30996 0.60410-0.94805
  -4  -4   732261.56 1650.77   1 0.68672-0.98562-0.53483 0.08064 0.49230-0.14842
   4  -4  -726634.17 1451.76   1 0.72221-0.42331-0.40489-0.04929 0.56076-0.90464
   4   4  -731099.59 1563.93   1 0.49880-0.20055 0.60043-0.14672 0.62503-0.96863
  -4  -4   730450.94 1626.40   1 0.51351-0.81170-0.15298-0.30047 0.84432-0.50085
   4   4  -662155.01 2096.26   1 0.41672-0.11743-0.38749 0.84102-0.82230 0.52810
  -4  -4   660371.16 2007.83   1 0.67738-0.97757-0.56027 0.10608 0.47669-0.18194
   4  -4  -655004.77 1916.82   1 0.73616-0.43640-0.32147-0.13215 0.59557-0.88999
  -4  -4   659195.39 2059.08   1 0.48114-0.78064-0.18227-0.27119 0.85748-0.56307
  -4   4   519021.16 1992.30   1-0.15484-0.14589 0.67870-0.22511-0.71790 0.96334
   4   4  -520828.06 2165.64   1 0.39774-0.09706-0.33312 0.78665-0.85488 0.60971
  -4  -4   528990.15 1039.56   1 0.66636-0.96781-0.58761 0.13341 0.45899-0.21336
   4  -4  -526269.96 1012.68   1 0.74341-0.44235-0.23779-0.21584 0.62513-0.87047
  -4  -4   528339.06 1109.94   1 0.44260-0.74341-0.21555-0.23791 0.87042-0.62508
  -4   4   4 2089.07  233.03   1-0.11449-0.18763 0.62716-0.17357-0.77042 0.96677
   4   4  -4 1773.77  204.26   1 0.37129-0.06940-0.26261 0.71612-0.89060 0.69451
  -4  -4   4 2429.90  312.85   1 0.65385-0.95646-0.61588 0.16173 0.43949-0.24294
   4  -4  -4 1947.87  315.73   1 0.74479-0.44244-0.15450-0.29913 0.64915-0.84543
  -4  -4   4 1963.08  269.33   1 0.39727-0.69939-0.25268-0.20077 0.88222-0.68595
  -4   4   311979.57  938.21   1-0.07226-0.23144 0.57001-0.11638-0.81845 0.96586
   4   4  -310786.49  452.27   1 0.33485-0.03155-0.17234 0.62584-0.92637 0.77931
  -4  -4   310624.72  502.52   1 0.63959-0.94350-0.64491 0.19076 0.41834-0.27092
   4  -4  -310606.57  589.43   1 0.74099-0.43746-0.07280-0.38064 0.66755-0.81470
  -4  -4   310626.19 1250.34   1 0.34463-0.64819-0.29346-0.16000 0.89168-0.74447
  -4   4   219760.46 1474.10   1-0.02881-0.27626 0.50726-0.05363-0.86131 0.95958
  -4  -4   210095.83  437.21   1 0.49879-0.80411-0.76407 0.30968-0.40913 0.50744
  -4  -4   211687.56  553.60   1 0.62384-0.92907-0.67389 0.21974 0.39582-0.29754
   4  -4  -210647.32  546.38   1 0.73238-0.42760 0.00519-0.45865 0.68087-0.77896
  -4  -4   211670.63  984.09   1 0.28457-0.58943-0.33690-0.11656 0.89750-0.79936
  -4   4   156268.13 1972.47   1 0.01500-0.32147 0.44037 0.01325-0.89769 0.94682
   4   4  -153865.41 1758.72   1 0.21875 0.08755 0.07987 0.37369-0.97250 0.92341
  -4  -4   146982.66 1560.10   1 0.49665-0.80335-0.72087 0.26647-0.48339 0.53255
  -4  -4   153714.26 1813.87   1 0.60671-0.91324-0.70242 0.24827 0.37214-0.32300
   4  -4  -152492.50 1852.18   1 0.72001-0.41399 0.07870-0.53215 0.68947-0.73852
  -4  -4   153267.85 1828.12   1 0.21721-0.52337-0.38220-0.07126 0.89818-0.84911
  -4   4   152691.11 1683.20   1 0.33575-0.64215 0.63499-0.18113-0.69573 0.74486
  -4   4   041926.71 1594.02   1 0.05834-0.36611 0.37080 0.08281-0.92687 0.92687
   4   4   039946.41 1417.59   1 0.13416 0.17360 0.24019 0.21343-0.96140 0.96140
  -4  -4   048206.40 1670.36   1 0.48897-0.79658-0.66268 0.20903-0.56723 0.56723
  -4  -4   052395.91 1891.94   1 0.58828-0.89613-0.73018 0.27603 0.34748-0.34748
   4  -4   052255.20 1900.89   1 0.70519-0.39806 0.14708-0.60040 0.69358-0.69358
  -4  -4   052035.91 1882.53   1 0.14278-0.45080-0.42837-0.02583 0.89224-0.89224
   4  -4   052575.03 1802.06   1 0.80799-0.49978 0.21693-0.67091 0.54780-0.54780
  -4   4   038479.73 1322.62   1 0.48717-0.79494 0.66164-0.20777-0.56999 0.56999
   4   4   115655.06  554.44   1 0.03386 0.27535 0.41048 0.04313-0.91123 0.96037
  -4  -4  -112202.54  464.57   1 0.47416-0.78316-0.58667 0.13302-0.65649 0.60742
  -4  -4  -113627.09  651.05   1 0.56867-0.87783-0.75691 0.30276 0.32200-0.37114
   4  -4   112395.17  606.49   1 0.68818-0.37978 0.20913-0.66245 0.69474-0.64569
  -4  -4  -113192.98 1014.32   1 0.06340-0.37275-0.47333 0.01912 0.87859-0.92773
   4  -4   112938.31  494.48   1 0.83782-0.52859 0.28633-0.74011 0.46482-0.41570
  -4   4  -114213.65  513.59   1 0.56344-0.87246 0.66543-0.21158-0.48961 0.44048
   4   4   221921.53  744.29   1-0.07286 0.38346 0.57085-0.11722-0.81781 0.91608
  -4  -4  -218956.87  662.08   1 0.44852-0.75894-0.48880 0.03527-0.74826 0.65019
  -4  -4  -220839.33  863.39   1 0.54776-0.85824-0.78250 0.32855 0.29603-0.39429
   4  -4   222420.57  948.82   1 0.67022-0.36056 0.26482-0.71814 0.69329-0.59520
  -4  -4  -225472.65 1595.78   1-0.01968-0.29098-0.51581 0.06160 0.85647-0.95474
   4  -4   220704.94  744.11   1 0.85125-0.54067 0.32755-0.78134 0.40997-0.31172
  -4   4  -220435.62  718.48   1 0.60647-0.91684 0.66361-0.20976-0.43795 0.33970
   4   4   358319.26 1874.25   1-0.17386 0.48575 0.70178-0.24818-0.69085 0.83811
  -4   4  -356345.32 1971.81   1 0.17579-0.48765 0.16343 0.29019-0.97076 0.82339
  -4  -4  -348870.58 1585.76   1 0.41071-0.72252-0.36988-0.08364-0.83336 0.68626
  -4  -4  -357613.20 1993.09   1 0.52602-0.83782-0.80672 0.35277 0.26925-0.41665
   4  -4   357989.12 2019.31   1 0.65213-0.34119 0.31409-0.76740 0.68997-0.54283
  -4  -4  -357891.50 2126.57   1-0.10432-0.20777-0.55481 0.10081 0.82540-0.97296
   4  -4   357664.58 1905.85   1 0.85762-0.54570 0.35295-0.80674 0.37403-0.22665
  -4   4  -4 1889.19  392.20   1 0.20849-0.52170 0.10020 0.35336-0.97287 0.77649
  -4  -4  -4 2621.60  306.32   1 0.36113-0.67434-0.23671-0.21678-0.90196 0.70588
  -4  -4  -4 2581.16  323.25   1 0.25570-0.56917-0.79342 0.33940 0.55235-0.74889
  -4  -4  -4 2392.92  373.92   1 0.50334-0.81647-0.82950 0.37555 0.24200-0.43854
   4  -4   4 3611.19  497.49   1 0.63457-0.32236 0.35706-0.81037 0.68543-0.48924
  -4  -4  -4 2825.77  466.04   1-0.18877-0.12472-0.58827 0.13427 0.78631-0.98306
   4  -4   4 2845.78  375.88   1 0.86077-0.54750 0.36863-0.82242 0.35095-0.15445
  -4   4  -551211.78 1780.31   1 0.23757-0.55217 0.04187 0.41169-0.97046 0.72499
  -4  -4  -551888.21 1689.68   1 0.30416-0.61879-0.10119-0.35231-0.94722 0.70212
  -4  -4  -559173.22 1924.69   1 0.32134-0.63623-0.85074 0.39685 0.41590-0.66159
  -4  -4  -555250.65 1908.67   1 0.47981-0.79427-0.85077 0.39682 0.21438-0.46005
   4  -4   558750.34 2039.61   1 0.61865-0.30473 0.39392-0.84763 0.67977-0.43434
   4  -4   559568.42 2003.64   1 0.86233-0.54772 0.37786-0.83165 0.33703-0.09141
  -4  -4  -621994.96 1115.79   1 0.24531-0.56129 0.02597-0.47954-0.96909 0.67452
  -4   4  -631445.13 1698.49   1 0.26293-0.57891-0.01087 0.46444-0.96475 0.67018
  -4  -4  -628636.64 1454.23   1 0.37000-0.68628-0.88142 0.42753 0.29356-0.58840
   4  -4   630493.33 1673.19   1 0.60364-0.28841 0.42521-0.87892 0.67439-0.37987
   4  -4   626734.47 1424.46   1 0.86304-0.54707 0.38255-0.83634 0.32986-0.03511
   4   4   630416.39 1599.27   1 0.34697-0.03102 0.63772-0.18386-0.68768 0.98246
  -4  -4  -737069.79 1546.03   1 0.19033-0.50769 0.13552-0.58909-0.97231 0.62865
  -4   4  -754347.61 2367.12   1 0.28472-0.60208-0.05777 0.51134-0.95686 0.61320
  -4  -4  -750743.41 2122.98   1 0.40449-0.72192-0.89466 0.44079 0.18962-0.53340
  -4  -4  -743741.10 1920.41   1 0.43043-0.74755-0.88864 0.43469 0.15825-0.50219
   4  -4   752105.25 2329.93   1 0.59036-0.27383 0.45128-0.90499 0.66918-0.32558
   4  -4   748465.49 2106.39   1 0.86323-0.54592 0.38389-0.83768 0.32780 0.01606
   4   4   755458.55 2377.33   1 0.41977-0.10246 0.65261-0.19875-0.63077 0.97467
  -4   4  -812605.15 1498.57   1 0.30290-0.62177-0.09833 0.55183-0.94793 0.55576
  -4  -4  -813617.56 1571.42   1 0.43009-0.74890-0.89727 0.44340 0.09957-0.49247
  -4  -4  -813616.73 1644.42   1 0.40394-0.72251-0.90545 0.45181 0.13029-0.52329
   4  -4   815525.59 1830.93   1 0.57898-0.26114 0.47254-0.92625 0.66443-0.27174
   4  -4   813730.50 1610.15   1 0.86305-0.54439 0.38264-0.83643 0.32972 0.06327
   4   4   813988.26 1654.14   1 0.48648-0.16780 0.66157-0.20771-0.57065 0.96368
  -4   4  -920207.73 1535.26   1 0.31839-0.63867-0.13368 0.58718-0.93848 0.49729
  -4  -4  -919947.73 1430.83   1 0.44893-0.76913-0.89329 0.43941 0.02204-0.46405
  -4  -4  -917877.34 1379.23   1 0.37752-0.69742-0.92039 0.46676 0.10169-0.54380
   4  -4   921552.94 1663.96   1 0.56958-0.25043 0.48943-0.94314 0.66032-0.21855
   4  -4   919390.95 1458.78   1 0.86256-0.54256 0.37934-0.83312 0.33478 0.10733
   4   4   920608.09 1511.56   1 0.54648-0.22667 0.66534-0.21149-0.50859 0.95073
  -4   4 -10 8809.31 1087.76   1 0.33121-0.65292-0.16370 0.61720-0.92924 0.43902
  -4  -4 -10 7981.29  876.95   1 0.46302-0.78460-0.88516 0.43128-0.04571-0.44540
  -4  -4 -10 8656.72 1004.88   1 0.35047-0.67171-0.93372 0.48008 0.07294-0.56418
   4  -4  10 7563.58  885.91   1 0.56218-0.24174 0.50230-0.95601 0.65698-0.16612
   4  -4  10 8748.71 1026.27   1 0.86176-0.54041 0.37433-0.82812 0.34238 0.14886
   4   4  10 8910.11 1049.42   1 0.60029-0.27913 0.66407-0.21022-0.44569 0.93695
  -4   4 -1110395.99 1739.63   1 0.34170-0.66482-0.18878 0.64228-0.92065 0.38141
  -4  -4 -11 7134.67  845.27   1 0.47379-0.79675-0.87422 0.41998-0.10604-0.43449
  -4  -4 -11 8188.40 1111.26   1 0.32283-0.64541-0.94542 0.49179 0.04408-0.58445
   4  -4  11 9030.25 1115.38   1 0.55678-0.23502 0.51150-0.96521 0.65448-0.11454
   4  -4  11 7789.28  960.46   1 0.86064-0.53794 0.36788-0.82167 0.35206 0.18830
   4   4  1111414.19  854.33   1 0.64783-0.32532 0.65862-0.20477-0.38277 0.92316
  -4   4 -12 3466.44  712.77   1 0.35013-0.67466-0.20934 0.66284-0.91300 0.32474
  -4  -4 -12 5864.04 1029.74   1 0.48188-0.80620-0.86141 0.40717-0.16045-0.42922
  -4  -4 -12 3513.18  712.09   1 0.29460-0.61851-0.95550 0.50186 0.01513-0.60462
   4  -4  12 4684.59  872.31   1 0.55331-0.23025 0.51732-0.97103 0.65285-0.06382
   4  -4  12 3988.21  771.86   1 0.85915-0.53511 0.36019-0.81397 0.36346 0.22603
   4   4  12 3256.92  647.55   1 0.68940-0.36546 0.64977-0.19577-0.32019 0.91000
  -4   4 -13 7755.17  800.69   1 0.35676-0.68271-0.22577 0.67927-0.90650 0.26922
  -4  -4 -13 8841.26  813.99   1 0.48799-0.81367-0.84711 0.39287-0.21037-0.42845
  -4  -4 -13 9479.09 1026.29   1 0.26579-0.59105-0.96392 0.51029-0.01390-0.62470
   4  -4  13 9280.57  967.52   1 0.55169-0.22733 0.52000-0.97371 0.65209-0.01397
   4   4  13 9155.37  940.14   1 0.72548-0.40021 0.63770-0.18370-0.25885 0.89782
  -4   4 -1420268.67 1534.38   1 0.36182-0.68919-0.23846 0.69196-0.90123 0.21492
  -4  -4 -1417615.46 1376.87   1 0.23611-0.56285-0.97078 0.51664-0.04283-0.64519
   4  -4  1417357.93 1392.01   1 0.55185-0.22618 0.51974-0.97345 0.65216 0.03503
   4  -4  1417950.50 1418.76   1 0.85495-0.52821 0.34154-0.79533 0.39038 0.29736
   4   4  1418891.95 1412.32   1 0.75652-0.42991 0.62301-0.16902-0.19879 0.88690
   4   5 -13  656.92  461.57   1 0.42396-0.13441-0.40923 0.97614-0.80794 0.17050
   4  -5 -13  859.27  402.14   1 0.36450-0.07457-0.87858 0.31121 0.30859-0.94740
   4  -5 -13  579.89  251.20   1 0.55358-0.26306-0.77559 0.20815 0.30331-0.94205
  -4  -5  13  240.48  318.96   1 0.57419-0.86396-0.09474-0.47225 0.81321-0.17476
   4   5 -12 1985.85  706.26   1 0.42038-0.12944-0.39839 0.96530-0.81520 0.22680
   4  -5 -12  161.51  358.73   1 0.34339-0.05207-0.86610 0.29874 0.36323-0.95291
   4  -5 -12  611.04  338.25   1 0.59120-0.29907-0.72597 0.15828 0.35134-0.94101
  -4  -5  12 1102.04  378.09   1 0.56504-0.85619-0.10393-0.46306 0.81848-0.22914
   4   5 -1110835.61  914.17   1 0.41539-0.12306-0.38355 0.95045-0.82482 0.28545
   4  -5 -11 9943.87  849.61   1 0.32029-0.02758-0.84996 0.28259 0.41830-0.95884
   4  -5 -11 8848.48  749.30   1 0.62479-0.33135-0.67222 0.10453 0.39716-0.93769
  -4  -5  11 9734.43  890.97   1 0.55264-0.84557-0.11577-0.45105 0.82533-0.28558
   4   5 -1012990.69 1010.55   1 0.40868-0.11496-0.36403 0.93094-0.83693 0.34659
   4  -5 -1018773.28 1429.70   1 0.29544-0.00143-0.82966 0.26213 0.47367-0.96502
   4  -5 -1017168.56 1257.21   1 0.65450-0.35975-0.61449 0.04680 0.44048-0.93187
  -4  -5  1017315.79 1265.48   1 0.53773-0.83197-0.13020-0.43662 0.83299-0.34231
   4   5  -929588.49 1862.39   1 0.39985-0.10474-0.33902 0.90592-0.85157 0.41026
   4  -5  -931382.28 1937.78   1 0.26816 0.02723-0.80532 0.23780 0.52871-0.97093
  -4  -5   931549.28 1886.88   1 0.69867-0.99503-0.49827-0.06946 0.51339-0.07126
   4  -5  -931967.80 1976.44   1 0.68011-0.38375-0.55308-0.01465 0.48118-0.92331
  -4  -5   931262.09 1935.97   1 0.51938-0.81493-0.14754-0.41928 0.84170-0.40009
   4   5  -827260.95 1576.68   1 0.38827-0.09205-0.30742 0.87429-0.86875 0.47658
   4  -5  -821880.71 1297.51   1 0.70142-0.40379-0.48907-0.07865 0.51845-0.91146
  -4  -5   822161.44 1251.77   1 0.69442-0.99205-0.51187-0.05586 0.50572-0.11272
  -4  -5   823019.15 1403.35   1 0.49716-0.79402-0.16794-0.39888 0.85124-0.45870
   4   5  -7 1764.94  317.62   1 0.37344-0.07581-0.26820 0.83507-0.88803 0.54488
  -4  -5   7  519.54  169.53   1 0.68873-0.98764-0.52902-0.03871 0.49575-0.15188
   4  -5  -7 1392.41  334.04   1 0.71839-0.41948-0.42298-0.14475 0.55226-0.89614
  -4  -5   7  845.76  345.12   1 0.47059-0.76877-0.19155-0.37528 0.86130-0.51783
  -4   5   6 6784.85  641.10   1-0.17560-0.12373 0.70385-0.13686-0.68829 0.98283
   4   5  -6 5439.13  490.00   1 0.35441-0.05536-0.21991 0.78679-0.90886 0.61473
  -4  -5   6 6706.00  575.06   1 0.68162-0.98180-0.54901-0.01872 0.48370-0.18895
   4  -5  -6 5681.89  546.38   1 0.73155-0.43179-0.35475-0.21228 0.58222-0.87663
  -4  -5   6 6215.78  559.14   1 0.43918-0.73868-0.21842-0.34840 0.87143-0.57703
  -4   5   5 7007.38  880.94   1-0.14061-0.16012 0.66091-0.09392-0.73717 0.98261
   4   5  -5 7184.25  643.50   1 0.33010-0.02963-0.16107 0.72794-0.93010 0.68499
  -4  -5   5 4595.75  461.68   1 0.67310-0.97455-0.57121 0.00347 0.46972-0.22410
   4  -5  -5 3727.09  550.12   1 0.73989-0.43883-0.28695-0.28008 0.60845-0.85379
  -4  -5   5 5000.90  575.15   1 0.40244-0.70325-0.24855-0.31827 0.88105-0.63571
  -4   5   446798.77 2043.88   1-0.10423-0.19789 0.61353-0.04654-0.78276 0.97911
   4   5  -442832.64 1843.09   1 0.29928 0.00259-0.09022 0.65709-0.94988 0.75380
  -4  -5   455853.24 2383.37   1 0.66330-0.96591-0.59491 0.02722 0.45399-0.25743
   4  -5  -453708.43 2327.70   1 0.74419-0.44184-0.21964-0.34740 0.63081-0.82709
  -4  -5   454678.71 2417.23   1 0.35990-0.66215-0.28193-0.28490 0.88937-0.69309
  -4   5   395890.64 4088.24   1-0.06688-0.23682 0.56243 0.00459-0.82413 0.97154
   4   5  -390428.52 3746.66   1 0.26090 0.04264-0.00659 0.57355-0.96534 0.81805
  -4  -5   389810.12 3771.14   1 0.65192-0.95584-0.61997 0.05229 0.43659-0.28917
   4  -5  -382801.42 3499.86   1 0.74478-0.44113-0.15368-0.41335 0.64936-0.79657
  -4  -5   379241.64 3448.50   1 0.31129-0.61485-0.31794-0.24889 0.89554-0.74833
  -4   5   221695.52 1479.49   1-0.02909-0.27598 0.50767 0.05934-0.86105 0.95932
   4   5  -217426.96 1999.55   1 0.21323 0.09168 0.09082 0.47613-0.97276 0.87457
  -4  -5   214519.94 1713.01   1 0.63915-0.94438-0.64574 0.07805 0.41771-0.31943
   4  -5  -212750.73 1528.44   1 0.74223-0.43746-0.08966-0.47714 0.66410-0.76220
  -4  -5   212675.57 1758.81   1 0.25643-0.56129-0.35624-0.21059 0.89851-0.80037
  -4   5   1 7541.09 1248.55   1 0.00855-0.31501 0.45044 0.11658-0.89276 0.94189
   4   5  -1 6551.18  935.63   1 0.15605 0.15036 0.20031 0.36671-0.96722 0.91810
  -4  -5   110407.72  662.56   1 0.62502-0.93156-0.67182 0.10413 0.39748-0.34834
   4  -5  -1 9944.87  687.87   1 0.73671-0.43068-0.02884-0.53796 0.67558-0.72463
  -4  -5   111414.00 1129.38   1 0.19543-0.50159-0.39612-0.17071 0.89715-0.84808
   4  -5  -110153.23  525.37   1 0.48010-0.17403-0.18319-0.38363 0.85787-0.90693
  -4   5   1 6389.49  342.84   1 0.42887-0.73527 0.65411-0.08679-0.62305 0.67218
  -4   5   0 3539.99  422.37   1 0.04546-0.35330 0.39176 0.17526-0.91894 0.91894
   4   5   0 2908.33  396.26   1 0.08954 0.21822 0.31843 0.24859-0.94370 0.94370
  -4  -5   0 1974.40  363.57   1 0.60956-0.91741-0.69786 0.13018 0.37604-0.37604
   4  -5   0 2390.09  349.51   1 0.72891-0.42164 0.02845-0.59527 0.68400-0.68400
  -4  -5   0 3234.13  467.07   1 0.12817-0.43620-0.43697-0.13079 0.89029-0.89029
   4  -5   0 2421.80  181.94   1 0.64780-0.34011-0.01544-0.55154 0.76165-0.76165
   4   5   1 3521.50  550.87   1 0.01575 0.29346 0.43920 0.12782-0.89824 0.94738
  -4   5  -1 4554.27  575.95   1 0.08113-0.39026 0.33274 0.23428-0.93951 0.89039
  -4  -5  -1 5274.86  505.24   1 0.59282-0.90198-0.72359 0.15590 0.35349-0.40263
   4  -5   1 6264.40  532.67   1 0.71941-0.41088 0.08177-0.64858 0.68975-0.64070
  -4  -5  -1 6558.45  815.71   1 0.05656-0.36591-0.47700-0.09075 0.87707-0.92621
   4  -5   1 6373.90  390.67   1 0.72778-0.41817 0.08568-0.65316 0.68043-0.63127
  -4   5  -1 3714.80  246.75   1 0.60816-0.91718 0.66348-0.09616-0.43581 0.38668
  -4   5  -247836.94 2099.00   1 0.11487-0.42537 0.27452 0.29250-0.95469 0.85644
  -4  -5  -244748.75 1963.50   1 0.57486-0.88533-0.74876 0.18107 0.32997-0.42824
   4  -5   249320.26 2208.00   1 0.70873-0.39896 0.13076-0.69758 0.69324-0.59514
  -4  -5  -247572.08 2079.96   1-0.01879-0.29187-0.51538-0.05237 0.85675-0.95502
   4   5   315537.03 1767.45   1-0.13713 0.44902 0.65649-0.08950-0.74175 0.88902
  -4   5  -319322.60 2966.31   1 0.14633-0.45820 0.21813 0.34889-0.96488 0.81751
  -4  -5  -318193.23 2144.77   1 0.55554-0.86734-0.77322 0.20579 0.30577-0.45317
   4  -5   320245.37 1519.77   1 0.69779-0.38685 0.17549-0.74214 0.69446-0.54733
  -4  -5  -321734.34 1815.17   1-0.09619-0.21590-0.55133-0.01616 0.82872-0.97628
   4  -5   321072.26 1506.48   1 0.79838-0.48596 0.19838-0.76585 0.56852-0.42106
  -4   5  -4 7823.13 1182.62   1 0.17523-0.48845 0.16449 0.40253-0.97068 0.77419
  -4  -5  -4 9427.64 1097.88   1 0.20384-0.51732-0.73924 0.17171 0.64184-0.83838
  -4  -5  -412092.16 1455.12   1 0.53527-0.84841-0.79671 0.22928 0.28056-0.47710
   4  -5   411156.88 1381.77   1 0.68630-0.37409 0.21536-0.78200 0.69469-0.49851
  -4  -5  -412089.83 1965.05   1-0.17466-0.13883-0.58303 0.01553 0.79344-0.99019
   4  -5   412620.21 1474.57   1 0.81455-0.50073 0.23034-0.79782 0.53239-0.33577
  -4  -5  -5 9473.78  722.20   1 0.26538-0.58024-0.80271 0.23518 0.53406-0.77974
  -4  -5  -5 8865.89  761.19   1 0.51396-0.82842-0.81913 0.25169 0.25468-0.50035
  -4  -5  -5 8850.67  768.94   1-0.25217-0.06271-0.61001 0.04251 0.75119-0.99712
   4  -5   511129.24  857.67   1 0.82422-0.50960 0.25256-0.81980 0.50681-0.26119
  -4   5  -635502.43 2547.96   1 0.22459-0.54057 0.06818 0.49877-0.97206 0.67749
  -4  -5  -630970.40 2170.32   1 0.31624-0.63252-0.84689 0.27953 0.42750-0.72234
  -4  -5  -631757.50 2309.09   1 0.49165-0.80745-0.84035 0.27291 0.22820-0.52300
   4  -5   635079.15 2546.31   1 0.66435-0.34961 0.28145-0.84809 0.69239-0.39811
   4  -5   633429.44 2372.51   1 0.83073-0.51477 0.26805-0.83528 0.48787-0.19312
   4   5   639458.87 2800.76   1 0.32529-0.00934 0.63236-0.06503-0.70306 0.99783
  -4   5  -7 5687.24  696.45   1 0.24517-0.56253 0.02626 0.54069-0.96912 0.62546
  -4  -5  -7 7065.05  773.99   1 0.35795-0.67562-0.87496 0.30760 0.32603-0.67000
   4  -5   7 5444.10  694.32   1 0.65451-0.33850 0.30793-0.87457 0.69049-0.34717
   4  -5   7 6239.48  741.45   1 0.83480-0.51749 0.27834-0.84557 0.47499-0.13111
   4   5   7 6238.17  769.39   1 0.39684-0.07952 0.64846-0.08113-0.64962 0.99352
  -4   5  -810332.00 1252.38   1 0.26310-0.58185-0.01125 0.57821-0.96470 0.57194
  -4  -5  -8 9689.83 1038.05   1 0.39115-0.71021-0.89051 0.32315 0.23231-0.62543
  -4  -5  -810264.27 1167.63   1 0.44425-0.76270-0.87889 0.31145 0.17373-0.56680
   4  -5   810538.90 1260.01   1 0.64572-0.32843 0.33027-0.89691 0.68844-0.29608
   4  -5   8 9770.42 1095.70   1 0.83718-0.51853 0.28461-0.85184 0.46702-0.07402
   4   5   810442.39 1223.15   1 0.46369-0.14501 0.65906-0.09173-0.59213 0.98516
  -4   5  -9  881.90  461.60   1 0.27856-0.59868-0.04436 0.61132-0.95939 0.51754
  -4  -5  -9  235.27  152.99   1 0.41678-0.73698-0.89685 0.32950 0.14814-0.59014
  -4  -5  -9  724.28  282.12   1 0.41924-0.73903-0.89607 0.32864 0.14586-0.58806
   4  -5   9  952.65  501.13   1 0.63813-0.31958 0.34868-0.91532 0.68644-0.24502
   4  -5   9  805.77  292.83   1 0.83832-0.51832 0.28769-0.85492 0.46308-0.02095
   4   5   9  922.95  397.77   1 0.52488-0.20506 0.66462-0.09730-0.53176 0.97389
  -4   5 -1027620.30 2330.69   1 0.29173-0.61323-0.07319 0.64015-0.95369 0.46275
  -4  -5 -1014889.27 1231.46   1 0.43747-0.75905-0.89645 0.32910 0.07058-0.56170
  -4  -5 -1019296.29 1684.94   1 0.39270-0.71394-0.91205 0.34500 0.11805-0.60930
   4  -5  1022412.14 1899.62   1 0.63184-0.31203 0.36337-0.93001 0.68463-0.19417
   4  -5  1022804.10 1910.26   1 0.83850-0.51715 0.28817-0.85541 0.46246 0.02878
   4   5  1028618.74 2357.52   1 0.58071-0.25955 0.66507-0.09776-0.46950 0.96076
  -4   5 -1126402.24 2272.80   1 0.30252-0.62564-0.09747 0.66435-0.94814 0.40890
  -4  -5 -1123785.98 2073.97   1 0.36608-0.68866-0.92626 0.35922 0.08947-0.62983
   4  -5  1128196.07 2438.27   1 0.62693-0.30584 0.37454-0.94118 0.68313-0.14362
   4  -5  1124944.93 2135.69   1 0.83788-0.51518 0.28648-0.85372 0.46462 0.07574
   4   5  1124985.35 2125.03   1 0.63076-0.30824 0.66111-0.09380-0.40628 0.94667
  -4   5 -12 1873.57  613.55   1 0.31171-0.63624-0.11832 0.68520-0.94278 0.35452
  -4  -5 -12 2589.51  648.84   1 0.33871-0.66262-0.93893 0.37188 0.06060-0.65009
   4  -5  12 2305.17  637.21   1 0.62342-0.30106 0.38237-0.94901 0.68200-0.09345
   4  -5  12 2543.41  615.75   1 0.83656-0.51252 0.28296-0.85019 0.46913 0.12036
   4   5  12  415.58  280.09   1 0.67507-0.35113 0.65339-0.08590-0.34256 0.93237
  -4   5 -13 4982.88  718.16   1 0.31919-0.64514-0.13554 0.70241-0.93794 0.30066
  -4  -5 -13 5789.87  974.69   1 0.31059-0.63585-0.95002 0.38297 0.03147-0.67009
   4  -5  13 6265.21  900.06   1 0.62130-0.29767 0.38702-0.95366 0.68131-0.04371
   4  -5  13 4835.97  678.16   1 0.83461-0.50921 0.27782-0.84506 0.47564 0.16298
   4   5  13 5695.55  751.87   1 0.71390-0.38863 0.64208-0.07458-0.27940 0.91836
   4   6 -11 4045.60  629.62   1 0.36677-0.07480-0.25101 0.93126-0.89580 0.35657
   4  -6 -11 2232.81  522.05   1 0.62802-0.33457-0.66649-0.01473 0.40172-0.94225
  -4  -6  11 3505.40  804.96   1 0.50436-0.79728-0.16140-0.51879 0.84827-0.30852
   4   6 -10  230.54  318.93   1 0.35724-0.06385-0.22695 0.90721-0.90601 0.41580
   4  -6 -10  263.78  355.47   1 0.28316 0.01083-0.81902 0.13798 0.49901-0.99037
   4  -6 -10  877.35  397.07   1 0.65391-0.35915-0.61576-0.06546 0.43958-0.93097
  -4  -6  10 1322.84  471.15   1 0.48865-0.78289-0.17559-0.50460 0.85462-0.36394
   4   6  -9 2583.70  652.38   1 0.34533-0.05053-0.19760 0.87785-0.91743 0.47624
   4  -6  -9 1326.79  427.46   1 0.25664 0.03874-0.79434 0.11331 0.55058-0.99280
   4  -6  -9 2313.91  630.16   1 0.67646-0.38010-0.56267-0.11861 0.47517-0.91730
  -4  -6   9 2111.26  545.70   1 0.46968-0.76523-0.19234-0.48785 0.86162-0.42001
   4   6  -8 5973.88 1061.81   1 0.33062-0.03440-0.16228 0.84254-0.92970 0.53753
   4  -6  -8 5179.19  962.72   1 0.22851 0.06827-0.76591 0.08488 0.60096-0.99404
   4  -6  -8 5876.46 1052.33   1 0.69563-0.39799-0.50808-0.17320 0.50788-0.90088
  -4  -6   8 5764.00 1029.23   1 0.68663-0.98427-0.53507-0.14621 0.49216-0.09916
  -4  -6   8 6570.18 1217.22   1 0.44710-0.74397-0.21175-0.46844 0.86905-0.47651
   4   6  -725292.33 2096.73   1 0.31256-0.01493-0.12028 0.80053-0.94224 0.59909
   4  -6  -720488.57 1746.30   1 0.19888 0.09929-0.73370 0.05266 0.64971-0.99366
  -4  -6   725658.85 2107.22   1 0.68210-0.98101-0.54771-0.13357 0.48450-0.14062
   4  -6  -724799.11 2089.24   1 0.71145-0.41254-0.45231-0.22897 0.53781-0.88169
  -4  -6   723509.54 1983.53   1 0.42054-0.71872-0.23387-0.44631 0.87660-0.53313
  -4   6   618071.38 1327.02   1-0.16971-0.12963 0.69680-0.01642-0.69689 0.99142
   4   6  -615977.25 1126.10   1 0.29085 0.00854-0.07126 0.75162-0.95410 0.65954
  -4  -6   613799.95  996.02   1 0.67631-0.97649-0.56304-0.11823 0.47494-0.18018
   4  -6  -612817.65 1031.36   1 0.72399-0.42381-0.39592-0.28536 0.56486-0.85962
  -4  -6   615774.36 1197.68   1 0.38963-0.68913-0.25874-0.42145 0.88387-0.58946
  -4   6   5 7325.90 1680.17   1-0.13777-0.16296 0.65731 0.02307-0.74091 0.98636
   4   6  -5 6638.90 1101.13   1 0.26433 0.03645-0.01384 0.69419-0.96433 0.71885
  -4  -6   5 9300.52  734.23   1 0.66928-0.97074-0.58061-0.10067 0.46361-0.21799
   4  -6  -511251.72  916.89   1 0.73391-0.43285-0.33864-0.34180 0.58880-0.83414
  -4  -6   511398.77 1239.41   1 0.35399-0.65494-0.28641-0.39379 0.89031-0.64495
  -4   6   4 6055.94  960.01   1-0.10503-0.19710 0.61459 0.06578-0.78181 0.97817
   4   6  -4 5974.44  728.59   1 0.23261 0.06955 0.05198 0.62836-0.97117 0.77480
  -4  -6   4 6380.98  818.91   1 0.66114-0.96375-0.59984-0.08138 0.45064-0.25408
   4  -6  -4 5516.14  742.20   1 0.74027-0.43792-0.28271-0.39773 0.60996-0.80624
  -4  -6   4 6803.54 1058.49   1 0.31336-0.61561-0.31645-0.36375 0.89535-0.69907
  -4   6   3 2944.07  482.84   1-0.07178-0.23191 0.56933 0.11109-0.81896 0.96637
   4   6  -3 1886.19  301.48   1 0.19516 0.10838 0.12620 0.55414-0.97261 0.82533
  -4  -6   3 1670.59  313.58   1 0.65159-0.95551-0.62068-0.06054 0.43609-0.28867
   4  -6  -3 3020.53  522.23   1 0.74387-0.44023-0.22787-0.45258 0.62827-0.77547
  -4  -6   3 2512.61  423.25   1 0.26747-0.57102-0.34873-0.33147 0.89824-0.75103
  -4   6   240820.05 2289.34   1-0.03849-0.26659 0.52155 0.15888-0.85235 0.95062
   4   6  -235564.78 1943.24   1 0.15181 0.15323 0.20811 0.47232-0.96625 0.86800
  -4  -6   239376.93 2196.97   1 0.64078-0.94601-0.64258-0.03864 0.42009-0.32181
   4  -6  -238108.74 2157.74   1 0.74497-0.44003-0.17463-0.50581 0.64382-0.74196
  -4  -6   238086.55 2149.86   1 0.21624-0.52110-0.38283-0.29737 0.89815-0.80001
  -4   6   1 6169.34 1001.75   1-0.00553-0.30093 0.47216 0.20826-0.88149 0.93062
   4   6  -1 6669.45 1062.85   1 0.10239 0.20401 0.29631 0.38411-0.94958 0.90046
  -4  -6   1 8008.91  921.53   1 0.62872-0.93526-0.66521-0.01600 0.40272-0.35358
   4  -6  -1 7815.96  932.92   1 0.74389-0.43765-0.12348-0.55696 0.65679-0.70586
  -4  -6   1 9286.50 1139.21   1 0.15975-0.46592-0.41817-0.26203 0.89420-0.84513
  -4   6   0 3166.70  538.55   1 0.02669-0.33453 0.42193 0.25850-0.90623 0.90623
   4   6   0 2503.82  492.44   1 0.04757 0.26026 0.38832 0.29210-0.92029 0.92029
  -4  -6   0 4771.12  648.76   1 0.61542-0.92326-0.68828 0.00705 0.38408-0.38408
   4  -6   0 5357.22  753.27   1 0.74114-0.43386-0.07468-0.60549 0.66718-0.66718
  -4  -6   0 3582.56  547.54   1 0.09768-0.40570-0.45445-0.22686 0.88539-0.88539
   4   6   123204.88 1292.63   1-0.01106 0.32028 0.48060 0.19983-0.87686 0.92600
  -4   6  -121318.35 1780.23   1 0.05785-0.36699 0.37160 0.30883-0.92658 0.87746
  -4  -6  -117042.78 1100.83   1 0.60088-0.91004-0.71150 0.03028 0.36426-0.41340
   4  -6   117270.92 1092.47   1 0.73672-0.42820-0.02894-0.65123 0.67557-0.62652
  -4  -6  -116551.82 1348.09   1 0.03192-0.34126-0.48997-0.19134 0.87114-0.92028
   4  -6   115124.06  855.54   1 0.57768-0.26862-0.09120-0.58918 0.81114-0.76203
   4   6   2 8478.22 1188.62   1-0.07170 0.38230 0.56922 0.11120-0.81904 0.91731
  -4   6  -210307.56 1401.18   1 0.08748-0.39798 0.32195 0.35847-0.94270 0.84445
  -4  -6  -2 7805.45  935.53   1 0.58514-0.89560-0.73465 0.05343 0.34334-0.44162
   4  -6   2 7239.99  889.72   1 0.73117-0.42140 0.01365-0.69383 0.68205-0.58396
  -4  -6  -2 8603.44 1168.56   1-0.03735-0.27332-0.52425-0.15706 0.85074-0.94901
   4  -6   2 7695.31  841.26   1 0.65129-0.34085-0.01140-0.66898 0.75874-0.66051
   4   6   310513.27  970.45   1-0.13216 0.44405 0.65015 0.03023-0.74822 0.89548
  -4   6  -3 9191.89 1437.01   1 0.11534-0.42720 0.27369 0.40674-0.95487 0.80750
  -4  -6  -3 9848.39 1643.60   1 0.56821-0.87998-0.75751 0.07628 0.32141-0.46882
   4  -6   312398.93 1013.76   1 0.72482-0.41380 0.05291-0.73309 0.68689-0.53975
  -4  -6  -312235.44 1585.46   1-0.10867-0.20343-0.55666-0.12434 0.82360-0.97116
   4  -6   311770.94  764.58   1 0.69938-0.38756 0.04735-0.72774 0.71317-0.56584
  -4   6  -4 3967.59  746.99   1 0.14121-0.45444 0.22745 0.45298-0.96349 0.76699
  -4  -6  -4 1840.94  400.85   1 0.54993-0.86307-0.77994 0.09902 0.29874-0.49527
   4  -6   4 1700.89  398.21   1 0.71801-0.40574 0.08870-0.76887 0.69035-0.49416
  -4  -6  -4 1573.00  339.21   1-0.18167-0.13181-0.58566-0.09533 0.78993-0.98667
   4  -6   4 2019.25  344.74   1 0.73159-0.41777 0.09104-0.77201 0.67563-0.47901
  -4   6  -5 5916.66 1061.28   1 0.16497-0.47956 0.18374 0.49668-0.96902 0.72340
  -4  -6  -5 6843.47 1102.70   1 0.24029-0.55516-0.77808 0.09705 0.58038-0.82606
  -4  -6  -5 7360.63 1294.43   1 0.53071-0.84518-0.80169 0.12077 0.27498-0.52065
   4  -6   5 7972.46 1449.53   1 0.71103-0.39751 0.12093-0.80110 0.69268-0.44744
  -4  -6  -5 8234.30 1416.90   1-0.25455-0.06033-0.61077-0.07022 0.74977-0.99570
   4  -6   5 7155.16 1179.39   1 0.75410-0.43887 0.12404-0.80501 0.64493-0.39916
  -4   6  -616217.87 1211.74   1 0.18641-0.50239 0.14305 0.53729-0.97200 0.67743
  -4  -6  -614119.10 1181.50   1 0.28798-0.60424-0.82326 0.14222 0.48918-0.78400
  -4  -6  -614823.39 1399.19   1 0.51041-0.82621-0.82265 0.14172 0.25043-0.54523
   4  -6   616539.62 1233.38   1 0.70451-0.38977 0.14981-0.82978 0.69369-0.39941
   4  -6   616880.37 1414.91   1 0.76984-0.45321 0.14878-0.82975 0.62064-0.32572
  -4   6  -711716.20  903.50   1 0.20576-0.52313 0.10554 0.57480-0.97289 0.62923
  -4  -6  -714548.51 1102.66   1 0.48906-0.80619-0.84268 0.16175 0.22517-0.56911
   4  -6   712931.09  995.87   1 0.69794-0.38193 0.17491-0.85488 0.69445-0.35113
   4  -6   714880.27 1074.50   1 0.78088-0.46285 0.16713-0.84811 0.60190-0.25782
   4   6   714734.73 1028.32   1 0.39302-0.07570 0.64772 0.03306-0.65268 0.99658
  -4  -6  -8 1638.67  511.60   1 0.46670-0.78516-0.86167 0.18075 0.19925-0.59232
   4  -6   8 2309.91  632.59   1 0.69189-0.37461 0.19652-0.87649 0.69473-0.30236
   4  -6   8 1517.95  422.41   1 0.78853-0.46910 0.18044-0.86141 0.58791-0.19468
   4   6   8  782.29  407.71   1 0.45849-0.13981 0.65840 0.02238-0.59689 0.98992
  -4  -6  -9 1632.21  509.17   1 0.44336-0.76315-0.87954 0.19861 0.17273-0.61494
   4  -6   9 1958.22  660.31   1 0.68650-0.36795 0.21471-0.89468 0.69470-0.25328
   4  -6   9 2152.56  575.09   1 0.79367-0.47284 0.18967-0.87064 0.57801-0.13562
   4   6   9 2200.07  555.29   1 0.51923-0.19941 0.66433 0.01644-0.53763 0.97977
  -4   6 -10 5800.55  642.26   1 0.25126-0.57277 0.01362 0.66672-0.96782 0.47687
  -4  -6 -10 6325.41  785.56   1 0.41907-0.74018-0.89619 0.21526 0.14566-0.63700
   4  -6  10 8239.07  854.28   1 0.68189-0.36207 0.22957-0.90954 0.69448-0.20402
   4  -6  10 6817.68  699.83   1 0.79687-0.47463 0.19555-0.87653 0.57161-0.08007
   4   6  10 6566.91  610.35   1 0.57543-0.25426 0.66523 0.01553-0.47574 0.96701
   4   7  -717974.64 2081.14   1 0.25114 0.04687 0.01387 0.77986-0.96785 0.62418
   4  -7  -715309.67 1817.49   1 0.19915 0.09902-0.73400-0.06053 0.64929-0.99324
  -4  -7   715731.43 1853.88   1 0.66999-0.96889-0.57890-0.21593 0.46473-0.12086
   4  -7  -718760.35 2231.43   1 0.70157-0.40266-0.48859-0.30623 0.51872-0.86260
  -4  -7   713111.46 2348.92   1 0.36351-0.66185-0.27917-0.51440 0.88877-0.54528
  -4   7   6 5192.38 1029.49   1-0.17243-0.12691 0.70006 0.09371-0.69294 0.98747
   4   7  -6 5372.37  523.75   1 0.22796 0.07143 0.06138 0.73235-0.97173 0.67716
  -4  -7   6 4886.43  882.03   1 0.66532-0.96530-0.59022-0.20453 0.45714-0.16230
   4  -7  -6 5316.66  595.30   1 0.71433-0.41415-0.44059-0.35424 0.54369-0.83844
  -4  -7   6 4652.41 1006.13   1 0.33282-0.63246-0.30224-0.49132 0.89324-0.59881
  -4   7   5 6956.01 1216.42   1-0.14332-0.15741 0.66433 0.12945-0.73356 0.97901
  -4  -7   5 8340.58  945.00   1 0.65930-0.96060-0.60398-0.19078 0.44780-0.20210
  -4  -7   5 7320.41  965.56   1 0.29788-0.59883-0.32752-0.46604 0.89665-0.65130
  -4   7   4 3576.65  911.14   1-0.11375-0.18838 0.62618 0.16760-0.77133 0.96768
   4   7  -4 2433.74  654.53   1 0.17024 0.13208 0.17389 0.61995-0.96993 0.77344
  -4  -7   4 4946.45  600.60   1 0.65213-0.95474-0.61954-0.17521 0.43690-0.24034
   4  -7  -4 5590.55  752.65   1 0.73307-0.43072-0.34455-0.44930 0.58641-0.78269
  -4  -7   4 5259.06  913.80   1 0.25850-0.56075-0.35485-0.43872 0.89847-0.70219
  -4   7   326663.82 2641.29   1-0.08398-0.21954 0.58599 0.20778-0.80595 0.95321
   4   7  -324634.58 2063.99   1 0.13513 0.16855 0.23846 0.55538-0.96170 0.81433
  -4  -7   324819.75 2108.81   1 0.64381-0.94773-0.63661-0.15814 0.42452-0.27711
   4  -7  -325878.96 2239.75   1 0.73880-0.43515-0.29813-0.49572 0.60439-0.75159
  -4  -7   328686.78 3045.87   1 0.21450-0.51806-0.38395-0.40962 0.89809-0.75088
  -4   7   213765.98 1547.61   1-0.05423-0.25085 0.54440 0.24943-0.83706 0.93533
   4   7  -212509.85 1084.29   1 0.09585 0.20919 0.30761 0.48622-0.94667 0.84842
  -4  -7   215095.33 1383.48   1 0.63434-0.93957-0.65489-0.13986 0.41075-0.31247
   4  -7  -217633.81 1596.98   1 0.74254-0.43760-0.25300-0.54085 0.62017-0.71831
  -4  -7   214154.49 1484.64   1 0.16586-0.47072-0.41446-0.37910 0.89482-0.79668
  -4   7   1 1301.17  340.62   1-0.02494-0.28152 0.50149 0.29234-0.86480 0.91393
   4   7  -1 1718.46  469.70   1 0.05259 0.25386 0.38013 0.41370-0.92343 0.87429
  -4  -7   1 2565.43  660.03   1 0.62371-0.93025-0.67411-0.12064 0.39565-0.34651
   4  -7  -1 4104.80  975.07   1 0.74451-0.43828-0.20949-0.58436 0.63388-0.68295
  -4  -7   1 2483.49  613.51   1 0.11186-0.41855-0.44640-0.34846 0.88781-0.83867
   4   7   0 4412.36 1047.18   1 0.00611 0.30172 0.45423 0.33960-0.89085 0.89085
  -4   7   0 5159.32 1334.70   1 0.00366-0.31150 0.45803 0.33580-0.88892 0.88892
  -4  -7   0 6553.49  743.04   1 0.61193-0.91978-0.69403-0.10073 0.37928-0.37928
   4  -7   0 6194.02  836.52   1 0.74495-0.43742-0.16791-0.62594 0.64564-0.64564
  -4  -7   0 5100.82 1176.12   1 0.05436-0.36238-0.47818-0.31669 0.87657-0.87657
   4   7   1  320.38  165.17   1-0.04279 0.35201 0.52783 0.26600-0.84826 0.89740
  -4   7  -1  799.93  457.95   1 0.03131-0.34053 0.41456 0.37927-0.90947 0.86034
  -4  -7  -1  819.71  294.77   1 0.59899-0.90814-0.71439-0.08036 0.36172-0.41086
   4  -7   1  723.99  382.61   1 0.74409-0.43526-0.12853-0.66533 0.65559-0.60652
  -4  -7  -1  349.66  225.99   1-0.00697-0.30237-0.50962-0.28525 0.86037-0.90950
   4   7   2  283.02  166.19   1-0.09312 0.40362 0.59852 0.19525-0.79566 0.89384
  -4   7  -2 1546.44  484.58   1 0.05782-0.36832 0.37166 0.42217-0.92656 0.82831
  -4  -7  -2   34.23  305.68   1 0.58489-0.89536-0.73499-0.05976 0.34302-0.44130
   4  -7   2  505.27  354.40   1 0.74235-0.43258-0.09145-0.70208 0.66373-0.56563
  -4  -7  -2  283.78  174.32   1-0.07089-0.23981-0.54020-0.25430 0.83854-0.93691
  -4  -7  -3 6653.44  884.21   1 0.56966-0.88143-0.75563-0.03912 0.32326-0.47068
   4  -7   3 7035.34  835.57   1 0.73963-0.42861-0.05712-0.73641 0.67057-0.52343
  -4  -7  -3 5824.04 1172.31   1-0.13786-0.17424-0.56870-0.22579 0.81090-0.95846
  -4   7  -4 4475.12 1166.75   1 0.10630-0.41952 0.28952 0.50432-0.95124 0.75475
  -4  -7  -4 3237.55  763.24   1 0.55312-0.86625-0.77615-0.01826 0.30272-0.49926
   4  -7   4 4138.24  992.39   1 0.73633-0.42406-0.02554-0.76799 0.67613-0.47994
  -4  -7  -4 3423.85  849.54   1-0.20620-0.10729-0.59455-0.19994 0.77716-0.97391
  -4   7  -5 9669.30 1380.24   1 0.12806-0.44264 0.25114 0.54270-0.95944 0.71382
  -4  -7  -5 9306.75  824.13   1 0.53561-0.85007-0.79634 0.00193 0.28098-0.52665
   4  -7   510442.58  935.03   1 0.73266-0.41914 0.00319-0.79673 0.68058-0.43534
  -4   7  -6  262.33  388.99   1 0.14804-0.46399 0.21502 0.57882-0.96532 0.67057
  -4  -7  -6  620.34  344.85   1 0.51700-0.83280-0.81606 0.02165 0.25834-0.55314
   4  -7   6  570.15  383.82   1 0.72882-0.41406 0.02902-0.82256 0.68408-0.38979
   4  -7   6  428.91  225.98   1 0.68443-0.36848 0.02840-0.82219 0.72851-0.43384
   4   7   6  604.51  332.70   1 0.34051-0.02455 0.63616 0.15808-0.69234 0.98711
  -4   7  -7 2122.80  447.47   1 0.16623-0.48354 0.18140 0.61243-0.96925 0.62538
  -4  -7  -7 1768.26  441.49   1 0.49731-0.81444-0.83517 0.04075 0.23487-0.57880
   4  -7   7 2816.08  570.03   1 0.72500-0.40899 0.05189-0.84544 0.68678-0.34344
   4   7   7 1268.52  285.19   1 0.40668-0.08937 0.65030 0.14394-0.64163 0.98554
   5   0 -1711690.37 1576.06   1 0.49447-0.13271-0.82221 0.82221-0.28189-0.55349
  -5   0  1711030.16 1339.18   1 0.63636-0.99754-0.02846 0.02846 0.77086 0.06403
   5   0 -16 1147.55  477.52   1 0.49190-0.12878-0.83404 0.83404-0.24979-0.53645
  -5   0  16  609.26  326.60   1 0.63694-0.99949-0.02781 0.02781 0.77041 0.01537
   5   0 -15  321.83  391.07   1 0.48870-0.12422-0.84502 0.84502-0.21701-0.52009
  -5   0  15 1168.27  381.42   1 0.63499-0.99892-0.03000 0.03000 0.77193-0.03525
   5   0 -14 3942.36  710.52   1 0.48485-0.11900-0.85514 0.85514-0.18342-0.50454
  -5   0  14 3760.72  559.02   1 0.63017-0.99548-0.03539 0.03539 0.77564-0.08808
   5   0 -1311729.60  980.68   1 0.48028-0.11307-0.86438 0.86438-0.14887-0.48995
  -5   0  1311495.88  779.41   1 0.62199-0.98867-0.04443 0.04443 0.78176-0.14331
   5   0 -1284756.64 5952.75   1 0.47494-0.10636-0.87270 0.87270-0.11317-0.47651
  -5   0  1284472.53 4798.06   1 0.60980-0.97786-0.05765 0.05765 0.79045-0.20111
   5   0 -1111646.75 1428.99   1 0.46872-0.09878-0.88006 0.88006-0.07607-0.46446
  -5   0  11 9953.67 1177.95   1 0.59276-0.96220-0.07567 0.07567 0.80181-0.26158
   5   0 -10 1246.26  650.28   1 0.46137-0.09047-0.88642 0.88642-0.03717-0.45394
  -5   0  10 1405.66  339.23   1 0.56979-0.94061-0.09918 0.09918 0.81578-0.32466
   5   0  -990330.66 3036.25   1 0.45296-0.08068-0.89152 0.89152 0.00372-0.44573
  -5   0   988283.83 2877.09   1 0.53901-0.91141-0.12897 0.12897 0.83236-0.39074
   5   0  -8 3906.51  537.76   1 0.44312-0.06945-0.89521 0.89521 0.04729-0.44019
  -5   0   8 3479.19  349.65   1 0.49993-0.87364-0.16543 0.16543 0.85011-0.45757
   5   0  -750458.97 1864.51   1 0.43148-0.05643-0.89718 0.89718 0.09424-0.43803
  -5   0   746474.21 1657.90   1 0.45024-0.82527-0.20908 0.20908 0.86807-0.52460
   5   0  -6 1113.80  279.93   1 0.41751-0.04109-0.89692 0.89692 0.14558-0.44025
   5   0  -6  840.41   44.65   1 0.40922-0.03244-0.90241 0.90241 0.13483-0.42964
   5   0  -6  913.76   50.00   1 0.68109-0.30395-0.55045 0.55045 0.48281-0.77756
  -5   0   6  979.83  156.68   1 0.38833-0.76467-0.25977 0.25977 0.88414-0.58973
   5   0  -530405.87 1247.57   1 0.40064-0.02263-0.89351 0.89351 0.20276-0.44846
   5   0  -526976.05 1034.12   1 0.24887 0.12925-0.96804 0.96804-0.03073-0.21488
   5   0  -527820.71 1059.89   1 0.71687-0.33902 0.09421-0.09421 0.69080-0.93604
  -5   0   529550.54 1190.99   1 0.31289-0.69071-0.31679 0.31679 0.89539-0.65004
   5   0  -526879.99 1068.01   1 0.71844-0.34019 0.07281-0.07281 0.69176-0.93753
   5   0  -4125329.3 2889.93   1-0.14112 0.52018 0.66155-0.66155-0.73649 0.54014
   5   0  -4154256.1 3607.17   1 0.37923 0.00016-0.88577 0.88577 0.26756-0.46412
   5   0  -4122729.8 2829.71   1 0.20065 0.17900-0.97660 0.97660-0.07738-0.11919
   5   0  -4134191.0 3066.21   1 0.58612-0.20710 0.45931-0.45931 0.66744-0.86379
  -5   0   4139094.4 3230.30   1 0.22475-0.60387-0.37730 0.37730 0.89840-0.70212
   5   0  -4126323.2 2929.72   1 0.63887-0.25978-0.02562 0.02562 0.76887-0.96532
   5   0  -3229298.7 5225.61   1-0.09044 0.47089 0.59486-0.59486-0.79872 0.65145
   5   0  -3275100.3 7489.79   1 0.35156 0.02922-0.87121 0.87121 0.34261-0.49002
  -5   0   3229277.1 5215.07   1-0.44998 0.06895-0.66440 0.66440-0.59672 0.74418
   5   0  -3219459.0 5021.16   1 0.18224 0.19875-0.97864 0.97864-0.09505-0.05237
  -5   0   3250780.5 5747.97   1 0.12520-0.50625-0.43870 0.43870 0.88986-0.74245
   5   0  -3230125.2 5263.90   1 0.54053-0.16025-0.12752 0.12752 0.83159-0.97880
   5   0  -2 1622.97  156.80   1-0.01992 0.40197 0.49398-0.49398-0.86923 0.77096
   5   0  -2 1611.91  189.97   1 0.31460 0.06756-0.84563 0.84563 0.43118-0.52946
  -5   0   2 1804.95  272.66   1-0.33885-0.04351-0.78060 0.78060-0.52520 0.62350
   5   0  -2 1822.32  157.77   1 0.17842 0.20390-0.97899 0.97899-0.09869 0.00040
  -5   0   2 2045.86  301.08   1 0.01921-0.40159-0.49650 0.49650 0.86782-0.76955
   5   0  -2 1549.09  164.07   1 0.42832-0.04672-0.22747 0.22747 0.87452-0.97266
   5   0  -113049.70  586.99   1 0.07485 0.30850 0.34333-0.34333-0.93622 0.88710
   5   0  -112568.91  542.48   1 0.26372 0.11977-0.80114 0.80114 0.53722-0.58635
  -5   0   113997.43  609.70   1-0.25433-0.12899-0.84817 0.84817-0.46465 0.51376
   5   0  -113844.15  598.17   1 0.18288 0.20078-0.97858 0.97858-0.09443 0.04529
  -5   0   114903.60  831.42   1-0.08821-0.29529-0.54787 0.54787 0.83189-0.78271
   5   0  -113046.82  937.44   1 0.30940 0.07362-0.31930 0.31930 0.89571-0.94478
   5   0   037062.64 1414.10   1 0.19230 0.19230 0.13172-0.13172-0.97245 0.97245
  -5   0   038679.00 1515.60   1-0.19232-0.19232-0.88792 0.88792-0.41784 0.41784
   5   0   035769.27 1421.33   1 0.19250 0.19250-0.97758 0.97758-0.08522 0.08522
  -5   0   037139.94 1481.27   1-0.19245-0.19245-0.58962 0.58962 0.78441-0.78441
   5   0   035651.52 1387.54   1 0.19216 0.19216-0.39817 0.39817 0.89695-0.89695
  -5   0  -1191759.3 4364.53   1-0.09526-0.29076 0.60143-0.60143-0.79321 0.74413
   5   0   1194460.6 4427.39   1 0.31551 0.07033-0.12704 0.12704-0.94037 0.98940
  -5   0  -1202530.7 4791.45   1-0.14743-0.23861-0.91198 0.91198-0.38282 0.33369
   5   0   1187838.7 4366.68   1 0.20554 0.18080-0.97594 0.97594-0.07265 0.12180
  -5   0  -2275906.6 7474.32   1 0.02285-0.41041 0.42802-0.42802-0.90348 0.80520
   5   0   2245654.0 5578.71   1 0.41506-0.02773-0.38260 0.38260-0.82542 0.92349
  -5   0  -2271511.2 6262.63   1-0.11554-0.27184-0.92684 0.92684-0.35723 0.25897
  -5   0  -368949.13 1601.12   1 0.14306-0.53186 0.22410-0.22410-0.96400 0.81663
   5   0   366949.10 1562.70   1 0.47296-0.08428-0.58144 0.58144-0.66198 0.80921
  -5   0  -375436.48 2158.86   1-0.09362-0.29509-0.93598 0.93598-0.33936 0.19197
   5   0   373906.10 1807.29   1 0.45112-0.06232 0.65742-0.65742-0.60354 0.75093
  -5   0  -4 4479.27  225.85   1 0.24348-0.63362 0.02975-0.02975-0.96944 0.77307
   5   0   4 4653.65  247.66   1 0.49573-0.10513-0.71110 0.71110-0.49856 0.69517
  -5   0  -4 6421.44  944.42   1-0.07944-0.31060-0.94144 0.94144-0.32766 0.13114
   5   0   4 4492.92  346.95   1 0.51671-0.12672 0.66418-0.66418-0.54024 0.73674
  -5   0  -5 5456.99  245.61   1 0.31603-0.70754-0.12825 0.12825-0.94003 0.69493
   5   0   5 4374.79  236.04   1 0.49820-0.10621-0.78919 0.78919-0.35912 0.60489
   5   0   5 5376.42  469.68   1 0.57308-0.18175 0.66529-0.66529-0.47848 0.72411
  -5   0  -616241.99  538.31   1 0.36526-0.75819-0.24719 0.24719-0.89748 0.60335
   5   0   614166.14  490.27   1 0.49155-0.09842-0.83540 0.83540-0.24590 0.54074
  -5   0  -615598.76  761.03   1-0.06810-0.32460-0.94555 0.94555-0.31825 0.02347
   5   0   615469.67  657.03   1 0.62133-0.22864 0.66222-0.66222-0.41880 0.71356
  -5   0  -718806.57 1276.38   1 0.39770-0.79199-0.33302 0.33302-0.85494 0.51170
   5   0   718762.85 1282.39   1 0.48090-0.08641-0.86326 0.86326-0.15332 0.49730
  -5   0  -720268.99 1548.14   1-0.06882-0.32522-0.94530 0.94530-0.31884-0.02506
   5   0   719611.16 1388.34   1 0.66257-0.26836 0.65609-0.65609-0.36129 0.70534
  -5   0  -826214.27  918.89   1 0.41886-0.81454-0.39384 0.39384-0.81819 0.42592
  -5   0  -826396.31 1040.56   1-0.07279-0.32258-0.94388 0.94388-0.32215-0.07088
   5   0   828391.97 1073.66   1 0.69787-0.30232 0.64733-0.64733-0.30647 0.69968
  -5   0  -9166905.3 8231.57   1 0.43278-0.82985-0.43665 0.43665-0.78869 0.34738
  -5   0  -9180981.4 8972.32   1-0.07950-0.31720-0.94142 0.94142-0.32771-0.11444
   5   0   9156596.9 7768.08   1 0.72812-0.33123 0.63662-0.63662-0.25405 0.69641
  -5   0 -1015624.64  888.24   1 0.44195-0.84041-0.46646 0.46646-0.76621 0.27587
  -5   0 -1019183.60 1177.28   1-0.08853-0.30951-0.93798 0.93798-0.33516-0.15612
   5   0  1017712.30 1021.51   1 0.75406-0.35583 0.62436-0.62436-0.20386 0.69537
  -5   0 -11 2589.01  413.79   1 0.44793-0.84778-0.48673 0.48673-0.74996 0.21059
  -5   0 -11 2182.79  592.50   1-0.09955-0.29982-0.93359 0.93359-0.34421-0.19620
   5   0  11 1146.15  343.44   1 0.77629-0.37672 0.61083-0.61083-0.15572 0.69638
  -5   0 -12 1484.69  265.34   1 0.45167-0.85292-0.49983 0.49983-0.73902 0.15061
  -5   0 -12 2145.92  405.26   1-0.11231-0.28839-0.92824 0.92824-0.35461-0.23493
   5   0  12 2074.20  379.16   1 0.79519-0.39459 0.59640-0.59640-0.10941 0.69899
  -5   0 -1314015.78  884.72   1 0.45380-0.85643-0.50741 0.50741-0.73252 0.09508
  -5   0 -1319751.80 2205.15   1-0.12661-0.27542-0.92188 0.92188-0.36617-0.27250
  -5   0 -1435558.92 2400.56   1 0.45468-0.85871-0.51061 0.51061-0.72974 0.04327
  -5   0 -1437176.69 3166.61   1-0.14229-0.26108-0.91449 0.91449-0.37873-0.30907
   5   0  1434861.29 2375.48   1 0.82507-0.42182 0.56461-0.56461-0.02157 0.70941
  -5   0 -15 4638.75  860.64   1 0.45458-0.86000-0.51025 0.51025-0.73006-0.00544
  -5   0 -15 5403.32 1163.02   1-0.15913-0.24529-0.90611 0.90611-0.39195-0.34465
   5   0  15 3325.86  715.05   1 0.83651-0.43194 0.54757-0.54757 0.02032 0.71665
  -5   0 -16  981.31  388.54   1 0.45365-0.86046-0.50688 0.50688-0.73298-0.05156
  -5   0 -16 1517.37  318.72   1-0.17719-0.22855-0.89647 0.89647-0.40611-0.37959
   5   0  16  440.49  344.92   1 0.84589-0.44000 0.52983-0.52983 0.06107 0.72502
   5   1 -17 5860.47  897.01   1 0.49877-0.13710-0.77254 0.88614-0.39293-0.44266
   5  -1 -17 1916.18  555.97   1 0.48412-0.12236-0.85677 0.74321-0.17762-0.65776
  -5  -1  17 4458.79  638.35   1 0.63355-0.99473-0.03162-0.08177 0.77305 0.06184
   5   1 -1614533.02 1571.09   1 0.49842-0.13538-0.78472 0.89831-0.36848-0.41796
   5  -1 -1613156.98 1494.03   1 0.47884-0.11572-0.86685 0.75329-0.13882-0.64742
  -5   1  1613259.07 1320.98   1 0.62549-0.98805-0.04058 0.15397 0.77916 0.00661
  -5  -1  1613617.13 1399.70   1 0.63397-0.99652-0.03115-0.08224 0.77272 0.01305
   5   1 -1511519.26 1006.36   1 0.49772-0.13329-0.79614 0.90974-0.34411-0.39318
   5  -1 -1513460.96 1114.72   1 0.47261-0.10812-0.87571 0.76215-0.09880-0.63830
  -5  -1  1513860.98 1041.13   1 0.63214-0.99607-0.03320-0.08019 0.77414-0.03746
  -5   1  15 7919.58  609.25   1 0.62263-0.98657-0.04372 0.15712 0.78128-0.04461
   5   1 -1419946.75 1544.84   1 0.49667-0.13087-0.80685 0.92045-0.31984-0.36829
   5  -1 -1414979.47 1179.85   1 0.46533-0.09948-0.88327 0.76971-0.05737-0.63059
  -5  -1  1415401.24 1133.42   1 0.62778-0.99309-0.03804-0.07534 0.77745-0.08989
  -5   1  1414199.12 1010.10   1 0.61620-0.98151-0.05074 0.16414 0.78594-0.09838
   5   1 -1337968.45 2248.84   1 0.49539-0.12818-0.81686 0.93042-0.29549-0.34333
   5  -1 -1334206.86 2032.86   1 0.45674-0.08998-0.88948 0.77601-0.01419-0.62426
  -5  -1  1335345.98 1987.45   1 0.62053-0.98722-0.04602-0.06736 0.78282-0.14437
  -5   1  1335093.38 1924.90   1 0.60548-0.97217-0.06227 0.17567 0.79341-0.15496
   5   1 -12 8733.24  800.05   1 0.49370-0.12512-0.82616 0.93972-0.27148-0.31820
   5  -1 -12 8242.63  917.97   1 0.44696-0.07882-0.89402 0.78055 0.03075-0.62009
   5  -1 -12 7024.91  514.42   1 0.10677 0.26218-0.98038 0.86685-0.16567-0.42406
  -5  -1  12 7281.94  654.26   1 0.60992-0.97799-0.05752-0.05586 0.79036-0.20102
  -5   1  12 7689.94  630.32   1 0.58949-0.95755-0.07907 0.19247 0.80389-0.21455
   5   1 -1130184.92 1495.45   1 0.49171-0.12176-0.83479 0.94835-0.24765-0.29289
   5  -1 -1134046.60 1652.21   1 0.43564-0.06612-0.89673 0.78326 0.07792-0.61815
   5  -1 -1129939.54 1252.16   1 0.23595 0.13415-0.97079 0.85738-0.04347-0.49689
  -5   1  1131239.78 1361.97   1 0.56688-0.93632-0.10209 0.21549 0.81744-0.27721
  -5  -1  1131306.27 1398.73   1 0.59533-0.96478-0.07298-0.04040 0.80015-0.25992
   5   1 -10 9161.11  783.90   1 0.48943-0.11813-0.84276 0.95632-0.22403-0.26736
   5  -1 -1012187.05  806.58   1 0.42253-0.05162-0.89730 0.78383 0.12769-0.61881
   5  -1 -1010695.71  560.66   1 0.37086 0.00058-0.92385 0.81044 0.09456-0.58580
  -5   1  10 8357.89  492.02   1 0.53529-0.90637-0.13253 0.24590 0.83420-0.34352
  -5  -1  1011718.81  741.74   1 0.57602-0.94685-0.09288-0.02051 0.81213-0.32101
   5   1  -957413.14 2057.84   1 0.48690-0.11423-0.85007 0.96363-0.20071-0.24155
   5  -1  -976425.82 2613.84   1 0.40726-0.03498-0.89529 0.78182 0.18050-0.62251
   5  -1  -960506.33 1938.97   1-0.44066 0.81366-0.67556 0.56199-0.59111 0.14873
   5  -1  -964970.33 2091.13   1 0.50739-0.13460-0.82560 0.71211 0.24682-0.68903
  -5   1   956032.98 1853.69   1 0.49372-0.86612-0.17104 0.28440 0.85262-0.41101
  -5  -1   971421.83 2394.18   1 0.55058-0.92298-0.11779 0.00442 0.82642-0.38481
   5   1  -8118407.0 3906.41   1 0.48414-0.11010-0.85674 0.97030-0.17775-0.21537
   5  -1  -8115451.6 3786.41   1 0.38968-0.01582-0.88998 0.77651 0.23678-0.62989
   5  -1  -891867.34 2917.37   1-0.40330 0.77764-0.71754 0.60396-0.56786 0.17464
   5  -1  -8105506.5 3361.27   1 0.62557-0.25124-0.67084 0.55731 0.39826-0.79137
  -5  -1   8107384.3 3496.45   1 0.51897-0.89268-0.14792 0.03455 0.84189-0.44934
   5  -1  -894012.82 3011.46   1 0.86389-0.48980 0.38985-0.50331 0.31890-0.71187
   5   1  -727982.71 1940.89   1 0.48117-0.10578-0.86276 0.97632-0.15528-0.18870
   5  -1  -726554.17 1844.17   1 0.36864 0.00659-0.88074 0.76726 0.29731-0.64129
   5  -1  -722430.71 1475.70   1-0.36250 0.73817-0.75873 0.64515-0.54120 0.19713
   5  -1  -725028.44 1654.95   1 0.70825-0.33239-0.46466 0.35111 0.53147-0.87534
  -5   1   728929.54 1921.44   1 0.36808-0.74310-0.27554 0.38891 0.88802-0.54454
  -5  -1   725054.74 1692.78   1 0.47950-0.85452-0.18372 0.07036 0.85809-0.51461
   5  -1  -723765.94 1577.29   1 0.84784-0.47242 0.31596-0.42941 0.42581-0.76968
   5   1  -6  581.78  359.98   1 0.47806-0.10129-0.86812 0.98168-0.13348-0.16135
   5  -1  -6 3086.53  295.85   1 0.34365 0.03297-0.86627 0.75280 0.36258-0.65741
   5  -1  -6 2016.48  221.69   1-0.31980 0.69654-0.79743 0.68390-0.51168 0.21704
   5  -1  -6 3037.45  186.94   1 0.74394-0.36730-0.22604 0.11264 0.62884-0.92325
  -5   1   6 1238.36  193.66   1 0.27899-0.65550-0.34078 0.45415 0.89778-0.60336
  -5  -1   6 2946.11  235.15   1 0.43100-0.80734-0.22525 0.11188 0.87378-0.57937
   5  -1  -6 2802.13  158.66   1 0.81117-0.43432 0.22334-0.33684 0.54047-0.83540
   5   1  -510994.02  508.02   1 0.47486-0.09673-0.87281 0.98637-0.11266-0.13303
   5  -1  -511465.13  513.13   1 0.31374 0.06426-0.84497 0.73150 0.43310-0.67880
  -5  -1   5 9518.69  353.15   1 0.28381-0.66175-0.81959 0.70609 0.49770-0.25202
   5  -1  -5 9741.92  315.38   1-0.27633 0.65438-0.83218 0.71865-0.48074 0.23520
   5   1  -511130.03  312.74   1 0.74130-0.36345-0.07671 0.19007 0.66677-0.91201
   5  -1  -511021.32  401.18   1 0.73147-0.35362 0.01154-0.12491 0.68176-0.92700
   5   1  -511968.35  334.70   1 0.55946-0.18174 0.50696-0.39353 0.65573-0.90116
  -5   1   512005.69  496.71   1 0.17285-0.55066-0.41018 0.52355 0.89547-0.65011
  -5  -1   512205.82  520.81   1 0.37253-0.75018-0.27211 0.15875 0.88722-0.64188
   5  -1  -511636.32  399.08   1 0.74608-0.36783 0.11199-0.22549 0.65636-0.90213
   5   1  -480437.96 1946.87   1 0.47169-0.09220-0.87681 0.99037-0.09330-0.10325
   5  -1  -497983.31 2339.43   1 0.27791 0.10140-0.81431 0.70080 0.50956-0.70610
  -5  -1   492251.99 2150.21   1 0.26183-0.64116-0.79934 0.68584 0.54081-0.34427
  -5  -1   498809.45 2269.20   1-0.22990-0.14946-0.86475 0.75122-0.44646 0.64289
   5  -1  -491237.50 2112.73   1-0.23303 0.61240-0.86270 0.74917-0.44881 0.25238
   5   1  -486859.53 1995.29   1 0.67145-0.29176-0.57532 0.68887 0.46707-0.66357
   5  -1  -497409.78 2266.56   1 0.68376-0.30492 0.22361-0.33694 0.69459-0.89077
  -5   1   484186.96 1966.43   1 0.05249-0.43220-0.47918 0.59273 0.87614-0.67960
  -5  -1   4101788.5 2419.18   1 0.30344-0.68256-0.32357 0.21020 0.89622-0.69994
   5  -1  -497790.81 2269.22   1 0.64750-0.26840-0.01579-0.09760 0.76190-0.95834
   5  -1  -364248.24 1541.59   1 0.01747 0.36319 0.43650-0.54990-0.89953 0.75212
   5   1  -354489.73 1345.45   1 0.46875-0.08790-0.88002 0.99358-0.07628-0.07113
   5  -1  -358648.64 1442.93   1 0.23438 0.14633-0.77203 0.65852 0.59078-0.73819
  -5  -1   357385.36 1356.67   1 0.22606-0.60678-0.76333 0.64982 0.60515-0.45775
   5  -1  -358920.38 1397.28   1-0.19049 0.57118-0.88898 0.77545-0.41643 0.26911
  -5  -1   362420.32 1465.89   1-0.08394-0.29677-0.93975 0.82625-0.33138 0.47877
   5   1  -360535.48 1420.07   1 0.58802-0.20714-0.73056 0.84409 0.34714-0.49455
   5  -1  -362548.48 1492.79   1 0.61707-0.23674 0.39731-0.51074 0.67923-0.82649
  -5   1   363943.74 1523.19   1-0.07279-0.30824-0.54053 0.65409 0.83816-0.69075
  -5  -1   363896.98 1563.54   1 0.22454-0.60496-0.37744 0.26407 0.89839-0.75118
   5  -1  -359867.44 1413.93   1 0.51713-0.13684-0.14963 0.03627 0.84272-0.98992
   5  -1  -259152.88 1413.14   1 0.07897 0.30301 0.33638-0.44979-0.93840 0.84015
   5   1  -270812.63 1685.91   1 0.46644-0.08422-0.88227 0.99583-0.06339-0.03488
   5  -1  -256711.61 1364.58   1-0.14894 0.53100-0.91122 0.79773-0.38402 0.28576
  -5  -1   257632.92 1404.91   1-0.00093-0.38111-0.96528 0.85178-0.26119 0.35945
   5   1  -275291.81 1764.45   1 0.52937-0.14727-0.80314 0.91663 0.27334-0.37160
   5  -1  -259762.90 1442.73   1 0.54502-0.16339 0.53093-0.64436 0.64888-0.74706
  -5  -1   259745.55 1746.22   1 0.13671-0.51908-0.43196 0.31841 0.89146-0.79319
   5  -1  -257879.33 1373.61   1 0.36644 0.01528-0.27692 0.16356 0.88827-0.98641
   5  -1  -135175.07 1363.64   1 0.15024 0.23310 0.21099-0.32439-0.96587 0.91674
   5   1  -144249.51 1695.77   1 0.46548-0.08215-0.88310 0.99657-0.05875 0.00964
  -5   1   152241.71 1481.89   1-0.47688 0.09318-0.63045 0.74403-0.61245 0.66160
   5  -1  -134732.83 1345.33   1-0.10868 0.49206-0.92979 0.81629-0.35166 0.30253
  -5  -1   139787.86 1557.06   1 0.04871-0.43238-0.97471 0.86118-0.21808 0.26722
   5   1  -147545.66 1824.60   1 0.48983-0.10640-0.84199 0.95547 0.22607-0.27520
  -5  -1   135300.85 1393.58   1 0.04336-0.42706-0.48400 0.37045 0.87398-0.82485
   5  -1  -136196.09 1397.88   1 0.21244 0.17058-0.38528 0.27191 0.89801-0.94708
   5  -1  -139107.48 1523.07   1 0.30538 0.07796 0.62708-0.74055-0.71658 0.66745
  -5   1   0222906.6 5096.59   1-0.05032-0.33447 0.53877-0.42537-0.84094 0.84094
   5   1   0212120.6 4801.93   1 0.14295 0.24176 0.22430-0.11089-0.96397 0.96397
   5  -1   0224125.5 5120.44   1 0.22743 0.15717 0.06245-0.17585-0.97178 0.97178
  -5   1   0213189.3 4911.66   1-0.41665 0.03160-0.70304 0.81661-0.57630 0.57630
   5  -1   0204054.5 4690.83   1-0.06968 0.45440-0.94499 0.83149-0.31956 0.31956
  -5  -1   0240275.5 5533.09   1 0.07928-0.46429-0.97844 0.86490-0.19068 0.19068
  -5  -1   0239278.1 5542.54   1-0.05255-0.33247-0.53134 0.41778 0.84552-0.84552
   5  -1   0241748.7 5529.65   1 0.40055-0.01583 0.64916-0.76263-0.64663 0.64663
  -5   1  -144056.73 1709.11   1 0.02643-0.41261 0.42233-0.30893-0.90605 0.85691
   5  -1   137520.23 1446.28   1 0.30367 0.08217-0.10006-0.01330-0.94750 0.99652
   5   1   138870.73 1452.37   1 0.45675-0.07085-0.51710 0.63051-0.72386 0.77293
   5   1   140584.29 1519.30   1 0.48910-0.10279-0.84380 0.95736-0.22083 0.26997
  -5   1  -141700.63 1643.08   1-0.36593-0.02044-0.75544 0.86902-0.54349 0.49434
  -5  -1  -137699.76 1518.11   1 0.09715-0.48350-0.97985 0.86632-0.17446 0.12532
   5   1   130454.89 1216.76   1 0.44780-0.06171-0.87628 0.98977 0.17774-0.12860
   5  -1   133587.71 1312.64   1-0.05052 0.43687-0.53040 0.41685 0.84623-0.79710
   5  -1   138535.07 1512.34   1 0.48044-0.09437 0.66096-0.77443-0.57645 0.62557
  -5   1  -229148.32 1160.68   1 0.10408-0.49152 0.29339-0.17998-0.95030 0.85206
   5  -1   230322.56 1180.61   1 0.37125 0.01600-0.26253 0.14916-0.89064 0.98868
  -5   1  -228579.38 1182.98   1-0.32466-0.06262-0.79328 0.90681-0.51506 0.41685
  -5  -1  -228388.57 1188.36   1 0.10628-0.49397-0.98036 0.86682-0.16611 0.06782
   5  -1   227431.10 1090.64   1-0.14931 0.53700-0.57326 0.45976 0.80564-0.70727
   5  -1   232020.32 1273.57   1 0.54663-0.15934 0.66534-0.77880-0.50843 0.60668
  -5   1  -379928.06 1886.21   1 0.17643-0.56524 0.16222-0.04881-0.97085 0.82348
   5  -1   363533.30 1516.86   1 0.42439-0.03567-0.41054 0.29716-0.80705 0.95415
  -5   1  -380590.97 1970.87   1-0.29192-0.09667-0.82020 0.93373-0.49197 0.34465
  -5  -1  -369376.96 1741.16   1 0.10910-0.49813-0.98048 0.86695-0.16352 0.01609
   5  -1   370054.39 1712.10   1 0.60124-0.21261 0.66400-0.77747-0.44451 0.59189
   5   1   383887.50 2030.87   1 0.32198 0.06681 0.63150-0.51804-0.70535 0.85274
  -5   1  -472058.99 1725.10   1 0.23883-0.62897 0.03929 0.07409-0.97026 0.77388
   5  -1   460199.57 1445.64   1 0.46151-0.07144-0.53494 0.42153-0.70769 0.90399
   5   1   456248.08 1298.85   1 0.37083 0.01966-0.88183 0.99530 0.29128-0.09472
  -5   1  -469760.80 1748.42   1-0.26669-0.12322-0.83931 0.95284-0.47372 0.27729
  -5  -1  -464460.09 1641.81   1 0.10719-0.49755-0.98040 0.86686-0.16528-0.03129
   5  -1   464813.56 1626.28   1 0.64650-0.25651 0.65884-0.77230-0.38464 0.58115
   5   1   474447.57 1865.82   1 0.39878-0.00862 0.64883-0.53537-0.64805 0.84457
  -5   1  -5109167.5 3026.16   1 0.28959-0.68111-0.06848 0.18187-0.95469 0.70922
   5  -1   5115229.8 3178.87   1 0.48390-0.09244-0.63356 0.52015-0.60368 0.84905
   5   1   594321.61 2670.33   1 0.46745-0.07592 0.65951-0.54605-0.58865 0.83430
  -5   1  -648223.46 1697.01   1 0.32865-0.72158-0.15765 0.27103-0.93119 0.63706
  -5  -1  -644633.41 1533.61   1 0.40875-0.80165-0.36424 0.25086-0.83680 0.54260
   5   1   636324.85 1266.63   1 0.37980 0.01346-0.88601 0.99949 0.26593 0.02890
  -5   1  -648045.58 1781.84   1-0.23467-0.15788-0.86162 0.97515-0.45004 0.15539
   5  -1   647069.87 1713.39   1 0.71591-0.32303 0.64136-0.75485-0.27591 0.57081
   5   1   648446.75 1750.89   1 0.52798-0.13529 0.66476-0.55130-0.52850 0.82326
  -5   1  -7116095.9 3964.34   1 0.35844-0.75278-0.22996 0.34333-0.90478 0.56163
  -5  -1  -792215.83 3134.00   1 0.44035-0.83464-0.46117 0.34779-0.77032 0.42708
   5   1   788678.21 3021.78   1 0.37565 0.01899-0.88415 0.99762 0.27776 0.06621
  -5   1  -7107888.9 3954.07   1-0.22611-0.16776-0.86722 0.98075-0.44361 0.09986
  -5  -1  -794592.59 3329.92   1 0.08221-0.47658-0.97871 0.86518-0.18804-0.15597
   5  -1   795621.19 3355.61   1 0.74270-0.34849 0.63013-0.74363-0.22651 0.57057
   5   1   7109210.9 3770.37   1 0.58117-0.18714 0.66506-0.55159-0.46896 0.81284
  -5   1  -825275.39  929.18   1 0.38056-0.77632-0.28684 0.40022-0.87913 0.48696
  -5  -1  -822356.38  788.96   1 0.45704-0.85267-0.51816 0.40475-0.72291 0.33032
   5   1   817959.07  666.34   1 0.36973 0.02631-0.88128 0.99476 0.29432 0.09878
  -5   1  -823508.65 1279.39   1-0.22156-0.17363-0.87014 0.98367-0.44018 0.04732
  -5  -1  -820354.21  910.24   1 0.06933-0.46504-0.97741 0.86387-0.19965-0.19350
   5  -1   821443.55  863.61   1 0.76549-0.36994 0.61780-0.73130-0.17979 0.57299
   5   1   825203.98 1026.79   1 0.62756-0.23217 0.66151-0.54805-0.41056 0.80357
  -5   1  -924102.35  888.26   1 0.39696-0.79404-0.33099 0.44437-0.85607 0.41476
  -5  -1  -922122.99 1165.81   1 0.46606-0.86308-0.55271 0.43930-0.69086 0.24919
   5   1   921144.76 2181.83   1 0.36267 0.03475-0.87759 0.99106 0.31351 0.12874
  -5   1  -925754.09 1432.44   1-0.22046-0.17605-0.87084 0.98437-0.43934-0.00262
  -5  -1  -924290.62 1055.43   1 0.05477-0.45182-0.97558 0.86205-0.21268-0.22961
   5  -1   922280.30 1277.99   1 0.78484-0.38821 0.60474-0.71818-0.13530 0.57749
  -5   1 -1029926.25 1557.69   1 0.40883-0.80729-0.36445 0.47783-0.83667 0.34634
  -5  -1 -1028591.84 1477.51   1 0.47112-0.86953-0.57354 0.46013-0.67014 0.17939
  -5   1 -1033240.73 1814.49   1-0.22232-0.17551-0.86965 0.98319-0.44075-0.05031
  -5  -1 -1032282.21 2561.89   1 0.03869-0.43674-0.97323 0.85973-0.22652-0.26477
   5  -1  1027420.05 1490.73   1 0.80145-0.40350 0.59080-0.70425-0.09281 0.58413
   5   1  1032519.31 1722.25   1 0.70278-0.30455 0.64582-0.53232-0.29834 0.78985
  -5   1 -1122706.02 1071.12   1 0.41736-0.81722-0.38939 0.50277-0.82108 0.28170
  -5  -1 -1123719.71 1085.15   1 0.47387-0.87367-0.58539 0.47198-0.65784 0.11803
  -5   1 -1123992.50 2292.32   1-0.22676-0.17238-0.86680 0.98033-0.44410-0.09607
  -5  -1 -1124792.44 1278.98   1 0.02137-0.42075-0.97009 0.85660-0.24176-0.29866
   5  -1  1121604.63 1658.24   1 0.81563-0.41635 0.57622-0.68967-0.05200 0.59245
   5   1  1122318.51 1152.12   1 0.73299-0.33343 0.63456-0.52106-0.24503 0.78569
  -5   1 -1222851.04 1657.43   1 0.42337-0.82462-0.40744 0.52083-0.80915 0.22075
  -5  -1 -1215684.65 1173.64   1 0.47513-0.87632-0.59099 0.47758-0.65190 0.06300
  -5   1 -1223410.96 1985.05   1-0.23347-0.16700-0.86241 0.97594-0.44914-0.14014
  -5  -1 -1218973.27 2017.41   1 0.00291-0.40362-0.96617 0.85267-0.25785-0.33169
   5  -1  1215003.46 1218.67   1 0.82767-0.42707 0.56106-0.67451-0.01261 0.60219
   5   1  1223938.85 1769.49   1 0.75907-0.35816 0.62159-0.50809-0.19348 0.78330
  -5   1 -1341552.71 2492.54   1 0.42742-0.83006-0.41987 0.53325-0.80063 0.16319
  -5  -1 -1344857.65 2662.86   1 0.47535-0.87793-0.59200 0.47859-0.65081 0.01284
  -5   1 -1344449.13 3245.23   1-0.24217-0.15961-0.85658 0.97011-0.45564-0.18275
  -5  -1 -1346175.31 3001.91   1-0.01658-0.38545-0.96139 0.84789-0.27468-0.36400
   5  -1  1338882.09 2363.48   1 0.83780-0.43588 0.54536-0.65880 0.02554 0.61316
   5   1  1344323.59 2685.73   1 0.78147-0.37923 0.60717-0.49367-0.14363 0.78260
  -5   1 -1418717.89 1347.24   1 0.42992-0.83395-0.42764 0.54102-0.79516 0.10869
  -5  -1 -1420219.86 1396.63   1 0.47479-0.87876-0.58948 0.47607-0.65351-0.03352
  -5   1 -1421862.65 1914.15   1-0.25266-0.15045-0.84935 0.96288-0.46341-0.22408
  -5  -1 -1422046.39 1668.72   1-0.03704-0.36633-0.95565 0.84216-0.29213-0.39568
   5  -1  1422115.89 1582.61   1 0.84622-0.44297 0.52913-0.64257 0.06264 0.62519
   5   1  1418619.37 1395.66   1 0.80050-0.39725 0.59169-0.47824-0.09539 0.78324
  -5   1 -15 2714.67  639.23   1 0.43115-0.83657-0.43150 0.54489-0.79240 0.05689
  -5  -1 -15 1861.98  446.68   1 0.47357-0.87893-0.58410 0.47069-0.65920-0.07691
  -5   1 -15 2614.52  614.82   1-0.26474-0.13968-0.84073 0.95426-0.47230-0.26430
  -5  -1 -15 1801.26  436.87   1-0.05839-0.34631-0.94889 0.83540-0.31013-0.42681
   5  -1  15 1397.98  436.16   1 0.85313-0.44864 0.51227-0.62572 0.09870 0.63811
   5   1  15 2735.05  675.89   1 0.81673-0.41216 0.57495-0.46151-0.04859 0.78556
  -5   1 -16 6375.12  600.91   1 0.43131-0.83813-0.43203 0.54541-0.79202 0.00748
  -5  -1 -16 7203.85  653.19   1 0.47177-0.87852-0.57632 0.46291-0.66729-0.11789
  -5   1 -16 6548.45 1395.48   1-0.27828-0.12746-0.83071 0.94424-0.48215-0.30356
  -5  -1 -16 6976.87 1158.30   1-0.08057-0.32546-0.94102 0.82752-0.32860-0.45746
   5  -1  16 7269.96  697.54   1 0.85848-0.45266 0.49499-0.60845 0.13410 0.65182
   5   1  16 6624.37  765.19   1 0.83033-0.42444 0.55725-0.44381-0.00311 0.78922
   5   2 -1613237.25 1125.81   1 0.49639-0.13334-0.71789 0.94509-0.48808-0.29836
   5  -2 -1611672.57 1114.98   1 0.46197-0.09936-0.88597 0.65903-0.04027-0.74551
  -5  -2  16 9837.78  881.45   1 0.62089-0.98344-0.04563-0.18115 0.78256 0.00322
   5   2 -15  193.31  435.11   1 0.49722-0.13279-0.72784 0.95504-0.47223-0.26505
   5  -2 -15 1734.86  523.71   1 0.45266-0.08866-0.89166 0.66472 0.00512-0.74180
  -5  -2  15  397.62  375.90   1 0.61879-0.98273-0.04792-0.17886 0.78408-0.04741
   5   2 -14 9040.21  937.45   1 0.49783-0.13203-0.73682 0.96402-0.45743-0.23071
   5  -2 -14 8017.40  857.87   1 0.44197-0.07659-0.89551 0.66857 0.05212-0.73968
  -5   2  14 5916.31  998.89   1 0.57248-0.93779-0.09647 0.32327 0.81422-0.12665
  -5  -2  14 8681.53  931.70   1 0.61436-0.97967-0.05274-0.17405 0.78725-0.09969
   5   2 -1325026.52 1675.55   1 0.49826-0.13108-0.74478 0.97198-0.44387-0.19511
   5  -2 -1323429.48 1541.20   1 0.42974-0.06298-0.89729 0.67035 0.10090-0.73936
  -5   2  1321023.56 1263.61   1 0.55423-0.92137-0.11422 0.34095 0.82448-0.18660
  -5  -2  1322653.86 1469.91   1 0.60730-0.97399-0.06033-0.16646 0.79217-0.15372
   5   2 -1250910.40 3637.54   1 0.49854-0.12998-0.75164 0.97884-0.43183-0.15800
   5  -2 -1258385.42 4131.79   1 0.41577-0.04763-0.89673 0.66979 0.15167-0.74101
   5  -2 -1251642.64 3581.72   1 0.42940-0.06060-0.88934 0.66236 0.15711-0.74672
  -5   2  1248116.96 3339.09   1 0.52836-0.89682-0.13911 0.36584 0.83754-0.24872
  -5  -2  1255575.07 3914.75   1 0.59723-0.96530-0.07100-0.15579 0.79891-0.20957
   5   2 -1132106.58 1998.83   1 0.49869-0.12875-0.75730 0.98450-0.42164-0.11903
   5  -2 -1129110.36 1845.23   1 0.40013-0.03043-0.89336 0.66642 0.20441-0.74495
   5  -2 -1122444.98 1305.26   1 0.51036-0.14023-0.82270 0.59572 0.25037-0.79084
  -5   2  1131479.87 1801.28   1 0.49142-0.86119-0.17311 0.39984 0.85354-0.31379
  -5  -2  1125810.82 1557.63   1 0.58369-0.95313-0.08506-0.14173 0.80750-0.26727
   5   2 -10 2636.53  536.45   1 0.49877-0.12745-0.76159 0.98879-0.41376-0.07776
   5  -2 -10 2270.08  467.23   1 0.38191-0.01083-0.88692 0.65998 0.25980-0.75120
   5  -2 -10 1781.19  286.75   1 0.58515-0.21344-0.73463 0.50756 0.34336-0.83476
  -5   2  10 1859.37  257.21   1 0.58471-0.95590 0.46195-0.23510 0.66686-0.17600
  -5   2  10 2706.48  337.66   1 0.43967-0.81076-0.21801 0.44474 0.87129-0.38061
  -5  -2  10 2019.42  363.02   1 0.56612-0.93694-0.10285-0.12393 0.81787-0.32676
   5  -2 -10 1678.16  226.05   1 0.79290-0.42143 0.59833-0.82521-0.11528-0.37603
   5   2  -9 1904.34  474.59   1 0.49879-0.12610-0.76425 0.99144-0.40880-0.03357
   5  -2  -9 2957.69  488.91   1 0.36107 0.01139-0.87672 0.64977 0.31778-0.76004
   5  -2  -9 2626.73  341.68   1 0.64895-0.27593-0.62618 0.39910 0.43214-0.87439
  -5   2   9  875.48  129.31   1 0.56589-0.93838 0.49589-0.26904 0.65867-0.21689
  -5   2   9 1818.21  258.80   1 0.36829-0.74069-0.27538 0.50211 0.88798-0.44637
  -5  -2   9 1847.73  316.13   1 0.54337-0.91576-0.12479-0.10194 0.83016-0.38855
   5  -2  -9 2539.03  289.03   1 0.82009-0.44730 0.57096-0.79784-0.03800-0.40417
   5   2  -814805.49 1612.87   1 0.49880-0.12472-0.76488 0.99208-0.40760 0.01438
   5  -2  -816188.94 1734.37   1 0.33719 0.03666-0.86200 0.63506 0.37847-0.77158
   5  -2  -814602.07 1522.92   1 0.69862-0.32403-0.49846 0.27136 0.51328-0.90629
  -5   2   815789.15 1632.52   1 0.54289-0.91669 0.53437-0.30752 0.64785-0.25516
  -5   2   816729.76 1728.89   1 0.27125-0.64516-0.34613 0.57287 0.89811-0.50555
  -5  -2   814727.65 1560.54   1 0.51567-0.88939-0.15098-0.07574 0.84337-0.45082
   5  -2  -813043.35 1342.88   1 0.84518-0.47106 0.53135-0.75823 0.05769-0.45074
   5   2  -719619.68  884.28   1 0.49878-0.12333-0.76288 0.99008-0.41136 0.06729
   5  -2  -725504.37  996.64   1 0.30980 0.06544-0.84188 0.61493 0.44187-0.78585
   5  -2  -725029.81  901.12   1 0.73150-0.35616-0.35503 0.12822 0.58210-0.92558
  -5   2   717602.10  634.10   1 0.51574-0.89085 0.57613-0.34927 0.63409-0.29049
  -5   2   719071.71  646.67   1 0.14630-0.52151-0.42625 0.65299 0.89269-0.54920
  -5  -2   725834.08  970.53   1 0.48170-0.85673-0.18177-0.04495 0.85727-0.51379
   5  -2  -724753.91  819.32   1 0.86341-0.48800 0.47132-0.69823 0.17990-0.52375
   5   2  -621664.41 1528.43   1 0.49869-0.12186-0.75720 0.98439-0.42184 0.12692
   5  -2  -620054.86 1398.14   1 0.27863 0.09791-0.81496 0.58794 0.50813-0.80294
  -5  -2   621978.49 1439.22   1 0.02759-0.40458-0.97118 0.74411-0.23674 0.53161
   5  -2  -620048.06 1368.58   1 0.74462-0.36798-0.20517-0.02164 0.63516-0.92957
  -5   2   622592.30 1492.22   1-0.00581-0.37124-0.50905 0.73615 0.86071-0.56590
  -5  -2   622112.66 1532.76   1 0.44062-0.81696-0.21721-0.00951 0.87101-0.57660
   5  -2  -619977.42 1317.41   1 0.86251-0.48574 0.37904-0.60593 0.33524-0.62999
   5   2  -5149562.4 5121.70   1 0.49832-0.12011-0.74603 0.97323-0.44171 0.19594
  -5  -2   5112255.3 3808.51   1 0.37515-0.75317-0.88391 0.65697 0.27919-0.03349
   5  -2  -5124837.9 4271.50   1 0.24268 0.13525-0.78050 0.55349 0.57611-0.82179
   5  -2  -5104006.5 3521.22   1-0.44949 0.82784-0.66499 0.43783-0.59643 0.35066
  -5  -2   5122668.0 4129.47   1 0.19650-0.57482-0.97711 0.75005-0.08137 0.32710
   5  -2  -5130244.0 4424.47   1 0.73938-0.36153-0.05449-0.17223 0.67106-0.91631
  -5   2   5143116.8 4810.20   1-0.16664-0.21130-0.57999 0.80699 0.79739-0.55145
  -5  -2   5136286.6 4655.84   1 0.39170-0.76935-0.25711 0.03038 0.88343-0.63809
   5  -2  -5130453.9 4384.57   1 0.81954-0.44143 0.24207-0.46896 0.51936-0.76498
   5   2  -4196809.5 5408.08   1 0.49708-0.11749-0.72598 0.95318-0.47523 0.27862
  -5  -2   4205173.113368.90   1 0.37039-0.74979-0.88161 0.65467 0.29249-0.09593
   5  -2  -4187864.2 5162.84   1 0.20176 0.17756-0.73693 0.50991 0.64515-0.84169
   5  -2  -4167662.1 4575.71   1-0.41191 0.79160-0.70825 0.48109-0.57332 0.37671
  -5  -2   4195113.9 5302.33   1 0.25754-0.63701-0.96601 0.73919-0.02213 0.21863
   5   2  -4182071.3 4942.19   1 0.74497-0.36574-0.17259 0.39941 0.64438-0.84065
   5  -2  -4200770.813092.92   1 0.71811-0.33901 0.08819-0.31492 0.69031-0.88650
  -5  -2   4207016.113560.70   1 0.33429-0.71341-0.30115 0.07441 0.89305-0.69677
   5  -2  -4208144.913549.31   1 0.70828-0.32863 0.05919-0.28618 0.70343-0.90005
   5  -2  -4216732.314109.92   1 0.31958 0.05966 0.63088-0.85781-0.70699 0.51048
  -5   2   316493.54  587.89   1-0.15695-0.22350 0.68129-0.45449-0.71498 0.86225
   5   2  -315970.95  555.25   1 0.49330-0.11234-0.69005 0.91725-0.52959 0.38213
  -5  -2   322656.46  675.34   1 0.35984-0.74063-0.87603 0.64908 0.32106-0.17364
   5  -2  -318972.99  579.12   1-0.37199 0.75302-0.74955 0.52239-0.54752 0.40006
  -5  -2   322787.50  699.21   1 0.28692-0.66774-0.95792 0.73110 0.00734 0.14002
   5  -2  -321796.26  728.40   1 0.68533-0.30522 0.21854-0.44520 0.69466-0.84180
   5  -2  -321850.75  631.66   1 0.52694-0.14666-0.14045-0.08627 0.83821-0.98541
  -5   2   2 6972.84  607.58   1-0.10591-0.27593 0.61577-0.38897-0.78077 0.87895
   5   2  -2 6565.64  279.29   1 0.48165-0.09992-0.62191 0.84873-0.61743 0.51928
  -5  -2   2 5411.56  216.30   1 0.33793-0.72011-0.86250 0.63556 0.37667-0.27839
  -5  -2   2 6051.34  299.07   1 0.30037-0.68252-0.95359 0.72677 0.02100 0.07723
   5   2  -2 6065.12  268.97   1 0.69889-0.31665-0.49757 0.72466 0.51378-0.61203
   5  -2  -2 5519.61  368.06   1 0.64501-0.26363 0.33202-0.55868 0.68827-0.78636
  -5  -2   2 6114.14  657.11   1 0.19520-0.57693-0.39626 0.16952 0.89714-0.79900
   5  -2  -2 4895.62  475.56   1 0.31282 0.06889-0.31684 0.09010 0.89540-0.99354
   5  -2  -2 5523.13  234.83   1 0.53091-0.14902 0.66488-0.89181-0.52540 0.42715
  -5   2   1  909.66  176.69   1-0.05066-0.33275 0.53926-0.31245-0.84060 0.88974
   5   2  -1  284.71  104.17   1 0.44356-0.06041-0.47185 0.69862-0.76197 0.71293
  -5  -2   1  454.57  110.45   1 0.28788-0.67138-0.82317 0.59616 0.48939-0.44025
  -5  -2   1  102.81  157.22   1 0.30444-0.68793-0.95219 0.72537 0.02517 0.02395
   5   2  -1  170.75  123.46   1 0.66750-0.28399-0.58489 0.81198 0.46079-0.50992
   5  -2  -1  501.06  223.16   1 0.60201-0.21907 0.42848-0.65534 0.67377-0.72286
   5  -2  -1  200.09   68.50   1 0.11156 0.27212-0.44657 0.21946 0.88776-0.93689
  -5  -2   1  392.78  280.99   1 0.11477-0.49847-0.44473 0.21762 0.88827-0.83914
   5  -2  -1  137.67  138.33   1 0.59772-0.21448 0.66424-0.89117-0.44889 0.39976
   5   2   048896.16 1826.83   1-0.09616 0.48096 0.60297-0.37616-0.79194 0.79194
  -5   2   058038.43 1481.24   1 0.00735-0.39215 0.45231-0.22549-0.89183 0.89183
   5   2   051016.26 1382.81   1 0.25184 0.13277 0.01242 0.21435-0.96768 0.96768
  -5  -2   050992.21 1486.56   1 0.30238-0.68721-0.95290 0.72608 0.02307-0.02307
   5   2   048831.60 1890.17   1 0.63976-0.25495-0.64457 0.87164 0.41859-0.41859
   5  -2   052265.58 1546.18   1 0.55893-0.17468 0.50786-0.73472 0.65548-0.65548
   5  -2   045336.48 1730.96   1-0.05442 0.43945-0.53220 0.30509 0.84486-0.84486
  -5  -2   051421.04 1532.60   1 0.03008-0.41510-0.49093 0.26382 0.87067-0.87067
   5  -2   050079.16 1922.03   1 0.64785-0.26326 0.65862-0.88554-0.38274 0.38274
  -5   2  -1108287.9 2612.66   1 0.06605-0.45213 0.35804-0.13122-0.93136 0.88224
  -5  -2  -1116629.0 2757.49   1 0.29602-0.68218-0.95503 0.72821 0.01658-0.06570
   5  -2   1128405.3 3039.76   1 0.51840-0.13286 0.57219-0.79905 0.63548-0.58640
   5  -2   1102651.4 2381.51   1-0.18177 0.56806-0.58569 0.35869 0.78988-0.74069
  -5  -2  -1113611.2 2765.07   1-0.05688-0.32947-0.53333 0.30622 0.84399-0.89312
   5  -2   1121071.5 2821.23   1 0.68662-0.30044 0.65052-0.87751-0.32460 0.37376
  -5   2  -237289.03 1134.63   1 0.12278-0.51023 0.26053-0.03372-0.95762 0.85937
  -5  -2  -234579.64 1094.06   1 0.28645-0.67396-0.95806 0.73124 0.00687-0.10512
  -5  -2  -234178.53 1071.76   1-0.14356-0.24413-0.57098 0.34398 0.80830-0.90668
   5  -2   233765.71 1017.07   1 0.71740-0.32988 0.64081-0.86781-0.27328 0.37159
  -5   2  -324935.59  811.89   1 0.17531-0.56411 0.16434 0.06247-0.97069 0.82332
  -5   2  -325043.46  843.68   1-0.45027 0.06121-0.66405 0.89121-0.59689 0.44943
  -5  -2  -320923.75  759.35   1 0.27441-0.66325-0.96159 0.73477-0.00526-0.14210
  -5  -2  -321447.46  743.54   1-0.22776-0.16131-0.60200 0.37500 0.76531-0.91287
   5  -2   320731.29  737.17   1 0.74254-0.35368 0.63021-0.85721-0.22683 0.37428
  -5   2  -434322.69 1262.15   1 0.22184-0.61198 0.07370 0.15308-0.97229 0.77591
  -5  -2  -431758.96 2142.62   1 0.26038-0.65056-0.96531 0.73849-0.01930-0.17718
   5  -2   431422.92 2115.03   1 0.76351-0.37331 0.61900-0.84600-0.18407 0.38067
   5   2   435890.94 1381.59   1 0.30630 0.08385 0.62734-0.40041-0.71597 0.91249
  -5  -2  -5 4181.36  277.30   1 0.17628-0.56780 0.16232-0.38910-0.97086 0.72539
  -5   2  -5 4866.79  460.82   1 0.26178-0.65331-0.00845 0.23524-0.96508 0.71961
  -5  -2  -5 4645.37  309.84   1 0.37243-0.76394-0.26541 0.03864-0.88929 0.64412
  -5   2  -5 4737.98  660.16   1-0.40099 0.00925-0.72000 0.94716-0.56639 0.32062
  -5  -2  -5 4030.37  458.14   1 0.24471-0.63623-0.96896 0.74214-0.03485-0.21077
   5  -2   5 4993.32  532.47   1 0.78126-0.38973 0.60732-0.83432-0.14413 0.38988
  -5  -2  -652686.26 1780.63   1-0.04618-0.34688 0.53277-0.75958-0.84499 0.55018
  -5   2  -654350.33 1931.95   1 0.29502-0.68792-0.08049 0.30727-0.95209 0.65752
  -5  -2  -654408.40 1843.87   1 0.46518-0.85803-0.54922 0.32239-0.69423 0.39978
  -5   2  -651639.73 1873.93   1-0.38320-0.00986-0.73840 0.96556-0.55489 0.25997
  -5  -2  -654047.75 1972.39   1 0.22752-0.62056-0.97242 0.74535-0.05125-0.24360
   5  -2   654632.84 1966.18   1 0.79637-0.40372 0.59537-0.82226-0.10632 0.40111
   5   2   652507.81 1893.18   1 0.44800-0.05511 0.65699-0.43006-0.60634 0.90111
  -5  -2  -725707.90  841.19   1-0.12995-0.26443 0.64731-0.87410-0.75106 0.40744
  -5   2  -728563.92 1037.47   1 0.32171-0.71605-0.14139 0.36814-0.93621 0.59306
  -5  -2  -729474.35  978.46   1 0.48230-0.87655-0.62524 0.39842-0.61355 0.27003
  -5   2  -726853.09 1110.06   1-0.36955-0.02486-0.75194 0.97910-0.54590 0.20182
  -5  -2  -728965.82 1162.59   1 0.20925-0.60363-0.97541 0.74835-0.06906-0.27495
   5  -2   728622.27 1078.39   1 0.80948-0.41551 0.58291-0.80979-0.07030 0.41422
   5   2   732053.35 1227.85   1 0.50876-0.11472 0.66367-0.43675-0.54835 0.89223
  -5  -2  -8 9156.60  947.68   1-0.17343-0.22235 0.70126-0.92805-0.69148 0.29877
  -5   2  -8 5331.01  647.61   1 0.34332-0.73908-0.19272 0.41947-0.91922 0.52705
  -5  -2  -811429.13 1202.98   1 0.48827-0.88390-0.65835 0.43153-0.57285 0.18025
  -5   2  -8 5607.31  982.49   1-0.35964-0.03610-0.76145 0.98861-0.53929 0.14606
  -5  -2  -8 9999.45 1154.11   1 0.18993-0.58564-0.97787 0.75080-0.08769-0.30546
   5  -2   811626.16 1284.29   1 0.82082-0.42552 0.57007-0.79695-0.03566 0.42871
   5   2   8 5101.90  634.97   1 0.56318-0.16779 0.66543-0.43851-0.48991 0.88292
  -5   2  -931115.13 1636.64   1 0.36038-0.75755-0.23483 0.46158-0.90275 0.46156
  -5  -2  -930244.49 1542.78   1 0.49066-0.88768-0.67370 0.44688-0.55260 0.11093
  -5   2  -928132.12 1569.91   1-0.35312-0.04397-0.76758 0.99473-0.53490 0.09252
  -5  -2  -927496.32 1542.24   1 0.16966-0.56671-0.97967 0.75260-0.10701-0.33528
   5  -2   926238.55 1465.65   1 0.83060-0.43398 0.55685-0.78373-0.00212 0.44431
   5   2   935643.20 1910.54   1 0.61139-0.21465 0.66320-0.43627-0.43169 0.87383
  -5   2 -1063093.35 2678.47   1 0.37367-0.77226-0.26879 0.49554-0.88775 0.39754
  -5  -2 -1058391.45 2439.81   1 0.49153-0.88994-0.67972 0.45289-0.54440 0.05366
  -5   2 -1058295.85 2538.27   1-0.34963-0.04879-0.77080 0.99796-0.53254 0.04101
  -5  -2 -1059996.00 2627.69   1 0.14854-0.54693-0.98072 0.75365-0.12694-0.36450
   5  -2  1059217.63 2549.35   1 0.83901-0.44106 0.54325-0.77013 0.03049 0.46081
   5   2  1069224.84 2974.07   1 0.65383-0.25575 0.65759-0.43067-0.37425 0.86551
  -5   2 -1113361.10 1056.60   1 0.38389-0.78390-0.29567 0.52242-0.87475 0.33552
  -5  -2 -1111852.38  902.30   1 0.49158-0.89138-0.68005 0.45323-0.54394 0.00412
  -5   2 -1113525.71 1400.39   1-0.34887-0.05089-0.77150 0.99866-0.53203-0.00865
  -5  -2 -1111049.86  997.70   1 0.12662-0.52635-0.98094 0.75387-0.14736-0.39322
   5  -2  1111530.96  949.74   1 0.84616-0.44689 0.52925-0.75613 0.06238 0.47806
   5   2  1114831.41 1242.59   1 0.69098-0.29142 0.64933-0.42233-0.31765 0.85831
  -5   2 -12 1208.57  391.31   1 0.39174-0.79298-0.31663 0.54340-0.86387 0.27546
  -5  -2 -12 1099.95  299.51   1 0.49108-0.89227-0.67653 0.44971-0.54876-0.04012
  -5   2 -12 1063.03  461.54   1-0.35056-0.05054-0.76995 0.99711-0.53317-0.05666
  -5  -2 -12  758.33  361.17   1 0.10397-0.50503-0.98024 0.75318-0.16823-0.42149
   5  -2  12  949.00  345.07   1 0.85224-0.45171 0.51472-0.74162 0.09352 0.49592
  -5   2 -13  994.33  267.91   1 0.39740-0.80003-0.33218 0.55895-0.85540 0.21796
  -5  -2 -13  970.42  319.74   1 0.49013-0.89271-0.67016 0.44334-0.55735-0.08061
  -5   2 -13 2369.34  576.33   1-0.35445-0.04800-0.76634 0.99350-0.53580-0.10319
  -5  -2 -13 1594.07  540.95   1 0.08060-0.48300-0.97856 0.75150-0.18949-0.44938
   5  -2  13  811.83  346.65   1 0.85713-0.45528 0.49988-0.72678 0.12427 0.51429
   5   2  13 1581.51  379.86   1 0.75154-0.34930 0.62570-0.39870-0.20898 0.84795
  -5   2 -1415382.36 1127.70   1 0.40135-0.80538-0.34321 0.56998-0.84918 0.16271
  -5  -2 -1415460.27 1058.58   1 0.48879-0.89276-0.66153 0.43471-0.56872-0.11831
  -5   2 -1415082.06 1429.77   1-0.36032-0.04346-0.76081 0.98797-0.53974-0.14839
  -5  -2 -1418728.96 1408.01   1 0.05656-0.46030-0.97582 0.74876-0.21108-0.47694
   5  -2  1420319.07 1466.25   1 0.86096-0.45779 0.48459-0.71149 0.15460 0.53309
   5   2  1414545.43 1085.94   1 0.77583-0.37224 0.61115-0.38415-0.15678 0.84490
  -5   2 -15 7465.42  857.57   1 0.40387-0.80930-0.35032 0.57708-0.84507 0.10956
  -5  -2 -15 5304.69  593.99   1 0.48704-0.89240-0.65100 0.42418-0.58221-0.15389
  -5   2 -15 7564.83 1385.61   1-0.36800-0.03712-0.75344 0.98060-0.54487-0.19242
  -5  -2 -15 5880.46 1091.48   1 0.03179-0.43651-0.97205 0.74505-0.23260-0.50433
   5   2  15 8337.91  959.60   1 0.79648-0.39191 0.59528-0.36840-0.10604 0.84301
  -5   2 -16 6537.96  857.90   1 0.40517-0.81198-0.35398 0.58075-0.84292 0.05838
  -5  -2 -16 5014.84  666.21   1 0.48487-0.89162-0.63879 0.41197-0.59735-0.18783
  -5   2 -16 6798.03 1619.95   1-0.37732-0.02913-0.74429 0.97145-0.55103-0.23541
  -5  -2 -16 4930.26 1120.71   1 0.00645-0.41250-0.96697 0.73998-0.25478-0.53129
   5  -2  16 5710.61  881.48   1 0.86560-0.45978 0.45260-0.67950 0.21421 0.57172
   5   2  16 9672.70 1249.76   1 0.81412-0.40823 0.57792-0.35103-0.05657 0.84268
   5   3 -1528249.58 2092.58   1 0.48545-0.12179-0.64201 0.98224-0.59342-0.14269
   5  -3 -1518688.53 1446.61   1 0.43226-0.06826-0.89712 0.55671 0.09121-0.82789
  -5  -3  1518676.16 1441.02   1 0.59715-0.96109-0.07107-0.26911 0.79896-0.06229
   5   3 -1416978.58 1611.55   1 0.48640-0.12134-0.64731 0.98754-0.58685-0.10017
   5  -3 -1415351.33 1418.66   1 0.41868-0.05330-0.89704 0.55663 0.14147-0.82904
  -5  -3  1414606.69 1378.19   1 0.59236-0.95767-0.07609-0.26410 0.80206-0.11450
   5   3 -1330034.43 2542.67   1 0.48702-0.12058-0.65091 0.99114-0.58234-0.05562
   5  -3 -1331597.07 2639.07   1 0.40337-0.03661-0.89439 0.55398 0.19326-0.83171
   5  -3 -1326255.62 2127.17   1 0.47916-0.11169-0.85133 0.51086 0.21362-0.85237
  -5  -3  1330221.46 2515.21   1 0.58509-0.95177-0.08362-0.25656 0.80664-0.16819
   5   3 -12 1953.59  518.32   1 0.48730-0.11947-0.65256 0.99279-0.58024-0.00864
   5  -3 -12 3518.44  675.95   1 0.38648-0.01817-0.88878 0.54836 0.24636-0.83604
   5  -3 -12 2607.79  371.09   1 0.53995-0.17116-0.79148 0.45102 0.28633-0.87594
  -5  -3  12 2595.17  399.02   1 0.57503-0.94309-0.09389-0.24629 0.81272-0.22338
   5   3 -1115712.05 1102.98   1 0.48719-0.11797-0.65192 0.99215-0.58105 0.04124
   5  -3 -1115685.19 1081.59   1 0.36715 0.00254-0.87997 0.53955 0.30140-0.84194
   5  -3 -1115491.65  926.91   1 0.59550-0.22510-0.71963 0.37902 0.35705-0.89759
  -5  -3  1114400.23  923.80   1 0.56129-0.93106-0.10725-0.23284 0.82063-0.28088
   5   3 -1011111.87  976.93   1 0.48660-0.11599-0.64850 0.98873-0.58537 0.09462
   5  -3 -10 8389.50  806.01   1 0.34546 0.02561-0.86743 0.52701 0.35807-0.84947
   5  -3 -10 8065.52  644.17   1 0.64354-0.27182-0.63716 0.29654 0.42412-0.91551
  -5  -3  10 8243.47  708.96   1 0.54450-0.91559-0.12369-0.21640 0.82958-0.33890
   5   3  -916360.87 1949.88   1 0.48538-0.11337-0.64158 0.98181-0.59395 0.15228
   5  -3  -919044.56 2250.69   1 0.32118 0.05128-0.85062 0.51020 0.41626-0.85851
   5  -3  -918743.28 2159.26   1 0.68330-0.30998-0.54442 0.20377 0.48651-0.92864
  -5  -3   919427.92 2264.93   1 0.52362-0.89602-0.14357-0.19652 0.83976-0.39815
  -5  -3   8  -82.36   46.08   1 0.42155-0.79567-0.89457 0.55411 0.14840 0.24466
   5   3  -764196.18 2189.50   1 0.47978-0.10500-0.61266 0.95290-0.62804 0.28452
   5  -3  -769458.88 2368.57   1 0.26412 0.11103-0.80152 0.46100 0.53647-0.88042
  -5  -3   762361.44 1998.30   1-0.45930 0.08362-0.65294 0.31220-0.60225 0.94632
  -5  -3   766641.41 2142.07   1 0.46311-0.83856-0.86455 0.52409 0.19513 0.14880
   5  -3  -771566.47 2376.30   1 0.73427-0.35893-0.33598-0.00424 0.58987-0.93335
   5   3  -6151865.7 7529.09   1 0.47419-0.09802-0.58681 0.92705-0.65633 0.36189
   5  -3  -6117581.7 3849.36   1 0.23064 0.14589-0.76814 0.42762 0.59728-0.89210
  -5  -3   6115171.0 3683.80   1 0.47882-0.85560-0.85162 0.51115 0.21323 0.08156
   5  -3  -6122946.7 3994.95   1 0.74393-0.36729-0.22646-0.11375 0.62871-0.92312
   5   3  -6135595.8 6664.72   1 0.60643-0.23002 0.41955-0.07926 0.67543-0.96995
   5   3  -548699.91 1655.65   1 0.46511-0.08755-0.54893 0.88916-0.69451 0.44913
  -5  -3   537994.38 1256.16   1 0.48313-0.86124-0.84791 0.50744 0.21824 0.02742
   5  -3  -538579.69 1357.39   1 0.74361-0.36567-0.11714-0.22308 0.65826-0.90361
   5   3  -541711.49 1364.57   1 0.69003-0.31246 0.20289 0.13708 0.69475-0.93998
  -5  -3   539970.25 1433.14   1 0.38742-0.76508-0.26048-0.07960 0.88433-0.63899
  -5   3   448942.23 1768.39   1-0.15518-0.22387 0.67912-0.33892-0.71743 0.91378
   5   3  -447709.80 1681.70   1 0.44968-0.07070-0.49282 0.83296-0.74492 0.54878
  -5  -3   439087.55 1382.53   1 0.44069-0.81987-0.89581 0.55541 0.05746 0.13898
  -5  -3   438910.40 1371.83   1 0.48087-0.86031-0.84986 0.50940 0.21561-0.01907
   5   3  -444332.17 1548.90   1 0.73064-0.35154 0.01722 0.32286 0.68254-0.87873
   5  -3  -442340.78 1548.53   1 0.73450-0.35540-0.01060-0.32948 0.67852-0.87471
  -5  -3   444642.76 1628.10   1 0.33736-0.71648-0.29888-0.04122 0.89266-0.69638
  -5   3   378450.51 2738.98   1-0.11213-0.26831 0.62405-0.28386-0.77329 0.92055
   5   3  -372105.90 2471.58   1 0.42386-0.04349-0.40893 0.74907-0.80815 0.66105
  -5  -3   379832.20 2722.57   1 0.44480-0.82536-0.89472 0.55432 0.04013 0.10719
   5   3  -369030.95 2375.91   1 0.74430-0.36378-0.13469 0.47491 0.65411-0.80132
   5  -3  -384312.26 2930.89   1 0.71784-0.33749 0.08953-0.42962 0.69042-0.83756
  -5  -3   375003.10 2623.84   1 0.28043-0.66086-0.33978-0.00031 0.89771-0.75050
   5  -3  -382629.49 2772.13   1 0.66241-0.28193 0.00163-0.34182 0.74913-0.89647
   5  -3  -381266.98 2727.00   1 0.86272-0.48203 0.47549-0.81585 0.17206-0.31942
  -5   3   2125664.6 4364.64   1-0.06664-0.31540 0.56209-0.22187-0.82438 0.92265
   5   3  -2112968.0 3817.84   1 0.37806 0.00353-0.28024 0.62036-0.88234 0.78430
  -5  -3   2123122.1 4155.61   1 0.44795-0.82990-0.89366 0.55325 0.02639 0.07182
  -5  -3   2117744.8 4005.67   1 0.46455-0.84665-0.86340 0.52294 0.19678-0.09851
   5   3  -2106586.4 3621.40   1 0.74234-0.36052-0.25598 0.59621 0.61918-0.71732
   5  -3  -2127037.7 4346.50   1 0.69594-0.31457 0.18222-0.52220 0.69459-0.79268
   5  -3  -2127253.7 4274.89   1 0.28711 0.09461-0.33512-0.00497 0.89736-0.99550
  -5  -3   2128563.5 4424.08   1 0.21673-0.59846-0.38251 0.04241 0.89816-0.80002
   5  -3  -2126992.5 4268.87   1 0.84409-0.46203 0.53360-0.87393 0.05263-0.15089
  -5   3   183138.37 2951.84   1-0.01949-0.36392 0.49333-0.15312-0.86961 0.91875
   5   3  -176840.66 2602.19   1 0.29458 0.08843-0.07973 0.41985-0.95229 0.90327
  -5  -3   165661.97 2232.03   1 0.44955-0.83288-0.89304 0.55263 0.01927 0.02983
  -5  -3   162753.26 2180.45   1 0.45243-0.83586-0.87282 0.53236 0.18297-0.13384
   5  -3  -166970.15 2362.07   1 0.67007-0.28742 0.26527-0.60526 0.69327-0.74232
   5  -3  -155529.37 1885.45   1 0.01400 0.36969-0.49915 0.15849 0.86640-0.91553
  -5  -3   165841.50 2340.29   1 0.14647-0.53017-0.42618 0.08552 0.89270-0.84356
   5  -3  -164903.22 2208.62   1 0.83552-0.45213 0.54921-0.88953 0.01641-0.06554
  -5   3   021416.59 1838.26   1 0.02816-0.41297 0.41958-0.07936-0.90727 0.90727
   5   3   018948.91 1251.44   1 0.14050 0.24420 0.22874 0.11147-0.96329 0.96329
  -5  -3   023030.73 1513.61   1 0.44783-0.83254-0.89371 0.55330 0.02695-0.02695
  -5  -3   022109.46 1511.29   1 0.43840-0.82316-0.88309 0.54263 0.16716-0.16716
   5  -3   023568.97 1638.91   1 0.64233-0.25842 0.33858-0.67856 0.68758-0.68758
   5  -3   020217.77 1339.30   1-0.17173 0.55664-0.58193 0.24143 0.79489-0.79489
  -5  -3   025290.22 2148.99   1 0.07163-0.45665-0.46887 0.12821 0.88035-0.88035
   5  -3   023450.85 1560.81   1 0.83269-0.44799 0.55369-0.89402 0.00560-0.00560
   5   3   1  108.93   50.86   1-0.13351 0.51954 0.65187-0.31168-0.74647 0.79556
  -5   3  -1  834.01  258.98   1 0.07516-0.46124 0.34281-0.00259-0.93639 0.88726
  -5  -3  -1  913.51   88.19   1 0.43372-0.81981-0.89697 0.55657 0.08551-0.13462
  -5  -3  -1  287.73  207.41   1 0.42278-0.80888-0.89376 0.55330 0.14977-0.19890
   5  -3   1  788.24  290.56   1 0.61474-0.22919 0.40228-0.74256 0.67842-0.62934
  -5  -3  -1 1047.85  285.45   1-0.00669-0.37966-0.50948 0.16882 0.86045-0.90959
   5  -3   1  723.32  146.37   1 0.83300-0.44697 0.55321-0.89354 0.00676 0.04236
  -5   3  -1   50.58  104.38   1 0.29642-0.68249 0.62460-0.28421-0.72249 0.67336
  -5   3  -216514.84 1145.19   1 0.12005-0.50750 0.26537 0.07484-0.95664 0.85839
  -5  -3  -215894.88 1111.26   1 0.40529-0.79280-0.90463 0.56440 0.13177-0.23002
   5  -3   219284.83 1350.06   1 0.58759-0.20074 0.45654-0.79682 0.66805-0.56988
  -5  -3  -218980.95 1757.24   1-0.08656-0.30113-0.54714 0.20664 0.83254-0.93092
   5  -3   217986.70 1241.33   1 0.83507-0.44772 0.54993-0.89025 0.01468 0.08357
  -5   3  -214484.60  980.51   1 0.37918-0.76662 0.64492-0.30452-0.66354 0.56528
  -5   3  -323770.53 1610.11   1 0.16181-0.55062 0.18962 0.15059-0.96842 0.82105
  -5  -3  -322555.54 1555.14   1 0.38712-0.77596-0.91519 0.57496 0.11202-0.25939
   5  -3   324509.26 1689.93   1 0.56221-0.17406 0.50225-0.84253 0.65700-0.50974
  -5  -3  -324049.01 1649.12   1-0.16645-0.22263-0.57992 0.23942 0.79748-0.94504
   5  -3   322162.57 1496.70   1 0.83812-0.44944 0.54481-0.88513 0.02684 0.12054
  -5   3  -419187.52  755.98   1 0.19952-0.58966 0.11774 0.22243-0.97279 0.77641
  -5  -3  -416112.32  742.76   1 0.36793-0.75811-0.92534 0.58511 0.09143-0.28793
   5  -3   420154.07  901.12   1 0.53921-0.14974 0.54025-0.88053 0.64604-0.44970
  -5  -3  -415751.07  701.93   1-0.24434-0.14613-0.60749 0.26699 0.75580-0.95255
   5  -3   415823.85  630.53   1 0.84168-0.45167 0.53834-0.87867 0.04185 0.15467
  -5   3  -533085.54 1219.75   1 0.23295-0.62447 0.05129 0.28887-0.97113 0.72566
  -5  -3  -524487.38  785.68   1 0.38308-0.77459-0.29333-0.04680-0.87589 0.63072
  -5  -3  -524504.76  790.99   1 0.49880-0.89078-0.76671 0.42592-0.40414 0.15838
  -5  -3  -523097.51  949.04   1 0.34781-0.73933-0.93493 0.59470 0.07014-0.31576
   5  -3   527036.91 1098.63   1 0.51892-0.12815 0.57143-0.91171 0.63575-0.39032
   5  -3   523203.97  869.85   1 0.84543-0.45410 0.53082-0.87115 0.05887 0.18678
   5   3   534879.81 1323.23   1 0.31734 0.07418 0.63029-0.28990-0.70853 0.95417
  -5  -3  -626903.94  875.81   1 0.23816-0.63107 0.04065-0.38083-0.97037 0.67580
  -5   3  -635518.97 1278.83   1 0.26188-0.65478-0.00866 0.34884-0.96505 0.67049
  -5  -3  -621873.24 2231.37   1 0.49820-0.89156-0.78907 0.44827-0.35938 0.06446
  -5  -3  -629394.98 1133.57   1 0.32686-0.71972-0.94383 0.60360 0.04826-0.34301
   5  -3   632932.14 1274.37   1 0.50152-0.10944 0.59662-0.93691 0.62650-0.33198
   5  -3   629761.82 1121.14   1 0.84916-0.45651 0.52242-0.86274 0.07738 0.21740
   5   3   632930.41 1216.72   1 0.38734 0.00555 0.64659-0.30619-0.65717 0.95195
  -5  -3  -712868.34  759.17   1 0.13027-0.52452 0.24718-0.58740-0.96017 0.61630
  -5   3  -712174.17  754.14   1 0.28649-0.68077-0.06165 0.40182-0.95609 0.61243
  -5  -3  -714035.04  734.84   1 0.49808-0.89282-0.79106 0.45026-0.35514 0.01107
   5  -3   714623.88  891.87   1 0.85282-0.45891 0.51311-0.85347 0.09691 0.24693
   5   3   712592.40  845.07   1 0.45206-0.05780 0.65755-0.31716-0.60270 0.94660
  -5   3  -8 2129.87  401.00   1 0.30677-0.70253-0.10709 0.44722-0.94573 0.55356
  -5  -3  -8 2325.46  318.46   1 0.49831-0.89443-0.78701 0.44622-0.36370-0.02952
  -5   3  -8 2138.43  432.97   1-0.47588 0.08013-0.63176 0.97250-0.61188 0.21865
  -5  -3  -8 2135.92  391.90   1 0.28270-0.67823-0.95920 0.61897 0.00307-0.39607
   5  -3   8 2917.94  458.34   1 0.85612-0.46089 0.50324-0.84360 0.11743 0.27553
   5   3   8 1519.20  339.00   1 0.51092-0.11554 0.66382-0.32343-0.54615 0.93916
  -5   3  -9 8498.79  757.83   1 0.32380-0.72098-0.14627 0.48640-0.93474 0.49355
  -5  -3  -9 7974.29  610.68   1 0.49861-0.89610-0.77997 0.43917-0.37819-0.06418
  -5   3  -9 7428.52  724.09   1-0.46705 0.06995-0.64317 0.98390-0.60678 0.16440
  -5  -3  -9 9245.74  804.32   1 0.25958-0.65645-0.96551 0.62528-0.02010-0.42201
   5  -3   9 7805.37  723.45   1 0.85907-0.46251 0.49271-0.83307 0.13865 0.30343
   5   3   9 8276.96  712.05   1 0.56434-0.16760 0.66543-0.32504-0.48859 0.93072
  -5   3 -1016550.92 1273.78   1 0.33770-0.73629-0.17916 0.51928-0.92404 0.43382
  -5  -3 -1013410.99  972.50   1 0.49879-0.89766-0.77099 0.43019-0.39595-0.09557
  -5   3 -1014774.06 1173.96   1-0.46081 0.06237-0.65105 0.99179-0.60314 0.11160
  -5  -3 -1012643.13 1049.82   1 0.23560-0.63398-0.97088 0.63028-0.04333-0.44811
   5  -3  1013188.68 1088.26   1 0.86159-0.46371 0.48157-0.82192 0.16044 0.33076
   5   3  1017921.59 1374.38   1 0.61217-0.21408 0.66313-0.32274-0.43069 0.92195
  -5   3 -1121189.80 1255.29   1 0.34889-0.74889-0.20629 0.54641-0.91417 0.37493
  -5  -3 -1120555.45 1169.15   1 0.49875-0.89900-0.76053 0.41973-0.41573-0.12494
  -5   3 -1120178.98 1277.72   1-0.45699 0.05722-0.65580 0.99654-0.60089 0.06020
  -5  -3 -1119415.43 1214.58   1 0.21121-0.61093-0.97513 0.63452-0.06716-0.47342
   5  -3  1122959.05 1400.89   1 0.86364-0.46443 0.46983-0.81018 0.18271 0.35761
   5   3  1123098.97 1366.11   1 0.65469-0.25525 0.65744-0.31705-0.37302 0.91341
  -5   3 -1215487.51 1165.80   1 0.35774-0.75916-0.22822 0.56834-0.90550 0.31724
  -5  -3 -12 7250.12 1186.97   1 0.49843-0.90006-0.74881 0.40801-0.43685-0.15298
  -5   3 -1212284.52  978.68   1-0.45543 0.05432-0.65773 0.99847-0.59997 0.01013
  -5  -3 -12 8902.00  810.31   1 0.18621-0.58728-0.97826 0.63766-0.09125-0.49848
   5  -3  12 8805.97  826.79   1 0.86516-0.46463 0.45751-0.79786 0.20537 0.38407
   5   3  1215075.33 1190.52   1 0.69219-0.29128 0.64899-0.30849-0.31571 0.90552
  -5   3 -1326551.75 1823.37   1 0.36460-0.76743-0.24549 0.58561-0.89822 0.26094
  -5  -3 -1331973.76 2075.31   1 0.49778-0.90078-0.73594 0.39515-0.45890-0.18009
  -5   3 -1323173.08 1615.06   1-0.45596 0.05351-0.65707 0.99781-0.60028-0.03870
  -5  -3 -1333944.32 2293.78   1 0.16064-0.56304-0.98022 0.63962-0.11556-0.52332
   5  -3  1332465.78 2191.34   1 0.86612-0.46427 0.44461-0.78497 0.22836 0.41020
   5   3  1328920.50 1980.85   1 0.72510-0.32285 0.63785-0.29735-0.25955 0.89852
  -5   3 -14  629.26  442.18   1 0.36972-0.77398-0.25859 0.59871-0.89242 0.20612
  -5   3 -14  970.88  353.15   1-0.45843 0.05464-0.65402 0.99476-0.60174-0.08640
  -5  -3 -14  905.05  387.41   1 0.13448-0.53822-0.98096 0.64036-0.14007-0.54795
   5  -3  14  386.19  359.45   1 0.86647-0.46330 0.43114-0.77150 0.25165 0.43603
   5   3  14  974.92  459.13   1 0.75376-0.35018 0.62452-0.28402-0.20446 0.89257
  -5   3 -15 4395.51  714.29   1 0.37335-0.77902-0.26795 0.60808-0.88814 0.15282
  -5   3 -15 4390.68  654.86   1-0.46269 0.05756-0.64869 0.98943-0.60424-0.13305
  -5  -3 -15 4368.57  758.65   1 0.10774-0.51282-0.98042 0.63982-0.16477-0.57239
   5  -3  15 4840.15  769.24   1 0.86619-0.46169 0.41710-0.75746 0.27520 0.46160
   5   3  15 3886.73  536.90   1 0.77854-0.37362 0.60927-0.26877-0.15052 0.88778
   5   4 -14 3484.66  811.05   1 0.46319-0.09814-0.54142 0.99506-0.70164 0.01460
  -5  -4  14 3136.58  695.51   1 0.56298-0.92829-0.10598-0.34760 0.81964-0.13208
   5   4 -13 8518.76 1002.77   1 0.46271-0.09627-0.53955 0.99320-0.70339 0.06543
   5  -4 -1310380.88 1200.15   1 0.38093-0.01401-0.88651 0.43261 0.26265-0.90146
   5  -4 -13 8985.29  845.50   1 0.54025-0.17278-0.79116 0.33721 0.28669-0.92543
  -5  -4  13 8655.83  869.13   1 0.55473-0.92187-0.11372-0.33973 0.82421-0.18633
   5   4 -1238863.34 2612.98   1 0.46149-0.09365-0.53483 0.98847-0.70779 0.11890
   5  -4 -1235711.38 2389.02   1 0.36160 0.00670-0.87701 0.42312 0.31637-0.90604
  -5  -4  1230291.36 2047.92   1 0.54440-0.91286-0.12378-0.32967 0.82963-0.24081
   5   4 -1115928.50 1219.06   1 0.45934-0.09012-0.52671 0.98035-0.71524 0.17542
   5  -4 -1113552.89 1050.56   1 0.34025 0.02944-0.86405 0.41016 0.37099-0.91153
   5  -4 -1115782.70 1167.65   1 0.62831-0.25790-0.66596 0.21181 0.40213-0.94266
   5   4 -1029599.93 1859.47   1 0.45575-0.08512-0.51448 0.96801-0.72635 0.23601
   5  -4 -1031193.21 1941.24   1 0.31674 0.05433-0.84727 0.39338 0.42636-0.91776
   5  -4 -1029647.85 1808.24   1 0.66379-0.29208-0.59378 0.13963 0.45475-0.94614
  -5  -4  1029136.78 1800.05   1 0.51457-0.88565-0.15201-0.30145 0.84386-0.35318
   5   4  -9 6072.60  728.08   1 0.45091-0.07889-0.49714 0.95067-0.74129 0.29999
   5  -4  -9 5527.63  749.39   1 0.29125 0.08111-0.82609 0.37207 0.48243-0.92465
  -5  -4   9 5262.17  564.96   1 0.57741-0.95044-0.74533 0.29118 0.33327 0.10897
   5  -4  -9 6121.87  721.39   1 0.69308-0.31976-0.51602 0.06183 0.50334-0.94547
  -5  -4   9 4992.93  637.63   1 0.49431-0.86671-0.17051-0.28295 0.85239-0.41078
   5   4  -816995.07 1113.49   1 0.44403-0.07062-0.47343 0.92696-0.76071 0.36844
   5  -4  -817593.94 1202.61   1 0.26311 0.11065-0.80056 0.34653 0.53840-0.93148
  -5  -4   815246.73 1090.13   1 0.58337-0.95771-0.73713 0.28298 0.34103 0.05207
   5  -4  -816941.59 1082.71   1 0.71581-0.34122-0.43434-0.01984 0.54677-0.93977
  -5  -4   818656.54 1199.53   1 0.46993-0.84364-0.19212-0.26134 0.86153-0.46899
   5   4  -734542.24 1531.98   1 0.43432-0.05952-0.44158 0.89511-0.78508 0.44184
   5  -4  -734151.73 1582.15   1 0.23254 0.14260-0.77012 0.31610 0.59399-0.93794
  -5  -4   733554.69 1422.01   1 0.58355-0.95919-0.73688 0.28273 0.34126 0.00270
   5  -4  -733328.34 1494.52   1 0.73245-0.35710-0.34880-0.10483 0.58468-0.92816
  -5  -4   734227.27 1588.84   1 0.44097-0.81600-0.21692-0.23654 0.87091-0.52743
   5   4  -633226.18 1454.96   1 0.42064-0.04445-0.39919 0.85271-0.81467 0.52047
   5  -4  -630017.84 1433.44   1 0.19959 0.17695-0.73449 0.28047 0.64859-0.94340
  -5  -4   627667.73 1184.94   1 0.57979-0.95674-0.74208 0.28793 0.33636-0.04152
   5  -4  -628850.28 1339.73   1 0.74185-0.36521-0.26307-0.19056 0.61679-0.91120
  -5  -4   631811.25 1510.57   1 0.40698-0.78332-0.24490-0.20855 0.87999-0.58558
   5   4  -526965.33 1398.76   1 0.40127-0.02369-0.34299 0.79652-0.84930 0.60414
  -5  -4   520828.98 1095.11   1 0.57310-0.95136-0.75111 0.29696 0.32769-0.08199
   5  -4  -521966.73 1241.54   1 0.74497-0.36703-0.17769-0.27594 0.64299-0.88833
  -5  -4   524532.79 1960.45   1 0.36745-0.74527-0.27614-0.17732 0.88809-0.64274
   5   4  -431842.06 1632.59   1 0.37360 0.00516-0.26860 0.72211-0.88784 0.69175
  -5  -4   440540.52 2052.32   1 0.56405-0.94362-0.76284 0.30869 0.31609-0.11954
   5  -4  -443126.40 2231.08   1 0.74251-0.36341-0.09383-0.35961 0.66322-0.85942
  -5  -4   446958.62 2418.11   1 0.32228-0.70140-0.30997-0.14349 0.89445-0.69817
  -5   4   321051.18 2636.98   1-0.08999-0.29045 0.59425-0.14066-0.79922 0.94649
   5   4  -316045.44 1665.72   1 0.33420 0.04597-0.17079 0.62430-0.92689 0.77983
  -5  -4   313576.10 1416.96   1 0.48082-0.86167-0.86341 0.40917-0.15272 0.30014
  -5  -4   314946.50 1574.33   1 0.55305-0.93382-0.77623 0.32228 0.30264-0.15524
   5  -4  -316632.36 1798.98   1 0.73489-0.35455-0.01371-0.43973 0.67803-0.82518
  -5  -4   318211.98 2336.61   1 0.27121-0.65163-0.34616-0.10730 0.89811-0.75090
  -5   4   2 3924.13  535.18   1-0.05006-0.33197 0.53840-0.08478-0.84119 0.93947
   5   4  -2 3919.26  431.82   1 0.27834 0.10350-0.04389 0.49746-0.95947 0.86128
  -5  -4   2 2298.40  288.27   1 0.48660-0.86882-0.85086 0.39662-0.19808 0.29636
  -5  -4   2 3316.80  468.65   1 0.54028-0.92238-0.79112 0.33717 0.28673-0.18846
   5  -4  -2 3586.53  587.72   1 0.72320-0.34161 0.06190-0.51535 0.68784-0.78594
  -5  -4   2 3097.74  642.44   1 0.21432-0.59604-0.38407-0.06939 0.89808-0.79994
   5  -4  -2 2469.49  253.53   1 0.41859-0.03699-0.23547-0.21798 0.87711-0.97525
  -5   4   165207.86 2239.22   1-0.00965-0.37376 0.47846-0.02484-0.87805 0.92719
   5   4  -157833.13 1881.00   1 0.19978 0.18344 0.11724 0.33632-0.97280 0.92370
  -5  -4   148665.16 1597.00   1 0.49188-0.87546-0.83411 0.37987-0.24961 0.29875
  -5  -4   155596.41 1874.27   1 0.52601-0.90944-0.80673 0.35278 0.26924-0.22010
   5  -4  -155398.78 1919.79   1 0.70841-0.32557 0.13211-0.58557 0.69331-0.74236
   5  -4  -150517.87 1625.85   1-0.06302 0.44672-0.53613 0.08192 0.84177-0.89091
  -5  -4   154036.70 2147.37   1 0.15149-0.53519-0.42317-0.03103 0.89329-0.84415
   5  -4  -157625.82 1854.84   1 0.82203-0.43853 0.24760-0.70138 0.51278-0.56190
  -5   4   029823.35 1114.41   1 0.03048-0.41529 0.41588 0.03773-0.90890 0.90890
   5   4   026283.18  881.65   1 0.09466 0.29005 0.30966 0.14395-0.94612 0.94612
  -5  -4   024214.64  832.16   1 0.49628-0.88122-0.81080 0.35656-0.31032 0.31032
  -5  -4   026073.38  995.75   1 0.51041-0.89517-0.82265 0.36870 0.25042-0.25042
   5  -4   028257.08 1142.18   1 0.69184-0.30793 0.19670-0.65001 0.69473-0.69473
  -5  -4   027177.69 1876.74   1 0.08441-0.46944-0.46185 0.00764 0.88292-0.88292
   5  -4   027640.58  929.17   1 0.85278-0.46793 0.33314-0.78693 0.40220-0.40220
   5   4   143967.60 1450.49   1-0.03489 0.42107 0.51625-0.06262-0.85572 0.90486
  -5   4  -145181.75 1598.23   1 0.06968-0.45576 0.35199 0.10162-0.93340 0.88427
  -5  -4  -149750.80 1615.46   1 0.49869-0.88516-0.77675 0.32235-0.38465 0.33550
  -5  -4  -152220.67 1784.63   1 0.49359-0.87969-0.83859 0.38464 0.23048-0.27962
   5  -4   158843.00 2057.59   1 0.67373-0.28854 0.25457-0.70788 0.69374-0.64469
  -5  -4  -151847.93 1796.77   1 0.01359-0.39995-0.49935 0.04514 0.86628-0.91542
   5  -4   155342.11 1812.73   1 0.86212-0.47592 0.37653-0.83031 0.33906-0.28993
  -5   4  -140095.94 1321.47   1 0.37973-0.76581 0.64503-0.19117-0.66312 0.61399
  -5  -4  -237296.01 1220.78   1 0.49692-0.88476-0.72399 0.26960-0.47843 0.38012
  -5  -4  -236867.73 1341.45   1 0.47568-0.86310-0.85428 0.40033 0.20959-0.30786
   5  -4   238584.23 1460.54   1 0.65523-0.26878 0.30604-0.75935 0.69065-0.59256
  -5  -4  -238456.76 1511.23   1-0.05969-0.32798-0.53461 0.08040 0.84298-0.94125
   5  -4   236501.02 1241.91   1 0.86507-0.47777 0.40079-0.85460 0.30166-0.20342
  -5   4  -231750.01 1056.61   1 0.45118-0.83862 0.65743-0.20357-0.60349 0.50524
  -5   4  -317927.07 2318.92   1 0.14201-0.53082 0.22600 0.22761-0.96371 0.81634
  -5  -4  -312790.38 1313.69   1 0.48487-0.87355-0.63880 0.18516-0.59734 0.45012
  -5  -4  -312363.64 1273.10   1 0.28796-0.67703-0.82324 0.36922 0.48922-0.63662
  -5  -4  -311651.28 1266.62   1 0.45674-0.84550-0.86952 0.41558 0.18787-0.33527
   5  -4   314275.37 1603.70   1 0.63705-0.24933 0.35124-0.80455 0.68614-0.53900
  -5  -4  -315959.13 1988.37   1-0.13389-0.25519-0.56710 0.11310 0.81269-0.96025
   5  -4   313210.06 1386.47   1 0.86609-0.47746 0.41496-0.86877 0.27872-0.13136
  -5   4  -433257.42 1743.75   1 0.17414-0.56431 0.16654 0.28708-0.97053 0.77403
  -5  -4  -438909.17 1929.24   1 0.45634-0.84641-0.51558 0.06193-0.72521 0.52891
  -5  -4  -442875.29 2126.19   1 0.37182-0.76232-0.88232 0.42843 0.28853-0.48508
  -5  -4  -438285.95 2009.08   1 0.43687-0.82696-0.88417 0.43022 0.16545-0.36199
   5  -4   439351.67 2091.33   1 0.62029-0.23082 0.39037-0.84408 0.68032-0.48398
  -5  -4  -437256.78 1966.73   1-0.20789-0.18258-0.59514 0.14114 0.77625-0.97300
   5  -4   440645.62 2066.42   1 0.86637-0.47643 0.42264-0.87646 0.26599-0.06951
  -5   4  -5 6129.36  514.70   1 0.20302-0.59454 0.11092 0.34264-0.97287 0.72739
  -5  -4  -5 4792.17  273.30   1 0.40714-0.79864-0.35960-0.09392-0.83959 0.59442
  -5  -4  -5 5288.14  320.28   1 0.42136-0.81298-0.89724 0.44337 0.13190-0.37746
  -5  -4  -5 4352.03  427.51   1 0.41612-0.80754-0.89808 0.44413 0.14242-0.38809
   5  -4   5 5362.59  571.54   1 0.60429-0.21352 0.42389-0.87760 0.67463-0.42920
   5  -4   5 5862.83  443.38   1 0.86644-0.47517 0.42595-0.87976 0.26045-0.01484
  -5   4  -6 5723.32  741.03   1 0.22877-0.62167 0.05975 0.39380-0.97164 0.67707
  -5  -4  -6 7797.34  904.56   1 0.45044-0.84344-0.89267 0.43879 0.01525-0.30992
  -5  -4  -6 6937.64  882.39   1 0.39390-0.78676-0.91136 0.45772 0.11936-0.41411
   5  -4   6 8455.76 1100.33   1 0.58989-0.19782 0.45217-0.90588 0.66899-0.37448
   5  -4   6 7300.02  907.65   1 0.86644-0.47385 0.42611-0.87992 0.26018 0.03454
   5   4   6 5256.97  684.88   1 0.34777 0.04511 0.63791-0.18405-0.68710 0.98188
  -5   4  -7  662.58  173.52   1 0.25131-0.64559 0.01352 0.44004-0.96781 0.62414
  -5  -4  -7  538.53  130.63   1 0.46791-0.86240-0.88087 0.42663-0.07151-0.27246
  -5  -4  -7  353.53  366.34   1 0.37154-0.76573-0.92351 0.46987 0.09529-0.43916
   5  -4   7  523.89  405.63   1 0.86640-0.47249 0.42389-0.87770 0.26391 0.07992
   5   4   7 1232.97  409.60   1 0.41330-0.01904 0.65149-0.19763-0.63618 0.98009
  -5   4  -828609.51 2068.83   1 0.27078-0.66645-0.02760 0.48117-0.96224 0.56948
  -5  -4  -825203.45 1764.90   1 0.47885-0.87470-0.86684 0.41260-0.13887-0.25425
   5  -4   827604.87 2019.95   1 0.56655-0.17187 0.49473-0.94844 0.65897-0.26628
   5  -4   828279.72 2033.82   1 0.86629-0.47105 0.41978-0.87359 0.27076 0.12220
   5   4   829986.95 2166.81   1 0.47431-0.07868 0.66030-0.20644-0.58225 0.97528
  -5   4  -9 9841.60 1138.72   1 0.28739-0.68444-0.06363 0.51720-0.95569 0.51384
  -5  -4  -910179.78 1061.20   1 0.48617-0.88339-0.85195 0.39771-0.19441-0.24784
  -5  -4  -911420.25  855.07   1 0.32466-0.72152-0.94471 0.49107 0.04598-0.48809
   5  -4   912645.99  886.18   1 0.55778-0.16179 0.50981-0.96352 0.65495-0.21318
   5  -4   912327.17  862.76   1 0.86604-0.46948 0.41413-0.86794 0.28008 0.16200
   5   4   910009.38 1129.63   1 0.53016-0.13343 0.66485-0.21100-0.52619 0.96833
  -5   4 -10 9406.31 1158.89   1 0.30108-0.69967-0.09425 0.54775-0.94892 0.45871
  -5  -4 -1011427.00  974.05   1 0.30019-0.69840-0.95364 0.50001 0.02083-0.51207
   5  -4  1014711.18 1124.77   1 0.55095-0.15366 0.52122-0.97493 0.65174-0.16088
   5  -4  1013221.76  932.74   1 0.86561-0.46772 0.40718-0.86099 0.29141 0.19979
   5   4  10 8493.36 1018.92   1 0.58126-0.18317 0.66505-0.21120-0.46886 0.96012
  -5   4 -1116900.03 1457.58   1 0.31273-0.71273-0.12066 0.57416-0.94214 0.40290
  -5  -4 -1114530.61 1362.16   1 0.27508-0.67462-0.96140 0.50777-0.00459-0.53576
   5  -4  1116905.34 1531.77   1 0.54603-0.14743 0.52928-0.98299 0.64938-0.10943
   5  -4  1115518.05 1389.50   1 0.86491-0.46571 0.39908-0.85290 0.30438 0.23594
   5   4  1116633.33 1455.40   1 0.62732-0.22788 0.66154-0.20769-0.41089 0.95127
  -5   4 -12 2816.42  644.13   1 0.32227-0.72369-0.14270 0.59620-0.93582 0.34757
  -5  -4 -12 2790.48  598.33   1 0.24933-0.65021-0.96794 0.51430-0.03028-0.55920
   5  -4  12 5023.25  982.28   1 0.54296-0.14305 0.53425-0.98796 0.64788-0.05885
   5  -4  12 3520.53  728.25   1 0.86390-0.46338 0.38998-0.84379 0.31872 0.27073
   5   4  12 2451.43  571.74   1 0.66846-0.26755 0.65487-0.20088-0.35255 0.94236
  -5   4 -13 6331.89  749.44   1 0.32994-0.73277-0.16068 0.61418-0.93022 0.29294
  -5  -4 -13 5455.01  801.02   1 0.22268-0.62508-0.97328 0.51914-0.05599-0.58288
   5  -4  13 3633.62  853.29   1 0.54166-0.14045 0.53633-0.99004 0.64725-0.00913
   5  -4  13 6041.97  852.28   1 0.86266-0.46030 0.37999-0.83378 0.33378 0.30483
   5   4  13 7224.14  881.51   1 0.70491-0.30267 0.64513-0.19114-0.29476 0.93372
  -5   4 -14 7675.46  982.41   1 0.33593-0.74018-0.17491 0.62841-0.92550 0.23920
  -5  -4 -14 9988.99 1376.98   1 0.19568-0.59942-0.97721 0.52308-0.08216-0.60586
   5  -4  14 9285.18 1227.94   1 0.54206-0.13954 0.53570-0.98941 0.64744 0.03975
   5  -4  14 9015.98 1117.05   1 0.86086-0.45715 0.36908-0.82287 0.35027 0.33747
   5   4  14 9619.31 1219.43   1 0.73696-0.33338 0.63281-0.17881-0.23756 0.92567
   5   5 -12 3132.06  721.04   1 0.42314-0.05529-0.40674 0.97365-0.80963 0.22122
   5  -5 -12 1834.14  421.43   1 0.60681-0.23772-0.70225 0.13456 0.37229-0.96196
  -5  -5  12 1712.95  419.54   1 0.50722-0.87567-0.15878-0.40804 0.84706-0.25824
   5   5 -11  357.46  345.51   1 0.41817-0.04893-0.39179 0.95870-0.81952 0.28015
   5  -5 -11 1245.71  530.17   1 0.32070 0.04899-0.85027 0.28290 0.41735-0.95789
   5  -5 -11 1122.97  415.69   1 0.64029-0.26988-0.64354 0.07586 0.41936-0.95989
  -5  -5  11   48.56  305.92   1 0.49364-0.86341-0.17111-0.39571 0.85266-0.31291
   5   5 -1016033.16 1180.08   1 0.41144-0.04081-0.37200 0.93891-0.83206 0.34172
   5  -5 -1012883.07  999.47   1 0.29695 0.07402-0.83094 0.26341 0.47048-0.96183
   5  -5 -1013037.79 1001.55   1 0.66920-0.29716-0.58081 0.01307 0.46348-0.95473
  -5  -5  1012971.49  991.28   1 0.47700-0.84808-0.18593-0.38089 0.85901-0.36832
   5   5  -923976.92 2013.37   1 0.40250-0.03048-0.34644 0.91335-0.84732 0.40602
   5  -5  -918821.01 1608.94   1 0.27103 0.10133-0.80800 0.24047 0.52312-0.96534
   5  -5  -921030.23 1788.04   1 0.69334-0.32003-0.51520-0.05253 0.50382-0.94594
  -5  -5   920921.19 1771.35   1 0.45695-0.82935-0.20334-0.36348 0.86593-0.42431
   5   5  -8 1964.51  414.23   1 0.39076-0.01735-0.31397 0.88088-0.86528 0.47301
   5  -5  -8 1746.43  470.87   1 0.24325 0.13050-0.78108 0.21356 0.57508-0.96817
  -5  -5   8 1384.62  262.17   1 0.61909-0.99342-0.68210 0.11441 0.38918 0.00393
   5  -5  -8 1787.96  444.12   1 0.71271-0.33812-0.44727-0.12046 0.54035-0.93336
  -5  -5   8 1685.73  460.32   1 0.43318-0.80689-0.22344-0.34339 0.87317-0.48062
   5   5  -715815.94 1029.44   1 0.37534-0.00082-0.27312 0.84000-0.88573 0.54258
   5  -5  -712657.43  946.10   1 0.21367 0.16147-0.75006 0.18253 0.62589-0.96984
  -5  -5   713233.99  846.70   1 0.61638-0.99203-0.68666 0.11897 0.38542-0.04145
   5  -5  -715054.36 1060.89   1 0.72732-0.35145-0.37790-0.18983 0.57287-0.91675
  -5  -5   717781.35 1188.82   1 0.40532-0.78035-0.24624-0.32059 0.88038-0.53690
  -5   5   616016.55 1012.24   1-0.18402-0.19225 0.71376-0.14678-0.67577 0.97030
   5   5  -615336.83  937.92   1 0.35539 0.02054-0.22235 0.78922-0.90788 0.61375
  -5  -5   615646.87  921.63   1 0.61138-0.98833-0.69492 0.12724 0.37852-0.08369
   5  -5  -615068.09  995.34   1 0.73785-0.36121-0.30703-0.26001 0.60108-0.89549
  -5  -5   615974.73 1275.34   1 0.37304-0.74938-0.27171-0.29511 0.88713-0.59272
  -5   5   514487.63 1122.22   1-0.15138-0.22628 0.67440-0.10741-0.72267 0.96811
   5   5  -514630.01 1093.08   1 0.32951 0.04783-0.15967 0.72655-0.93054 0.68544
  -5  -5   514653.51 1096.28   1 0.60441-0.98267-0.70604 0.13836 0.36902-0.12333
   5  -5  -515585.55 1241.87   1 0.74342-0.36548-0.23756-0.32948 0.62520-0.87055
  -5  -5   514695.37 2023.04   1 0.33597-0.71379-0.29991-0.26692 0.89284-0.64749
  -5   5   4 8126.86 1114.04   1-0.11752-0.26153 0.63115-0.06416-0.76670 0.96305
   5   5  -4 7248.42  610.71   1 0.29609 0.08267-0.08309 0.64996-0.95153 0.75545
  -5  -5   4 5697.17  490.90   1 0.59570-0.97527-0.71934 0.15166 0.35731-0.16076
   5  -5  -4 5023.98  606.07   1 0.74496-0.36572-0.16942-0.39761 0.64523-0.84151
  -5  -5   4 5304.55  830.52   1 0.29402-0.67314-0.33026-0.23657 0.89692-0.70064
  -5   5   3 1931.40  322.38   1-0.08280-0.29764 0.58437-0.01738-0.80725 0.95451
   5   5  -3 1430.71  189.44   1 0.25355 0.12690 0.00883 0.55812-0.96727 0.81999
  -5  -5   3 3907.13  468.05   1 0.58541-0.96629-0.73427 0.16658 0.34370-0.19628
   5  -5  -3 4234.45  588.79   1 0.74307-0.36273-0.10314-0.46367 0.66120-0.80835
  -5  -5   3 4874.47  558.05   1 0.24701-0.62743-0.36259-0.20424 0.89861-0.75140
  -5   5   235027.18 2085.16   1-0.04761-0.33442 0.53485 0.03217-0.84360 0.94187
   5   5  -231583.79 1813.50   1 0.19954 0.18230 0.11770 0.44925-0.97279 0.87460
  -5  -5   230743.77 1830.73   1 0.57366-0.95585-0.75036 0.18267 0.32842-0.23014
   5  -5  -230764.07 1874.38   1 0.73795-0.35635-0.04012-0.52669 0.67365-0.77175
  -5  -5   231511.24 1888.27   1 0.19496-0.57669-0.39641-0.17042 0.89712-0.79898
   5   5  -150768.85 2872.82   1 0.13321 0.25013 0.24190 0.32512-0.96111 0.91198
  -5  -5   149839.04 2872.69   1 0.56056-0.94406-0.76721 0.19952 0.31167-0.26253
   5  -5  -149278.53 2893.22   1 0.73032-0.34747 0.01937-0.58618 0.68282-0.73187
  -5  -5   153147.95 3668.76   1 0.13756-0.52126-0.43146-0.13629 0.89157-0.84244
   5  -5  -146012.92 2580.75   1 0.56436-0.18113-0.10461-0.46238 0.81887-0.86798
   5   5   047138.92 2664.79   1 0.05458 0.33013 0.37699 0.19003-0.92460 0.92460
  -5  -5   057551.69 3313.31   1 0.54609-0.93085-0.78446 0.21702 0.29394-0.29394
   5  -5   052842.85 3065.02   1 0.72076-0.33667 0.07486-0.64168 0.68912-0.68912
  -5  -5   055847.25 4129.52   1 0.07642-0.46144-0.46625-0.10150 0.88134-0.88134
   5  -5   055728.91 3137.84   1 0.71906-0.33380 0.07366-0.64113 0.69102-0.69102
   5   5   1 2007.44  332.28   1-0.03353 0.41971 0.51425 0.05277-0.85698 0.90611
  -5   5  -1 3493.41  539.78   1 0.05576-0.44194 0.37493 0.19209-0.92537 0.87623
  -5  -5  -1 1730.47  392.67   1 0.53049-0.91658-0.80194 0.23450 0.27470-0.32383
   5  -5   1 1804.28  399.85   1 0.70985-0.32451 0.12603-0.69284 0.69298-0.64393
  -5  -5  -1 1199.24  263.16   1 0.01167-0.39802-0.50033-0.06743 0.86575-0.91489
   5  -5   1 1204.94  168.59   1 0.78043-0.39376 0.16637-0.73385 0.60269-0.55353
   5   5   2 1932.77  366.40   1-0.12500 0.51243 0.64091-0.07393-0.75736 0.85553
  -5   5  -2 3007.07  450.23   1 0.08797-0.47541 0.32112 0.24590-0.94294 0.84469
  -5  -5  -2 3627.29  441.13   1 0.51376-0.90118-0.81933 0.25189 0.25444-0.35271
   5  -5   2 3813.88  591.09   1 0.69847-0.31202 0.17298-0.73962 0.69441-0.59632
  -5  -5  -2 3676.42  569.64   1-0.05576-0.33191-0.53281-0.03494 0.84439-0.94266
   5  -5   2 3429.45  332.28   1 0.81120-0.42313 0.22341-0.79089 0.54040-0.44209
  -5   5  -332148.36 2728.70   1 0.11824-0.50704 0.26858 0.29844-0.95597 0.80859
  -5  -5  -323150.53 1321.79   1 0.20798-0.59705-0.74383 0.17630 0.63518-0.78258
  -5  -5  -327023.73 1662.09   1 0.49596-0.88472-0.83642 0.26898 0.23327-0.38067
   5  -5   328928.56 1804.26   1 0.68641-0.29869 0.21499-0.78163 0.69470-0.54756
  -5  -5  -330011.05 2224.46   1-0.12456-0.26451-0.56329-0.00420 0.81681-0.96437
   5  -5   327982.60 1629.61   1 0.82762-0.43873 0.26050-0.82774 0.49716-0.34979
  -5   5  -421148.66 2233.51   1 0.14634-0.53651 0.21812 0.34890-0.96488 0.76838
  -5  -5  -417029.10 1201.02   1 0.28397-0.67443-0.81973 0.25220 0.49738-0.69392
  -5  -5  -417238.12 1327.15   1 0.47715-0.86723-0.85304 0.28560 0.21129-0.40783
   5  -5   419398.00 1525.67   1 0.67445-0.28546 0.25242-0.81906 0.69382-0.49764
  -5  -5  -418648.57 1942.92   1-0.19415-0.19631-0.59024 0.02273 0.78352-0.98027
   5  -5   418254.28 1313.74   1 0.83757-0.44733 0.28565-0.85289 0.46569-0.26919
  -5   5  -523697.15 1867.31   1 0.17208-0.56361 0.17043 0.39659-0.97022 0.72460
  -5  -5  -528824.06 1550.79   1 0.34397-0.73586-0.86648 0.29911 0.36178-0.60748
  -5  -5  -529440.94 1732.30   1 0.45737-0.84879-0.86904 0.30160 0.18859-0.43426
   5  -5   532738.89 1918.51   1 0.66294-0.27269 0.28535-0.85199 0.69215-0.44692
  -5  -5  -528417.47 1619.07   1-0.26301-0.12885-0.61343 0.04592 0.74466-0.99059
   5  -5   531810.02 1770.87   1 0.84353-0.45194 0.30252-0.86976 0.44376-0.19814
  -5   5  -612114.13  856.51   1 0.19521-0.58812 0.12610 0.44086-0.97261 0.67805
  -5  -5  -612115.55  831.57   1 0.43668-0.82942-0.88431 0.31687 0.16523-0.46004
   5  -5   615137.99 1041.03   1 0.65218-0.26065 0.31396-0.88060 0.68998-0.39570
   5  -5   615796.34  977.06   1 0.84708-0.45415 0.31349-0.88072 0.42915-0.13440
   5   5   613149.69  881.52   1 0.32831 0.06458 0.63313-0.06580-0.70096 0.99574
  -5   5  -710780.59  881.97   1 0.21599-0.61027 0.08537 0.48159-0.97265 0.62899
  -5  -5  -7 6907.48  924.71   1 0.41511-0.80918-0.89873 0.33129 0.14130-0.48524
   5  -5   7 8741.24 1082.55   1 0.64239-0.24959 0.33844-0.90508 0.68759-0.34427
   5  -5   7 7821.98  941.26   1 0.84908-0.45480 0.32007-0.88730 0.42023-0.07636
   5   5   7 9366.52 1099.83   1 0.39278 0.00146 0.64767-0.08035-0.65286 0.99676
  -5   5  -8 3425.06  700.56   1 0.23432-0.62999 0.04849 0.51846-0.97094 0.57819
  -5  -5  -8 3760.55  737.35   1 0.39204-0.78757-0.91243 0.34538 0.11733-0.51033
   5  -5   8 4334.47  864.30   1 0.63374-0.23968 0.35899-0.92563 0.68519-0.29282
   5  -5   8 4202.30  764.49   1 0.85002-0.45440 0.32326-0.89050 0.41587-0.02287
   5   5   8 4070.65  761.68   1 0.45377-0.05815 0.65778-0.09046-0.60117 0.99420
  -5   5  -9 4800.31  907.14   1 0.25033-0.64737 0.01557 0.55139-0.96803 0.52618
  -5  -5  -9 4277.80  886.65   1 0.36880-0.76567-0.92490 0.35785 0.09236-0.53448
   5  -5   9 3310.94  693.80   1 0.62635-0.23102 0.37585-0.94249 0.68294-0.24153
   5  -5   9 2736.74  555.67   1 0.85017-0.45319 0.32376-0.89100 0.41518 0.02693
   5   5   9 3760.99  700.52   1 0.51040-0.11367 0.66378-0.09647-0.54668 0.98882
  -5   5 -10 4445.90  954.60   1 0.26413-0.66256-0.01343 0.58039-0.96439 0.47344
  -5  -5 -10 5815.42  693.44   1 0.34479-0.74300-0.93628 0.36923 0.06697-0.55821
   5  -5  10 7080.57  748.39   1 0.62029-0.22369 0.38921-0.95585 0.68098-0.19052
   5  -5  10 6321.31  718.78   1 0.84967-0.45135 0.32205-0.88929 0.41752 0.07372
   5   5  10 4345.00  947.75   1 0.56296-0.16488 0.66544-0.09812-0.49015 0.98141
  -5  -5 -1116044.28 1674.43   1 0.32003-0.71957-0.94651 0.37946 0.04119-0.58156
   5  -5  1118507.64 1953.79   1 0.61632-0.21771 0.39892-0.96605 0.67897-0.13903
   5  -5  1116815.74 1728.79   1 0.84861-0.44895 0.31849-0.88573 0.42238 0.11799
   5   5  1115825.41 1623.20   1 0.61094-0.21150 0.66324-0.09592-0.43226 0.97265
  -5   5 -12 7785.57  993.81   1 0.28577-0.68696-0.06008 0.62704-0.95641 0.36727
  -5  -5 -12 9929.20 1362.70   1 0.29453-0.69541-0.95552 0.38847 0.01506-0.60455
   5  -5  12 9286.57 1235.08   1 0.61305-0.21314 0.40583-0.97297 0.67783-0.08880
   5  -5  12 9083.41 1117.87   1 0.84703-0.44602 0.31334-0.88057 0.42935 0.16014
   5   5  1210791.38 1323.24   1 0.65428-0.25350 0.65751-0.09020-0.37360 0.96311
   5   6 -1014764.88 1749.82   1 0.35830 0.01196-0.22962 0.90987-0.90492 0.41470
   5  -6 -1013543.49 1673.52   1 0.28509 0.08588-0.82072 0.13969 0.49510-0.98646
   5  -6 -1010234.03 1288.56   1 0.66676-0.29505-0.58682-0.09440 0.45941-0.95080
  -5  -6  1010724.34 1326.92   1 0.43235-0.80344-0.22412-0.45607 0.87340-0.38272
   5   6  -9 9279.83  822.06   1 0.34589 0.02579-0.19895 0.87920-0.91693 0.47574
   5  -6  -9 9802.99  909.51   1 0.25984 0.11252-0.79743 0.11640 0.54458-0.98680
   5  -6  -9 9495.03  859.18   1 0.68824-0.31493-0.53044-0.15084 0.49492-0.93705
  -5  -6   910220.08  871.67   1 0.41228-0.78467-0.24062-0.43957 0.87870-0.43709
   5   6  -8 1125.56  337.14   1 0.33041 0.04268-0.16181 0.84206-0.92986 0.53768
   5  -6  -8  763.35  340.06   1 0.70603-0.33144-0.47287-0.20841 0.52716-0.92016
  -5  -6   8 1287.06  508.44   1 0.38876-0.76247-0.25943-0.42076 0.88405-0.49151
   5   6  -7  958.09  251.06   1 0.31127 0.06324-0.11731 0.79757-0.94305 0.59990
   5  -6  -7 2967.94  706.33   1 0.20518 0.16996-0.74073 0.05970 0.63969-0.98363
  -5  -6   7 3292.10  702.19   1 0.62305-0.99869-0.67528-0.00594 0.39471-0.05074
   5  -6  -7 4407.37 1018.66   1 0.72021-0.34435-0.41454-0.26674 0.55627-0.90014
  -5  -6   7 4260.77  926.93   1 0.36148-0.73668-0.28072-0.39948 0.88911-0.54562
  -5   6   617148.78 1279.85   1-0.17770-0.19857 0.70633-0.02594-0.68520 0.97974
   5   6  -613513.97  957.98   1 0.28798 0.08833-0.06493 0.74528-0.95543 0.66086
  -5  -6   615283.15 1068.70   1 0.61864-0.99559-0.68286 0.00163 0.38855-0.09372
   5  -6  -615239.65 1151.06   1 0.73149-0.35485-0.35510-0.32534 0.58207-0.87648
  -5  -6   615072.03 2237.88   1 0.33030-0.70681-0.30409-0.37610 0.89354-0.59912
  -5   6   516086.15 2005.72   1-0.14769-0.22997 0.66981 0.01057-0.72769 0.97313
   5   6  -516752.81 1416.65   1 0.25924 0.11846-0.00308 0.68343-0.96580 0.72033
  -5  -6   513510.95 1153.39   1 0.61258-0.99084-0.69296 0.01174 0.38017-0.13448
   5  -6  -512817.99 1150.77   1 0.73890-0.36097-0.29706-0.38338 0.60478-0.85012
  -5  -6   513434.86 2127.19   1 0.29495-0.67276-0.32960-0.35059 0.89686-0.65151
  -5   6   4  351.13  171.95   1-0.11696-0.26209 0.63041 0.04996-0.76739 0.96374
   5   6  -4  712.31  204.99   1 0.22443 0.15464 0.06849 0.61186-0.97207 0.77570
  -5  -6   4 1794.81  424.71   1 0.60501-0.98458-0.70510 0.02388 0.36984-0.17328
   5  -6  -4 1840.36  436.24   1 0.74329-0.36406-0.24006-0.44038 0.62440-0.82068
  -5  -6   4 2366.09  581.51   1 0.25524-0.63436-0.35705-0.32315 0.89853-0.70225
  -5   6   313599.31 1677.53   1-0.08581-0.29463 0.58851 0.09186-0.80391 0.95118
   5   6  -314497.83 1026.08   1 0.18281 0.19765 0.14992 0.53042-0.97164 0.82436
  -5  -6   317392.78 1262.55   1 0.59602-0.97690-0.71886 0.03763 0.35775-0.21033
   5  -6  -317966.71 1375.49   1 0.74494-0.36441-0.18464-0.49580 0.64106-0.78827
  -5  -6   316798.53 1568.58   1 0.21110-0.59152-0.38614-0.29406 0.89795-0.75074
  -5   6   218425.50 1805.52   1-0.05451-0.32752 0.54481 0.13562-0.83678 0.93505
   5   6  -218407.31 1347.70   1 0.13399 0.24799 0.24050 0.43993-0.96135 0.86310
  -5  -6   218111.63 1297.58   1 0.58570-0.96788-0.73386 0.05264 0.34408-0.24580
   5  -6  -217492.00 1297.23   1 0.74419-0.36237-0.13129-0.54915 0.65493-0.75307
  -5  -6   217667.34 1729.19   1 0.16257-0.54429-0.41647-0.26373 0.89449-0.79635
  -5   6   1 1687.78  297.33   1-0.02349-0.35993 0.49932 0.18110-0.86609 0.91523
   5   6  -1 1553.83  332.09   1 0.07773 0.30562 0.33848 0.34195-0.93775 0.88863
  -5  -6   1 1628.78  368.35   1 0.57409-0.95759-0.74979 0.06856 0.32897-0.27983
   5  -6  -1  898.65  367.12   1 0.74156-0.35872-0.08023-0.59994 0.66606-0.71511
  -5  -6   1  969.40  258.42   1 0.10915-0.49285-0.44795-0.23336 0.88736-0.83823
   5   6   016132.27  993.98   1 0.01484 0.36995 0.44062 0.23980-0.89756 0.89756
  -5   6   017507.68 1596.92   1 0.00694-0.39174 0.45295 0.22748-0.89150 0.89150
  -5  -6   014097.00  985.91   1 0.56126-0.94607-0.76634 0.08511 0.31256-0.31256
   5  -6   015463.45 1126.16   1 0.73710-0.35301-0.03229-0.64787 0.67500-0.67500
  -5  -6   013239.46 1239.66   1 0.05254-0.43757-0.47915-0.20217 0.87615-0.87615
   5   6   1 6273.04 1002.93   1-0.05253 0.43871 0.54196 0.13846-0.83875 0.88789
  -5  -6  -1 8591.27 1499.39   1 0.54714-0.93323-0.78323 0.10231 0.29524-0.34438
   5  -6   1 8365.90 1461.82   1 0.73134-0.34600 0.01248-0.69266 0.68189-0.63284
  -5  -6  -1 6997.12 1259.85   1-0.00739-0.37896-0.50982-0.17149 0.86024-0.90938
  -5  -6  -218529.12 1350.20   1 0.53196-0.91939-0.80034 0.11942 0.27650-0.37477
   5  -6   217206.53 1270.96   1 0.72464-0.33806 0.05392-0.73409 0.68700-0.58890
  -5  -6  -215139.92 1874.88   1-0.06997-0.31770-0.53927-0.14204 0.83921-0.93748
  -5  -6  -314852.76 1173.39   1 0.51569-0.90444-0.81739 0.13647 0.25676-0.40416
   5  -6   316188.53 1196.18   1 0.71736-0.32952 0.09186-0.77204 0.69061-0.54347
  -5  -6  -314401.64 1520.79   1-0.13401-0.25506-0.56715-0.11384 0.81263-0.96019
   5  -6   316230.54 1116.26   1 0.73676-0.34729 0.09841-0.77938 0.66894-0.52148
  -5  -6  -4  654.84  377.54   1 0.49835-0.88844-0.83420 0.15328 0.23609-0.43263
   5  -6   4  840.99  279.72   1 0.70980-0.32071 0.12625-0.80642 0.69299-0.49680
  -5  -6  -4 1250.05  301.78   1-0.19938-0.19109-0.59212-0.08887 0.78079-0.97753
   5  -6   4  820.15  229.41   1 0.76396-0.37309 0.13936-0.82034 0.63002-0.43340
  -5   6  -5 3226.09  716.27   1 0.13981-0.53134 0.22999 0.45044-0.96309 0.71747
  -5  -6  -5 2563.58  560.88   1 0.47999-0.87141-0.85061 0.16969 0.21459-0.46026
   5  -6   5 2755.44  628.56   1 0.70260-0.31234 0.15733-0.83729 0.69397-0.44874
  -5  -6  -5 2580.92  552.78   1-0.26464-0.12722-0.61393-0.06706 0.74367-0.98960
   5  -6   5 2676.55  518.34   1 0.78206-0.38978 0.16916-0.85013 0.59979-0.35402
  -5   6  -6 1532.13  435.80   1 0.16105-0.55394 0.19105 0.48938-0.96827 0.67353
  -5  -6  -6  417.40  281.80   1 0.46064-0.85339-0.86650 0.18557 0.19231-0.48711
   5  -6   6 1005.93  327.89   1 0.69528-0.30376 0.18458-0.86455 0.69462-0.40034
   5  -6   6 1073.66  364.51   1 0.79431-0.40063 0.19084-0.87181 0.57674-0.28182
   5   6   6 1511.12  363.76   1 0.32697 0.06591 0.63279 0.04799-0.70189 0.99667
  -5   6  -7 5374.75 1175.13   1 0.18029-0.57454 0.15491 0.52552-0.97133 0.62746
  -5  -6  -7 5942.77  673.97   1 0.44033-0.83440-0.88172 0.20079 0.16932-0.51326
   5  -6   7 6059.27  709.99   1 0.68841-0.29562 0.20834-0.88831 0.69474-0.35142
   5  -6   7 5481.78 1118.45   1 0.80261-0.40753 0.20640-0.88738 0.55964-0.21556
   5   6   7 6075.45  627.44   1 0.38944 0.00480 0.64701 0.03377-0.65551 0.99941
  -5   6  -8 4942.99  637.14   1 0.19740-0.59307 0.12186 0.55848-0.97271 0.57996
  -5  -6  -8 5533.04  750.76   1 0.41908-0.81449-0.89618 0.21525 0.14568-0.53875
   5  -6   8 5113.26  765.24   1 0.68216-0.28810 0.22871-0.90868 0.69450-0.30213
   5  -6   8 5522.13  669.78   1 0.80813-0.41164 0.21722-0.89819 0.54747-0.15424
   5   6   8 5912.05  694.22   1 0.44922-0.05360 0.65716 0.02362-0.60525 0.99828
  -5   6  -9  412.04  343.57   1 0.21270-0.60975 0.09187 0.58847-0.97278 0.53093
  -5  -6  -9 -206.04  285.68   1 0.39630-0.79317-0.90998 0.22952 0.12196-0.56408
   5  -6   9 -140.78  359.93   1 0.67666-0.28132 0.24578-0.92575 0.69406-0.25264
   5  -6   9 1547.71  569.58   1 0.81160-0.41371 0.22424-0.90521 0.53945-0.09706
   5   6   9  388.46  274.22   1 0.50534-0.10861 0.66343 0.01734-0.55179 0.99393
  -5   7   5 4019.08  572.83   1-0.15217-0.22548 0.67539 0.11838-0.72158 0.96702
   5   7  -5 4415.80  586.00   1 0.19180 0.18590 0.13269 0.66104-0.97242 0.72694
  -5  -7   5 4468.95  623.55   1 0.60874-0.98700-0.69919-0.09556 0.37491-0.12921
   5  -7  -5 5882.56  877.87   1 0.73129-0.35336-0.35638-0.43748 0.58154-0.82688
  -5  -7   5 4497.06  853.36   1 0.24541-0.62322-0.36366-0.42991 0.89862-0.65327
  -5   7   4 3692.07  819.90   1-0.12425-0.25481 0.63993 0.15384-0.75831 0.95467
  -5  -7   4 2783.85  564.86   1 0.60224-0.98181-0.70941-0.08535 0.36610-0.16954
   5  -7  -4 2392.30  605.83   1 0.73775-0.35852-0.30787-0.48598 0.60076-0.79704
  -5  -7   4 1252.45  400.29   1 0.20728-0.58640-0.38859-0.40498 0.89779-0.70151
  -5   7   3  463.28  294.76   1-0.09614-0.28431 0.60262 0.19116-0.79221 0.93948
  -5  -7   3  449.23  272.17   1 0.59443-0.97531-0.72122-0.07353 0.35563-0.20821
   5  -7  -3  228.02  326.54   1 0.74203-0.36150-0.26062-0.53323 0.61762-0.76483
  -5  -7   3  876.74  264.02   1 0.16523-0.54565-0.41485-0.37872 0.89476-0.74754
  -5   7   2 9636.10 1056.82   1-0.06803-0.31400 0.56406 0.22977-0.82292 0.92119
  -5  -7   2 9953.42  839.31   1 0.58536-0.96754-0.73434-0.06041 0.34363-0.24535
   5  -7  -2 9876.33  863.09   1 0.74435-0.36253-0.21496-0.57889 0.63224-0.73037
  -5  -7   2 9113.27 1226.59   1 0.11849-0.50086-0.44259-0.35228 0.88885-0.79058
  -5   7   114547.85 2342.29   1-0.04031-0.34310 0.52421 0.26962-0.85063 0.89976
  -5  -7   116115.27 1660.20   1 0.57506-0.95856-0.74849-0.04626 0.33022-0.28109
   5  -7  -115992.27 1698.81   1 0.74496-0.36185-0.17122-0.62263 0.64475-0.69382
  -5  -7   113231.81 1635.98   1 0.06882-0.45252-0.47040-0.32446 0.87976-0.83062
  -5   7   0 2584.21  676.21   1-0.01317-0.37163 0.48379 0.31004-0.87508 0.87508
  -5  -7   0 4129.15  935.67   1 0.56359-0.94840-0.76341-0.03134 0.31551-0.31551
   5  -7   0 4169.93  943.56   1 0.74413-0.35972-0.12967-0.66418 0.65532-0.65532
  -5  -7   0 4432.78 1079.43   1 0.01570-0.40072-0.49829-0.29658 0.86686-0.86686
  -5   7  -1  629.05  382.16   1 0.01314-0.39932 0.44329 0.35054-0.89628 0.84714
  -5  -7  -1  655.32  290.07   1 0.55087-0.93697-0.77883-0.01557 0.29991-0.34905
   5  -7   1  617.41  375.58   1 0.74228-0.35694-0.09035-0.70318 0.66396-0.61491
  -5  -7  -1  494.67  229.77   1-0.04045-0.34589-0.52571-0.26916 0.84970-0.89883
  -5   7  -2 1197.66  330.59   1 0.03841-0.42597 0.40317 0.39066-0.91431 0.81604
  -5  -7  -2  904.40  328.63   1 0.53711-0.92453-0.79468 0.00027 0.28282-0.38109
   5  -7   2  743.97  388.20   1 0.73932-0.35274-0.05385-0.73969 0.67118-0.57309
  -5  -7  -2  524.25  246.92   1-0.09853-0.28915-0.55234-0.24216 0.82777-0.92614
  -5   7  -3 1360.82  412.94   1 0.06251-0.45132 0.36391 0.42993-0.92933 0.78196
  -5  -7  -3 1054.20  441.82   1 0.52224-0.91100-0.81068 0.01627 0.26467-0.41207
   5  -7   3  585.15  382.53   1 0.73568-0.34784-0.02008-0.77345 0.67702-0.52988
  -5  -7  -3  676.59  197.59   1-0.15908-0.22999-0.57709-0.21741 0.80103-0.94859
  -5   7  -4 5947.87  953.89   1 0.08515-0.47532 0.32591 0.46792-0.94155 0.74505
  -5  -7  -4 6556.23  940.36   1 0.50631-0.89639-0.82665 0.03224 0.24553-0.44207
   5  -7   4 9308.88 1270.13   1 0.73158-0.34249 0.01082-0.80437 0.68166-0.48547
  -5  -7  -4 5719.66  766.83   1-0.22069-0.16978-0.59959-0.19490 0.76926-0.96601
  -5   7  -5  681.01  284.72   1 0.10627-0.49780 0.28957 0.50427-0.95123 0.70561
  -5  -7  -5  491.79  297.39   1 0.48932-0.88074-0.84244 0.04803 0.22547-0.47114
   6   0 -1638110.23 7001.11   1 0.49113-0.05102-0.83696 0.83696-0.24138-0.54486
  -6   0  1631754.79 2215.57   1 0.55237-0.99242-0.11603 0.11603 0.82547-0.04038
   6   0 -15 7883.74  943.67   1 0.48779-0.04632-0.84766 0.84766-0.20860-0.52850
  -6   0  15 6773.10  672.10   1 0.54695-0.98831-0.12132 0.12132 0.82832-0.09230
   6   0 -14 6075.90 1164.75   1 0.48380-0.04096-0.85748 0.85748-0.17508-0.51287
  -6   0  14 5747.63 1010.32   1 0.53806-0.98073-0.12989 0.12989 0.83283-0.14588
   6   0 -13 1825.64  592.65   1 0.47911-0.03491-0.86640 0.86640-0.14069-0.49812
  -6   0  13 3055.10  453.44   1 0.52521-0.96920-0.14208 0.14208 0.83902-0.20113
   6   0 -12 6845.69  917.72   1 0.47367-0.02810-0.87438 0.87438-0.10527-0.48441
  -6   0  12 6551.22  763.55   1 0.50779-0.95309-0.15826 0.15826 0.84681-0.25799
   6   0 -1119223.84 1261.79   1 0.46738-0.02045-0.88138 0.88138-0.06859-0.47195
  -6   0  1118934.84 1167.33   1 0.48505-0.93166-0.17880 0.17880 0.85600-0.31625
   6   0 -1057333.97 2511.85   1 0.46001-0.01216-0.88739 0.88739-0.03027-0.46084
  -6   0  1053943.48 2292.45   1 0.45614-0.90407-0.20404 0.20404 0.86619-0.37551
   6   0  -939720.20 2143.30   1 0.45165-0.00243-0.89213 0.89213 0.00974-0.45175
  -6   0   935301.80 1807.53   1 0.42014-0.86938-0.23421 0.23421 0.87671-0.43509
   6   0  -836120.26 1404.41   1 0.44198 0.00861-0.89550 0.89550 0.05206-0.44495
  -6   0   831884.34 1135.74   1 0.37612-0.82668-0.26932 0.26932 0.88656-0.49401
   6   0  -711483.14  651.98   1 0.43070 0.02128-0.89724 0.89724 0.09724-0.44102
  -6   0   710865.74  938.11   1 0.32302-0.77509-0.30943 0.30943 0.89437-0.55088
   6   0  -632711.67 1224.81   1 0.41738 0.03598-0.89691 0.89691 0.14606-0.44073
   6   0  -626648.78 1745.70   1 0.41278 0.04094-0.90019 0.90019 0.13874-0.43355
   6   0  -627712.55 1814.38   1 0.74480-0.29138-0.14607 0.14607 0.65109-0.94538
  -6   0   629127.39 1961.62   1 0.26114-0.71451-0.35305 0.35305 0.89841-0.60399
   6   0  -510168.98  804.17   1 0.40142 0.05332-0.89389 0.89389 0.19953-0.44509
   6   0  -5 7891.33  543.70   1 0.31110 0.14400-0.94983 0.94983 0.03199-0.27761
   6   0  -5 8638.33  595.20   1 0.66732-0.21297 0.27313-0.27313 0.69287-0.93810
  -6   0   5 9654.65 1064.58   1 0.19040-0.64508-0.39928 0.39928 0.89683-0.65148
   6   0  -4123218.9 4227.15   1 0.38213 0.07425-0.88702 0.88702 0.25916-0.45572
   6   0  -4107365.3 3638.48   1 0.26357 0.19286-0.96450 0.96450-0.01612-0.18037
   6   0  -4116069.5 3916.54   1 0.55091-0.09504 0.52129-0.52129 0.65172-0.84806
  -6   0   4120023.9 4095.78   1 0.11136-0.56808-0.44669 0.44669 0.88773-0.69118
   6   0  -3107299.1 2946.90   1-0.02577 0.48339 0.50272-0.50272-0.86405 0.71665
   6   0  -3118695.3 3295.93   1 0.35777 0.10000-0.87486 0.87486 0.32651-0.47393
  -6   0   3105060.9 2881.87   1-0.44363-0.01440-0.67203 0.67203-0.59291 0.74037
   6   0  -399248.74 2748.35   1 0.23984 0.21793-0.97000 0.97000-0.03964-0.10772
  -6   0   3104781.6 2937.86   1 0.02721-0.48526-0.49241 0.49241 0.86993-0.72253
   6   0  -2 2922.91  389.57   1 0.04354 0.41546 0.39488-0.39488-0.91769 0.81942
   6   0  -2 3970.20  252.85   1 0.32654 0.13262-0.85456 0.85456 0.40385-0.50213
  -6   0   2 3522.72  537.60   1-0.35493-0.10443-0.76588 0.76588-0.53612 0.63443
   6   0  -2 3284.82  197.87   1 0.22966 0.22967-0.97202 0.97202-0.04916-0.04912
  -6   0   2 5255.62  390.07   1-0.05988-0.39949-0.53470 0.53470 0.84291-0.74464
   6   0  -1 4053.22  287.97   1 0.13029 0.33000 0.24713-0.24713-0.96017 0.91105
   6   0  -1 4021.24  225.29   1 0.28558 0.17489-0.82115 0.82115 0.49410-0.54324
  -6   0   1 4172.64  658.77   1-0.28468-0.17557-0.82583 0.82583-0.48677 0.53588
   6   0  -1 4060.48  222.92   1 0.22748 0.23318-0.97242 0.97242-0.05130 0.00215
  -6   0   1 3690.55  420.38   1-0.14669-0.31380-0.57223 0.57223 0.80686-0.75767
   6   0   0 1450.92  117.67   1 0.23076 0.23076 0.05572-0.05572-0.97141 0.97141
   6   0   0 1366.12  136.79   1 0.23093 0.23093-0.76844 0.76844 0.59679-0.59679
  -6   0   0 1456.10  244.75   1-0.23078-0.23078-0.86418 0.86418-0.44712 0.44712
   6   0   0 1126.90  142.18   1 0.23100 0.23100-0.97177 0.97177-0.04785 0.04785
  -6   0   0 1762.51  232.77   1-0.23094-0.23094-0.60307 0.60307 0.76352-0.76352
  -6   0  -1 4981.68  210.63   1-0.15849-0.30446 0.68319-0.68319-0.71283 0.66374
   6   0   1 4746.20  202.92   1 0.33231 0.13041-0.16630 0.16630-0.92839 0.97741
  -6   0  -1 5938.58  780.91   1-0.18992-0.27297-0.88931 0.88931-0.41599 0.36688
   6   0   1 5475.76  380.93   1 0.30983 0.15318 0.62829-0.62829-0.71361 0.76274
  -6   0  -295774.29 2626.75   1-0.06870-0.39581 0.56501-0.56501-0.82221 0.72394
   6   0   291215.33 2498.74   1 0.41634 0.04789-0.38634 0.38634-0.82304 0.92110
  -6   0  -2103019.9 2927.89   1-0.15950-0.30470-0.90592 0.90592-0.39224 0.29403
   6   0   299066.78 2798.16   1 0.38244 0.08193 0.64559-0.64559-0.66101 0.75926
  -6   0  -3 6810.33  500.74   1 0.03153-0.49743 0.41421-0.41421-0.90963 0.76222
   6   0   3 5713.03  232.30   1 0.46978-0.00420-0.56789 0.56789-0.67586 0.82308
  -6   0  -3 7855.03  517.95   1-0.13749-0.32816-0.91681 0.91681-0.37490 0.22751
   6   0   3 5484.87  350.29   1 0.44805 0.01768 0.65700-0.65700-0.60629 0.75368
  -6   0  -4 3289.30  426.88   1 0.12882-0.59593 0.24977-0.24977-0.95969 0.76319
   6   0   4 2684.77  220.85   1 0.49408-0.02645-0.69622 0.69622-0.52072 0.71733
  -6   0  -4 3932.75  666.41   1-0.12223-0.34475-0.92387 0.92387-0.36264 0.16613
   6   0   4 2176.40  256.33   1 0.50653-0.03962 0.66352-0.66352-0.55060 0.74710
  -6   0  -5141370.5 4767.77   1 0.21124-0.67968 0.09478-0.09478-0.97282 0.72735
   6   0   5127400.8 4308.23   1 0.49865-0.02965-0.77847 0.77847-0.38120 0.62697
  -6   0  -5149487.4 5422.18   1-0.11250-0.35582-0.92815 0.92815-0.35477 0.10912
   6   0   5143418.0 4906.51   1 0.55839-0.09013 0.66545-0.66545-0.49534 0.74097
  -6   0  -672946.63 2357.53   1 0.27508-0.74491-0.03684 0.03684-0.96071 0.66614
   6   0   666439.45 2165.02   1 0.49311-0.02299-0.82892 0.82892-0.26403 0.55888
  -6   0  -679229.50 2716.26   1-0.10731-0.36234-0.93037 0.93037-0.35055 0.05577
   6   0   672522.30 2428.54   1 0.60408-0.13447 0.66380-0.66380-0.44096 0.73571
  -6   0  -726639.96  943.35   1 0.32137-0.79260-0.14060 0.14060-0.93645 0.59330
   6   0   723137.83  839.76   1 0.48268-0.01120-0.85982 0.85982-0.16648 0.51047
  -6   0  -727988.55 1419.66   1-0.10591-0.36507-0.93096 0.93096-0.34941 0.00550
   6   0   726140.05 1065.52   1 0.64422-0.17326 0.65920-0.65920-0.38784 0.73172
  -6   0  -843555.31 1461.48   1 0.35478-0.82743-0.22084 0.22084-0.90848 0.51631
  -6   0  -845525.03 1976.12   1-0.10771-0.36461-0.93020 0.93020-0.35087-0.04215
   6   0   841241.77 1486.58   1 0.67939-0.20687 0.65236-0.65236-0.33591 0.72912
  -6   0  -9 8628.86  538.04   1 0.37841-0.85247-0.28118 0.28118-0.88189 0.44069
  -6   0  -9 8060.13 1069.54   1-0.11223-0.36142-0.92827 0.92827-0.35455-0.08761
   6   0   9 7979.25  637.80   1 0.71020-0.23634 0.64337-0.64337-0.28579 0.72815
  -6   0 -1056774.49 2394.65   1 0.39520-0.87058-0.32613 0.32613-0.85874 0.36840
  -6   0 -1065948.53 3891.87   1-0.11909-0.35589-0.92527 0.92527-0.36011-0.13118
   6   0  1060163.46 2643.09   1 0.73714-0.26195 0.63272-0.63272-0.23721 0.72872
  -6   0 -1154689.58 3807.09   1 0.40687-0.88364-0.35884 0.35884-0.84004 0.30067
  -6   0 -1161821.39 4904.22   1-0.12800-0.34831-0.92125 0.92125-0.36729-0.17312
   6   0  1151714.22 3690.81   1 0.76067-0.28413 0.62067-0.62067-0.19011 0.73077
  -6   0 -12 2953.95  395.91   1 0.41493-0.89309-0.38221 0.38221-0.82567 0.23726
  -6   0 -12 4484.80  833.36   1-0.13872-0.33893-0.91622 0.91622-0.37588-0.21367
   6   0  12 3440.55  477.90   1 0.78115-0.30328 0.60740-0.60740-0.14440 0.73421
  -6   0 -13 1187.76  355.20   1 0.42032-0.89987-0.39822 0.39822-0.81531 0.17787
  -6   0 -13 1979.03  578.13   1-0.15095-0.32776-0.91027 0.91027-0.38548-0.25290
   6   0  13 1291.98  312.36   1 0.79877-0.31991 0.59325-0.59325-0.10000 0.73871
  -6   0 -14 2548.99  488.49   1 0.42367-0.90461-0.40837 0.40836-0.80853 0.12206
  -6   0 -14 4295.25  931.59   1-0.16470-0.31533-0.90320 0.90320-0.39633-0.29116
   6   0  14 2749.58  606.44   1 0.81406-0.33387 0.57799-0.57799-0.05676 0.74461
  -6   0 -15  356.52  312.54   1 0.42542-0.90775-0.41371 0.41371-0.80489 0.06938
  -6   0 -15  222.23  221.33   1-0.17976-0.30159-0.89505 0.89505-0.40811-0.32849
  -6   0 -16 5517.44  669.88   1 0.42586-0.90958-0.41505 0.41505-0.80396 0.01942
  -6   0 -16 5227.31 1031.95   1-0.19602-0.28665-0.88577 0.88576-0.42069-0.36502
   6   0  16 7317.11  919.32   1 0.83806-0.35523 0.54492-0.54492 0.02658 0.75952
   6   1 -16 2473.45  684.72   1 0.49821-0.05814-0.78891 0.90250-0.35972-0.42672
   6  -1 -16 1583.75  642.46   1 0.47778-0.03766-0.86856 0.75500-0.13161-0.65463
  -6  -1  16 1085.82  395.72   1 0.55927-0.99931-0.10925-0.00410 0.82175-0.03666
   6   1 -1517841.51 1849.65   1 0.49737-0.05592-0.80022 0.91382-0.33505-0.40224
   6  -1 -1519352.12 1993.90   1 0.47147-0.03000-0.87706 0.76350-0.09200-0.64510
  -6  -1  1516744.45 1670.70   1 0.55474-0.99610-0.11372 0.00035 0.82421-0.08819
  -6   1  1515571.93 1526.57   1 0.51768-0.95904-0.14912 0.26248 0.84247-0.10645
   6   1 -14 7487.42 1325.31   1 0.49618-0.05335-0.81080 0.92440-0.31048-0.37766
   6  -1 -14 2432.42  604.17   1 0.46416-0.02132-0.88427 0.77071-0.05113-0.63682
  -6   1  14 6989.04 1191.02   1 0.50563-0.94830-0.16023 0.27360 0.84773-0.16078
  -6  -1  14 1834.02  400.21   1 0.54727-0.98995-0.12100 0.00764 0.82815-0.14120
   6   1 -13 5347.88  979.34   1 0.49475-0.05054-0.82069 0.93425-0.28581-0.35301
   6  -1 -13 6487.15 1134.55   1 0.45559-0.01189-0.89014 0.77667-0.00866-0.62978
  -6   1  13 4552.93  781.71   1 0.48840-0.93239-0.17581 0.28918 0.85472-0.21683
  -6  -1  13 6723.15 1146.37   1 0.53650-0.98049-0.13138 0.01801 0.83360-0.19572
   6   1 -1279154.68 4331.96   1 0.49290-0.04733-0.82986 0.94342-0.26148-0.32819
   6  -1 -1280265.82 4405.71   1 0.44592-0.00083-0.89437 0.78090 0.03530-0.62464
  -6   1  1271993.66 3843.82   1 0.46506-0.91036-0.19635 0.30972 0.86322-0.27440
  -6  -1  1277756.08 4179.13   1 0.52198-0.96728-0.14511 0.03174 0.84052-0.25170
   6   1 -1122087.13 1733.59   1 0.49075-0.04382-0.83835 0.95191-0.23732-0.30321
   6  -1 -1121614.88 1688.70   1 0.43482 0.01164-0.89684 0.78337 0.08120-0.62143
  -6   1  1119717.45 1412.50   1 0.43451-0.88112-0.22233 0.33569 0.87279-0.33304
  -6  -1  1120111.38 1490.03   1 0.50316-0.94978-0.16249 0.04912 0.84877-0.30902
   6   1 -10 4492.97  746.36   1 0.48831-0.04002-0.84617 0.95973-0.21337-0.27803
   6  -1 -10 6029.41  912.70   1 0.42207 0.02576-0.89728 0.78381 0.12933-0.62045
   6  -1 -10 4565.81  524.94   1 0.34706 0.10135-0.93527 0.82186 0.06935-0.56059
  -6   1  10 4614.65  589.03   1 0.39547-0.84340-0.25411 0.36748 0.88262-0.39194
  -6  -1  10 3990.78  588.74   1 0.47945-0.92738-0.18377 0.07040 0.85810-0.36742
   6   1  -923776.12 1401.39   1 0.48561-0.03595-0.85334 0.96690-0.18968-0.25258
   6  -1  -920100.69 1239.67   1 0.40740 0.04181-0.89532 0.78185 0.18005-0.62205
   6  -1  -914534.16  732.41   1-0.15503 0.60469-0.90816 0.79466-0.38884-0.05332
   6  -1  -915688.07  797.54   1 0.54304-0.09330-0.78797 0.67448 0.29015-0.73236
  -6   1   922350.32 1440.79   1 0.34620-0.79567-0.29228 0.40565 0.89146-0.44983
  -6  -1   917672.18 1005.29   1 0.45016-0.89940-0.20915 0.09578 0.86810-0.42649
   6   1  -845275.04 1642.30   1 0.48266-0.03164-0.85986 0.97342-0.16632-0.22680
   6  -1  -838875.60 1447.70   1 0.39072 0.06012-0.89036 0.77689 0.23364-0.62675
   6  -1  -830212.28  989.31   1-0.15808 0.60908-0.90660 0.79310-0.39125-0.00178
   6  -1  -835177.59 1165.08   1 0.66999-0.21844-0.57889 0.46534 0.46474-0.85775
  -6   1   845258.32 1569.59   1 0.28655-0.73732-0.33551 0.44888 0.89739-0.50483
  -6  -1   835008.93 1275.51   1 0.41459-0.86515-0.23874 0.12537 0.87813-0.48558
   6   1  -7132807.2 4351.99   1 0.47950-0.02712-0.86574 0.97930-0.14340-0.20058
   6  -1  -7146344.0 4753.23   1 0.37102 0.08120-0.88193 0.76846 0.29074-0.63472
   6  -1  -7120025.5 3813.47   1-0.14995 0.60229-0.91072 0.79722-0.38482 0.04092
   6  -1  -7131414.8 4178.79   1 0.73419-0.28196-0.33662 0.22321 0.58961-0.93309
  -6   1   7131779.7 4215.56   1 0.21554-0.66761-0.38328 0.49665 0.89812-0.55463
  -6  -1   7137543.1 4457.26   1 0.37210-0.82398-0.27244 0.15907 0.88730-0.54382
   6  -1  -7114810.1 3668.60   1 0.82241-0.37002 0.24845-0.36190 0.51175-0.85563
   6   1  -640595.68 1465.50   1 0.47617-0.02242-0.87097 0.98453-0.12108-0.17376
   6  -1  -656851.69 1944.65   1 0.34800 0.10561-0.86903 0.75555 0.35167-0.64651
   6  -1  -646695.37 1513.77   1-0.13528 0.58894-0.91786 0.80436-0.37313 0.07835
   6  -1  -650679.03 1656.26   1 0.74263-0.28921-0.09577-0.01759 0.66281-0.95710
  -6   1   640980.49 1380.60   1 0.13295-0.58701-0.43418 0.54773 0.89095-0.59614
  -6  -1   652956.37 1789.09   1 0.32197-0.77535-0.31020 0.19683 0.89448-0.60006
   6  -1  -648579.67 1594.03   1 0.77439-0.32049 0.15623-0.26973 0.61311-0.90803
   6   1  -514560.55 1041.46   1 0.47274-0.01763-0.87555 0.98911-0.09960-0.14610
   6  -1  -515937.07 1154.01   1 0.32095 0.13405-0.85045 0.73698 0.41678-0.66248
   6  -1  -512349.57  830.97   1-0.11636 0.57136-0.92647 0.81297-0.35790 0.11225
   6   1  -516133.49 1064.59   1 0.71091-0.25554-0.45443 0.56798 0.53673-0.78236
   6  -1  -514634.29 1011.02   1 0.71118-0.25651 0.12024-0.23360 0.69264-0.93788
  -6  -1   515201.72 1541.97   1 0.26453-0.71921-0.35074 0.23737 0.89833-0.65298
   6  -1  -514774.66 1003.97   1 0.70367-0.24904 0.05293-0.16633 0.70854-0.95410
   6   1  -426739.32 1764.52   1-0.18410 0.64009 0.71386-0.60046-0.67565 0.47929
   6   1  -426796.52 1823.40   1 0.46930-0.01282-0.87946 0.99302-0.07935-0.11720
   6  -1  -434280.99 1278.77   1 0.28919 0.16711-0.82430 0.71080 0.48670-0.68325
  -6  -1   433693.73 1206.79   1-0.29261-0.16368-0.81966 0.70613-0.49246 0.68889
   6  -1  -431077.19 2052.16   1-0.09459 0.55092-0.93560 0.82210-0.34015 0.14363
   6   1  -428893.59 1900.56   1 0.62248-0.16594-0.67627 0.78981 0.39391-0.59046
   6  -1  -435025.99 1250.47   1 0.65678-0.20116 0.30198-0.41531 0.69097-0.88715
  -6   1   430049.45 1998.09   1-0.05318-0.40353-0.53163 0.64518 0.84530-0.64876
  -6  -1   436029.56 1323.17   1 0.19976-0.65575-0.39338 0.28001 0.89740-0.70112
   6  -1  -432941.60 1162.87   1 0.61057-0.15456-0.05682-0.05657 0.78991-0.98636
   6   1  -312563.97  871.62   1-0.13532 0.59270 0.65419-0.54079-0.74412 0.59685
   6   1  -312901.40  921.06   1 0.46601-0.00817-0.88266 0.99622-0.06104-0.08637
   6  -1  -312865.80  928.47   1 0.25139 0.20630-0.78920 0.67570 0.56031-0.70771
  -6  -1   312028.99  844.06   1-0.17351-0.28410-0.89849 0.78495-0.40324 0.55056
   6  -1  -311443.64  780.45   1-0.07083 0.52850-0.94458 0.83108-0.32052 0.17313
   6   1  -313131.10  891.69   1 0.55698-0.09914-0.77164 0.88518 0.30714-0.45455
   6  -1  -312038.79  835.88   1 0.59298-0.13580 0.44625-0.55968 0.67024-0.81750
  -6   1   313189.25 1050.63   1-0.14907-0.30862-0.57317 0.68667 0.80575-0.65819
  -6  -1   313241.42 1341.38   1 0.12803-0.58608-0.43706 0.32350 0.89027-0.74286
   6  -1  -311653.81  792.47   1 0.49895-0.04183-0.16631 0.05295 0.85051-0.99772
   6   1  -251469.85 1425.88   1-0.06055 0.51955 0.55345-0.44004-0.83067 0.73240
   6  -1  -253564.12 1558.35   1 0.20685 0.25223-0.74258 0.62907 0.63701-0.73528
   6  -1  -252182.34 1497.52   1-0.04571 0.50471-0.95301 0.83951-0.29946 0.20120
  -6  -1   262471.18 1805.83   1-0.09586-0.36313-0.93509 0.82159-0.34119 0.43945
   6   1  -248444.91 1387.15   1 0.51106-0.05200-0.82201 0.93549 0.25121-0.34948
   6  -1  -261490.76 1746.88   1 0.52870-0.07022 0.55665-0.67008 0.64078-0.73895
  -6   1   252112.10 1488.10   1-0.24184-0.21725-0.60668 0.72018 0.75726-0.65889
  -6  -1   258900.87 1712.13   1 0.05170-0.51108-0.47959 0.36604 0.87596-0.77769
   6  -1  -255368.75 1567.38   1 0.37706 0.08137-0.26859 0.15523 0.88638-0.98452
  -6   1   1126005.3 3462.03   1-0.15564-0.30452 0.67968-0.56628-0.71679 0.76588
   6  -1  -1115548.7 3177.37   1 0.18093 0.27936 0.15368-0.26709-0.97141 0.92228
  -6   1   1110909.7 3076.63   1-0.46962 0.00890-0.63988 0.75345-0.60827 0.65743
  -6  -1   1133776.2 3690.67   1-0.04337-0.41695-0.95373 0.84023-0.29749 0.34662
   6   1  -1105243.1 2921.95   1 0.47943-0.01904-0.85109 0.96458 0.21394-0.26307
  -6  -1   1134056.4 3815.17   1-0.02779-0.43290-0.51971 0.40616 0.85388-0.80475
   6  -1  -1120577.0 3317.43   1 0.25422 0.20567-0.35774 0.24437 0.89854-0.94761
   6  -1  -1137107.5 3774.26   1 0.32795 0.13233 0.63304-0.74650-0.70121 0.65208
  -6   1   023184.76  730.20   1-0.09652-0.36503 0.60314-0.48975-0.79176 0.79176
   6   1   023374.54  655.35   1 0.23124 0.23029 0.05476 0.05862-0.97135 0.97135
   6  -1   025709.49  779.01   1 0.24913 0.21240 0.01805-0.13145-0.96830 0.96830
   6   1   018781.34  565.28   1 0.46244-0.00079-0.88561 0.99908-0.04269 0.04269
  -6   1   023884.00  768.78   1-0.41755-0.04449-0.70203 0.81561-0.57687 0.57687
  -6  -1   025099.57  867.50   1-0.00788-0.45378-0.96361 0.85011-0.26719 0.26719
   6   1   018090.08  605.39   1 0.45824 0.00347-0.86837 0.98185 0.18958-0.18958
  -6  -1   024273.01  801.75   1-0.10815-0.35373-0.55644 0.44294 0.82381-0.82381
   6  -1   024288.77  774.57   1 0.40450 0.05714 0.64990-0.76337-0.64342 0.64342
  -6   1  -185742.85 2443.07   1-0.03170-0.43143 0.51154-0.39813-0.85867 0.80953
   6  -1   179636.39 2213.01   1 0.31602 0.14670-0.12822 0.01484-0.94004 0.98906
   6   1   175674.03 2048.93   1 0.44483 0.01796-0.47516 0.58857-0.75917 0.80824
   6   1   175422.32 2050.68   1 0.47342-0.01039-0.87462 0.98809-0.10436 0.15347
  -6   1  -185770.31 2467.06   1-0.37342-0.08997-0.74816 0.86173-0.54846 0.49930
  -6  -1  -190102.42 2663.14   1 0.01569-0.47869-0.96895 0.85545-0.24673 0.19760
  -6  -1  -179253.38 2274.43   1-0.18767-0.27560-0.58787 0.47437 0.78688-0.83606
   6  -1   184162.78 2376.57   1 0.47179-0.00877 0.66002-0.77348-0.58462 0.63374
  -6   1  -270987.11 1986.87   1 0.03597-0.50049 0.40710-0.29369-0.91267 0.81440
   6  -1   267849.34 1896.54   1 0.37603 0.08811-0.27493 0.16155-0.88487 0.98292
  -6   1  -267612.29 1985.16   1-0.33699-0.12773-0.78225 0.89583-0.52393 0.42562
  -6  -1  -277284.35 2428.62   1 0.03056-0.49489-0.97182 0.85833-0.23369 0.13543
  -6  -1  -267485.77 1963.60   1-0.26418-0.20048-0.61379 0.50029 0.74395-0.84232
   6  -1   275350.09 2152.21   1 0.53023-0.06602 0.66486-0.77832-0.52612 0.62438
  -6   1  -3 5133.80  688.07   1 0.10257-0.56832 0.29601-0.18260-0.94966 0.80228
   6  -1   3 6014.37  440.17   1 0.42458 0.04104-0.41113 0.29774-0.80665 0.95376
  -6   1  -3 6153.45 1030.91   1-0.30764-0.15788-0.80758 0.92111-0.50314 0.35582
  -6  -1  -3 8191.48  988.06   1 0.03887-0.50454-0.97326 0.85976-0.22636 0.07897
   6  -1   3 6478.08  571.14   1 0.58066-0.11511 0.66508-0.77854-0.46956 0.61694
   6   1   3 5983.07  609.62   1 0.33554 0.13020 0.63494-0.52148-0.69588 0.84327
  -6  -1  -417968.21 1171.97   1-0.13049-0.33664 0.64800-0.76139-0.75037 0.55402
  -6   1  -419786.50 1655.09   1 0.16397-0.63108 0.18562-0.07221-0.96884 0.77234
   6  -1   416370.30 1101.41   1 0.45991 0.00705-0.52885 0.41544-0.71329 0.90958
   6   1   416494.58 1077.72   1 0.32952 0.13790-0.85629 0.96980 0.39769-0.20115
  -6   1  -418698.44 1311.64   1-0.28460-0.18224-0.82589 0.93942-0.48672 0.29029
  -6  -1  -419272.23 1349.67   1 0.04209-0.50908-0.97379 0.86029-0.22351 0.02699
   6  -1   418104.83 1263.12   1 0.62414-0.15723 0.66191-0.77537-0.41510 0.61161
   6   1   419594.82 1367.77   1 0.40233 0.06477 0.64950-0.53603-0.64518 0.84170
  -6   1  -524911.08 1679.54   1 0.21738-0.68582 0.08260 0.03079-0.97258 0.72711
   6  -1   525938.47 1731.33   1 0.48229-0.01393-0.62516 0.51175-0.61365 0.85902
   6   1   521325.87 1404.08   1 0.36641 0.10246-0.87958 0.99306 0.30342-0.05772
  -6   1  -526780.77 1832.44   1-0.26709-0.20107-0.83902 0.95255-0.47402 0.22848
  -6  -1  -533314.65 1496.42   1 0.04125-0.50957-0.97365 0.86015-0.22426-0.02138
   6  -1   530701.33 2096.05   1 0.66166-0.19316 0.65627-0.76977-0.36263 0.60838
   6   1   526416.94 1829.46   1 0.46339 0.00507 0.65902-0.54556-0.59241 0.83805
  -6  -1  -669374.82 2215.71   1 0.26824-0.73807-0.02217-0.09121-0.96309 0.66852
  -6   1  -670443.25 2308.41   1 0.26197-0.73179-0.00885 0.12224-0.96503 0.67046
   6   1   656020.51 1805.93   1 0.37016 0.10009-0.88150 0.99497 0.29313 0.00169
  -6  -1  -674934.23 2647.82   1 0.03712-0.50678-0.97297 0.85947-0.22791-0.06686
   6  -1   671443.30 2416.67   1 0.69407-0.22423 0.64845-0.76195-0.31266 0.60757
   6   1   667904.81 2301.78   1 0.51847-0.04886 0.66428-0.55082-0.53843 0.83318
  -6   1  -725032.37  910.32   1 0.29747-0.76870-0.08616 0.19954-0.95083 0.60768
  -6  -1  -727375.95  919.85   1 0.34165-0.81287-0.18866 0.07528-0.92069 0.57754
   6   1   720631.17 2116.14   1 0.36746 0.10417-0.88013 0.99360 0.30054 0.04343
  -6   1  -723670.26 1202.57   1-0.24585-0.22495-0.85407 0.96760-0.45838 0.11462
   6  -1   728447.86 1162.16   1 0.72217-0.25099 0.63900-0.75250-0.26482 0.60888
   6   1   722818.65 1270.15   1 0.56804-0.09708 0.66538-0.55192-0.48433 0.82822
  -6   1  -8  264.25  198.92   1 0.32569-0.79834-0.15070 0.26407-0.93338 0.54121
  -6  -1  -8 1652.55  176.23   1 0.38405-0.85669-0.29609 0.18271-0.87454 0.48237
   6   1   8  163.87   92.41   1 0.36210 0.11093-0.87728 0.99075 0.31504 0.07807
  -6   1  -8  221.10  119.46   1-0.24095-0.23117-0.85741 0.97094-0.45473 0.06187
  -6  -1  -8 1180.52  205.23   1 0.02113-0.49345-0.97005 0.85655-0.24198-0.15105
   6  -1   8 1619.93  282.21   1 0.74657-0.27406 0.62824-0.74174-0.21892 0.61213
   6   1   8  475.40  308.74   1 0.61227-0.13996 0.66312-0.54966-0.43056 0.82357
  -6  -1  -9 1193.53  191.22   1 0.40953-0.88351-0.36646 0.25308-0.83545 0.39415
   6   1   9 1494.89  225.45   1 0.35522 0.11919-0.87338 0.98686 0.33318 0.10907
  -6   1  -9 1678.08  329.16   1-0.23921-0.23422-0.85858 0.97211-0.45344 0.01147
  -6  -1  -9 3392.05  736.83   1 0.01002-0.48368-0.96775 0.85426-0.25167-0.19048
   6  -1   9 1776.30  390.14   1 0.76779-0.29394 0.61639-0.72989-0.17477 0.61713
   6   1   9 1248.67  264.42   1 0.65154-0.17789 0.65799-0.54453-0.37751 0.81965
  -6   1 -10 9665.83  787.30   1 0.36422-0.83969-0.24453 0.35790-0.89863 0.40841
  -6  -1 -10 8930.04  678.21   1 0.42517-0.90054-0.41294 0.29955-0.80542 0.31508
  -6   1 -1010451.68 1493.25   1-0.24025-0.23450-0.85788 0.97141-0.45421-0.03685
  -6  -1 -1010358.32 1294.46   1-0.00277-0.47221-0.96484 0.85135-0.26278-0.22850
   6  -1  10 9518.90  829.51   1 0.78612-0.31123 0.60376-0.71720-0.13217 0.62349
   6   1  10 8917.91  838.80   1 0.68627-0.21107 0.65061-0.53711-0.32516 0.81667
  -6   1 -1111643.57  897.04   1 0.37681-0.85371-0.27698 0.39036-0.88390 0.34466
  -6  -1 -1111639.91  856.92   1 0.43498-0.91174-0.44368 0.33030-0.78354 0.24416
  -6   1 -1113801.62 1615.70   1-0.24373-0.23234-0.85552 0.96905-0.45680-0.08337
  -6  -1 -1113548.06 1828.67   1-0.01708-0.45924-0.96126 0.84776-0.27510-0.26531
   6  -1  1113201.98 1138.45   1 0.80213-0.32591 0.59017-0.70361-0.09097 0.63142
  -6   1 -12 6433.89  787.72   1 0.38617-0.86448-0.30177 0.41514-0.87166 0.28340
  -6  -1 -12 4244.84  539.81   1 0.44106-0.91922-0.46351 0.35013-0.76851 0.18010
  -6   1 -12 6582.26  998.96   1-0.24938-0.22801-0.85163 0.96516-0.46099-0.12829
  -6  -1 -12 5526.41 1119.09   1-0.03272-0.44493-0.95693 0.84343-0.28846-0.30109
   6  -1  12 4240.68  645.32   1 0.81595-0.33841 0.57585-0.68929-0.05099 0.64057
   6   1  12 4553.95  651.09   1 0.74380-0.26593 0.62960-0.51610-0.22438 0.81419
  -6   1 -13 5517.79  997.15   1 0.39309-0.87264-0.32033 0.43371-0.86189 0.22445
  -6  -1 -13 1863.50  373.45   1 0.44462-0.92417-0.47544 0.36206-0.75911 0.12167
  -6   1 -13 5519.70 1125.12   1-0.25696-0.22175-0.84631 0.95984-0.46659-0.17179
  -6  -1 -13 2721.48  670.89   1-0.04957-0.42941-0.95178 0.83829-0.30272-0.33596
   6  -1  13 1540.86  358.78   1 0.82782-0.34895 0.56086-0.67430-0.01209 0.65080
   6   1  13 4490.23  916.74   1 0.76734-0.28813 0.61667-0.50317-0.17577 0.81473
  -6   1 -1412844.06  939.61   1 0.39779-0.87873-0.33326 0.44665-0.85480 0.16833
  -6  -1 -1416349.66 1110.13   1 0.44638-0.92732-0.48143 0.36805-0.75429 0.06781
  -6   1 -1413939.53 2159.76   1-0.26628-0.21375-0.83961 0.95314-0.47343-0.21407
  -6  -1 -1416785.88 2410.26   1-0.06752-0.41279-0.94576 0.83226-0.31776-0.37004
   6  -1  1419106.97 1429.93   1 0.83789-0.35770 0.54522-0.65866 0.02587 0.66197
   6   1  1414121.77 1183.34   1 0.78768-0.30749 0.60255-0.48911-0.12837 0.81621
  -6   1 -15 1141.23  290.41   1 0.40077-0.88310-0.34158 0.45496-0.85011 0.11461
  -6  -1 -15 2117.15  437.86   1 0.44677-0.92910-0.48276 0.36938-0.75321 0.01770
  -6   1 -15 2680.48  650.67   1-0.27718-0.20417-0.83154 0.94507-0.48136-0.25524
  -6  -1 -15 3069.81  734.49   1-0.08649-0.39515-0.93877 0.82527-0.33349-0.40344
   6  -1  15 2117.76  497.73   1 0.84629-0.36478 0.52897-0.64241 0.06300 0.67397
   6   1  15 3139.25  733.30   1 0.80536-0.32385 0.58707-0.47363-0.08204 0.81901
   6   2 -15 2742.04  657.59   1 0.49759-0.05614-0.73302 0.96022-0.46376-0.27353
   6  -2 -15 2879.04  650.48   1 0.45162-0.01068-0.89215 0.66521 0.00989-0.74657
  -6  -2  15 3455.42  747.48   1 0.54868-0.99003-0.11964-0.10708 0.82742-0.09140
   6   2 -14 2517.65  692.31   1 0.49813-0.05531-0.74209 0.96928-0.44851-0.23963
   6  -2 -14 1203.94  585.01   1 0.44107 0.00124-0.89573 0.66879 0.05588-0.74344
  -6  -2  14 1579.01  454.41   1 0.54179-0.98446-0.12631-0.10042 0.83096-0.14401
   6   2 -1312974.11 1211.37   1 0.49848-0.05428-0.75016 0.97735-0.43447-0.20451
   6  -2 -1312233.33 1188.57   1 0.42908 0.01461-0.89732 0.67038 0.10341-0.74186
  -6  -2  13 8933.55  847.67   1 0.53199-0.97597-0.13568-0.09105 0.83580-0.19792
   6   2 -12 4091.17  719.95   1 0.49869-0.05311-0.75716 0.98436-0.42190-0.16793
   6  -2 -12 3317.28  562.88   1 0.41549 0.02958-0.89669 0.66975 0.15264-0.74198
  -6   2  12 2641.10  487.69   1 0.36284-0.80840-0.27968 0.50642 0.88888-0.30004
  -6  -2  12 3670.57  540.93   1 0.51892-0.96422-0.14796-0.07876 0.84191-0.25309
   6   2 -1194143.3510320.88   1 0.49878-0.05182-0.76301 0.99021-0.41111-0.12956
   6  -2 -1197705.3210685.73   1 0.40041 0.04627-0.89344 0.66650 0.20352-0.74406
   6  -2 -1178362.93 4152.66   1 0.52823-0.08115-0.80437 0.57739 0.27194-0.81242
  -6   2  1185894.92 4548.69   1 0.31421-0.76107-0.31584 0.54257 0.89527-0.35550
  -6  -2  1188730.64 4776.21   1 0.50219-0.94880-0.16337-0.06335 0.84918-0.30943
   6   2 -1024328.08 1584.26   1 0.49880-0.05047-0.76755 0.99475-0.40255-0.08897
   6  -2 -1021790.84 1428.88   1 0.38299 0.06507-0.88737 0.66043 0.25666-0.74806
   6  -2 -1018933.08 1116.81   1 0.60958-0.16091-0.69783 0.47075 0.37607-0.86746
  -6   2  1023582.55 1392.03   1 0.25206-0.70022-0.35920 0.58593 0.89857-0.40787
  -6  -2  1020912.10 1312.46   1 0.48132-0.92925-0.18211-0.04461 0.85741-0.36673
   6   2  -9 9196.68 1181.55   1 0.49879-0.04908-0.77055 0.99775-0.39679-0.04558
   6  -2  -9 3876.24  669.72   1 0.36326 0.08619-0.87791 0.65097 0.31193-0.75419
   6  -2  -9 4027.51  518.43   1 0.67337-0.22309-0.57054 0.34344 0.47016-0.91228
  -6   2   910542.94 1301.36   1 0.17483-0.62430-0.40896 0.63570 0.89564-0.45401
  -6  -2   9 3884.32  556.52   1 0.45581-0.90506-0.20432-0.02240 0.86630-0.42468
   6   2  -837677.76 1999.17   1 0.49878-0.04769-0.77166 0.99886-0.39465 0.00142
   6  -2  -848439.28 2551.67   1 0.34089 0.10995-0.86447 0.63753 0.36942-0.76253
   6  -2  -844985.17 2266.15   1 0.71728-0.26573-0.42792 0.20082 0.54989-0.94289
  -6   2   841088.02 2050.74   1 0.08093-0.53234-0.46377 0.69088 0.88224-0.48916
  -6  -2   845801.19 2358.24   1 0.42514-0.87569-0.23010 0.00337 0.87538-0.48284
   6  -2  -841111.70 2045.88   1 0.86538-0.41436 0.45518-0.68208 0.20957-0.60254
   6   2  -717562.83 1870.27   1 0.49879-0.04632-0.77031 0.99750-0.39726 0.05319
   6  -2  -724558.92 1123.96   1 0.31553 0.13669-0.84635 0.61940 0.42909-0.77307
   6  -2  -717768.05 1821.56   1-0.37822 0.83091-0.74340 0.51624-0.55162 0.20755
   6  -2  -722805.24 1202.30   1 0.74094-0.28871-0.27489 0.04807 0.61272-0.95620
  -6   2   720389.31 2108.11   1-0.02428-0.42845-0.51803 0.74514 0.85501-0.51106
  -6  -2   724249.69  977.91   1 0.38878-0.84066-0.25941 0.03268 0.88405-0.54057
   6  -2  -721626.86 2210.21   1 0.86177-0.40937 0.37436-0.60125 0.34234-0.68622
   6   2  -6 7329.72  855.35   1 0.49880-0.04495-0.76555 0.99275-0.40634 0.11142
   6  -2  -6 6533.01  812.39   1 0.28702 0.16650-0.82241 0.59540 0.49116-0.78598
   6  -2  -6 3641.02  531.52   1-0.35190 0.80593-0.76870 0.54154-0.53408 0.23916
  -6  -2   6 6013.48  624.00   1-0.26815-0.18550-0.83824 0.61118-0.47479 0.76944
   6  -2  -6 5875.86  662.42   1 0.74387-0.29035-0.12313-0.10367 0.65687-0.95128
   6   2  -6 6689.60  684.40   1 0.60035-0.14709 0.43180-0.20494 0.67314-0.96765
  -6   2   6 7308.62  854.79   1-0.13530-0.31822-0.56767 0.79467 0.81205-0.51693
  -6  -2   6 7242.09 1027.60   1 0.34613-0.79951-0.29233 0.06560 0.89147-0.59705
   6  -2  -6 5730.53  603.99   1 0.83048-0.37674 0.26743-0.49432 0.48864-0.78339
   6   2  -564567.56 2174.47   1 0.49865-0.04343-0.75574 0.98294-0.42448 0.17872
   6  -2  -576031.51 2529.16   1 0.25453 0.20037-0.79229 0.56528 0.55451-0.80019
  -6  -2   573439.83 2350.19   1-0.02280-0.43219-0.95972 0.73273-0.28000 0.52565
   6   2  -568899.58 2201.29   1 0.73946-0.28479-0.05530 0.28202 0.67091-0.91616
   6  -2  -577500.37 2528.54   1 0.72982-0.27515 0.02262-0.24935 0.68325-0.92849
  -6   2   567673.43 2174.70   1-0.24581-0.20910-0.60797 0.83497 0.75494-0.50900
  -6  -2   578623.11 2679.29   1 0.29732-0.75200-0.32792 0.10119 0.89669-0.65134
   6  -2  -580345.97 2570.99   1 0.76031-0.30501 0.13362-0.36061 0.63566-0.88143
  -6  -2   4 7487.99  536.37   1 0.29164-0.74794-0.82642 0.59941 0.48162-0.28508
   6  -2  -4 7327.48  577.58   1 0.21799 0.23831-0.75472 0.52771 0.61876-0.81530
  -6  -2   4 8024.37  574.24   1 0.07582-0.53248-0.97810 0.75103-0.19381 0.39039
   6  -2  -4 8840.94  651.12   1 0.70290-0.24728 0.15615-0.38280 0.69393-0.89011
  -6  -2   4 9226.54  981.42   1 0.24212-0.69811-0.36585 0.13911 0.89862-0.70234
   6  -2  -4 8288.90  568.63   1 0.64697-0.19095-0.01640-0.21039 0.76233-0.95878
   6  -2  -4 9906.78  698.37   1 0.34853 0.10766 0.63809-0.86502-0.68656 0.49004
  -6   2   3101070.1 3463.92   1-0.17833-0.27904 0.70708-0.48029-0.68427 0.83153
   6   2  -3104568.1 3567.25   1 0.49506-0.03708-0.70473 0.93193-0.50819 0.36073
  -6  -2   3102146.6 3452.12   1 0.26176-0.71946-0.79927 0.57226 0.54095-0.39354
  -6  -2   3106906.2 3640.92   1 0.13128-0.58927-0.98096 0.75390-0.14305 0.29048
   6   2  -393494.00 3176.89   1 0.70924-0.25132-0.46092 0.68801 0.53340-0.68078
   6  -2  -3114351.3 3911.69   1 0.66718-0.21029 0.27353-0.50019 0.69285-0.83998
  -6  -2   3114784.9 3993.42   1 0.18086-0.63815-0.40523 0.17850 0.89614-0.74893
   6  -2  -3105280.3 3559.56   1 0.50031-0.04318-0.16508-0.06164 0.84995-0.99716
   6  -2  -3116534.3 3945.56   1 0.43451 0.02304 0.65500-0.88193-0.61819 0.47080
  -6   2   2122691.0 4187.04   1-0.13347-0.32530 0.65182-0.42503-0.74652 0.84470
   6   2  -2127115.5 4292.50   1 0.48515-0.02652-0.64033 0.86715-0.59547 0.49733
  -6  -2   297987.33 3301.22   1 0.20748-0.66657-0.74327 0.51626 0.63599-0.53771
  -6  -2   2106785.5 3646.36   1 0.16413-0.62347-0.98002 0.75296-0.11225 0.21054
   6   2  -2118116.2 4008.84   1 0.67632-0.21713-0.56301 0.79011 0.47496-0.57321
   6  -2  -2111266.8 3808.04   1 0.62706-0.16890 0.37426-0.60091 0.68316-0.78126
  -6  -2   2111882.3 3954.55   1 0.11379-0.57317-0.44529 0.21819 0.88812-0.78985
   6  -2  -2104106.3 3522.41   1 0.34000 0.11858-0.29691 0.07018 0.89232-0.99046
   6  -2  -2114726.3 3890.13   1 0.50623-0.04742 0.66349-0.89042-0.55090 0.45265
  -6   2   110634.55 1147.34   1-0.08497-0.37519 0.58735-0.36056-0.80485 0.85394
   6   2  -110320.10  682.81   1-0.08898 0.54915 0.59287-0.36607-0.80036 0.75127
   6   2  -110125.04  676.75   1 0.44735 0.01270-0.48475 0.71151-0.75159 0.70255
  -6  -2   1 5590.82  480.89   1 0.18338-0.64405-0.97854 0.75147-0.09396 0.14310
   6   2  -110949.73  773.47   1 0.64614-0.18568-0.63192 0.85900 0.42797-0.47711
   6  -2  -1 5430.93  498.31   1 0.58624-0.12646 0.45908-0.68593 0.66749-0.71658
   6  -2  -1 5557.27  553.22   1 0.18585 0.27403-0.40213 0.17539 0.89651-0.94558
   6  -2  -1 7132.77  536.49   1 0.56468-0.10452 0.66542-0.89235-0.48819 0.43906
  -6   2   024637.00 1671.49   1-0.03379-0.42796 0.51464-0.28783-0.85673 0.85673
  -6  -2   023290.06 1599.09   1 0.19359-0.65560-0.97746 0.75039-0.08417 0.08417
   6  -2   023615.61 1605.06   1 0.54643-0.08534 0.52863-0.75549 0.64957-0.64957
  -6  -2   024127.96 1841.51   1-0.03069-0.43133-0.52109 0.29399 0.85294-0.85294
   6  -2   019318.36 1291.00   1 0.05087 0.41115-0.48004 0.25293 0.87576-0.87576
   6  -2   024160.07 1620.32   1 0.61259-0.15108 0.66309-0.89002-0.43015 0.43015
  -6   2  -141743.96 2224.85   1 0.01866-0.48180 0.43463-0.20782-0.90041 0.85127
  -6  -2  -130442.66 2052.52   1 0.19741-0.66075-0.97700 0.74994-0.08050 0.03136
   6  -2   131007.69 2106.26   1 0.50956-0.04716 0.58515-0.81200 0.63082-0.58174
  -6  -2  -134248.88 2373.16   1-0.10537-0.35789-0.55526 0.32826 0.82496-0.87415
   6  -2   126946.25 1813.07   1 0.65218-0.18932 0.65788-0.88481-0.37662 0.42574
  -6   2  -2 6590.98  636.60   1 0.07070-0.53509 0.35028-0.12347-0.93396 0.83572
  -6   2  -2 5304.59  471.13   1-0.47688 0.01215-0.63045 0.85761-0.61245 0.51414
  -6  -2  -2 6007.30  563.76   1 0.19647-0.66115-0.97712 0.75005-0.08141-0.01687
  -6  -2  -2 7454.33  827.50   1-0.17984-0.28482-0.58498 0.35798 0.79085-0.88922
   6  -2   2 7274.29  593.02   1 0.68532-0.22083 0.65086-0.87785-0.32665 0.42496
  -6   2  -3109656.9 3763.97   1 0.12032-0.58606 0.26490-0.03809-0.95673 0.80936
  -6   2  -3112193.0 3876.67   1-0.44816-0.01790-0.66660 0.89376-0.59563 0.44817
  -6  -2  -394957.32 3319.17   1 0.19186-0.65788-0.97766 0.75059-0.08584-0.06159
  -6  -2  -386153.55 2996.99   1-0.25233-0.21372-0.61007 0.38306 0.75109-0.89865
   6  -2   396201.39 3318.02   1 0.71331-0.24748 0.64229-0.86928-0.28043 0.42788
  -6   2  -4110921.8 3626.97   1 0.16603-0.63314 0.18178 0.04503-0.96922 0.77272
  -6   2  -4110422.2 3623.03   1-0.42377-0.04363-0.69508 0.92224-0.58075 0.38413
  -6  -2  -499194.25 3274.96   1 0.18433-0.65169-0.97844 0.75138-0.09305-0.10352
   6  -2   499501.07 3251.41   1 0.73726-0.27009 0.63267-0.85967-0.23699 0.43360
   6   2   4118215.2 3855.95   1 0.32055 0.14655 0.63113-0.40420-0.70633 0.90285
  -6   2  -556149.28 1886.90   1 0.20664-0.67508 0.10383 0.12295-0.97289 0.72741
  -6  -2  -561880.48 2163.68   1 0.17442-0.64311-0.97932 0.75225-0.10250-0.14321
   6  -2   562696.38 2131.69   1 0.75792-0.28942 0.62223-0.84923-0.19587 0.44162
   6   2   554155.41 1875.10   1 0.38577 0.08269 0.64627-0.41934-0.65840 0.90405
  -6   2  -629443.69 1086.21   1 0.24191-0.71174 0.03296 0.19381-0.96973 0.67516
  -6   2  -628438.31 1115.10   1-0.38738-0.08270-0.73416 0.96132-0.55761 0.26269
  -6  -2  -634499.95 1331.67   1 0.16251-0.63254-0.98012 0.75305-0.11379-0.18107
   6  -2   636218.48 1356.86   1 0.77588-0.30604 0.61111-0.83810-0.15665 0.45156
  -6  -2  -7 3893.62  268.67   1-0.02192-0.44949 0.49697-0.72378-0.86748 0.52353
  -6   2  -7 5408.66  393.70   1 0.27175-0.74296-0.02968 0.25647-0.96190 0.61824
  -6   2  -7 5708.70  671.22   1-0.37484-0.09657-0.74675 0.97391-0.54940 0.20532
  -6  -2  -7 4285.49  440.31   1 0.14890-0.62028-0.98071 0.75364-0.12660-0.21741
   6  -2   7 4545.09  483.73   1 0.79144-0.32052 0.59954-0.82642-0.11898 0.46290
  -6   2  -811070.97 1315.95   1 0.29615-0.76880-0.08323 0.30998-0.95150 0.55933
  -6  -2  -814082.87 1602.49   1 0.41520-0.88779-0.38301 0.15624-0.82516 0.43289
  -6   2  -811129.29 1592.88   1-0.36567-0.10708-0.75569 0.98285-0.54332 0.15009
   6  -2   814029.72 1680.02   1 0.80514-0.33290 0.58728-0.81417-0.08265 0.47571
   6   2   812152.53 1460.24   1 0.55231-0.08001 0.66542-0.43849-0.50215 0.89516
  -6   2  -920713.35 1290.75   1 0.31637-0.79043-0.12903 0.35578-0.93981 0.49862
  -6  -2  -921076.65 1215.61   1 0.44081-0.91479-0.46268 0.23592-0.76915 0.32785
  -6   2  -918654.14 1551.75   1-0.35957-0.11453-0.76152 0.98868-0.53924 0.09686
  -6  -2  -922409.37 1436.01   1 0.11745-0.59150-0.98077 0.75370-0.15585-0.28644
   6  -2   921610.63 1344.85   1 0.81711-0.34354 0.57452-0.80140-0.04742 0.48961
   6   2   918434.84 1180.29   1 0.59800-0.12435 0.66422-0.43730-0.44853 0.89067
  -6   2 -1023337.33 1695.55   1 0.33266-0.80814-0.16713 0.39388-0.92811 0.43789
  -6  -2 -1027015.74 1894.36   1 0.45346-0.92884-0.50622 0.27946-0.73355 0.24321
  -6   2 -1022320.78 2258.38   1-0.35623-0.11920-0.76466 0.99182-0.53700 0.04547
  -6  -2 -1030748.46 2298.30   1 0.09991-0.57530-0.98002 0.75295-0.17194-0.31949
   6  -2  1028414.83 2105.03   1 0.82752-0.35263 0.56127-0.78815-0.01312 0.50444
   6   2  1020925.26 1596.67   1 0.63901-0.16401 0.65999-0.43306-0.39505 0.88631
  -6   2 -11 1434.88  286.88   1 0.34560-0.82250-0.19826 0.42501-0.91719 0.37795
  -6  -2 -11 4216.01  479.03   1 0.46039-0.93709-0.53067 0.30384-0.71163 0.17181
  -6   2 -11 2214.78  528.14   1-0.35541-0.12136-0.76544 0.99259-0.53645-0.00423
  -6  -2 -11 3884.45  612.66   1 0.08132-0.55805-0.97863 0.75156-0.18884-0.35174
   6  -2  11 4429.95  628.05   1 0.83653-0.36031 0.54753-0.77442 0.02040 0.52004
   6   2  11 1564.86  519.64   1 0.67560-0.19906 0.65327-0.42627-0.34175 0.88241
  -6   2 -1210953.34  857.59   1 0.35572-0.83403-0.22318 0.44993-0.90755 0.31929
  -6  -2 -12 8774.70 1467.58   1 0.46384-0.94193-0.54394 0.31712-0.69926 0.11037
  -6   2 -12 9987.20 1287.46   1-0.35686-0.12125-0.76407 0.99123-0.53742-0.05241
  -6  -2 -1210799.77  949.42   1 0.06176-0.53983-0.97650 0.74944-0.20643-0.38329
   6  -2  12 9461.41  834.90   1 0.84423-0.36669 0.53332-0.76020 0.05327 0.53630
   6   2  1211259.86  997.29   1 0.70808-0.23021 0.64409-0.41709-0.28941 0.87922
  -6   2 -1310199.63  771.13   1 0.36346-0.84318-0.24260 0.46935-0.89946 0.26218
  -6   2 -1312372.05 1344.34   1-0.36038-0.11907-0.76075 0.98791-0.53978-0.09920
  -6  -2 -1311437.29 1338.79   1 0.04130-0.52029-0.97366 0.74666-0.22421-0.41446
   6  -2  13 9277.29  775.80   1 0.85070-0.37184 0.51862-0.74550 0.08558 0.55312
   6   2  1311235.90  951.57   1 0.73678-0.25756 0.63289-0.40589-0.23791 0.87687
  -6   2 -1413999.76 1448.63   1 0.36918-0.85032-0.25719 0.48394-0.89305 0.20675
  -6   2 -1416407.33 2071.21   1-0.36577-0.11502-0.75560 0.98275-0.54339-0.14475
  -6  -2 -1412739.91 2005.35   1 0.01999-0.50031-0.96982 0.74283-0.24297-0.44484
   6  -2  1411686.14 1237.42   1 0.85610-0.37600 0.50332-0.73023 0.11726 0.57042
   6   2  1414111.11 1468.17   1 0.76198-0.28143 0.61990-0.39291-0.18733 0.87545
  -6   2 -1525271.45 2648.41   1 0.37318-0.85573-0.26751 0.49426-0.88835 0.15303
  -6   2 -1522947.94 3284.28   1-0.37288-0.10924-0.74868 0.97584-0.54810-0.18919
  -6  -2 -1518303.75 3407.35   1-0.00210-0.47954-0.96500 0.73801-0.26220-0.47473
   6  -2  1524715.80 2601.31   1 0.86029-0.37887 0.48762-0.71453 0.14868 0.58812
   6   2  1524085.93 2556.74   1 0.78380-0.30228 0.60552-0.37864-0.13780 0.87478
   6   3 -1413937.77 1214.07   1 0.48737-0.04541-0.65295 0.99319-0.57975-0.10728
   6  -3 -1412305.66 1074.73   1 0.41829 0.02403-0.89700 0.55660 0.14286-0.83043
  -6  -3  1411947.78  965.52   1 0.52561-0.96828-0.14171-0.19838 0.83883-0.15188
   6   3 -1317541.95 1643.12   1 0.48801-0.04466-0.65677 0.99700-0.57488-0.06308
   6  -3 -1312172.41 1170.56   1 0.40342 0.04027-0.89440 0.55400 0.19308-0.83154
  -6  -3  1312485.95 1246.01   1 0.51618-0.96017-0.15051-0.18957 0.84314-0.20526
   6   3 -1213482.88 1266.35   1 0.48832-0.04359-0.65868 0.99891-0.57242-0.01646
   6  -3 -1218024.07 1636.50   1 0.38715 0.05814-0.88904 0.54862 0.24436-0.83404
  -6  -3  1215811.63 1411.08   1 0.50380-0.94910-0.16190-0.17819 0.84850-0.25968
   6   3 -1111303.06  847.47   1 0.48826-0.04214-0.65833 0.99856-0.57287 0.03306
   6  -3 -1114530.64 1124.71   1 0.36865 0.07803-0.88074 0.54032 0.29729-0.83782
   6  -3 -1114540.48  937.18   1 0.61307-0.16571-0.69215 0.35154 0.38085-0.92138
  -6  -3  1114892.50 1029.48   1 0.48816-0.93478-0.17603-0.16406 0.85481-0.31506
   6   3 -10 3207.98  544.58   1 0.48775-0.04024-0.65524 0.99547-0.57684 0.08610
   6  -3 -10 4519.87  740.88   1 0.34806 0.10000-0.86906 0.52864 0.35153-0.84292
   6  -3 -10 3747.86  474.64   1 0.66125-0.21257-0.59960 0.25898 0.45080-0.94219
  -6  -3  10 3145.86  548.12   1 0.46889-0.91682-0.19303-0.14706 0.86190-0.37122
   6   3  -9 6213.73  573.44   1 0.48664-0.03773-0.64870 0.98893-0.58511 0.14344
   6  -3  -9 3966.22  609.45   1 0.32519 0.12426-0.85358 0.51316 0.40698-0.84924
   6  -3  -9 4060.05  423.86   1 0.69882-0.24854-0.49779 0.15715 0.51365-0.95578
  -6  -3   9 4994.16  557.59   1 0.44560-0.89484-0.21302-0.12707 0.86951-0.42790
   6   3  -838817.96 2315.11   1 0.48467-0.03437-0.63769 0.97792-0.59869 0.20610
   6  -3  -843333.84 2546.57   1 0.30011 0.15063-0.83357 0.49306 0.46377-0.85685
   6  -3  -842274.00 2426.83   1 0.72514-0.27359-0.38989 0.04925 0.56757-0.96058
  -6  -3   844574.20 2603.84   1 0.41788-0.86844-0.23605-0.10404 0.87729-0.48475
  -6  -3   7  478.38  109.19   1 0.17258-0.62523-0.97946 0.63886-0.10425 0.44826
   6   3  -627259.20 1432.85   1 0.47604-0.02296-0.59509 0.93532-0.64749 0.35305
   6  -3  -628154.96 1511.86   1 0.24138 0.21213-0.77919 0.43868 0.57843-0.87324
  -6  -3   629244.13 1466.89   1 0.26167-0.71543-0.96498 0.62475-0.01802 0.31276
   6  -3  -631626.73 1664.44   1 0.74493-0.29141-0.16592-0.17430 0.64617-0.94058
   6   3  -623256.09 1171.18   1 0.64248-0.18940 0.33820 0.00177 0.68762-0.98189
  -6  -3   633227.02 2471.14   1 0.34748-0.80086-0.29132-0.04877 0.89128-0.59686
   6   3  -529929.96 1078.22   1 0.46714-0.01268-0.55705 0.89728-0.68663 0.44125
   6  -3  -519841.06 2106.93   1 0.20780 0.24711-0.74362 0.40311 0.63547-0.88115
  -6  -3   519220.96 1974.92   1 0.30441-0.75952-0.95220 0.61197 0.02514 0.22047
   6  -3  -521622.01 2253.94   1 0.73963-0.28496-0.05712-0.28296 0.67057-0.91582
   6   3  -525228.29  865.74   1 0.71431-0.25965 0.10621 0.23387 0.69171-0.93695
  -6   3   4 9352.44 1047.12   1-0.17276-0.28322 0.70046-0.36027-0.69245 0.88881
   6   3  -4 8655.90  920.54   1 0.45156 0.00432-0.49942 0.83957-0.73936 0.54323
  -6  -3   4 7287.83  778.43   1 0.37881-0.83521-0.88558 0.54516 0.26876-0.07220
  -6  -3   4 8282.43  884.69   1 0.32701-0.78345-0.94377 0.60355 0.04841 0.14807
   6   3  -4 7132.20  764.17   1 0.74131-0.28540-0.07693 0.41702 0.66673-0.86292
   6  -3  -4 8003.52  903.31   1 0.72612-0.27021 0.04542-0.38551 0.68605-0.88224
  -6  -3   4 7101.46  898.25   1 0.25575-0.71174-0.35670 0.01660 0.89852-0.70224
   6  -3  -4 7776.42  797.50   1 0.78178-0.32508 0.16868-0.50916 0.60029-0.79691
   6  -3  -4 8207.80  843.73   1 0.79512-0.33866 0.59640-0.93690-0.10990-0.08669
  -6   3   345969.68 1602.47   1-0.13389-0.32349 0.65236-0.31216-0.74598 0.89325
   6   3  -341757.37 1383.73   1 0.42430 0.03297-0.41026 0.75041-0.80724 0.66014
  -6  -3   339995.20 1318.54   1 0.37052-0.82830-0.88168 0.54126 0.29213-0.14471
  -6  -3   339686.30 1342.32   1 0.33828-0.79606-0.93911 0.59888 0.06015 0.08721
   6   3  -337481.85 1253.74   1 0.74425-0.28684-0.21800 0.55822 0.63131-0.77852
   6  -3  -338358.98 1354.47   1 0.70643-0.24927 0.14032-0.48041 0.69372-0.84087
  -6  -3   342285.32 1519.77   1 0.20175-0.65904-0.39212 0.05201 0.89751-0.75030
   6  -3  -340206.32 1300.53   1 0.56559-0.10820-0.10338-0.23681 0.81817-0.96551
   6  -3  -339687.41 1295.03   1 0.78547-0.32768 0.60419-0.94469-0.13405-0.01340
  -6   3   220154.41 1523.08   1-0.09283-0.36593 0.59813-0.25794-0.79600 0.89417
   6   3  -218744.07  646.17   1 0.37217 0.08631-0.26489 0.60501-0.88956 0.79151
  -6  -3   223405.71  788.97   1 0.35281-0.81198-0.87196 0.53154 0.33940-0.24112
  -6  -3   222800.91  845.10   1 0.34228-0.80140-0.93739 0.59716 0.06434 0.03390
   6  -3  -223336.14  939.33   1 0.68275-0.22460 0.22683-0.56682 0.69454-0.79263
  -6  -3   223891.76 1979.69   1 0.14225-0.60162-0.42869 0.08803 0.89218-0.79390
   6  -3  -221396.25  751.08   1 0.33301 0.12557-0.30209-0.03800 0.89321-0.99135
   6  -3  -222217.51  757.38   1 0.78571-0.32657 0.60401-0.94451-0.13348 0.03518
  -6  -3   1 7371.55  275.67   1 0.31118-0.77166-0.84253 0.50201 0.43966-0.39052
  -6  -3   1 8293.74  409.31   1 0.34118-0.80164-0.93787 0.59764 0.06318-0.01406
   6  -3  -1 8776.10  563.47   1 0.65629-0.19687 0.30325-0.64324 0.69087-0.73992
  -6  -3   1 6776.19  786.31   1 0.07889-0.53959-0.46490 0.12424 0.88183-0.83270
   6  -3  -1 6859.58  331.65   1 0.13284 0.32785-0.43424 0.09358 0.89094-0.94008
   6  -3  -1 6656.23  305.35   1 0.78971-0.32938 0.60095-0.94127-0.12334 0.07420
  -6   3   027819.03 1701.89   1-0.00684-0.45491 0.47418-0.13396-0.88040 0.88040
  -6  -3   025296.54  947.32   1 0.33629-0.79808-0.93996 0.59973 0.05807-0.05807
   6  -3   028322.41 1102.47   1 0.62891-0.16821 0.37008-0.71006 0.68374-0.68374
  -6  -3   025211.01  955.01   1 0.01212-0.47415-0.50010 0.15944 0.86588-0.86588
   6  -3   023065.02  840.10   1-0.02593 0.48796-0.51882 0.17816 0.85448-0.85448
   6  -3   026805.11  927.11   1 0.79564-0.33399 0.59601-0.93633-0.10824 0.10824
  -6   3  -1146712.2 4731.11   1 0.03633-0.49948 0.40651-0.06629-0.91292 0.86378
  -6  -3  -1156339.5 5032.97   1 0.32846-0.79159-0.94319 0.60296 0.04992-0.09904
   6  -3   1166080.1 5360.29   1 0.60233-0.13993 0.42785-0.76813 0.67389-0.62481
   6  -3   1122156.0 3897.00   1-0.14691 0.61019-0.57232 0.23182 0.80676-0.75757
  -6  -3  -1165099.4 5340.50   1-0.05689-0.40646-0.53333 0.19267 0.84398-0.89312
   6  -3   1157263.6 5029.56   1 0.80239-0.33942 0.58992-0.93024-0.09025 0.13938
  -6   3  -237071.97 1309.68   1 0.07840-0.54279 0.33734 0.00287-0.93810 0.83986
  -6  -3  -235195.10 1262.87   1 0.31826-0.78272-0.94718 0.60695 0.03936-0.13761
   6  -3   240387.98 1506.13   1 0.57660-0.11289 0.47688-0.81716 0.66341-0.56523
  -6  -3  -243733.33 2886.21   1-0.12678-0.33788-0.56420 0.22370 0.81584-0.91421
   6  -3   236689.25 1266.41   1 0.80945-0.34515 0.58294-0.92326-0.07039 0.16865
  -6   3  -355202.42 2191.60   1 0.11823-0.58398 0.26859 0.07162-0.95596 0.80859
  -6  -3  -349426.83 1729.99   1 0.30610-0.77190-0.95162 0.61139 0.02686-0.17423
   6  -3   357000.87 2020.36   1 0.55281-0.08781 0.51814-0.85842 0.65262-0.50536
  -6  -3  -352752.14 1824.56   1-0.19658-0.26948-0.59111 0.25061 0.78226-0.92982
   6  -3   350805.01 1721.65   1 0.81652-0.35090 0.57520-0.91553-0.04925 0.19665
  -6   3  -4 1574.06  320.87   1 0.15513-0.62224 0.20200 0.13821-0.96702 0.77052
  -6  -3  -4 1432.33  400.10   1 0.29227-0.75942-0.95624 0.61601 0.01277-0.20927
   6  -3   4  380.19  393.08   1 0.53141-0.06510 0.55247-0.89275 0.64215-0.44581
  -6  -3  -4  939.16  304.37   1-0.26484-0.20260-0.61399 0.27349 0.74354-0.94029
   6  -3   4 1163.27  267.20   1 0.82340-0.35645 0.56680-0.90713-0.02719 0.22372
  -6   3  -513113.37  849.66   1 0.18844-0.65688 0.13916 0.20101-0.97217 0.72670
  -6  -3  -5 7561.36  651.86   1 0.27702-0.74550-0.96085 0.62063-0.00264-0.24297
   6  -3   5 8044.90  635.36   1 0.51264-0.04502 0.58068-0.92096 0.63245-0.38702
   6  -3   5 7897.11  539.35   1 0.82996-0.36169 0.55779-0.89811-0.00445 0.25011
   6   3   512053.80  799.89   1 0.32928 0.13918 0.63337-0.29298-0.70028 0.94593
  -6   3  -663182.23 3191.06   1 0.21810-0.68793 0.08115 0.25902-0.97254 0.67797
  -6  -3  -659129.76 3027.64   1 0.26050-0.73032-0.96528 0.62505-0.01918-0.27555
   6  -3   667077.00 3467.56   1 0.49658-0.02765 0.60353-0.94382 0.62381-0.32930
   6  -3   664552.67 3272.36   1 0.83613-0.36653 0.54820-0.88853 0.01881 0.27597
   6   3   663641.12 3230.52   1 0.39173 0.07810 0.64746-0.30707-0.65370 0.94847
  -6   3  -749635.86 2159.45   1 0.24398-0.71519 0.02871 0.31146-0.96935 0.62569
  -6  -3  -744033.50 1966.79   1 0.24285-0.71401-0.96936 0.62913-0.03668-0.30718
   6  -3   743568.45 1910.23   1 0.84183-0.37091 0.53806-0.87838 0.04249 0.30142
   6   3   745618.19 2002.30   1 0.45026 0.02093 0.65731-0.31691-0.60432 0.94822
  -6   3  -8 8047.80  735.17   1 0.26619-0.73878-0.01781 0.35798-0.96375 0.57099
  -6   3  -8 6373.08  665.89   1-0.47308 0.00031-0.63542 0.97616-0.61027 0.21704
  -6  -3  -8 4818.97  527.40   1 0.22402-0.69674-0.97304 0.63244-0.05468-0.33847
   6  -3   8 3519.09  427.53   1 0.84701-0.37477 0.52738-0.86770 0.06651 0.32653
   6   3   8 7362.73  678.37   1 0.50428-0.03198 0.66335-0.32296-0.55285 0.94586
  -6   3  -9 8980.73 1024.62   1 0.28499-0.75896-0.05837 0.39855-0.95674 0.51489
  -6   3  -9 8883.71 1031.90   1-0.46497-0.00913-0.64581 0.98655-0.60557 0.16319
  -6  -3  -910456.51 1258.89   1 0.20440-0.67846-0.97610 0.63550-0.07375-0.36854
   6  -3   9 9823.52 1124.66   1 0.85165-0.37808 0.51617-0.85649 0.09081 0.35136
   6   3   9 9306.06 1132.31   1 0.55413-0.08047 0.66543-0.32504-0.50013 0.94226
  -6   3 -10 4587.65  660.15   1 0.30037-0.77584-0.09264 0.43277-0.94931 0.45909
  -6   3 -10 3718.57  603.86   1-0.45926-0.01617-0.65298 0.99372-0.60223 0.11070
  -6  -3 -10 3388.61  559.74   1 0.18392-0.65931-0.97848 0.63788-0.09344-0.39800
   6  -3  10 4353.82  698.15   1 0.85579-0.38098 0.50432-0.84468 0.11521 0.37598
   6   3  10 3245.62  465.12   1 0.59952-0.12452 0.66412-0.32373-0.44665 0.93791
  -6   3 -11 1136.65  303.23   1 0.31330-0.79019-0.12197 0.46210-0.94178 0.40254
  -6   3 -11 1122.03  327.97   1-0.45581-0.02097-0.65726 0.99800-0.60019 0.05950
  -6  -3 -11 1047.25  358.74   1 0.16262-0.63935-0.98011 0.63951-0.11368-0.42690
   6  -3  11 1012.28  364.85   1 0.85923-0.38310 0.49206-0.83242 0.13994 0.40038
   6   3  11 1112.08  387.72   1 0.64057-0.16422 0.65976-0.31937-0.39290 0.93328
  -6   3 -1228223.15 1922.76   1 0.32379-0.80210-0.14625 0.48638-0.93475 0.34649
  -6   3 -1221909.64 1532.02   1-0.45445-0.02366-0.65893 0.99967-0.59939 0.00955
  -6  -3 -1227678.54 1947.30   1 0.14055-0.61862-0.98090 0.64030-0.13441-0.45532
   6  -3  1230651.09 2054.13   1 0.86204-0.38458 0.47927-0.81963 0.16484 0.42460
   6   3  1228401.89 1961.16   1 0.67742-0.19955 0.65284-0.31234-0.33896 0.92877
  -6   3 -13 9765.14 1031.08   1 0.33214-0.81186-0.16588 0.50601-0.92852 0.29124
  -6   3 -1310725.37 1219.49   1-0.45506-0.02439-0.65819 0.99893-0.59974-0.03924
  -6  -3 -13 6116.68  833.18   1 0.11774-0.59715-0.98078 0.64017-0.15557-0.48330
   6  -3  13 8067.14  989.80   1 0.86418-0.38540 0.46596-0.80632 0.18989 0.44867
   6   3  13 9748.02 1129.00   1 0.71029-0.23108 0.64334-0.30284-0.28563 0.92459
  -6   3 -1414048.59 1695.30   1 0.33859-0.81973-0.18128 0.52141-0.92330 0.23700
  -6   3 -1412462.63 1556.55   1-0.45748-0.02331-0.65520 0.99593-0.60118-0.08696
  -6  -3 -14 9168.29 1277.66   1 0.09422-0.57496-0.97966 0.63906-0.17713-0.51089
   6  -3  14 8778.22 1120.70   1 0.86564-0.38553 0.45211-0.79246 0.21508 0.47260
   6   3  1413624.07 1651.88   1 0.73942-0.25887 0.63168-0.29118-0.23285 0.92097
   6   4 -13 5239.56  642.44   1 0.46393-0.02058-0.54428 0.99792-0.69894 0.06097
   6  -4 -13 4382.63  881.02   1 0.38169 0.06221-0.88683 0.43294 0.26045-0.89927
  -6  -4  13 3535.00  779.22   1 0.49137-0.93536-0.17315-0.28031 0.85355-0.21567
   6   4 -12 1854.11  713.72   1 0.46273-0.01800-0.53962 0.99326-0.70333 0.11444
   6  -4 -12  259.04  287.54   1 0.60078-0.15473-0.71165 0.25750 0.36413-0.95380
  -6  -4  12 1006.93  358.29   1 0.47925-0.92455-0.18394-0.26951 0.85818-0.26936
   6   4 -11 1996.42  552.13   1 0.46061-0.01449-0.53151 0.98515-0.71086 0.17104
   6  -4 -11 3911.25  776.44   1 0.34277 0.10391-0.86570 0.41181 0.36478-0.90532
   6  -4 -11 5040.38  911.82   1 0.64252-0.19515-0.63917 0.18502 0.42262-0.96316
  -6  -4  11 4753.47  887.27   1 0.46413-0.91075-0.19716-0.25630 0.86354-0.32379
   6   4 -1032051.45 2211.03   1 0.45732-0.00981-0.51920 0.97284-0.72199 0.23125
   6  -4 -1032764.06 2268.42   1 0.32049 0.12758-0.85010 0.39621 0.41785-0.90924
   6  -4 -1032426.51 2197.65   1 0.67727-0.22828-0.56056 0.10636 0.47651-0.96776
  -6  -4  1037173.10 2557.83   1 0.44574-0.89366-0.21290-0.24056 0.86947-0.37879
   6   4  -951906.24 8186.34   1 0.45217-0.00323-0.50158 0.95511-0.73753 0.29622
   6  -4  -950324.25 7946.06   1 0.29647 0.15287-0.83054 0.37651 0.47148-0.91370
   6  -4  -948455.07 2891.26   1 0.70473-0.25446-0.47756 0.02337 0.52467-0.96680
   6   4  -817676.89 1046.75   1 0.44518 0.00513-0.47733 0.93086-0.75759 0.36532
   6  -4  -820811.39 1354.47   1 0.27013 0.18060-0.80717 0.35314 0.52488-0.91796
   6  -4  -822292.39 1289.61   1 0.72484-0.27330-0.39146-0.06272 0.56687-0.95988
  -6  -4   822106.23 1341.08   1 0.39787-0.84843-0.25220-0.20125 0.88209-0.48954
   6   4  -7 3379.40  333.29   1 0.43522 0.01649-0.44444 0.89797-0.78297 0.43973
   6  -4  -7 5621.20  586.84   1 0.24169 0.21043-0.77950 0.32548 0.57788-0.92183
  -6  -4   7 5818.98  459.62   1 0.42667-0.87908-0.89118 0.43723 0.15408 0.18985
   6  -4  -7 5634.68  569.18   1 0.73833-0.28610-0.30260-0.15103 0.60273-0.94622
  -6  -4   7 6266.40  740.87   1 0.36764-0.81972-0.27600-0.17746 0.88806-0.54457
   6   4  -6 2001.05  283.93   1 0.42095 0.03215-0.40011 0.85364-0.81406 0.51986
   6  -4  -6 2135.22  388.46   1 0.21119 0.24233-0.74734 0.29332 0.62997-0.92478
  -6  -4   6 2245.26  245.04   1 0.44245-0.89619-0.88019 0.42624 0.17171 0.12308
   6  -4  -6 2003.57  311.50   1 0.74434-0.29082-0.21518-0.23845 0.63217-0.92658
  -6  -4   6 4157.95  493.65   1 0.33308-0.78646-0.30204-0.15142 0.89320-0.59878
  -6   4   510753.06  861.21   1-0.18016-0.27443 0.70924-0.25565-0.68155 0.92700
   6   4  -5 9027.61  707.65   1 0.40033 0.05415-0.34036 0.79389-0.85081 0.60564
  -6  -4   513215.88  969.32   1 0.44959-0.90465-0.87495 0.42100 0.17976 0.06590
   6  -4  -513290.65 1058.98   1 0.74412-0.28930-0.12953-0.32409 0.65535-0.90070
  -6  -4   515300.19 1864.36   1 0.29384-0.74852-0.33039-0.12307 0.89693-0.65158
  -6   4   465709.77 2799.93   1-0.14601-0.30997 0.66770-0.21411-0.72996 0.92631
  -6  -4   444114.97 1864.12   1 0.45103-0.90743-0.87387 0.41993 0.18139 0.01514
   6  -4  -448868.70 2160.47   1 0.73862-0.28271-0.04668-0.40676 0.67249-0.86868
  -6  -4   449197.82 2155.93   1 0.24980-0.70579-0.36071-0.09275 0.89859-0.70231
  -6   4   342627.95 2971.23   1-0.11039-0.34698 0.62173-0.16814-0.77540 0.92267
   6   4  -340897.37 1715.39   1 0.32526 0.13180-0.14968 0.60318-0.93370 0.78663
  -6  -4   344689.18 1909.49   1 0.44838-0.90610-0.87586 0.42191 0.17839-0.03098
   6  -4  -345835.76 1994.71   1 0.72846-0.27130 0.03129-0.48475 0.68436-0.83151
  -6  -4   349348.10 2146.29   1 0.20103-0.65832-0.39257-0.06089 0.89747-0.75026
  -6   4   2 5723.11  907.97   1-0.07372-0.38528 0.57205-0.11843-0.81689 0.91516
   6   4  -2 5563.48  652.36   1 0.25818 0.20058-0.00085 0.45442-0.96609 0.86790
  -6  -4   2 7073.58  825.68   1 0.43741-0.89630-0.89646 0.44258 0.07085 0.02737
  -6  -4   2 7267.04  887.37   1 0.44259-0.90165-0.88009 0.42614 0.17187-0.07360
   6  -4  -2 8538.53 1114.01   1 0.71480-0.25639 0.10396-0.55742 0.69155-0.78964
  -6  -4   2 8469.64 1284.94   1 0.14719-0.60657-0.42575-0.02846 0.89278-0.79451
   6  -4  -2 7731.52  877.16   1 0.41956 0.03887-0.23468-0.21878 0.87686-0.97499
   6  -4  -2 7629.66  866.81   1 0.82682-0.36769 0.25861-0.71240 0.49948-0.59773
  -6   4   174033.25 3791.49   1-0.03648-0.42389 0.51859-0.06497-0.85423 0.90337
  -6  -4   157937.60 2919.08   1 0.43431-0.89470-0.88596 0.43201 0.16258-0.11345
   6  -4  -161495.08 3130.79   1 0.69896-0.23954 0.17114-0.62445 0.69437-0.74341
  -6  -4   162809.41 3208.82   1 0.08979-0.55050-0.45886 0.00465 0.88395-0.83482
   6   4   019673.66  985.18   1 0.00352 0.45823 0.45824-0.00462-0.88881 0.88881
  -6   4   021119.28 1981.89   1 0.00072-0.46248 0.46257-0.00894-0.88658 0.88658
  -6  -4   016990.95  856.10   1 0.42829-0.88994-0.89735 0.44347 0.10640-0.10640
  -6  -4   016220.18  901.89   1 0.42395-0.88567-0.89299 0.43904 0.15106-0.15106
   6  -4   018832.05 1119.67   1 0.68125-0.22056 0.23159-0.68490 0.69444-0.69444
   6  -4   014441.28  744.04   1-0.08158 0.54347-0.54495 0.09095 0.83448-0.83448
  -6  -4   019897.32 2145.81   1 0.02892-0.49096-0.49152 0.03731 0.87038-0.87038
   6  -4   019361.57 1004.83   1 0.86628-0.40469 0.41948-0.87329 0.27127-0.27127
  -6   4  -123236.81 2023.21   1 0.03727-0.50041 0.40500 0.04861-0.91355 0.86441
  -6  -4  -116450.91  950.25   1 0.41183-0.87488-0.90079 0.44684 0.13770-0.18683
   6  -4   118178.03 1093.19   1 0.66283-0.20087 0.28566-0.73898 0.69213-0.64308
   6  -4   113781.54  718.05   1-0.20936 0.67264-0.59566 0.14166 0.77546-0.72628
  -6  -4  -119334.81 1790.26   1-0.03459-0.42876-0.52294 0.06873 0.85166-0.90079
   6  -4   117760.84  930.45   1 0.86619-0.40328 0.44294-0.89675 0.23129-0.18217
  -6   4  -290577.12 3838.10   1 0.07265-0.53704 0.34701 0.10660-0.93503 0.83679
  -6  -4  -287698.13 3669.94   1 0.39769-0.86216-0.90917 0.45553 0.12347-0.22172
   6  -4   2100610.3 4224.97   1 0.64442-0.18119 0.33347-0.78678 0.68812-0.59002
  -6  -4  -2102167.2 4280.88   1-0.09959-0.36508-0.55279 0.09879 0.82734-0.92571
   6  -4   2101880.9 4199.91   1 0.86535-0.40111 0.45549-0.90930 0.20901-0.11077
  -6   4  -349760.16 3104.50   1 0.10614-0.57188 0.28980 0.16381-0.95118 0.80380
  -6  -4  -342518.76 1862.17   1 0.38265-0.84845-0.91765 0.46401 0.10719-0.25457
   6  -4   348028.01 2152.87   1 0.62661-0.16211 0.37526-0.82857 0.68302-0.53589
  -6  -4  -345362.04 2027.69   1-0.16556-0.30050-0.57958 0.12558 0.79791-0.94547
   6  -4   346468.06 1969.03   1 0.86471-0.39915 0.46168-0.91549 0.19777-0.05040
  -6   4  -419423.56 2247.38   1 0.13735-0.60447 0.23444 0.21918-0.96237 0.76588
  -6  -4  -415744.77 1844.53   1 0.36640-0.83354-0.92611 0.47247 0.08980-0.28630
   6  -4   415221.56 1807.90   1 0.61042-0.14411 0.41133-0.86504 0.67689-0.48054
  -6  -4  -416085.88 1909.94   1-0.23113-0.23632-0.60313 0.14913 0.76341-0.96016
   6  -4   416120.44 1873.45   1 0.86446-0.39758 0.46375-0.91756 0.19398 0.00250
  -6   4  -510008.44 1225.00   1 0.16599-0.63446 0.18184 0.27177-0.96921 0.72359
  -6  -4  -5 8239.28  724.66   1 0.34905-0.81753-0.93437 0.48073 0.07144-0.31706
   6  -4   510077.61  870.28   1 0.59510-0.12748 0.44214-0.89585 0.67108-0.42565
   6  -4   510211.39  824.37   1 0.86457-0.39636 0.46291-0.91672 0.19551 0.05008
   6   4   511005.54  976.96   1 0.29380 0.17466 0.62387-0.17001-0.72419 0.96983
  -6   4  -6 1216.80  304.34   1 0.19172-0.66155 0.13284 0.32072-0.97241 0.67784
  -6  -4  -6  432.30  288.60   1 0.33069-0.80051-0.94229 0.48865 0.05223-0.34698
   6  -4   6  416.85  406.95   1 0.58140-0.11247 0.46810-0.92181 0.66546-0.37095
   6  -4   6  752.87  260.78   1 0.86491-0.39538 0.45991-0.91372 0.20101 0.09371
   6   4   6  831.11  333.69   1 0.35590 0.11393 0.63981-0.18595-0.68115 0.97593
  -6   4  -7 6914.26  814.27   1 0.21474-0.68595 0.08783 0.36573-0.97271 0.62904
  -6  -4  -7 7583.44  976.32   1 0.31139-0.78255-0.94973 0.49609 0.03229-0.37616
   6  -4   7 7568.27  997.96   1 0.56947-0.09924 0.48961-0.94332 0.66028-0.31667
   6  -4   7 6208.50  716.81   1 0.86538-0.39453 0.45520-0.90901 0.20954 0.13430
   6   4   7 6048.97  731.40   1 0.41508 0.05611 0.65180-0.19794-0.63470 0.97860
  -6   4  -8 8354.65 1039.68   1 0.23497-0.70756 0.04717 0.40639-0.97085 0.57809
  -6  -4  -8 6925.01  900.98   1 0.29122-0.76371-0.95658 0.50294 0.01170-0.40469
   6  -4   8 6685.51  871.07   1 0.55940-0.08786 0.50707-0.96078 0.65570-0.26301
   6  -4   8 7219.31  900.90   1 0.86585-0.39368 0.44910-0.90291 0.22045 0.17251
   6   4   8 6540.08  818.00   1 0.47084 0.00172 0.65991-0.20605-0.58550 0.97853
  -6   4  -9 2573.99  524.44   1 0.25252-0.72649 0.01099 0.44257-0.96752 0.52567
  -6  -4  -9 1113.69  478.86   1 0.27022-0.74405-0.96275 0.50911-0.00947-0.43264
   6  -4   9 1592.44  476.87   1 0.55119-0.07835 0.52082-0.97453 0.65185-0.21008
   6  -4   9 1613.56  432.25   1 0.86624-0.39275 0.44181-0.89562 0.23327 0.20881
   6   4   9 3065.37  607.85   1 0.52255-0.04889 0.66450-0.21065-0.53420 0.97633
  -6   4 -1011288.36 1037.35   1 0.26756-0.74291-0.02071 0.47428-0.96331 0.47237
  -6  -4 -1013716.55 1253.84   1 0.24843-0.72361-0.96814 0.51450-0.03116-0.46007
   6  -4  1013954.61 1298.14   1 0.54485-0.07071 0.53120-0.98491 0.64880-0.15794
   6  -4  1012351.82 1108.41   1 0.86645-0.39164 0.43348-0.88729 0.24766 0.24354
   6   4  1010698.62  988.43   1 0.57055-0.09555 0.66534-0.21149-0.48143 0.97269
  -6   4 -11 8548.51  898.74   1 0.28027-0.75700-0.04807 0.50164-0.95871 0.41867
  -6  -4 -11 8626.06  953.18   1 0.22567-0.70239-0.97275 0.51862-0.05307-0.48751
   6  -4  11 7564.27  800.24   1 0.54033-0.06488 0.53846-0.99217 0.64659-0.10665
   6  -4  11 8173.93  819.17   1 0.86641-0.39028 0.42423-0.87804 0.26334 0.27698
   6   4  1110116.02  949.59   1 0.61449-0.13814 0.66291-0.20906-0.42770 0.96809
  -6   4 -12 2288.01  526.51   1 0.29086-0.76897-0.07127 0.52484-0.95410 0.36497
  -6  -4 -12 1762.02  508.61   1 0.20239-0.68046-0.97637 0.52223-0.07569-0.51403
   6  -4  12 1133.62  410.81   1 0.53756-0.06081 0.54285-0.99656 0.64523-0.05620
   6  -4  12 3634.29  751.77   1 0.86604-0.38859 0.41412-0.86793 0.28011 0.30933
   6   4  12 1408.95  485.10   1 0.65439-0.17669 0.65749-0.20364-0.37345 0.96296
  -6   4 -13 2015.58  532.83   1 0.29922-0.77895-0.09008 0.54359-0.94991 0.31263
  -6  -4 -13 2018.69  646.29   1 0.17841-0.65782-0.97899 0.52485-0.09870-0.54018
   6  -4  13  589.58  379.08   1 0.53648-0.05842 0.54456-0.99827 0.64469-0.00657
   6  -4  13 1520.07  525.61   1 0.86529-0.38651 0.40321-0.85702 0.29780 0.34076
   6   4  13 1173.57  360.40   1 0.69030-0.21109 0.64952-0.19552-0.31874 0.95770
   6   5 -11 2091.21  510.79   1 0.41852 0.02761-0.39284 0.95975-0.81884 0.27947
   6  -5 -11 1750.48  579.67   1 0.32389 0.12279-0.85263 0.28526 0.41001-0.95054
   6  -5 -11  628.31  203.64   1 0.65213-0.20476-0.61954 0.05185 0.43690-0.97743
  -6  -5  11 1209.25  366.06   1 0.43171-0.87833-0.22465-0.34217 0.87358-0.33383
   6   5 -10  934.51  401.76   1 0.41153 0.03600-0.37226 0.93916-0.83190 0.34156
   6  -5 -10  589.74  365.65   1 0.30135 0.14660-0.83460 0.26707 0.46110-0.95245
  -6  -5  10 1071.99  381.69   1 0.41376-0.86169-0.23941-0.32741 0.87833-0.38765
   6   5  -9 1114.12  355.15   1 0.40217 0.04675-0.34552 0.91242-0.84786 0.40655
   6  -5  -9 1028.30  396.93   1 0.27688 0.17246-0.81337 0.24584 0.51162-0.95384
   6  -5  -9 2801.87  678.40   1 0.70314-0.25287-0.48316-0.08457 0.52166-0.96379
  -6  -5   9 2047.29  522.48   1 0.39254-0.84178-0.25644-0.31038 0.88325-0.44164
   6   5  -818390.79 1548.45   1 0.38977 0.06054-0.31130 0.87821-0.86669 0.47442
   6  -5  -814045.85 1326.46   1 0.25077 0.19996-0.78859 0.22106 0.56145-0.95453
   6  -5  -813904.12 1238.48   1 0.72073-0.26918-0.41208-0.15564 0.55742-0.95042
  -6  -5   816446.82 1674.76   1 0.36769-0.81846-0.27596-0.29087 0.88805-0.49549
   6   5  -720835.26 1442.01   1 0.37333 0.07807-0.26790 0.83477-0.88817 0.54502
   6  -5  -725689.45 1806.81   1 0.22308 0.22904-0.76017 0.19265 0.61021-0.95416
   6  -5  -727955.33 1939.78   1 0.73383-0.28161-0.33916-0.22787 0.58859-0.93207
  -6  -5   726726.22 2485.95   1 0.33921-0.79128-0.29750-0.26932 0.89242-0.54893
   6   5  -630323.46 2048.86   1 0.35173 0.10108-0.21329 0.78017-0.91147 0.61734
   6  -5  -627246.85 1890.24   1 0.19392 0.25959-0.72810 0.16057 0.65746-0.95227
  -6  -5   626860.11 1795.74   1 0.51291-0.96664-0.82018 0.25274 0.25342 0.04138
   6  -5  -631065.18 2139.91   1 0.74151-0.28799-0.26767-0.29936 0.61522-0.90963
  -6  -5   632073.39 2529.12   1 0.30676-0.76014-0.32119-0.24564 0.89594-0.60152
  -6   5   511253.13  854.33   1-0.16502-0.28957 0.69114-0.12415-0.70362 0.94906
   6   5  -510327.73 1665.55   1 0.32323 0.13100-0.14493 0.71180-0.93515 0.69004
  -6  -5   5 5388.14  661.42   1 0.51227-0.96734-0.82081 0.25337 0.25266-0.00699
   6  -5  -5 5288.27  729.84   1 0.74478-0.28996-0.19741-0.36962 0.63743-0.88277
  -6  -5   5 7681.16 1061.79   1 0.27020-0.72488-0.34686-0.21997 0.89815-0.65280
  -6   5   4  843.64  267.98   1-0.13355-0.32242 0.65193-0.08494-0.74641 0.94277
   6   5  -4 1221.31  247.87   1 0.28588 0.17012-0.06031 0.62727-0.95636 0.75998
  -6  -5   4 2501.38  324.79   1 0.50863-0.96503-0.82439 0.25695 0.24830-0.05177
   6  -5  -4 3072.86  567.42   1 0.74411-0.28800-0.12925-0.43778 0.65542-0.85170
  -6  -5   4 3021.04  625.94   1 0.22943-0.68541-0.37424-0.19259 0.89850-0.70221
  -6   5   3 7774.08 1027.22   1-0.10130-0.35608 0.60959-0.04260-0.78621 0.93348
   6   5  -3 7612.00  819.57   1 0.23642 0.22096 0.04422 0.52273-0.97064 0.82335
  -6  -5   3 6963.93  780.16   1 0.50256-0.96028-0.83024 0.26281 0.24107-0.09367
   6  -5  -3 8417.50  965.28   1 0.74021-0.28305-0.06360-0.50320 0.66934-0.81649
  -6  -5   3 7811.73 1341.63   1 0.18446-0.64175-0.40300-0.16383 0.89641-0.74920
  -6   5   2 1265.59  236.34   1-0.06857-0.39043 0.56482 0.00220-0.82235 0.92063
   6   5  -2 1031.57  221.12   1 0.17214 0.28678 0.17031 0.39672-0.97023 0.87198
  -6  -5   2 2598.79  350.85   1 0.49443-0.95349-0.83782 0.27039 0.23147-0.13320
   6  -5  -2 3732.03  621.82   1 0.73335-0.27493-0.00182-0.56498 0.67984-0.77794
  -6  -5   2 2463.00  463.73   1 0.13484-0.59421-0.43307-0.13469 0.89121-0.79294
  -6   5   111585.57 1488.59   1-0.03578-0.42459 0.51756 0.04946-0.85489 0.90402
   6   5  -110975.69 1215.72   1 0.09002 0.37027 0.31761 0.24941-0.94393 0.89481
  -6  -5   110315.65 1223.76   1 0.48452-0.94491-0.84669 0.27925 0.21986-0.17073
   6  -5  -111674.41  810.98   1 0.72428-0.26462 0.05597-0.62279 0.68722-0.73627
  -6  -5   1 9387.33 1399.07   1 0.08207-0.54277-0.46315-0.10461 0.88247-0.83333
  -6   5   033477.22 3001.99   1-0.00333-0.45842 0.46881 0.09821-0.88329 0.88329
   6   5   030166.46 2095.48   1-0.01098 0.47274 0.48047 0.08655-0.87693 0.87693
  -6  -5   020196.33 1488.06   1 0.47304-0.93476-0.85648 0.28904 0.20655-0.20655
   6  -5   024674.41 1863.69   1 0.71360-0.25269 0.10946-0.67628 0.69194-0.69194
  -6  -5   022750.92 1950.14   1 0.02599-0.48803-0.49303-0.07473 0.86962-0.86962
  -6   5  -1 1038.62  298.36   1 0.02834-0.49148 0.41930 0.14772-0.90740 0.85826
  -6  -5  -1 1788.24  306.86   1 0.46015-0.92320-0.86688 0.29944 0.19175-0.24089
   6  -5   1 1943.22  401.87   1 0.70221-0.24025 0.15881-0.72545 0.69402-0.64497
  -6  -5  -1 1605.90  338.24   1-0.03277-0.43057-0.52208-0.04567 0.85226-0.90139
   6  -5   1 3124.20  365.96   1 0.81782-0.35465 0.23830-0.80553 0.52381-0.47468
  -6   5  -211029.48 1126.61   1 0.05895-0.52333 0.36980 0.19722-0.92723 0.82898
  -6  -5  -2 9620.50 1122.39   1 0.44596-0.91034-0.87764 0.31020 0.17566-0.27393
   6  -5   210261.83 1209.20   1 0.68995-0.22672 0.20315-0.76979 0.69475-0.59666
  -6  -5  -2 9687.92 1567.54   1-0.09322-0.37145-0.55004-0.01745 0.82991-0.92828
   6  -5   2 9517.13 1009.53   1 0.83699-0.37248 0.28410-0.85134 0.46767-0.36942
  -6   5  -318110.25 1718.08   1 0.08796-0.55371 0.32112 0.24590-0.94294 0.79556
  -6  -5  -314459.04  956.98   1 0.43059-0.89630-0.88853 0.32109 0.15844-0.30584
   6  -5   317676.81 1134.36   1 0.67760-0.21310 0.24290-0.80954 0.69415-0.54701
  -6  -5  -317096.41 1528.74   1-0.15523-0.31083-0.57559 0.00808 0.80286-0.95042
   6  -5   317407.81 1009.61   1 0.84698-0.38111 0.31316-0.88039 0.42959-0.28222
  -6   5  -4 4148.60  761.98   1 0.11518-0.58229 0.27397 0.29305-0.95481 0.75831
  -6  -5  -4 3679.99  606.84   1 0.41411-0.88115-0.89936 0.33192 0.14020-0.33674
   6  -5   4 3378.17  644.24   1 0.66554-0.19977 0.27814-0.84479 0.69259-0.49640
  -6  -5  -4 2479.62  462.36   1-0.21752-0.24993-0.59850 0.03100 0.77101-0.96776
   6  -5   4 2876.45  408.79   1 0.85247-0.38526 0.33197-0.89921 0.40383-0.20733
  -6   5  -512720.94 1648.41   1 0.14038-0.60885 0.22896 0.33806-0.96325 0.71763
  -6  -5  -512479.94  927.86   1 0.39603-0.86451-0.91014 0.34309 0.12166-0.36729
   6  -5   511585.25  865.33   1 0.65408-0.18704 0.30904-0.87568 0.69040-0.44517
   6  -5   513752.36  922.86   1 0.85554-0.38698 0.34395-0.91118 0.38696-0.14134
  -6   5  -6 1470.36  390.77   1 0.16342-0.63326 0.18663 0.38040-0.96874 0.67399
  -6  -5  -6  421.20  389.91   1 0.37751-0.84733-0.92040 0.35335 0.10168-0.39642
   6  -5   6  333.88  356.33   1 0.64347-0.17517 0.33579-0.90243 0.68787-0.39360
   6  -5   6  903.63  364.88   1 0.85720-0.38730 0.35106-0.91829 0.37676-0.08201
   6   5   6 2154.44  686.28   1 0.33798 0.13184 0.63555-0.06822-0.69414 0.98891
  -6   5  -710994.82 1087.33   1 0.18412-0.65533 0.14743 0.41953-0.97178 0.62812
  -6  -5  -7 8984.46  923.23   1 0.35808-0.82924-0.93017 0.36312 0.08097-0.42484
   6  -5   7 9376.05  917.12   1 0.63391-0.16433 0.35860-0.92524 0.68524-0.34191
   6  -5   7 8855.74  822.93   1 0.85797-0.38672 0.35453-0.92177 0.37172-0.02785
   6   5   712321.08 1159.77   1 0.39637 0.07482 0.64837-0.08104-0.64999 0.99389
  -6   5  -826802.78 1832.21   1 0.20272-0.67530 0.11151 0.45544-0.97286 0.58011
  -6  -5  -825109.96 1746.33   1 0.33777-0.81027-0.93933 0.37228 0.05962-0.45261
   6  -5   828830.36 1936.22   1 0.85811-0.38551 0.35519-0.92243 0.37077 0.02222
   6   5   829698.02 2011.26   1 0.45209 0.02046 0.65756-0.09023-0.60267 0.99571
  -6   5  -9 1629.18  501.99   1 0.21914-0.69311 0.07908 0.48787-0.97248 0.53063
  -6  -5  -9 2655.81  697.69   1 0.31662-0.79045-0.94780 0.38075 0.03767-0.47979
   6  -5   9 1671.96  511.44   1 0.61906-0.14623 0.39302-0.96015 0.67991-0.23814
   6  -5   9 2441.48  562.21   1 0.85776-0.38382 0.35358-0.92082 0.37310 0.06901
   6   5   9 1388.31  475.30   1 0.50438-0.03072 0.66336-0.09604-0.55276 0.99490
  -6   5 -10 9243.62  803.24   1 0.23348-0.70883 0.05020 0.51675-0.97106 0.48011
   6  -5  10 9588.29  913.03   1 0.61330-0.13916 0.40530-0.97244 0.67792-0.18706
   6  -5  10 7429.07  700.08   1 0.85698-0.38169 0.35010-0.91734 0.37814 0.11310
   6   5  10 7923.06  750.43   1 0.55352-0.07851 0.66543-0.09811-0.50080 0.99207
  -6   5 -11  373.01  290.81   1 0.24585-0.72258 0.02485 0.54210-0.96898 0.42894
  -6  -5 -11 1875.16  589.04   1 0.27191-0.74842-0.96229 0.39524-0.00778-0.53258
   6  -5  11 1003.03  438.54   1 0.60890-0.13345 0.41448-0.98162 0.67634-0.13639
   6  -5  11  490.00  319.12   1 0.85580-0.37916 0.34502-0.91226 0.38543 0.15494
   6   5  11  532.60  382.58   1 0.59898-0.12263 0.66416-0.09684-0.44732 0.98771
   6   6  -8 4194.50  587.61   1 0.32610 0.12388-0.15164 0.83190-0.93309 0.54091
   6  -6  -8 4522.46  739.58   1 0.24065 0.21008-0.77845 0.09742 0.57973-0.97281
   6  -6  -8 7480.13 1018.83   1 0.71364-0.26210-0.44345-0.23783 0.54227-0.93527
  -6  -6   8 3928.62  786.70   1 0.32904-0.77981-0.30502-0.37517 0.89369-0.50113
   6   6  -7 5128.49  982.54   1 0.30524 0.14616-0.10362 0.78387-0.94661 0.60346
   6  -6  -7 4144.82  792.08   1 0.21431 0.23782-0.75075 0.06971 0.62485-0.96880
   6  -6  -7 5184.59 1075.05   1 0.72639-0.27357-0.38311-0.29816 0.57059-0.91447
  -6  -6   7 4855.36 1218.86   1 0.30162-0.75369-0.32487-0.35533 0.89637-0.55287
  -6   6   6  -94.39  310.33   1-0.18847-0.26472 0.71895-0.03856-0.66901 0.96355
   6   6  -6  451.87  189.47   1 0.27956 0.17368-0.04653 0.72688-0.95899 0.66443
  -6  -6   6  137.38  178.49   1 0.54011-0.99385-0.79130 0.11038 0.28653 0.00826
   6  -6  -6  258.44  331.82   1 0.73609-0.28257-0.32204-0.35841 0.59536-0.88977
  -6  -6   6  234.84  255.31   1 0.27064-0.72402-0.34655-0.33364 0.89813-0.60371
  -6   6   513548.26 1224.82   1-0.16032-0.29426 0.68543-0.00504-0.71026 0.95571
   6   6  -514286.46 1233.05   1 0.24747 0.20715 0.02149 0.65885-0.96865 0.72318
  -6  -6   512988.15 1126.32   1 0.53780-0.99286-0.79391 0.11298 0.28367-0.03800
   6  -6  -514197.66 1311.59   1 0.74186-0.28704-0.26299-0.41745 0.61682-0.86216
  -6  -6   515053.54 2224.09   1 0.23597-0.69065-0.36993-0.31027 0.89859-0.65323
  -6   6   411794.85 1317.87   1-0.13153-0.32445 0.64934 0.03104-0.74903 0.94539
  -6  -6   411387.40  828.05   1 0.53326-0.98965-0.79893 0.11801 0.27809-0.08155
   6  -6  -416419.33 1283.89   1 0.74461-0.28850-0.20546-0.47498 0.63508-0.83135
  -6  -6   413473.88 1348.63   1 0.19756-0.65354-0.39477-0.28542 0.89728-0.70100
  -6   6   3 4705.36  987.20   1-0.10233-0.35504 0.61098 0.06940-0.78500 0.93226
  -6  -6   3 8960.98  744.66   1 0.52680-0.98453-0.80589 0.12497 0.27020-0.12280
   6  -6  -3 8748.17  793.10   1 0.74471-0.28730-0.14997-0.53048 0.65031-0.79752
  -6  -6   2 7443.19 1284.63   1 0.51865-0.97771-0.81438 0.13346 0.26033-0.16206
   6  -6  -2 6545.83 1155.88   1 0.74269-0.28427-0.09665-0.58351 0.66262-0.76071
  -6  -6   2 7112.20 1407.65   1 0.10893-0.56831-0.44807-0.23324 0.88733-0.78906
  -6   6   1 4381.16  935.76   1-0.04379-0.41659 0.52929 0.15113-0.84730 0.89644
  -6  -6   1 3373.14  627.64   1 0.50898-0.96936-0.82406 0.14313 0.24872-0.19958
   6  -6  -1 3172.58  643.41   1 0.73861-0.27894-0.04652-0.63365 0.67252-0.72157
  -6  -6   1 3132.81  636.54   1 0.05975-0.52046-0.47529-0.20602 0.87779-0.82865
  -6   6   0 1804.49  449.48   1-0.01507-0.44669 0.48667 0.19376-0.87345 0.87345
  -6  -6   0 1936.24  496.73   1 0.49790-0.95962-0.83462 0.15369 0.23556-0.23556
   6  -6   0 1928.51  421.83   1 0.73303-0.27212 0.00047-0.68065 0.68018-0.68018
  -6  -6   0 1396.77  342.36   1 0.00751-0.46955-0.50242-0.17890 0.86459-0.86459
  -6   6  -1 8175.11 1277.65   1 0.01289-0.47603 0.44367 0.23675-0.89609 0.84695
  -6  -6  -1 6883.69 1234.11   1 0.48553-0.94858-0.84580 0.16488 0.22104-0.27017
   6  -6   1 5119.75  956.18   1 0.72635-0.26419 0.04412-0.72430 0.68590-0.63685
  -6  -6  -1 5821.99 1347.71   1-0.04732-0.41603-0.52891-0.15240 0.84735-0.89648
  -6   6  -210045.96  953.54   1 0.03983-0.50435 0.40088 0.27955-0.91526 0.81699
  -6  -6  -211631.08  966.28   1 0.47195-0.93633-0.85739 0.17646 0.20528-0.30355
   6  -6   213557.42 1125.45   1 0.71890-0.25550 0.08428-0.76445 0.68997-0.59187
  -6  -6  -211788.47 1349.56   1-0.10378-0.36088-0.55458-0.12641 0.82562-0.92400
  -6   6  -3 8102.88 1052.04   1 0.06559-0.53134 0.35881 0.32162-0.93110 0.78373
  -6  -6  -3 6564.03 1162.69   1 0.45721-0.92292-0.86916 0.18824 0.18841-0.33581
   6  -6   3 6824.21 1266.58   1 0.71104-0.24638 0.12087-0.80105 0.69268-0.54553
  -6  -6  -3 5344.51 1109.60   1-0.16212-0.30393-0.57826-0.10273 0.79957-0.94713
  -6   6  -417366.56 1817.66   1 0.08979-0.55690 0.31801 0.36242-0.94382 0.74732
  -6  -6  -417935.97 1612.78   1 0.44139-0.90843-0.88096 0.20003 0.17052-0.36705
   6  -6   418454.34 1754.85   1 0.70340-0.23763 0.15420-0.83417 0.69386-0.49767
  -6  -6  -416129.07 1442.30   1-0.22113-0.24632-0.59974-0.08125 0.76902-0.96577
  -6   6  -5  433.09  270.76   1 0.11237-0.58084 0.27891 0.40152-0.95371 0.70809
  -6  -6  -5 1190.06  393.26   1 0.42453-0.89290-0.89261 0.21168 0.15170-0.39737
   6  -6   5  514.18  391.63   1 0.69554-0.22850 0.18365-0.86362 0.69461-0.44938
   6  -6   5  711.22  208.61   1 0.80369-0.33436 0.20848-0.88945 0.55732-0.31155
  -6   6  -6 1106.56  328.76   1 0.13320-0.60304 0.24191 0.43851-0.96110 0.66636
  -6  -6  -6 1594.26  495.06   1 0.40612-0.87594-0.90413 0.22367 0.13267-0.42742
   6  -6   6 1824.80  664.22   1 0.68804-0.21973 0.20960-0.88957 0.69473-0.40046
   6  -6   6 1198.97  351.69   1 0.81301-0.34228 0.22714-0.90811 0.53610-0.24118
   6   6   6 1325.43  465.25   1 0.33644 0.13338 0.63517 0.04561-0.69524 0.99001
  -6   6  -7 1782.86  458.15   1 0.15224-0.62344 0.20732 0.47311-0.96635 0.62248
  -6  -6  -7  786.86  342.32   1 0.38729-0.85845-0.91510 0.23464 0.11220-0.45607
   6  -6   7  489.91  240.21   1 0.81860-0.34735 0.24001-0.92069 0.52179-0.17792
   6   6   7 1403.92  406.17   1 0.39323 0.07796 0.64776 0.03302-0.65250 0.99640
  -6   6  -8 2272.54  611.63   1 0.16945-0.64201 0.17536 0.50507-0.96980 0.57681
  -6  -6  -8 2325.53  597.45   1 0.36754-0.84003-0.92554 0.24508 0.09101-0.48401
   6  -6   8 2429.66  638.11   1 0.67478-0.20393 0.25143-0.93140 0.69386-0.30149
   6  -6   8 2587.55  566.26   1 0.82246-0.34987 0.24857-0.92925 0.51161-0.11862
   6   6   8  937.03  313.25   1 0.44795 0.02460 0.65698 0.02380-0.60638 0.99941
  -6   7   2  762.30  259.65   1-0.08431-0.37446 0.58644 0.20733-0.80558 0.90376
  -6  -7   2  908.14  338.81   1 0.52612-0.98517-0.80662 0.01220 0.26937-0.17110
   6  -7  -2 1322.95  518.18   1 0.74494-0.28624-0.18433-0.60952 0.64115-0.73928
  -6   7   1 2101.79  534.23   1-0.05803-0.40234 0.54985 0.24398-0.83324 0.88237
  -6  -7   1  394.02  367.66   1 0.51719-0.97758-0.81587 0.02145 0.25857-0.20944
   6  -7  -1 1349.93  430.16   1 0.74448-0.28448-0.14067-0.65319 0.65264-0.70171
  -6  -7   1 1073.17  302.91   1 0.02530-0.48601-0.49339-0.30148 0.86943-0.82030
  -6   7   012782.09 2026.60   1-0.03230-0.42946 0.51242 0.28141-0.85812 0.85812
  -6  -7   011697.11 1426.59   1 0.50695-0.96867-0.82603 0.03161 0.24630-0.24630
   6  -7   012998.83 1647.82   1 0.74284-0.28193-0.09916-0.69438 0.66207-0.66207
  -6  -7   0 9801.01 1728.55   1-0.02387-0.43815-0.51783-0.27703 0.85514-0.85514
  -6   7  -1 5926.64 1223.73   1-0.00727-0.45586 0.47482 0.31901-0.88004 0.83091
  -6  -7  -1 4909.26  691.07   1 0.49547-0.95852-0.83687 0.04246 0.23269-0.28183
   6  -7   1 6595.99  951.61   1 0.73994-0.27778-0.06051-0.73302 0.66993-0.62089
  -6  -7  -1 5975.30  902.13   1-0.07489-0.38838-0.54199-0.25251 0.83703-0.88622
   7   0 -1531165.83 2345.48   1 0.48771 0.03075-0.84790 0.84790-0.20784-0.52926
  -7   0  1528932.55 2049.72   1 0.45087-0.96908-0.20854 0.20854 0.86788-0.13185
   7   0 -14 8884.11 1013.82   1 0.48377 0.03605-0.85755 0.85755-0.17483-0.51313
  -7   0  14 7761.11  740.24   1 0.43859-0.95810-0.21892 0.21892 0.87161-0.18466
   7   0 -13 2649.76  607.55   1 0.47917 0.04201-0.86630 0.86630-0.14108-0.49774
  -7   0  13 2441.15  500.23   1 0.42208-0.94291-0.23261 0.23261 0.87620-0.23831
   7   0 -1225815.40 1847.63   1 0.47386 0.04869-0.87413 0.87413-0.10645-0.48322
  -7   0  1223985.05 1641.65   1 0.40088-0.92303-0.24980 0.24980 0.88141-0.29259
   7   0 -11 7294.29  977.04   1 0.46778 0.05613-0.88100 0.88100-0.07078-0.46976
  -7   0  11 6476.99  749.31   1 0.37446-0.89792-0.27061 0.27061 0.88687-0.34712
   7   0 -1030906.64 2275.34   1 0.46068 0.06410-0.88692 0.88692-0.03367-0.45744
  -7   0  1029452.33 2094.23   1 0.34191-0.86694-0.29549 0.29549 0.89206-0.40136
   7   0  -923698.35 1521.21   1 0.45274 0.07342-0.89162 0.89162 0.00476-0.44677
  -7   0   923302.51 1969.44   1 0.30354-0.82987-0.32350 0.32350 0.89621-0.45458
   7   0  -853989.28 2360.52   1 0.44364 0.08390-0.89506 0.89506 0.04506-0.43796
  -7   0   852284.48 2222.08   1 0.25861-0.78624-0.35477 0.35477 0.89847-0.50591
   7   0  -781679.89 4116.78   1 0.43317 0.09575-0.89703 0.89703 0.08767-0.43146
  -7   0   775841.14 3793.71   1 0.20701-0.73595-0.38876 0.38876 0.89777-0.55428
   7   0  -666955.41 2278.94   1 0.42101 0.10929-0.89722 0.89722 0.13316-0.42783
   7   0  -654272.36 1747.80   1 0.44288 0.08780-0.87988 0.87988 0.17219-0.46700
   7   0  -657981.87 1866.22   1 0.72716-0.19692 0.03930-0.03930 0.68534-0.97963
  -7   0   661909.84 2085.32   1 0.14831-0.67938-0.42508 0.42508 0.89292-0.59810
   7   0  -535857.26 1295.84   1 0.40673 0.12495-0.89517 0.89517 0.18227-0.42783
   7   0  -528604.76  965.48   1 0.36205 0.17001-0.92825 0.92825 0.08517-0.33080
   7   0  -532018.66 1067.87   1 0.63926-0.10813 0.34599-0.34599 0.68675-0.93198
  -7   0   532674.54 1215.06   1 0.08455-0.61695-0.46177 0.46177 0.88295-0.63727
   7   0  -425734.03  982.19   1 0.38991 0.14346-0.89007 0.89007 0.23609-0.43265
   7   0  -419781.83  709.98   1 0.31686 0.21653-0.94771 0.94771 0.03793-0.23442
   7   0  -423592.56  807.02   1 0.54097-0.00825 0.53744-0.53744 0.64691-0.84325
  -7   0   423122.13 1593.05   1 0.01621-0.54994-0.49803 0.49803 0.86700-0.67046
   7   0  -3 3593.95  451.68   1 0.03595 0.49862 0.40712-0.40712-0.91266 0.76525
   7   0  -3 5036.35  325.40   1 0.36922 0.16554-0.88103 0.88103 0.29572-0.44314
  -7   0   3 4574.93  249.91   1-0.45275-0.08228-0.66102 0.66102-0.59838 0.74584
   7   0  -3 4174.51  244.07   1 0.29078 0.24396-0.95672 0.95672 0.01125-0.15862
  -7   0   3 4432.16  693.20   1-0.05514-0.47991-0.53253 0.53253 0.84460-0.69720
   7   0  -225791.38 1710.27   1 0.10281 0.43306 0.29558-0.29558-0.94976 0.85151
   7   0  -230535.86 2039.81   1 0.34358 0.19257-0.86622 0.86622 0.36277-0.46105
  -7   0   228142.32 1899.22   1-0.37831-0.15807-0.74332 0.74332-0.55168 0.64999
   7   0  -225472.26 1706.92   1 0.27645 0.25962-0.96102 0.96102-0.00321-0.09503
  -7   0   228376.89 2052.82   1-0.12740-0.40867-0.56445 0.56445 0.81556-0.71719
   7   0  -1171378.2 5767.98   1 0.18197 0.35510 0.15153-0.15153-0.97155 0.92246
   7   0  -1189566.8 6393.40   1 0.31117 0.22628-0.84252 0.84252 0.43969-0.48882
  -7   0   1189704.2 6417.45   1-0.31746-0.21972-0.79941 0.79941-0.51004 0.55915
  -7   0   1183621.9 6366.01   1-0.19954-0.33793-0.59218 0.59218 0.78070-0.73152
   7   0   019140.88 1274.03   1 0.26922 0.26922-0.02427 0.02427-0.96277 0.96277
   7   0   018624.52 1258.14   1 0.26942 0.26942-0.80650 0.80650 0.52626-0.52626
  -7   0   019853.78 1350.54   1-0.26925-0.26925-0.83744 0.83744-0.47559 0.47559
  -7   0   018465.09 1267.26   1-0.26943-0.26943-0.61540 0.61540 0.74072-0.74072
   7   0   1  278.06  110.42   1 0.35458 0.18503-0.22034 0.22034-0.90868 0.95771
   7   0   1  199.54  163.20   1 0.21573 0.32450-0.75229 0.75229 0.62250-0.57336
  -7   0  -1  571.48  214.57   1-0.23142-0.30839-0.86376 0.86376-0.44760 0.39850
   7   0   1 1072.20  376.37   1 0.33553 0.20442 0.63494-0.63494-0.69589 0.74502
  -7   0  -2 2161.48  276.40   1-0.14750-0.39377 0.66958-0.66958-0.72794 0.62976
   7   0   2 1773.50  127.32   1 0.42535 0.11579-0.41348 0.41348-0.80505 0.90311
  -7   0  -2 2408.92  390.90   1-0.20226-0.33888-0.88207 0.88207-0.42548 0.32727
   7   0   2 2575.56  386.38   1 0.39741 0.14391 0.64857-0.64857-0.64916 0.74742
  -7   0  -324617.94  833.42   1-0.06796-0.47489 0.56396-0.56396-0.82300 0.67559
   7   0   322694.79  765.59   1 0.47202 0.07046-0.57736 0.57736-0.66622 0.81344
  -7   0  -326590.63  992.77   1-0.18028-0.36217-0.89476 0.89476-0.40852 0.26120
   7   0   325401.49  965.23   1 0.45445 0.08822 0.65787-0.65787-0.60055 0.74793
  -7   0  -474078.42 2379.54   1 0.01716-0.56139 0.43699-0.43699-0.89930 0.70275
   7   0   467242.93 2165.74   1 0.49439 0.05024-0.69886 0.69886-0.51687 0.71348
  -7   0  -478875.55 2647.59   1-0.16431-0.37946-0.90341 0.90341-0.39603 0.19960
   7   0   472332.85 2422.57   1 0.50641 0.03741 0.66351-0.66351-0.55072 0.74723
  -7   0  -514817.32 1533.27   1 0.09893-0.64434 0.30231-0.30231-0.94806 0.70243
   7   0   512897.05 1335.46   1 0.49861 0.04740-0.77989 0.77989-0.37834 0.62410
  -7   0  -518249.08 2116.62   1-0.15335-0.39174-0.90907 0.90907-0.38738 0.14185
   7   0   514778.86 1628.90   1 0.55355-0.00837 0.66543-0.66543-0.50077 0.74640
  -7   0  -622564.16 1166.29   1 0.16999-0.71677 0.17435-0.17435-0.96989 0.67515
   7   0   621047.83 2162.89   1 0.49271 0.05438-0.83066 0.83066-0.25926 0.55410
  -7   0  -626182.51 1473.37   1-0.14666-0.39994-0.91236 0.91236-0.38221 0.08743
   7   0   623018.17 1316.08   1 0.59599-0.04947 0.66435-0.66435-0.45102 0.74578
  -7   0  -7 7920.20  466.22   1 0.22748-0.77561 0.06236-0.06236-0.97178 0.62812
   7   0   7 6769.97  415.88   1 0.48164 0.06682-0.86187 0.86187-0.15872 0.50270
  -7   0  -7 9993.38 1150.53   1-0.14355-0.40438-0.91388 0.91388-0.37973 0.03583
   7   0   7 8007.60  618.43   1 0.63406-0.08619 0.66068-0.66068-0.40181 0.74569
  -7   0  -8 1063.76  201.07   1 0.27226-0.82178-0.03078 0.03078-0.96172 0.56897
   7   0   8 1442.62  428.75   1 0.66810-0.11861 0.65495-0.65495-0.35309 0.74630
  -7   0  -9 1217.56  197.67   1 0.30570-0.85665-0.10467 0.10467-0.94635 0.50516
  -7   0  -9 1508.78  343.61   1-0.14620-0.40440-0.91258 0.91258-0.38184-0.06032
   7   0   9  979.57  559.24   1 0.69842-0.14760 0.64717-0.64717-0.30556 0.74791
  -7   0 -10 5460.06  617.94   1 0.33107-0.88344-0.16337 0.16337-0.92935 0.43913
  -7   0 -10 6792.06 1191.30   1-0.15114-0.40055-0.91018 0.91018-0.38563-0.10543
   7   0  10 5472.10  843.87   1 0.72540-0.17323 0.63773-0.63773-0.25901 0.75052
  -7   0 -1114667.57  933.33   1 0.34985-0.90363-0.20866 0.20866-0.91326 0.37403
  -7   0 -1115753.72 1211.31   1-0.15819-0.39481-0.90660 0.90660-0.39121-0.14896
   7   0  1115753.02 1166.97   1 0.74932-0.19581 0.62685-0.62685-0.21346 0.75412
  -7   0 -1219673.93 1633.99   1 0.36361-0.91880-0.24299 0.24299-0.89929 0.31104
  -7   0 -1218691.98 2667.13   1-0.16707-0.38725-0.90195 0.90195-0.39820-0.19108
   7   0  1218632.74 1602.46   1 0.77046-0.21561 0.61470-0.61470-0.16890 0.75871
  -7   0 -13  738.98  300.10   1 0.37351-0.93012-0.26838 0.26838-0.88795 0.25067
  -7   0 -13 -214.08  310.29   1-0.17760-0.37805-0.89625 0.89625-0.40643-0.23196
   7   0  13  474.81  380.13   1 0.78891-0.23310 0.60158-0.60158-0.12532 0.76403
  -7   0 -14 5744.81 1290.61   1-0.18961-0.36735-0.88949 0.88949-0.41575-0.27175
   7   0  14 7694.22  798.20   1 0.80516-0.24803 0.58726-0.58726-0.08260 0.77044
   7   1 -15 8137.42 1119.18   1 0.49730 0.02116-0.80095 0.91455-0.33339-0.40390
   7  -1 -15 7323.43 1007.47   1 0.47161 0.04685-0.87690 0.76334-0.09282-0.64428
  -7  -1  15 6006.59  790.22   1 0.47086-0.98906-0.19131 0.07794 0.86121-0.12519
   7   1 -1425121.75 2526.70   1 0.49609 0.02374-0.81142 0.92502-0.30898-0.37915
   7  -1 -1422614.41 2281.66   1 0.46448 0.05533-0.88399 0.77043-0.05286-0.63510
  -7  -1  1424339.71 2386.46   1 0.46073-0.98024-0.20010 0.08673 0.86468-0.17773
   7   1 -1310380.01  919.15   1 0.49466 0.02653-0.82119 0.93475-0.28452-0.35430
   7  -1 -1313517.75 1057.07   1 0.45618 0.06446-0.88981 0.77634-0.01145-0.62700
  -7   1  13 6982.40 1583.67   1 0.36388-0.88500-0.27888 0.39225 0.88871-0.25079
  -7  -1  1314803.79 1059.14   1 0.44709-0.96792-0.21176 0.09839 0.86906-0.23117
   7   1 -12 4386.95  825.60   1 0.49282 0.02973-0.83022 0.94378-0.26047-0.32920
   7  -1 -12 9002.04  787.62   1 0.44687 0.07515-0.89405 0.78058 0.03116-0.62051
  -7   1  12 3505.91  768.37   1 0.33591-0.85833-0.29995 0.41332 0.89285-0.30401
  -7  -1  12 9437.01  741.58   1 0.42958-0.95172-0.22643 0.11306 0.87417-0.28536
   7   1 -1138344.38 2237.82   1 0.49069 0.03322-0.83857 0.95213-0.23667-0.30387
   7  -1 -1135347.93 2041.24   1 0.43627 0.08713-0.89664 0.78317 0.07543-0.61566
  -7   1  1133999.41 1864.40   1 0.30118-0.82491-0.32518 0.43855 0.89640-0.35663
  -7  -1  1134714.58 1939.60   1 0.40779-0.93125-0.24425 0.13088 0.87979-0.34004
   7   1 -1017078.33 1382.12   1 0.48829 0.03698-0.84624 0.95980-0.21317-0.27823
   7  -1 -1014742.90 1270.59   1 0.42421 0.10057-0.89736 0.78389 0.12157-0.61269
  -7   1  1016664.71 1210.71   1 0.25912-0.78415-0.35442 0.46779 0.89846-0.40776
  -7  -1  1012653.20 1003.95   1 0.38130-0.90608-0.26529 0.15192 0.88556-0.39488
   7   1  -9 1415.50  416.71   1 0.48565 0.04099-0.85324 0.96680-0.19004-0.25222
   7  -1  -9  255.61  328.86   1 0.41045 0.11570-0.89591 0.78245 0.16986-0.61186
   7  -1  -9  557.35   76.62   1 0.56930-0.04235-0.75610 0.64256 0.32280-0.76506
  -7   1   9  794.92  224.39   1 0.20931-0.73564-0.38729 0.50066 0.89788-0.45624
  -7  -1   9 1585.40  302.60   1 0.34939-0.87573-0.28988 0.17651 0.89100-0.44937
   7   1  -8 2365.01  463.98   1 0.48280 0.04520-0.85957 0.97313-0.16739-0.22573
   7  -1  -8 2417.74  533.89   1 0.39500 0.13282-0.89182 0.77834 0.22050-0.61361
   7  -1  -8 1925.49  245.49   1 0.69997-0.17147-0.49398 0.38043 0.51577-0.90877
  -7   1   8 1682.88  281.43   1 0.15080-0.67922-0.42359 0.53714 0.89321-0.50012
  -7  -1   8 2222.91  377.20   1 0.31233-0.83997-0.31719 0.20382 0.89545-0.50288
   7   1  -7 2834.99  382.49   1 0.47978 0.04958-0.86526 0.97882-0.14535-0.19862
   7  -1  -7 2180.45  387.49   1 0.37697 0.15224-0.88475 0.77128 0.27403-0.61801
   7  -1  -7 1768.18  324.09   1 0.02570 0.50357-0.97093 0.85743-0.23796-0.10593
   7  -1  -7 2537.49  203.33   1 0.74346-0.21434-0.23681 0.12340 0.62544-0.96893
  -7   1   7 1732.47  243.25   1 0.08592-0.61566-0.46102 0.57457 0.88321-0.53927
  -7  -1   7 2775.46  283.39   1 0.26955-0.79849-0.34730 0.23393 0.89817-0.55468
   7   1  -640895.08 1466.23   1 0.47665 0.05408-0.87027 0.98383-0.12415-0.17068
   7  -1  -633782.60 1266.39   1 0.35618 0.17441-0.87395 0.76047 0.33065-0.62549
   7  -1  -629029.49  982.79   1 0.01443 0.51617-0.96869 0.85519-0.24783-0.04694
   7  -1  -631546.92 1070.90   1 0.73411-0.20388-0.00762-0.10574 0.67897-0.97326
  -7   1   641239.19 1387.00   1 0.01497-0.54605-0.49865 0.61221 0.86666-0.57185
  -7  -1   634229.97 1255.22   1 0.22099-0.75124-0.37975 0.26638 0.89830-0.60388
   7   1  -538121.17 1369.53   1 0.47348 0.05861-0.87462 0.98818-0.10410-0.14159
   7  -1  -530731.54 1122.05   1 0.33213 0.19986-0.85853 0.74506 0.39064-0.63634
   7   1  -538499.06 1253.77   1 0.67363-0.14131-0.56987 0.68341 0.47059-0.71621
   7  -1  -528425.24  995.92   1 0.69477-0.16364 0.18641-0.29974 0.69465-0.93988
  -7   1   541699.95 1409.60   1-0.06014-0.47225-0.53482 0.64837 0.84282-0.59714
  -7  -1   530677.70 1949.09   1 0.16685-0.69840-0.41386 0.30049 0.89491-0.64956
   7   1  -421581.73  734.09   1-0.10426 0.63717 0.61356-0.50016-0.78272 0.58637
   7   1  -423712.52  915.52   1 0.47040 0.06306-0.87827 0.99183-0.08572-0.11083
   7  -1  -425135.33  956.77   1 0.30434 0.22894-0.83705 0.72354 0.45465-0.65120
  -7  -1   424073.98  838.49   1-0.34543-0.18827-0.77466 0.66108-0.52969 0.72630
   7  -1  -424047.27  846.98   1 0.01857 0.51469-0.96954 0.85604-0.24421 0.04769
   7   1  -424309.05  821.47   1 0.60062-0.06713-0.71191 0.82544 0.36391-0.56047
   7  -1  -425688.93  913.14   1 0.64057-0.10817 0.34283-0.45616 0.68711-0.88329
  -7   1   424937.42  919.30   1-0.13656-0.39673-0.56818 0.68168 0.81149-0.61474
  -7  -1   427331.92 1835.19   1 0.10706-0.64079-0.44914 0.33559 0.88702-0.69048
   7   1  -347407.23 1542.98   1-0.04638 0.58097 0.53306-0.41965-0.84480 0.69739
   7   1  -345667.00 1542.70   1 0.46762 0.06721-0.88116 0.99472-0.06989-0.07753
   7  -1  -354482.25 1850.63   1 0.27182 0.26285-0.80873 0.69522 0.52159-0.66900
  -7  -1   354297.74 1781.64   1-0.24387-0.29067-0.85543 0.74189-0.45690 0.60422
   7   1  -345907.88 1520.00   1 0.54736-0.01268-0.78298 0.89646 0.29552-0.44292
   7  -1  -352425.50 1752.87   1 0.58209-0.04807 0.46681-0.58024 0.66576-0.81302
  -7   1   347494.30 1628.59   1-0.21300-0.32168-0.59694 0.71044 0.77349-0.62593
  -7  -1   354754.56 1847.25   1 0.04360-0.57866-0.48388 0.37032 0.87404-0.72664
   7   1  -253058.45 1709.42   1 0.03538 0.50058 0.40805-0.29464-0.91227 0.81399
   7   1  -246188.08 1541.61   1 0.46533 0.07049-0.88323 0.99670-0.05797-0.04024
   7  -1  -248050.55 1626.34   1 0.23406 0.30200-0.77169 0.65819 0.59135-0.68962
  -7  -1   253400.28 1874.21   1-0.17216-0.36370-0.89922 0.78569-0.40218 0.50039
   7   1  -245037.16 1502.50   1 0.50910 0.02690-0.82394 0.93743 0.24886-0.34713
   7  -1  -254301.21 1810.89   1 0.52499 0.01033 0.56231-0.67574 0.63889-0.73706
  -7  -1   256727.11 1931.91   1-0.02295-0.51342-0.51739 0.40384 0.85543-0.75716
   7  -1  -258426.76 1931.47   1 0.28705 0.24880 0.62194-0.73541-0.72854 0.63028
   7   1  -134372.63 1114.05   1 0.14983 0.38741 0.21175-0.09834-0.96576 0.91664
   7   1  -130311.00 1027.89   1 0.46459 0.07262-0.88387 0.99734-0.05396 0.00485
  -7   1   136334.04 1244.91   1-0.47310-0.06462-0.63539 0.74897-0.61028 0.65943
  -7  -1   142059.68 1573.59   1-0.12058-0.41668-0.92461 0.81111-0.36131 0.41044
  -7  -1   147038.32 1630.37   1-0.09099-0.44648-0.54907 0.43557 0.83080-0.78161
   7  -1  -145200.32 1538.73   1 0.35565 0.18157 0.63975-0.75321-0.68133 0.63221
  -7   1   099697.21 3268.77   1-0.14171-0.39677 0.66230-0.54890-0.73571 0.73571
   7   1   0104816.9 3322.30   1 0.30072 0.23747-0.09345 0.20682-0.94911 0.94911
   7   1   090850.22 2898.74   1 0.46700 0.07159-0.88170 0.99517-0.06705 0.06705
  -7   1   0100390.8 3265.28   1-0.42714-0.11191-0.69126 0.80484-0.58284 0.58284
  -7  -1   097849.60 3281.19   1-0.08317-0.45543-0.94004 0.82654-0.33074 0.33074
  -7  -1   093753.78 3076.61   1-0.15978-0.37908-0.57735 0.46385 0.80070-0.80070
   7  -1   096233.98 3124.95   1 0.41869 0.11989 0.65243-0.76589-0.63168 0.63168
  -7   1  -127264.57  952.85   1-0.08712-0.45275 0.59032-0.47692-0.80244 0.75336
   7   1   126523.15  848.74   1 0.46005 0.07965-0.52938 0.64279-0.71280 0.76188
   7   1   126247.45  847.80   1 0.47924 0.06103-0.86617 0.97973-0.14160 0.19075
  -7   1  -129032.28 1088.78   1-0.38783-0.15256-0.73370 0.84728-0.55790 0.50875
  -7  -1  -126441.26 1365.90   1-0.05646-0.48347-0.94954 0.83604-0.30851 0.25938
  -7  -1  -125346.69  960.81   1-0.22752-0.31273-0.60192 0.48842 0.76545-0.81464
   7  -1   126409.11  982.38   1 0.47577 0.06418 0.66046-0.77393-0.58087 0.63000
  -7   1  -251758.55 1702.57   1-0.02895-0.51252 0.50747-0.39406-0.86118 0.76291
   7  -1   252290.55 1714.98   1 0.38607 0.15495-0.30151 0.18813-0.87179 0.96984
  -7   1  -253039.93 1807.71   1-0.35497-0.18677-0.76585 0.87943-0.53615 0.43784
  -7  -1  -262215.01 2102.91   1-0.03794-0.50332-0.95538 0.84189-0.29290 0.19464
   7  -1   259692.40 1999.73   1 0.52692 0.01420 0.66471-0.77818-0.52962 0.62787
   7   1   257288.82 1993.86   1 0.29240 0.24892 0.62347-0.51000-0.72510 0.82336
  -7   1  -378523.27 2621.28   1 0.03040-0.57326 0.41601-0.30260-0.90884 0.76144
   7  -1   366791.92 2167.09   1 0.42964 0.11289-0.42676 0.31338-0.79579 0.94289
  -7   1  -381616.00 2832.27   1-0.32801-0.21444-0.79038 0.90391-0.51739 0.37007
  -7  -1  -380343.60 2776.42   1-0.02585-0.51675-0.95888 0.84538-0.28260 0.13522
   7  -1   382301.00 2725.67   1 0.57246-0.02999 0.66530-0.77877-0.47921 0.62658
   7   1   384550.86 2801.53   1 0.35473 0.18795 0.63954-0.52607-0.68202 0.82940
  -7   1  -422466.30 1290.69   1 0.08813-0.63219 0.32084-0.20743-0.94302 0.74652
  -7   1  -422744.73 1608.58   1-0.30654-0.23723-0.80848 0.92201-0.50236 0.30594
  -7  -1  -418454.41 2097.91   1-0.01888-0.52505-0.96078 0.84728-0.27664 0.08013
   7  -1   418551.08 1975.13   1 0.61288-0.06906 0.66306-0.77653-0.42977 0.62628
   7   1   424470.23 1020.05   1 0.41327 0.13077 0.65149-0.53802-0.63620 0.83272
  -7   1  -5 3933.46  591.86   1 0.14135-0.68676 0.22721-0.11380-0.96353 0.71791
  -7   1  -5 4145.71  729.87   1-0.28988-0.25521-0.82180 0.93533-0.49051 0.24497
  -7  -1  -5 4453.94  715.14   1-0.01608-0.52918-0.96152 0.84802-0.27425 0.02860
   7  -1   5 4275.98  632.88   1 0.64869-0.10351 0.65848-0.77194-0.38156 0.62720
   7   1   5 3548.12  508.23   1 0.46765 0.07775 0.65954-0.54607-0.58847 0.83411
  -7   1  -629189.05 1492.36   1 0.18822-0.73497 0.13957-0.02618-0.97215 0.67758
   7   1   627152.23 1348.60   1 0.33159 0.21565-0.85815 0.97163 0.39192-0.09708
  -7   1  -630874.73 1688.97   1-0.27748-0.26893-0.83131 0.94484-0.48157 0.18693
  -7  -1  -625500.40 1517.38   1-0.01674-0.52985-0.96135 0.84785-0.27481-0.01995
   7  -1   624572.10 1395.60   1 0.68039-0.13358 0.65211-0.76561-0.33436 0.62927
   7   1   629238.07 1581.42   1 0.51753 0.02898 0.66423-0.55077-0.53939 0.83415
  -7  -1  -742378.21 1744.68   1 0.18620-0.73433 0.14345-0.25685-0.97198 0.62832
  -7   1  -743538.96 1849.04   1 0.22827-0.77640 0.06077 0.05262-0.97169 0.62803
  -7   1  -742525.62 1927.16   1-0.26884-0.27888-0.83773 0.95127-0.47530 0.13155
  -7  -1  -746023.51 2079.19   1-0.02030-0.52762-0.96040 0.84690-0.27787-0.06603
   7  -1   745794.54 2055.23   1 0.70842-0.16028 0.64397-0.75747-0.28882 0.63288
   7   1   743855.95 1943.37   1 0.56325-0.01537 0.66543-0.55197-0.48983 0.83371
  -7  -1  -851564.00 2903.38   1 0.26555-0.81506-0.01644-0.09695-0.96395 0.57119
  -7   1  -850672.86 2896.19   1 0.26144-0.81095-0.00773 0.12112-0.96518 0.57243
  -7   1  -845807.07 2869.08   1-0.26353-0.28552-0.84161 0.95514-0.47141 0.07855
  -7  -1  -850890.60 2967.44   1-0.02634-0.52292-0.95874 0.84525-0.28303-0.11000
   7  -1   853936.29 3164.92   1 0.73323-0.18374 0.63446-0.74796-0.24459 0.63780
   7   1   846673.87 2772.06   1 0.60475-0.05553 0.66375-0.55028-0.44011 0.83312
  -7   1  -924206.42 1736.22   1 0.28834-0.83923-0.06572 0.17911-0.95526 0.51341
  -7  -1  -919202.02 1357.89   1 0.31540-0.86635-0.12679 0.01342-0.94044 0.49925
  -7   1  -926728.50 1977.93   1-0.26115-0.28922-0.84333 0.95686-0.46967 0.02770
   7  -1   919857.14 1496.77   1 0.75516-0.20433 0.62376-0.73726-0.20160 0.64396
   7   1   922023.37 1687.68   1 0.64225-0.09167 0.65951-0.54604-0.39058 0.83272
  -7   1 -1019175.28 1136.87   1 0.30940-0.86176-0.11305 0.22643-0.94418 0.45397
  -7  -1 -1017508.44  978.70   1 0.34845-0.90081-0.20522 0.09185-0.91458 0.42436
  -7   1 -1020807.97 2036.76   1-0.26138-0.29031-0.84316 0.95669-0.46984-0.02123
  -7  -1 -1015182.53 2108.35   1-0.04455-0.50738-0.95337 0.83987-0.29848-0.19280
   7  -1  1016569.98 1142.94   1 0.77452-0.22236 0.61203-0.72553-0.15976 0.65127
   7   1  1017737.75 1168.10   1 0.67596-0.12379 0.65318-0.53968-0.34120 0.83271
  -7   1 -1125762.15 1588.72   1 0.32628-0.88006-0.15208 0.26545-0.93295 0.39371
  -7  -1 -1126647.17 1581.47   1 0.37046-0.92423-0.26047 0.14710-0.89157 0.35234
  -7   1 -1123906.69 1754.01   1-0.26393-0.28907-0.84132 0.95485-0.47171-0.06846
  -7  -1 -1120818.86 1517.61   1-0.05624-0.49702-0.94961 0.83611-0.30832-0.23209
   7  -1  1122870.23 1535.49   1 0.79144-0.23828 0.59954-0.71298-0.11899 0.65944
  -7   1 -12 5251.61  906.47   1 0.33937-0.89456-0.18316 0.29654-0.92264 0.33438
  -7   1 -12 5657.53 1227.28   1-0.26857-0.28575-0.83794 0.95147-0.47509-0.11418
  -7  -1 -12 5302.41 1150.54   1-0.06940-0.48519-0.94509 0.83160-0.31932-0.27022
   7  -1  12 6000.03 1078.86   1 0.80638-0.25190 0.58606-0.69950-0.07917 0.66875
  -7   1 -1318293.83 1586.00   1 0.34931-0.90592-0.20732 0.32070-0.91378 0.27650
  -7   1 -1318448.30 2597.76   1-0.27508-0.28056-0.83311 0.94664-0.47983-0.15855
  -7  -1 -1317337.76 2865.63   1-0.08389-0.47203-0.93977 0.82627-0.33134-0.30733
   7  -1  1321512.05 1921.64   1 0.81940-0.26359 0.57180-0.68524-0.04022 0.67893
   7   1  1318164.35 1686.05   1 0.75696-0.20078 0.62277-0.50927-0.19788 0.83685
  -7   1 -14 6860.57  633.49   1 0.35665-0.91467-0.22548 0.33886-0.90661 0.22031
  -7   1 -14 7636.99 1512.88   1-0.28329-0.27367-0.82689 0.94043-0.48577-0.20172
  -7  -1 -14 7157.00 1055.29   1-0.09961-0.45765-0.93357 0.82007-0.34426-0.34355
   7  -1  14 7626.97  794.08   1 0.83063-0.27350 0.55681-0.67026-0.00204 0.68988
   7   1  14 9896.77  965.37   1 0.77805-0.22053 0.60961-0.49611-0.15166 0.83978
   7   2 -1432222.73 2419.64   1 0.49818 0.02166-0.74302 0.97022-0.44690-0.24123
   7  -2 -1431549.50 2315.29   1 0.44198 0.07727-0.89550 0.66857 0.05205-0.73962
  -7  -2  1432534.51 2329.28   1 0.46432-0.98384-0.19699-0.02973 0.86347-0.17652
   7   2 -13 1750.11  565.59   1 0.49852 0.02269-0.75106 0.97826-0.43287-0.20612
   7  -2 -13  825.52  516.63   1 0.43047 0.09017-0.89725 0.67031 0.09812-0.73657
  -7  -2  13  661.61  297.49   1 0.45227-0.97310-0.20735-0.01937 0.86744-0.22955
   7   2 -12 5900.79 1076.73   1 0.49871 0.02388-0.75803 0.98523-0.42031-0.16952
   7  -2 -12 4964.04  991.65   1 0.41750 0.10452-0.89692 0.66999 0.14563-0.73497
  -7  -2  12 4970.12  904.60   1 0.43686-0.95901-0.22036-0.00636 0.87211-0.28329
   7   2 -11 6593.48 1144.47   1 0.49879 0.02518-0.76384 0.99104-0.40955-0.13112
   7  -2 -11 4638.65  864.04   1 0.40292 0.12048-0.89428 0.66734 0.19470-0.73493
  -7  -2  11 4592.02  813.42   1 0.41779-0.94125-0.23613 0.00940 0.87731-0.33757
   7   2 -1014406.48 1016.25   1 0.49880 0.02654-0.76834 0.99554-0.40104-0.09048
   7  -2 -1021471.58 1391.03   1 0.38685 0.13820-0.88892 0.66197 0.24527-0.73667
  -7   2  1014521.84  976.16   1 0.08388-0.60965-0.46214 0.68925 0.88282-0.39147
  -7  -2  1019416.66 1165.69   1 0.39471-0.91949-0.25472 0.02798 0.88278-0.39210
   7   2  -917228.65 1334.38   1 0.49878 0.02794-0.77130 0.99850-0.39534-0.04703
   7  -2  -924402.98 1848.20   1 0.36846 0.15798-0.88064 0.65370 0.29781-0.74007
   7  -2  -923939.80 1690.20   1 0.69045-0.16322-0.52396 0.29687 0.49873-0.94086
  -7   2   917665.71 1412.28   1 0.01370-0.54080-0.49930 0.72640 0.86631-0.42410
  -7  -2   924867.53 2326.11   1 0.36704-0.89338-0.27646 0.04972 0.88816-0.44653
   7   2  -824165.90 1487.52   1 0.49877 0.02933-0.77237 0.99956-0.39327 0.00004
   7  -2  -824882.48 1568.32   1 0.34780 0.18002-0.86890 0.64195 0.35218-0.74530
   7  -2  -822151.20 1295.27   1 0.72866-0.20016-0.37007 0.14298 0.57627-0.96927
  -7   2   828358.14 1620.84   1-0.06383-0.46458-0.53650 0.76360 0.84148-0.44839
  -7  -2   823959.31 1939.51   1 0.33499-0.86262-0.30064 0.07390 0.89297-0.50040
   7   2  -726395.15 1255.25   1 0.49879 0.03069-0.77098 0.99818-0.39597 0.05189
   7  -2  -735477.13 1629.71   1 0.32461 0.20460-0.85315 0.62621 0.40834-0.75232
  -7   2   729403.56 1243.17   1-0.14487-0.38424-0.57151 0.79851 0.80770-0.46339
  -7  -2   734850.02 2457.76   1 0.29803-0.82697-0.32742 0.10069 0.89664-0.55315
   7   2  -615148.45  890.92   1 0.49880 0.03205-0.76619 0.99338-0.40514 0.11022
   7  -2  -620115.09 1171.28   1 0.29879 0.23170-0.83248 0.60547 0.46657-0.76139
  -7  -2   617184.24  854.89   1-0.40932-0.12170-0.71107 0.48391-0.57168 0.86660
   7  -2  -619319.33 1042.51   1 0.74012-0.20988-0.06254-0.16417 0.66955-0.96384
   7   2  -614659.23  730.11   1 0.67997-0.15010 0.23561-0.00895 0.69435-0.98862
  -7   2   615227.45  812.82   1-0.22775-0.30276-0.60199 0.82900 0.76532-0.47020
  -7  -2   621259.89 1742.83   1 0.25602-0.78626-0.35652 0.12979 0.89852-0.60409
   7  -2  -618714.74  959.98   1 0.79698-0.26603 0.19576-0.42275 0.57139-0.86631
   7   2  -5 4237.53  362.45   1 0.49867 0.03356-0.75631 0.98351-0.42344 0.17768
   7  -2  -5 4950.44  505.70   1 0.26967 0.26222-0.80673 0.57972 0.52578-0.77146
  -7  -2   5 3293.42  372.42   1-0.17393-0.35797-0.89826 0.67120-0.40357 0.64910
   7   2  -5 4452.31  267.12   1 0.74495-0.21325-0.18311 0.40993 0.64149-0.88683
   7  -2  -5 4179.07  336.35   1 0.72071-0.18922 0.07511-0.30184 0.68914-0.93438
  -7  -2   5 5717.69  692.33   1 0.20897-0.74052-0.38751 0.16077 0.89786-0.65251
   7  -2  -5 4189.71  254.68   1 0.72182-0.18946 0.07742-0.30441 0.68773-0.93350
   7  -2  -5 5032.48  341.65   1 0.30929 0.22248 0.62814-0.85507-0.71397 0.46833
   7   2  -421479.60 2226.40   1 0.49791 0.03570-0.73811 0.96530-0.45527 0.25865
   7  -2  -423856.14  946.98   1 0.23721 0.29607-0.77493 0.54792 0.58583-0.78237
  -7  -2   421713.53 2225.96   1 0.20043-0.73372-0.73544 0.50843 0.64726-0.45072
  -7  -2   424950.27 1039.08   1-0.06414-0.46913-0.94694 0.71994-0.31494 0.51145
   7   2  -418966.65 1951.73   1 0.72560-0.19200-0.38740 0.61450 0.56869-0.76519
   7  -2  -426978.57  986.42   1 0.69123-0.15883 0.19879-0.42545 0.69474-0.89093
  -7  -2   428092.37 1578.40   1 0.15709-0.68994-0.41978 0.19305 0.89392-0.69764
   7  -2  -424475.73  843.84   1 0.61974-0.08680-0.04689-0.17990 0.78340-0.97984
   7  -2  -427721.55  950.20   1 0.38210 0.15103 0.64552-0.87245-0.66127 0.46476
   7   2  -375531.51 2423.79   1-0.14959 0.68390 0.67218-0.44538-0.72511 0.57784
   7   2  -384772.42 2753.85   1 0.49503 0.03996-0.70445 0.93165-0.50861 0.36115
   7  -2  -371630.93 2380.52   1 0.20127 0.33339-0.73638 0.50937 0.64593-0.79333
  -7  -2   386574.35 2822.84   1 0.00355-0.53816-0.96632 0.73932-0.25730 0.40469
   7   2  -376690.53 2492.05   1 0.69343-0.15856-0.51492 0.74201 0.50398-0.65135
   7  -2  -377079.24 2540.34   1 0.65543-0.12176 0.30551-0.53217 0.69069-0.83783
  -7  -2   383194.00 2811.82   1 0.10029-0.63534-0.45298 0.22587 0.88586-0.73845
   7  -2  -373334.10 2374.42   1 0.49937 0.03460-0.16594-0.06079 0.85034-0.99755
   7  -2  -382841.50 2689.85   1 0.44725 0.08724 0.65689-0.88382-0.60700 0.45961
  -7   2   252635.23 1779.07   1-0.16287-0.37283 0.68853-0.46173-0.70667 0.80485
   7   2  -244528.53 1447.58   1-0.06222 0.59819 0.55583-0.32902-0.82895 0.73068
   7   2  -246946.92 1535.07   1 0.48447 0.05105-0.63663 0.86345-0.59998 0.50183
  -7  -2   248853.25 1657.40   1 0.04708-0.58342-0.97446 0.74740-0.21952 0.31781
   7  -2  -247880.75 1638.76   1 0.61739-0.08206 0.39662-0.62348 0.67934-0.77751
  -7  -2   246477.00 1646.24   1 0.04032-0.57670-0.48560 0.25849 0.87324-0.77497
   7  -2  -242764.66 1414.18   1 0.37185 0.16343-0.27263 0.04590 0.88735-0.98548
   7  -2  -248239.01 1612.94   1 0.50459 0.03113 0.66337-0.89030-0.55255 0.45430
  -7   2   163096.32 2105.95   1-0.12035-0.41674 0.63485-0.40806-0.76319 0.81228
   7   2  -159025.59 1879.91   1 0.11721 0.42003 0.27040-0.04359-0.95558 0.90646
   7   2  -158429.26 1864.98   1 0.43595 0.10101-0.44680 0.67356-0.78122 0.73219
  -7  -2   167347.00 2249.80   1 0.07639-0.61406-0.97816 0.75109-0.19330 0.24244
   7  -2  -164293.57 2181.43   1 0.57902-0.04238 0.47247-0.69933 0.66445-0.71354
  -7  -2   164838.78 2466.22   1-0.02245-0.51525-0.51715 0.29004 0.85559-0.80646
   7  -2  -166698.47 2207.81   1 0.55414-0.01706 0.66543-0.89236-0.50012 0.45099
  -7  -2   015356.72  672.77   1 0.09539-0.63441-0.97974 0.75267-0.17606 0.17606
   7  -2   015030.35  695.26   1 0.54245-0.00451 0.53508-0.76193 0.64763-0.64763
  -7  -2   016988.87 1612.33   1-0.08672-0.45214-0.54721 0.32021 0.83248-0.83248
   7  -2   017064.44  714.14   1 0.59700-0.05857 0.66429-0.89121-0.44978 0.44978
  -7   2  -1  489.56  199.56   1-0.02863-0.51147 0.50698-0.28017-0.86147 0.81234
  -7  -2  -1 1844.06  348.13   1 0.10691-0.64726-0.98039 0.75332-0.16553 0.11639
   7  -2   1  913.25  424.94   1 0.50881 0.03043 0.58623-0.81309 0.63042-0.58133
   7  -2   1 1174.27  264.19   1 0.63413-0.09436 0.66067-0.88760-0.40172 0.45084
  -7   2  -2 9375.69 1144.91   1 0.01843-0.55991 0.43499-0.20818-0.90024 0.80197
  -7   2  -2 8406.19  922.87   1-0.47915-0.06258-0.62747 0.85463-0.61374 0.51543
  -7  -2  -2 7751.75  888.39   1 0.11277-0.65446-0.98062 0.75356-0.16016 0.06187
  -7  -2  -2 8203.81 1023.04   1-0.21672-0.32492-0.59823 0.37123 0.77145-0.86983
   7  -2   2 7369.30  847.49   1 0.66649-0.12504 0.65529-0.88229-0.35549 0.45379
  -7   2  -317453.98 1823.22   1 0.06459-0.60728 0.36046-0.13365-0.93053 0.78315
  -7   2  -317602.02 1869.64   1-0.45295-0.09012-0.66078 0.88794-0.59849 0.45103
  -7  -2  -314084.80 1522.59   1 0.11419-0.65722-0.98067 0.75360-0.15885 0.01141
   7  -2   318190.55 1915.92   1 0.69467-0.15188 0.64828-0.87527-0.31169 0.45914
  -7   2  -419443.73 2012.51   1 0.10831-0.65236 0.28601-0.05920-0.95208 0.75558
  -7   2  -420081.94 2156.50   1-0.43061-0.11380-0.68729 0.91445-0.58497 0.38836
  -7  -2  -424806.36 1038.54   1 0.11206-0.65643-0.98060 0.75353-0.16080-0.03577
   7  -2   427792.31 1083.17   1 0.71941-0.17528 0.64006-0.86706-0.26974 0.46634
   7   2   422530.06 1272.44   1 0.33982 0.20422 0.63599-0.40906-0.69284 0.88935
  -7   2  -5 5219.49  644.17   1 0.14860-0.69401 0.21400 0.01280-0.96546 0.71984
  -7   2  -5 5524.09  827.52   1-0.41202-0.13373-0.70813 0.93529-0.57339 0.32762
  -7  -2  -5 3280.97  480.31   1 0.10702-0.65272-0.98039 0.75332-0.16544-0.08028
   7  -2   5 1030.44  229.34   1 0.74121-0.19574 0.63084-0.85784-0.22941 0.47517
   7   2   5 5678.13  580.90   1 0.39764 0.14776 0.64861-0.42168-0.64897 0.89461
  -7   2  -669270.43 2909.41   1 0.18460-0.73134 0.14651 0.08026-0.97183 0.67726
  -7   2  -663527.41 3023.09   1-0.39697-0.15012-0.72423 0.95139-0.56381 0.26889
  -7  -2  -653427.69 2338.02   1 0.09953-0.64657-0.98000 0.75293-0.17229-0.12257
   7  -2   663415.68 2726.80   1 0.76049-0.21368 0.62077-0.84777-0.19049 0.48540
   7   2   670099.90 3020.97   1 0.45199 0.09478 0.65754-0.43061-0.60277 0.89754
  -7   2  -764259.68 3667.74   1 0.21623-0.76436 0.08489 0.14189-0.97264 0.62898
  -7  -2  -752804.70 3084.52   1 0.08997-0.63834-0.97935 0.75229-0.18100-0.16300
   7  -2   752245.32 3045.32   1 0.77755-0.22941 0.60996-0.83695-0.15280 0.49686
   7   2   758768.50 3410.84   1 0.50237 0.04550 0.66320-0.43628-0.55477 0.89865
  -7   2  -8 6623.29  613.04   1 0.24337-0.79288 0.02997 0.19681-0.96946 0.57671
  -7   2  -8 7415.88 1259.24   1-0.37654-0.17323-0.74508 0.97223-0.55051 0.15729
  -7  -2  -8 6625.34  645.24   1 0.07860-0.62831-0.97837 0.75131-0.19130-0.20185
   7  -2   8 6224.81  607.52   1 0.79256-0.24337 0.59862-0.82550-0.11616 0.50921
  -7   2  -915194.25  935.41   1 0.26626-0.81715-0.01794 0.24473-0.96373 0.52188
  -7   2  -914508.17 2095.21   1-0.37064-0.18046-0.75088 0.97804-0.54662 0.10424
  -7  -2  -913535.30  915.60   1 0.06566-0.61671-0.97698 0.74991-0.20295-0.23934
   7  -2   913386.10  956.77   1 0.80593-0.25542 0.58651-0.81339-0.08044 0.52263
   7   2   915003.12  963.28   1 0.59189-0.04132 0.66458-0.43766-0.45605 0.89818
  -7   2 -10 5973.13  745.05   1 0.28526-0.83754-0.05897 0.28575-0.95663 0.46568
  -7   2 -10 5631.85  943.35   1-0.36730-0.18514-0.75412 0.98128-0.54440 0.05287
  -7  -2 -10 3177.86  547.83   1 0.05131-0.60370-0.97509 0.74802-0.21577-0.27567
   7  -2  10 3509.24  538.83   1 0.81772-0.26589 0.57380-0.80069-0.04552 0.53683
   7   2  10 6158.34  850.11   1 0.63089-0.07897 0.66109-0.43417-0.40609 0.89736
  -7   2 -11 6113.11 1015.00   1 0.30046-0.85424-0.09285 0.31960-0.94926 0.41002
  -7   2 -11 7146.83 1596.90   1-0.36629-0.18749-0.75510 0.98226-0.54373 0.00304
  -7  -2 -11 4450.07  971.85   1 0.03575-0.58902-0.97274 0.74574-0.22911-0.31130
   7  -2  11 5857.41 1100.88   1 0.82805-0.27489 0.56053-0.78741-0.01127 0.55172
   7   2  11 8148.89 1479.45   1 0.66622-0.11272 0.65535-0.42835-0.35589 0.89655
  -7   2 -1213290.13  971.57   1 0.31299-0.86819-0.12127 0.34802-0.94197 0.35372
  -7   2 -1211738.87 1580.79   1-0.36741-0.18771-0.75401 0.98117-0.54448-0.04535
  -7  -2 -12 8123.21 1353.05   1 0.01898-0.57358-0.96962 0.74262-0.24386-0.34569
   7  -2  12 9659.54  793.84   1 0.83702-0.28254 0.54670-0.77359 0.02237 0.56720
   7   2  1211361.42  901.81   1 0.69803-0.14319 0.64728-0.42029-0.30620 0.89601
  -7   2 -13 5789.18  683.76   1 0.32290-0.87951-0.14417 0.37092-0.93538 0.29810
  -7   2 -13 4602.56 1126.56   1-0.37048-0.18597-0.75103 0.97819-0.54652-0.09247
  -7  -2 -13 3433.64 1125.96   1 0.00115-0.55708-0.96577 0.73877-0.25938-0.37929
   7  -2  13 4353.25 1010.27   1 0.84471-0.28890 0.53233-0.75921 0.05550 0.58320
   7   2  13 6407.21  816.68   1 0.72654-0.17036 0.63727-0.41027-0.25694 0.89590
  -7   2 -14  519.44  267.99   1 0.33053-0.88855-0.16207 0.38882-0.92977 0.24347
  -7   2 -14  449.59  223.48   1-0.37534-0.18246-0.74626 0.97342-0.54973-0.13841
  -7  -2 -14  559.16  205.62   1-0.01766-0.53959-0.96110 0.73411-0.27560-0.41220
   7  -2  14  895.83  365.82   1 0.85118-0.29405 0.51740-0.74428 0.08820 0.59964
   7   2  14  973.78  533.80   1 0.75192-0.19441 0.62550-0.39850-0.20821 0.89632
   7   3 -13 6458.65  691.11   1 0.48808 0.03216-0.65722 0.99745-0.57430-0.06365
   7  -3 -13 4885.92  937.06   1 0.40568 0.11495-0.89494 0.55453 0.18572-0.82417
  -7  -3  13 5799.11  580.77   1 0.44370-0.96453-0.21462-0.12547 0.87009-0.23220
   7   3 -1213181.83 1280.31   1 0.48839 0.03324-0.65907 0.99930-0.57192-0.01696
   7  -3 -12 9505.72  986.53   1 0.39023 0.13205-0.89018 0.54976 0.23513-0.82481
  -7  -3  1210015.82 1035.84   1 0.42951-0.95165-0.22649-0.11360 0.87419-0.28538
   7   3 -1117736.38 1316.03   1 0.48831 0.03470-0.65863 0.99886-0.57249 0.03267
   7  -3 -1125662.42 2193.33   1 0.37275 0.15092-0.88277 0.54235 0.28594-0.82648
  -7  -3  1125251.68 1718.20   1 0.41206-0.93552-0.24079-0.09930 0.87875-0.33901
   7   3 -1013321.09 1040.71   1 0.48778 0.03663-0.65539 0.99562-0.57664 0.08590
   7  -3 -1015655.65 1248.38   1 0.35342 0.17163-0.87233 0.53191 0.33782-0.82922
   7  -3 -1014967.45 1045.96   1 0.67385-0.14790-0.56931 0.22867 0.47094-0.96220
  -7  -3  1014723.61 1110.93   1 0.39110-0.91587-0.25758-0.08251 0.88356-0.39288
   7   3  -918035.77 1224.43   1 0.48663 0.03917-0.64863 0.98887-0.58519 0.14353
   7  -3  -917530.09 1273.53   1 0.33211 0.19433-0.85852 0.51810 0.39069-0.83294
   7  -3  -916381.75 1033.37   1 0.70946-0.18223-0.46007 0.11942 0.53384-0.97597
  -7  -3   915790.93 1668.44   1 0.36613-0.89246-0.27716-0.06294 0.88832-0.44669
   7   3  -8 4165.65  533.76   1 0.48459 0.04260-0.63725 0.97749-0.59922 0.20663
   7  -3  -8 2576.13  463.49   1 0.30889 0.21882-0.84071 0.50020 0.44471-0.83780
   7  -3  -8 2407.98  375.71   1 0.73298-0.20516-0.34517 0.00494 0.58616-0.97871
  -7  -3   8 2562.11  566.30   1 0.33734-0.86498-0.29889-0.04120 0.89266-0.50010
   7   3  -739502.48 2808.55   1 0.48118 0.04739-0.61957 0.95980-0.62014 0.27662
   7  -3  -732895.33 2394.81   1 0.28318 0.24592-0.81903 0.47851 0.49898-0.84293
   7  -3  -732181.75 2283.10   1 0.74371-0.21460-0.23146-0.10876 0.62714-0.97062
  -7  -3   734989.51 3475.49   1 0.30428-0.83322-0.32297-0.01712 0.89615-0.55266
   7   3  -651038.14 2926.92   1 0.47555 0.05442-0.59288 0.93311-0.64987 0.35542
   7  -3  -650394.35 2919.51   1 0.25510 0.27539-0.79285 0.45233 0.55345-0.84826
  -7  -3   649496.76 2805.17   1 0.04579-0.57678-0.97427 0.63367-0.22067 0.51554
   7  -3  -651891.67 2970.24   1 0.74376-0.21335-0.12040-0.21981 0.65751-0.95192
  -7  -3   660007.73 3474.54   1 0.26680-0.79705-0.34919 0.00908 0.89826-0.60384
   7  -3  -546135.10 2014.05   1 0.22462 0.30726-0.76181 0.42129 0.60760-0.85328
  -7  -3   544952.36 1882.28   1 0.12865-0.66097-0.98095 0.64035-0.14549 0.39121
   7  -3  -548692.14 2093.28   1 0.73494-0.20346-0.01409-0.32599 0.67797-0.92321
  -7  -3   551208.09 2537.61   1 0.22485-0.75640-0.37724 0.03713 0.89840-0.65305
   7  -3  -543533.18 1791.17   1 0.71313-0.18105 0.64235-0.98285-0.28074 0.03498
   7   3  -450268.08 2099.01   1 0.44890 0.08389-0.49009 0.83024-0.74718 0.55105
  -7  -3   443116.86 1827.04   1 0.17603-0.70969-0.97919 0.63859-0.10097 0.29755
   7  -3  -445894.52 1979.74   1 0.71891-0.18618 0.08423-0.42431 0.68997-0.88616
  -7  -3   448682.70 2116.38   1 0.17850-0.71135-0.40670 0.06659 0.89595-0.69967
   7  -3  -440456.70 1675.68   1 0.72170-0.18828 0.63918-0.97968-0.26566 0.06905
  -7  -3   3 4555.04  269.86   1 0.26210-0.79678-0.79960 0.45909 0.54030-0.39289
  -7  -3   3 5012.79  369.46   1 0.20496-0.73996-0.97602 0.63542-0.07321 0.22065
   7  -3  -3 6475.94  511.58   1 0.69805-0.16438 0.17451-0.51449 0.69444-0.84158
   7  -3  -3 5140.79  297.74   1 0.54639-0.01242-0.12186-0.21823 0.82861-0.97581
   7  -3  -3 4946.75  309.25   1 0.73246-0.19769 0.63479-0.97529-0.24603 0.09858
  -7   3   251447.06 2611.13   1-0.12094-0.41475 0.63563-0.29544-0.76245 0.86063
   7   3  -248956.32 2419.80   1 0.34963 0.18573-0.20810 0.54823-0.91348 0.81543
  -7  -3   256774.63 2862.71   1 0.22248-0.75881-0.97331 0.63271-0.05619 0.15448
   7  -3  -255289.12 2806.45   1 0.67365-0.13871 0.25480-0.59478 0.69373-0.79182
  -7  -3   259953.86 3046.08   1 0.07321-0.60959-0.46801 0.12735 0.88068-0.78241
   7  -3  -253943.92 2689.55   1 0.74394-0.20783 0.62954-0.97003-0.22411 0.12581
  -7   3   126677.53 1411.37   1-0.08248-0.45461 0.58392-0.24373-0.80760 0.85669
  -7  -3   124694.49 1306.07   1 0.23221-0.76989-0.97154 0.63094-0.04666 0.09580
   7  -3  -126303.76 1438.25   1 0.64759-0.11138 0.32560-0.66559 0.68891-0.73795
  -7  -3   126916.71 2220.42   1 0.01584-0.55355-0.49821 0.15755 0.86690-0.81777
   7  -3  -123131.98 1177.34   1 0.21908 0.31767-0.38099 0.04088 0.89824-0.94731
   7  -3  -125132.96 1293.49   1 0.75552-0.21808 0.62357-0.96406-0.20086 0.15171
  -7   3   025219.81 1864.73   1-0.04313-0.49559 0.52833-0.18811-0.84793 0.84793
  -7  -3   026728.63 1450.65   1 0.23621-0.77497-0.97073 0.63050-0.04321 0.04321
   7  -3   026621.27 1467.09   1 0.62121-0.08373 0.38722-0.72721 0.68128-0.68128
  -7  -3   028619.81 2113.41   1-0.04390-0.49513-0.52732 0.18666 0.84852-0.84852
   7  -3   022025.68 1154.88   1 0.76688-0.22810 0.61695-0.95745-0.17677 0.17677
  -7   3  -112693.71 1182.11   1-0.00356-0.53653 0.46916-0.12894-0.88310 0.83396
  -7  -3  -110381.21  679.67   1 0.23606-0.77641-0.97079 0.63019-0.04287-0.00626
   7  -3   1 9748.28  650.20   1 0.59600-0.05675 0.44038-0.78067 0.67144-0.62235
  -7  -3  -1 8707.99  871.40   1-0.10495-0.43530-0.55508 0.21458 0.82514-0.87433
   7  -3   1 8660.99  512.34   1 0.77785-0.23774 0.60975-0.95024-0.15211 0.20126
  -7   3  -2 3683.22  441.36   1 0.03539-0.57687 0.40802-0.06781-0.91228 0.81401
  -7  -3  -2 3279.24  407.57   1 0.23244-0.77412-0.97150 0.63090-0.04644-0.05184
   7  -3   2 2841.20  423.24   1 0.57180-0.03125 0.48548-0.82576 0.66131-0.56314
  -7  -3  -2 3179.78  492.67   1-0.16691-0.37474-0.58010 0.23959 0.79726-0.89563
   7  -3   2 3378.44  378.94   1 0.78821-0.24697 0.60213-0.94246-0.12705 0.22531
  -7   3  -329669.25 1324.62   1 0.07308-0.61577 0.34630-0.00608-0.93527 0.78789
  -7  -3  -333154.30 1527.00   1 0.22605-0.76908-0.97268 0.63208-0.05269-0.09473
   7  -3   334518.82 1577.51   1 0.54958-0.00773 0.52348-0.86376 0.65108-0.50382
  -7  -3  -337614.24 1713.65   1-0.22853-0.31451-0.60226 0.26176 0.76488-0.91244
   7  -3   333271.33 1467.43   1 0.79814-0.25557 0.59382-0.93414-0.10169 0.24908
  -7   3  -4 2139.34  349.88   1 0.10858-0.65263 0.28555 0.05466-0.95219 0.75569
  -7  -3  -4 1090.36  376.02   1 0.21738-0.76174-0.97416 0.63356-0.06116-0.13541
   7  -3   4 1245.81  362.66   1 0.52966 0.01349 0.55518-0.89546 0.64127-0.44492
   7  -3   4  947.74  354.07   1 0.80746-0.26357 0.58498-0.92530-0.07611 0.27264
  -7   3  -5 3627.70  536.93   1 0.14143-0.68685 0.22706 0.11315-0.96355 0.71793
  -7  -3  -5 3915.30  524.24   1 0.20675-0.75245-0.97577 0.63517-0.07148-0.17423
   7  -3   5 5077.00  551.28   1 0.51220 0.03225 0.58131-0.92159 0.63222-0.38679
   7  -3   5 2557.83  344.02   1 0.81616-0.27095 0.57562-0.91594-0.05036 0.29602
   7   3   5 2804.25  365.14   1 0.34628 0.19912 0.63755-0.29716-0.68818 0.93383
  -7   3  -6 1671.67  303.26   1 0.17126-0.71804 0.17197 0.16824-0.97009 0.67535
  -7  -3  -6 1000.96  414.74   1 0.19444-0.74148-0.97736 0.63676-0.08336-0.21150
   7  -3   6 1345.08  353.89   1 0.49728 0.04848 0.60256-0.94284 0.62420-0.32968
   7  -3   6 1118.09  309.44   1 0.82421-0.27767 0.56574-0.90607-0.02447 0.31926
   7   3   6 1327.21  253.08   1 0.40230 0.14447 0.64949-0.30910-0.64521 0.93999
  -7   3  -720026.65 1485.03   1 0.19774-0.74587 0.12121 0.21896-0.97273 0.62906
  -7  -3  -715577.16 1237.68   1 0.18065-0.72902-0.97879 0.63819-0.09657-0.24744
   7  -3   715124.15 1174.36   1 0.83160-0.28374 0.55536-0.89568 0.00153 0.34239
   7   3   719231.02 1447.74   1 0.45532 0.09281 0.65799-0.31759-0.59976 0.94367
  -7   3  -814101.87  914.65   1 0.22110-0.77061 0.07517 0.26499-0.97234 0.57959
  -7   3  -814703.24 1034.82   1-0.47549-0.07428-0.63228 0.97302-0.61165 0.21843
  -7  -3  -811951.94  846.43   1 0.16553-0.71525-0.97994 0.63934-0.11093-0.28222
   7  -3   812568.34  870.47   1 0.83832-0.28913 0.54447-0.88479 0.02763 0.36541
   7   3   815379.48  987.56   1 0.50480 0.04442 0.66339-0.32300-0.55234 0.94535
  -7   3  -9 7134.08 1196.84   1 0.24132-0.79221 0.03419 0.30597-0.96984 0.52799
  -7   3  -9 6271.68 1076.28   1-0.46792-0.08318-0.64205 0.98279-0.60729 0.16491
  -7  -3  -9 6957.55 1213.62   1 0.14923-0.70028-0.98070 0.64010-0.12629-0.31601
   7  -3   9 7964.62 1317.00   1 0.84435-0.29384 0.53307-0.87340 0.05382 0.38836
   7   3   9 6162.89 1116.31   1 0.55104-0.00046 0.66540-0.32502-0.50357 0.94570
  -7   3 -10 6279.60 1132.56   1 0.25857-0.81084-0.00167 0.34184-0.96599 0.47504
  -7   3 -10 7075.45 1288.82   1-0.46258-0.08986-0.64882 0.98956-0.60418 0.11265
   7  -3  1011186.31 1016.98   1 0.84968-0.29785 0.52117-0.86149 0.08009 0.41122
   7   3  10 7395.12 1339.96   1 0.59370-0.04178 0.66448-0.32409-0.45383 0.94510
  -7   3 -11  472.30  266.85   1 0.27308-0.82674-0.03254 0.37271-0.96143 0.42139
  -7   3 -11 1425.61  479.19   1-0.45934-0.09444-0.65288 0.99362-0.60228 0.06159
  -7  -3 -11  744.12  471.91   1 0.11345-0.66718-0.98065 0.64005-0.15953-0.38105
   7  -3  11  842.09  361.40   1 0.85439-0.30132 0.50864-0.84900 0.10628 0.43404
   7   3  11  662.69  390.78   1 0.63280-0.07953 0.66085-0.32046-0.40352 0.94391
  -7   3 -12 7898.86  868.04   1 0.28511-0.84014-0.05862 0.39880-0.95669 0.36756
  -7   3 -12 6699.79  844.94   1-0.45807-0.09705-0.65447 0.99520-0.60152 0.01168
  -7  -3 -12 9155.07 1135.03   1 0.09412-0.64918-0.97965 0.63905-0.17723-0.41250
   7  -3  12 7037.39  812.23   1 0.85829-0.30390 0.49570-0.83606 0.13268 0.45676
   7   3  12 7378.22  973.12   1 0.66838-0.11354 0.65489-0.31439-0.35266 0.94247
  -7   3 -13 2105.89  499.06   1 0.29489-0.85131-0.08020 0.42037-0.95215 0.31393
  -7   3 -13 1391.68  541.16   1-0.45863-0.09783-0.65377 0.99450-0.60186-0.03713
  -7  -3 -13 3526.16  669.97   1 0.07390-0.63030-0.97790 0.63730-0.19554-0.44334
   7  -3  13 4013.97  693.76   1 0.86145-0.30574 0.48224-0.82260 0.15915 0.47942
   7   3  13 2213.53  607.47   1 0.70055-0.14437 0.64651-0.30602-0.30204 0.94101
   7   4 -12 2849.64  684.43   1 0.46226 0.05937-0.53781 0.99145-0.70502 0.11613
   7  -4 -12 2904.02  835.80   1 0.36707 0.15521-0.87993 0.42604 0.30161-0.89128
  -7  -4  12 2806.19  644.09   1 0.41107-0.93322-0.24159-0.21186 0.87900-0.29018
   7   4 -11 9195.23 1016.02   1 0.46001 0.06301-0.52923 0.98288-0.71294 0.17312
   7  -4 -1111936.06 1348.63   1 0.34783 0.17584-0.86892 0.41503 0.35211-0.89265
  -7  -4  1112427.79 1386.41   1 0.39460-0.91806-0.25481-0.19865 0.88281-0.34306
   7   4 -10 6806.69  709.94   1 0.45621 0.06823-0.51618 0.96971-0.72485 0.23451
   7  -4 -10 7105.38  794.08   1 0.32689 0.19816-0.85481 0.40092 0.40302-0.89442
   7  -4 -10 6803.82  660.72   1 0.68680-0.16084-0.53460 0.08041 0.49244-0.98369
  -7  -4  10 6368.72  774.38   1 0.37496-0.89973-0.27023-0.18323 0.88677-0.39609
   7   4  -9 5141.05  914.34   1 0.45104 0.07479-0.49759 0.95112-0.74091 0.29960
   7  -4  -9 3708.06  747.98   1 0.30444 0.22188-0.83713 0.38311 0.45443-0.89665
   7  -4  -9 4444.62  824.05   1 0.71277-0.18554-0.44702-0.00716 0.54048-0.98261
  -7  -4   9 4319.08 1044.12   1 0.35175-0.87808-0.28811-0.16536 0.89065-0.44902
   7   4  -8 7671.68 1277.45   1 0.44356 0.08366-0.47184 0.92537-0.76198 0.36970
   7  -4  -8 5783.53 1021.77   1 0.27994 0.24777-0.81614 0.36212 0.50551-0.89859
   7  -4  -8 6660.53 1112.91   1 0.73133-0.20352-0.35612-0.09751 0.58165-0.97420
  -7  -4   8 7988.28 1508.69   1 0.32513-0.85277-0.30789-0.14557 0.89414-0.50157
   7   4  -712443.33  841.13   1 0.43276 0.09585-0.43661 0.89014-0.78871 0.44547
   7  -4  -716520.46 1144.25   1 0.25362 0.27549-0.79139 0.33737 0.55620-0.90015
   7  -4  -715442.36 1036.52   1 0.74160-0.21249-0.26656-0.18707 0.61560-0.95908
   7   4  -611059.13  720.44   1 0.41707 0.11293-0.38852 0.84205-0.82164 0.52743
   7  -4  -612043.52  821.06   1 0.22550 0.30499-0.76274 0.30872 0.60611-0.90092
  -7  -4   612034.94  701.58   1 0.27951-0.81024-0.96014 0.50650-0.00013 0.29488
   7  -4  -613406.30  857.93   1 0.74497-0.21456-0.17854-0.27508 0.64275-0.93716
  -7  -4   613268.58 1371.53   1 0.26043-0.79068-0.35353-0.09993 0.89843-0.60401
   7   4  -5  769.16  132.46   1 0.39386 0.13753-0.32245 0.77597-0.86075 0.61558
   7  -4  -5 1261.70  373.38   1 0.19567 0.33621-0.73008 0.27606 0.65473-0.90041
  -7  -4   5 1143.84  204.30   1 0.30795-0.84002-0.95096 0.49732 0.02876 0.21685
   7  -4  -5 2309.81  514.41   1 0.74246-0.21097-0.09306-0.36038 0.66338-0.90863
  -7  -4   5  980.39  327.05   1 0.22215-0.75370-0.37900-0.07447 0.89833-0.65298
  -7   4   413894.93 1106.95   1-0.16566-0.36725 0.69191-0.23832-0.70271 0.89906
   7   4  -411331.15  833.81   1 0.35863 0.17390-0.23044 0.68395-0.90458 0.70849
  -7  -4   410718.99  811.93   1 0.32457-0.85798-0.94474 0.49110 0.04588 0.15060
   7  -4  -412509.28 1019.08   1 0.73472-0.20199-0.01237-0.44108 0.67824-0.87444
  -7  -4   411915.74 1283.96   1 0.17991-0.71276-0.40583-0.04764 0.89606-0.69978
  -7   4   3 2255.19  348.48   1-0.13302-0.40128 0.65125-0.19766-0.74710 0.89437
   7   4  -3 2353.71  221.55   1 0.30351 0.23044-0.09971 0.55321-0.94759 0.80053
  -7  -4   3 2541.63  345.27   1 0.33349-0.86824-0.94113 0.48749 0.05515 0.09221
   7  -4  -3 2338.66  431.37   1 0.72298-0.18900 0.06312-0.51657 0.68797-0.83512
  -7  -4   3 1670.98  305.22   1 0.13326-0.66832-0.43399-0.02021 0.89100-0.74359
  -7   4   217191.83 1681.45   1-0.09939-0.43630 0.60702-0.15343-0.78844 0.88661
   7   4  -217027.06  977.95   1 0.21262 0.32307 0.09204 0.36152-0.97278 0.87459
  -7  -4   219212.06 1175.26   1 0.33695-0.87304-0.93968 0.48604 0.05876 0.03947
   7  -4  -220226.02 1266.60   1 0.70825-0.17302 0.13278-0.58623 0.69335-0.79144
  -7  -4   218388.02 1709.64   1 0.08367-0.62005-0.46226 0.00805 0.88278-0.78451
  -7   4   123906.33 1456.79   1-0.06516-0.47217 0.56000-0.10638-0.82592 0.87505
  -7  -4   123068.66 1380.40   1 0.33631-0.87373-0.93995 0.48631 0.05809-0.00897
   7  -4  -124849.22 1544.89   1 0.69183-0.15562 0.19673-0.65004 0.69473-0.74378
  -7  -4   122514.97 1850.74   1 0.03095-0.56866-0.49047 0.03626 0.87090-0.82176
   7  -4  -124268.46 1391.61   1 0.86547-0.32827 0.45409-0.90790 0.21152-0.26064
  -7   4   029626.39 1769.44   1-0.03077-0.50795 0.51016-0.05653-0.85952 0.85952
  -7  -4   019636.21 1256.33   1 0.33244-0.87120-0.94157 0.48793 0.05406-0.05406
   7  -4   019649.72 1305.00   1 0.67398-0.13650 0.25382-0.70713 0.69377-0.69377
  -7  -4   020354.93 1739.40   1-0.02434-0.51469-0.51806 0.06385 0.85499-0.85499
   7  -4   020878.01 1220.43   1 0.86245-0.32393 0.47702-0.93083 0.16914-0.16914
  -7   4  -116090.55 2213.24   1 0.00326-0.54337 0.45864-0.00502-0.88861 0.83947
  -7  -4  -117675.80 1126.30   1 0.32595-0.86605-0.94419 0.49056 0.04732-0.09644
   7  -4   117441.48 1193.85   1 0.65577-0.11702 0.30464-0.75795 0.69076-0.64171
  -7  -4  -119013.33 1516.90   1-0.08127-0.45898-0.54482 0.09082 0.83460-0.88379
   7  -4   117335.60 1039.28   1 0.86011-0.32026 0.48843-0.94224 0.14709-0.09797
  -7   4  -222350.86 2145.30   1 0.03644-0.57792 0.40634 0.04727-0.91299 0.81471
  -7  -4  -219766.72 1463.81   1 0.31727-0.85871-0.94755 0.49391 0.03834-0.13659
   7  -4   219604.36 1485.15   1 0.63782-0.09780 0.34941-0.80273 0.68635-0.58826
  -7  -4  -221864.78 2212.97   1-0.13980-0.40184-0.56948 0.11548 0.81002-0.90839
   7  -4   221862.74 1563.08   1 0.85884-0.31767 0.49359-0.94741 0.13689-0.03865
  -7   4  -3 5099.42  728.17   1 0.06837-0.61107 0.35417 0.09945-0.93267 0.78530
  -7  -4  -3 6044.91  638.33   1 0.30672-0.84949-0.95139 0.49776 0.02750-0.17488
   7  -4   3 7142.51  667.77   1 0.62064-0.07936 0.38846-0.84177 0.68109-0.53396
  -7  -4  -3 6439.01  804.34   1-0.19875-0.34428-0.59189 0.13789 0.78112-0.92868
   7  -4   3 6913.75  577.42   1 0.85852-0.31602 0.49485-0.94866 0.13440 0.01295
  -7   4  -4 9935.92 1529.28   1 0.09845-0.64251 0.30313 0.15049-0.94784 0.75135
  -7  -4  -411114.60  839.19   1 0.29455-0.83866-0.95551 0.50187 0.01508-0.21157
   7  -4   411383.68  821.28   1 0.60517-0.06201 0.42211-0.87582 0.67496-0.47862
  -7  -4  -411342.24  829.12   1-0.25734-0.28708-0.61165 0.15765 0.74809-0.94484
   7  -4   411256.46  706.41   1 0.85889-0.31508 0.49340-0.94721 0.13728 0.05919
  -7   4  -524014.14 2035.79   1 0.12644-0.67186 0.25402 0.19959-0.95889 0.71327
  -7  -4  -517954.92 1145.58   1 0.28093-0.82638-0.95972 0.50608 0.00129-0.24691
   7  -4   517463.47 1115.10   1 0.59059-0.04612 0.45084-0.90455 0.66928-0.42385
   7  -4   517347.18 1022.12   1 0.85975-0.31461 0.48996-0.94377 0.14409 0.10151
   7   4   526440.92 1602.23   1 0.31350 0.23191 0.62927-0.17541-0.71114 0.95678
  -7   4  -6 7470.17 1145.41   1 0.15210-0.69888 0.20757 0.24605-0.96632 0.67157
  -7  -4  -610824.74  881.32   1 0.26602-0.81281-0.96386 0.51023-0.01367-0.28107
   7  -4   6 9994.49 1661.65   1 0.57761-0.03184 0.47504-0.92875 0.66384-0.36933
   7  -4   610450.12  747.45   1 0.86088-0.31443 0.48496-0.93877 0.15388 0.14084
   7   4   6 9460.13 1205.02   1 0.36939 0.17738 0.64283-0.18897-0.67105 0.96582
  -7   4  -7 8099.59 1603.62   1 0.17531-0.72345 0.16433 0.28929-0.97069 0.62683
  -7  -4  -710151.21  903.79   1 0.24994-0.79806-0.96780 0.51416-0.02967-0.31419
   7  -4   710810.02  873.27   1 0.56635-0.01927 0.49509-0.94880 0.65888-0.31527
   7  -4   7 8857.11  721.38   1 0.86215-0.31437 0.47867-0.93248 0.16599 0.17785
   7   4   7 8897.49  867.58   1 0.42304 0.12509 0.65316-0.19930-0.62801 0.97192
  -7   4  -810086.13  952.22   1 0.19589-0.74540 0.12479 0.32877-0.97265 0.57989
  -7  -4  -8 9050.12  968.23   1 0.23261-0.78232-0.97146 0.51733-0.04627-0.34688
   7  -4   8 8478.96  903.24   1 0.55686-0.00848 0.51136-0.96507 0.65452-0.26183
   7  -4   8 9134.35  878.52   1 0.86341-0.31431 0.47130-0.92511 0.17995 0.21300
   7   4   810051.26  942.77   1 0.47403 0.07547 0.66027-0.20641-0.58251 0.97554
  -7   4  -9 1257.66  348.44   1 0.21414-0.76503 0.08903 0.36453-0.97273 0.53088
  -7  -4  -9 3538.57  819.09   1 0.21444-0.76549-0.97463 0.52050-0.06402-0.37827
   7  -4   9 2657.34  641.81   1 0.54916 0.00052 0.52418-0.97789 0.65088-0.20911
   7  -4   9 2830.33  604.74   1 0.86456-0.31414 0.46296-0.91677 0.19542 0.24665
   7   4   9 2973.14  655.29   1 0.52177 0.02879 0.66446-0.21061-0.53500 0.97714
  -7   4 -1014549.66 1486.64   1 0.23002-0.78229 0.05723 0.39633-0.97150 0.48055
  -7  -4 -1012390.65 1405.46   1 0.19534-0.74773-0.97725 0.52312-0.08249-0.40894
   7  -4  1012959.60 1380.11   1 0.86550-0.31376 0.45375-0.90756 0.21214 0.27906
   7   4  1013599.38 1462.15   1 0.56660-0.01468 0.66540-0.21155-0.48599 0.97725
  -7   4 -1123026.45 1683.56   1 0.24365-0.79731 0.02938 0.42417-0.96941 0.42937
   7  -4  1121262.88 1676.38   1 0.53901 0.01328 0.54056-0.99427 0.64594-0.10600
   7  -4  1122728.04 1692.00   1 0.86616-0.31309 0.44374-0.89755 0.22989 0.31043
   7   4  1122459.65 1662.66   1 0.60813-0.05485 0.66348-0.20963-0.43585 0.97624
   7   5 -10 8909.74 1106.79   1 0.40863 0.11580-0.36390 0.93080-0.83701 0.34667
   7  -5 -10 9169.30 1278.72   1 0.30830 0.21664-0.84024 0.27271 0.44603-0.93738
   7  -5 -10 9006.08 1124.98   1 0.68817-0.16222-0.53064-0.03709 0.49480-0.98605
  -7  -5  10 9289.79 1545.01   1 0.34863-0.87366-0.29046-0.27637 0.89111-0.40041
   7   5  -910019.90  801.66   1 0.39845 0.12738-0.33511 0.90202-0.85377 0.41247
   7  -5  -910475.00  941.17   1 0.28532 0.24100-0.82092 0.25340 0.49463-0.93685
   7  -5  -9 9474.89  806.46   1 0.70999-0.18276-0.45804-0.10969 0.53489-0.97701
  -7  -5   910077.37 1130.74   1 0.32674-0.85307-0.30671-0.26011 0.89395-0.45232
   7   5  -8  783.14  287.75   1 0.38477 0.14209-0.29803 0.86490-0.87356 0.48139
   7  -5  -8 1194.48  522.96   1 0.26090 0.26681-0.79845 0.23092 0.54258-0.93567
   7  -5  -8 1017.88  349.12   1 0.72614-0.19763-0.38448-0.18325 0.56999-0.96299
  -7  -5   8  892.88  312.50   1 0.30160-0.82923-0.32489-0.24194 0.89637-0.50381
   7   5  -717577.41 1486.71   1 0.36659 0.16170-0.25055 0.81743-0.89600 0.55285
   7  -5  -716383.33 1536.70   1 0.23509 0.29401-0.77275 0.20523 0.58955-0.93350
   7  -5  -716909.40 1480.52   1 0.73755-0.20844-0.30968-0.25735 0.60008-0.94356
  -7  -5   717709.73 2074.42   1 0.27306-0.80200-0.34489-0.22194 0.89804-0.55455
   7   5  -6 6068.92 1027.72   1 0.34220 0.18750-0.18999 0.75687-0.92021 0.62608
   7  -5  -6 7607.51 1384.17   1 0.20798 0.32251-0.74382 0.17630 0.63518-0.92999
   7  -5  -6 7916.83  733.86   1 0.74343-0.21303-0.23727-0.32976 0.62530-0.91971
  -7  -5   6 8848.83  979.38   1 0.24101-0.77126-0.36659-0.20024 0.89862-0.60420
  -7   5   518799.72 1630.71   1-0.18112-0.35039 0.71037-0.14338-0.68011 0.92556
  -7  -5   518419.60 1523.58   1 0.40067-0.93274-0.90741 0.34036 0.12672 0.11889
   7  -5  -519836.77 1675.19   1 0.74494-0.21324-0.16684-0.40020 0.64592-0.89127
  -7  -5   522444.47 2402.21   1 0.20540-0.73694-0.38979-0.17704 0.89770-0.65235
  -7   5   426731.93 1856.81   1-0.15195-0.38096 0.67511-0.10812-0.72189 0.91824
  -7  -5   423833.65 1619.11   1 0.40580-0.93921-0.90432 0.33727 0.13233 0.06416
   7  -5  -425759.79 1818.61   1 0.74281-0.21008-0.09875-0.46806 0.66216-0.85836
  -7  -5   424672.16 2307.91   1 0.16622-0.69907-0.41424-0.15259 0.89485-0.69857
  -7   5   3 6488.94 1394.84   1-0.12203-0.41227 0.63705-0.07006-0.76109 0.90836
  -7  -5   3 8502.20 1440.25   1 0.40676-0.94150-0.90374 0.33669 0.13337 0.01399
   7  -5  -311126.10  976.75   1 0.73734-0.20336-0.03452-0.53228 0.67462-0.82177
  -7  -5   3 9092.43 1022.44   1 0.12292-0.65798-0.44003-0.12773 0.88952-0.74212
  -7   5   2 2398.37  587.43   1-0.09166-0.44404 0.59652-0.02953-0.79734 0.89551
  -7  -5   2 3697.39  651.01   1 0.40446-0.94054-0.90514 0.33809 0.13086-0.03261
   7  -5  -2 3746.41  781.69   1 0.72933-0.19410 0.02577-0.59259 0.68366-0.78176
  -7  -5   2 3370.71  688.37   1 0.07700-0.61338-0.46593-0.10182 0.88145-0.78318
  -7   5   111249.48 1594.50   1-0.06112-0.47622 0.55426 0.01276-0.83009 0.87923
  -7  -5   111052.65  739.59   1 0.39951-0.93694-0.90809 0.34105 0.12546-0.07634
   7  -5  -114298.03 1000.52   1 0.71940-0.18292 0.08180-0.64861 0.68975-0.73880
  -7  -5   111837.73 1534.98   1 0.02811-0.56582-0.49194-0.07581 0.87017-0.82103
  -7   5   0 3619.60  720.58   1-0.03078-0.50793 0.51018 0.05684-0.85951 0.85951
  -7  -5   0  799.40  226.74   1 0.39236-0.93112-0.91225 0.34520 0.11768-0.11768
   7  -5   0 2047.60  439.61   1 0.70813-0.17040 0.13331-0.70013 0.69338-0.69338
  -7  -5   0 1698.36  379.13   1-0.02335-0.51567-0.51758-0.05017 0.85531-0.85531
  -7   5  -136859.60 2492.33   1-0.00099-0.53910 0.46521 0.10181-0.88519 0.83606
  -7  -5  -125475.62 1772.55   1 0.38330-0.92340-0.91729 0.35025 0.10790-0.15702
   7  -5   126766.88 1901.68   1 0.69637-0.15763 0.18065-0.74729 0.69456-0.64551
  -7  -5  -125464.38 3071.01   1-0.07650-0.46375-0.54270-0.02479 0.83642-0.88561
  -7   5  -214895.29 1314.21   1 0.02790-0.56938 0.42000 0.14701-0.90709 0.80881
  -7  -5  -216042.57 1155.24   1 0.37258-0.91401-0.92297 0.35593 0.09639-0.19464
   7  -5   218033.70 1341.86   1 0.68397-0.14395 0.22294-0.78958 0.69460-0.59651
  -7  -5  -214991.27 1774.35   1-0.13163-0.41002-0.56618-0.00131 0.81370-0.91207
   7  -5   215552.36 1053.13   1 0.85278-0.31130 0.33316-0.90039 0.40218-0.30393
  -7   5  -3 4497.49  898.04   1 0.05559-0.59845 0.37521 0.19181-0.92526 0.77785
  -7  -5  -3 7118.27 1212.60   1 0.36037-0.90315-0.92907 0.36202 0.08340-0.23077
   7  -5   3 7550.32 1324.96   1 0.67164-0.13036 0.26071-0.82735 0.69348-0.54634
  -7  -5  -3 7163.47 1376.09   1-0.18760-0.35544-0.58785 0.02034 0.78691-0.93447
   7  -5   3 6659.90 1087.19   1 0.85808-0.31525 0.35505-0.92228 0.37098-0.22360
  -7   5  -4 3324.43  824.05   1 0.08190-0.62595 0.33143 0.23559-0.93991 0.74341
  -7  -5  -4 2251.10  534.94   1 0.34683-0.89094-0.93537 0.36832 0.06911-0.26561
   7  -5   4 3489.89  780.37   1 0.65973-0.11718 0.29409-0.86073 0.69156-0.49537
  -7  -5  -4 3130.51  636.55   1-0.24376-0.30067-0.60730 0.03980 0.75614-0.95289
   7  -5   4 2432.99  483.09   1 0.86078-0.31660 0.36867-0.93590 0.35089-0.15439
  -7   5  -5  767.10  274.38   1 0.10642-0.65183 0.28931 0.27771-0.95129 0.70567
  -7  -5  -5 1235.59  423.11   1 0.33206-0.87751-0.94172 0.37467 0.05367-0.29929
   7  -5   5 1615.30  470.02   1 0.64851-0.10469 0.32329-0.88993 0.68913-0.44390
   7  -5   5  903.23  275.56   1 0.86215-0.31663 0.37673-0.94396 0.33876-0.09313
   7   5   5 1757.90  582.83   1 0.29790 0.24750 0.62502-0.05769-0.72152 0.96716
  -7   5  -6 5935.79 1279.82   1 0.12908-0.67585 0.24931 0.31771-0.95978 0.66503
  -7  -5  -6 3558.45  748.03   1 0.31617-0.86296-0.94797 0.38092 0.03721-0.33195
   7  -5   6 6445.01 1162.73   1 0.63820-0.09311 0.34852-0.91516 0.68646-0.39218
   7  -5   6 4923.43  887.04   1 0.86278-0.31591 0.38080-0.94803 0.33255-0.03780
   7   5   6 4962.55  920.88   1 0.35262 0.19415 0.63905-0.07172-0.68357 0.97834
  -7   5  -7 3091.16  793.60   1 0.14978-0.69792 0.21184 0.35518-0.96575 0.62188
  -7  -5  -7 6094.10  815.30   1 0.29922-0.84734-0.95397 0.38692 0.01984-0.36371
   7  -5   7 6283.51  728.82   1 0.62895-0.08259 0.36999-0.93663 0.68375-0.34043
   7  -5   7 6968.29  700.65   1 0.86294-0.31472 0.38186-0.94909 0.33092 0.01294
   7   5   7 5404.82 1173.72   1 0.40571 0.14242 0.65013-0.08280-0.64243 0.98633
  -7   5  -8 3386.70  812.60   1 0.16848-0.71798 0.17719 0.38983-0.96964 0.57665
  -7  -5  -8 4282.19  976.23   1 0.28128-0.83074-0.95962 0.39257 0.00164-0.39464
   7  -5   8 5982.70  781.27   1 0.62088-0.07325 0.38793-0.95457 0.68117-0.28881
   7  -5   8 5029.37  648.45   1 0.86274-0.31318 0.38055-0.94779 0.33292 0.06007
   7   5   8 3087.19  784.57   1 0.45672 0.09278 0.65817-0.09085-0.59850 0.99153
  -7   5  -9 4421.90  739.97   1 0.18504-0.73593 0.14567 0.42128-0.97187 0.53002
  -7  -5  -9 4045.37  623.10   1 0.26240-0.81320-0.96480 0.39775-0.01728-0.42483
   7  -5   9 4608.33  666.68   1 0.86225-0.31133 0.37732-0.94456 0.33785 0.10426
   7   5   9 5612.33  775.87   1 0.50495 0.04561 0.66340-0.09609-0.55219 0.99432
   7  -6  -617944.79 2142.42   1 0.20026 0.33023-0.73525 0.05422 0.64752-0.94233
   7  -6  -616708.30 1975.11   1 0.73897-0.20857-0.29639-0.38405 0.60503-0.89944
  -7  -6   618533.21 2501.42   1 0.21093-0.74117-0.38625-0.29395 0.89795-0.60352
  -7   6   5 6236.78  614.27   1-0.17534-0.35617 0.70353-0.02315-0.68868 0.93413
   7  -6  -5 4397.88  841.41   1 0.74346-0.21176-0.23677-0.44368 0.62546-0.87080
  -7  -6   5 4807.93 1206.73   1 0.17729-0.70883-0.40745-0.27275 0.89585-0.65050
  -7   6   4 1002.98  326.59   1-0.14841-0.38450 0.67071 0.00967-0.72671 0.92307
  -7  -6   4 1144.67  286.85   1 0.44707-0.98042-0.87682 0.19589 0.17692 0.01961
   7  -6  -4  721.22  331.09   1 0.74497-0.21197-0.17910-0.50134 0.64260-0.83887
  -7  -6   4 1609.17  498.49   1 0.13968-0.67341-0.43021-0.25110 0.89185-0.69531
  -7   6   323794.22 2352.79   1-0.12109-0.41321 0.63582 0.04456-0.76227 0.90954
  -7  -6   316237.66 1611.34   1 0.44529-0.97997-0.87813 0.19720 0.17491-0.02750
   7  -6  -321077.24 2140.28   1 0.74390-0.20961-0.12386-0.55658 0.65670-0.80390
  -7  -6   319988.78 2099.71   1 0.09966-0.63472-0.45333-0.22798 0.88575-0.73834
  -7   6   2 8237.05 1066.82   1-0.09361-0.44208 0.59919 0.08119-0.79511 0.89328
  -7  -6   2 6021.68  699.29   1 0.44109-0.97710-0.88117 0.20025 0.17018-0.07191
   7  -6  -2 6214.69  739.56   1 0.74085-0.20562-0.07109-0.60908 0.66789-0.76599
  -7  -6   2 8364.21 1088.61   1 0.05663-0.59302-0.47696-0.20435 0.87709-0.77882
  -7   6   1 6071.64 1204.98   1-0.06619-0.47115 0.56145 0.11897-0.82485 0.87399
  -7  -6   1 9280.56  989.47   1 0.43482-0.97216-0.88561 0.20468 0.16315-0.11402
   7  -6  -112402.07 1317.57   1 0.73589-0.19941-0.02180-0.65837 0.67674-0.72579
  -7  -6   1 9033.63 1355.77   1 0.01083-0.54854-0.50075-0.18056 0.86552-0.81638
  -7   6   012753.12 2043.71   1-0.03913-0.49958 0.52249 0.15794-0.85174 0.85174
  -7  -6   012015.37 1248.86   1 0.42675-0.96542-0.89112 0.21020 0.15417-0.15417
   7  -6   014552.43 1552.16   1 0.72959-0.19186 0.02414-0.70432 0.68345-0.68345
  -7  -6   013212.64 1621.99   1-0.03742-0.50161-0.52428-0.15703 0.85071-0.85071
  -7   6  -1 3336.35  808.96   1-0.01268-0.52741 0.48305 0.19737-0.87549 0.82636
  -7  -6  -1 1788.22  451.17   1 0.41708-0.95708-0.89747 0.21654 0.14347-0.19260
   7  -6   1 2779.06  691.43   1 0.72233-0.18335 0.06661-0.74679 0.68832-0.63927
  -7  -6  -1 2723.04  695.57   1-0.08727-0.45298-0.54745-0.13354 0.83227-0.88145
  -7   6  -2 5877.12 1195.69   1 0.01292-0.55440 0.44363 0.23680-0.89611 0.79784
  -7  -6  -2 4138.24  901.93   1 0.40554-0.94698-0.90448 0.22402 0.13204-0.23029
   7  -6   2 5997.08  842.53   1 0.71447-0.17424 0.10551-0.78569 0.69166-0.59356
  -7  -6  -2 4018.36 1160.41   1-0.13928-0.40236-0.56927-0.11172 0.81026-0.90863
  -7  -6  -3 1936.50  511.68   1 0.39306-0.93583-0.91184 0.23139 0.11845-0.26582
   7  -6   3 2816.78  709.53   1 0.70631-0.16484 0.14082-0.82100 0.69374-0.54660
  -7  -6  -3 2920.15  700.86   1-0.19236-0.35068-0.58958-0.09141 0.78446-0.93202
  -7   6  -4 2684.79  584.45   1 0.06085-0.60491 0.36666 0.31377-0.92836 0.73186
  -7  -6  -4 3909.75  793.78   1 0.37936-0.92347-0.91942 0.23896 0.10366-0.30015
   7  -6   4 1557.72  396.58   1 0.69848-0.15593 0.17293-0.85290 0.69441-0.49822
  -7  -6  -4 2722.30  632.55   1-0.24594-0.29849-0.60801-0.07298 0.75486-0.95161
  -7   6  -510593.43 1814.34   1 0.08273-0.62815 0.33002 0.35041-0.94033 0.69471
  -7  -6  -512408.80 1561.93   1 0.36451-0.90995-0.92705 0.24659 0.08779-0.33341
   7  -6   511794.48 1456.55   1 0.69054-0.14672 0.20116-0.88113 0.69475-0.44952
   7   6   513809.30 1650.33   1 0.29778 0.24762 0.62498 0.05580-0.72160 0.96724
  -7   6  -6 1736.10  359.08   1 0.10308-0.64986 0.29512 0.38531-0.94988 0.65513
  -7  -6  -6 2311.21  498.32   1 0.34858-0.89536-0.93458 0.25413 0.07094-0.36569
   7  -6   6 2180.02  540.82   1 0.68302-0.13793 0.22598-0.90595 0.69455-0.40027
   7   6   6 2267.41  473.14   1 0.35077 0.19600 0.63862 0.04216-0.68492 0.97969
   8   0 -1411733.24 1555.18   1 0.48471 0.11209-0.85544 0.85544-0.18235-0.50560
  -8   0  14 4832.41  971.76   1 0.33438-0.93106-0.30109 0.30109 0.89304-0.20606
   8   0 -1321005.98 2152.66   1 0.48039 0.11778-0.86419 0.86419-0.14964-0.48918
  -8   0  1321221.00 2090.53   1 0.31565-0.91364-0.31479 0.31479 0.89513-0.25722
   8   0 -12 1698.03  479.31   1 0.47542 0.12411-0.87204 0.87204-0.11625-0.47343
  -8   0  12 2262.37  607.67   1 0.29245-0.89174-0.33136 0.33136 0.89702-0.30818
   8   0 -11  902.56  353.02   1 0.46976 0.13113-0.87896 0.87896-0.08204-0.45849
  -8   0  11  879.50  262.87   1 0.26450-0.86510-0.35076 0.35076 0.89833-0.35855
   8   0 -10 2338.41  527.11   1 0.46320 0.13852-0.88502 0.88502-0.04665-0.44446
  -8   0  10 1800.55  378.53   1 0.23156-0.83346-0.37284 0.37284 0.89853-0.40783
   8   0  -9 1358.08  438.03   1 0.45594 0.14716-0.88994 0.88994-0.01033-0.43166
  -8   0   9 1208.62  279.97   1 0.19349-0.79669-0.39734 0.39734 0.89703-0.45540
   8   0  -8 6185.22  568.45   1 0.44773 0.15675-0.89374 0.89374 0.02739-0.42028
  -8   0   8 8138.24  970.60   1 0.14951-0.75493-0.42436 0.42436 0.89306-0.49997
   8   0  -758007.01 3362.16   1 0.43840 0.16746-0.89628 0.89628 0.06685-0.41063
  -8   0   752069.70 2994.62   1 0.10141-0.70816-0.45234 0.45234 0.88605-0.54210
   8   0  -649148.43 2136.24   1 0.42774 0.17950-0.89736 0.89736 0.10845-0.40312
   8   0  -643460.27 1796.22   1 0.71060-0.10396 0.12460-0.12460 0.69246-0.98674
  -8   0   643151.28 1866.49   1 0.04885-0.65693-0.48110 0.48110 0.87529-0.58048
   8   0  -5 1579.93  285.29   1 0.41547 0.19316-0.89669 0.89669 0.15272-0.39828
   8   0  -5 1748.16  257.65   1 0.62928-0.02137 0.36924-0.36924 0.68385-0.92908
  -8   0   5 2172.52  368.66   1-0.00742-0.60197-0.50984 0.50984 0.86023-0.61455
   8   0  -4  635.32  284.87   1 0.40138 0.20899-0.89371 0.89371 0.20043-0.39699
   8   0  -4  729.13  159.64   1 0.36537 0.24499-0.92662 0.92662 0.08871-0.28520
   8   0  -4  341.60  163.13   1 0.54548 0.06407 0.53018-0.53018 0.64911-0.84545
  -8   0   4  393.60  225.47   1-0.06650-0.54422-0.53771 0.53771 0.84050-0.64396
   8   0  -3  691.66  166.75   1 0.38445 0.22730-0.88797 0.88797 0.25237-0.39979
  -8   0   3 1395.63  179.50   1-0.47045-0.14159-0.63881 0.63881-0.60876 0.75622
  -8   0   3  892.66  178.04   1-0.12682-0.48484-0.56422 0.56422 0.81582-0.66826
   8   0  -2  378.68  113.70   1 0.15911 0.45370 0.19464-0.19464-0.96788 0.86963
   8   0  -2  987.52  282.48   1 0.36409 0.24905-0.87836 0.87836 0.30970-0.40798
  -8   0   2  517.61  143.61   1-0.40584-0.20755-0.71482 0.71482-0.56948 0.66779
  -8   0   2  525.66  225.32   1-0.18820-0.42486-0.58807 0.58807 0.78660-0.68823
   8   0  -115409.01 1587.71   1 0.23129 0.38270 0.05465-0.05465-0.97134 0.92225
   8   0  -118210.89 1884.43   1 0.33911 0.27541-0.86330 0.86330 0.37377-0.42291
  -8   0   117196.26 1837.42   1-0.35204-0.26268-0.76858 0.76858-0.53417 0.58332
  -8   0   117689.41 1846.12   1-0.24891-0.36554-0.60897 0.60897 0.75312-0.70393
   8   0   040006.51 1320.94   1 0.30754 0.30754-0.10883 0.10883-0.94528 0.94528
   8   0   040395.79 1352.13   1 0.30791 0.30791-0.83993 0.83993 0.44687-0.44687
  -8   0   041957.80 1447.21   1-0.30771-0.30771-0.80752 0.80752-0.50319 0.50319
   8   0   044735.07 1589.03   1 0.30776 0.30776 0.62773-0.62773-0.71499 0.71499
   8   0   1 4169.47  456.54   1 0.38014 0.23635-0.28573 0.28573-0.87968 0.92870
   8   0   1 3803.41  432.49   1 0.26853 0.34868-0.80567 0.80567 0.52799-0.47885
  -8   0  -1 5539.87  881.90   1-0.27228-0.34446-0.83520 0.83520-0.47780 0.42869
   8   0   1 3949.79  565.39   1 0.36416 0.25273 0.64168-0.64168-0.67500 0.72413
   8   0   223916.95 1207.85   1 0.43941 0.17864-0.45807 0.45807-0.77271 0.87078
   8   0   223359.22 1187.77   1 0.21911 0.39949-0.75593 0.75593 0.61689-0.51862
  -8   0  -229013.25 1571.03   1-0.24419-0.37387-0.85521 0.85521-0.45714 0.35893
   8   0   227842.18 1508.51   1 0.41749 0.20077 0.65222-0.65222-0.63269 0.73095
  -8   0  -352806.55 2613.16   1-0.15756-0.46203 0.68204-0.68204-0.71413 0.56686
   8   0   349154.35 2438.88   1 0.47833 0.14105-0.60569 0.60569-0.63586 0.78309
  -8   0  -358344.58 2980.28   1-0.22237-0.39701-0.86962 0.86962-0.44079 0.29346
   8   0   355982.71 2849.78   1 0.46738 0.15224 0.65950-0.65950-0.58872 0.73611
  -8   0  -458011.98 2401.88   1-0.08818-0.53281 0.59177-0.59177-0.80126 0.60491
  -8   0  -464441.57 2753.23   1-0.20590-0.41480-0.87987 0.87987-0.42827 0.23184
   8   0   459778.59 2558.19   1 0.51353 0.10721 0.66399-0.66399-0.54350 0.74001
  -8   0  -559887.91 2482.99   1-0.01508-0.60748 0.48669-0.48669-0.87344 0.62776
  -8   0  -562935.11 2796.58   1-0.19402-0.42800-0.88694 0.88694-0.41915 0.17361
   8   0   559896.52 2582.48   1 0.55613 0.06596 0.66544-0.66544-0.49789 0.74352
  -8   0  -6 4403.68  486.54   1 0.05576-0.67948 0.37505-0.37505-0.92532 0.63057
  -8   0  -6 5228.54  816.27   1-0.18608-0.43726-0.89150 0.89150-0.41302 0.11837
   8   0   6 5813.41  619.59   1 0.59513 0.02830 0.66440-0.66440-0.45208 0.74683
  -8   0  -7 9765.17  789.99   1 0.11890-0.74398 0.26741-0.26741-0.95621 0.61234
  -8   0  -712511.33 1778.60   1-0.18156-0.44310-0.89405 0.89405-0.40951 0.06576
   8   0   710274.83  870.61   1 0.63069-0.00590 0.66112-0.66112-0.40636 0.75025
  -8   0  -845405.52 2436.63   1 0.17217-0.79862 0.17026-0.17026-0.97024 0.57724
  -8   0  -853579.65 2989.41   1-0.18001-0.44596-0.89491 0.89491-0.40831 0.01545
   8   0   852591.56 2945.02   1 0.66300-0.03655 0.65601-0.65601-0.36065 0.75386
  -8   0  -9 2281.58  322.32   1 0.21517-0.84299 0.08698-0.08698-0.97269 0.53084
  -8   0  -9 2296.15  470.12   1-0.18108-0.44622-0.89432 0.89432-0.40914-0.03282
   8   0   9 1644.89  325.07   1 0.69219-0.06440 0.64899-0.64899-0.31570 0.75806
  -8   0 -10 3054.49  536.15   1 0.24936-0.87856 0.01757-0.01757-0.96825 0.47730
   8   0  10 3922.89  820.99   1 0.71852-0.08939 0.64039-0.64039-0.27131 0.76282
  -8   0 -11 1894.73  526.76   1-0.18988-0.44005-0.88933 0.88933-0.41596-0.12421
   8   0  11 2123.32  612.11   1 0.74218-0.11171 0.63038-0.63038-0.22753 0.76820
  -8   0 -12  430.48  292.73   1-0.19714-0.43411-0.88510 0.88510-0.42156-0.16772
  -8   0 -1314614.02 2166.85   1-0.20607-0.42650-0.87977 0.87977-0.42840-0.20998
   8   0  1315846.11 1305.06   1 0.78220-0.14905 0.60664-0.60664-0.14191 0.78087
   8   1 -14 9988.68 1312.66   1 0.49643 0.10042-0.80881 0.92241-0.31522-0.37291
   8  -1 -14 9393.05 1216.01   1 0.46620 0.13060-0.88249 0.76893-0.06211-0.62584
  -8  -1  14 8398.89 1230.35   1 0.36962-0.96630-0.27447 0.16111 0.88771-0.20073
   8   1 -13 6148.34  799.55   1 0.49513 0.10304-0.81848 0.93204-0.29143-0.34739
   8  -1 -13 8841.26 1131.52   1 0.45835 0.13922-0.88849 0.77502-0.02205-0.61640
  -8  -1  13 4609.21 1095.19   1 0.35404-0.95203-0.28637 0.17300 0.89030-0.25239
   8   1 -1218852.54 1684.02   1 0.49344 0.10609-0.82739 0.94095-0.26820-0.32148
   8  -1 -1221790.72 1956.49   1 0.44963 0.14933-0.89301 0.77954 0.01894-0.60828
  -8   1  1214351.58 1603.14   1 0.20930-0.80859-0.38729 0.50066 0.89788-0.30903
  -8  -1  1217931.34 2093.51   1 0.33469-0.93398-0.30085 0.18749 0.89300-0.30416
   8   1 -11 5721.44 1089.87   1 0.49150 0.10940-0.83559 0.94915-0.24536-0.29518
   8  -1 -11 2753.55  597.83   1 0.43976 0.16058-0.89601 0.78255 0.06128-0.60151
  -8   1  11 4178.17  821.83   1 0.17404-0.77463-0.40945 0.52282 0.89557-0.35580
  -8  -1  11 2417.62  612.98   1 0.31131-0.91190-0.31792 0.20456 0.89554-0.35577
   8   1 -1039459.71 6511.47   1 0.48933 0.11293-0.84310 0.95666-0.22300-0.26840
   8  -1 -1042571.21 7018.81   1 0.42861 0.17311-0.89734 0.78387 0.10517-0.59629
  -8   1  1033842.71 2260.18   1 0.13189-0.73466-0.43480 0.54835 0.89081-0.39946
  -8  -1  1038267.56 3586.16   1 0.28366-0.88556-0.33753 0.22416 0.89755-0.40685
   8   1  -926919.74 1608.14   1 0.48696 0.11666-0.84992 0.96348-0.20123-0.24102
   8  -1  -930737.13 1796.05   1 0.41601 0.18709-0.89676 0.78329 0.15082-0.59283
  -8   1   923305.21 1389.59   1 0.08510-0.68920-0.46147 0.57502 0.88306-0.44084
  -8  -1   929992.88 1713.83   1 0.25154-0.85474-0.35954 0.24618 0.89858-0.45694
   8   1  -8 6683.87  655.59   1 0.48445 0.12054-0.85605 0.96961-0.18022-0.21289
   8  -1  -8 3240.67  523.84   1 0.40176 0.20273-0.89398 0.78051 0.19845-0.59135
  -8   1   8 5438.72  746.28   1 0.03302-0.63845-0.48940 0.60295 0.87143-0.47834
  -8  -1   8 3061.62  495.15   1 0.21484-0.81934-0.38373 0.27036 0.89810-0.50554
   8   1  -7 1023.09  350.30   1 0.48184 0.12451-0.86148 0.97504-0.16019-0.18378
   8  -1  -7 1271.83  447.59   1 0.38585 0.22035-0.88853 0.77506 0.24824-0.59221
   8  -1  -7  623.03  125.47   1 0.74496-0.13896-0.16945 0.05604 0.64522-0.98870
  -8   1   7  497.95  140.73   1-0.02356-0.58318-0.51768 0.63124 0.85524-0.51129
  -8  -1   7 1397.40  328.58   1 0.17355-0.77936-0.40975 0.29638 0.89553-0.55204
   8   1  -612445.10  964.61   1 0.47922 0.12850-0.86621 0.97977-0.14145-0.15338
   8  -1  -612789.33  982.74   1 0.36744 0.24015-0.88012 0.76664 0.30062-0.59545
   8  -1  -610762.49  785.22   1 0.72628-0.11923 0.04448-0.15784 0.68594-0.98023
   8   1  -612529.65  875.19   1 0.67507-0.06842 0.25056-0.13723 0.69389-0.98817
  -8   1   612798.15 1310.00   1-0.08278-0.52471-0.54548 0.65898 0.83402-0.53890
  -8  -1   612185.12 1324.80   1 0.12716-0.73524-0.43756 0.32401 0.89014-0.59533
   8   1  -511173.48 1307.82   1 0.47670 0.13238-0.87020 0.98376-0.12450-0.12119
   8  -1  -514286.92 1697.16   1 0.34640 0.26258-0.86802 0.75455 0.35571-0.60141
   8  -1  -511747.60 1364.95   1 0.68509-0.07717 0.21932-0.33265 0.69465-0.93988
  -8   1   512131.24 1418.99   1-0.14502-0.46386-0.57156 0.68507 0.80763-0.56170
  -8  -1   513142.66 1775.08   1 0.07736-0.68676-0.46574 0.35219 0.88153-0.63585
   8  -1  -468805.49 3453.71   1 0.32230 0.28806-0.85146 0.73798 0.41367-0.61023
  -8  -1   464004.14 3194.40   1-0.39265-0.21806-0.72874 0.61516-0.56103 0.75764
   8  -1  -467188.13 3345.82   1 0.63406-0.02487 0.35825-0.47158 0.68528-0.88146
  -8   1   460514.30 3026.75   1-0.20782-0.40245-0.59512 0.70862 0.77629-0.57955
  -8  -1   463487.38 3266.47   1 0.02399-0.63473-0.49406 0.38050 0.86909-0.67255
   8   1  -3 2586.98  269.45   1 0.03898 0.57256 0.40226-0.28885-0.91469 0.76728
   8   1  -3 5420.50  420.54   1 0.47273 0.13908-0.87556 0.98912-0.09955-0.04787
   8  -1  -3 6836.20  464.35   1 0.29476 0.31689-0.82909 0.71558 0.47510-0.62250
  -8  -1   3 6447.53  648.25   1-0.30419-0.30728-0.81040 0.69687-0.50070 0.64802
  -8  -1   3 8477.64  972.70   1-0.03220-0.57985-0.52181 0.40826 0.85244-0.70504
   8   1  -214531.96  750.21   1 0.12313 0.48968 0.25991-0.14650-0.95774 0.85950
   8   1  -217049.58  906.79   1 0.47202 0.14115-0.87642 0.98998-0.09527-0.00300
   8  -1  -210575.32  615.86   1 0.26302 0.35001-0.80048 0.68697 0.53855-0.63682
  -8  -1   211666.14  713.87   1-0.23812-0.37467-0.85931 0.74578-0.45262 0.55083
   8  -1  -213040.44  749.44   1 0.53008 0.08209 0.55453-0.66795 0.64148-0.73965
  -8  -1   214585.73 1260.85   1-0.08998-0.52308-0.54864 0.43513 0.83120-0.73282
   8  -1  -213458.16  751.47   1 0.32987 0.28294 0.63352-0.74699-0.69987 0.60162
   8   1  -120334.42 1022.33   1 0.23190 0.38209 0.05341 0.05997-0.97127 0.92217
   8   1  -120623.50 1064.57   1 0.47321 0.14133-0.87496 0.98852-0.10247 0.05333
   8  -1  -121840.42 1159.09   1 0.22680 0.38763-0.76411 0.65060 0.60389-0.65303
  -8  -1   125108.80 1384.99   1-0.18806-0.42605-0.89038 0.77685-0.41455 0.46366
  -8  -1   126223.28 1774.43   1-0.14929-0.46515-0.57326 0.45976 0.80565-0.75646
   8  -1  -125379.75 1330.98   1 0.38631 0.22785 0.64638-0.75985-0.65798 0.60885
  -8   1   0 6661.28  401.74   1-0.18617-0.42924 0.71627-0.60288-0.67251 0.67251
   8   1   0 6319.44  334.65   1 0.36205 0.25303-0.23904 0.35242-0.90098 0.90098
   8   1   0 6493.69  367.13   1 0.47838 0.13752-0.86759 0.98115-0.13571 0.13571
  -8   1   0 6475.97 1078.38   1-0.44262-0.17344-0.67324 0.78682-0.59230 0.59230
  -8  -1   0 6055.65  845.54   1-0.15019-0.46523-0.91066 0.79713-0.38488 0.38488
  -8  -1   0 6295.24  572.18   1-0.20864-0.40720-0.59541 0.48191 0.77585-0.77585
   8  -1   0 6154.15  467.95   1 0.43909 0.17644 0.65570-0.76916-0.61420 0.61420
  -8   1  -159278.99 2949.40   1-0.14061-0.47620 0.66090-0.54751-0.73717 0.68808
   8   1   157657.17 2829.22   1 0.48709 0.13042-0.64927 0.76287-0.58410 0.63325
   8   1   157876.73 2841.59   1 0.49477 0.12249-0.82054 0.93410-0.28619 0.33533
  -8   1  -159049.01 3063.48   1-0.40698-0.21042-0.71359 0.82717-0.57021 0.52105
  -8  -1  -164378.89 3255.64   1-0.12197-0.49491-0.92399 0.81049-0.36243 0.31330
  -8  -1  -163553.59 3221.06   1-0.26712-0.35011-0.61470 0.50120 0.74215-0.79133
   8  -1   163882.61 3216.50   1 0.48788 0.12901 0.66170-0.77517-0.56930 0.61843
  -8   1  -2 9140.61  681.40   1-0.09127-0.52692 0.59600-0.48260-0.79777 0.69959
  -8   1  -2 9072.74  965.29   1-0.37682-0.24192-0.74479 0.85837-0.55070 0.45240
  -8  -1  -2 5865.87  715.07   1-0.10113-0.51707-0.93294 0.81944-0.34551 0.24725
   8  -1   2 4647.38  469.33   1 0.53256 0.08547 0.66495-0.77841-0.52364 0.62190
   8   1   210136.12  827.60   1 0.32334 0.29492 0.63185-0.51839-0.70441 0.80267
  -8   1  -319826.36 1045.60   1-0.03962-0.58019 0.52321-0.40980-0.85128 0.70387
  -8   1  -316671.71 1265.77   1-0.35180-0.26828-0.76880 0.88238-0.53401 0.38655
  -8  -1  -317204.65 1945.30   1-0.08639-0.53315-0.93881 0.82531-0.33341 0.18602
   8  -1   314561.62  898.55   1 0.57328 0.04610 0.66529-0.77875-0.47825 0.62563
   8   1   319140.07 1173.14   1 0.37778 0.24184 0.64462-0.53116-0.66463 0.81201
  -8   1  -438809.13 1668.53   1 0.01249-0.63369 0.44431-0.33090-0.89578 0.69924
  -8   1  -438817.58 1722.70   1-0.33137-0.28933-0.78745 0.90098-0.51971 0.32328
  -8  -1  -439836.44 2240.04   1-0.07664-0.54423-0.94248 0.82898-0.32535 0.12883
   8  -1   438961.80 1747.40   1 0.61022 0.01052 0.66330-0.77676-0.43319 0.62969
   8   1   438303.12 1743.83   1 0.42943 0.19155 0.65420-0.54074-0.62257 0.81908
  -8   1  -510719.04 1396.02   1 0.06306-0.68542 0.36301-0.24960-0.92964 0.68402
  -8   1  -511543.31 1947.38   1-0.31532-0.30670-0.80121 0.91474-0.50855 0.26301
  -8  -1  -518393.38 2390.10   1-0.07104-0.55116-0.94451 0.83101-0.32070 0.07505
   8  -1   518720.22 2197.92   1 0.64361-0.02151 0.65930-0.77276-0.38869 0.63432
   8   1   511797.65 1451.58   1 0.47798 0.14436 0.66070-0.54724-0.57878 0.82442
  -8   1  -6 1493.21  196.39   1 0.10990-0.73362 0.28323-0.16983-0.95273 0.65798
  -8   1  -6 1792.81  402.25   1-0.30310-0.32024-0.81129 0.92482-0.49993 0.20528
  -8  -1  -6 3198.41  585.55   1-0.06894-0.55460-0.94526 0.83176-0.31894 0.02416
   8  -1   6 3283.49  489.71   1 0.67376-0.04998 0.65369-0.76719-0.34455 0.63946
   8   1   6 1079.35  328.66   1 0.52308 0.10035 0.66453-0.55107-0.53364 0.82840
  -8   1  -7 9087.84 1025.62   1 0.15188-0.77696 0.20799-0.09458-0.96626 0.62239
  -8   1  -710897.63  990.17   1-0.29429-0.33036-0.81833 0.93186-0.49366 0.14991
  -8  -1  -711241.91 1732.87   1-0.06981-0.55506-0.94495 0.83145-0.31967-0.02423
   8  -1   711027.95  992.67   1 0.70086-0.07575 0.64642-0.75992-0.30152 0.64558
   8   1   7 9482.79  823.08   1 0.56499 0.05979 0.66542-0.55196-0.48783 0.83172
  -8   1  -8 4712.10  539.30   1 0.18818-0.81462 0.13965-0.02625-0.97215 0.57939
  -8   1  -8 4529.52  872.28   1-0.28855-0.33742-0.82284 0.93637-0.48955 0.09670
  -8  -1  -8 7322.39 1310.06   1-0.07325-0.55295-0.94371 0.83022-0.32253-0.07050
   8  -1   8 6769.93  915.45   1 0.72523-0.09877 0.63780-0.75130-0.25931 0.65252
   8   1   8 4142.77  589.10   1 0.60357 0.02256 0.66384-0.55037-0.44160 0.83461
  -8   1  -910198.49 1637.61   1 0.21909-0.84691 0.07918 0.03420-0.97248 0.53063
  -8  -1  -910489.82 1694.70   1-0.07893-0.54861-0.94163 0.82813-0.32724-0.11492
   8  -1   910374.40 1705.63   1 0.74708-0.11929 0.62798-0.74148-0.21791 0.66027
   8   1   910696.18  809.24   1 0.63889-0.01140 0.66000-0.54654-0.39521 0.83735
  -8   1 -10 3181.21  596.53   1 0.24477-0.87396 0.02708 0.08630-0.96920 0.47825
  -8   1 -10 2424.20  808.39   1-0.28502-0.34360-0.82557 0.93910-0.48701-0.00405
  -8  -1 -10 3704.01  851.48   1-0.08657-0.54229-0.93874 0.82524-0.33356-0.15773
   8  -1  10 2388.25  571.53   1 0.76664-0.13751 0.61710-0.73060-0.17729 0.66880
   8   1  10 3314.22  756.43   1 0.67109-0.04196 0.65429-0.54080-0.34859 0.84010
  -8   1 -11 8495.50  635.69   1 0.26573-0.89631-0.01683 0.13022-0.96389 0.42385
  -8   1 -11 8909.49 1205.98   1-0.28670-0.34324-0.82427 0.93780-0.48822-0.05195
  -8  -1 -11 8519.61 1474.41   1-0.09597-0.53423-0.93504 0.82154-0.34128-0.19913
   8  -1  11 7934.48  736.56   1 0.78394-0.15384 0.60542-0.71886-0.13746 0.67791
   8   1  11 8262.46  695.23   1 0.70028-0.06981 0.64660-0.53310-0.30250 0.84316
  -8   1 -12 2615.78  625.65   1 0.28258-0.91454-0.05309 0.16649-0.95777 0.36863
  -8   1 -12 4102.57 1221.30   1-0.29038-0.34087-0.82141 0.93494-0.49087-0.09841
  -8  -1 -12 3088.57  865.31   1-0.10695-0.52459-0.93052 0.81702-0.35025-0.23929
   8  -1  12 2380.59  648.43   1 0.79942-0.16799 0.59267-0.70611-0.09829 0.68787
   8   1  12 3684.45  924.92   1 0.72663-0.09482 0.63723-0.52373-0.25677 0.84658
  -8   1 -13 3237.98  996.12   1-0.29589-0.33668-0.81707 0.93060-0.49480-0.14358
  -8  -1 -13 2268.43  832.05   1-0.11934-0.51352-0.92516 0.81166-0.36031-0.27836
   8  -1  13 2578.24  712.83   1 0.81306-0.18031 0.57909-0.69253-0.05977 0.69848
   8   1  13 2321.85  617.90   1 0.75030-0.11716 0.62634-0.51284-0.21148 0.85044
   8   2 -1323367.11 1774.96   1 0.49838 0.09985-0.74752 0.97471-0.43911-0.19987
   8  -2 -1322607.64 1734.66   1 0.43371 0.16386-0.89697 0.67004 0.08555-0.72401
  -8  -2  1321055.13 2078.99   1 0.36908-0.96707-0.27489 0.04815 0.88781-0.24989
   8   2 -12 1096.15  437.27   1 0.49862 0.10099-0.75429 0.98148-0.42710-0.16272
   8  -2 -12  963.75  592.60   1 0.42155 0.17740-0.89725 0.67032 0.13120-0.72055
  -8  -2  12 1023.12  346.23   1 0.35213-0.95142-0.28782 0.06108 0.89059-0.30175
   8   2 -1111892.19 1005.72   1 0.49874 0.10224-0.75984 0.98704-0.41700-0.12368
   8  -2 -1110153.47  842.03   1 0.40797 0.19237-0.89543 0.66850 0.17816-0.71839
  -8  -2  11 9397.18  898.44   1 0.33167-0.93227-0.30308 0.07635 0.89337-0.35360
   8   2 -1022770.66 1933.52   1 0.49879 0.10357-0.76401 0.99121-0.40924-0.08228
   8  -2 -1023474.88 1978.37   1 0.39312 0.20892-0.89119 0.66425 0.22631-0.71771
  -8  -2  1021390.77 2433.83   1 0.30749-0.90939-0.32067 0.09393 0.89588-0.40518
   8   2  -919196.48 1303.92   1 0.49880 0.10494-0.76655 0.99375-0.40445-0.03792
   8  -2  -921573.16 1400.34   1 0.37623 0.22720-0.88441 0.65747 0.27614-0.71840
  -8  -2   920820.26 2144.38   1 0.27940-0.88260-0.34050 0.11376 0.89776-0.45613
   8   2  -824420.14 1458.71   1 0.49880 0.10632-0.76708 0.99427-0.40345 0.01023
   8  -2  -830242.90 1757.90   1 0.35740 0.24741-0.87465 0.64770 0.32747-0.72059
   8  -2  -827569.31 1511.63   1 0.73561-0.13092-0.32582 0.09901 0.59388-0.98643
  -8   2   822378.69 1281.31   1-0.17631-0.42839-0.58365 0.81065 0.79262-0.39913
  -8  -2   828592.80 2249.49   1 0.24725-0.85176-0.36242 0.13569 0.89861-0.50605
   8   2  -7 7860.38  892.54   1 0.49880 0.10770-0.76496 0.99215-0.40746 0.06339
   8  -2  -7 4783.30  696.38   1 0.33644 0.26976-0.86150 0.63455 0.38028-0.72426
   8  -2  -7 3124.85  392.89   1 0.74496-0.13896-0.16968-0.05713 0.64516-0.98864
  -8   2   7 7066.76  752.03   1-0.23919-0.36690-0.60581 0.83281 0.75879-0.41448
  -8  -2   7 3983.74  617.76   1 0.21097-0.81678-0.38622 0.15949 0.89795-0.55446
   8   2  -615490.52 1165.89   1 0.49873 0.10914-0.75914 0.98633-0.41829 0.12337
   8  -2  -620133.33 1525.10   1 0.31312 0.29446-0.84449 0.61754 0.43449-0.72933
   8  -2  -618371.36 1328.53   1 0.73614-0.12909-0.02397-0.20274 0.67639-0.97068
  -8  -2   619302.30 2475.20   1 0.17058-0.77770-0.41157 0.18484 0.89526-0.60084
   8  -2  -619240.07 1370.54   1 0.30318 0.30416 0.62648-0.85341-0.71804 0.42327
   8   2  -563739.33 3631.67   1 0.49839 0.11086-0.74771 0.97491-0.43877 0.19300
   8  -2  -563544.20 3640.79   1 0.28741 0.32145-0.82276 0.59575 0.49035-0.73603
  -8  -2   559696.76 3375.75   1-0.28446-0.32437-0.82600 0.59893-0.48662 0.73215
   8  -2  -564813.18 3677.38   1 0.71431-0.10600 0.10625-0.33297 0.69171-0.93695
  -8  -2   569061.42 3958.65   1 0.12562-0.73503-0.43846 0.21135 0.88992-0.64424
   8  -2  -566276.25 3739.12   1 0.36234 0.24637 0.64127-0.86820-0.67636 0.43072
   8   2  -4 2000.04  313.55   1 0.49715 0.11348-0.72690 0.95410-0.47376 0.27714
   8  -2  -4 1772.16  362.43   1 0.25878 0.35148-0.79641 0.56940 0.54658-0.74312
  -8  -2   4 1262.70  289.51   1-0.17514-0.43501-0.89760 0.67054-0.40451 0.60094
   8  -2  -4 1661.26  290.51   1 0.68443-0.07525 0.22144-0.44809 0.69462-0.89081
  -8  -2   4 1471.89  345.71   1 0.07762-0.68835-0.46559 0.23849 0.88158-0.68504
   8  -2  -4 1622.42  256.00   1 0.41780 0.19227 0.65227-0.87920-0.63242 0.43591
   8  -2  -3 6382.14  813.05   1 0.22727 0.38437-0.76461 0.53760 0.60308-0.75049
  -8  -2   3 5171.05 1016.80   1-0.10345-0.50809-0.93198 0.70499-0.34740 0.49479
   8  -2  -3 6140.34  772.93   1 0.64993-0.03947 0.31972-0.54637 0.68946-0.83660
  -8  -2   3 6845.23 1002.94   1 0.02640-0.63847-0.49282 0.26571 0.86972-0.72232
   8  -2  -3 7027.67  836.07   1 0.46884 0.14259 0.65968-0.88661-0.58736 0.43997
   8   2  -2 1110.06  162.18   1 0.47821 0.13422-0.60517 0.83199-0.63645 0.53830
  -8  -2   2  665.84  209.98   1-0.05332-0.55955-0.95057 0.72357-0.30588 0.40414
   8  -2  -2 2009.57  459.02   1 0.61423-0.00205 0.40335-0.63021 0.67824-0.77642
  -8  -2   2 1284.87  319.63   1-0.02742-0.58595-0.51954 0.29243 0.85400-0.75573
   8  -2  -2  253.17  166.19   1 0.51534 0.09729 0.66410-0.89103-0.54164 0.44339
  -8   2   1 5307.43  685.09   1-0.15658-0.45743 0.68084-0.45404-0.71549 0.76458
  -8  -2   1 4988.64  784.99   1-0.01790-0.59631-0.96104 0.73404-0.27581 0.32494
   8  -2  -1 4485.68  622.54   1 0.57871 0.03476 0.47302-0.69988 0.66432-0.71341
  -8  -2   1 5011.06  778.32   1-0.08283-0.53161-0.54551 0.31851 0.83400-0.78481
   8  -2  -1 4449.83  582.19   1 0.55709 0.05690 0.66545-0.89237-0.49681 0.44768
  -8   2   096022.39 4016.67   1-0.11710-0.49831 0.63060-0.40380-0.76721 0.76721
  -8  -2   0109999.5 4689.56   1 0.00700-0.62255-0.96709 0.74010-0.25430 0.25430
   8  -2   0106403.4 4438.06   1 0.54511 0.06967 0.53079-0.75764 0.64893-0.64893
  -8  -2   0103857.1 4379.13   1-0.13984-0.47600-0.56950 0.34250 0.81000-0.81000
   8  -2   0104676.4 4329.55   1 0.59454 0.02080 0.66443-0.89136-0.45281 0.45281
  -8   2  -155586.03 2425.17   1-0.07587-0.54093 0.57475-0.34795-0.81480 0.76571
  -8  -2  -155297.26 2464.56   1 0.02406-0.64095-0.97062 0.74362-0.23940 0.19027
   8  -2   153959.46 2348.81   1 0.51425 0.10183 0.57832-0.80517 0.63331-0.58422
  -8  -2  -152324.03 2256.12   1-0.19716-0.42007-0.59132 0.36432 0.78195-0.83114
   8  -2   156219.80 2390.79   1 0.62809-0.01140 0.66144-0.88837-0.40985 0.45897
  -8   2  -2 7301.40 1024.88   1-0.03375-0.58468 0.51457-0.28776-0.85678 0.75850
  -8  -2  -212303.21 1504.96   1 0.03505-0.65326-0.97261 0.74562-0.22974 0.13148
  -8  -2  -211262.81 1374.43   1-0.25401-0.36462-0.61060 0.38360 0.75009-0.84846
   8  -2   213125.44 1543.61   1 0.65815-0.04010 0.65680-0.88372-0.36802 0.46628
  -8   2  -311249.06 1756.77   1 0.00831-0.62812 0.45082-0.22401-0.89257 0.74516
  -8   2  -311319.18 1358.10   1-0.46296-0.15712-0.64834 0.87550-0.60440 0.45694
  -8  -2  -313934.17 1705.35   1 0.04120-0.66075-0.97364 0.74665-0.22430 0.07691
   8  -2   312098.54 1447.65   1 0.68517-0.06540 0.65090-0.87790-0.32690 0.47435
   8   2   312581.83 1563.44   1 0.30880 0.31082 0.62801-0.40108-0.71430 0.86169
  -8   2  -4 2396.52  273.39   1 0.04921-0.67041 0.38565-0.15884-0.92132 0.72478
  -8   2  -4 2545.85  422.39   1-0.44226-0.17916-0.67367 0.90083-0.59208 0.39547
  -8  -2  -4 1158.10  369.66   1 0.04343-0.66431-0.97400 0.74700-0.22232 0.02581
   8  -2   4 1248.42  312.69   1 0.70933-0.08823 0.64367-0.87067-0.28728 0.48388
   8   2   4 2673.72  504.11   1 0.36265 0.25833 0.64134-0.41441-0.67613 0.87265
  -8   2  -527175.61 2154.05   1 0.08812-0.71048 0.32086-0.09404-0.94301 0.69739
  -8   2  -529483.80 1922.97   1-0.42491-0.19785-0.69379 0.92095-0.58145 0.33569
  -8  -2  -536042.28 2183.94   1 0.04240-0.66462-0.97384 0.74684-0.22323-0.02240
   8  -2   535431.24 2134.45   1 0.73103-0.10859 0.63540-0.86240-0.24868 0.49443
   8   2   529633.67 1807.34   1 0.41421 0.20813 0.65165-0.42472-0.63542 0.88107
  -8   2  -613804.97 1353.44   1 0.12396-0.74768 0.25843-0.03162-0.95804 0.66329
  -8   2  -612027.13 1271.65   1-0.41074-0.21335-0.70952 0.93668-0.57259 0.27767
  -8  -2  -614848.45 2196.31   1 0.03863-0.66218-0.97322 0.74623-0.22657-0.06820
   8  -2   615510.37 1243.72   1 0.75054-0.12676 0.62622-0.85322-0.21100 0.50590
   8   2   611919.99 1065.37   1 0.46312 0.16059 0.65899-0.43206-0.59265 0.88742
  -8   2  -713648.12 1533.99   1 0.15633-0.78142 0.19978 0.02702-0.96728 0.62341
  -8   2  -717226.48 1557.59   1-0.39957-0.22586-0.72150 0.94866-0.56548 0.22140
  -8  -2  -718392.19 2474.87   1 0.03252-0.65740-0.97217 0.74518-0.23197-0.11193
   8  -2   716689.01 1085.08   1 0.76807-0.14296 0.61621-0.84321-0.17416 0.51822
   8   2   717275.53 1145.67   1 0.50891 0.11587 0.66368-0.43676-0.54819 0.89208
  -8   2  -8 8853.10 1044.07   1 0.18482-0.81125 0.14609 0.08068-0.97185 0.57909
  -8   2  -8 8975.34 1553.87   1-0.39118-0.23559-0.73026 0.95742-0.56008 0.16685
  -8  -2  -812279.71 1813.64   1 0.02436-0.65058-0.97067 0.74368-0.23914-0.15389
   8  -2   812078.39  937.76   1 0.78368-0.15755 0.60561-0.83250-0.13809 0.53114
   8   2   810021.90 1664.01   1 0.55187 0.07427 0.66541-0.43849-0.50265 0.89566
  -8   2  -9 5871.34 1006.20   1 0.20968-0.83749 0.09785 0.12893-0.97286 0.53100
  -8   2  -9 4641.66  995.94   1-0.38537-0.24275-0.73621 0.96337-0.55630 0.11392
  -8  -2  -9 3280.43  702.50   1 0.01442-0.64197-0.96869 0.74169-0.24784-0.19432
   8  -2   9 2533.74  526.04   1 0.79776-0.17031 0.59415-0.82104-0.10268 0.54487
   8   2   9 5185.69  915.46   1 0.59170 0.03578 0.66459-0.43767-0.45628 0.89842
  -8   2 -10 6367.25 1093.09   1 0.23092-0.86011 0.05541 0.17136-0.97139 0.48044
  -8   2 -10 6894.62 1621.14   1-0.38192-0.24753-0.73970 0.96685-0.55405 0.06251
  -8  -2 -10 6185.78 1606.73   1 0.00289-0.63177-0.96617 0.73917-0.25787-0.23341
   8  -2  10 6868.64 1255.89   1 0.81032-0.18155 0.58203-0.80891-0.06787 0.55918
  -8   2 -11 3970.21  842.21   1 0.24877-0.87935 0.01879 0.20798-0.96837 0.42833
  -8   2 -11 3539.80  935.89   1-0.38066-0.25013-0.74097 0.96812-0.55322 0.01253
   8  -2  11 2816.98  726.70   1 0.82146-0.19136 0.56927-0.79615-0.03358 0.57403
   8   2  11 4222.66  974.92   1 0.66209-0.03162 0.65619-0.42919-0.36199 0.90265
  -8   2 -12 5127.10 1017.96   1 0.26355-0.89551-0.01218 0.23897-0.96456 0.37543
  -8   2 -12 4707.87 1182.25   1-0.38140-0.25073-0.74022 0.96738-0.55371-0.03612
  -8  -2 -12 4660.30 1295.43   1-0.02433-0.60721-0.95930 0.73231-0.28131-0.30824
   8   2  12 5657.59  614.38   1 0.69275-0.06094 0.64883-0.42183-0.31480 0.90462
   8   3 -1210205.16 1288.17   1 0.48747 0.11106-0.65353 0.99376-0.57902-0.00986
   8  -3 -1214797.85 1782.24   1 0.39543 0.20384-0.89195 0.55154 0.21917-0.80885
  -8  -3  1212615.32 2010.64   1 0.35266-0.95195-0.28742-0.05268 0.89051-0.30167
   8  -3 -1113956.04 1463.32   1 0.37912 0.22154-0.88571 0.54530 0.26789-0.80843
  -8  -3  1110931.64 1557.96   1 0.33410-0.93470-0.30129-0.03880 0.89308-0.35330
   8   3 -1015752.27 1401.18   1 0.48663 0.11468-0.64867 0.98890-0.58515 0.09441
   8  -3 -1017720.94 1611.84   1 0.36118 0.24086-0.87678 0.53636 0.31748-0.80888
  -8  -3  1016825.26 1817.46   1 0.31224-0.91413-0.31726-0.02284 0.89546-0.40475
   8   3  -910421.22  961.44   1 0.48527 0.11743-0.64099 0.98122-0.59467 0.15300
   8  -3  -914854.24 1390.97   1 0.34151 0.26192-0.86488 0.52446 0.36788-0.81014
  -8  -3   914806.61 2020.66   1 0.28689-0.89009-0.33527-0.00482 0.89737-0.45574
   8   3  -8 5900.09 1003.19   1 0.48290 0.12119-0.62830 0.96854-0.60994 0.21734
   8  -3  -8 4989.46  872.96   1 0.32000 0.28481-0.84974 0.50933 0.41895-0.81207
   8  -3  -8 3814.16  642.09   1 0.73702-0.13232-0.31434-0.02587 0.59831-0.99086
  -8  -3   8 4348.95 1026.94   1 0.25794-0.86244-0.35523 0.01512 0.89848-0.50592
   8   3  -7 3088.38  500.55   1 0.47896 0.12652-0.60869 0.94893-0.63251 0.28899
   8  -3  -7  959.16  219.50   1 0.74474-0.13875-0.19957-0.14065 0.63680-0.98028
  -8  -3   7 1955.71  448.08   1 0.22527-0.83108-0.37696 0.03686 0.89841-0.55492
   8   3  -611681.74  725.92   1 0.47239 0.13448-0.57897 0.91920-0.66455 0.37011
   8  -3  -6 8814.74  993.36   1 0.27129 0.33618-0.80824 0.46773 0.52262-0.81743
   8  -3  -6 8985.34  987.47   1 0.74220-0.13514-0.08912-0.25096 0.66422-0.95851
  -8  -3   611475.26 1006.55   1 0.18888-0.79599-0.40024 0.06013 0.89673-0.60231
   8   3  -5 4863.02  563.06   1 0.46112 0.14714-0.53345 0.87368-0.70907 0.46370
   8  -3  -5 4989.89  702.26   1 0.24377 0.36510-0.78160 0.44109 0.57416-0.81984
  -8  -3   5 3145.63  682.85   1-0.02814-0.58074-0.95824 0.61774-0.28456 0.53021
   8  -3  -5 5691.08  707.34   1 0.73119-0.12288 0.01353-0.35362 0.68203-0.92728
  -8  -3   5 7294.63 1080.61   1 0.14819-0.75759-0.42515 0.08449 0.89290-0.64722
   8   3  -4 5789.36  456.30   1 0.44011 0.16958-0.46038 0.80052-0.77093 0.57480
   8  -3  -4 7206.30  652.77   1 0.21422 0.39604-0.75065 0.41013 0.62500-0.82154
  -8  -3   4 5987.68  607.17   1 0.03814-0.64836-0.97314 0.63265-0.22700 0.42352
   8  -3  -4 6589.49  584.02   1 0.71399-0.10443 0.10771-0.44780 0.69181-0.88801
  -8  -3   4 6914.53  790.13   1 0.10462-0.71535-0.45053 0.10987 0.88660-0.69006
   8  -3  -4 6300.19  480.62   1 0.69215-0.08175 0.64900-0.98950-0.31578 0.11917
  -8   3   322651.17 1640.70   1-0.18380-0.42743 0.71351-0.37332-0.67609 0.82336
   8   3  -321354.38 1489.39   1 0.39794 0.21315-0.33368 0.67382-0.85457 0.70747
  -8  -3   318713.74 1356.40   1 0.08035-0.69235-0.97854 0.63794-0.18972 0.33715
   8  -3  -320157.76 1489.03   1 0.69279-0.08234 0.19339-0.53338 0.69471-0.84185
  -8  -3   318262.72 1862.94   1 0.05783-0.66989-0.47633 0.13567 0.87736-0.72995
   8  -3  -317516.41 1248.14   1 0.70687-0.09514 0.64449-0.98499-0.29145 0.14400
  -8   3   246803.18 2724.26   1-0.15063-0.46199 0.67347-0.33328-0.72369 0.82187
  -8  -3   243510.96 2512.77   1 0.10917-0.72251-0.98048 0.63988-0.16346 0.26175
   8  -3  -247535.75 2763.71   1 0.66880-0.05708 0.26892-0.60890 0.69309-0.79118
  -8  -3   242604.43 2627.21   1 0.00822-0.62160-0.50206 0.16140 0.86478-0.76651
   8  -3  -242851.99 2443.62   1 0.72134-0.10827 0.63932-0.97982-0.26630 0.16800
  -8   3   118972.31 1706.68   1-0.11604-0.49797 0.62921-0.28901-0.76852 0.81761
  -8  -3   115841.62 1206.18   1 0.12822-0.74290-0.98095 0.64035-0.14588 0.19503
   8  -3  -117351.37 1121.29   1 0.64371-0.03072 0.33522-0.67521 0.68793-0.73698
   8  -3  -115594.54 1132.79   1 0.73536-0.12095 0.63352-0.97402-0.24059 0.19144
  -8   3   0 1691.56  270.11   1-0.08048-0.53493 0.58115-0.24096-0.80980 0.80980
  -8  -3   0 2486.37  338.64   1 0.14018-0.75620-0.98091 0.64031-0.13475 0.13475
   8  -3   0 1576.33  402.04   1 0.61908-0.00429 0.39299-0.73327 0.67992-0.67992
  -8  -3   0 2124.97  375.37   1-0.09702-0.51882-0.55169 0.21119 0.82838-0.82838
   8  -3   0 1476.85  215.34   1 0.74880-0.13305 0.62712-0.96761-0.21450 0.21450
  -8   3  -1 4817.94  886.17   1-0.04448-0.57258 0.53029-0.19007-0.84664 0.79750
  -8  -3  -1 7420.45  680.11   1 0.14675-0.76410-0.98077 0.64017-0.12861 0.07947
   8  -3   1 5777.12  567.83   1 0.59491 0.02117 0.44250-0.78278 0.67101-0.62192
  -8  -3  -1 5990.52 1016.28   1-0.15181-0.46542-0.57425 0.23375 0.80447-0.85366
   8  -3   1 6062.21  554.07   1 0.76160-0.14451 0.62013-0.96062-0.18814 0.23729
  -8   3  -223628.51 2256.87   1-0.00860-0.60983 0.47686-0.13664-0.87893 0.78066
  -8  -3  -217422.17 1323.29   1 0.14907-0.76776-0.98070 0.64010-0.12643 0.02814
   8  -3   219714.22 1540.67   1 0.57224 0.04515 0.48471-0.82499 0.66150-0.56333
  -8  -3  -216548.16 1765.47   1-0.20696-0.41166-0.59482 0.25432 0.77675-0.87512
   8  -3   216791.43 1262.66   1 0.77372-0.15529 0.61257-0.95306-0.16158 0.25989
  -8   3  -359401.17 4151.86   1 0.02646-0.64628 0.42228-0.08207-0.90607 0.75866
  -8  -3  -352213.67 3698.35   1 0.14797-0.76799-0.98074 0.64014-0.12747-0.01995
   8  -3   359502.98 4189.49   1 0.55147 0.06723 0.52037-0.86065 0.65198-0.50472
  -8  -3  -352161.26 3678.05   1-0.26179-0.35822-0.61305 0.27255 0.74540-0.89296
   8  -3   353634.67 3751.71   1 0.78500-0.16550 0.60462-0.94494-0.13489 0.28229
  -8   3  -438693.88 2143.32   1 0.06027-0.68126 0.36763-0.02741-0.92801 0.73152
  -8  -3  -440237.63 2288.24   1 0.14401-0.76538-0.98084 0.64024-0.13117-0.06540
   8  -3   444170.49 2472.09   1 0.53286 0.08714 0.55022-0.89050 0.64288-0.44654
   8  -3   438564.02 2157.53   1 0.79570-0.17487 0.59596-0.93628-0.10808 0.30460
   8   3   445079.60 2549.59   1 0.31459 0.30639 0.62956-0.28917-0.71040 0.90691
  -8   3  -5 3585.00  501.01   1 0.09202-0.71438 0.31419 0.02602-0.94488 0.69926
  -8  -3  -5 2122.48  408.87   1 0.13766-0.76037-0.98094 0.64034-0.13710-0.10861
   8  -3   5 2428.85  504.50   1 0.51655 0.10476 0.57494-0.91522 0.63451-0.38908
   8  -3   5 2431.05  428.09   1 0.80567-0.18352 0.58676-0.92709-0.08117 0.32683
   8   3   5 1462.51  382.30   1 0.36701 0.25534 0.64231-0.30191-0.67285 0.91850
  -8   3  -6 7783.04 1229.57   1 0.12143-0.74515 0.26293 0.07728-0.95714 0.66239
  -8  -3  -6 6012.54  810.06   1 0.12925-0.75329-0.98096 0.64036-0.14493-0.14993
   8  -3   6 8367.63 1049.33   1 0.50258 0.12003 0.59512-0.93540 0.62708-0.33256
   8  -3   6 7058.86  891.45   1 0.81491-0.19143 0.57704-0.91736-0.05419 0.34898
  -8   3  -714645.60 1711.06   1 0.14821-0.77329 0.21471 0.12550-0.96536 0.62149
  -8  -3  -716008.20 1241.29   1 0.11904-0.74442-0.98081 0.64021-0.15438-0.18963
   8  -3   717379.47 1359.20   1 0.49093 0.13298 0.61130-0.95159 0.62070-0.27710
   8  -3   716737.81 1204.41   1 0.82341-0.19861 0.56678-0.90711-0.02715 0.37107
   8   3   719185.59 1419.72   1 0.46560 0.15947 0.65929-0.31890-0.59037 0.93427
  -8   3  -8 8179.62 1115.23   1 0.17221-0.79866 0.17018 0.17003-0.97024 0.57725
  -8  -3  -810067.15 1038.31   1 0.10724-0.73396-0.98040 0.63980-0.16523-0.22792
   8  -3   810987.15 1056.91   1 0.83117-0.20504 0.55601-0.89633-0.00005 0.39311
   8   3   810631.39 1027.27   1 0.51089 0.11524 0.66382-0.32343-0.54619 0.93920
  -8   3  -917396.96 1245.88   1 0.19326-0.82108 0.12987 0.21029-0.97251 0.53066
  -8   3  -914064.99 1075.78   1-0.47501-0.15311-0.63291 0.97365-0.61138 0.16900
  -8  -3  -917943.38 1363.20   1 0.09402-0.72207-0.97965 0.63905-0.17732-0.26498
   8  -3   916031.83 1211.93   1 0.83818-0.21073 0.54470-0.88503 0.02708 0.41509
   8   3   915836.57 1253.40   1 0.55364 0.07384 0.66543-0.32504-0.50067 0.94281
  -8   3 -10 4861.30  890.68   1 0.21171-0.84090 0.09385 0.24632-0.97281 0.48187
  -8   3 -10 1991.11  589.14   1-0.46991-0.15954-0.63950 0.98024-0.60844 0.11691
  -8  -3 -10 3250.81  812.92   1 0.07951-0.70890-0.97846 0.63786-0.19048-0.30096
   8  -3  10 3790.38  878.39   1 0.84444-0.21567 0.53287-0.87320 0.05427 0.43703
   8   3  10 5253.14  727.78   1 0.59349 0.03534 0.66449-0.32411-0.45409 0.94535
  -8   3 -11 6769.15  643.90   1 0.22753-0.85811 0.06225 0.27792-0.97177 0.43173
  -8   3 -11 4256.94  876.36   1-0.46678-0.16401-0.64351 0.98425-0.60663 0.06594
  -8  -3 -11 4325.03  886.36   1 0.06382-0.69455-0.97676 0.63616-0.20459-0.33599
   8  -3  11 3065.64  676.29   1 0.84995-0.21985 0.52051-0.86083 0.08151 0.45893
   8   3  11 5127.19 1049.73   1 0.63040-0.00021 0.66116-0.32077-0.40676 0.94715
   8   4 -1016515.55 1242.32   1 0.45304 0.14831-0.50470 0.95823-0.73486 0.24452
   8  -4 -1017759.72 1409.32   1 0.33561 0.26643-0.86093 0.40704 0.38228-0.87368
  -8  -4  1014829.77 1972.04   1 0.30294-0.90484-0.32393-0.12953 0.89626-0.40556
   8   4  -9 2592.66  603.23   1 0.44717 0.15557-0.48413 0.93766-0.75209 0.31079
   8  -4  -9 2334.34  657.69   1 0.31455 0.28888-0.84559 0.39170 0.43130-0.87356
   8  -4  -9 2618.29  620.55   1 0.71779-0.11361-0.42565-0.02853 0.55098-0.99311
   8   4  -8 6103.65  587.46   1 0.43864 0.16549-0.45553 0.90906-0.77464 0.38237
   8  -4  -8 8634.69  986.27   1 0.29214 0.31255-0.82685 0.37283 0.48058-0.87367
   8  -4  -8 8892.26  865.90   1 0.73481-0.13011-0.33199-0.12163 0.59145-0.98400
  -8  -4   8 7869.11 1037.84   1 0.25280-0.85730-0.35870-0.09476 0.89856-0.50600
   8   4  -727262.58 1781.27   1 0.42619 0.17933-0.41607 0.86960-0.80326 0.46002
   8  -4  -722848.84 1575.08   1 0.26791 0.33818-0.80509 0.35107 0.52919-0.87314
   8  -4  -723933.09 1619.41   1 0.74323-0.13723-0.24125-0.21237 0.62402-0.96750
  -8  -4   726130.78 2633.73   1 0.22275-0.82856-0.37860-0.07486 0.89835-0.55486
   8  -4  -617092.66 1481.70   1 0.24211 0.36536-0.77993 0.32591 0.57713-0.87194
   8  -4  -615870.23 1349.97   1 0.74477-0.13748-0.15331-0.30032 0.64946-0.94387
  -8  -4   614595.71 1549.10   1 0.18933-0.79644-0.39996-0.05351 0.89676-0.60234
   8  -4  -5 9184.91  739.95   1 0.21482 0.39404-0.75130 0.29728 0.62400-0.86968
   8  -4  -510218.58  814.73   1 0.74067-0.13236-0.06890-0.38454 0.66832-0.91356
  -8   4   412156.19  940.72   1-0.18737-0.42246 0.71767-0.26408-0.67069 0.86705
  -8  -4   4 7418.74 1204.12   1 0.19409-0.80475-0.97740 0.52327-0.08370 0.28027
   8  -4  -4 8571.15 1478.01   1 0.73172-0.12216 0.00987-0.46332 0.68153-0.87772
  -8   4   3 1802.77  360.39   1-0.15757-0.45366 0.68205-0.22846-0.71412 0.86138
  -8  -4   3 1679.19  316.35   1 0.21569-0.82769-0.97443 0.52030-0.06281 0.21024
   8  -4  -3  541.18  284.11   1 0.71918-0.10838 0.08290-0.53636 0.68985-0.83700
  -8  -4   3 1078.85  279.16   1 0.06869-0.68075-0.47047 0.01626 0.87973-0.73232
  -8   4   217471.41 1950.43   1-0.12682-0.48580 0.64327-0.18968-0.75505 0.85323
  -8  -4   219400.74 1226.29   1 0.22915-0.84249-0.97212 0.51798-0.04966 0.14795
   8  -4  -219633.05 1257.79   1 0.70437-0.09264 0.15038-0.60369 0.69371-0.79181
  -8  -4   218698.94 1521.18   1 0.02276-0.63615-0.49469 0.04047 0.86876-0.77049
  -8   4   113044.38 1913.74   1-0.09544-0.51858 0.60167-0.14808-0.79301 0.84210
  -8  -4   113596.68  946.04   1 0.23663-0.85102-0.97065 0.51701-0.04280 0.09193
   8  -4  -113275.28  954.78   1 0.68764-0.07465 0.21093-0.66424 0.69473-0.74377
  -8  -4   112441.32 1568.72   1-0.02558-0.58913-0.51865 0.06444 0.85459-0.80546
  -8   4   018823.34 2062.76   1-0.06379-0.55189 0.55805-0.10443-0.82734 0.82734
  -8  -4   023605.28 1467.91   1 0.23970-0.85542-0.97003 0.51639-0.03979 0.03979
   8  -4   024141.83 1563.10   1 0.67010-0.05584 0.26519-0.71850 0.69327-0.69327
  -8  -4   022503.93 2231.75   1-0.07551-0.54033-0.54226 0.08826 0.83680-0.83680
   8  -4   025106.56 1502.59   1 0.85295-0.23741 0.51266-0.96642 0.09825-0.09825
  -8   4  -1 1337.82  364.87   1-0.03224-0.58481 0.51234-0.05872-0.85817 0.80903
  -8  -4  -1 1504.05  363.64   1 0.23917-0.85624-0.97013 0.51650-0.04030-0.00881
   8  -4   1 1410.32  467.55   1 0.65242-0.03689 0.31334-0.76665 0.69004-0.64099
  -8  -4  -1  627.62  258.49   1-0.12737-0.48987-0.56444 0.11044 0.81558-0.86477
   8  -4   1  617.75  185.24   1 0.85108-0.23422 0.51765-0.97141 0.08766-0.03853
  -8   4  -229049.99 2633.40   1-0.00124-0.61719 0.46560-0.01198-0.88499 0.78672
  -8  -4  -223935.13 1546.60   1 0.23568-0.85437-0.97086 0.51673-0.04325-0.05503
   8  -4   225455.32 1622.96   1 0.63516-0.01836 0.35569-0.80900 0.68560-0.58751
  -8  -4  -223365.85 2028.02   1-0.18009-0.43853-0.58507 0.13107 0.79072-0.88910
   8  -4   224704.42 1497.26   1 0.85065-0.23247 0.51875-0.97251 0.08531 0.01295
  -8   4  -3 3906.49  621.78   1 0.02879-0.64861 0.41858 0.03503-0.90771 0.76031
  -8  -4  -3 3402.59  482.99   1 0.22975-0.84978-0.97201 0.51787-0.04907-0.09835
   8  -4   3 3014.21  518.89   1 0.61927-0.00057 0.39257-0.84628 0.67998-0.53272
  -8  -4  -3 1797.31  384.41   1-0.23309-0.38693-0.60379 0.14979 0.76230-0.90986
   8  -4   3 2654.73  419.55   1 0.85125-0.23174 0.51723-0.97099 0.08856 0.05883
  -8   4  -4 9422.28 1143.25   1 0.05761-0.67861 0.37200 0.08161-0.92644 0.72994
  -8  -4  -4 9194.23  833.33   1 0.22173-0.84309-0.97344 0.51931-0.05692-0.13965
   8  -4   411314.64 1005.31   1 0.60405 0.01595 0.42439-0.87810 0.67454-0.47820
   8  -4   4 8909.37  722.88   1 0.85253-0.23170 0.51379-0.96756 0.09585 0.10066
   8   4   4 8661.68 1508.86   1 0.28449 0.33649 0.62120-0.16734-0.73018 0.92669
  -8   4  -5 7361.16 1364.68   1 0.08467-0.70704 0.32673 0.12689-0.94131 0.69569
  -8  -4  -510702.25 1013.75   1 0.21189-0.83459-0.97502 0.52089-0.06650-0.17921
   8  -4   513178.46 1215.71   1 0.59021 0.03109 0.45155-0.90526 0.66912-0.42369
   8  -4   510352.48  917.70   1 0.85434-0.23228 0.50877-0.96258 0.10602 0.13957
   8   4   510413.56 1047.73   1 0.33638 0.28597 0.63515-0.18129-0.69528 0.94093
  -8   4  -6 4283.56  888.61   1 0.10983-0.73355 0.28336 0.17026-0.95270 0.65795
  -8  -4  -6 2093.49  522.50   1 0.20045-0.82449-0.97662 0.52249-0.07757-0.21729
   8  -4   6 1372.94  601.74   1 0.57793 0.04468 0.47445-0.92816 0.66398-0.36947
   8  -4   6 1724.43  404.55   1 0.85631-0.23292 0.50262-0.95643 0.11870 0.17601
   8   4   6 3317.55  659.21   1 0.38693 0.23678 0.64651-0.19265-0.65749 0.95227
  -8   4  -7 7711.57 1854.29   1 0.13290-0.75798 0.24246 0.21115-0.96101 0.61714
  -8  -4  -7 5913.07 1128.13   1 0.18757-0.81295-0.97812 0.52398-0.08995-0.25405
   8  -4   7 5415.54 1014.63   1 0.56729 0.05663 0.49345-0.94716 0.65930-0.31570
   8  -4   7 5798.59 1044.76   1 0.85836-0.23365 0.49542-0.94923 0.13324 0.21059
   8   4   7 7623.19 1550.62   1 0.43572 0.18935 0.65519-0.20133-0.61714 0.96104
  -8   4  -8 5205.99 1004.77   1 0.15379-0.78023 0.20448 0.24914-0.96671 0.57372
  -8  -4  -8 6181.51  762.44   1 0.17339-0.80011-0.97940 0.52526-0.10348-0.28967
   8  -4   8 7029.32  837.83   1 0.86036-0.23433 0.48731-0.94112 0.14930 0.24366
   8   4   8 7245.69  920.47   1 0.48240 0.14404 0.66116-0.20730-0.57458 0.96761
  -8   4  -9 1124.57  463.39   1 0.17246-0.80027 0.16971 0.28390-0.97028 0.52816
  -8  -4  -9  410.41  318.57   1 0.15803-0.78608-0.98035 0.52622-0.11802-0.32428
   8  -4   9 1901.54  493.56   1 0.55105 0.07548 0.52107-0.97478 0.65178-0.21001
   8  -4   9 1029.24  434.04   1 0.86221-0.23485 0.47836-0.93217 0.16659 0.27548
   8   4   9 1707.56  529.06   1 0.52642 0.10106 0.66469-0.21084-0.53014 0.97228
  -8   4 -10 1002.06  318.15   1 0.18879-0.81799 0.13848 0.31508-0.97220 0.48125
  -8  -4 -10 1261.48  540.43   1 0.14156-0.77096-0.98088 0.52675-0.13346-0.35797
   8  -4  10 -117.94  428.76   1 0.54544 0.08239 0.53024-0.98395 0.64909-0.15823
   8  -4  10  629.28  466.92   1 0.86381-0.23513 0.46863-0.92244 0.18493 0.30626
   8   4  10  470.03  328.07   1 0.56814 0.06069 0.66538-0.21153-0.48422 0.97548
   8  -5  -8 6610.97  958.66   1 0.27330 0.33139-0.81010 0.24257 0.51869-0.91177
   8  -5  -8 4716.26  664.97   1 0.72948-0.12402-0.36515-0.20258 0.57837-0.97137
  -8  -5   8 4918.50 1046.92   1 0.23533-0.83984-0.37035-0.19648 0.89858-0.50602
   8  -5  -7  444.52  424.54   1 0.24934 0.35674-0.78718 0.21965 0.56406-0.90801
   8  -5  -7  142.85  275.85   1 0.73970-0.13370-0.28897-0.27806 0.60772-0.95120
  -8  -5   7  513.96  280.06   1 0.20721-0.81301-0.38863-0.17819 0.89778-0.55429
   8  -5  -6 5777.40  751.99   1 0.22424 0.38324-0.76140 0.19387 0.60825-0.90307
   8  -5  -6 6369.29  725.84   1 0.74431-0.13702-0.21609-0.35095 0.63189-0.92631
  -8  -5   6 5323.11  861.55   1 0.17599-0.78311-0.40825-0.15858 0.89574-0.60132
   8  -5  -5 2740.54  656.95   1 0.19809 0.41077-0.73281 0.16529 0.65095-0.89662
   8  -5  -5 4862.42  905.53   1 0.74462-0.13603-0.14583-0.42120 0.65136-0.89670
  -8  -5   5 2863.36  917.33   1 0.14099-0.75040-0.42943-0.13832 0.89202-0.64634
  -8   5   4 4830.56 1029.03   1-0.17239-0.43744 0.70002-0.13303-0.69299 0.88935
   8  -5  -4 6981.48  758.22   1 0.74143-0.13187-0.07845-0.48836 0.66642-0.86261
  -8  -5   4 5825.09 1087.68   1 0.10369-0.71442-0.45105-0.11670 0.88645-0.68990
  -8   5   316120.68 2020.59   1-0.14473-0.46650 0.66610-0.09911-0.73168 0.87894
  -8  -5   314509.02 1266.79   1 0.30245-0.91416-0.95288 0.38583 0.02313 0.12423
   8  -5  -316070.00 1196.44   1 0.73510-0.12430-0.01540-0.55141 0.67777-0.82491
  -8  -5   313665.39 1644.82   1 0.06351-0.67557-0.47327-0.09448 0.87862-0.73121
  -8   5   2 2071.93  494.69   1-0.11660-0.49602 0.62993-0.06294-0.76784 0.86602
  -8  -5   2 5087.50  908.50   1 0.30762-0.92067-0.95108 0.38403 0.02843 0.06981
   8  -5  -2 5169.33 1019.27   1 0.72647-0.11442 0.04341-0.61022 0.68582-0.78392
  -8  -5   2 3764.22  861.70   1 0.02065-0.63404-0.49577-0.07199 0.86820-0.76993
  -8   5   1 8742.32 1195.48   1-0.08826-0.52576 0.59188-0.02489-0.80117 0.85026
  -8  -5   110002.74  778.93   1 0.30892-0.92330-0.95062 0.38357 0.02975 0.01936
   8  -5  -111205.65  935.06   1 0.71613-0.10283 0.09773-0.66455 0.69108-0.74013
  -8  -5   1 9766.86 1476.86   1-0.02458-0.59013-0.51817-0.04958 0.85491-0.80578
  -8   5   0 5424.09 1105.77   1-0.05998-0.55569 0.55263 0.01438-0.83125 0.83125
  -8  -5   0 4744.35  860.13   1 0.30709-0.92281-0.95127 0.38422 0.02788-0.02788
   8  -5   0 5693.16 1076.67   1 0.70497-0.09072 0.14796-0.71460 0.69362-0.69362
  -8  -5   0 3777.43  878.09   1-0.07139-0.54445-0.54042-0.02707 0.83835-0.83835
  -8   5  -1 2557.16  606.55   1-0.03208-0.58497 0.51210 0.05492-0.85832 0.80918
  -8  -5  -1 6477.91 1141.89   1 0.30268-0.91974-0.95280 0.38575 0.02337-0.07249
   8  -5   1 6592.11 1160.46   1 0.69289-0.07736 0.19304-0.75968 0.69471-0.64567
  -8  -5  -1 5725.84 1192.14   1-0.12038-0.49685-0.56156-0.00593 0.81862-0.86781
  -8   5  -212782.25 2348.16   1-0.00484-0.61359 0.47112 0.09589-0.88205 0.78377
  -8  -5  -214548.84 1063.43   1 0.29608-0.91448-0.95501 0.38796 0.01664-0.11488
   8  -5   214259.93 1070.70   1 0.68062-0.06382 0.23357-0.80021 0.69440-0.59630
  -8  -5  -214797.14 1416.75   1-0.17052-0.44811-0.58147 0.01397 0.79549-0.89386
  -8   5  -312162.35 1825.46   1 0.02143-0.64125 0.43026 0.13676-0.90244 0.75504
  -8  -5  -311599.42 1100.99   1 0.28758-0.90731-0.95772 0.39067 0.00801-0.15538
   8  -5   312810.58 1185.41   1 0.66854-0.05047 0.26967-0.83631 0.69305-0.54591
  -8  -5  -311397.02 1067.67   1-0.22129-0.39873-0.59980 0.03230 0.76893-0.91649
  -8   5  -4 1548.65  437.11   1 0.04651-0.66771 0.39005 0.17697-0.91961 0.72307
  -8  -5  -4 2594.53  665.13   1 0.27740-0.89848-0.96075 0.39370-0.00226-0.19423
   8  -5   4 2765.97  787.05   1 0.65694-0.03761 0.30153-0.86817 0.69100-0.49482
  -8   5  -514061.22 1934.68   1 0.07030-0.69266 0.35095 0.21607-0.93374 0.68812
  -8  -5  -513111.08 1400.96   1 0.26573-0.88814-0.96394 0.39689-0.01396-0.23165
   8  -5   515031.54 1629.51   1 0.64608-0.02548 0.32936-0.89600 0.68854-0.44331
   8  -5   514056.36 1422.44   1 0.86511-0.24304 0.40116-0.96842 0.30107-0.05547
   8   5   516562.67 1733.59   1 0.32131 0.30104 0.63133-0.06400-0.70581 0.95145
  -8   5  -6  317.52  211.68   1 0.09240-0.71612 0.31355 0.25347-0.94506 0.65031
  -8  -5  -6  734.27  322.67   1 0.25270-0.87646-0.96716 0.40011-0.02693-0.26780
   8  -5   6  487.38  370.55   1 0.63614-0.01427 0.35338-0.92002 0.68588-0.39160
   8  -5   6   90.54  234.24   1 0.86527-0.24188 0.40303-0.97029 0.29808-0.00336
   8   5   6 1663.74  510.23   1 0.37104 0.25267 0.64319-0.07586-0.66979 0.96457
  -8   5  -7 8239.11 1302.90   1 0.11278-0.73787 0.27818 0.28884-0.95388 0.61001
  -8  -5  -711465.06 1507.65   1 0.23844-0.86353-0.97028 0.40324-0.04103-0.30283
   8  -5   712893.82 1631.42   1 0.62726-0.00412 0.37380-0.94044 0.68323-0.33990
   8  -5   710842.12 1312.25   1 0.86521-0.24050 0.40235-0.96961 0.29917 0.04467
   8   5   710840.67 1318.37   1 0.41949 0.20559 0.65256-0.08524-0.63101 0.97491
  -8   6   2 1836.75  441.78   1-0.11616-0.49646 0.62936 0.05102-0.76837 0.86655
  -8  -6   2 2927.07  400.58   1 0.35462-0.96766-0.93180 0.25135 0.07731 0.02093
   8  -6  -2 3909.97  550.21   1 0.73934-0.12729-0.05403-0.62613 0.67115-0.76924
  -8  -6   2 3078.46  612.49   1 0.00494-0.61832-0.50371-0.17760 0.86385-0.76558
  -8   6   1 3554.06  670.13   1-0.09051-0.52350 0.59496 0.08542-0.79863 0.84772
  -8  -6   1 6195.32  819.84   1 0.35294-0.96733-0.93258 0.25213 0.07554-0.02642
   8  -6  -1 4859.61  784.91   1 0.73385-0.12056-0.00563-0.67454 0.67927-0.72832
  -8  -6   1 3994.12  644.44   1-0.03767-0.57704-0.52440-0.15691 0.85063-0.80149
  -8   6   0 1488.20  416.44   1-0.06507-0.55060 0.55987 0.12055-0.82601 0.82601
  -8  -6   0  662.84  382.12   1 0.34885-0.96457-0.93446 0.25400 0.07123-0.07123
   8  -6   0  180.48  342.91   1 0.72716-0.11261 0.03928-0.71946 0.68533-0.68533
  -8  -6   0 1233.68  355.09   1-0.08175-0.53409-0.54503-0.13596 0.83441-0.83441
  -8   6  -1 7876.33 1780.08   1-0.04013-0.57692 0.52395 0.15648-0.85080 0.80166
  -8  -6  -1 7243.94  932.35   1 0.34268-0.95974-0.93721 0.25676 0.06475-0.11387
   8  -6   1 8706.00 1165.24   1 0.71963-0.10383 0.08063-0.76081 0.68965-0.64060
  -8  -6  -1 5906.18  954.22   1-0.12812-0.48911-0.56475-0.11624 0.81525-0.86443
   9   0 -1222057.77 1689.97   1 0.47818 0.19835-0.86792 0.86792-0.13431-0.45536
  -9   0  1221170.34 1541.89   1 0.18629-0.86245-0.40185 0.40185 0.89655-0.30770
   9   0 -11 4300.16  996.95   1 0.47313 0.20476-0.87506 0.87506-0.10198-0.43855
  -9   0  11 4017.69  907.43   1 0.15860-0.83606-0.41887 0.41887 0.89408-0.35431
   9   0 -10 8479.26  758.12   1 0.46746 0.21180-0.88131 0.88131-0.06900-0.42240
  -9   0  10 6948.00 1436.04   1 0.12580-0.80558-0.43836 0.43836 0.88995-0.39859
   9   0  -917691.63 1565.59   1 0.46094 0.21911-0.88674 0.88674-0.03497-0.40703
  -9   0   913675.89 1643.93   1 0.08981-0.77091-0.45885 0.45885 0.88395-0.44174
   9   0  -8 4288.97  764.09   1 0.45382 0.22760-0.89109 0.89109-0.00027-0.39261
  -9   0   8 4120.91  839.07   1 0.04988-0.73232-0.48056 0.48056 0.87554-0.48245
   9   0  -718032.83 1185.62   1 0.44586 0.23695-0.89439 0.89439 0.03556-0.37935
  -9   0   713954.50 1660.89   1 0.00635-0.69011-0.50300 0.50300 0.86426-0.52031
   9   0  -6 1563.17  374.57   1 0.43692 0.24727-0.89654 0.89654 0.07283-0.36750
  -9   0   6  653.53  165.36   1-0.04030-0.64478-0.52564 0.52564 0.84975-0.55493
   9   0  -518554.70 1381.36   1 0.42683 0.25874-0.89738 0.89738 0.11186-0.35742
   9   0  -517507.16 1247.24   1 0.63142 0.05327 0.36435-0.36435 0.68450-0.92973
  -9   0   515660.60 1767.53   1-0.08881-0.59705-0.54813 0.54813 0.83166-0.58572
   9   0  -470530.96 7131.59   1 0.41535 0.27160-0.89667 0.89667 0.15312-0.34957
   9   0  -469868.31 4830.27   1 0.55876 0.12765 0.50815-0.50815 0.65540-0.85175
  -9   0   469206.03 4838.87   1-0.13991-0.54734-0.56953 0.56953 0.80997-0.61322
   9   0  -314942.89 1112.10   1 0.40237 0.28637-0.89397 0.89397 0.19725-0.34467
   9   0  -315402.68 1120.80   1 0.49274 0.19497 0.60883-0.60883 0.62170-0.76896
  -9   0   313100.39 1309.78   1-0.19200-0.49664-0.58945 0.58945 0.78464-0.63708
   9   0  -215231.04 1112.07   1 0.38695 0.30318-0.88896 0.88896 0.24498-0.34325
  -9   0   213781.03 1059.44   1-0.43596-0.25444-0.68109 0.68109-0.58825 0.68656
  -9   0   214366.34 1084.00   1-0.24428-0.44576-0.60747 0.60747 0.75584-0.65746
   9   0  -1 1925.21  237.95   1 0.36863 0.32288-0.88073 0.88073 0.29734-0.34648
  -9   0   1 1030.67  225.76   1-0.38723-0.30450-0.73432 0.73432-0.55751 0.60666
   9   0  -1 1208.85  262.09   1 0.29592 0.39519 0.62446-0.62446-0.72282 0.67369
   9   0   0 1772.42  208.00   1 0.34645 0.34645-0.86805 0.86805 0.35559-0.35559
  -9   0   0 1692.14  358.53   1-0.34654-0.34654-0.77365 0.77365-0.53044 0.53044
   9   0   0 2818.90  383.70   1 0.34624 0.34624 0.63754-0.63754-0.68822 0.68822
   9   0   129575.25 1688.67   1 0.31908 0.37520-0.84905 0.84905 0.42105-0.37191
  -9   0  -132313.09 1927.23   1-0.31270-0.38097-0.80340 0.80340-0.50671 0.45760
   9   0   131578.96 1862.64   1 0.39477 0.29906 0.64806-0.64806-0.65127 0.70040
   9   0   259761.78 3363.57   1 0.28466 0.41092-0.82034 0.82034 0.49598-0.39770
  -9   0  -264967.56 3706.97   1-0.28556-0.40943-0.82515 0.82515-0.48740 0.38919
   9   0   268721.37 3926.98   1 0.44110 0.25410 0.65600-0.65600-0.61244 0.71069
   9   0   3  111.03   74.35   1 0.24195 0.45502-0.77977 0.77977 0.57741-0.43000
  -9   0  -3  324.96  192.24   1-0.26394-0.43237-0.84131 0.84131-0.47171 0.32439
   9   0   3  672.19  268.51   1 0.48493 0.21163 0.66142-0.66142-0.57214 0.71953
  -9   0  -422772.52 1682.11   1-0.24714-0.45049-0.85318 0.85318-0.45933 0.26290
   9   0   422240.89 1641.76   1 0.52596 0.17169 0.66467-0.66467-0.53063 0.72713
  -9   0  -5  778.63  218.14   1-0.23454-0.46441-0.86170 0.86170-0.44994 0.20440
   9   0   5  800.66  437.70   1 0.56434 0.13466 0.66543-0.66543-0.48858 0.73421
  -9   0  -613808.52 1756.99   1-0.22562-0.47464-0.86753 0.86753-0.44324 0.14860
   9   0   613225.75  974.51   1 0.59996 0.10039 0.66409-0.66409-0.44611 0.74087
  -9   0  -7 4868.54  863.54   1-0.21994-0.48165-0.87117 0.87117-0.43895 0.09520
   9   0   7 2884.01  435.46   1 0.63284 0.06886 0.66084-0.66084-0.40347 0.74735
  -9   0  -8 9314.17 1265.85   1-0.21711-0.48580-0.87296 0.87296-0.43680 0.04394
   9   0   8 8931.86  784.56   1 0.66312 0.04030 0.65598-0.65598-0.36048 0.75369
  -9   0  -9 9080.05 1457.65   1-0.21681-0.48742-0.87314 0.87314-0.43658-0.00538
   9   0   910199.84  875.37   1 0.69079 0.01397 0.64938-0.64938-0.31797 0.76032
  -9   0 -10 3290.77  776.63   1-0.21877-0.48678-0.87191 0.87191-0.43806-0.05300
   9   0  10 3976.70  908.02   1 0.71603-0.00993 0.64131-0.64131-0.27570 0.76721
  -9   0 -11 3453.18  778.19   1-0.22276-0.48410-0.86937 0.86937-0.44108-0.09909
   9   0  11 2797.66  630.90   1 0.73896-0.03152 0.63189-0.63189-0.23374 0.77441
  -9   0 -12  567.60  386.34   1-0.22858-0.47960-0.86562 0.86562-0.44547-0.14381
   9   0  12 1523.32  493.25   1 0.75970-0.05092 0.62122-0.62122-0.19215 0.78197
   9   1 -12  468.62  361.77   1 0.49465 0.18187-0.82120 0.93476-0.28449-0.30519
   9  -1 -12  759.09  464.05   1 0.45397 0.22193-0.89101 0.77754-0.00098-0.58836
  -9  -1  12  808.50  310.01   1 0.24015-0.91631-0.36716 0.25379 0.89861-0.30977
   9   1 -11 3002.98  727.39   1 0.49304 0.18485-0.82924 0.94280-0.26316-0.27738
   9  -1 -11 2881.99  731.59   1 0.44501 0.23227-0.89466 0.78119 0.03923-0.57946
  -9  -1  11 2311.66  568.88   1 0.21641-0.89387-0.38272 0.26935 0.89815-0.35838
   9   1 -10 1525.90  494.83   1 0.49124 0.18801-0.83656 0.95012-0.24257-0.24883
   9  -1 -10 2182.67  525.76   1 0.43495 0.24371-0.89683 0.78336 0.08067-0.57179
  -9   1  10 1284.33  283.06   1 0.01666-0.69644-0.49780 0.61135 0.86712-0.37577
  -9  -1  10 1984.53  454.87   1 0.18890-0.86766-0.40022 0.28685 0.89673-0.40603
   9   1  -910096.14  944.63   1 0.48932 0.19130-0.84314 0.95670-0.22288-0.21937
   9  -1  -9 8769.27  842.18   1 0.42368 0.25636-0.89735 0.78388 0.12350-0.56551
  -9   1   9 8817.37 1106.89   1-0.02502-0.65608-0.51838 0.63194 0.85477-0.41256
  -9  -1   9 7576.08 1041.64   1 0.15759-0.83766-0.41948 0.30611 0.89397-0.45234
   9   1  -835385.05 2419.36   1 0.48732 0.19466-0.84897 0.96253-0.20435-0.18876
   9  -1  -837626.96 2529.77   1 0.41103 0.27039-0.89602 0.78255 0.16790-0.56080
  -9   1   834095.10 2293.61   1-0.07030-0.61212-0.53942 0.65297 0.83909-0.44601
  -9  -1   831959.93 2567.47   1 0.12173-0.80416-0.44072 0.32717 0.88935-0.49626
   9   1  -711574.01  845.91   1 0.48532 0.19802-0.85403 0.96759-0.18730-0.15667
   9  -1  -713401.84  936.37   1 0.39710 0.28609-0.89248 0.77901 0.21395-0.55793
  -9   1   7 9991.39 1773.99   1-0.11764-0.56544-0.56042 0.67392 0.81980-0.47550
  -9  -1   7 9668.51 1645.60   1 0.08301-0.76677-0.46263 0.34907 0.88265-0.53870
   9   1  -6 3996.94  496.95   1 0.48343 0.20127-0.85826 0.97182-0.17222-0.12261
   9  -1  -6 4579.73  625.60   1 0.38112 0.30346-0.88658 0.77311 0.26211-0.55695
   9  -1  -6 4749.09  547.96   1 0.72213-0.03825 0.06770-0.18107 0.68843-0.98272
  -9   1   6 3293.72  674.33   1-0.16801-0.51645-0.58052 0.69402 0.79672-0.50160
  -9  -1   6 4927.41  865.16   1 0.04089-0.72598-0.48530 0.37174 0.87338-0.57857
   9   1  -5 4070.97  513.45   1 0.48180 0.20428-0.86157 0.97513-0.15984-0.08586
   9  -1  -5 3675.50  498.17   1 0.36307 0.32290-0.87781 0.76434 0.31243-0.55813
   9  -1  -5 3843.00  476.66   1 0.68221 0.00247 0.22855-0.34188 0.69450-0.93973
   9   1  -5 3273.04  371.23   1 0.53686 0.14824 0.54396-0.43053 0.64488-0.89031
  -9   1   5 3752.45  737.14   1-0.21949-0.46637-0.59918 0.71268 0.76993-0.52399
  -9  -1   5 3547.43  638.52   1-0.00425-0.68216-0.50827 0.39472 0.86118-0.61550
   9   1  -4 4530.67  427.82   1 0.48062 0.20681-0.86377 0.97733-0.15130-0.04525
   9  -1  -4 7105.78  613.16   1 0.34265 0.34471-0.86562 0.75215 0.36508-0.56164
  -9  -1   4 5578.11  672.30   1-0.43766-0.25006-0.67910 0.56552-0.58929 0.78590
   9  -1  -4 6923.34  589.99   1 0.63522 0.05074 0.35554-0.46887 0.68562-0.88180
  -9  -1   4 7435.61  788.41   1-0.05194-0.63579-0.53106 0.41750 0.84573-0.64919
   9   1  -355859.38 3881.77   1 0.48025 0.20855-0.86444 0.97800-0.14861 0.00119
   9  -1  -347487.73 3317.01   1 0.31949 0.36925-0.84935 0.73588 0.42013-0.56755
  -9  -1   349027.52 3406.17   1-0.35953-0.32952-0.76156 0.64798-0.53921 0.68667
   9  -1  -351063.23 3565.15   1 0.58737 0.10034 0.45695-0.57038 0.66796-0.81522
  -9  -1   352034.32 3667.56   1-0.10112-0.58752-0.55345 0.43995 0.82671-0.67915
   9  -1  -352357.05 3651.62   1 0.32249 0.36589 0.63164-0.74510-0.70500 0.55761
   9   1  -214547.38 1045.99   1 0.48121 0.20895-0.86268 0.97624-0.15557 0.05729
   9  -1  -213486.21 1000.85   1 0.29327 0.39674-0.82782 0.71432 0.47821-0.57648
  -9  -1   212872.98  988.27   1-0.29755-0.39217-0.81575 0.70222-0.49598 0.59420
   9  -1  -214431.30 1082.75   1 0.54140 0.14762 0.53675-0.65018 0.64712-0.74529
  -9  -1   212815.90 1516.95   1-0.15222-0.53781-0.57441 0.46091 0.80428-0.70591
   9  -1  -213631.70 1014.23   1 0.37169 0.31806 0.64333-0.75679-0.66930 0.57104
   9   1  -113473.41  964.15   1 0.48453 0.20700-0.85587 0.96943-0.18085 0.13171
   9  -1  -118491.06 1108.03   1 0.26349 0.42791-0.80092 0.68742 0.53766-0.58680
  -9  -1   119010.20 1202.68   1-0.24944-0.44159-0.85159 0.73806-0.46104 0.51015
   9  -1  -121177.39 1294.36   1 0.49924 0.19108 0.59982-0.71325 0.62527-0.67435
  -9  -1   119435.96 1707.39   1-0.20394-0.48749-0.59375 0.48025 0.77837-0.72918
   9  -1  -120144.35 1218.34   1 0.41884 0.27227 0.65245-0.76592-0.63156 0.58243
   9  -1   026485.99 1541.67   1 0.22996 0.46283-0.76743 0.65393 0.59846-0.59846
  -9   1   029071.02 1713.30   1-0.46224-0.23083-0.64925 0.76283-0.60398 0.60398
  -9  -1   030422.12 1800.11   1-0.21180-0.48055-0.87626 0.76273-0.43277 0.43277
  -9  -1   031464.05 1862.70   1-0.25560-0.43723-0.61110 0.49760 0.74914-0.74914
   9  -1   028658.86 1693.26   1 0.46352 0.22895 0.65904-0.77250-0.59229 0.59229
  -9   1  -1 4050.87  790.40   1-0.42950-0.26491-0.68856 0.80214-0.58429 0.53514
  -9  -1  -1 3679.49  593.98   1-0.18259-0.51108-0.89347 0.77994-0.41031 0.36120
   9  -1   1 5030.37  479.27   1 0.50542 0.18818 0.66343-0.77690-0.55171 0.60084
   9   1   1 4475.56  481.69   1 0.30606 0.38777 0.62727-0.51381-0.71613 0.76526
  -9   1  -2 3854.11  324.89   1-0.15166-0.54347 0.67475-0.56135-0.72228 0.62411
  -9   1  -2 3830.51  599.54   1-0.40147-0.29428-0.71949 0.83306-0.56670 0.46839
  -9  -1  -2 4829.49  791.20   1-0.16027-0.53472-0.90552 0.79199-0.39285 0.29463
   9  -1   2 5166.75  558.92   1 0.54451 0.15044 0.66530-0.77876-0.51075 0.60900
   9   1   2 4873.93  603.11   1 0.35568 0.33952 0.63976-0.52629-0.68131 0.77957
  -9   1  -315241.37 1130.52   1-0.10779-0.58872 0.61828-0.50489-0.77852 0.63125
  -9   1  -316705.79 1863.64   1-0.37792-0.31917-0.74370 0.85728-0.55142 0.40396
  -9  -1  -313669.88 1826.15   1-0.14378-0.55270-0.91377 0.80027-0.37992 0.23253
   9  -1   313551.30 1078.04   1 0.58073 0.11557 0.66507-0.77854-0.46948 0.61686
   9   1   318940.93 1485.43   1 0.40358 0.29298 0.64973-0.53627-0.64417 0.79156
  -9   1  -4 4469.68  742.99   1-0.06230-0.63585 0.55594-0.44253-0.82888 0.63233
  -9   1  -4 6203.25 1193.85   1-0.35852-0.33991-0.76251 0.87609-0.53854 0.34192
  -9  -1  -4 6256.75 1168.39   1-0.13194-0.56588-0.91942 0.80593-0.37046 0.17394
   9  -1   4 5719.36  704.82   1 0.61414 0.08351 0.66295-0.77641-0.42815 0.62466
   9   1   4 4884.51  672.76   1 0.44939 0.24854 0.65718-0.54372-0.60510 0.80161
  -9   1  -556490.09 3024.96   1-0.01652-0.68300 0.48887-0.37546-0.87219 0.62651
  -9   1  -557281.37 3150.46   1-0.34293-0.35684-0.77693 0.89051-0.52799 0.28222
  -9  -1  -559560.59 3262.35   1-0.12415-0.57500-0.92301 0.80951-0.36419 0.11854
   9  -1   561903.51 3393.43   1 0.64484 0.05417 0.65911-0.77257-0.38697 0.63261
   9   1   556798.69 3115.43   1 0.49266 0.20634 0.66240-0.54894-0.56436 0.80999
  -9   1  -6 7725.18 1143.81   1 0.02785-0.72877 0.42008-0.30667-0.90705 0.61224
  -9   1  -610035.59 2316.57   1-0.33063-0.36963-0.78809 0.90163-0.51920 0.22456
  -9  -1  -6 7181.72 1249.09   1-0.11981-0.58067-0.92495 0.81145-0.36069 0.06591
   9  -1   6 7024.37  917.61   1 0.67301 0.02773 0.65387-0.76736-0.34569 0.64060
   9   1   610396.03 1745.53   1 0.53359 0.16676 0.66499-0.55152-0.52255 0.81731
  -9   1  -7 2416.11  502.24   1 0.06967-0.77170 0.35201-0.23860-0.93339 0.58952
  -9   1  -7 3610.39  800.03   1-0.32164-0.37994-0.79586 0.90939-0.51296 0.16921
  -9  -1  -7 2193.31  470.34   1-0.11846-0.58336-0.92555 0.81205-0.35959 0.01569
   9  -1   7 1165.11  477.69   1 0.69867 0.00341 0.64709-0.76059-0.30516 0.64921
   9   1   7 4220.50  860.33   1 0.57188 0.12982 0.66532-0.55185-0.47988 0.82377
  -9   1  -814871.58 1221.94   1 0.10747-0.81086 0.28748-0.17407-0.95173 0.55874
  -9   1  -816986.37 2467.36   1-0.31549-0.38741-0.80107 0.91460-0.50867 0.11581
  -9  -1  -818788.92 1685.52   1-0.11971-0.58344-0.92500 0.81150-0.36060-0.03242
   9  -1   818070.22 1589.70   1 0.72204-0.01862 0.63905-0.75255-0.26505 0.65826
   9   1   818238.80 1615.88   1 0.60752 0.09553 0.66353-0.55007-0.43662 0.82963
  -9   1  -9 1224.27  351.86   1-0.31192-0.39231-0.80405 0.91758-0.50615 0.06419
  -9  -1  -9 1376.24  365.26   1-0.12325-0.58123-0.92341 0.80991-0.36346-0.07869
   9  -1   9  871.95  370.57   1 0.74327-0.03851 0.62986-0.74336-0.22541 0.66777
   9   1   9  462.49  355.95   1 0.64050 0.06390 0.65977-0.54631-0.39300 0.83514
  -9   1 -1019667.57 2192.83   1-0.31067-0.39487-0.80509 0.91862-0.50528 0.01420
  -9  -1 -1021501.94 2414.47   1-0.12882-0.57699-0.92087 0.80737-0.36795-0.12334
   9  -1  1023670.99 2360.63   1 0.76248-0.05638 0.61961-0.73311-0.18625 0.67776
  -9  -1 -11 3822.71  909.01   1-0.13621-0.57094-0.91741 0.80392-0.37388-0.16654
   9  -1  11 4766.34  898.33   1 0.77980-0.07237 0.60837-0.72187-0.14756 0.68822
   9   1  11 7022.85  793.65   1 0.69874 0.00869 0.64707-0.53357-0.30504 0.84570
   9   2 -1112699.12 1035.30   1 0.49850 0.17950-0.75070 0.97790-0.43351-0.10717
   9  -2 -1113138.01 1126.26   1 0.41495 0.26233-0.89662 0.66968 0.15453-0.69476
  -9  -2  1110898.10 1533.87   1 0.24588-0.92334-0.36334 0.13661 0.89862-0.35884
   9   2 -10 4729.10 1054.10   1 0.49861 0.18077-0.75422 0.98142-0.42722-0.06430
   9  -2 -10 1808.85  556.88   1 0.40114 0.27752-0.89381 0.66687 0.20043-0.69155
  -9  -2  10 1209.48  313.64   1 0.22153-0.90030-0.37940 0.15266 0.89831-0.40761
   9   2  -915892.05 1133.17   1 0.49866 0.18210-0.75591 0.98311-0.42417-0.01819
   9  -2  -916861.90 1274.72   1 0.38615 0.29427-0.88865 0.66170 0.24734-0.68959
  -9  -2   915818.14 1993.90   1 0.19373-0.87380-0.39719 0.17045 0.89705-0.45542
   9   2  -8  718.34  289.27   1 0.49864 0.18349-0.75530 0.98249-0.42528 0.03206
   9  -2  -8  528.50  287.09   1 0.36923 0.31257-0.88103 0.65409 0.29568-0.68880
  -9  -2   8 1376.38  389.55   1 0.16245-0.84382-0.41653 0.18980 0.89448-0.50192
   9   2  -7 8627.67 1483.95   1 0.49853 0.18498-0.75161 0.97880-0.43190 0.08782
   9  -2  -712276.39  980.57   1 0.35053 0.33267-0.87058 0.64364 0.34526-0.68924
  -9  -2   711371.87 1349.87   1 0.12701-0.81077-0.43765 0.21054 0.89012-0.54617
   9   2  -635895.67 2151.76   1 0.49820 0.18669-0.74352 0.97072-0.44604 0.15112
   9  -2  -628347.83 1755.32   1 0.32987 0.35471-0.85694 0.63000 0.39601-0.69085
   9  -2  -627203.42 1632.24   1 0.73371-0.04983-0.00455-0.22217 0.67944-0.97373
  -9  -2   630199.70 2735.32   1 0.08897-0.77405-0.45932 0.23221 0.88380-0.58898
   9  -2  -629498.28 1744.87   1 0.36604 0.31825 0.64209-0.86902-0.67359 0.37881
   9   2  -523555.53 1436.74   1 0.49728 0.18899-0.72859 0.95579-0.47102 0.22525
   9  -2  -519489.00 1276.21   1 0.30725 0.37859-0.83940 0.61239 0.44832-0.69400
   9  -2  -518835.32 1182.03   1 0.71138-0.02626 0.11937-0.34609 0.69258-0.93783
  -9  -2   518359.16 1871.83   1 0.04781-0.73422-0.48166 0.25455 0.87505-0.62937
   9  -2  -520081.66 1216.94   1 0.41142 0.27424 0.65116-0.87809-0.63774 0.39210
   9   2  -417423.00  990.76   1 0.49472 0.19292-0.70171 0.92891-0.51267 0.31606
   9  -2  -420199.05 1199.18   1 0.28221 0.40502-0.81817 0.59116 0.50093-0.69747
  -9  -2   417583.58  975.02   1-0.26762-0.41946-0.83864 0.61157-0.47440 0.67083
   9  -2  -418557.05 1081.73   1 0.68242 0.00354 0.22791-0.45456 0.69452-0.89070
  -9  -2   417115.81 2213.86   1 0.00384-0.69158-0.50425 0.27715 0.86354-0.66700
   9  -2  -420224.09 1150.89   1 0.45468 0.23233 0.65790-0.88483-0.60034 0.40382
   9  -2  -3 2812.46  403.60   1 0.25482 0.43381-0.79257 0.56555 0.55398-0.70139
  -9  -2   3 1956.38  351.37   1-0.19487-0.49353-0.88644 0.65938-0.41981 0.56713
   9  -2  -3 2998.44  434.37   1 0.64986 0.03737 0.31989-0.54655 0.68945-0.83659
  -9  -2   3 3566.00  614.47   1-0.04252-0.64654-0.52667 0.29957 0.84899-0.70159
   9  -2  -3 3054.39  386.23   1 0.49554 0.19266 0.66265-0.88957-0.56153 0.41415
   9  -2  -2 2379.40  376.78   1 0.22502 0.46500-0.76223 0.53522 0.60693-0.70520
  -9  -2   2 1386.86  310.81   1-0.14227-0.54755-0.91451 0.68751-0.37871 0.47697
   9  -2  -2 2645.41  416.70   1 0.61669 0.07233 0.39813-0.62498 0.67910-0.77727
  -9  -2   2 1714.68  343.33   1-0.09035-0.59968-0.54880 0.32180 0.83105-0.73267
   9  -2  -2 2151.96  311.39   1 0.53348 0.15607 0.66498-0.89191-0.52267 0.42441
  -9  -2   1 1203.70  241.03   1-0.10314-0.58801-0.93211 0.70512-0.34715 0.39628
   9  -2  -1 1047.73  248.83   1 0.58389 0.10644 0.46349-0.69034 0.66651-0.71560
  -9  -2   1 1511.58  375.61   1-0.14011-0.55132-0.56961 0.34260 0.80988-0.76069
   9  -2  -1 1306.86  256.26   1 0.56861 0.12229 0.66537-0.89230-0.48367 0.43455
  -9   2   015644.02 1166.64   1-0.15922-0.53311 0.68408-0.45729-0.71180 0.71180
  -9  -2   014078.66 1183.84   1-0.07421-0.61827-0.94336 0.71637-0.32333 0.32333
   9  -2   015955.34 1236.40   1 0.55291 0.13871 0.51797-0.74483 0.65267-0.65267
  -9  -2   014245.99 1893.23   1-0.19063-0.50219-0.58896 0.36195 0.78535-0.78535
   9  -2   013513.35 1012.50   1 0.60099 0.09126 0.66402-0.89095-0.44483 0.44483
  -9   2  -1 8141.24 1159.02   1-0.12317-0.57056 0.63853-0.41174-0.75967 0.71058
  -9  -2  -110727.70 1787.89   1-0.05312-0.64070-0.95064 0.72364-0.30570 0.25657
   9  -2   111190.73  836.01   1 0.52446 0.16848 0.56312-0.78997 0.63861-0.58953
  -9  -2  -111663.29  794.67   1-0.24132-0.45290-0.60651 0.37951 0.75756-0.80675
   9  -2   113750.57  877.84   1 0.63073 0.06287 0.66111-0.88804-0.40631 0.45543
  -9   2  -2 3313.27  504.23   1-0.08591-0.60921 0.58865-0.36186-0.80380 0.70562
  -9  -2  -2 3685.90  718.28   1-0.03820-0.65695-0.95531 0.72831-0.29311 0.19486
   9  -2   2 4066.98  597.79   1 0.49889 0.19534 0.60031-0.82716 0.62508-0.52690
   9  -2   2 4572.48  596.57   1 0.65801 0.03695 0.65682-0.88375-0.36823 0.46648
   9   2   2 3269.84  543.99   1 0.29084 0.40436 0.62303-0.39609-0.72611 0.82437
  -9   2  -323245.30 1324.38   1-0.04817-0.64860 0.53566-0.30885-0.84305 0.69564
  -9   2  -324662.45 1450.81   1-0.47698-0.22010-0.63032 0.85748-0.61251 0.46505
  -9  -2  -316241.83 1124.66   1-0.02829-0.66819-0.95820 0.73120-0.28469 0.13730
   9  -2   320182.02 1217.43   1 0.68307 0.01365 0.65144-0.87844-0.33019 0.47765
   9   2   325820.20 1555.26   1 0.34016 0.35640 0.63608-0.40915-0.69259 0.83998
  -9   2  -427129.49 2183.03   1-0.01069-0.68746 0.48003-0.25322-0.87718 0.68063
  -9   2  -430822.45 1794.98   1-0.45761-0.24081-0.65503 0.88219-0.60126 0.40464
  -9  -2  -426193.96 1638.60   1-0.02250-0.67532-0.95980 0.73281-0.27975 0.08323
   9  -2   432576.13 1860.51   1 0.70587-0.00780 0.64482-0.87182-0.29315 0.48975
   9   2   430040.06 1754.23   1 0.38810 0.30982 0.64674-0.41981-0.65657 0.85308
  -9   2  -5 2808.56  644.72   1 0.02566-0.72520 0.42355-0.19674-0.90550 0.65982
  -9   2  -5 3166.26  607.29   1-0.44125-0.25851-0.67486 0.90202-0.59147 0.34570
  -9  -2  -5 3179.56  709.29   1-0.02016-0.67899-0.96044 0.73344-0.27775 0.03210
   9  -2   5 3233.28  509.38   1 0.72670-0.02729 0.63720-0.86420-0.25664 0.50239
   9   2   5 2706.97  485.28   1 0.43429 0.26500 0.65497-0.42804-0.61838 0.86403
  -9   2  -6 8836.59 1402.93   1 0.06033-0.76099 0.36752-0.14071-0.92805 0.63330
  -9   2  -610667.98 1645.74   1-0.42778-0.27333-0.69053 0.91769-0.58323 0.28831
  -9  -2  -610205.71 1672.15   1-0.02076-0.67972-0.96027 0.73328-0.27826-0.01651
   9  -2   611180.09  943.85   1 0.74570-0.04495 0.62867-0.85567-0.22065 0.51555
   9   2   610105.71  826.54   1 0.47841 0.22225 0.66075-0.43382-0.57838 0.87315
  -9   2  -7  876.21  246.74   1 0.09235-0.79438 0.31362-0.08681-0.94504 0.60117
  -9   2  -7 1008.60  289.05   1-0.41703-0.28542-0.70262 0.92978-0.57654 0.23247
  -9  -2  -7 2529.66  551.66   1-0.02390-0.67792-0.95942 0.73243-0.28094-0.06296
   9  -2   7 1047.85  351.72   1 0.76300-0.06092 0.61930-0.84630-0.18515 0.52920
   9   2   7  583.82  340.19   1 0.52003 0.18167 0.66437-0.43744-0.53681 0.88069
  -9   2  -8 5496.70 1278.54   1 0.12148-0.82487 0.26284-0.03603-0.95715 0.56416
  -9   2  -8 7207.03 1664.67   1-0.40883-0.29495-0.71159 0.93875-0.57138 0.17815
  -9  -2  -8 2857.92  857.37   1-0.02923-0.67391-0.95793 0.73093-0.28549-0.10753
   9  -2   8 4726.45  953.86   1 0.77872-0.07529 0.60914-0.83614-0.15010 0.54331
   9   2   8 6305.72 1117.80   1 0.55944 0.14361 0.66545-0.43852-0.49415 0.88716
  -9   2  -923337.61 2731.05   1 0.14747-0.85222 0.21606 0.01074-0.96517 0.52305
  -9   2  -926769.56 2563.57   1-0.40302-0.30210-0.71784 0.94500-0.56768 0.12530
  -9  -2  -929487.01 2677.45   1-0.03652-0.66796-0.95581 0.72881-0.29169-0.15047
   9  -2   931216.55 2669.57   1 0.79280-0.08841 0.59842-0.82530-0.11553 0.55772
   9   2   930378.37 2614.40   1 0.59633 0.10807 0.66433-0.43740-0.45060 0.89274
  -9   2 -10 1033.15  334.53   1 0.17026-0.87637 0.17385 0.05296-0.96994 0.47869
  -9  -2 -10  733.68  295.38   1-0.04554-0.66028-0.95306 0.72606-0.29932-0.19197
   9  -2  10 2255.27  493.43   1 0.80562-0.09990 0.58681-0.81370-0.08131 0.57263
  -9   2 -11 3250.61  890.12   1-0.39786-0.30994-0.72330 0.95046-0.56438 0.02370
  -9  -2 -11 2791.80  789.79   1-0.05612-0.65103-0.94965 0.72265-0.30822-0.23219
   9  -2  11 2936.15  674.58   1 0.81710-0.11006 0.57453-0.80141-0.04744 0.58789
   9   2  11 5098.83  943.08   1 0.66245 0.04498 0.65612-0.42912-0.36146 0.90212
   9   3 -1013791.92 1624.29   1 0.48404 0.19417-0.63431 0.97454-0.60277 0.11203
   9  -3 -1012923.02 1591.65   1 0.37099 0.30804-0.88191 0.54149 0.29083-0.78223
  -9  -3  1010531.29 1694.48   1 0.23374-0.91250-0.37140 0.03130 0.89856-0.40786
   9   3  -9 7652.38  813.12   1 0.48222 0.19738-0.62481 0.96505-0.61405 0.17238
   9  -3  -9 9183.79 1025.95   1 0.35303 0.32739-0.87209 0.53167 0.33885-0.78110
  -9  -3   9 6335.36  892.50   1 0.20852-0.88859-0.38779 0.04769 0.89784-0.45621
   9  -3  -835845.10 3014.36   1 0.33348 0.34833-0.85947 0.51905 0.38742-0.78054
  -9  -3   836215.95 7620.20   1 0.18011-0.86148-0.40570 0.06559 0.89608-0.50352
   9  -3  -7 7911.48 1624.21   1 0.31227 0.37092-0.84382 0.50340 0.43640-0.78038
   9  -3  -7 5544.51  951.77   1 0.74496-0.06208-0.18162-0.15860 0.64190-0.98538
  -9  -3   7 5975.72 1317.38   1 0.14781-0.83157-0.42538 0.08472 0.89286-0.54891
   9  -3  -6 1764.15  421.83   1 0.28952 0.39493-0.82460 0.48408 0.48601-0.78082
   9  -3  -6 3492.47  673.28   1 0.74097-0.05710-0.07264-0.26744 0.66758-0.96187
  -9  -3   6 3317.87  665.90   1 0.11308-0.79817-0.44570 0.10504 0.88800-0.59319
   9  -3  -519010.62 1348.19   1 0.26484 0.42100-0.80220 0.46169 0.53508-0.78076
   9  -3  -519524.00 1353.16   1 0.72912-0.04400 0.02715-0.36724 0.68384-0.92908
  -9  -3   520116.01 1988.77   1 0.07535-0.76176-0.46684 0.12618 0.88112-0.63544
   9  -3  -4 5856.58 1022.36   1 0.23842 0.44881-0.77618 0.43566 0.58368-0.78023
   9  -3  -4 6526.32 1093.55   1 0.71175-0.02538 0.11773-0.45782 0.69248-0.88868
  -9  -3   4 6318.00 1288.95   1 0.03480-0.72254-0.48848 0.14782 0.87187-0.67533
   9  -3  -326941.98 1661.61   1 0.21034 0.47829-0.74641 0.40590 0.63136-0.77876
  -9  -3   326513.41 1664.01   1-0.03272-0.65577-0.95693 0.61643-0.28846 0.43585
   9  -3  -326933.18 1661.01   1 0.69098-0.00375 0.19965-0.53963 0.69475-0.84188
  -9  -3   326476.28 2454.88   1-0.00827-0.68078-0.51026 0.16960 0.85998-0.71257
  -9   3   213763.68  929.16   1-0.18164-0.50791 0.71098-0.37079-0.67934 0.77752
  -9  -3   210268.67 1716.50   1 0.00462-0.69445-0.96656 0.62607-0.25637 0.35463
   9  -3  -211555.94  833.51   1 0.66793 0.02057 0.27141-0.61139 0.69296-0.79105
  -9  -3   210416.19 1963.07   1-0.05353-0.63686-0.53179 0.19113 0.84518-0.74691
   9  -3  -2 9713.11 1560.53   1 0.71299-0.02295 0.64240-0.98290-0.28099 0.18269
  -9   3   1 5596.51 1072.26   1-0.15072-0.54022 0.67359-0.33340-0.72356 0.77265
  -9  -3   1 2499.63  538.76   1 0.03102-0.72218-0.97191 0.63141-0.23329 0.28242
   9  -3  -1 1924.78  357.80   1 0.64410 0.04567 0.33427-0.67425 0.68803-0.73708
  -9  -3   1 2914.74  592.34   1-0.10013-0.59130-0.55302 0.21252 0.82712-0.77793
   9  -3  -1 2710.90  397.90   1 0.72684-0.03546 0.63715-0.97764-0.25639 0.20723
  -9   3   0 6705.21 1024.39   1-0.11880-0.57354 0.63282-0.29263-0.76512 0.76512
  -9  -3   011371.22  793.24   1 0.04885-0.74186-0.97473 0.63413-0.21796 0.21796
   9  -3   011276.71  849.85   1 0.62091 0.07071 0.38901-0.72929 0.68053-0.68053
  -9  -3   010059.20 1742.56   1-0.14850-0.54432-0.57294 0.23244 0.80602-0.80602
   9  -3   010435.96 1690.18   1 0.74033-0.04761 0.63126-0.97175-0.23112 0.23112
  -9   3  -1 2245.97  481.82   1-0.08626-0.60747 0.58914-0.24894-0.80341 0.75432
  -9  -3  -1 3382.94  561.30   1 0.06116-0.75551-0.97643 0.63583-0.20698 0.15783
   9  -3   1 4354.82  604.38   1 0.59823 0.09470 0.43599-0.77627 0.67232-0.62323
   9  -3   1 4087.52  566.40   1 0.75333-0.05927 0.62475-0.96525-0.20536 0.25451
  -9   3  -2 2492.69  519.88   1-0.05359-0.64180 0.54348-0.20326-0.83770 0.73943
  -9  -3  -2 3723.67  586.90   1 0.06861-0.76431-0.97732 0.63672-0.20029 0.10200
   9  -3   2 4731.82  725.10   1 0.57700 0.11724 0.47614-0.81643 0.66358-0.56541
   9  -3   2 3678.83  483.10   1 0.76576-0.07037 0.61764-0.95814-0.17920 0.27751
  -9   3  -3  428.57  165.09   1-0.02123-0.67554 0.49594-0.15573-0.86809 0.72068
  -9  -3  -3  665.17  393.86   1 0.07213-0.76916-0.97771 0.63711-0.19713 0.04970
   9  -3   3 1422.52  517.68   1 0.55756 0.13799 0.51019-0.85047 0.65485-0.50759
   9  -3   3  268.11  260.33   1 0.77758-0.08085 0.60994-0.95044-0.15275 0.30020
   9   3   3 1006.21  468.03   1 0.29506 0.40150 0.62422-0.28383-0.72337 0.87076
  -9   3  -411438.53 1326.35   1 0.01026-0.70842 0.44778-0.10756-0.89408 0.69753
  -9  -3  -4 9193.57  789.08   1 0.07237-0.77074-0.97774 0.63714-0.19691 0.00033
   9  -3   4 9954.32  855.43   1 0.54012 0.15673 0.53880-0.87908 0.64649-0.45015
   9  -3   4 8191.19 1417.02   1 0.78860-0.09082 0.60183-0.94215-0.12609 0.32262
   9   3   412841.17 1086.68   1 0.34339 0.35454 0.63686-0.29646-0.69027 0.88679
  -9   3  -5 7940.12  975.52   1 0.04043-0.73997 0.39991-0.05969-0.91566 0.66998
  -9  -3  -5 6346.51 1170.22   1 0.06986-0.76956-0.97746 0.63686-0.19918-0.04654
   9  -3   5 7329.54 1358.63   1 0.52480 0.17336 0.56260-0.90289 0.63879-0.39336
   9  -3   5 7905.27  780.77   1 0.79907-0.09998 0.59298-0.93331-0.09921 0.34486
   9   3   5 9171.51  916.42   1 0.39054 0.30875 0.64723-0.30683-0.65464 0.90028
  -9   3  -619992.98 1366.89   1 0.06902-0.76968 0.35310-0.01288-0.93303 0.63829
  -9  -3  -620845.25 1499.42   1 0.06497-0.76601-0.97690 0.63630-0.20356-0.09130
   9  -3   624428.76 1733.58   1 0.51163 0.18783 0.58214-0.92242 0.63192-0.33741
   9  -3   622267.71 1546.23   1 0.80884-0.10842 0.58357-0.92389-0.07216 0.36695
   9   3   618086.26 1338.42   1 0.43616 0.26450 0.65525-0.31486-0.61676 0.91153
  -9   3  -7 3758.37 1040.06   1 0.09539-0.79741 0.30841 0.03180-0.94645 0.60258
  -9  -3  -7 3512.89  820.08   1 0.05802-0.76040-0.97602 0.63542-0.20978-0.13422
   9  -3   7 5051.73 1197.24   1 0.50062 0.20015 0.59789-0.93817 0.62601-0.28241
   9  -3   7 4132.16  890.00   1 0.81789-0.11615 0.57360-0.91392-0.04497 0.38890
   9   3   7 5172.52 1091.60   1 0.47993 0.22209 0.66091-0.32051-0.57693 0.92083
  -9   3  -8  779.73  251.59   1 0.11946-0.82285 0.26641 0.07380-0.95642 0.56343
  -9  -3  -8  740.60  492.56   1 0.04925-0.75297-0.97479 0.63419-0.21759-0.17556
   9  -3   8 1036.94  551.08   1 0.49169 0.21038 0.61027-0.95055 0.62112-0.22844
   9  -3   8  295.90  314.06   1 0.82621-0.12314 0.56307-0.90340-0.01767 0.41073
  -9   3  -9  938.52  365.61   1 0.14112-0.84588 0.22762 0.11259-0.96346 0.52135
  -9  -3  -9 1752.26  436.72   1 0.03908-0.74357-0.97330 0.63280-0.22617-0.21598
   9  -3   9 1971.04  514.35   1 0.83379-0.12939 0.55199-0.89232 0.00972 0.43245
   9   3   9  861.74  350.36   1 0.56082 0.14358 0.66545-0.32506-0.49259 0.93472
   9  -4  -8 1363.59  439.31   1 0.30638 0.37529-0.83870 0.38468 0.45022-0.84331
  -9  -4   8 1117.69  282.59   1 0.18120-0.86257-0.40502-0.04844 0.89616-0.50360
   9  -4  -7 3016.70  662.61   1 0.28421 0.39885-0.81995 0.36592 0.49689-0.84083
   9  -4  -7 3867.50  694.01   1 0.74391-0.06103-0.22692-0.22670 0.62856-0.97204
  -9  -4   7 5643.61  716.55   1 0.15128-0.83504-0.42330-0.03090 0.89326-0.54931
   9  -4  -6 4742.39 1036.55   1 0.26068 0.42377-0.79824 0.34422 0.54299-0.83780
   9  -4  -6 5566.97  690.46   1 0.74444-0.06027-0.13930-0.31432 0.65298-0.94739
  -9  -4   6 4488.25 1158.68   1 0.11917-0.80426-0.44220-0.01201 0.88896-0.59415
   9  -4  -513114.27 1249.76   1 0.23584 0.45000-0.77353 0.31951 0.58823-0.83391
   9  -4  -514453.78 1303.26   1 0.73953-0.05441-0.05603-0.39741 0.67078-0.91602
  -9  -4   514755.43 1584.34   1 0.08423-0.77064-0.46195 0.00774 0.88289-0.63721
   9  -4  -4 9619.92  814.64   1 0.20979 0.47744-0.74581 0.29179 0.63225-0.82879
   9  -4  -4 9490.30  793.89   1 0.73008-0.04371 0.02093-0.47438 0.68303-0.87922
  -9  -4   4 7573.93 1394.88   1 0.04658-0.73432-0.48231 0.02809 0.87476-0.67821
  -9   4   3 2004.17  414.11   1-0.18376-0.50440 0.71346-0.25987-0.67616 0.82343
  -9  -4   3  826.57  286.56   1 0.09900-0.78800-0.97997 0.52583-0.17277 0.32021
   9  -4  -3 1197.55  364.76   1 0.71738-0.02976 0.09178-0.54523 0.69060-0.83775
  -9   4   2 1212.45  406.51   1-0.15577-0.53377 0.67984-0.22625-0.71661 0.81479
  -9  -4   2  460.72  207.55   1 0.12214-0.81248-0.98087 0.52674-0.15151 0.24980
  -9  -4   2 2422.62  569.03   1-0.03596-0.65442-0.52359 0.06938 0.85120-0.75293
  -9   4   114442.78 1864.45   1-0.12715-0.56380 0.64369-0.19010-0.75464 0.80373
  -9  -4   116926.20 1178.22   1 0.13764-0.82932-0.98094 0.52680-0.13713 0.18627
   9  -4  -119798.93 1403.32   1 0.68637 0.00340 0.21514-0.66845 0.69469-0.74374
  -9  -4   115771.82 1860.24   1-0.07980-0.61163-0.54417 0.09016 0.83517-0.78598
  -9   4   0  452.09  249.61   1-0.09815-0.59418 0.60535-0.15176-0.78988 0.78988
  -9  -4   0 1224.59  364.47   1 0.14738-0.84040-0.98075 0.52662-0.12802 0.12802
   9  -4   0  631.06  319.44   1 0.66943 0.02160 0.26712-0.72043 0.69318-0.69318
  -9  -4   0  480.51  298.36   1-0.12573-0.56709-0.56377 0.10977 0.81630-0.81630
  -9   4  -1 3384.25  720.52   1-0.06913-0.62489 0.56560-0.11198-0.82177 0.77263
  -9  -4  -1 4790.75  864.90   1 0.15262-0.84698-0.98058 0.52645-0.12310 0.07396
   9  -4   1 5245.14 1019.02   1 0.65248 0.03982 0.31318-0.76650 0.69005-0.64100
  -9  -4  -1 4553.61  881.85   1-0.17276-0.52145-0.58232 0.12832 0.79438-0.84357
  -9   4  -2 6828.02 1548.74   1-0.04037-0.65502 0.52431-0.07068-0.85056 0.75229
  -9  -4  -2 9327.62  826.67   1 0.15423-0.84992-0.98052 0.52638-0.12159 0.02330
   9  -4   2 7967.86  690.75   1 0.63602 0.05755 0.35367-0.80698 0.68584-0.58775
  -9  -4  -2 7754.60 1570.39   1-0.22044-0.47516-0.59951 0.14551 0.76940-0.86777
   9  -4   2 8738.95  656.39   1 0.84389-0.14876 0.53401-0.98777 0.05172 0.04653
  -9   4  -3 2129.46  550.37   1-0.01227-0.68450 0.48243-0.02881-0.87584 0.72843
  -9  -4  -3 1755.67  482.71   1 0.15282-0.84985-0.98057 0.52644-0.12292-0.02451
   9  -4   3 1808.74  457.20   1 0.62041 0.07443 0.38896-0.84227 0.68102-0.53388
  -9  -4  -3 1730.67  501.68   1-0.26831-0.42869-0.61506 0.16106 0.74141-0.88897
   9  -4   3  935.57  210.02   1 0.84531-0.14886 0.53107-0.98483 0.05832 0.08906
  -9   4  -410855.67 1218.51   1 0.01485-0.71301 0.44061 0.01300-0.89757 0.70102
  -9  -4  -410479.49 1016.75   1 0.14887-0.84724-0.98071 0.52658-0.12663-0.06994
   9  -4   412118.89 1174.40   1 0.60652 0.09033 0.41937-0.87308 0.67546-0.47912
   9  -4   4 8878.63  829.84   1 0.84736-0.14958 0.52662-0.98038 0.06820 0.12832
  -9   4  -5  483.56  235.02   1 0.04070-0.74024 0.39947 0.05414-0.91583 0.67015
  -9  -4  -5  377.07  309.59   1 0.14273-0.84243-0.98086 0.52673-0.13238-0.11334
   9  -4   5  664.23  394.28   1 0.59342 0.10474 0.44540-0.89911 0.67042-0.42499
   9  -4   5   -7.12  287.49   1 0.84978-0.15068 0.52093-0.97470 0.08059 0.16506
   9   4   5  929.42  487.30   1 0.36171 0.33757 0.64113-0.18727-0.67683 0.92247
  -9   4  -6 4013.05  958.61   1 0.06516-0.76583 0.35951 0.09410-0.93085 0.63611
  -9  -4  -6 4551.74  919.29   1 0.13467-0.83572-0.98096 0.52683-0.13989-0.15497
   9  -4   6 5209.24  697.95   1 0.58179 0.11767 0.46738-0.92109 0.66563-0.37111
   9  -4   6 4362.00  801.96   1 0.85238-0.15196 0.51421-0.96797 0.09497 0.19981
  -9   4  -7 8387.86 1291.19   1 0.08776-0.78979 0.32148 0.13214-0.94283 0.59897
  -9  -4  -710279.90 1333.03   1 0.12492-0.82731-0.98092 0.52678-0.14894-0.19506
   9  -4   711823.62 1516.18   1 0.57170 0.12906 0.48566-0.93937 0.66127-0.31766
   9  -4   7 8338.30 1020.33   1 0.85510-0.15346 0.50646-0.96027 0.11079 0.23304
   9   4   7 9135.35 1236.88   1 0.45208 0.24994 0.65755-0.20369-0.60269 0.94659
   9  -5  -4 3754.46  567.24   1 0.74056-0.05418-0.06758-0.49922 0.66858-0.86477
  -9  -5   4 2898.59  662.16   1 0.04311-0.73085-0.48413-0.08362 0.87392-0.67738
  -9   5   3 1766.36  453.77   1-0.16915-0.51900 0.69614-0.12915-0.69769 0.84495
   9  -5  -3  549.38  303.32   1 0.73386-0.04624-0.00566-0.56115 0.67927-0.82641
  -9  -5   3  378.92  237.07   1 0.00544-0.69451-0.50345-0.06431 0.86400-0.71659
  -9   5   2 3417.29  833.98   1-0.14320-0.54634 0.66418-0.09719-0.73372 0.83189
   9  -5  -2 4552.35  940.98   1 0.72502-0.03615 0.05179-0.61860 0.68677-0.78486
  -9  -5   2 4315.81  971.27   1-0.03442-0.65597-0.52286-0.04489 0.85171-0.75344
  -9   5   111135.38 2037.23   1-0.11700-0.57394 0.63047-0.06348-0.76734 0.81643
  -9  -5   115972.46 1198.28   1 0.21479-0.90647-0.97458 0.40691-0.06368 0.11283
   9  -5  -115771.63 1215.58   1 0.71466-0.02454 0.10462-0.67144 0.69159-0.74064
  -9  -5   113618.87 1805.69   1-0.07569-0.61573-0.54234-0.02515 0.83673-0.78754
  -9   5   0 1042.25  310.08   1-0.09079-0.60155 0.59534-0.02835-0.79832 0.79832
  -9  -5   0 2397.10  500.48   1 0.21877-0.91179-0.97394 0.40627-0.05981 0.05981
   9  -5   0 2503.64  603.62   1 0.70361-0.01256 0.15338-0.72002 0.69383-0.69383
  -9  -5   0 2709.16  658.30   1-0.11924-0.57358-0.56109-0.00640 0.81911-0.81911
  -9   5  -1 2770.43  780.04   1-0.06478-0.62923 0.55946 0.00755-0.82631 0.77717
   9  -5   1 2092.50  506.17   1 0.69176 0.00054 0.19695-0.76359 0.69474-0.64569
  -9  -5  -1 1801.65  456.39   1-0.16407-0.53015-0.57901 0.01151 0.79863-0.84782
  -9   5  -2  517.78  260.82   1-0.03927-0.65612 0.52269 0.04433-0.85161 0.75334
  -9  -5  -2  186.56  369.24   1 0.21719-0.91289-0.97419 0.40653-0.06134-0.03694
   9  -5   2 1565.70  543.89   1 0.67983 0.01374 0.23604-0.80268 0.69434-0.59624
  -9  -5  -2  344.32  276.56   1-0.20980-0.48581-0.59582 0.02831 0.77522-0.87360
  -9   5  -3 1255.08  390.99   1-0.01448-0.68229 0.48578 0.08124-0.87395 0.72654
  -9  -5  -3  778.48  293.34   1 0.21263-0.90966-0.97491 0.40724-0.06578-0.08164
   9  -5   3 2478.44  700.45   1 0.66814 0.02670 0.27081-0.83745 0.69299-0.54585
  -9  -5  -3  892.34  336.49   1-0.25602-0.44098-0.61124 0.04373 0.74888-0.89644
  -9   5  -4 9460.81 1781.98   1 0.00934-0.70749 0.44922 0.11780-0.89336 0.69682
  -9  -5  -4 9869.63 1266.13   1 0.20600-0.90437-0.97588 0.40821-0.07220-0.12436
   9  -5   411552.79 1467.48   1 0.65697 0.03914 0.30146-0.86810 0.69101-0.49482
   9   5   412555.91 1606.37   1 0.30102 0.39690 0.62589-0.05856-0.71947 0.91598
  10   0 -1012201.22 1007.90   1 0.47280 0.28344-0.87547 0.87547-0.09998-0.39141
 -10   0  10 7735.61 1538.68   1 0.02686-0.78364-0.49259 0.49259 0.86984-0.37849
 -10   0   9 2778.75  737.36   1-0.00599-0.75211-0.50913 0.50913 0.86066-0.41844
  10   0  -8  524.90  277.71   1 0.46146 0.29691-0.88636 0.88636-0.03763-0.35525
 -10   0   8  485.05  276.16   1-0.04189-0.71753-0.52638 0.52638 0.84921-0.45612
 -10   0   7 1699.04  450.50   1-0.07966-0.68040-0.54410 0.54410 0.83522-0.49091
  10   0  -6 3029.41  573.02   1 0.44790 0.31322-0.89368 0.89368 0.02660-0.32127
 -10   0   6 2992.81  653.75   1-0.12069-0.64076-0.56169 0.56169 0.81849-0.52337
  10   0  -5 2288.78  458.25   1 0.44009 0.32242-0.89594 0.89594 0.05992-0.30548
 -10   0   5 1211.67  280.04   1-0.16350-0.59934-0.57879 0.57879 0.79891-0.55297
  10   0  -4 4549.26  782.79   1 0.43146 0.33243-0.89718 0.89718 0.09431-0.29076
  10   0  -4 3673.25  621.81   1 0.57766 0.18560 0.47495-0.47495 0.66386-0.86021
 -10   0   4 4119.26  860.27   1-0.20755-0.55668-0.59503 0.59503 0.77643-0.57969
  10   0  -317624.92 1110.52   1 0.42186 0.34341-0.89727 0.89727 0.13009-0.27742
  10   0  -319081.45 1176.45   1 0.51891 0.24565 0.57144-0.57144 0.63574-0.78300
 -10   0   317364.45 1129.38   1-0.25227-0.51336-0.61004 0.61004 0.75113-0.60357
  10   0  -2 2707.18  379.54   1 0.41110 0.35555-0.89603 0.89603 0.16767-0.26590
 -10   0   2 2069.96  314.78   1-0.46778-0.29962-0.64223 0.64223-0.60721 0.70552
  10   0  -2 2013.04  380.63   1 0.29710 0.46958 0.62480-0.62480-0.72204 0.62378
  10   0  -1 2281.91  329.39   1 0.39910 0.36940-0.89307 0.89307 0.20767-0.25681
 -10   0   1 1238.52  357.09   1-0.42305-0.34570-0.69589 0.69589-0.58030 0.62945
  10   0  -1 2851.36  462.31   1 0.34135 0.42670 0.63637-0.63637-0.69174 0.64261
 -10   0   0 7269.61 1382.47   1-0.38504-0.38504-0.73654 0.73654-0.55609 0.55609
  10   0   0 7946.76 1021.76   1 0.38471 0.38471 0.64606-0.64606-0.65924 0.65924
 -10   0  -1 5051.06  938.04   1-0.35319-0.41823-0.76751 0.76751-0.53495 0.48580
  10   0   1 5544.36  751.21   1 0.42678 0.34400 0.65377-0.65377-0.62484 0.67396
 -10   0  -2 9223.05 1501.98   1-0.32651-0.44541-0.79168 0.79168-0.51635 0.41813
  10   0   2 9603.30 1137.26   1 0.46725 0.30489 0.65949-0.65949-0.58884 0.68710
 -10   0  -3 1452.43  394.00   1-0.30513-0.46811-0.80964 0.80964-0.50137 0.35405
  10   0   3 1279.10  333.78   1 0.50575 0.26747 0.66346-0.66346-0.55138 0.69876
 -10   0  -411511.64 1904.37   1-0.28811-0.48644-0.82318 0.82318-0.48924 0.29281
  10   0   414075.85 1077.47   1 0.54238 0.23219 0.66525-0.66525-0.51308 0.70959
 -10   0  -523138.14 2259.38   1-0.27497-0.50091-0.83320 0.83320-0.47975 0.23421
  10   0   525588.42 2164.28   1 0.57690 0.19902 0.66519-0.66519-0.47402 0.71965
 -10   0  -6 9436.22 1657.13   1-0.26525-0.51194-0.84036 0.84036-0.47267 0.17803
  10   0   610791.91  856.37   1 0.60926 0.16801 0.66338-0.66338-0.43441 0.72916
 -10   0  -725302.67 2489.42   1-0.25860-0.51992-0.84515 0.84515-0.46779 0.12404
  10   0   725497.69 2179.66   1 0.63946 0.13916 0.65992-0.65992-0.39444 0.73832
 -10   0  -8  752.85  300.00   1-0.25467-0.52517-0.84794 0.84794-0.46490 0.07204
  10   0   8 1007.47  404.25   1 0.66756 0.11282 0.65506-0.65506-0.35389 0.74709
 -10   0  -9  752.05  223.50   1-0.25319-0.52796-0.84898 0.84898-0.46381 0.02184
  10   0   9 1217.42  484.19   1 0.69349 0.08823 0.64862-0.64862-0.31361 0.75597
  10   1 -10 2122.06  556.05   1 0.49372 0.26252-0.82604 0.93960-0.27180-0.21959
  10  -1 -10 1090.11  432.93   1 0.44288 0.31273-0.89527 0.78180 0.04830-0.53941
 -10  -1  10 1050.67  283.89   1 0.09659-0.85337-0.45506 0.34151 0.88520-0.39385
  10   1  -9 6079.44  728.22   1 0.49234 0.26526-0.83223 0.94579-0.25490-0.18736
  10  -1  -9 4991.82  676.26   1 0.43305 0.32394-0.89704 0.78357 0.08814-0.53015
 -10  -1   9 3205.19  858.78   1 0.06702-0.82513-0.47137 0.35782 0.87938-0.43716
  10   1  -8 1752.68  433.31   1 0.49097 0.26800-0.83755 0.95111-0.23966-0.15345
  10  -1  -8 1155.67  362.81   1 0.42212 0.33625-0.89728 0.78381 0.12917-0.52207
 -10   1   8 1827.73  407.96   1-0.16146-0.59720-0.57801 0.69151 0.79989-0.40640
 -10  -1   8  732.73  280.81   1 0.03436-0.79379-0.48871 0.37515 0.87176-0.47868
  10   1  -728701.65 1904.70   1 0.48969 0.27064-0.84193 0.95549-0.22658-0.11739
  10  -1  -735885.16 2361.05   1 0.40996 0.34979-0.89582 0.78235 0.17153-0.51532
 -10   1   728215.46 1843.26   1-0.20197-0.55808-0.59305 0.70655 0.77941-0.43511
 -10  -1   738533.83 2539.83   1-0.00121-0.75955-0.50677 0.39322 0.86207-0.51813
  10   1  -6 7218.78 1223.24   1 0.48863 0.27306-0.84522 0.95878-0.21637-0.07846
  10  -1  -6 8604.09  820.61   1 0.39669 0.36488-0.89235 0.77888 0.21526-0.51009
 -10   1   6 6603.10 1127.88   1-0.24386-0.51758-0.60734 0.72084 0.75608-0.46096
 -10  -1   6 5685.48 1303.88   1-0.03943-0.72265-0.52523 0.41167 0.85004-0.55523
  10  -1  -5  147.00  224.87   1 0.38157 0.38138-0.88678 0.77331 0.26079-0.50649
 -10  -1   5  461.50  187.23   1-0.07926-0.68358-0.54393 0.43043 0.83537-0.58944
  10  -1  -5  373.51  205.21   1 0.28720 0.47539 0.62198-0.73545-0.72845 0.48280
  10  -1  -416651.31 1208.73   1 0.36467 0.39968-0.87867 0.76519 0.30814-0.50470
  10  -1  -414024.72  995.12   1 0.64221 0.12053 0.33887-0.45220 0.68754-0.88373
 -10  -1   413589.61 1647.65   1-0.12179-0.64244-0.56214 0.44864 0.81801-0.62127
  10  -1  -415648.70 1100.06   1 0.32971 0.43425 0.63348-0.74695-0.69998 0.50347
  10  -1  -3 1740.29  364.67   1 0.34571 0.42002-0.86759 0.75411 0.35744-0.50486
 -10  -1   3  937.68  293.44   1-0.41064-0.35543-0.70964 0.59606-0.57252 0.71998
  10  -1  -3 1722.67  357.13   1 0.59890 0.16566 0.43467-0.54810 0.67258-0.81983
 -10  -1   3 2110.67  460.62   1-0.16575-0.59987-0.57965 0.46615 0.79782-0.65026
  10  -1  -3 1616.75  363.50   1 0.37176 0.39356 0.64334-0.75681-0.66924 0.52186
  10  -1  -227614.29 1680.78   1 0.32443 0.44268-0.85303 0.73955 0.40875-0.50703
 -10  -1   227981.27 1676.48   1-0.35338-0.41402-0.76733 0.65375-0.53508 0.63338
  10  -1  -228706.93 1745.86   1 0.55719 0.20867 0.51080-0.62423 0.65468-0.75285
 -10  -1   226821.10 2338.10   1-0.21064-0.55638-0.59611 0.48261 0.77477-0.67640
  10  -1  -228486.17 1722.53   1 0.41286 0.35382 0.65141-0.76488-0.63654 0.53829
  10  -1  -111483.03  769.98   1 0.30055 0.46783-0.83394 0.72044 0.46281-0.51195
 -10  -1   110064.26 1739.74   1-0.30655-0.46142-0.80848 0.69495-0.50237 0.55148
  10  -1  -112111.35  837.21   1 0.51874 0.24843 0.57170-0.68512 0.63565-0.68474
 -10  -1   111455.93  818.57   1-0.25594-0.51247-0.61121 0.49771 0.74893-0.69975
  10  -1  -112808.02  863.57   1 0.45261 0.31544 0.65763-0.77109-0.60221 0.55308
  10  -1   0 1728.68  273.76   1 0.27375 0.49603-0.81051 0.69700 0.51781-0.51781
 -10  -1   0 1073.06  270.10   1-0.26945-0.49983-0.83729 0.72376-0.47574 0.47574
  10  -1   0 1243.55  246.07   1 0.49069 0.27872 0.66197-0.77543-0.56657 0.56657
  10   1   0 4335.66  694.14   1 0.30078 0.46863 0.62582-0.51235-0.71963 0.71963
  10  -1   121800.46 1318.07   1 0.24387 0.52729-0.78171 0.66821 0.57397-0.52483
 -10   1  -127892.31 1724.81   1-0.45446-0.31696-0.65892 0.77250-0.59939 0.55024
 -10  -1  -125624.80 1624.01   1-0.23988-0.53073-0.85813 0.74460-0.45393 0.40482
  10  -1   127115.38 1678.69   1 0.52683 0.24369 0.66471-0.77817-0.52971 0.57883
  10   1   131786.70 1987.24   1 0.34539 0.42539 0.63734-0.52388-0.68883 0.73796
  10  -1   2 7214.56 1161.63   1 0.21092 0.56164-0.74705 0.63355 0.63040-0.53213
 -10   1  -2 5338.57 1201.96   1-0.42818-0.34458-0.69007 0.80365-0.58348 0.48517
 -10  -1  -2 7841.72 1655.96   1-0.21659-0.55533-0.87328 0.75975-0.43641 0.33820
  10  -1   2 9776.91  790.74   1 0.56102 0.21085 0.66545-0.77891-0.49236 0.59062
  10   1   2 7301.66 1274.51   1 0.38905 0.38309 0.64693-0.53347-0.65582 0.75408
 -10   1  -3  355.12  184.99   1-0.17472-0.59873 0.70279-0.58939-0.68960 0.54233
 -10   1  -3  443.81  162.92   1-0.40583-0.36827-0.71483 0.82841-0.56947 0.42201
 -10  -1  -3  -16.27  219.01   1-0.19863-0.57461-0.88423 0.77070-0.42270 0.27538
  10  -1   3  618.43  356.36   1 0.59313 0.18009 0.66451-0.77798-0.45454 0.60192
  10   1   3  349.25  314.50   1 0.43141 0.34210 0.65452-0.54105-0.62087 0.76826
 -10   1  -4 8213.16 1512.56   1-0.38718-0.38826-0.73437 0.84795-0.55748 0.36086
 -10  -1  -4 9433.23 1623.62   1-0.18519-0.58936-0.89200 0.77847-0.41233 0.21590
  10  -1   4 9482.78  903.83   1 0.62314 0.15143 0.66202-0.77548-0.41642 0.61293
  10   1   4 8577.27  823.48   1 0.47218 0.30269 0.66006-0.54660-0.58425 0.78076
 -10   1  -5 1410.11  441.08   1-0.37195-0.40482-0.74959 0.86317-0.54749 0.30172
 -10  -1  -5  689.81  352.10   1-0.17566-0.60022-0.89732 0.78378-0.40491 0.15938
  10  -1   5 -287.85  287.02   1 0.65108 0.12484 0.65807-0.77154-0.37817 0.62380
  10   1   5 1715.15  509.86   1 0.51095 0.26497 0.66382-0.55036-0.54613 0.79176
 -10   1  -6 8883.31 1929.46   1-0.35989-0.41823-0.76122 0.87480-0.53945 0.24453
 -10  -1  -6 7993.26 1551.79   1-0.16950-0.60770-0.90065 0.78712-0.40010 0.10545
  10  -1   610732.14  932.04   1 0.67707 0.10063 0.65292-0.76642-0.33949 0.63440
  10   1   610079.85  896.72   1 0.54794 0.22933 0.66536-0.55190-0.50699 0.80175
 -10   1  -7 4458.63 1191.92   1-0.35071-0.42874-0.76981 0.88339-0.53328 0.18920
 -10  -1  -7 4725.03 1265.22   1-0.16628-0.61223-0.90237 0.78884-0.39758 0.05383
  10  -1   7 6352.26  772.52   1 0.70100 0.07804 0.64638-0.75987-0.30130 0.64536
  10   1   7 4808.03 1068.75   1 0.58285 0.19577 0.66500-0.55153-0.46696 0.81084
 -10  -1  -8  281.59  288.86   1-0.16567-0.61416-0.90269 0.78916-0.39710 0.00424
  10  -1   8  737.02  332.56   1 0.72304 0.05734 0.63866-0.75216-0.26326 0.65647
  10   1   8 1298.21  626.16   1 0.61561 0.16436 0.66281-0.54934-0.42625 0.81926
 -10   1  -9 3505.94  996.05   1-0.34008-0.44205-0.77949 0.89307-0.52604 0.08366
 -10  -1  -9 2302.78  612.33   1-0.16737-0.61379-0.90179 0.78826-0.39843-0.04353
  10  -1   9 1496.25  392.74   1 0.74327 0.03845 0.62986-0.74336-0.22542 0.66778
  10   1   9 3263.76  843.73   1 0.64621 0.13511 0.65889-0.54542-0.38505 0.82719
  10  -2  -9 3052.55  730.87   1 0.39787 0.35954-0.89271 0.66576 0.21156-0.65381
 -10  -2   9 2932.89  704.46   1 0.10971-0.86782-0.44763 0.22052 0.88746-0.44524
  10  -2  -816259.01 1668.42   1 0.38290 0.37590-0.88733 0.66039 0.25694-0.65005
 -10  -2   810627.32 1867.82   1 0.07999-0.83942-0.46429 0.23719 0.88205-0.48897
  10  -2  -7 8777.75  920.97   1 0.36644 0.39374-0.87960 0.65266 0.30332-0.64730
 -10  -2   7 6202.61  903.57   1 0.04739-0.80815-0.48188 0.25477 0.87495-0.53100
  10  -2  -614757.90 1317.10   1 0.34840 0.41317-0.86927 0.64232 0.35068-0.64552
 -10  -2   610280.09 1902.72   1 0.01208-0.77418-0.50012 0.27301 0.86587-0.57105
  10  -2  -5  769.02  363.50   1 0.32863 0.43433-0.85606 0.62911 0.39894-0.64464
  10  -2  -5 1131.68  320.71   1 0.71189 0.05004 0.11712-0.34385 0.69244-0.93768
 -10  -2   5  985.87  255.61   1-0.02570-0.73771-0.51871 0.29160 0.85456-0.60888
  10  -2  -4  649.23  307.00   1 0.30714 0.45707-0.83931 0.61230 0.44856-0.64510
  10  -2  -4  796.69  224.56   1 0.68459 0.07815 0.22093-0.44758 0.69463-0.89081
 -10  -2   4  821.15  238.20   1-0.06568-0.69905-0.53734 0.31023 0.84080-0.64426
  10  -2  -4 1004.08  276.79   1 0.49230 0.27166 0.66211-0.88904-0.56501 0.36849
  10  -2  -344605.26 3595.74   1 0.28360 0.48201-0.81940 0.59239 0.49814-0.64554
  10  -2  -346461.10 3747.69   1 0.65429 0.10972 0.30851-0.53516 0.69045-0.83758
 -10  -2   349959.39 8116.77   1-0.10698-0.65864-0.55594 0.32894 0.82430-0.67674
  10  -2  -347996.82 7782.95   1 0.52516 0.23997 0.66463-0.89156-0.53147 0.38409
  10  -2  -218291.72 1263.65   1 0.25807 0.50892-0.79573 0.56872 0.54790-0.64618
 -10  -2   219229.71 1349.60   1-0.22206-0.54459-0.86982 0.64276-0.44055 0.53877
  10  -2  -219869.43 1385.16   1 0.62325 0.14202 0.38272-0.60938 0.68195-0.78004
 -10  -2   219352.64 2080.05   1-0.15036-0.61665-0.57368 0.34668 0.80515-0.70678
  10  -2  -220732.98 1429.49   1 0.55635 0.21012 0.66544-0.89237-0.49764 0.39938
  10  -2  -1 1651.80  342.21   1 0.23058 0.53780-0.76807 0.54106 0.59739-0.64653
 -10  -2   1 1847.99  462.62   1-0.18080-0.58716-0.89447 0.66741-0.40892 0.45803
  10  -2  -1 1944.50  434.79   1 0.59334 0.17383 0.44555-0.67241 0.67038-0.71947
 -10  -2   1 2205.73  459.01   1-0.19475-0.57366-0.59045 0.36345 0.78322-0.73403
  10  -2  -1 2290.30  448.86   1 0.58587 0.18195 0.66487-0.89180-0.46334 0.41421
  10  -2   0  867.25  229.89   1 0.20122 0.56856-0.73632 0.50931 0.64601-0.64601
 -10  -2   0 1328.51  280.88   1-0.14945-0.61998-0.91097 0.68398-0.38442 0.38442
  10  -2   0 1436.85  399.85   1 0.56471 0.20376 0.49794-0.72479 0.65814-0.65814
 -10  -2   0 1712.66  432.56   1-0.23968-0.53012-0.60597 0.37897 0.75851-0.75851
  10  -2   0 1699.54  387.84   1 0.61366 0.15551 0.66299-0.88992-0.42877 0.42877
 -10   2  -1 5666.83  943.19   1-0.17058-0.60007 0.69786-0.47106-0.69562 0.64653
 -10  -2  -1 3103.98  735.09   1-0.12543-0.64533-0.92242 0.69543-0.36522 0.31609
  10  -2   1 3720.18  717.91   1 0.53833 0.23145 0.54163-0.76849 0.64561-0.59652
  10  -2   1 4466.94  795.26   1 0.63971 0.13081 0.65989-0.88681-0.39409 0.44321
  10   2   1 7710.68 1316.69   1 0.28406 0.48671 0.62108-0.39415-0.73045 0.77958
 -10   2  -218275.40 1512.33   1-0.13819-0.63386 0.65784-0.43104-0.74036 0.64219
 -10  -2  -220447.94 1842.98   1-0.10753-0.66456-0.93028 0.70328-0.35073 0.25247
  10  -2   221676.48 1851.99   1 0.51453 0.25655 0.57791-0.80476 0.63345-0.53528
  10  -2   219714.62 1651.91   1 0.66420 0.10815 0.65576-0.88276-0.35889 0.45719
  10   2   220720.73 1807.85   1 0.32873 0.44341 0.63323-0.40630-0.70067 0.79893
 -10   2  -313354.48 1137.51   1-0.10494-0.66851 0.61447-0.38767-0.78192 0.63466
 -10  -2  -317146.25 1562.35   1-0.09465-0.67877-0.93557 0.70857-0.34020 0.19281
  10  -2   317713.33 1528.14   1 0.49347 0.27893 0.60784-0.83469 0.62210-0.47484
  10  -2   317888.87 1517.30   1 0.68683 0.08685 0.65046-0.87745-0.32426 0.47171
  10   2   315411.90 1357.26   1 0.37267 0.40083 0.64354-0.41661-0.66855 0.81594
 -10   2  -4 2600.32  554.39   1-0.07145-0.70366 0.56886-0.34205-0.81931 0.62277
 -10   2  -4 3487.55  672.09   1-0.47586-0.29958-0.63180 0.85896-0.61186 0.41525
 -10  -2  -4 2759.30  735.65   1-0.08597-0.68879-0.93897 0.71198-0.33306 0.13654
  10  -2   4 3192.53  617.32   1 0.70787 0.06716 0.64416-0.87116-0.28977 0.48637
  10   2   4 4681.34  862.95   1 0.41554 0.35933 0.65188-0.42495-0.63432 0.83083
 -10   2  -5 2678.51  530.38   1-0.03824-0.73824 0.52118-0.29437-0.85258 0.60690
 -10   2  -5 2946.20  651.82   1-0.46032-0.31646-0.65166 0.87882-0.60285 0.35708
 -10  -2  -5 4570.94 1193.18   1-0.08084-0.69526-0.94092 0.71392-0.32882 0.08317
  10  -2   5 6969.03 1208.16   1 0.72735 0.04901 0.63694-0.86393-0.25545 0.50120
  10   2   5 3057.69  629.83   1 0.45703 0.31920 0.65821-0.43128-0.59821 0.84386
 -10   2  -6 2500.37  709.24   1-0.00604-0.77183 0.47295-0.24614-0.88106 0.58625
 -10   2  -6 3473.06  791.04   1-0.44740-0.33072-0.66752 0.89468-0.59517 0.30025
 -10  -2  -6 3795.94 1041.33   1-0.07875-0.69867-0.94170 0.71470-0.32709 0.03232
  10  -2   6 4954.44 1071.74   1 0.74536 0.03234 0.62884-0.85584-0.22131 0.51622
  10   2   6 3630.03  824.38   1 0.49668 0.28059 0.66275-0.43582-0.56041 0.85517
 -10   2  -7 2230.55  715.29   1-0.43697-0.34248-0.67991 0.90706-0.58887 0.24480
 -10  -2  -7 2195.75  593.17   1-0.07932-0.69944-0.94149 0.71449-0.32756-0.01634
  10  -2   7 4273.31  975.71   1 0.76195 0.01709 0.61992-0.84692-0.18738 0.53144
  10   2   7 3058.99  788.95   1 0.53474 0.24388 0.66503-0.43810-0.52132 0.86520
 -10   2  -8 3408.90  764.58   1-0.42890-0.35189-0.68924 0.91640-0.58392 0.19070
 -10  -2  -8 4651.17 1193.99   1-0.08220-0.69789-0.94041 0.71341-0.32995-0.06308
  10  -2   8 6050.38  702.09   1 0.77719 0.00320 0.61021-0.83721-0.15365 0.54686
  10   2   8 2784.34  636.53   1 0.57085 0.20912 0.66534-0.43841-0.48109 0.87410
  10  -3  -8 2867.80  621.33   1 0.34874 0.41005-0.86948 0.52907 0.34980-0.74292
 -10  -3   8 2322.80  617.18   1 0.10335-0.86279-0.45124 0.11058 0.88639-0.49331
  10  -3  -7 9627.78  845.50   1 0.32975 0.43043-0.85686 0.51644 0.39629-0.74027
 -10  -3   7 8057.01 1273.98   1 0.07331-0.83407-0.46795 0.12729 0.88070-0.53675
  10  -3  -6 5951.75  565.62   1 0.30946 0.45197-0.84116 0.50065 0.44347-0.73828
 -10  -3   6 5482.27  868.92   1 0.04063-0.80272-0.48544 0.14478 0.87332-0.57851
  10  -3  -512501.34 1322.51   1 0.28752 0.47530-0.82285 0.48234 0.49014-0.73581
  10  -3  -510969.79 1125.74   1 0.72898 0.03295 0.02802-0.36811 0.68395-0.92919
 -10  -3   5 8905.43 1760.34   1 0.00545-0.76887-0.50345 0.16279 0.86400-0.61832
  10  -3  -4 9823.71  924.24   1 0.26410 0.50012-0.80150 0.46098 0.53651-0.73305
  10  -3  -410363.26  956.71   1 0.71218 0.05100 0.11582-0.45591 0.69236-0.88855
 -10  -3   4 9662.75 1507.31   1-0.03200-0.73274-0.52171 0.18105 0.85251-0.65597
  10  -3  -3  530.03  311.79   1 0.23923 0.52637-0.77701 0.43649 0.58225-0.72965
  10  -3  -3  406.10  267.07   1 0.69235 0.07166 0.19492-0.53490 0.69472-0.84186
 -10  -3   3  188.19  200.51   1-0.07089-0.69473-0.54020 0.19970 0.83854-0.69098
  10  -3  -2 4491.11  801.10   1 0.21303 0.55397-0.74935 0.40884 0.62696-0.72523
 -10  -3   2 2713.80  835.73   1-0.09294-0.67383-0.93625 0.59576-0.33879 0.43705
  10  -3  -2 5927.30 1085.36   1 0.67055 0.09473 0.26388-0.60387 0.69334-0.79143
 -10  -3   2 4312.19  959.07   1-0.11218-0.65483-0.55814 0.21764 0.82212-0.72375
 -10   3   111865.07  875.74   1-0.18639-0.58148 0.71653-0.37634-0.67218 0.72127
 -10  -3   111468.79 1063.35   1-0.06077-0.70733-0.94809 0.60759-0.31212 0.36125
  10  -3  -112212.31  943.55   1 0.64813 0.11841 0.32424-0.66423 0.68904-0.73808
 -10  -3   110897.18 1565.79   1-0.15483-0.61358-0.57543 0.23493 0.80305-0.75386
 -10   3   019611.15 1330.30   1-0.15800-0.61127 0.68258-0.34238-0.71352 0.71352
 -10  -3   017565.18 1585.98   1-0.03717-0.73226-0.95562 0.61512-0.29224 0.29224
  10  -3   018357.55 1316.99   1 0.62597 0.14184 0.37669-0.71667 0.68282-0.68282
 -10  -3   016374.35 2108.55   1-0.19845-0.57136-0.59179 0.25128 0.78128-0.78128
  10  -3   018307.78 1250.25   1 0.73957 0.03011 0.63161-0.97211-0.23258 0.23258
 -10   3  -1 7489.71 1662.48   1-0.12891-0.64175 0.64596-0.30577-0.75240 0.70331
 -10  -3  -112169.16 1190.71   1-0.02017-0.75059-0.96044 0.61994-0.27775 0.22862
  10  -3   114091.90 1109.22   1 0.60520 0.16458 0.42206-0.76234 0.67497-0.62589
 -10  -3  -114359.96 1126.88   1-0.24263-0.52857-0.60693 0.26643 0.75680-0.80599
  10  -3   115500.10 1098.96   1 0.75180 0.01921 0.62556-0.96605-0.20845 0.25760
 -10   3  -2  187.31  225.10   1-0.09946-0.67260 0.60710-0.26691-0.78836 0.69019
 -10  -3  -2  395.76  322.34   1-0.00843-0.76367-0.96347 0.62297-0.26766 0.16940
  10  -3   2  704.80  354.09   1 0.58531 0.18578 0.46083-0.80111 0.66711-0.56893
  10  -3   2  583.03  386.05   1 0.76370 0.00865 0.61889-0.95938-0.18365 0.28196
  10   3   2  -58.05  347.40   1 0.28608 0.48606 0.62166-0.28127-0.72916 0.82742
 -10   3  -3 4288.43 1229.29   1-0.07006-0.70367 0.56691-0.22669-0.82079 0.67338
 -10  -3  -3 3987.49 1249.26   1-0.00098-0.77245-0.96527 0.62478-0.26123 0.11384
  10  -3   3 5730.29 1266.47   1 0.56707 0.20532 0.49383-0.83411 0.65920-0.51194
  10  -3   3 5886.74  652.29   1 0.77515-0.00145 0.61160-0.95210-0.15832 0.30577
  10   3   3 7404.08  888.44   1 0.33018 0.44333 0.63360-0.29321-0.69965 0.84704
 -10   3  -4 1312.04  372.34   1-0.04106-0.73405 0.52530-0.18509-0.84992 0.65337
 -10  -3  -4  953.59  381.09   1 0.00289-0.77766-0.96617 0.62567-0.25787 0.06135
  10  -3   4 1968.51  540.51   1 0.55067 0.22302 0.52168-0.86197 0.65160-0.45526
  10  -3   4 1833.90  506.16   1 0.78595-0.01124 0.60389-0.94422-0.13259 0.32912
 -10   3  -5 3825.31 1094.56   1-0.01290-0.76359 0.48339-0.14317-0.87530 0.62962
 -10  -3  -5 3109.05 1094.10   1 0.00373-0.77984-0.96636 0.62587-0.25714 0.01149
  10  -3   5 4633.84 1037.59   1 0.53622 0.23878 0.54496-0.88525 0.64456-0.39913
  10  -3   5 4126.81  937.57   1 0.79633-0.02029 0.59541-0.93574-0.10644 0.35210
  10   3   5 5392.85  716.48   1 0.41625 0.35998 0.65201-0.31161-0.63373 0.87937
 -10   3  -6 9800.59 1510.90   1 0.01402-0.79189 0.44192-0.10170-0.89694 0.60212
 -10  -3  -612200.49 2174.85   1 0.00197-0.77941-0.96596 0.62546-0.25867-0.03610
  10  -3   614093.15 1218.46   1 0.52376 0.25255 0.56418-0.90446 0.63825-0.34374
  10  -3   613219.81 1083.60   1 0.80610-0.02873 0.58634-0.92667-0.07998 0.37477
  10   3   611730.35 1062.60   1 0.45759 0.32001 0.65829-0.31789-0.59771 0.89248
 -10  -3  -7 1845.60  511.10   1-0.00205-0.77671-0.96502 0.62452-0.26216-0.08174
  10  -3   7 2308.94  599.64   1 0.51327 0.26435 0.57976-0.92004 0.63279-0.28918
  10  -3   7 3442.23  751.97   1 0.81522-0.03653 0.57669-0.91701-0.05325 0.39717
  10   3   7 2349.28  599.68   1 0.49719 0.28143 0.66279-0.32240-0.55991 0.90379
  10  -4  -5 4015.11  652.85   1 0.25847 0.50435-0.79611 0.34209 0.54716-0.79284
  10  -4  -5 5801.81  797.22   1 0.73933 0.02261-0.05388-0.39956 0.67118-0.91642
 -10  -4   5 3003.40  731.07   1 0.01847-0.78189-0.49688 0.04266 0.86762-0.62194
  10  -4  -4 9611.79 1166.64   1 0.23494 0.52928-0.77260 0.31857 0.58982-0.78636
  10  -4  -4 9653.56 1208.89   1 0.72998 0.03321 0.02162-0.47507 0.68312-0.87931
 -10  -4   4 7933.05 1461.48   1-0.01666-0.74808-0.51435 0.06014 0.85741-0.66087
  10  -4  -3 6927.40  622.06   1 0.21044 0.55517-0.74652 0.29250 0.63119-0.77860
  10  -4  -3 8103.84  730.27   1 0.71760 0.04683 0.09071-0.54417 0.69052-0.83766
 -10  -4   3 6298.31 1034.18   1-0.05386-0.71220-0.53194 0.07773 0.84506-0.69765
 -10   4   2 4827.09  909.58   1-0.18608-0.58040 0.71617-0.26258-0.67265 0.77083
  10  -4  -2 3076.94  668.77   1 0.70342 0.06186 0.15412-0.60744 0.69386-0.79195
 -10  -4   1 6930.67 1511.72   1 0.04136-0.80947-0.97367 0.51968-0.22416 0.27328
  10  -4  -110319.41  862.04   1 0.68778 0.07876 0.21045-0.66376 0.69473-0.74378
 -10   4   0 1363.61  494.71   1-0.13378-0.63548 0.65222-0.19863-0.74612 0.74612
 -10  -4   0 3205.92  623.04   1 0.05659-0.82660-0.97583 0.52169-0.21106 0.21106
  10  -4   0 5122.87 1052.79   1 0.67164 0.09617 0.26070-0.71402 0.69348-0.69348
 -10  -4   0 2838.42  651.13   1-0.17488-0.59493-0.58312 0.12912 0.79333-0.79333
 -10   4  -115298.44 2469.49   1-0.10726-0.66340 0.61757-0.16398-0.77916 0.73007
 -10  -4  -120386.88 1508.89   1 0.06721-0.83857-0.97716 0.52303-0.20155 0.15241
  10  -4   120722.90 1576.32   1 0.65555 0.11353 0.30521-0.75852 0.69071-0.64167
 -10  -4  -116698.17 2259.17   1-0.21761-0.55358-0.59854 0.14454 0.77096-0.82015
 -10   4  -2 4301.31 1050.73   1-0.08085-0.69120 0.58167-0.12808-0.80939 0.71121
 -10  -4  -2 7550.19  706.62   1 0.07358-0.84627-0.97787 0.52373-0.19583 0.09754
  10  -4   2 7483.74  803.50   1 0.63995 0.13040 0.34433-0.79765 0.68694-0.58885
 -10  -4  -2 7926.15  844.10   1-0.26086-0.51173-0.61276 0.15875 0.74597-0.84434
 -10   4  -3 2358.16  569.38   1-0.05484-0.71889 0.54528-0.09165-0.83645 0.68904
 -10  -4  -3 3833.45  581.75   1 0.07643-0.85046-0.97816 0.52403-0.19326 0.04582
  10  -4   3 3148.19  775.46   1 0.62518 0.14644 0.37846-0.83178 0.68257-0.53543
  10   4   3 1603.61  576.86   1 0.30317 0.47033 0.62648-0.17262-0.71805 0.86543
 -10   4  -4 3264.46  841.52   1-0.02950-0.74561 0.50829-0.05466-0.86068 0.66413
 -10  -4  -4 2686.94  689.54   1 0.07633-0.85169-0.97815 0.52402-0.19335-0.00322
  10  -4   4 3654.68  631.29   1 0.61207 0.16163 0.40790-0.86161 0.67748-0.48113
  10   4   4 3722.77  609.84   1 0.34635 0.42852 0.63757-0.18371-0.68814 0.88465
 -11   0   719723.70 2266.58   1-0.16002-0.67702-0.57745 0.57745 0.80058-0.45628
 -11   0   6 1381.22  305.91   1-0.19563-0.64280-0.59077 0.59077 0.78275-0.48763
 -11   0   526735.91 4358.87   1-0.23261-0.60721-0.60363 0.60363 0.76257-0.51664
  11   0  -3 4354.02  904.46   1 0.30906 0.53320 0.62808-0.62808-0.71412 0.56674
  11   0  -216384.12 1405.04   1 0.49996 0.34275 0.59881-0.59881 0.62566-0.72383
  11   0  -215946.94 1422.58   1 0.34748 0.49614 0.63784-0.63784-0.68731 0.58905
 -11   0   117731.21 1202.15   1-0.45931-0.38645-0.65293 0.65293-0.60225 0.65141
  11   0  -119826.97 1395.64   1 0.38564 0.45935 0.64625-0.64625-0.65851 0.60938
 -11   0   0  275.69  212.18   1-0.42355-0.42355-0.69533 0.69533-0.58061 0.58061
  11   0   0  442.61  372.44   1 0.42318 0.42318 0.65318-0.65318-0.62790 0.62790
 -11   0  -1 1307.25  402.08   1-0.39312-0.45531-0.72825 0.72825-0.56133 0.51217
  11   0   1 2275.46  591.91   1 0.45981 0.38791 0.65857-0.65857-0.59569 0.64482
 -11   0  -2 1694.29  616.38   1-0.36757-0.48220-0.75386 0.75386-0.54458 0.44628
  11   0   2 1961.71  551.85   1 0.49513 0.35366 0.66261-0.66261-0.56194 0.66019
 -11   0  -312705.07 1259.61   1-0.34644-0.50467-0.77374 0.77374-0.53037 0.38291
  11   0   312490.47 1133.54   1 0.52923 0.32090 0.66482-0.66482-0.52718 0.67455
 -11   0  -4 2664.09  754.24   1-0.32890-0.52259-0.78961 0.78961-0.51801 0.32158
  11   0   4 2854.52  719.36   1 0.56183 0.28966 0.66544-0.66544-0.49144 0.68795
 -11   0  -5 5754.65 1082.60   1-0.31533-0.53748-0.80120 0.80120-0.50855 0.26301
  11   0   5 6394.04  619.26   1 0.59282 0.26002 0.66453-0.66453-0.45492 0.70055
 -11   0  -6  141.45  191.90   1-0.30497-0.54916-0.80977 0.80977-0.50125 0.20661
  11   0   6  856.62  333.30   1 0.62211 0.23207 0.66214-0.66214-0.41777 0.71253
 -11   0  -7 3781.57  870.94   1-0.29750-0.55795-0.81579 0.81579-0.49595 0.15220
  11   0   7 4286.55  594.25   1 0.64968 0.20585 0.65831-0.65831-0.38016 0.72404
  11  -1  -7 6024.14  810.01   1 0.42449 0.41220-0.89737 0.78390 0.12052-0.46431
 -11  -1   7 3913.17  943.48   1-0.07969-0.75734-0.54412 0.43062 0.83521-0.49090
  11  -1  -610671.50  880.24   1 0.41338 0.42469-0.89640 0.78293 0.15991-0.45458
 -11  -1   6 7962.11 1392.51   1-0.11408-0.72435-0.55893 0.44543 0.82132-0.52620
  11  -1  -610034.37  774.41   1 0.31376 0.52441 0.62934-0.74281-0.71096 0.41619
  11  -1  -517481.39 1748.19   1 0.40142 0.43852-0.89372 0.78025 0.20028-0.44598
 -11  -1   511762.30 2020.79   1-0.15027-0.68955-0.57364 0.46014 0.80519-0.55926
  11  -1  -516637.91 1641.33   1 0.34880 0.49074 0.63815-0.75162-0.68636 0.44072
  11  -1  -4 6066.30  656.36   1 0.38790 0.45343-0.88932 0.77585 0.24212-0.43868
 -11  -1   4 4606.02 1282.08   1-0.18794-0.65328-0.58797 0.47447 0.78674-0.58999
  11  -1  -4 7530.09  819.59   1 0.38404 0.45686 0.64592-0.75939-0.65976 0.46324
 -11  -1   315718.42 1382.24   1-0.22670-0.61591-0.60164 0.48814 0.76591-0.61835
  11  -1  -316928.91 1454.68   1 0.41909 0.42317 0.65250-0.76596-0.63134 0.48396
  11  -1  -2 7634.76  714.78   1 0.57625 0.26647 0.47751-0.59094 0.66325-0.76143
 -11  -1   2 7302.09  769.83   1-0.26617-0.57783-0.61440 0.50090 0.74273-0.64435
  11  -1  -210064.30  953.29   1 0.45360 0.39003 0.65776-0.77122-0.60132 0.50306
 -11  -1   1 3413.85 1042.37   1-0.36129-0.48446-0.75989 0.64631-0.54039 0.58955
  11  -1  -1 5774.92 1223.26   1 0.54092 0.30310 0.53753-0.65095 0.64688-0.69597
  11  -1  -1 5775.35 1239.29   1 0.48725 0.35774 0.66164-0.77511-0.56991 0.52078
  11   1  -1 5211.01 1123.98   1 0.30568 0.53932 0.62716-0.51370-0.71639 0.66726
 -11  -1   0 4144.50 1241.68   1-0.32425-0.52197-0.79363 0.68010-0.51478 0.51478
  11  -1   0 6560.39  665.39   1 0.50891 0.33641 0.58608-0.69951 0.63048-0.63048
  11  -1   0 6492.80  699.97   1 0.51974 0.32635 0.66435-0.77782-0.53711 0.53711
  11   1   0 7573.73  834.13   1 0.34534 0.50101 0.63733-0.52386-0.68886 0.68886
 -11  -1  -1 4009.79 1286.83   1-0.29459-0.55294-0.81810 0.70457-0.49388 0.44477
  11  -1   1 5964.15  630.22   1 0.55102 0.29642 0.66540-0.77887-0.50358 0.55271
  11   1   1 5589.45 1235.60   1 0.38462 0.46310 0.64604-0.53257-0.65931 0.70844
 -11   1  -219301.44 1658.26   1-0.45643-0.39334-0.65649 0.77007-0.60056 0.50225
 -11  -1  -221264.59 1827.94   1-0.27069-0.57816-0.83638 0.72285-0.47664 0.37843
  11  -1   221748.88 1870.58   1 0.58089 0.26790 0.66507-0.77853-0.46929 0.56754
  11   1   221561.73 1875.77   1 0.42318 0.42590 0.65318-0.53972-0.62789 0.72615
 -11   1  -3 4781.63 1610.87   1-0.43510-0.41600-0.68209 0.79567-0.58773 0.44027
 -11  -1  -3 4063.12 1149.65   1-0.25174-0.59843-0.84999 0.73646-0.46274 0.31541
  11  -1   3 6524.75  794.74   1 0.60926 0.24088 0.66338-0.77685-0.43440 0.58178
  11   1   3 7695.96  853.79   1 0.46077 0.38968 0.65869-0.54523-0.59481 0.74220
 -11   1  -4  123.07  218.02   1-0.41709-0.43536-0.70255 0.81613-0.57658 0.37996
 -11  -1  -4  554.10  210.40   1-0.23707-0.61442-0.86002 0.74649-0.45183 0.25540
  11  -1   4  306.22  292.30   1 0.63608 0.21541 0.66040-0.77387-0.39907 0.59558
  11   1   4 1019.31  374.46   1 0.49694 0.35455 0.66277-0.54930-0.56016 0.75666
 -11   1  -5 3845.31 1001.26   1-0.40218-0.45161-0.71874 0.83232-0.56715 0.32138
 -11  -1  -5 5000.42 1111.12   1-0.22613-0.62667-0.86720 0.75367-0.44363 0.19809
  11  -1   5 6166.25  696.63   1 0.66143 0.19191 0.65632-0.76982-0.36296 0.60872
  11   1   5 4659.02  909.64   1 0.53190 0.32094 0.66492-0.55146-0.52435 0.76998
 -11   1  -6 1568.21  472.82   1-0.39016-0.46496-0.73131 0.84489-0.55941 0.26449
 -11  -1  -6 2397.21  589.45   1-0.21847-0.63565-0.87210 0.75857-0.43784 0.14319
  11  -1   6 1267.13  384.26   1 0.68505 0.16962 0.65093-0.76443-0.32708 0.62198
  11   1   6 2646.08  653.22   1 0.56531 0.28888 0.66542-0.55195-0.48747 0.78223
  11  -2  -6 6457.04  844.31   1 0.36834 0.47022-0.88058 0.65363 0.29815-0.59299
 -11  -2   6 4189.17 1102.80   1-0.06120-0.77789-0.53530 0.30819 0.84243-0.54762
  11  -2  -5 3479.07  677.26   1 0.35148 0.48847-0.87116 0.64421 0.34283-0.58853
 -11  -2   5 3391.65  850.71   1-0.09489-0.74493-0.55077 0.32377 0.82924-0.58330
  11  -2  -4 1984.49  401.47   1 0.33315 0.50818-0.85924 0.63230 0.38820-0.58475
  11  -2  -3 2992.87  581.68   1 0.31329 0.52942-0.84462 0.61767 0.43411-0.58153
  11  -2  -3 2563.63  505.28   1 0.66231 0.17848 0.28708-0.51373 0.69203-0.83917
 -11  -2   3 2801.79  598.39   1-0.16887-0.67374-0.58084 0.35384 0.79630-0.64874
  11  -2  -2 6742.98  745.86   1 0.29190 0.55207-0.82665 0.59964 0.48107-0.57934
  11  -2  -2 8495.99  908.83   1 0.63371 0.20835 0.35906-0.58571 0.68518-0.78327
 -11  -2   2 6312.49 1170.58   1-0.20772-0.63628-0.59508 0.36808 0.77635-0.67797
  11  -2  -2 8247.72  871.81   1 0.58242 0.26097 0.66501-0.89194-0.46747 0.36922
  11  -2  -1 1069.25  267.94   1 0.26882 0.57654-0.80594 0.57893 0.52742-0.57656
 -11  -2   1  853.19  297.64   1-0.25318-0.59171-0.84898 0.62192-0.46380 0.51291
 -11  -2   1 1623.07  445.01   1-0.24735-0.59804-0.60847 0.38147 0.75404-0.70485
  11  -2  -1 1671.26  439.95   1 0.60711 0.23763 0.66356-0.89049-0.43713 0.38801
  11  -2   0 4240.59  892.24   1 0.24416 0.60260-0.78200 0.55499 0.57346-0.57346
 -11  -2   0 3413.45  943.17   1-0.21979-0.62643-0.87127 0.64420-0.43883 0.43883
  11  -2   0 5900.05  689.55   1 0.57961 0.26572 0.47139-0.69825 0.66470-0.66470
  11  -2   0 6736.21  787.24   1 0.63079 0.21530 0.66111-0.88803-0.40624 0.40624
  11   2   0 9381.44 1147.80   1 0.28686 0.55950 0.62188-0.39495-0.72867 0.72867
 -11  -2  -1 3311.20  895.35   1-0.19366-0.65387-0.88714 0.66008-0.41888 0.36977
  11  -2   1 6100.76  744.16   1 0.55506 0.29157 0.51439-0.74124 0.65368-0.60459
  11  -2   1 4001.12  853.39   1 0.65337 0.19407 0.65767-0.88460-0.37491 0.42404
  11   2   1 5952.90  750.21   1 0.32694 0.52078 0.63278-0.40585-0.70191 0.75104
 -11  -2  -2 3187.89  767.01   1-0.17348-0.67537-0.89850 0.67144-0.40321 0.30500
  11  -2   2 4469.31  864.36   1 0.53280 0.31514 0.55032-0.77717 0.64285-0.54468
  11  -2   2 5375.59  528.42   1 0.67498 0.17434 0.65341-0.88041-0.34269 0.44099
  11   2   2 6238.00  649.95   1 0.36678 0.48230 0.64226-0.41533-0.67302 0.77128
 -11  -2  -3 3795.08 1021.68   1-0.15825-0.69192-0.90657 0.67950-0.39125 0.24393
  11  -2   3 5550.35  581.89   1 0.51297 0.33627 0.58019-0.80704 0.63263-0.48537
  11  -2   3 5203.03 1045.87   1 0.69522 0.15544 0.64812-0.87511-0.31080 0.45825
  11   2   3 5196.32 1026.54   1 0.40606 0.44438 0.65019-0.42326-0.64214 0.78953
 -11  -2  -4 2603.08  657.68   1-0.14739-0.70432-0.91200 0.68500-0.38279 0.18627
  11  -2   4 2931.40  654.40   1 0.49563 0.35492 0.60485-0.83171 0.62329-0.42695
  11  -2   4 2760.05  604.15   1 0.71428 0.13772 0.64194-0.86894-0.27875 0.47535
  11   2   4 2327.80  574.71   1 0.44450 0.40731 0.65649-0.42956-0.60944 0.80595
 -11  -2  -5 4015.76  896.31   1-0.13992-0.71312-0.91564 0.68865-0.37684 0.13119
  11  -2   5 5542.43  776.03   1 0.73216 0.12118 0.63492-0.86192-0.24659 0.49234
  11   2   5 7939.99 1143.14   1 0.48186 0.37131 0.66111-0.43418-0.57509 0.82073
  11  -3  -3 7580.80  953.43   1 0.26925 0.57333-0.80634 0.46583 0.52659-0.67400
  11  -3  -3 9203.96 1147.67   1 0.69647 0.14432 0.18031-0.52030 0.69456-0.84169
 -11  -3   3 6579.13 1344.47   1-0.13172-0.71088-0.56622 0.22572 0.81365-0.66609
  11  -3  -2 9559.93 1159.80   1 0.24633 0.59764-0.78417 0.44366 0.56954-0.66781
  11  -3  -2 9364.08 1155.77   1 0.67612 0.16594 0.24741-0.58740 0.69400-0.79209
 -11  -3   2 9035.95 1652.89   1-0.16924-0.67476-0.58098 0.24048 0.79612-0.69774
  11  -3  -1 2262.36  490.48   1 0.22235 0.62302-0.75939 0.41887 0.61145-0.66059
  11  -3  -1 2647.96  633.29   1 0.65520 0.18813 0.30612-0.64611 0.69064-0.73969
 -11  -3   1 1399.80  489.23   1-0.20783-0.63756-0.59512 0.25462 0.77628-0.72710
  11  -3   0  818.34  213.16   1 0.19744 0.64931-0.73208 0.39157 0.65196-0.65196
 -11  -3   0 1034.85  311.04   1-0.11952-0.72685-0.92508 0.58459-0.36045 0.36045
  11  -3   0  812.28  325.52   1 0.63451 0.21008 0.35719-0.69718 0.68541-0.68541
 -11  -3   0 1514.78  419.57   1-0.24720-0.59958-0.60842 0.26792 0.75412-0.75412
 -11   3  -1 2248.35  498.00   1-0.17239-0.67520 0.70001-0.35982-0.69300 0.64391
 -11  -3  -1  520.33  175.93   1-0.09861-0.74910-0.93397 0.59348-0.34344 0.29431
  11  -3   1 2006.07  499.64   1 0.61513 0.23150 0.40144-0.74172 0.67856-0.62947
  11   3   1 2316.69  628.59   1 0.28624 0.56148 0.62171-0.28131-0.72906 0.77819
 -11   3  -2 1527.08  388.33   1-0.14627-0.70271 0.66803-0.32784-0.72961 0.63143
  11  -3   2 1364.97  422.47   1 0.59650 0.25143 0.43940-0.77968 0.67164-0.57347
  11   3   2 2910.99  679.88   1 0.32615 0.52293 0.63258-0.29218-0.70246 0.80072
;
_shelx_hkl_checksum              91090
loop_
_space_group_symop_operation_xyz
'x, y, z'
'-x, y+1/2, -z'
loop_
_atom_site_label
_atom_site_type_symbol
_atom_site_fract_x
_atom_site_fract_y
_atom_site_fract_z
_atom_site_U_iso_or_equiv
_atom_site_adp_type
_atom_site_occupancy
_atom_site_site_symmetry_order
_atom_site_calc_flag
_atom_site_refinement_flags_posn
Br1 Br 0.12585(4) 0.48023(7) 0.92475(2) 0.03705(12) Uani 1 1 d .
Cl1 Cl -0.16942(10) 0.75811(18) 0.72938(7) 0.0389(2) Uani 1 1 d .
S1 S 0.36629(9) 0.41473(12) 0.69599(5) 0.02137(17) Uani 1 1 d .
O1 O 0.5719(3) 0.6320(4) 0.90914(16) 0.0247(5) Uani 1 1 d .
O2 O 0.5680(3) 0.3136(4) 0.84436(18) 0.0308(6) Uani 1 1 d .
O3 O 0.2604(3) 0.5391(4) 0.64585(16) 0.0268(5) Uani 1 1 d .
O4 O 0.3325(3) 0.1995(4) 0.71821(17) 0.0292(5) Uani 1 1 d .
N1 N 0.3992(3) 0.5567(4) 0.79385(18) 0.0204(5) Uani 1 1 d .
C1 C 0.3063(3) 0.7464(5) 0.8125(2) 0.0192(6) Uani 1 1 d .
H1 H 0.3111 0.8397 0.7584 0.023 Uiso 1 1 calc R
C2 C 0.1472(3) 0.6894(5) 0.8239(2) 0.0216(6) Uani 1 1 d .
H2 H 0.1109 0.6239 0.7664 0.026 Uiso 1 1 calc R
C3 C 0.0584(4) 0.8878(6) 0.8416(3) 0.0289(8) Uani 1 1 d .
H3A H 0.0814 0.9940 0.7955 0.035 Uiso 1 1 calc R
H3B H 0.0878 0.9452 0.9013 0.035 Uiso 1 1 calc R
C4 C -0.1047(4) 0.8553(7) 0.8400(3) 0.0341(9) Uani 1 1 d .
H4A H -0.1519 0.9897 0.8534 0.041 Uiso 1 1 calc R
H4B H -0.1297 0.7538 0.8875 0.041 Uiso 1 1 calc R
C5 C 0.3702(3) 0.8715(5) 0.8941(2) 0.0230(7) Uani 1 1 d .
H5A H 0.3418 1.0203 0.8893 0.028 Uiso 1 1 calc R
H5B H 0.3338 0.8148 0.9512 0.028 Uiso 1 1 calc R
C6 C 0.5321(4) 0.8537(5) 0.8945(2) 0.0239(7) Uani 1 1 d .
H6A H 0.5683 0.9033 0.8362 0.029 Uiso 1 1 calc R
H6B H 0.5742 0.9416 0.9434 0.029 Uiso 1 1 calc R
C7 C 0.5164(3) 0.4885(7) 0.8498(2) 0.0226(6) Uani 1 1 d .
C8 C 0.5283(3) 0.4243(5) 0.6354(2) 0.0203(6) Uani 1 1 d .
C9 C 0.5556(4) 0.6035(6) 0.5825(2) 0.0254(7) Uani 1 1 d .
H9 H 0.4920 0.7187 0.5822 0.030 Uiso 1 1 calc R
C10 C 0.6781(4) 0.6094(6) 0.5301(2) 0.0275(7) Uani 1 1 d .
H10 H 0.6980 0.7307 0.4956 0.033 Uiso 1 1 calc R
C11 C 0.7721(4) 0.4365(6) 0.5282(2) 0.0272(8) Uani 1 1 d .
C12 C 0.7432(4) 0.2578(6) 0.5821(3) 0.0305(8) Uani 1 1 d .
H12 H 0.8064 0.1422 0.5819 0.037 Uiso 1 1 calc R
C13 C 0.6216(4) 0.2500(6) 0.6363(2) 0.0265(7) Uani 1 1 d .
H13 H 0.6030 0.1307 0.6723 0.032 Uiso 1 1 calc R
C14 C 0.9037(4) 0.4413(8) 0.4682(3) 0.0393(10) Uani 1 1 d .
H14A H 0.8950 0.5577 0.4253 0.059 Uiso 1 1 calc GR
H14B H 0.9100 0.3092 0.4349 0.059 Uiso 1 1 calc GR
H14C H 0.9893 0.4599 0.5063 0.059 Uiso 1 1 calc GR
loop_
_atom_site_aniso_label
_atom_site_aniso_U_11
_atom_site_aniso_U_22
_atom_site_aniso_U_33
_atom_site_aniso_U_23
_atom_site_aniso_U_13
_atom_site_aniso_U_12
Br1 0.0399(2) 0.0407(2) 0.03087(18) 0.00923(17) 0.00731(14) -0.01026(18)
Cl1 0.0292(5) 0.0562(6) 0.0310(5) -0.0105(4) -0.0060(4) 0.0001(4)
S1 0.0245(4) 0.0219(4) 0.0178(3) -0.0027(3) 0.0022(3) -0.0015(3)
O1 0.0280(12) 0.0229(12) 0.0230(12) -0.0014(9) -0.0061(10) 0.0026(10)
O2 0.0367(14) 0.0210(12) 0.0346(14) 0.0001(11) -0.0044(11) 0.0044(11)
O3 0.0254(12) 0.0350(14) 0.0198(11) -0.0034(9) -0.0026(9) 0.0024(10)
O4 0.0377(14) 0.0224(12) 0.0278(13) -0.0042(10) 0.0076(11) -0.0084(10)
N1 0.0224(13) 0.0229(13) 0.0160(12) -0.0017(10) -0.0002(10) 0.0014(11)
C1 0.0209(15) 0.0178(15) 0.0189(14) 0.0001(12) 0.0008(12) 0.0000(12)
C2 0.0230(16) 0.0248(16) 0.0171(14) 0.0000(12) 0.0037(12) -0.0043(13)
C3 0.0235(16) 0.0326(19) 0.0305(18) -0.0066(15) 0.0025(14) 0.0019(15)
C4 0.0251(18) 0.048(2) 0.0289(18) -0.0124(17) 0.0007(14) 0.0003(16)
C5 0.0224(16) 0.0247(17) 0.0218(15) -0.0049(12) 0.0010(12) -0.0026(13)
C6 0.0236(16) 0.0207(16) 0.0274(16) -0.0027(13) -0.0001(13) -0.0020(13)
C7 0.0248(15) 0.0240(15) 0.0191(13) 0.0047(14) 0.0009(11) -0.0016(15)
C8 0.0223(15) 0.0213(16) 0.0173(13) -0.0017(11) 0.0004(11) 0.0003(12)
C9 0.0265(18) 0.0261(17) 0.0235(17) 0.0030(13) -0.0012(14) 0.0011(14)
C10 0.0292(18) 0.0320(19) 0.0212(16) 0.0044(14) 0.0002(14) -0.0045(15)
C11 0.0264(16) 0.032(2) 0.0227(15) -0.0043(13) 0.0021(13) -0.0034(14)
C12 0.0271(18) 0.0272(18) 0.037(2) -0.0012(15) 0.0051(15) 0.0040(15)
C13 0.0327(18) 0.0206(16) 0.0266(17) 0.0013(13) 0.0059(14) 0.0015(14)
C14 0.0306(18) 0.049(3) 0.039(2) -0.0028(19) 0.0108(15) -0.0076(18)
loop_
_atom_type_symbol
_atom_type_description
_atom_type_scat_dispersion_real
_atom_type_scat_dispersion_imag
_atom_type_scat_source
C C 0.0033 0.0016 'International Tables Vol C Tables 4.2.6.8 and 6.1.1.4'
H H 0.0000 0.0000 'International Tables Vol C Tables 4.2.6.8 and 6.1.1.4'
Br Br -0.2901 2.4595 'International Tables Vol C Tables 4.2.6.8 and 6.1.1.4'
Cl Cl 0.1484 0.1585 'International Tables Vol C Tables 4.2.6.8 and 6.1.1.4'
N N 0.0061 0.0033 'International Tables Vol C Tables 4.2.6.8 and 6.1.1.4'
O O 0.0106 0.0060 'International Tables Vol C Tables 4.2.6.8 and 6.1.1.4'
S S 0.1246 0.1234 'International Tables Vol C Tables 4.2.6.8 and 6.1.1.4'
loop_
_geom_angle_atom_site_label_1
_geom_angle_atom_site_label_2
_geom_angle_atom_site_label_3
_geom_angle
O3 S1 N1 104.15(14)
O3 S1 C8 107.88(15)
O4 S1 O3 118.59(16)
O4 S1 N1 110.03(15)
O4 S1 C8 109.95(15)
N1 S1 C8 105.35(14)
C7 O1 C6 117.3(3)
C1 N1 S1 118.5(2)
C7 N1 S1 116.3(2)
C7 N1 C1 125.1(3)
N1 C1 C2 113.2(3)
N1 C1 C5 109.6(2)
C5 C1 C2 112.9(3)
C1 C2 Br1 110.5(2)
C3 C2 Br1 110.6(2)
C3 C2 C1 110.7(3)
C2 C3 C4 115.4(3)
C3 C4 Cl1 111.3(3)
C6 C5 C1 109.3(3)
O1 C6 C5 108.7(3)
O1 C7 N1 116.4(3)
O2 C7 O1 120.8(3)
O2 C7 N1 122.8(3)
C9 C8 S1 118.4(2)
C9 C8 C13 121.2(3)
C13 C8 S1 120.4(2)
C10 C9 C8 119.4(3)
C9 C10 C11 120.8(3)
C10 C11 C12 119.0(3)
C10 C11 C14 120.5(3)
C12 C11 C14 120.5(3)
C13 C12 C11 121.0(3)
C12 C13 C8 118.6(3)
loop_
_geom_bond_atom_site_label_1
_geom_bond_atom_site_label_2
_geom_bond_distance
Br1 C2 1.978(3)
Cl1 C4 1.802(4)
S1 O3 1.433(2)
S1 O4 1.422(3)
S1 N1 1.695(3)
S1 C8 1.757(3)
O1 C6 1.451(4)
O1 C7 1.336(4)
O2 C7 1.198(5)
N1 C1 1.495(4)
N1 C7 1.403(4)
C1 C2 1.527(4)
C1 C5 1.525(4)
C2 C3 1.515(5)
C3 C4 1.521(5)
C5 C6 1.499(5)
C8 C9 1.387(5)
C8 C13 1.391(4)
C9 C10 1.381(5)
C10 C11 1.389(5)
C11 C12 1.395(5)
C11 C14 1.514(5)
C12 C13 1.389(5)
loop_
_geom_torsion_atom_site_label_1
_geom_torsion_atom_site_label_2
_geom_torsion_atom_site_label_3
_geom_torsion_atom_site_label_4
_geom_torsion
Br1 C2 C3 C4 -65.8(4)
S1 N1 C1 C2 62.7(3)
S1 N1 C1 C5 -170.3(2)
S1 N1 C7 O1 159.3(2)
S1 N1 C7 O2 -18.9(4)
S1 C8 C9 C10 -176.3(3)
S1 C8 C13 C12 175.3(3)
O3 S1 N1 C1 7.7(3)
O3 S1 N1 C7 -170.3(2)
O3 S1 C8 C9 28.7(3)
O3 S1 C8 C13 -147.2(3)
O4 S1 N1 C1 -120.4(2)
O4 S1 N1 C7 61.6(3)
O4 S1 C8 C9 159.4(3)
O4 S1 C8 C13 -16.5(3)
N1 S1 C8 C9 -82.1(3)
N1 S1 C8 C13 102.1(3)
N1 C1 C2 Br1 57.6(3)
N1 C1 C2 C3 -179.4(3)
N1 C1 C5 C6 32.9(4)
C1 N1 C7 O1 -18.5(4)
C1 N1 C7 O2 163.3(3)
C1 C2 C3 C4 171.3(3)
C1 C5 C6 O1 -64.0(3)
C2 C1 C5 C6 160.1(3)
C2 C3 C4 Cl1 -60.4(4)
C5 C1 C2 Br1 -67.7(3)
C5 C1 C2 C3 55.3(3)
C6 O1 C7 O2 163.2(3)
C6 O1 C7 N1 -15.1(4)
C7 O1 C6 C5 56.5(4)
C7 N1 C1 C2 -119.6(3)
C7 N1 C1 C5 7.5(4)
C8 S1 N1 C1 121.1(2)
C8 S1 N1 C7 -56.8(3)
C8 C9 C10 C11 1.5(5)
C9 C8 C13 C12 -0.4(5)
C9 C10 C11 C12 -1.8(5)
C9 C10 C11 C14 178.0(3)
C10 C11 C12 C13 0.9(5)
C11 C12 C13 C8 0.2(5)
C13 C8 C9 C10 -0.4(5)
C14 C11 C12 C13 -178.9(3)
