#------------------------------------------------------------------------------
#$Date: 2019-11-24 16:28:25 +0200 (Sun, 24 Nov 2019) $
#$Revision: 238567 $
#$URL: file:///home/coder/svn-repositories/cod/cif/1/55/53/1555370.cif $
#------------------------------------------------------------------------------
#
# This file is available in the Crystallography Open Database (COD),
# http://www.crystallography.net/
#
# All data on this site have been placed in the public domain by the
# contributors.
#
data_1555370
loop_
_publ_author_name
'Yang, Chunfang'
'Huang, Chunshuai'
'Zhang, Wenjun'
'Zhu, Yiguang'
'Zhang, Changsheng'
_publ_section_title
;
 Heterologous Expression of Fluostatin Gene Cluster Leads to a Bioactive
 Heterodimer.
;
_journal_issue                   21
_journal_name_full               'Organic letters'
_journal_page_first              5324
_journal_page_last               5327
_journal_paper_doi               10.1021/acs.orglett.5b02683
_journal_volume                  17
_journal_year                    2015
_chemical_absolute_configuration ad
_chemical_formula_moiety         'C19 H16 O5'
_chemical_formula_sum            'C19 H16 O5'
_chemical_formula_weight         324.32
_space_group_crystal_system      monoclinic
_space_group_IT_number           4
_space_group_name_Hall           'P 2yb'
_space_group_name_H-M_alt        'P 1 21 1'
_atom_sites_solution_hydrogens   mixed
_audit_creation_method           SHELXL-2014/7
_cell_angle_alpha                90
_cell_angle_beta                 96.806(4)
_cell_angle_gamma                90
_cell_formula_units_Z            2
_cell_length_a                   7.0727(2)
_cell_length_b                   8.9761(8)
_cell_length_c                   11.4306(5)
_cell_measurement_reflns_used    3723
_cell_measurement_temperature    150(2)
_cell_measurement_theta_max      66.8240
_cell_measurement_theta_min      3.8800
_cell_volume                     720.56(7)
_computing_cell_refinement
; 
CrysAlisPro, Agilent Technologies,
Version 1.171.37.34 (release 22-05-2014 CrysAlis171 .NET)
;
_computing_data_collection
; 
CrysAlisPro, Agilent Technologies,
Version 1.171.37.34 (release 22-05-2014 CrysAlis171 .NET)
;
_computing_data_reduction
; 
CrysAlisPro, Agilent Technologies,
Version 1.171.37.34 (release 22-05-2014 CrysAlis171 .NET)
;
_computing_molecular_graphics    'SHELXTL (Bruker, 2005)'
_computing_publication_material  SHELXTL
_computing_structure_refinement  'SHELXL-2014/7 (Sheldrick, 2014)'
_computing_structure_solution    'SHELXT-2013/2 (Sheldrick, 2014)'
_diffrn_ambient_temperature      150(2)
_diffrn_detector_area_resol_mean 10.5058
_diffrn_measured_fraction_theta_full 0.993
_diffrn_measured_fraction_theta_max 0.993
_diffrn_measurement_device_type  'Xcalibur, Atlas, Gemini ultra'
_diffrn_measurement_method       '\w scans'
_diffrn_radiation_type           CuK\a
_diffrn_radiation_wavelength     1.54178
_diffrn_reflns_av_R_equivalents  0.0227
_diffrn_reflns_av_unetI/netI     0.0227
_diffrn_reflns_Laue_measured_fraction_full 0.993
_diffrn_reflns_Laue_measured_fraction_max 0.993
_diffrn_reflns_limit_h_max       8
_diffrn_reflns_limit_h_min       -8
_diffrn_reflns_limit_k_max       10
_diffrn_reflns_limit_k_min       -10
_diffrn_reflns_limit_l_max       13
_diffrn_reflns_limit_l_min       -12
_diffrn_reflns_number            5884
_diffrn_reflns_point_group_measured_fraction_full 0.954
_diffrn_reflns_point_group_measured_fraction_max 0.954
_diffrn_reflns_theta_full        66.838
_diffrn_reflns_theta_max         66.838
_diffrn_reflns_theta_min         3.895
_diffrn_source                   'sealed X-ray tube'
_exptl_absorpt_coefficient_mu    0.899
_exptl_absorpt_correction_T_max  1.00000
_exptl_absorpt_correction_T_min  0.32343
_exptl_absorpt_correction_type   multi-scan
_exptl_absorpt_process_details
; 
'Wed Apr 01 17:05:36 2015' 
;
_exptl_crystal_colour            yellow
_exptl_crystal_density_diffrn    1.495
_exptl_crystal_description       block
_exptl_crystal_F_000             340
_exptl_crystal_size_max          0.420
_exptl_crystal_size_mid          0.380
_exptl_crystal_size_min          0.180
_refine_diff_density_max         0.197
_refine_diff_density_min         -0.247
_refine_diff_density_rms         0.070
_refine_ls_abs_structure_details
; 
 Flack x determined using 1000 quotients [(I+)-(I-)]/[(I+)+(I-)] 
 (Parsons, Flack and Wagner, Acta Cryst. B69 (2013) 249-259). 
;
_refine_ls_abs_structure_Flack   -0.07(9)
_refine_ls_extinction_method     none
_refine_ls_goodness_of_fit_ref   1.087
_refine_ls_hydrogen_treatment    mixed
_refine_ls_matrix_type           full
_refine_ls_number_parameters     227
_refine_ls_number_reflns         2442
_refine_ls_number_restraints     1
_refine_ls_restrained_S_all      1.087
_refine_ls_R_factor_all          0.0320
_refine_ls_R_factor_gt           0.0303
_refine_ls_shift/su_max          0.000
_refine_ls_shift/su_mean         0.000
_refine_ls_structure_factor_coef Fsqd
_refine_ls_weighting_details
'w=1/[\s^2^(Fo^2^)+(0.0520P)^2^+0.0129P] where P=(Fo^2^+2Fc^2^)/3'
_refine_ls_weighting_scheme      calc
_refine_ls_wR_factor_gt          0.0772
_refine_ls_wR_factor_ref         0.0791
_reflns_Friedel_coverage         0.796
_reflns_Friedel_fraction_full    0.908
_reflns_Friedel_fraction_max     0.908
_reflns_number_gt                2350
_reflns_number_total             2442
_reflns_threshold_expression     'I > 2\s(I)'
_cod_data_source_file            ol5b02683_si_002.cif
_cod_data_source_block           04016A
_cod_original_sg_symbol_H-M      'P 21'
_cod_database_code               1555370
_shelx_shelxl_version_number     2014/7
_shelx_space_group_comment
; 
The symmetry employed for this shelxl refinement is uniquely defined 
by the following loop, which should always be used as a source of 
symmetry information in preference to the above space-group names. 
They are only intended as comments. 
;
_shelx_estimated_absorpt_t_min   0.704
_shelx_estimated_absorpt_t_max   0.855
_shelx_res_file
; 
  
    04016A.res created by SHELXL-2014/7 
  
TITL 04016A in P2(1) 
CELL 1.54178 7.0727 8.9761 11.4306 90 96.806 90 
ZERR 2 0.0002 0.0008 0.0005 0 0.004 0 
LATT -1 
SYMM -X,0.5+Y,-Z 
SFAC C  H  O 
UNIT 38 32 10 
L.S. 4 
ACTA 
bond $h 
FMAP 2 
PLAN 2 
HTAB O8 O7 
HTAB O7 O6 
HTAB O4 O1_$1 
EQIV $1 -x+1, y-1/2, -z+2 
conf 
size  0.42  0.38  0.18 
temp -123 
WGHT    0.052000    0.012900 
FVAR      10.84852 
C1    1    0.576692    0.694745    1.052908    11.00000    0.01953    0.01386 = 
         0.02103    0.00240    0.00293    0.00039 
O1    3    0.737696    0.740299    1.041722    11.00000    0.01672    0.02622 = 
         0.02473   -0.00134    0.00529   -0.00382 
C2    1    0.493899    0.714204    1.162612    11.00000    0.02541    0.02354 = 
         0.01600   -0.00257    0.00296   -0.00203 
AFIX  43 
H2    2    0.564823    0.766329    1.225546    11.00000   -1.20000 
AFIX   0 
C3    1    0.322003    0.661541    1.178114    11.00000    0.02655    0.02046 = 
         0.01797    0.00112    0.00594    0.00076 
C4    1    0.203349    0.576894    1.082258    11.00000    0.01644    0.02197 = 
         0.02466   -0.00016    0.00759   -0.00070 
AFIX  23 
H4A   2    0.067131    0.596630    1.088295    11.00000   -1.20000 
H4B   2    0.225544    0.468901    1.095000    11.00000   -1.20000 
AFIX   0 
C4A   1    0.245580    0.616862    0.958569    11.00000    0.01496    0.01750 = 
         0.02053   -0.00064    0.00296   -0.00198 
O4    3    0.148553    0.517379    0.874541    11.00000    0.02037    0.01934 = 
         0.02254    0.00007   -0.00069   -0.00127 
H4    2    0.179077    0.425820    0.893588    11.00000   -1.50000 
C5    1    0.165934    0.771714    0.923860    11.00000    0.01719    0.02019 = 
         0.02465    0.00026    0.00601    0.00241 
AFIX  23 
H5A   2    0.025135    0.766702    0.915125    11.00000   -1.20000 
H5B   2    0.206299    0.841996    0.988789    11.00000   -1.20000 
AFIX   0 
C6    1    0.227316    0.832918    0.811777    11.00000    0.01694    0.01983 = 
         0.02209    0.00018    0.00265    0.00067 
C6A   1    0.399067    0.777191    0.769598    11.00000    0.01901    0.01774 = 
         0.01824   -0.00008    0.00281   -0.00026 
O6    3    0.129841    0.933534    0.758960    11.00000    0.02737    0.02565 = 
         0.03194    0.00847    0.00881    0.01135 
C7    1    0.453139    0.833110    0.664246    11.00000    0.02081    0.01857 = 
         0.01823    0.00186    0.00131    0.00226 
C7A   1    0.620214    0.782324    0.618103    11.00000    0.02038    0.01830 = 
         0.01766    0.00034    0.00290   -0.00212 
O7    3    0.347939    0.938474    0.603336    11.00000    0.02928    0.02892 = 
         0.02793    0.01217    0.00888    0.01149 
H7    2    0.249168    0.954236    0.641650    11.00000   -1.50000 
C8    1    0.683156    0.838414    0.512442    11.00000    0.02731    0.02171 = 
         0.01842    0.00236    0.00230   -0.00215 
O8    3    0.586935    0.946637    0.445960    11.00000    0.03934    0.03194 = 
         0.02592    0.01358    0.00979    0.00755 
H8    2    0.477277    0.971014    0.481332    11.00000   -1.50000 
C9    1    0.846384    0.784437    0.473808    11.00000    0.02955    0.02780 = 
         0.01931    0.00248    0.00939   -0.00404 
AFIX  43 
H9    2    0.886686    0.821904    0.403085    11.00000   -1.20000 
AFIX   0 
C10   1    0.953680    0.674556    0.538032    11.00000    0.02208    0.03182 = 
         0.02112   -0.00262    0.00774   -0.00102 
AFIX  43 
H10   2    1.066763    0.638633    0.510484    11.00000   -1.20000 
AFIX   0 
C11   1    0.898428    0.617636    0.640273    11.00000    0.01980    0.02445 = 
         0.02068   -0.00269    0.00331    0.00265 
AFIX  43 
H11   2    0.972982    0.542778    0.682533    11.00000   -1.20000 
AFIX   0 
C11A  1    0.731382    0.670054    0.682607    11.00000    0.01617    0.02008 = 
         0.01589   -0.00169    0.00099   -0.00123 
C12   1    0.672917    0.614174    0.789527    11.00000    0.02084    0.01899 = 
         0.01616    0.00015    0.00136    0.00208 
AFIX  43 
H12   2    0.747574    0.539311    0.831708    11.00000   -1.20000 
AFIX   0 
C12A  1    0.513964    0.664480    0.833047    11.00000    0.01660    0.01545 = 
         0.01739   -0.00145    0.00157   -0.00046 
C12B  1    0.461760    0.611817    0.950548    11.00000    0.01784    0.01553 = 
         0.01806    0.00051    0.00395    0.00268 
AFIX  13 
H12B  2    0.500351    0.504752    0.958159    11.00000   -1.20000 
AFIX   0 
C13   1    0.238125    0.679648    1.291206    11.00000    0.03514    0.03578 = 
         0.02506   -0.00559    0.01400   -0.00680 
AFIX 137 
H13A  2    0.333134    0.723664    1.350598    11.00000   -1.50000 
H13B  2    0.199522    0.582037    1.318584    11.00000   -1.50000 
H13C  2    0.126688    0.745122    1.278633    11.00000   -1.50000 
AFIX   0 
HKLF 4 
  
REM  04016A in P2(1) 
REM R1 =  0.0303 for    2350 Fo > 4sig(Fo)  and  0.0320 for all    2442 data 
REM    227 parameters refined using      1 restraints 
  
END 
  
WGHT      0.0520      0.0129 
  
REM Highest difference peak  0.197,  deepest hole -0.247,  1-sigma level  0.070 
Q1    1   0.9246  0.9134  0.5559  11.00000  0.05    0.20 
Q2    1   0.5052  0.6775  1.4580  11.00000  0.05    0.19 
;
_shelx_res_checksum              55839
_shelx_hkl_file
; 
   0   0  -1 31147.7 261.056  13 
   0   0   1 30524.2 179.428  19 
   0   0  -2 31215.2 373.041  13 
   0   0  -3 23842.9 400.042  13 
   0   0  -4 416.271 63.9296  13 
   0   0  -5 1589.21 140.237  13 
   0   0  -6 2017.76 166.762  13 
   0   0  -6 2192.46 212.696  20 
   0   0   7 63726.2 1053.31  28 
   0   0  -7 61491.2 1222.49  20 
   0   0   7 64316.5 1172.19  23 
   0   0   7 64289.8 1313.02   5 
   0   0   8 22968.9 775.636  23 
   0   0   8 23315.1 698.749  28 
   0   0   8 23204.6 860.764   5 
   0   0  -8 23603.7 798.275  20 
   0   0   9 16265.8 708.377  23 
   0   0   9 16737.1 625.933  28 
   0   0   9 16362.0 791.497   5 
   0   0  -9 15377.1 675.351  20 
   0   0  10 12821.4 669.368  23 
   0   0  10 13797.4 739.334   5 
   0   0  11 4102.91 383.386  23 
   0   0  11 3550.00 410.977   5 
   0   0  12 4446.28 388.908  23 
   0   0  12 5288.57 436.826   3 
   0   0  13 1918.13 215.783  23 
   0   0  13 1572.73 228.450   3 
   0   1   0 43.2638 11.1747  20 
   0   1   0 29.4557 14.8852   1 
   0   1  -1 194478. 528.414   6 
   0  -1   1 197587. 889.674  18 
   0   1  -2 71032.3 827.691   1 
   0   1  -2 67784.1 420.053   6 
   0  -1   3 54519.9 603.710  19 
   0   1  -3 54087.5 519.600   6 
   0   1  -4 9676.08 269.013   6 
   0  -1  -4 9711.02 318.637  13 
   0   1   4 9171.53 170.489  17 
   0  -1   4 9205.75 250.771  19 
   0  -1  -5 10107.0 367.309  13 
   0   1  -5 10574.6 322.179   6 
   0  -1  -5 10437.7 435.690  20 
   0  -1  -6 59794.3 1126.04  20 
   0  -1  -6 60653.3 958.083  13 
   0   1  -6 59202.0 1155.05  20 
   0   1  -6 59164.9 842.868   6 
   0  -1   7 45242.2 1085.58   5 
   0  -1   7 47010.9 989.770  23 
   0  -1  -7 47210.3 917.469  13 
   0   1   7 47355.1 1041.98  23 
   0   1   7 46809.6 1132.10   5 
   0   1  -7 46141.7 1102.42  20 
   0  -1   7 46010.3 905.163  28 
   0  -1  -7 49250.8 1084.09  20 
   0  -1   7 43359.2 816.782  29 
   0   1   8 36069.2 991.521  23 
   0   1   8 34372.9 1059.23   5 
   0   1  -8 36608.6 1038.29  20 
   0  -1   8 38384.7 992.292  23 
   0  -1   8 35503.7 867.650  28 
   0  -1   8 35830.1 1054.49   5 
   0  -1   9 13204.3 643.608  23 
   0   1  -9 11808.8 619.543  20 
   0   1   9 11999.0 674.830   5 
   0   1   9 11556.9 605.442  23 
   0  -1   9 11953.9 544.634  28 
   0  -1   9 11678.5 655.137   5 
   0   1  10 10855.4 669.281   5 
   0  -1  10 11812.0 672.029   5 
   0  -1  10 11164.2 549.486  28 
   0   1  10 11845.4 633.978  23 
   0  -1  10 11507.2 642.674  23 
   0   1  11 803.286 203.468  23 
   0  -1  11 1066.02 202.855  23 
   0  -1  11 1033.43 256.034   5 
   0   1  11 1177.99 250.709   5 
   0  -1  11 1008.82 173.853  28 
   0   1  12 4617.69 378.975  23 
   0  -1  12 4822.22 391.212  23 
   0   1  12 4918.58 438.075   3 
   0   1  13 15135.2 567.391  23 
   0   1  13 15785.6 638.456   3 
   0  -1  13 15958.1 606.404  23 
   0  -1  13 14914.0 581.615   3 
   0   2   0 386607. 1053.47  20 
   0  -2   0 387040. 945.931  16 
   0   2  -1 306483. 1681.26   1 
   0   2   1 302007. 997.012   1 
   0   2  -2 1160.55 132.009   1 
   0  -2   2 1197.47 98.8701  15 
   0   2   2 926.809 44.0449   1 
   0  -2   2 1082.57 127.728  18 
   0  -2  -3 18026.3 305.692  20 
   0  -2   3 17231.1 475.869  19 
   0  -2   3 18013.9 409.916  15 
   0   2  -3 17003.8 245.726   6 
   0  -2  -4 39632.0 650.111  20 
   0   2  -4 39832.6 442.864   6 
   0  -2   4 41524.0 708.379  15 
   0   2  -4 41141.0 816.642   1 
   0  -2   4 40348.3 681.902  19 
   0  -2   5 7029.44 285.456  19 
   0   2  -5 7599.57 421.338  20 
   0  -2  -5 7502.29 340.017  13 
   0  -2   6 65825.8 864.299  19 
   0  -2   6 68612.1 1116.43  31 
   0   2  -6 68484.9 1315.54  20 
   0  -2   6 65690.9 1128.07  33 
   0  -2  -6 70640.0 1123.12  13 
   0  -2   7 23693.7 775.512   5 
   0  -2   7 22860.5 632.142  29 
   0   2   7 23958.5 763.969  23 
   0  -2  -7 25670.0 727.013  13 
   0   2  -7 22349.4 799.628  20 
   0  -2   7 23012.2 670.042  28 
   0   2   7 22906.9 813.131   5 
   0   2  -8 59685.6 1387.76  20 
   0  -2   8 61064.4 1168.98  28 
   0  -2   8 58663.8 1237.83  23 
   0  -2   8 58711.8 1334.85   5 
   0  -2  -8 59880.9 1195.14  13 
   0   2   8 58217.0 1387.91   5 
   0   2   8 58758.1 1293.67  23 
   0  -2   8 59955.1 1094.35  29 
   0   2  -9 40134.7 1186.78  20 
   0   2   9 39407.4 1117.43  23 
   0  -2   9 39796.8 1017.35  28 
   0  -2   9 40812.1 1121.18  23 
   0   2   9 37918.3 1193.10   5 
   0  -2   9 40555.8 1167.10   5 
   0   2  10 6461.32 473.791  23 
   0  -2  10 6452.63 429.510  28 
   0  -2  10 6596.41 484.675   5 
   0  -2  10 6854.60 496.914  23 
   0   2  10 6629.78 523.926   5 
   0  -2  11 60.5607 97.7927  28 
   0  -2  11-130.325 147.932  23 
   0   2  11 168.630 149.437   3 
   0   2  11-65.7144 103.478  23 
   0  -2  12 8315.45 496.039  23 
   0  -2  12 8054.45 417.510  28 
   0   2  12 7218.64 433.638  23 
   0  -2  12 8337.30 481.276   3 
   0   2  12 9045.72 552.581   3 
   0  -2  13 1679.28 190.007  23 
   0   2  13 1592.94 215.976   3 
   0  -3   0 266.900 55.6873  18 
   0   3   0 171.669 55.7644   1 
   0   3  -1 132761. 1281.54   1 
   0   3  -1 127827. 981.232  20 
   0  -3   1 127074. 1003.17  18 
   0   3   1 135519. 954.377   1 
   0  -3   2 56403.3 842.989  18 
   0   3  -2 56727.9 821.094  20 
   0   3  -2 57853.1 928.895   1 
   0   3  -3 1627.88 175.965  20 
   0  -3   3 1631.58 208.201  18 
   0  -3   3 1726.22 147.897  15 
   0   3  -3 1755.34 181.113   1 
   0   3  -4 3313.73 286.790  20 
   0  -3   4 3302.24 222.038  15 
   0   3  -4 3073.02 257.280   1 
   0  -3   4 2931.50 241.302  19 
   0  -3   5 10777.7 440.220  15 
   0  -3  -5 11409.0 457.150  13 
   0   3  -5 11461.5 542.397  20 
   0  -3   5 10895.1 417.514  19 
   0  -3   6 55136.0 1112.88  31 
   0  -3   6 53137.9 1088.36  33 
   0  -3  -6 51836.1 1044.04  13 
   0  -3   6 50781.4 895.099  19 
   0  -3   6 50164.4 1051.51  34 
   0   3   6 49068.6 1130.17   5 
   0   3  -6 53565.9 1234.69  20 
   0  -3   7 12631.9 549.857  31 
   0  -3   7 12097.5 509.250  29 
   0   3   7 12098.6 609.531   5 
   0   3  -7 12943.9 647.075  20 
   0  -3  -7 13537.0 580.200  13 
   0  -3   7 11733.1 521.049  28 
   0   3   7 11917.2 552.299  23 
   0  -3   7 12601.4 573.861  34 
   0   3   8 28789.8 914.634  23 
   0  -3   8 29439.7 896.856  23 
   0   3  -8 27766.7 985.528  20 
   0  -3   8 28205.4 800.889  29 
   0  -3  -8 29801.6 910.128  13 
   0  -3   8 27745.7 828.733  28 
   0   3   8 26506.9 957.236   5 
   0  -3   9 25300.0 887.380  23 
   0  -3   9 24592.4 827.182  28 
   0  -3   9 25337.8 786.558  29 
   0   3   9 24785.9 882.513  23 
   0   3   9 23359.9 927.901   5 
   0   3  10 2041.95 290.845   5 
   0   3  10 1887.00 243.979  23 
   0  -3  10 2213.19 293.003  23 
   0  -3  10 1670.76 224.009  28 
   0   3  10 1928.02 288.553   3 
   0   3 -10 2611.50 291.397  12 
   0   3  11 2762.84 350.035   3 
   0   3  11 2517.95 328.932   5 
   0  -3  11 2692.28 297.899  23 
   0  -3  11 2973.52 288.472  28 
   0   3  12 3876.90 355.735   3 
   0  -3  12 3317.29 268.371  28 
   0  -3  12 4202.99 330.044  23 
   0   4   0 43422.5 745.675   1 
   0  -4   0 41954.3 632.178  18 
   0   4  -1 21459.0 590.182   1 
   0   4  -1 21036.5 421.606  20 
   0   4   1 21678.8 427.828   1 
   0  -4   1 21812.2 488.939  18 
   0  -4   2 18404.3 696.982  19 
   0  -4   2 19252.1 560.236  18 
   0   4  -2 18759.7 487.231  20 
   0   4  -2 19748.6 605.978   1 
   0  -4   2 18041.4 461.568  15 
   0   4  -3 3668.46 282.188   1 
   0  -4   3 4003.82 343.328  19 
   0  -4   3 3485.92 288.220  18 
   0   4  -3 4042.76 272.769  20 
   0  -4   3 3650.46 237.201  15 
   0  -4   4 6978.67 351.264  15 
   0  -4  -4 7148.21 385.544  13 
   0   4  -4 7416.29 422.277  20 
   0  -4   4 7346.44 420.914  19 
   0  -4   5 18913.9 715.495  33 
   0  -4   5 17328.0 737.249  31 
   0  -4   5 18204.4 645.279  34 
   0  -4  -5 16800.0 613.511  13 
   0   4  -5 17755.3 733.190  12 
   0  -4   5 17425.8 593.856  15 
   0  -4   5 18089.9 628.112  19 
   0   4  -5 18485.7 730.360  20 
   0   4  -6 18551.2 774.554  20 
   0   4   6 16615.5 697.121   3 
   0   4   6 17577.0 692.334   5 
   0  -4   6 18496.8 617.611  19 
   0  -4   6 18967.5 704.847  33 
   0  -4   6 20428.0 754.302  31 
   0  -4   6 17457.9 654.118  34 
   0  -4  -6 17122.7 658.940  13 
   0  -4   7 50805.5 1003.37  19 
   0  -4   7 50436.7 1163.26  31 
   0  -4  -7 47908.6 1170.25  13 
   0   4   7 48602.3 1272.59   3 
   0  -4   7 48836.7 1152.98  33 
   0   4  -7 49703.9 1354.63  12 
   0  -4   7 49787.3 1102.71  29 
   0   4  -7 48229.7 1302.50  20 
   0   4   7 47881.3 1225.28   5 
   0   4  -8 24237.8 957.008  20 
   0   4   8 23410.4 901.649   5 
   0   4  -8 24900.5 978.560  12 
   0  -4   8 24215.0 783.393  29 
   0  -4  -8 25129.0 884.231  13 
   0  -4   8 23963.4 819.429  23 
   0  -4   8 24106.5 812.513  28 
   0   4   8 24341.5 953.454   3 
   0   4   9 4517.30 426.134   3 
   0   4  -9 3980.93 395.645  12 
   0  -4   9 4163.77 362.345  28 
   0  -4   9 3559.86 350.100  23 
   0  -4   9 3896.31 327.340  29 
   0   4   9 3952.45 390.301   5 
   0   4  10 7568.01 515.383   5 
   0   4  10 7613.44 535.210   3 
   0  -4  10 8217.71 505.431  23 
   0   4 -10 7325.94 516.589  12 
   0  -4  10 7835.69 433.372  29 
   0  -4  10 8008.29 482.587  28 
   0  -4  11 586.792 141.945  23 
   0   4  11 164.765 124.105   3 
   0   4 -11 668.716 160.659  12 
   0  -4  11 418.365 119.088  28 
   0   4  12 989.937 187.916   3 
   0  -4  12 527.288 119.333  23 
   0  -4  12 822.424 127.808  28 
   0  -5   0 312.176 90.3006  18 
   0   5   0-73.6601 51.1267   1 
   0  -5   1 28903.0 674.208  18 
   0  -5   1 29612.5 972.519  19 
   0   5  -1 28209.1 745.050   1 
   0  -5  -1 28305.3 596.941  18 
   0  -5   2 1821.33 284.180  19 
   0   5  -2 1668.22 202.169   9 
   0   5  -2 1869.63 219.402   1 
   0   5  -2 1985.30 238.786  11 
   0   5  -2 1528.02 190.455  12 
   0   5  -2 1747.22 162.798  20 
   0  -5   2 2026.90 184.526  15 
   0  -5   2 1829.83 223.578  18 
   0   5  -3 18890.6 674.088   9 
   0  -5   3 19240.7 783.625  19 
   0   5  -3 19162.0 708.347  12 
   0   5  -3 19236.2 758.157  11 
   0  -5   3 17801.1 555.079  15 
   0   5  -3 20827.2 625.408  20 
   0  -5   4 13010.4 621.761  19 
   0  -5   4 11326.9 476.790  15 
   0   5  -4 11310.5 507.225   9 
   0   5  -4 12628.3 558.385  20 
   0   5  -4 12117.7 612.664  12 
   0  -5  -4 12250.3 583.806  13 
   0  -5   4 11013.4 633.117  33 
   0  -5   5 7838.75 460.394  19 
   0   5  -5 7456.51 485.751  20 
   0   5  -5 6892.73 389.276   9 
   0  -5  -5 7459.59 472.083  13 
   0   5  -5 7512.19 520.970  12 
   0  -5   5 6080.03 487.657  31 
   0  -5   5 6842.32 402.351  15 
   0  -5   5 7927.07 510.521  33 
   0  -5  -6 86462.9 1601.32  13 
   0  -5   6 90884.7 1590.32  33 
   0   5  -6 89784.6 1867.32  12 
   0   5  -6 87149.4 1745.65  20 
   0  -5   6 87447.4 1485.92  19 
   0  -5   6 87278.7 1470.62  34 
   0  -5   7 121953. 1685.39  19 
   0   5  -7 121157. 2130.29  20 
   0  -5   7 124385. 1886.07  31 
   0   5   7 118076. 1960.09   3 
   0  -5  -7 116065. 1899.49  13 
   0  -5   7 120846. 1838.46  33 
   0   5  -7 124010. 2257.69  12 
   0   5  -8 8592.07 607.825  12 
   0   5   8 8426.09 547.380   3 
   0  -5   8 9053.42 500.997  29 
   0  -5   8 9111.06 519.087  28 
   0  -5   8 8963.10 522.016  31 
   0  -5   8 9497.11 517.586  23 
   0   5   9 2511.22 313.432   3 
   0   5  -9 2155.60 297.200  12 
   0  -5   9 2223.30 266.475  29 
   0  -5   9 2221.77 254.818  23 
   0  -5   9 2365.14 271.294  28 
   0   5  10 797.859 216.188   3 
   0  -5  10 659.301 162.525  28 
   0  -5  10 778.121 166.235  29 
   0  -5  10 788.112 162.371  23 
   0   5 -10 555.091 179.717  12 
   0  -5  10 490.016 114.083  32 
   0   5 -11 1081.19 193.522  12 
   0  -5  11 1150.84 182.771  28 
   0  -5  11 1113.00 156.224  23 
   0   5  11 1234.33 174.544   3 
   0  -6   0 72044.4 1652.14  19 
   0   6   0 78931.4 1512.26   9 
   0   6  -1 29387.5 870.508  12 
   0  -6   1 27294.0 1019.35  19 
   0   6   1 30547.9 892.538   9 
   0  -6  -1 28261.0 1022.93  19 
   0   6  -1 26739.1 911.506   9 
   0   6  -2 12588.0 597.845  12 
   0  -6  -2 11776.4 652.739  19 
   0   6  -2 11700.8 605.132   9 
   0  -6   2 13587.5 502.323  15 
   0   6   2 12321.7 535.954   9 
   0  -6   2 11887.8 681.843  19 
   0  -6  -2 10678.7 592.415  13 
   0   6  -3 20653.4 777.636   9 
   0  -6   3 18620.2 628.156  15 
   0  -6   3 20792.9 865.003  19 
   0   6   3 21313.6 673.859   9 
   0  -6  -3 17989.4 840.033  13 
   0   6  -3 21437.2 824.392  12 
   0  -6  -4 4435.39 439.551  13 
   0  -6   4 4742.41 410.843  19 
   0   6  -4 4228.31 349.806   9 
   0   6  -4 5024.35 430.655  12 
   0  -6   4 4422.30 340.200  15 
   0  -6  -5 32761.4 1103.40  13 
   0  -6   5 33144.1 1002.04  33 
   0  -6   5 32199.1 1007.26  19 
   0   6  -5 30127.2 869.220   9 
   0   6  -5 33417.5 1152.67  12 
   0  -6   5 28938.5 1058.24  31 
   0   6  -6 98951.9 2057.92  12 
   0  -6   6 101215. 1670.24  33 
   0  -6   6 98680.8 1682.10  19 
   0  -6   6 101601. 1818.79  31 
   0  -6   7 29473.5 928.800  31 
   0  -6   7 28458.9 911.923  28 
   0   6  -7 28406.0 1106.99  12 
   0  -6   8 3521.40 311.604  29 
   0  -6   8 3550.80 337.759  28 
   0   6  -8 3766.35 405.877  12 
   0  -6   9 886.087 167.744  29 
   0  -6   9 740.622 167.907  28 
   0   6  -9 913.031 202.678  12 
   0   6 -10 2434.23 269.260  12 
   0  -6  10 2421.79 214.613  32 
   0  -6  10 2915.70 262.625  28 
   0  -6  10 2481.90 235.619  29 
   0  -6  11 1309.26 161.111  28 
   0  -7   0 41.7300 90.9599  19 
   0   7   0 7.99590 37.0700   9 
   0  -7   1 48477.6 1403.30  19 
   0   7   1 48533.1 1227.21   9 
   0   7  -1 45258.6 1275.80   9 
   0  -7  -1 47476.1 1371.31  19 
   0   7  -2 10338.8 592.354  12 
   0   7   2 11371.4 563.303   9 
   0   7  -2 10761.0 627.616   9 
   0  -7   2 10746.6 652.687  19 
   0   7  -3 6979.91 499.846   9 
   0   7  -3 7842.22 535.510  12 
   0  -7   3 8347.40 566.142  19 
   0   7   3 7634.63 438.197   9 
   0   7  -4 11187.6 661.081  12 
   0   7  -4 10485.1 571.033   9 
   0  -7   5 18602.3 833.439  31 
   0   7  -5 17465.0 867.470  12 
   0   7  -5 17661.2 705.822   9 
   0  -7   6 29164.6 934.757  31 
   0   7  -6 26395.5 1062.81  12 
   0   7  -7 15049.5 634.251   8 
   0  -7   7 15622.6 661.891  29 
   0  -7   7 15621.7 637.877  31 
   0  -7   7 16299.9 662.028  28 
   0   7  -7 16018.2 812.904  12 
   0   7  -8 4000.38 396.050  12 
   0  -7   8 3987.66 317.541  28 
   0   7  -8 4262.43 314.500   8 
   0  -7   8 4021.64 313.203  29 
   0  -7   9 903.113 136.976  32 
   0  -7   9 720.708 135.656  28 
   0  -7   9 940.761 150.766  29 
   0   7  -9 896.555 182.934  12 
   0  -7  10 505.243 106.025  28 
   0   7 -10 560.087 105.466  10 
   0   8   0 11170.2 571.790   8 
   0   8   0 12556.9 678.655   9 
   0   8  -1 23604.5 956.000   9 
   0   8   1 24576.5 905.632   9 
   0   8   1 24611.5 786.438   8 
   0   8  -2 8795.91 585.199   9 
   0   8   2 8792.74 509.902   9 
   0   8  -3 4949.31 422.043   9 
   0  -8   4 1317.59 217.979  31 
   0   8  -4 1449.77 271.486   8 
   0   8  -4 1501.36 284.841  12 
   0   8  -4 1242.91 243.535   9 
   0   8  -5 214.838 158.340  12 
   0  -8   5 691.405 141.815  31 
   0   8  -5 195.882 119.853  10 
   0   8  -5 534.271 179.443   8 
   0   8  -6 1255.23 222.202   8 
   0  -8   6 1683.06 221.618  28 
   0  -8   6 1437.05 188.701  31 
   0   8  -6 1602.12 257.703  12 
   0   8  -6 1421.95 218.879  10 
   0  -8   7 6577.21 381.979  28 
   0   8  -7 6758.84 468.877  12 
   0   8  -7 6140.81 422.825  10 
   0  -8   7 6341.73 390.104  29 
   0   8  -7 6504.55 396.404   8 
   0  -8   8 4035.50 285.741  28 
   0   8  -8 3562.64 290.058  10 
   0   8  -8 3861.38 326.036  12 
   0  -8   8 4551.89 295.035  29 
   0   8  -8 3628.09 250.174   8 
   0   9   0 171.385 122.726   8 
   0   9  -1 5298.41 411.778   8 
   0   9   1 5355.44 346.976   8 
   0   9  -2 6082.55 462.672   8 
   0   9  -3 3761.96 370.439   8 
   0   9  -4 3224.09 328.379   8 
   0  -9   5 29.3025 91.4356  29 
   0   9  -5 313.279 138.621   8 
   0  -9   5 292.681 92.4755  28 
   0  -9   6 6932.82 335.103  28 
   0  -9   6 7105.10 372.783  29 
   0   9  -6 6550.34 370.125   8 
   0  -9   7 242.117 62.5553  29 
   0  -9   7 493.368 91.0787  32 
   0  10   0 1241.10 175.480   8 
   0  10  -1 5153.68 346.988   8 
   0  10  -2 599.534 146.296   8 
   0 -10   3 1474.11 176.678  29 
   0  10  -3 1303.65 181.184   8 
   0 -10   4 134.033 53.6931  29 
   0  10  -4-49.9819 92.7605   8 
  -1   0  13 265.964 112.736  23 
  -1   0  13 237.840 130.417   3 
  -1   0  12 162.669 164.261   5 
  -1   0  12 132.612 67.8081  23 
  -1   0  11 12761.2 654.210  23 
  -1   0  11 11854.1 696.051   5 
  -1   0  10 3790.35 394.543   5 
  -1   0  10 3865.92 366.580  23 
  -1   0   9 926.675 222.649   5 
  -1   0   9 779.394 190.443  23 
   1   0  -9 472.325 125.633  20 
  -1   0   8 6173.35 393.703  23 
  -1   0   8 6310.64 462.220   5 
  -1   0   7 395.605 145.607   5 
  -1   0   7 661.944 133.219  34 
   1   0  -7 704.924 111.161  13 
  -1   0   7 565.083 152.530  21 
   1   0  -6 87540.5 1008.22  13 
   1   0  -5 484780. 2353.27   1 
   1   0  -5 481684. 2115.21  13 
  -1   0   4 7846.64 128.195  19 
   1   0  -4 8319.72 276.391   1 
   1   0  -3 130902. 947.767   1 
   1   0  -2 77324.3 625.240   1 
  -1   0   2 76098.4 763.456  18 
  -1   0   1 13549.4 231.735   6 
  -1   0   1 13079.9 209.640  18 
   1   0  -1 13136.5 182.055  17 
  -1   0   0 214694. 943.251  16 
  -1   0   0 219821. 896.506   6 
  -1   0  -1 339.874 43.4214   6 
  -1   0  -2 103430. 847.988   6 
  -1   0  -2 103452. 810.351  20 
   1   0   3 116427. 875.964  15 
  -1   0  -3 115178. 1074.47  20 
  -1   0  -3 114645. 1065.46   6 
  -1   0  -4 1157.87 150.852  20 
  -1   0  -4 1127.34 131.969   6 
  -1   0  -5 2674.93 274.548  20 
  -1   0  -5 2911.46 216.393   6 
  -1   0  -6 2573.03 227.453   6 
  -1   0  -6 2705.25 307.997  20 
   1   0   7 277.330 114.853  23 
   1   0   7 327.969 113.505  28 
  -1   0  -7 524.581 110.215   6 
  -1   0  -7 407.467 145.167  20 
   1   0   7 180.610 92.7435   5 
  -1   0  -8 55580.7 1376.80  20 
   1   0   8 57762.9 1300.68  23 
   1   0   8 58970.6 1394.76   5 
  -1   0  -8 58090.5 1176.10   6 
   1   0   8 57377.3 1197.74  28 
   1   0   9 72370.4 1546.69  23 
   1   0   9 75646.3 1669.31   5 
   1   0   9 72826.3 1408.02  28 
   1   0  10 26286.2 960.567  23 
   1   0  10 26157.7 1010.83   5 
   1   0  10 25307.2 839.557  28 
   1   0  11 1666.28 230.808  28 
   1   0  11 1846.80 283.308  23 
   1   0  11 1962.75 305.716   3 
   1   0  12 3018.06 336.579   3 
   1   0  12 2661.60 305.786  23 
   1   0  13 296.810 107.170   3 
  -1   1  13 985.481 138.809  23 
  -1  -1  13 1195.64 161.611  23 
  -1   1  12 15897.4 655.021  23 
  -1  -1  12 17121.7 725.508   5 
  -1  -1  12 17169.3 712.003  23 
  -1   1  12 16939.8 769.282   5 
  -1  -1  11 7127.11 496.066  23 
  -1   1  11 7027.95 556.440   5 
  -1  -1  11 6814.10 528.549   5 
  -1   1  11 6859.10 462.300  23 
  -1   1  10 1346.18 245.809   5 
  -1   1  10 1059.02 246.642  23 
  -1  -1  10 753.145 209.878  23 
  -1  -1  10 1002.56 208.934   5 
  -1   1   9 631.271 166.884  23 
  -1  -1   9 655.268 192.313   5 
  -1  -1   9 421.544 173.469  23 
   1   1  -9 573.322 143.276  20 
  -1  -1   9 564.667 143.849  28 
  -1   1   9 472.601 168.036   5 
   1  -1  -8 2230.80 241.320  20 
   1  -1  -8 2146.80 203.779  13 
  -1   1   8 1898.50 268.003   5 
  -1   1   8 2021.47 242.119  23 
  -1  -1   8 1940.60 266.956   5 
  -1  -1   8 1790.13 197.277  28 
  -1   1   7 13567.8 641.535   5 
   1  -1  -7 14151.6 488.368  13 
  -1   1   7 13749.5 530.783  23 
  -1  -1   7 12739.7 454.295  28 
  -1  -1   7 13908.1 579.227  34 
  -1  -1   7 14787.6 647.468   5 
   1  -1  -6 39006.5 747.783  13 
   1   1  -6 39534.6 813.939   1 
   1   1  -5 326048. 1435.46  13 
  -1  -1   5 319667. 1532.52  19 
   1   1  -4 9397.87 213.418  13 
  -1  -1   4 8543.20 302.884  19 
   1  -1  -4 8929.71 278.127   1 
   1  -1  -3 6063.09 173.386   1 
   1   1  -3 5364.48 229.255   1 
  -1  -1   3 5414.31 280.836  18 
  -1  -1   2 77753.3 764.800  18 
   1  -1  -2 79891.9 479.694   1 
   1   1  -2 80798.1 447.294  14 
   1   1  -2 78100.9 754.145   1 
   1   1  -1 118696. 834.057   1 
  -1  -1   1 119728. 821.758  18 
  -1   1   0 4629.02 160.050   6 
   1   1   0 4873.57 151.251  17 
  -1  -1   0 5161.42 175.251  16 
  -1  -1   0 4686.23 131.423   6 
  -1   1   0 5081.56 115.170  16 
   1  -1   0 4651.08 134.553  19 
  -1  -1  -1 179626. 974.236  13 
  -1   1  -1 183243. 975.442   6 
  -1  -1  -2 474636. 1982.35  13 
   1   1   2 477475. 1621.27  17 
  -1   1  -2 474673. 1971.79  20 
  -1  -1  -3 82951.2 970.995  13 
   1  -1   3 86242.9 845.427  15 
  -1   1  -3 87081.6 1057.47  20 
   1   1   3 84058.4 734.937  17 
  -1   1  -3 85735.7 849.170   6 
   1   1   4 9508.95 267.704  17 
  -1  -1  -4 9477.03 368.574  13 
  -1   1  -4 9203.35 319.811   6 
  -1  -1  -4 9514.47 336.740  20 
  -1   1  -4 9656.46 444.685  20 
   1  -1   4 9318.09 317.479  15 
   1   1   5 713.054 83.2750  17 
  -1  -1  -5 684.525 122.037  13 
  -1  -1  -5 750.426 131.602  20 
  -1   1  -5 891.620 115.267   6 
  -1   1  -5 604.901 148.282  20 
   1   1   6 4089.95 328.848   5 
  -1   1  -6 3814.56 252.943   6 
  -1   1  -6 3530.88 345.756  20 
  -1  -1  -6 3442.27 311.524  20 
   1   1   6 3695.51 290.633  23 
   1   1   7 18293.8 640.345  28 
   1   1   7 19227.4 714.094  23 
  -1  -1  -7 19025.7 674.101   6 
  -1  -1  -7 17027.1 742.363  20 
   1  -1   7 20184.8 661.004  28 
   1   1   7 18427.5 740.358   5 
  -1   1  -7 18860.9 791.030  20 
   1  -1   7 20093.1 583.413  32 
   1  -1   7 20094.6 699.797  23 
   1  -1   7 18926.2 724.379   5 
  -1   1  -7 18401.4 590.088   6 
   1  -1   8 5767.54 427.439   5 
  -1   1  -8 5382.78 422.926  20 
   1   1   8 5310.64 377.559  28 
   1  -1   8 5458.60 408.590  23 
   1   1   8 5009.77 427.588   5 
   1  -1   8 5763.79 385.744  28 
   1   1   8 5592.28 421.140  23 
  -1  -1  -8 4809.55 359.969   6 
   1  -1   9 4535.60 407.808  23 
   1   1   9 3125.11 344.238  23 
   1  -1   9 3394.56 355.997   5 
   1  -1   9 3245.55 323.826  28 
  -1  -1  -9 2914.40 318.353   6 
   1   1   9 3358.32 328.127  28 
   1   1   9 3406.69 372.582   5 
   1   1  10 6034.77 487.294   5 
   1   1  10 5593.06 406.546  28 
   1   1  10 4906.99 436.010  23 
   1  -1  10 5625.40 419.828  28 
   1   1  10 6314.53 534.525   3 
   1  -1  10 6268.20 481.193  23 
   1  -1  11 15869.4 659.597  28 
   1  -1  11 14989.3 722.507   3 
   1   1  11 15306.6 724.858  23 
   1  -1  11 15297.5 717.314  23 
   1   1  11 15052.2 766.106   3 
   1  -1  12 892.877 174.727  28 
   1   1  12 936.708 195.161  23 
   1  -1  12 1106.92 204.708   3 
   1  -1  12 690.148 166.695  23 
   1   1  12 706.462 200.323   3 
   1  -1  13 3172.89 261.206  23 
   1   1  13 3261.57 285.950   3 
  -1  -2  13 1492.75 189.570   3 
  -1  -2  13 1532.86 195.671  23 
  -1   2  13 1376.09 193.318   3 
  -1   2  12 2203.70 312.887   5 
  -1  -2  12 2626.08 275.653   5 
  -1   2  12 2111.80 279.727   3 
  -1  -2  12 2535.18 298.569  23 
  -1   2  12 1802.60 221.032  23 
  -1  -2  11 17633.4 760.211   5 
  -1   2  11 17472.8 830.925   5 
  -1  -2  11 16878.5 738.426  23 
  -1   2  10 4490.55 447.559   5 
  -1  -2  10 5075.91 427.837  23 
  -1  -2  10 5260.34 434.201   5 
  -1  -2  10 4842.41 365.302  28 
  -1   2  10 5049.96 394.386  23 
   1  -2  -9 3051.21 275.062  13 
  -1   2   9 2590.03 332.710   5 
  -1   2   9 3021.94 317.470  23 
  -1  -2   9 2945.16 335.884   5 
  -1  -2   9 2854.60 275.365  28 
   1   2  -9 3039.16 354.119  20 
   1   2  -8 546.475 161.199  20 
  -1   2   8 487.878 126.399  23 
  -1   2   8 447.514 143.501   5 
   1  -2  -8 506.543 109.169  13 
  -1  -2   8 617.255 156.246   5 
  -1  -2   8 747.323 150.022  28 
  -1  -2   8 565.243 168.092  34 
  -1   2   7 9437.98 534.598   5 
  -1  -2   7 9326.12 514.479  34 
  -1   2   7 9413.89 457.972  23 
  -1  -2   7 9174.44 459.112  31 
   1  -2  -7 9405.17 442.036  13 
  -1  -2   7 9144.68 493.296  33 
  -1  -2   7 9242.19 392.184  29 
  -1  -2   7 9541.83 516.811   5 
  -1  -2   6 73135.1 1389.87  34 
  -1  -2   6 73520.5 1251.96  31 
   1   2  -6 71073.5 1198.33   1 
  -1  -2   6 69408.4 928.283  19 
  -1  -2   6 73325.2 1349.13  33 
   1   2  -5 96127.3 1289.36   1 
  -1  -2   5 89374.8 1215.63  19 
  -1  -2   4 84470.1 1412.85  18 
   1   2  -4 88373.2 1150.52   1 
  -1  -2   3 3315.25 226.717  18 
   1   2  -3 3189.11 201.076   1 
   1  -2  -2 5469.71 151.942  19 
  -1  -2   2 5580.53 231.148  18 
   1   2  -2 5392.33 232.825   1 
   1   2  -1 27632.4 474.187   1 
  -1  -2   1 27475.9 255.793   6 
   1  -2  -1 26192.0 408.643  19 
  -1  -2   1 27096.2 468.871  18 
  -1  -2   0 64729.9 690.344  16 
   1   2   0 66057.5 691.432   1 
   1  -2   0 66998.8 725.453  19 
  -1  -2   0 65989.9 548.633  13 
  -1  -2  -1 991873. 2832.77  13 
   1  -2   1 999999. 2952.36  19 
   1  -2   2 442260. 2054.97  19 
  -1   2  -2 451820. 2141.51  20 
  -1   2  -2 453825. 1783.77   6 
  -1  -2  -2 441204. 2299.74  13 
  -1   2  -3 75656.6 1075.09  20 
  -1  -2  -3 76131.8 1074.21  13 
   1  -2   3 76070.2 862.647  19 
  -1   2  -4 74938.9 1290.22  20 
   1  -2   4 75961.3 893.479  19 
   1  -2   4 75835.5 992.667  15 
  -1   2  -4 75036.5 858.219   6 
  -1  -2  -4 77393.4 1157.02  13 
  -1  -2  -5 23992.4 673.874  13 
  -1   2  -5 23360.6 820.298  20 
   1  -2   5 22973.4 602.741  15 
  -1   2  -5 21882.1 516.684   6 
  -1  -2  -6 10370.3 472.253  13 
   1  -2   6 9811.00 423.870  28 
   1  -2   6 10076.1 456.964  23 
   1  -2   6 9978.24 413.510  29 
  -1   2  -6 9508.26 559.656  20 
   1   2   6 9318.25 464.275  23 
   1   2   6 10011.1 525.454   5 
   1   2   7 25656.9 767.430  28 
   1  -2   7 25561.1 748.352  28 
   1  -2   7 25236.2 819.300   5 
   1  -2   7 25484.2 791.464  23 
   1  -2   7 24069.6 672.647  32 
  -1   2  -7 25832.5 952.778  20 
   1   2   7 25462.6 844.726  23 
   1  -2   7 26264.5 724.015  29 
   1   2   7 26890.5 911.211   5 
  -1   2  -8 45513.8 1277.31  20 
   1  -2   8 45869.6 1089.86  28 
   1  -2   8 45645.9 1176.24   5 
   1  -2   8 45339.2 971.423  32 
   1  -2   8 47483.9 1164.05  23 
  -1  -2  -8 46393.3 1175.46   6 
   1   2   8 45371.3 1218.59  23 
   1  -2   8 46607.9 1037.31  29 
   1   2   8 45593.6 1071.54  28 
   1   2   8 46441.4 1267.67   5 
   1   2   9 61926.3 1482.35  23 
  -1  -2  -9 62490.2 1423.07   6 
   1  -2   9 63083.4 1343.80  28 
   1  -2   9 64698.1 1442.24  23 
   1   2   9 62791.4 1538.05   5 
   1   2   9 63586.3 1605.85   3 
   1  -2  10 2711.18 322.458  23 
   1  -2  10 2920.04 323.130  28 
   1   2  10 3065.28 362.180  23 
   1   2  10 3082.85 386.352   3 
   1   2  11 3178.02 334.358  23 
   1  -2  11 2486.90 282.870  23 
   1   2  11 2872.27 356.565   3 
   1  -2  11 2718.23 280.237  28 
   1  -2  11 2774.34 307.783   3 
   1  -2  12 2646.92 277.684  23 
   1  -2  12 3045.80 286.370  28 
   1   2  12 2669.53 326.021   3 
   1   2  13 466.978 119.498   3 
  -1  -3  13 706.298 126.292  23 
  -1  -3  12 180.942 79.7787  23 
   1   3 -12 184.568 68.3503  12 
  -1   3  12 223.427 123.177   5 
  -1   3  12 92.0922 101.387   3 
  -1   3  11 4339.42 421.604   5 
  -1  -3  11 4210.39 377.406  23 
  -1   3  11 4137.22 389.872   3 
  -1  -3  11 4238.34 318.096  28 
  -1   3  10 76.0857 112.379   5 
  -1  -3  10 180.027 114.507  23 
  -1  -3  10 120.141 106.084  28 
  -1  -3   9 6520.97 414.319  28 
  -1  -3   9 5589.18 356.441  29 
   1  -3  -9 6149.19 441.624  13 
  -1   3   9 6169.21 484.978   5 
  -1  -3   8 5603.25 349.928  29 
  -1   3   8 5429.27 442.062   5 
  -1  -3   8 5845.63 433.564  33 
   1   3  -8 5941.31 458.612  20 
   1  -3  -8 5778.71 401.663  13 
  -1  -3   8 5608.59 375.183  28 
  -1  -3   8 5589.21 401.479  31 
  -1  -3   8 6084.89 448.208  34 
   1   3  -7 24036.1 849.872  20 
  -1  -3   7 23628.4 843.869  34 
  -1  -3   7 23597.9 796.565  31 
   1  -3  -7 23212.4 751.572  13 
  -1  -3   7 22994.5 831.726  33 
  -1   3   7 21800.7 813.622   5 
  -1  -3   6 25097.6 941.845  26 
  -1   3   6 21224.7 765.099   5 
   1   3  -6 22481.0 746.121   1 
  -1  -3   6 23204.3 845.534  34 
  -1  -3   6 23012.1 822.376  31 
  -1  -3   6 22246.8 651.422  19 
  -1  -3   6 23376.4 861.599  33 
   1   3  -5 22207.3 682.900   1 
  -1  -3   5 20776.4 699.348  19 
   1   3  -4 25541.5 683.427   1 
  -1  -3   4 25711.2 813.211  18 
   1   3  -3 4686.24 275.533   1 
   1  -3  -3 4675.73 165.334  19 
  -1  -3   3 4569.03 273.858  18 
   1   3  -2 25527.1 573.675   1 
  -1  -3   2 24867.4 538.098  18 
   1  -3  -2 26060.7 491.671  19 
  -1  -3   2 25163.3 496.034  15 
  -1  -3   1 47515.0 714.042  18 
  -1  -3   1 45859.7 572.963  15 
   1   3  -1 46390.6 708.089   1 
   1  -3  -1 46007.6 741.797  19 
   1  -3  -1 44747.3 343.194  18 
   1   3   0 106785. 998.490   1 
  -1  -3   0 111701. 867.334  13 
   1  -3   0 113639. 1224.68  19 
  -1  -3   0 105160. 956.352  16 
  -1  -3   0 110967. 710.348  15 
   1  -3   0 109382. 775.216  18 
   1  -3   1 97125.3 882.969  14 
  -1  -3  -1 93972.1 950.707  16 
  -1  -3  -1 94118.9 1047.51  13 
   1   3   1 92525.2 897.373   1 
   1  -3   1 96855.6 1162.97  19 
  -1  -3  -2 304348. 2243.46  13 
   1   3   2 304415. 1572.67   1 
   1  -3   2 306332. 2090.76  19 
  -1   3  -2 308506. 1949.31  20 
  -1   3  -3 89161.8 1236.92  20 
  -1   3  -3 90117.3 941.219   6 
   1  -3   3 92707.5 1132.02  19 
  -1   3  -4 50324.3 1101.33  20 
   1  -3   4 52734.1 859.497  19 
   1  -3   4 52542.4 914.887  15 
  -1   3  -4 51451.0 733.995   6 
  -1  -3  -5 6912.46 399.918  13 
   1  -3   5 7430.20 333.514  19 
   1  -3   5 6858.51 350.589  28 
   1   3   5 6410.48 404.762   3 
  -1   3  -5 6758.18 464.448  20 
   1  -3   5 6858.79 361.355  15 
   1  -3   6 969.716 158.327  15 
   1  -3   6 975.902 151.310  29 
  -1   3  -6 1330.10 220.761  12 
   1  -3   6 839.623 156.588  23 
  -1   3  -6 944.714 206.375  20 
   1  -3   6 870.085 147.405  31 
   1  -3   6 1238.74 181.844  28 
   1   3   6 996.565 177.675   5 
   1   3   6 695.975 152.858   3 
   1   3   6 951.234 183.841  23 
  -1  -3  -6 791.107 174.339  13 
  -1   3  -7 10389.7 585.721  12 
   1  -3   7 11623.0 524.412  28 
   1  -3   7 10997.5 501.148  29 
   1   3   7 10908.5 578.482  23 
   1  -3   7 11324.9 537.432  23 
  -1  -3  -7 11322.9 545.263  13 
   1   3   7 11148.2 625.525   3 
  -1   3  -7 11104.1 647.215  20 
   1  -3   8 44681.3 1100.33  28 
   1   3   8 48555.3 1265.30  23 
   1  -3   8 48225.2 1051.95  32 
  -1   3  -8 46027.1 1338.32  20 
  -1  -3  -8 49587.3 1290.34   6 
   1   3   8 49408.2 1393.99   3 
   1  -3   8 49923.0 1113.90  29 
  -1   3  -8 49550.3 1284.68  12 
   1  -3   8 49029.0 1177.99  23 
   1   3   8 50158.5 1334.80   5 
   1   3   9 97177.5 1886.18   5 
   1  -3   9 97904.0 1702.60  28 
   1  -3   9 96595.8 1520.68  32 
   1   3   9 97978.6 2012.86   3 
   1   3   9 95397.0 1836.47  23 
   1  -3   9 98779.5 1771.66  23 
   1  -3  10 10992.5 587.793  28 
   1  -3  10 9364.95 552.408  23 
   1   3  10 9718.05 643.927   3 
   1   3  11 9409.41 587.161   3 
   1  -3  11 8996.68 493.536  28 
   1  -3  11 7776.32 471.767  23 
   1   3  12 3333.09 322.654   3 
   1  -3  12 3952.11 289.435  28 
   1  -3  12 4029.91 305.973  23 
  -1  -4  12 2146.23 226.528  23 
  -1   4  12 2053.43 246.227   3 
   1   4 -12 2197.77 222.890  12 
  -1  -4  12 2492.82 215.115  28 
  -1  -4  11 6389.24 427.391  23 
  -1   4  11 5724.37 431.448   3 
   1   4 -11 6185.94 432.218  12 
  -1   4  11 6397.71 459.061   5 
  -1  -4  11 6550.80 388.900  28 
  -1  -4  10 561.549 183.373  23 
  -1   4  10 572.770 170.393   5 
   1   4 -10 433.381 131.842  12 
  -1  -4  10 636.716 137.137  29 
  -1  -4  10 726.205 180.515  28 
  -1   4  10 801.143 199.923   3 
  -1  -4   9 2690.43 263.868  29 
  -1  -4   9 2523.93 281.435  28 
  -1   4   9 2685.48 324.242   5 
  -1   4   8 13686.9 693.123   5 
  -1  -4   8 15043.5 669.461  31 
  -1  -4   8 14748.3 686.339  33 
   1   4  -8 14465.8 731.536  20 
  -1  -4   8 15500.3 702.044  34 
   1  -4  -8 15716.7 705.946  13 
  -1  -4   8 14584.2 593.644  29 
   1   4  -7 4173.30 322.277  11 
  -1  -4   7 4583.30 405.182  34 
  -1   4   7 4271.44 362.631   5 
  -1  -4   7 4626.77 408.591  31 
   1   4  -7 4396.70 388.789  20 
  -1  -4   7 5085.07 413.511  33 
   1  -4  -7 4749.04 367.485  13 
  -1  -4   6 24632.6 912.334  34 
  -1  -4   6 22430.5 905.082  31 
   1   4  -6 25177.6 862.336  20 
  -1  -4   6 24521.1 778.257  19 
  -1   4   6 26041.5 842.595   5 
  -1  -4   6 25695.0 1026.73  26 
  -1  -4   6 25301.5 967.045  33 
   1   4  -6 25702.6 852.543   1 
   1   4  -6 25386.4 779.391  11 
   1   4  -5 44596.2 1021.26  11 
  -1  -4   5 44014.3 1254.05  34 
   1   4  -5 47479.4 1076.80   1 
  -1  -4   5 45339.8 1155.54  19 
   1   4  -4 44653.8 986.182   1 
  -1  -4   4 39816.9 1090.11  18 
  -1  -4   3 19077.2 616.721  18 
   1  -4  -3 18830.4 451.580  19 
  -1  -4   2 8621.48 315.507  15 
  -1  -4   2 9729.48 384.123  18 
   1  -4  -2 9722.27 382.794  19 
   1   4  -2 10178.0 419.627   1 
  -1  -4   1 6732.01 245.038  15 
   1  -4  -1 6548.02 344.451  19 
  -1  -4   1 6909.32 311.310  18 
   1   4  -1 6937.12 323.588   1 
   1  -4   0 24429.3 669.911  19 
  -1  -4   0 25165.7 468.120  13 
   1   4   0 24807.6 564.395   1 
  -1  -4   0 24183.2 403.118  15 
  -1  -4  -1 150814. 1490.69  13 
   1  -4   1 149459. 1232.13  14 
   1  -4   1 151259. 1673.64  19 
   1   4   1 147887. 1300.79   1 
  -1  -4  -1 151948. 1269.19  16 
   1  -4   2 74424.8 1184.25  19 
  -1  -4  -2 72427.3 1242.87  13 
   1   4   2 75326.9 868.584   1 
   1  -4   3 76359.1 1188.79  19 
  -1   4  -3 75734.0 1193.82  20 
  -1  -4  -3 76407.2 1400.34  13 
  -1   4  -4 17987.0 673.236  20 
  -1   4  -4 17572.0 663.338  12 
  -1  -4  -4 19040.8 722.747  13 
   1  -4   4 17815.1 579.558  19 
   1  -4   4 17044.5 568.652  15 
   1  -4   5 9840.76 467.725  15 
  -1   4  -5 9516.47 547.470  20 
   1  -4   5 10021.2 437.365  33 
  -1   4  -5 9462.19 538.852  12 
   1  -4   5 10578.5 470.593  31 
  -1  -4  -5 10024.8 532.154  13 
   1   4   5 9125.59 508.579   3 
   1  -4   5 9736.72 431.215  19 
   1   4   6 6368.03 419.400   5 
  -1   4  -6 5217.30 439.586  20 
   1   4   6 5667.74 431.298   3 
  -1  -4  -6 5800.97 409.167  13 
   1  -4   6 5830.11 385.851  15 
  -1   4  -6 6024.34 363.248   8 
  -1   4  -6 5858.57 457.478  12 
   1  -4   6 6183.54 377.526  28 
   1  -4   6 6529.52 399.535  29 
   1  -4   6 6390.04 385.144  31 
   1  -4   6 6042.44 365.981  23 
  -1  -4  -7 58343.9 1326.72  13 
  -1   4  -7 58361.3 1477.08  12 
   1  -4   7 62541.8 1254.63  29 
   1   4   7 61479.1 1493.97   3 
   1   4   7 61837.3 1422.74   5 
  -1   4  -7 60705.2 1563.34  20 
   1  -4   7 61215.1 1243.63  23 
   1  -4   7 61720.2 1254.17  28 
   1  -4   8 33795.7 985.208  28 
   1  -4   8 34411.5 965.405  29 
   1   4   8 34179.2 1170.83   3 
   1  -4   8 33800.7 834.666  25 
  -1   4  -8 32380.4 1094.70  12 
   1  -4   8 35161.7 1007.49  23 
   1  -4   9 19844.3 774.784  28 
   1  -4   9 20019.6 716.461  32 
   1  -4   9 20208.7 777.710  23 
   1  -4   9 20411.7 747.555  29 
   1   4   9 20517.0 917.440   3 
   1  -4  10 629.606 178.361  28 
   1  -4  10 906.519 155.536  32 
   1   4  10 1036.85 228.053   3 
   1  -4  10 829.501 161.679  23 
   1   4  11 4069.90 360.683   3 
   1  -4  11 3898.21 315.763  23 
   1  -4  11 4309.55 338.875  28 
   1   4  12 3004.27 252.692   3 
   1  -4  12 2968.01 239.381  28 
  -1  -5  11 21080.5 684.470  23 
  -1  -5  11 21059.9 649.732  28 
   1   5 -11 20687.8 733.611  12 
  -1  -5  10 14809.6 622.654  23 
   1   5 -10 15037.0 709.436  12 
  -1  -5  10 15394.0 562.890  29 
  -1  -5  10 14643.2 601.071  28 
  -1  -5   9 8523.69 495.804  23 
  -1  -5   9 9030.80 503.534  28 
   1   5  -9 8616.02 584.573  12 
  -1  -5   9 8913.96 457.280  29 
  -1  -5   8 31578.9 985.222  34 
  -1  -5   8 29231.2 957.392  33 
  -1  -5   8 30215.8 881.901  29 
  -1  -5   8 30661.1 973.365  31 
   1   5  -8 31037.7 1122.96  12 
  -1  -5   7 10137.1 601.918  33 
   1   5  -7 9606.80 593.481  20 
   1   5  -7 10360.0 654.192  12 
   1  -5  -7 9885.37 559.680  13 
  -1  -5   7 10246.3 610.095  31 
  -1  -5   7 10832.2 592.287  34 
   1   5  -6 33648.4 1056.64  20 
   1  -5  -6 33380.3 965.756  13 
  -1  -5   6 34831.3 1093.05  34 
  -1  -5   6 34541.7 1231.94  26 
  -1  -5   6 33423.6 1149.08  33 
  -1  -5   6 32242.9 984.240  19 
  -1  -5   6 30543.9 1114.46  31 
   1   5  -6 34388.3 997.724  11 
   1   5  -6 34288.6 1136.98  12 
  -1  -5   5 23207.8 912.226  19 
  -1  -5   5 20566.3 963.067  33 
   1   5  -5 22655.4 808.591  11 
   1   5  -5 23305.9 826.719   1 
   1   5  -5 25819.6 930.611  12 
  -1  -5   5 23868.3 952.679  34 
   1   5  -5 22043.1 704.333   9 
  -1  -5   5 20165.0 993.254  26 
   1   5  -5 24457.8 843.410  20 
   1   5  -4 4537.68 369.241  11 
   1   5  -4 4306.04 369.945  12 
  -1  -5   4 5068.77 471.160  19 
  -1  -5   4 4868.35 440.449  18 
  -1  -5   4 4411.62 435.497  34 
   1   5  -4 4763.04 358.631   1 
  -1  -5   4 5426.58 467.111  26 
   1   5  -4 5196.96 358.108  20 
   1   5  -3 2699.28 261.752   1 
   1   5  -3 2694.36 238.531  20 
  -1  -5   3 2962.68 284.927  18 
   1   5  -3 2715.49 290.442  11 
   1   5  -3 2752.77 267.584  12 
   1   5  -2 848.407 164.666   1 
   1   5  -2 706.746 139.873  11 
   1  -5  -2 781.139 132.082  19 
  -1  -5   2 840.575 136.656  18 
  -1  -5   2 912.220 112.829  15 
   1   5  -2 853.383 141.966  12 
  -1   5   2 660.953 126.289   9 
   1   5  -1 806.678 140.324  11 
  -1  -5   1 779.180 118.241  18 
   1   5  -1 862.933 153.309   1 
   1  -5   0 3705.20 297.329  19 
   1   5   0 3889.95 264.136   1 
  -1  -5   0 3787.47 253.415  18 
  -1   5   0 3958.03 324.028   9 
  -1   5  -1 190017. 2045.72  12 
   1  -5   1 187868. 2076.14  19 
  -1   5  -1 189146. 2330.61   9 
  -1  -5  -1 184566. 1780.78  13 
   1  -5   2 66209.1 1245.47  19 
  -1   5  -2 65329.9 1361.66   9 
  -1  -5  -2 66014.4 1305.56  13 
  -1   5  -2 66092.1 1253.44  12 
  -1   5  -3 32918.7 921.135   9 
   1  -5   3 33740.6 812.787  15 
  -1   5  -3 34481.3 964.998  12 
   1  -5   3 36283.3 921.233  19 
  -1  -5  -3 32795.7 1055.94  13 
  -1  -5  -4 4810.59 431.281  13 
  -1   5  -4 4487.39 323.546   9 
   1  -5   4 4964.83 350.001  15 
  -1   5  -4 4818.34 402.633  12 
   1  -5   4 5364.03 361.808  19 
   1  -5   4 5167.35 383.135  31 
   1  -5   5 13201.0 578.723  15 
  -1  -5  -5 13609.0 699.985  13 
   1   5   5 13056.5 626.828   3 
  -1   5  -5 13690.4 702.686  12 
   1  -5   5 14760.1 610.837  31 
   1  -5   5 15016.6 597.858  19 
   1  -5   6 914.902 194.442  15 
  -1   5  -6 1026.22 182.623   8 
   1  -5   6 783.734 160.796  31 
   1  -5   6 777.142 178.594  28 
   1   5   6 881.447 194.610   3 
  -1   5  -6 937.454 206.378  12 
  -1  -5  -6 804.045 201.163  13 
   1  -5   6 1092.34 201.979  29 
   1  -5   7 19118.1 733.964  29 
   1  -5   7 19479.7 731.828  28 
  -1   5  -7 18340.9 864.878  12 
   1   5   7 18776.4 822.466   3 
   1  -5   8 39595.3 1047.54  29 
  -1   5  -8 37330.9 1200.80  12 
   1  -5   8 39921.3 1075.29  28 
   1   5   8 38046.6 1204.04   3 
   1  -5   9 4614.42 340.815  32 
  -1   5  -9 4732.62 408.460  12 
   1   5   9 4702.17 419.721   3 
   1  -5   9 4777.67 373.714  28 
   1  -5   9 4651.73 373.461  29 
   1  -5  10 1934.84 213.555  32 
   1   5  10 1777.60 269.197   3 
   1  -5  10 2003.99 251.922  28 
  -1   5 -11 841.372 162.503  10 
   1  -5  11 1121.81 170.461  28 
   1   5  11 1218.79 167.111   3 
  -1  -6  11 1865.54 181.048  28 
   1   6 -11 1671.04 207.344  12 
  -1  -6  10 550.074 96.0940  32 
  -1  -6  10 186.344 72.8951  23 
  -1  -6  10 391.751 114.659  29 
   1   6 -10 431.172 116.987  12 
  -1  -6  10 352.125 137.576  28 
   1   6  -9 5389.15 447.815  12 
  -1  -6   9 5765.85 381.231  23 
  -1  -6   9 5863.38 371.140  29 
  -1  -6   9 5968.85 397.650  28 
  -1  -6   8 7203.65 462.131  28 
  -1  -6   8 7212.18 473.740  31 
  -1  -6   8 7503.93 450.103  29 
   1   6  -8 7115.67 551.580  12 
  -1  -6   7 24575.5 848.590  34 
   1   6  -7 24783.1 1022.48  12 
  -1  -6   7 24248.7 892.415  33 
  -1  -6   7 23123.2 914.190  31 
  -1  -6   6 19153.1 781.292  34 
   1   6  -6 17738.7 865.513  12 
  -1  -6   6 16872.6 866.342  31 
  -1  -6   6 18293.2 855.242  33 
  -1  -6   6 18211.9 778.207  19 
   1   6  -5 70226.7 1644.96  12 
   1   6  -5 65291.5 1315.89   9 
   1  -6  -5 67682.5 1462.64  13 
  -1  -6   5 70446.7 1665.30  19 
  -1  -6   5 58621.6 1750.02  26 
  -1  -6   5 62695.6 1710.50  33 
   1   6  -5 70825.5 1550.69  11 
   1   6  -4 1082.28 204.800   9 
   1   6  -4 933.005 223.385   1 
   1   6  -4 1061.86 207.057  11 
   1   6  -4 788.317 171.466  12 
  -1  -6   4 1202.66 275.557  26 
  -1  -6   4 1068.48 235.336  19 
   1   6  -3 1727.12 251.653   1 
   1   6  -3 1529.38 231.140  12 
   1   6  -3 1438.47 249.615  11 
  -1  -6   3 1970.07 302.946  18 
  -1  -6   3 1538.58 289.435  19 
   1   6  -3 1852.16 237.026   9 
   1   6  -2 811.552 185.815   9 
  -1   6   2 872.082 156.893   8 
  -1  -6   2 862.751 157.284  18 
   1   6  -2 676.374 152.619  12 
   1   6  -2 785.994 160.318   1 
  -1   6   2 825.775 166.640   9 
   1   6  -2 982.319 179.316  11 
  -1  -6   1 1109.02 174.877  18 
   1   6  -1 1005.74 191.356  11 
  -1   6   1 1334.69 178.727   8 
   1  -6  -1 1028.08 160.281  19 
   1   6  -1 1108.49 199.932  12 
  -1   6   1 1404.94 209.488   9 
   1   6   0 5312.33 354.657  12 
  -1   6   0 6110.76 396.582   8 
   1  -6   0 5277.29 374.819  19 
  -1  -6   0 5319.59 336.523  18 
   1   6   0 4926.73 370.653  11 
   1  -6   1 30422.0 902.997  19 
  -1   6  -1 29985.5 1008.43   9 
  -1  -6  -1 30003.5 791.010  18 
   1   6   1 28507.7 862.639   9 
  -1   6  -1 28813.1 802.817  10 
  -1   6  -2 25627.3 915.044   9 
  -1   6  -2 25523.3 858.353  12 
   1  -6   2 27596.2 865.736  19 
  -1   6  -2 25341.1 806.185  10 
   1   6   2 26252.5 787.183   9 
  -1   6  -3 1023.27 206.588  12 
  -1  -6  -3 963.179 246.870  13 
   1   6   3 1043.40 153.373   9 
   1  -6   3 1154.17 198.218  15 
   1  -6   3 1101.86 190.277  19 
  -1   6  -3 1267.53 214.472   9 
  -1   6  -4 1892.84 264.127  12 
   1  -6   4 1580.68 217.545  15 
  -1  -6  -4 1138.75 254.256  13 
   1  -6   4 2066.61 254.934  31 
   1  -6   4 1929.67 238.933  19 
   1  -6   5 11092.5 571.008  15 
  -1   6  -5 12270.1 625.831   8 
  -1  -6  -5 11491.9 728.717  13 
   1  -6   5 12244.6 563.621  28 
  -1   6  -5 12935.8 725.420  12 
   1  -6   5 12462.4 578.999  31 
   1  -6   5 12041.0 582.509  19 
   1  -6   6 5969.34 433.060  29 
   1  -6   6 5986.49 404.618  31 
  -1   6  -6 5341.78 398.725   8 
   1  -6   6 5546.39 397.159  28 
  -1   6  -6 5237.28 486.787  12 
  -1   6  -7 136.222 122.394   8 
   1  -6   7 604.506 167.065  29 
   1  -6   7 334.267 145.987  28 
  -1   6  -7 332.221 145.187  12 
   1  -6   8 1351.80 222.271  28 
   1  -6   8 1486.23 226.987  29 
   1  -6   8 1409.86 207.183  32 
  -1   6  -8 1434.20 248.636  12 
   1  -6   9 1243.65 185.310  32 
  -1   6  -9 1310.89 202.166  12 
   1  -6   9 1293.42 216.182  29 
   1  -6   9 1388.17 217.891  28 
  -1   6 -10 2187.56 252.843  10 
   1  -6  10 2152.60 224.749  28 
   1  -6  10 2453.75 221.674  32 
   1   7 -10 3657.85 279.713  12 
  -1  -7  10 3867.40 268.944  28 
  -1  -7   9 1824.27 204.208  28 
  -1  -7   9 1998.07 210.993  29 
   1   7  -9 1970.38 252.146  12 
  -1  -7   8 1253.26 211.857  31 
   1   7  -8 1525.82 206.966   8 
   1   7  -8 1569.15 254.902  12 
  -1  -7   8 1453.28 210.571  29 
  -1  -7   8 1646.75 215.813  28 
   1   7  -7 1774.26 284.133  12 
  -1  -7   7 2419.77 265.245  33 
  -1  -7   7 2185.11 286.785  31 
   1   7  -6 13614.2 585.990   9 
  -1  -7   6 15319.6 710.576  33 
   1   7  -6 13051.0 748.656  12 
  -1  -7   6 14470.4 764.127  31 
   1   7  -5 64945.9 1611.84  12 
   1   7  -5 63947.9 1349.68   9 
   1   7  -4 13253.7 649.248   9 
  -1  -7   4 12110.9 779.614  33 
   1   7  -4 12973.7 702.673  12 
  -1  -7   3 554.019 182.601  19 
   1   7  -3 518.711 184.432   9 
   1   7  -3 824.943 188.153  12 
   1  -7  -3 542.438 219.010  13 
  -1   7   2 3000.44 265.120   8 
  -1  -7   2 2564.61 413.159  19 
   1   7  -2 2934.64 313.143  12 
   1   7  -2 2867.11 330.124   9 
   1   7  -1 6845.93 506.155   9 
   1  -7  -1 6292.22 406.820  19 
   1   7  -1 6185.59 439.248  12 
  -1  -7   1 7375.02 623.352  19 
  -1   7   1 6756.77 421.269   8 
   1   7   0 9557.60 575.321   9 
   1  -7   0 9054.33 513.945  19 
  -1   7   0 9431.41 590.693   9 
  -1   7   0 9049.70 518.440   8 
   1  -7   1 9548.68 529.615  19 
  -1   7  -1 10802.8 610.043   8 
  -1   7  -1 9185.71 594.694   9 
   1   7   1 10048.0 567.474   9 
   1  -7   2 42806.6 1139.94  19 
  -1   7  -2 39210.3 1208.36   8 
   1   7   2 40880.0 1055.82   9 
  -1   7  -2 41196.1 1060.72  10 
  -1   7  -2 40935.4 1230.40   9 
   1   7   3 4027.49 323.585   9 
  -1   7  -3 4038.01 407.098   8 
   1  -7   3 4205.00 364.498  19 
  -1   7  -3 4238.97 402.117  12 
   1  -7   3 3966.68 354.373  15 
  -1   7  -3 3786.35 347.549  10 
   1  -7   4 144.807 117.121  28 
  -1   7  -4 130.082 143.654   8 
  -1   7  -4 246.396 154.475  12 
  -1   7  -4 48.3697 88.5772  10 
  -1   7  -5 1251.60 230.361   8 
  -1   7  -5 1796.59 300.783  12 
   1  -7   5 1851.03 249.436  28 
   1  -7   6 2150.10 235.300  31 
  -1   7  -6 1756.07 258.069   8 
   1  -7   6 2133.69 249.915  29 
   1  -7   6 1783.60 232.606  28 
  -1   7  -6 1999.12 334.172  12 
  -1   7  -7 978.341 182.070   8 
   1  -7   7 1122.50 181.056  28 
  -1   7  -7 1248.89 248.443  12 
   1  -7   7 1069.79 193.393  29 
   1  -7   8 13193.3 502.658  25 
   1  -7   8 13108.9 555.797  28 
  -1   7  -8 12287.7 608.438  12 
  -1   7  -8 13305.6 678.562  10 
   1  -7   8 13869.5 575.454  32 
   1  -7   8 13456.9 557.596  29 
   1  -7   9 995.738 159.715  28 
   1  -7   9 855.034 145.051  29 
  -1   7  -9 795.897 169.341  10 
   1  -7   9 837.346 136.417  32 
   1   8  -9 632.624 128.706  12 
  -1  -8   9 645.039 120.811  28 
   1   8  -8 7247.88 359.859   8 
  -1  -8   8 7886.39 383.011  29 
   1   8  -8 7303.34 426.406  12 
  -1  -8   8 7652.02 382.547  28 
   1   8  -7 9426.39 474.948   8 
  -1  -8   7 10314.8 494.059  29 
   1   8  -7 8962.42 538.774  12 
  -1  -8   7 9415.00 470.120  31 
  -1  -8   7 10275.0 483.016  28 
   1   8  -6 12526.6 674.728  12 
  -1  -8   6 13397.6 643.320  31 
  -1  -8   5 22105.8 953.002  31 
   1   8  -5 19955.6 732.908   9 
   1   8  -5 20706.1 877.201  12 
   1   8  -4 63610.0 1505.86  12 
   1   8  -4 61723.5 1377.87   9 
   1   8  -3 2170.08 280.388  12 
   1   8  -3 2655.13 320.615   9 
   1   8  -2 4111.99 417.707   9 
  -1   8   1 391.352 132.736   8 
   1   8  -1 563.443 219.353   9 
   1   8   0 9570.02 591.982   9 
  -1   8   0 9331.52 532.962   8 
  -1   8  -1 3299.52 339.813   8 
   1   8   1 4228.39 389.073   9 
  -1   8  -2 30607.9 1066.54   8 
   1   8   2 30435.4 930.915   9 
  -1   8  -3 5058.85 466.807   8 
   1   8   3 5902.55 393.777   9 
  -1   8  -4 987.846 248.444   8 
  -1   8  -4 1703.37 251.073  10 
   1  -8   5 2625.89 288.732  29 
  -1   8  -5 2289.42 301.318   8 
   1  -8   5 2428.30 231.832  28 
  -1   8  -5 2755.48 320.190  10 
  -1   8  -6 1744.90 230.534   8 
   1  -8   6 2210.91 252.543  29 
   1  -8   6 2075.31 221.426  28 
  -1   8  -6 1814.12 273.043  10 
  -1   8  -7 15521.0 564.158   8 
   1  -8   7 16067.2 590.417  32 
  -1   8  -7 15466.4 661.644  10 
   1  -8   7 16666.4 579.689  28 
   1  -8   7 16687.0 592.818  29 
   1  -8   8 13647.4 481.863  28 
  -1   8  -8 13043.9 549.931  10 
   1  -8   8 13020.3 440.290  25 
   1  -8   8 13868.9 507.057  32 
   1  -8   8 13727.4 490.384  29 
  -1  -9   7 384.526 77.3985  29 
   1   9  -7 258.375 78.1980   8 
  -1  -9   7 478.040 105.840  28 
  -1  -9   6-96.7828 55.1265  31 
   1   9  -6 76.1146 98.5784   8 
  -1  -9   6 83.6293 92.7470  29 
  -1  -9   6 81.9372 66.9716  28 
  -1  -9   5 2333.09 247.454  31 
   1   9  -5 2036.17 233.136   8 
   1   9  -4 16042.2 643.118   9 
   1   9  -4 16441.4 691.514   8 
   1   9  -3 232.502 128.002   9 
   1   9  -2 262.936 189.687   9 
  -1   9   1 1176.72 196.850   8 
   1   9  -1 1154.98 186.112   8 
   1   9  -1 1131.36 250.086   9 
  -1   9   0 1045.84 187.736   8 
   1   9   0 1211.81 202.933   8 
   1   9   0 1276.78 254.176   9 
  -1   9  -1 5807.16 428.562   8 
   1   9   1 5941.93 426.025   9 
   1   9   2 567.256 122.594   9 
  -1   9  -2 793.889 189.823   8 
   1  -9   3 8367.01 432.674  29 
  -1   9  -3 8507.56 525.100   8 
   1  -9   4 2709.76 248.623  29 
  -1   9  -4 3082.81 318.680   8 
   1  -9   5 4724.95 307.132  32 
   1  -9   5 4786.93 304.223  29 
  -1   9  -5 4686.46 351.140   8 
   1  -9   6 4484.93 285.738  32 
   1  -9   6 4428.89 279.423  29 
  -1   9  -6 4343.47 289.601   8 
   1  10  -4 4805.03 305.036   8 
   1  10  -3 2488.79 235.932   8 
   1  10  -2 8787.64 423.884   8 
   1  10  -1 5831.67 346.092   8 
  -1  10   0 126.518 66.0634   8 
  -1  10  -1 20310.3 665.827   8 
  -1  10  -2 5064.77 342.985   8 
  -1  10  -3 1383.60 197.293   8 
  -1  10  -4 1031.28 149.349   8 
  -2   0  13 368.624 105.683   5 
  -2   0  13 183.220 62.8763  23 
  -2   0  12 6556.20 412.232  23 
  -2   0  12 6366.45 481.183   5 
  -2   0  11 958.669 182.156  23 
  -2   0  11 801.912 243.643   5 
  -2   0  10 18978.8 757.839  23 
  -2   0  10 19494.7 887.955   5 
  -2   0   9 1743.31 240.146  23 
  -2   0   9 971.596 211.504   5 
  -2   0   8 6041.49 486.576   5 
  -2   0   8 5514.41 381.529  34 
  -2   0   8 5863.28 451.396  21 
  -2   0   7 17075.6 809.192   5 
  -2   0   7 17315.5 784.281   7 
  -2   0   7 18683.6 757.487  21 
  -2   0   7 17654.2 649.287  34 
   2   0  -6 13177.3 446.422   1 
   2   0  -5 53991.0 853.200   1 
   2   0  -4 3723.25 202.849   1 
  -2   0   3 3943.00 225.083  18 
   2   0  -3 3749.90 184.974   1 
  -2   0   2 121953. 937.246  18 
   2   0  -2 124506. 818.263  17 
   2   0  -2 123438. 1028.09  14 
   2   0  -2 122069. 983.207   1 
   2   0  -1 117994. 973.509  14 
   2   0  -1 115459. 823.035  17 
  -2   0   1 115319. 941.971   6 
  -2   0   0 97894.3 914.196  16 
  -2   0   0 97962.3 866.194   6 
  -2   0  -1 8023.63 283.247  16 
  -2   0  -1 8132.02 270.283   6 
  -2   0  -2 125692. 1173.51   6 
   2   0   3 98309.4 877.964  15 
  -2   0  -3 102476. 1185.09   6 
  -2   0  -4 51942.5 954.507   6 
   2   0   4 52524.9 724.018  15 
  -2   0  -5 4075.30 300.693   6 
   2   0   6 1646.06 214.756  23 
  -2   0  -6 1699.93 208.282   6 
   2   0   6 1816.54 211.772  28 
   2   0   6 1600.35 180.955  32 
   2   0   6 1784.07 235.938   3 
   2   0   7 157.129 85.2388   3 
   2   0   7 118.128 123.293  23 
   2   0   7 156.632 91.8011  32 
  -2   0  -7 26.5361 57.7625   6 
   2   0   7 202.727 139.779  28 
   2   0   8 98.7127 174.567  23 
   2   0   8 44.8353 121.348  28 
   2   0   8-82.8700 59.2568   3 
  -2   0  -8-64.9470 81.6327   6 
   2   0   9 2991.17 364.679  23 
   2   0   9 3899.04 377.894  28 
   2   0   9 3330.89 383.570   3 
   2   0  10 40058.8 1205.01  23 
   2   0  10 41070.4 1113.70  28 
   2   0  10 41415.5 1250.15   3 
   2   0  11 17003.2 745.331  23 
   2   0  11 16786.0 753.505   3 
   2   0  11 17365.0 683.070  28 
   2   0  12 417.892 172.195   3 
  -2  -1  13-93.4692 57.8970   5 
  -2   1  13 159.261 105.965   5 
  -2  -1  13 130.980 81.3751  23 
  -2  -1  12 138.986 75.4024   5 
  -2   1  12 14.1902 118.458   5 
  -2  -1  12 258.760 125.494  23 
  -2   1  12 7.82899 77.0588  23 
  -2   1  11 7534.99 464.192  23 
  -2  -1  11 8122.85 514.443  23 
  -2   1  11 7569.90 572.111   5 
  -2  -1  11 7387.88 522.756   5 
  -2   1  10 202.332 114.759  23 
  -2  -1  10 390.284 160.449  23 
  -2  -1  10 109.022 142.534   5 
  -2   1  10 216.809 180.923   5 
  -2   1   9 2387.35 352.810   5 
  -2   1   9 2239.68 255.516  23 
  -2  -1   9 2329.83 307.189  21 
  -2  -1   9 2372.30 294.108  34 
  -2  -1   9 2443.99 333.529   5 
  -2  -1   8 2627.31 332.493  21 
  -2  -1   8 2263.29 291.754  34 
  -2   1   8 2191.34 221.454  23 
  -2   1   8 2582.73 335.188   5 
  -2  -1   8 2569.14 322.389   5 
  -2  -1   7 4533.94 424.449   5 
  -2   1   7 4215.33 404.731   5 
  -2  -1   7 4398.09 388.283  21 
  -2   1   7 4090.37 406.765   7 
  -2   1   7 4524.01 382.057  21 
  -2   1   7 3813.54 292.960  34 
  -2  -1   7 4282.26 320.838  33 
  -2  -1   7 3465.46 261.822  31 
   2   1  -7 3957.37 300.216   1 
  -2  -1   7 4431.56 369.740  34 
  -2  -1   6 23851.0 822.119  26 
   2   1  -6 24499.7 682.116   1 
  -2  -1   6 24625.9 878.472  34 
  -2   1   6 24431.6 810.732  21 
   2   1  -5 2076.56 192.964   1 
   2  -1  -5 2076.19 138.789   1 
   2   1  -4 134447. 1027.45  14 
  -2  -1   4 135809. 1682.54  18 
   2  -1  -4 135120. 1055.58   1 
   2   1  -4 135925. 1329.89   1 
   2   1  -3 33298.3 486.427  14 
   2  -1  -3 32355.9 332.839  17 
  -2  -1   3 33197.6 636.737  18 
   2  -1  -3 31764.9 473.111   1 
   2   1  -3 33809.3 604.699   1 
  -2   1   2 421.322 67.1246  18 
   2   1  -2 427.099 76.0267   1 
  -2  -1   2 310.267 68.2977  18 
  -2   1   1 155420. 705.774  18 
   2   1  -1 154023. 1067.55  17 
  -2  -1   1 153316. 996.934   6 
  -2  -1   0 16707.6 349.899   6 
  -2   1   0 16470.2 389.644   6 
  -2   1   0 16744.7 332.398  16 
   2   1   0 16113.7 352.437  17 
  -2  -1   0 16564.4 407.838  16 
  -2  -1  -1 30582.7 522.523   6 
  -2  -1  -1 30498.7 586.709  16 
  -2   1  -1 29773.0 536.539   6 
   2   1   1 29673.0 508.507  17 
  -2   1  -1 31157.0 497.226  16 
  -2  -1  -2 17906.9 460.267   6 
   2   1   2 17522.0 418.118  17 
  -2   1  -2 17563.9 440.114   6 
   2   1   2 18478.4 262.614  15 
  -2  -1  -3 13081.2 455.914   6 
  -2   1  -3 12722.6 412.168   6 
   2   1   4 29582.6 596.522  17 
   2  -1   4 27383.1 577.203  15 
  -2  -1  -4 28015.7 750.412   6 
  -2   1  -4 29081.9 693.578   6 
   2  -1   5 29759.5 662.963  15 
  -2  -1  -5 32349.1 871.001   6 
  -2   1  -5 31031.9 782.576   6 
   2   1   5 30918.6 638.728  17 
   2   1   6 7726.44 456.337  23 
   2  -1   6 7804.87 361.780  25 
   2   1   6 7960.85 495.949   3 
   2  -1   6 7349.04 437.247  23 
   2   1   6 7864.25 330.249  17 
   2  -1   6 7905.40 400.383  32 
   2  -1   6 7734.96 450.796   3 
  -2  -1  -6 7909.18 456.222   6 
  -2   1  -6 7754.39 428.192   6 
   2   1   6 7133.64 414.120  28 
   2  -1   6 8429.85 445.424  28 
  -2  -1  -7 5250.42 396.846   6 
   2  -1   7 5335.63 412.672  23 
   2  -1   7 5416.41 349.900  32 
   2   1   7 5069.05 374.460  28 
   2  -1   7 5208.19 405.058   3 
   2   1   7 4902.22 429.338   3 
  -2   1  -7 4945.92 359.965   6 
   2   1   7 4526.96 381.161  23 
   2  -1   7 5248.77 370.787  28 
   2  -1   8 2229.27 288.003  23 
   2  -1   8 2443.38 299.679  28 
   2  -1   8 2377.08 248.589  32 
  -2  -1  -8 2030.84 287.396   6 
   2   1   8 2261.82 305.320   3 
   2  -1   8 2023.51 282.762   3 
   2   1   8 2040.64 287.347  23 
   2   1   8 1832.92 246.132  28 
   2  -1   9 18167.7 810.299   3 
   2  -1   9 16921.6 773.703  23 
   2  -1   9 17342.4 738.629  28 
   2   1   9 17586.0 823.961  23 
   2   1   9 18858.1 878.607   3 
   2   1   9 16521.4 727.228  28 
   2  -1  10 45248.0 1177.39  28 
   2   1  10 42597.0 1119.87  28 
   2  -1  10 41696.8 1200.62  23 
   2   1  10 45506.0 1333.33   3 
   2  -1  10 44164.5 1244.39   3 
   2   1  10 44355.5 1272.03  23 
   2  -1  11 4480.46 379.981   3 
   2  -1  11 3916.86 348.371  28 
   2   1  11 4060.19 393.026   3 
   2  -1  11 3757.73 353.396  23 
   2  -1  12 2963.49 249.843  28 
   2   1  12 2755.00 292.828   3 
   2  -1  12 3277.83 285.954   3 
  -2   2  13 1.59437 14.9637   3 
  -2  -2  13-89.0749 43.0240  23 
  -2  -2  12 3330.62 305.699  23 
  -2   2  12 2982.74 330.208   5 
  -2  -2  12 3431.49 324.978   5 
  -2  -2  11 980.481 202.294   5 
  -2   2  11 1140.72 247.595   5 
  -2  -2  11 1289.01 199.700  23 
  -2   2  10 40024.9 1285.22   5 
  -2  -2  10 39812.6 1191.27   5 
  -2  -2   9 10273.6 592.256  34 
  -2   2   9 11602.8 702.703   5 
  -2  -2   9 11410.1 636.899   5 
  -2  -2   8 5723.32 443.680   5 
  -2   2   8 4337.42 422.329   5 
  -2  -2   8 4806.33 396.283  21 
  -2  -2   8 4987.67 389.393  33 
  -2  -2   8 4308.38 332.549  31 
  -2  -2   8 5190.54 431.803  34 
   2  -2  -8 4605.06 317.524  13 
  -2  -2   7 5293.21 354.955  31 
  -2   2   7 4729.30 437.536   5 
  -2  -2   7 5995.65 451.048  21 
  -2  -2   7 5121.85 444.502  34 
  -2  -2   7 5446.47 408.464  33 
   2   2  -7 5727.93 384.218   1 
  -2  -2   7 5540.73 444.366   5 
  -2  -2   6 6367.39 401.589  31 
   2   2  -6 7091.32 407.986   1 
  -2   2   6 6872.02 536.537   7 
  -2  -2   6 6527.04 490.324  33 
  -2   2   6 7161.64 446.680  21 
  -2  -2   6 6200.63 500.051  34 
  -2  -2   6 7400.37 536.679  26 
  -2  -2   5 50227.3 1269.18  18 
   2   2  -5 58250.1 1058.10   1 
  -2  -2   4 53708.3 1060.75  18 
   2   2  -4 51650.0 916.354   1 
   2   2  -3 273885. 1948.58   1 
   2  -2  -3 276595. 1108.73   1 
  -2  -2   3 275574. 1953.66  18 
   2   2  -2 54896.4 825.125   1 
  -2  -2   2 56795.2 817.111  18 
  -2  -2   2 54827.4 498.474   6 
  -2  -2   1 6754.93 202.375   6 
   2   2  -1 6813.43 284.120   1 
   2  -2   0 1241.98 121.969  14 
  -2   2   0 1125.00 121.188   6 
  -2  -2   0 1108.85 121.064  16 
  -2  -2   0 1296.42 101.862   6 
  -2  -2  -1 933.878 104.937   6 
  -2   2  -1 684.382 98.5074   6 
  -2   2  -1 780.305 71.1165  16 
  -2  -2  -1 911.965 118.872  16 
   2  -2   1 816.716 100.650  14 
   2   2   2 152618. 1318.01  17 
  -2   2  -2 152408. 1347.33   6 
   2   2   3 112166. 1161.03  17 
  -2   2  -3 109998. 1226.89   6 
   2   2   4 107227. 1181.80  17 
  -2   2  -4 104279. 1282.54   6 
   2  -2   4 104092. 1244.65  15 
  -2  -2  -4 108965. 1624.66   6 
   2   2   5 1188.51 188.879   3 
   2   2   5 931.100 168.927  23 
   2  -2   5 1392.42 167.841  32 
   2   2   5 1542.15 153.997  17 
   2  -2   5 1245.15 162.424  29 
   2  -2   5 1242.72 165.700  28 
   2   2   5 1312.91 183.927  28 
   2  -2   5 1159.12 166.085  15 
  -2   2  -5 1498.79 168.710   6 
  -2  -2  -5 1170.08 201.535   6 
   2   2   6 397.727 136.283  23 
   2  -2   6 388.099 124.795  23 
   2   2   6 277.670 125.001   3 
   2  -2   6 289.314 116.011  15 
   2  -2   6 347.182 113.455  32 
   2  -2   6 225.626 111.292  28 
   2  -2   6 145.668 100.244  29 
   2  -2   6 414.290 91.2473  25 
   2   2   6 254.310 105.488  28 
  -2   2  -6 395.107 106.991   6 
  -2  -2  -6 182.118 105.914   6 
   2  -2   7 4933.23 374.042  23 
   2  -2   7 4870.88 341.432  32 
  -2  -2  -7 4774.56 401.039   6 
   2   2   7 4912.17 436.759   3 
   2   2   7 4861.76 390.415  28 
   2  -2   7 5142.87 371.185  28 
   2   2   7 4938.13 411.881  23 
   2  -2   7 5203.85 318.749  25 
   2  -2   8 15675.8 702.784  23 
   2  -2   8 16076.5 686.851  28 
   2  -2   8 15680.8 626.034  32 
   2   2   8 16458.0 823.375   3 
   2   2   8 15169.6 764.612  23 
   2   2   8 15327.2 684.097  28 
  -2  -2  -8 15236.7 724.286   6 
   2   2   9 42516.5 1140.65  28 
   2  -2   9 42289.8 1186.38  23 
   2   2   9 44679.5 1380.30   3 
   2   2   9 43800.5 1302.11  23 
   2  -2   9 45321.1 1191.97  28 
   2  -2   9 45672.7 1061.70  32 
   2  -2  10 36637.8 1089.90  23 
   2  -2  10 39133.2 1097.06  28 
   2   2  10 37881.2 1235.48   3 
   2  -2  11 4060.02 343.568  28 
   2   2  11 3675.59 367.312   3 
   2  -2  11 3390.96 327.370  23 
   2   2  12 3730.13 331.763   3 
   2  -2  12 3620.58 273.642  28 
  -2  -3  12 3792.69 320.748  23 
  -2   3  12 3781.08 328.353   3 
   2   3 -12 3838.79 333.445  12 
  -2   3  12 3815.43 340.768   5 
  -2  -3  11 10497.0 557.840  23 
  -2   3  11 10216.9 612.444   5 
  -2   3  10 45613.8 1336.23   5 
  -2  -3  10 44368.6 997.939  28 
  -2  -3   9 20811.9 841.341  34 
  -2  -3   9 18946.3 676.788  28 
  -2   3   9 19292.7 869.856   5 
  -2   3   8 1920.56 283.823   5 
  -2  -3   8 1942.85 294.809  33 
  -2  -3   8 2281.58 313.074  34 
  -2  -3   8 2040.33 258.877  31 
   2  -3  -8 1937.91 237.041  13 
  -2  -3   7 612.416 204.701  34 
  -2  -3   7 595.922 207.862  26 
  -2   3   7 695.325 172.577   5 
   2   3  -7 812.618 193.346   1 
  -2  -3   7 671.872 185.445  31 
  -2  -3   7 543.409 213.914  33 
  -2   3   6 13408.1 693.894   5 
  -2  -3   6 11468.2 647.513  31 
   2   3  -6 14182.3 607.748   1 
  -2   3   6 13988.0 779.748   7 
  -2  -3   6 13379.3 590.590  19 
  -2  -3   6 12951.0 743.781  34 
  -2  -3   6 12486.5 741.023  33 
  -2  -3   6 13619.2 827.631  26 
  -2  -3   5 42438.3 1221.79  34 
  -2  -3   5 39481.3 1170.01  18 
  -2   3   5 40559.9 1271.02   7 
   2   3  -5 43362.6 994.226   1 
  -2  -3   5 37778.0 1295.83  26 
  -2  -3   4 123182. 1693.62  18 
   2   3  -4 125413. 1573.44   1 
   2   3  -3 109590. 1360.84   1 
  -2  -3   3 102479. 1320.57  18 
  -2  -3   2 8792.41 366.978  18 
   2   3  -2 8670.97 368.102   1 
   2   3  -1 3933.18 241.831   1 
  -2  -3   1 3851.25 155.342   6 
   2   3   0 18198.9 492.171   1 
   2  -3   0 17694.0 484.484  14 
  -2  -3   0 17149.6 476.898  16 
  -2  -3   0 17806.8 396.109   6 
   2  -3   0 17058.2 428.737  19 
   2  -3   1 6943.26 294.099  19 
  -2  -3  -1 6444.48 310.623  16 
  -2  -3  -1 6374.13 280.174   6 
   2   3   1 5870.32 276.122   1 
   2  -3   1 6419.42 290.155  14 
  -2   3  -2 102434. 1210.01   6 
  -2  -3  -2 102478. 1335.67   6 
  -2  -3  -3 68467.3 1293.15   6 
  -2   3  -3 71256.1 1036.18   6 
   2  -3   4 175642. 1802.01  15 
  -2   3  -4 175003. 1696.97   6 
   2  -3   4 169200. 1695.21  29 
   2   3   4 175934. 2158.12   3 
   2  -3   5 4088.20 293.631  29 
  -2   3  -5 4223.68 280.636   6 
   2  -3   5 3855.80 293.676  28 
   2   3   5 3970.85 354.395   3 
   2  -3   5 4070.64 304.866  15 
  -2  -3  -5 4302.67 395.385   6 
   2   3   6 154.149 127.847   3 
   2  -3   6 251.107 105.553  23 
   2  -3   6 213.576 124.067  15 
   2  -3   6 326.337 122.335  32 
   2  -3   6 297.207 115.122  29 
   2  -3   6 440.156 125.699  28 
   2  -3   6 348.977 95.8995  25 
   2  -3   7 4379.98 379.388  23 
   2  -3   7 5016.45 353.735  32 
  -2  -3  -7 4908.05 424.657   6 
   2   3   7 4437.46 417.527   3 
   2  -3   7 4655.51 366.867  28 
   2  -3   7 4526.19 359.444  29 
   2  -3   7 4503.22 316.534  25 
   2  -3   8 21758.0 811.619  23 
   2  -3   8 20590.2 744.061  32 
   2   3   8 21811.6 971.562   3 
   2  -3   8 21709.3 806.565  28 
   2  -3   8 21578.5 688.332  25 
   2  -3   9 54975.6 1305.86  23 
   2  -3   9 53740.6 1187.28  32 
   2   3   9 55476.7 1555.29   3 
   2  -3   9 55233.8 1320.20  28 
   2   3  10 5447.90 484.436   3 
   2  -3  10 5693.30 422.887  23 
   2  -3  10 5974.52 428.245  28 
   2  -3  10 5612.56 356.033  32 
   2  -3  11 10763.4 515.937  23 
   2   3  11 11189.7 604.342   3 
   2  -3  11 12206.5 554.969  28 
   2   3  12 1182.42 188.436   3 
   2  -3  12 1283.13 160.209  28 
  -2   4  12 554.697 138.512   5 
  -2  -4  12 397.216 112.168  23 
   2   4 -12 328.457 96.9907  12 
  -2  -4  11 37388.1 980.638  23 
   2   4 -11 37852.3 1070.95  12 
  -2  -4  11 37873.4 856.121  28 
  -2   4  11 36559.2 1021.70   5 
  -2   4  11 35631.7 952.319   3 
  -2  -4  10 28100.0 803.599  28 
  -2   4  10 25769.2 938.487   5 
  -2  -4   9 2832.39 320.970  33 
  -2  -4   9 2613.20 318.847  34 
  -2   4   9 2214.75 284.120   5 
  -2  -4   9 2564.36 305.116  31 
  -2  -4   9 2535.38 264.864  28 
  -2  -4   8 320.991 171.641  31 
  -2   4   8 382.200 151.336   5 
  -2  -4   8 171.551 182.437  33 
  -2  -4   8 450.445 194.339  34 
  -2   4   7 3708.46 363.705   5 
   2   4  -7 3571.85 368.939   1 
  -2  -4   7 3552.25 395.840  31 
  -2  -4   7 3537.27 413.387  34 
  -2  -4   7 4596.35 458.875  33 
   2   4  -7 3787.30 336.686  11 
  -2  -4   7 4407.93 493.932  26 
  -2  -4   6 8356.57 620.363  34 
  -2   4   6 8213.16 517.403   5 
   2   4  -6 8801.64 516.884   1 
  -2  -4   6 8641.58 539.092  19 
   2   4  -6 8528.45 471.630  11 
  -2  -4   6 7416.28 667.682  26 
  -2  -4   6 7367.23 611.076  33 
  -2  -4   5 35980.4 1326.73  26 
  -2   4   5 32346.3 1185.17   7 
  -2  -4   5 31947.4 1152.11  34 
  -2  -4   5 32928.6 1142.41  18 
   2   4  -5 35682.1 981.497   1 
   2   4  -4 15197.1 612.976   1 
  -2   4   4 14368.6 775.820   7 
  -2  -4   4 14555.2 643.494  18 
  -2   4   4 15006.1 605.789   4 
  -2  -4   3 121735. 1596.08  18 
   2   4  -3 121601. 1607.73   1 
  -2  -4   2 10881.5 452.424  18 
   2   4  -2 11034.9 455.919   1 
   2   4  -1 6582.42 340.337   1 
  -2  -4   1 5966.44 335.932  18 
   2  -4   0 13423.2 432.869  19 
  -2  -4   0 13418.3 366.267   6 
   2   4   0 13622.1 465.459   1 
   2  -4   0 13087.4 462.112  14 
   2   4   1 9869.66 392.204   1 
   2  -4   1 9524.22 386.337  19 
  -2  -4  -1 9379.24 364.805   6 
  -2  -4  -1 9156.11 387.434  16 
   2  -4   1 9508.75 373.532  14 
   2  -4   2 111190. 1364.11  19 
  -2  -4  -2 112665. 1479.26  16 
   2   4   2 112318. 1299.79   1 
   2  -4   3 387887. 2617.84  19 
  -2   4  -3 381750. 3509.18   8 
  -2  -4  -3 381857. 2867.55  16 
   2   4   3 382188. 3071.45   3 
   2  -4   4 41381.4 953.369  15 
  -2   4  -4 42802.6 1172.53   8 
  -2  -4  -4 39325.7 959.830  16 
   2   4   4 40853.9 1100.94   3 
  -2   4  -4 43674.9 1076.80  12 
   2  -4   4 42113.3 921.135  29 
   2  -4   4 41822.3 896.224  28 
   2   4   5 3592.45 357.803   3 
   2  -4   5 3913.21 325.832  15 
  -2   4  -5 3539.94 322.260   8 
  -2   4  -5 3861.43 359.743  12 
  -2  -4  -5 3971.38 421.059   6 
   2  -4   5 3865.50 305.142  28 
   2  -4   5 3716.68 298.690  29 
   2  -4   6 5253.85 374.537  28 
   2  -4   6 5239.43 364.461  29 
   2  -4   6 5002.03 384.574  15 
   2  -4   6 5044.40 359.768  32 
  -2  -4  -6 5408.18 469.096   6 
   2   4   6 5248.11 450.756   3 
   2  -4   7 4294.91 348.203  32 
   2   4   7 4358.73 433.672   3 
  -2  -4  -7 4520.84 428.590   6 
   2  -4   7 4166.55 355.389  29 
   2  -4   7 4263.82 355.335  28 
   2  -4   7 4335.66 330.396  25 
   2   4   8 4578.00 464.677   3 
   2  -4   8 4229.09 375.783  29 
   2  -4   8 4478.20 386.353  28 
   2  -4   8 4319.85 369.605  32 
   2  -4   8 4828.92 352.205  25 
   2  -4   9 5936.50 399.811  32 
   2  -4   9 6004.71 438.926  28 
   2   4   9 6774.95 547.198   3 
  -2   4 -10 1754.04 238.034  10 
   2  -4  10 2095.58 258.493  28 
   2  -4  10 2064.71 223.966  32 
   2   4  10 1903.15 280.008   3 
   2   4  11 339.360 150.721   3 
   2  -4  11 226.200 103.268  28 
  -2   4 -11 488.816 123.106  10 
  -2  -5  11 20490.7 670.355  23 
   2   5 -11 19727.0 717.513  12 
  -2  -5  11 20359.4 605.529  28 
   2   5 -10 19517.4 804.046  12 
  -2  -5  10 20584.1 676.507  28 
  -2  -5  10 20274.0 727.499  23 
  -2  -5   9 3373.44 333.887  31 
   2   5  -9 3280.98 371.253  12 
  -2  -5   9 3164.14 328.444  34 
  -2  -5   9 3369.40 347.580  33 
  -2  -5   9 3449.99 278.424  29 
  -2  -5   9 3403.66 309.439  28 
  -2  -5   8 7178.56 518.685  34 
   2   5  -8 7040.07 438.029  11 
   2   5  -8 6856.88 540.141  12 
  -2  -5   8 7484.53 538.565  33 
  -2  -5   8 7526.99 522.310  31 
  -2  -5   7 3124.06 376.984  34 
  -2  -5   7 2471.25 354.880  31 
   2   5  -7 3143.11 332.350  20 
   2   5  -7 2485.25 331.346  12 
  -2  -5   7 2840.61 393.991  33 
   2   5  -7 2909.85 305.065  11 
  -2  -5   7 3189.69 426.984  26 
  -2  -5   6 2303.34 400.318  33 
  -2  -5   6 1885.49 354.337  34 
   2   5  -6 2803.83 302.230  20 
  -2  -5   6 2741.93 362.357  19 
   2   5  -6 2661.47 315.986   1 
   2   5  -6 2401.93 323.308  12 
   2   5  -6 2874.73 299.624  11 
  -2  -5   6 2415.08 434.312  26 
  -2  -5   5 4883.01 550.130  26 
   2   5  -5 5496.15 427.637   1 
  -2  -5   5 5363.03 473.077  19 
  -2  -5   5 4385.77 484.620  18 
   2   5  -5 5454.43 444.943  12 
  -2  -5   5 4784.23 502.954  34 
   2   5  -5 4896.78 383.528  11 
  -2  -5   4 6660.30 510.625  34 
   2   5  -4 6126.18 422.971  12 
  -2  -5   4 6852.78 505.101  18 
   2   5  -4 7441.92 461.310   1 
   2   5  -4 6715.35 452.280  11 
   2   5  -3 2235.51 249.745  12 
  -2   5   3 2546.61 212.268   8 
  -2   5   3 1926.41 221.038   4 
   2   5  -3 2133.80 253.888   1 
  -2   5   3 2489.08 345.991   7 
  -2  -5   3 2427.15 276.258  18 
   2   5  -3 2322.50 261.007  11 
   2  -5  -2 1712.14 154.821  19 
   2   5  -2 1805.58 222.287  11 
  -2   5   2 1679.11 174.900   8 
  -2   5   2 1482.61 192.506   4 
  -2  -5   2 1693.70 207.433  18 
   2   5  -2 1657.82 225.380  24 
   2   5  -2 1876.52 231.645   1 
   2   5  -2 1395.31 189.757  12 
   2   5  -1 745.102 148.151   1 
   2  -5  -1 759.566 127.724  19 
  -2  -5   1 1051.20 167.327  18 
  -2   5   1 688.720 143.365  10 
   2  -5  -1 831.497 156.054  14 
   2   5  -1 570.350 137.578  24 
   2   5  -1 895.383 154.261  11 
  -2   5   1 652.933 133.132   8 
   2   5   0 29193.1 841.073  24 
  -2   5   0 30467.4 839.372   8 
   2  -5   0 30080.9 730.519  19 
  -2  -5   0 31121.3 828.040  18 
   2  -5   0 30580.0 753.047  14 
   2   5   0 30047.6 775.748   1 
   2   5   0 31097.3 852.473  11 
  -2   5   0 30728.7 822.388  10 
  -2   5  -1 19836.8 749.607   8 
   2  -5   1 20277.6 623.485  19 
   2  -5   1 20288.2 583.147  14 
   2   5   1 18353.4 616.630  11 
  -2   5  -1 20167.9 695.457  10 
   2   5   1 20329.2 707.885  24 
   2   5   1 19830.7 609.133   1 
   2   5   2 4929.79 360.101  24 
  -2   5  -2 5755.14 457.675   8 
   2  -5   2 5825.01 342.842  19 
  -2  -5  -2 5700.99 338.854  16 
   2   5   2 5128.05 350.089   3 
  -2   5  -2 6329.60 412.494  12 
  -2  -5  -2 6348.65 387.456   6 
  -2   5  -2 5247.66 374.749  10 
   2   5   3 11638.2 543.307  24 
  -2  -5  -3 11983.0 523.727  16 
  -2   5  -3 11424.1 651.864   8 
   2  -5   3 11835.1 507.095  19 
  -2   5  -3 11760.1 580.553  12 
   2   5   3 10746.3 549.910   3 
   2  -5   3 10574.0 447.743  28 
  -2  -5  -3 10910.5 623.867   6 
  -2   5  -4 34787.9 1107.50   8 
   2  -5   4 34348.4 932.250  15 
  -2   5  -4 35541.4 1066.30  12 
  -2  -5  -4 33235.6 905.003  16 
   2   5   4 33587.6 1021.27   3 
   2  -5   4 35327.9 904.557  29 
  -2  -5  -4 33803.1 1226.27   6 
   2  -5   4 33659.6 853.001  28 
  -2   5  -5 32175.6 997.188   8 
   2  -5   5 30805.0 932.167  15 
   2   5   5 30178.9 1019.32   3 
  -2   5  -5 29573.0 1034.59  12 
   2  -5   5 31769.3 886.010  29 
  -2  -5  -5 32053.6 1245.15   6 
   2  -5   5 30095.9 852.006  28 
   2  -5   6 18223.6 704.323  28 
  -2   5  -6 18083.6 702.917   8 
   2   5   6 18085.0 820.740   3 
  -2   5  -6 16905.2 802.438  12 
   2  -5   6 18723.0 712.312  29 
  -2  -5  -6 19413.6 966.870   6 
   2  -5   6 18547.2 763.905  15 
   2  -5   7 415.822 145.361  32 
   2  -5   7 389.197 142.719  28 
   2  -5   7 384.267 176.308  29 
   2   5   7 309.964 136.840   3 
   2  -5   7 186.846 87.8642  25 
   2  -5   8 993.739 177.397  25 
   2  -5   8 1162.42 209.731  32 
   2  -5   8 1233.77 211.425  29 
   2   5   8 1207.14 233.673   3 
   2  -5   8 1406.75 212.394  28 
   2  -5   9 5117.91 377.745  32 
   2   5   9 4842.36 420.429   3 
   2  -5   9 5616.97 406.799  28 
  -2   5  -9 4775.24 419.821  10 
   2  -5  10 23453.5 679.007  32 
  -2   5 -10 22241.0 774.671  10 
   2  -5  10 23675.3 744.434  28 
   2   5  10 21472.5 803.739   3 
   2  -5  11 12975.9 476.678  28 
   2   6 -11 404.172 116.205  12 
  -2  -6  10 12966.8 521.382  23 
  -2  -6  10 12050.8 486.656  28 
   2   6 -10 12480.8 590.913  12 
   2   6  -9 4357.91 414.097  12 
  -2  -6   9 4600.43 352.991  28 
  -2  -6   9 4630.40 356.669  31 
  -2  -6   9 4070.94 291.367  29 
  -2  -6   8 4182.65 373.713  31 
  -2  -6   8 4361.17 378.397  34 
  -2  -6   8 3521.75 351.679  33 
   2   6  -8 4594.88 437.489  12 
  -2  -6   7 3188.59 401.273  33 
  -2  -6   7 3250.06 365.264  34 
  -2  -6   7 3327.86 433.410  26 
   2   6  -7 3201.59 374.419  12 
   2   6  -7 3188.04 328.067  11 
  -2  -6   7 2835.72 395.874  31 
   2   6  -6 5601.22 378.383   9 
   2   6  -6 5541.17 446.563  11 
  -2  -6   6 6927.58 568.737  34 
  -2  -6   6 5562.78 564.515  33 
   2   6  -6 5330.77 475.389  12 
  -2  -6   6 5094.23 640.782  26 
   2   6  -5 16433.1 676.578   9 
  -2  -6   5 16454.2 911.591  19 
  -2  -6   5 15930.2 1021.25  26 
   2   6  -5 17452.9 780.264   1 
   2   6  -5 17106.3 762.255  11 
  -2  -6   5 16275.7 926.860  34 
   2   6  -5 16068.3 770.341  12 
   2   6  -4 2174.46 286.148   1 
  -2  -6   4 2074.26 368.055  34 
  -2  -6   4 2397.86 339.630  18 
   2   6  -4 1996.08 270.270  12 
   2   6  -3 8168.91 521.207   1 
  -2  -6   3 10077.8 601.734  18 
   2   6  -3 9121.86 562.745  11 
   2   6  -3 8726.61 510.331  12 
  -2   6   2 10029.6 477.106   8 
  -2  -6   2 9647.33 529.373  18 
   2   6  -2 9454.54 532.680   1 
   2   6  -2 9135.16 549.679  11 
   2   6  -2 9646.67 514.773  12 
  -2   6   1 1463.25 197.504   8 
   2   6  -1 1589.60 214.842  12 
   2  -6  -1 1542.06 176.480  19 
  -2  -6   1 1605.43 210.461  18 
   2   6  -1 1832.00 243.816   1 
   2   6  -1 1470.77 237.323  11 
   2  -6  -1 1725.27 225.822  14 
  -2   6   0 2009.30 251.922   8 
   2  -6   0 2001.00 223.967  19 
  -2  -6   0 2388.82 268.440  18 
   2   6   0 1946.70 249.928  11 
  -2   6   0 1964.99 229.015  10 
   2   6   0 1936.91 284.055  24 
  -2   6  -1 16281.9 729.998   8 
   2  -6   1 15669.5 604.542  19 
  -2  -6  -1 16038.2 658.243  18 
   2   6   1 15614.8 609.340  11 
   2   6   1 15538.8 702.528  24 
  -2   6  -1 15679.5 653.534  10 
  -2   6  -2 34486.2 1144.30   8 
   2  -6   2 32510.9 891.340  19 
  -2   6  -2 30397.1 951.700  10 
   2   6   2 32580.1 1017.03  24 
  -2   6  -3 19043.7 875.986   8 
   2  -6   3 19847.6 712.220  19 
   2  -6   3 17595.9 693.794  15 
   2   6   3 18013.7 739.620  24 
  -2   6  -3 18697.5 792.804  10 
  -2   6  -4 8232.51 551.794  12 
  -2   6  -4 8658.36 579.732   8 
   2  -6   4 7697.61 484.944  15 
   2  -6   4 8481.20 475.856  29 
  -2  -6  -4 7304.85 627.003   6 
   2  -6   4 7573.92 421.211  28 
  -2   6  -4 7990.14 556.414  10 
  -2   6  -5 1546.10 237.176   8 
  -2   6  -5 1631.53 281.822  10 
   2   6   5 2021.47 266.775   3 
  -2   6  -5 1589.80 255.943  12 
   2  -6   5 1622.17 242.501  29 
   2  -6   5 1733.38 222.760  28 
  -2   6  -6 3998.20 411.525  12 
  -2   6  -6 4335.36 354.403   8 
   2   6   6 3803.12 375.926   3 
   2  -6   6 4761.50 387.135  32 
   2  -6   6 4463.38 358.626  28 
   2  -6   6 4762.73 380.697  29 
  -2   6  -6 4490.26 480.184  10 
  -2   6  -7 2852.68 318.068  12 
   2  -6   7 2862.62 281.114  28 
   2  -6   7 2965.89 296.284  32 
   2   6   7 3218.16 343.603   3 
   2  -6   7 3011.18 300.957  29 
  -2   6  -7 2939.68 385.990  10 
   2  -6   7 2780.57 269.443  25 
   2  -6   8 2001.26 260.310  32 
   2  -6   8 1767.48 234.856  29 
  -2   6  -8 1922.38 283.545  10 
   2  -6   8 1462.65 206.754  28 
   2  -6   8 1415.66 189.894  25 
   2   6   8 1396.82 248.984   3 
   2  -6   9 974.965 163.229  32 
   2  -6   9 765.901 146.317  28 
   2  -6   9 865.081 111.230  25 
  -2   6  -9 539.700 168.870  10 
   2  -6  10 6509.26 325.230  32 
   2  -6  10 7008.16 356.036  28 
  -2   6 -10 6430.30 381.716  10 
   2   7 -10 15345.6 551.454  12 
  -2  -7  10 16320.3 492.293  28 
  -2  -7   9 7492.00 389.223  28 
   2   7  -9 6689.56 436.299  12 
  -2  -7   9 7552.48 349.710  29 
   2   7  -8 4010.94 383.024  12 
  -2  -7   8 3606.94 323.710  31 
  -2  -7   8 3707.24 289.728  29 
  -2  -7   8 3967.52 329.531  33 
  -2  -7   7 11770.7 627.276  33 
  -2  -7   7 11972.5 565.013  34 
  -2  -7   7 10774.7 621.142  31 
   2   7  -7 11666.6 671.231  12 
   2   7  -6 2653.72 279.967   9 
  -2  -7   6 3268.95 324.300  34 
  -2  -7   6 2433.11 351.656  33 
   2   7  -6 3041.36 344.440  12 
  -2  -7   6 2488.05 369.346  31 
  -2  -7   6 2884.89 395.468  26 
   2   7  -5 11450.5 577.288   9 
  -2  -7   5 10115.4 764.331  33 
   2   7  -5 11861.6 669.010  12 
   2   7  -5 11580.1 660.967  11 
  -2  -7   5 10811.5 844.777  26 
   2   7  -4 27425.6 928.924   9 
   2   7  -4 29126.2 1055.07  11 
   2   7  -4 26650.3 967.551  12 
   2   7  -3 6721.29 483.408   9 
   2   7  -3 6459.19 459.781  12 
   2   7  -3 6856.63 513.610  11 
   2   7  -2 158.092 116.551   9 
  -2   7   2 126.570 78.7382   8 
  -2  -7   2 346.178 144.908  18 
   2   7  -2 247.176 92.2772  12 
   2   7  -2-8.84956 59.3859  11 
  -2   7   1 1700.61 233.695   8 
  -2  -7   1 2044.95 271.064  18 
   2   7  -1 1964.22 295.027  11 
  -2   7   0 2765.21 308.208   8 
   2  -7   0 2139.49 227.235  19 
  -2  -7   0 2652.31 284.981  18 
   2   7   0 2773.06 304.963  11 
   2   7   1 167.321 143.805   9 
   2  -7   1 259.922 104.978  19 
  -2   7  -1 264.952 142.582   8 
  -2   7  -1 166.831 89.6090  10 
   2   7   2 15377.9 663.751   9 
  -2   7  -2 15747.2 805.416   8 
   2  -7   2 14402.5 662.854  15 
  -2   7  -2 15031.9 690.090  10 
   2   7   3 5646.63 382.926   9 
  -2   7  -3 5331.17 497.149   8 
   2  -7   3 5360.50 395.218  29 
  -2   7  -3 5600.36 452.162  10 
  -2   7  -4 8716.33 578.647  10 
  -2   7  -4 8389.57 582.271   8 
   2  -7   4 8934.10 494.003  29 
  -2   7  -5 1909.10 268.956   8 
  -2   7  -5 1581.12 276.733  10 
   2  -7   5 1813.21 219.094  32 
   2  -7   5 1480.40 232.392  29 
   2  -7   5 1850.12 225.530  28 
  -2   7  -6 3738.23 342.928   8 
  -2   7  -6 3559.73 409.564  10 
   2  -7   6 3382.02 310.469  32 
   2  -7   6 3737.94 323.683  29 
   2  -7   6 3350.55 279.005  28 
  -2   7  -7 781.458 149.608   8 
   2  -7   7 413.759 117.882  32 
   2  -7   7 378.942 129.397  29 
   2  -7   7 628.870 123.135  28 
   2  -7   7 591.278 119.379  25 
  -2   7  -7 595.194 211.748  10 
   2  -7   8 963.287 168.506  32 
   2  -7   8 1197.85 166.341  28 
  -2   7  -8 785.867 189.844  10 
   2  -7   8 799.775 138.901  25 
   2  -7   9 469.393 96.8959  32 
  -2   7  -9 206.610 101.044  10 
   2  -7   9 321.842 92.9302  28 
   2   8  -8 574.915 124.456   8 
  -2  -8   8 375.185 103.534  31 
   2   8  -8 569.042 164.781  12 
  -2  -8   8 613.884 104.831  29 
  -2  -8   8 568.489 123.415  28 
   2   8  -7 1883.65 235.425  12 
  -2  -8   7 2161.82 218.139  33 
  -2  -8   7 2234.14 267.097  31 
   2   8  -6 1042.16 155.788   9 
   2   8  -6 926.249 214.103  12 
  -2  -8   6 1047.13 243.386  31 
  -2  -8   6 750.307 153.550  33 
   2   8  -5 11802.4 635.529  12 
  -2  -8   5 12427.5 684.927  33 
   2   8  -5 10859.4 543.160   9 
  -2  -8   4 290.074 155.651  33 
   2   8  -4 140.906 138.949   9 
   2   8  -4 216.582 140.959  12 
  -2  -8   4 418.739 235.617  26 
   2   8  -3 41694.5 1178.18   9 
   2   8  -3 43758.6 1163.59  12 
  -2   8   2 7146.85 423.401   8 
   2   8  -2 6392.17 490.431   9 
   2   8  -1 6690.10 504.206   9 
  -2   8   1 6378.99 426.632   8 
   2   8   0 1077.04 221.449   9 
  -2   8   0 877.588 190.365   8 
   2   8   1 8575.70 530.228   9 
  -2   8  -1 9302.19 582.034   8 
   2   8   2 4386.71 363.421   9 
  -2   8  -2 4451.97 441.888   8 
   2  -8   2 4014.27 308.767  32 
  -2   8  -2 4193.56 355.827  10 
  -2   8  -3 17360.7 826.306   8 
   2  -8   3 17013.8 636.501  32 
   2  -8   3 17950.7 636.075  29 
  -2   8  -3 17380.3 733.102  10 
   2   8   3 18958.5 667.685   9 
  -2   8  -4 12347.6 664.476   8 
  -2   8  -4 13382.2 670.494  10 
   2  -8   4 12180.4 544.899  32 
   2  -8   4 13115.0 547.455  29 
  -2   8  -5 269.865 146.328   8 
  -2   8  -5 383.978 143.005  10 
   2  -8   5 626.954 132.402  32 
   2  -8   5 405.046 116.825  29 
   2  -8   6 2552.71 253.527  32 
   2  -8   6 2478.52 240.711  29 
  -2   8  -6 2470.68 269.108   8 
   2  -8   6 2489.20 229.023  25 
  -2   8  -6 2469.87 277.280  10 
  -2   8  -7 669.547 120.857   8 
   2  -8   7 359.703 106.674  32 
   2  -8   7 345.276 80.3722  29 
  -2   8  -7 296.337 138.514  10 
   2  -8   7 680.432 117.237  25 
   2  -8   8 1589.20 163.526  32 
   2   9  -6 6190.81 347.475   8 
  -2  -9   6 6165.46 350.576  31 
   2   9  -5 1071.03 162.194   9 
  -2  -9   5 1186.93 208.966  31 
  -2  -9   4 81619.4 1747.04  31 
   2   9  -4 92135.2 1463.50   9 
   2   9  -3 24571.6 817.411   9 
   2   9  -2 12038.7 604.336   9 
  -2   9   1 7253.46 410.783   8 
   2   9  -1 7449.95 485.995   9 
  -2   9   0 2239.32 254.611   8 
   2   9   0 1946.54 282.718   9 
  -2   9  -1 5535.44 419.040   8 
   2   9   1 5334.70 389.983   9 
  -2   9  -2 2177.19 295.026   8 
   2   9   2 2404.02 246.703   9 
  -2   9  -3 32648.9 990.438   8 
  -2   9  -4 461.058 137.605   8 
   2  -9   4 674.716 130.854  32 
   2  -9   4 601.017 110.113  29 
  -2   9  -5 230.087 105.464   8 
   2  -9   5 128.187 48.3349  32 
   2  -9   5 279.499 81.0047  29 
  -2   9  -5 312.287 127.457  10 
   2  -9   5 175.649 76.2257  25 
   2  -9   6 748.859 127.277  25 
   2  10  -3 19989.1 583.515   8 
   2  10  -2 18037.0 556.356   8 
   2  10  -2 17738.2 592.926   9 
   2  10  -1 2519.36 225.688   9 
  -2  10   0 1820.86 191.733   8 
  -2  10  -1 1178.64 161.862   8 
  -2  10  -2 3375.04 269.673   8 
  -2  10  -3 1143.35 144.390   8 
  -3   0  13 54.6330 76.9185   5 
  -3   0  12 460.923 126.769  23 
  -3   0  12 759.560 178.956   5 
  -3   0  11 1032.21 162.882  23 
  -3   0  11 979.098 234.842   5 
  -3   0  10 2346.54 266.662  23 
  -3   0  10 2371.42 323.677   5 
  -3   0   9 6701.64 572.988   5 
  -3   0   9 7305.06 554.243  21 
  -3   0   8 14965.2 857.058   5 
  -3   0   8 15139.0 653.096  34 
  -3   0   8 17086.0 825.360  21 
  -3   0   8 14410.9 806.838   7 
  -3   0   7 910.852 219.647   7 
  -3   0   7 983.343 246.397  21 
  -3   0   7 1034.35 197.902  34 
  -3   0   6 38681.6 1229.65   7 
  -3   0   6 40048.0 1113.24  34 
   3   0  -6 38401.9 833.116  14 
   3   0  -5 5883.33 310.957   1 
   3   0  -5 6241.05 330.418  14 
   3   0  -4 1287.96 135.249   1 
  -3   0   4 1028.96 174.675  18 
   3   0  -4 1437.86 151.908  14 
  -3   0   3 29316.9 617.191  18 
   3   0  -3 28627.9 627.856  14 
   3   0  -3 28483.9 603.302   1 
   3   0  -2 5405.66 268.312   1 
   3   0  -2 4988.27 215.882  17 
   3   0  -2 5482.89 271.028  14 
  -3   0   1 410546. 2265.64   6 
   3   0  -1 399430. 2007.64  17 
  -3   0   0 57595.9 859.068   6 
   3   0   0 59696.0 824.839  17 
  -3   0  -1 22524.4 575.026  16 
  -3   0  -1 21347.9 549.226   6 
  -3   0  -2 572.518 111.586  16 
  -3   0  -2 247.163 93.5098   6 
   3   0   3 1271.97 118.096  15 
  -3   0  -3 1369.75 170.497   6 
   3   0   4 14439.5 406.050  15 
   3   0   4 14435.4 532.226  32 
  -3   0  -4 15146.5 607.900   6 
   3   0   4 13396.6 538.653  28 
   3   0   5 90152.5 1546.39  23 
  -3   0  -5 94564.7 1642.54   6 
   3   0   5 89649.4 1422.32  32 
   3   0   5 89511.6 1599.13   3 
   3   0   5 91267.7 1500.81  28 
   3   0   6 27742.0 930.384  23 
   3   0   6 29493.5 786.571  17 
   3   0   6 28533.9 893.680  28 
   3   0   6 26048.2 930.579   3 
  -3   0  -6 28414.8 963.252   6 
   3   0   6 27918.6 833.541  32 
   3   0   7 5132.24 447.637  23 
   3   0   7 5613.09 395.784  32 
  -3   0  -7 5398.64 446.000   6 
   3   0   7 5656.72 465.255   3 
   3   0   7 5445.93 441.251  28 
   3   0   8 5569.48 475.859  23 
   3   0   8 5774.11 475.369   3 
   3   0   8 5420.03 379.234  32 
   3   0   8 5465.49 439.673  28 
   3   0   9 4219.41 420.673   3 
   3   0   9 4046.39 388.456  28 
   3   0  10 43084.8 1199.06   3 
   3   0  10 41207.9 1116.41  28 
   3   0  11 7791.68 463.365   3 
  -3   1  13 256.015 72.9516   5 
  -3  -1  12 348.610 155.040   5 
  -3  -1  12 362.639 89.4991  23 
  -3   1  12 320.121 146.958   5 
  -3  -1  11 2512.08 267.111  23 
  -3  -1  11 2721.20 328.081   5 
  -3   1  11 2767.93 361.637   5 
  -3  -1  10 2803.39 362.222   5 
  -3   1  10 3388.20 392.846   5 
  -3  -1   9 18023.8 886.705   5 
  -3   1   9 18261.3 926.110   5 
  -3  -1   9 18615.3 853.391  21 
  -3  -1   9 17888.2 758.022  34 
  -3  -1   8 38125.5 1309.28   5 
  -3   1   8 38099.3 1378.89   5 
  -3  -1   8 39130.8 1138.51  34 
  -3   1   8 39561.7 1217.26  21 
  -3  -1   8 39375.9 1268.57  21 
  -3   1   8 39174.0 1371.74   7 
  -3  -1   8 37369.8 980.264  33 
  -3   1   7 19875.2 841.761  21 
  -3  -1   7 18873.5 891.293  21 
  -3  -1   7 19287.4 847.136  34 
   3   1  -7 21323.5 711.956   1 
  -3   1   7 19849.4 988.923   7 
  -3  -1   7 19416.5 713.631  33 
  -3   1   6 15373.4 727.855  21 
  -3   1   6 15437.6 829.225   7 
   3   1  -6 15124.2 562.590   1 
  -3  -1   6 13893.1 651.060  33 
  -3  -1   6 13725.9 751.099  34 
  -3  -1   6 16910.9 769.628  26 
  -3  -1   5 19964.9 910.634  22 
  -3   1   5 20423.8 803.387  21 
  -3  -1   5 20293.4 880.835  26 
  -3  -1   5 19898.3 780.528  18 
  -3   1   5 22214.1 893.683   7 
   3   1  -5 20591.7 591.308   1 
   3   1  -4 2798.52 213.781   1 
  -3  -1   4 3416.84 272.675  18 
   3  -1  -4 2924.92 236.000  14 
   3  -1  -3 151568. 1294.81   1 
  -3  -1   3 156123. 1490.48  18 
   3  -1  -3 156302. 1076.13  17 
   3   1  -3 151324. 1494.68   1 
   3  -1  -3 159470. 1571.45  14 
   3   1  -2 81194.1 1096.16   1 
  -3   1   2 79315.1 774.698  18 
  -3  -1   2 82514.8 1015.11  18 
   3  -1  -2 79714.9 822.756  17 
   3  -1  -2 79287.0 1073.07  14 
  -3  -1   2 79393.2 942.451   6 
  -3   1   1 13589.5 287.897  18 
   3   1  -1 13306.9 392.419  17 
  -3  -1   1 14076.5 396.743   6 
  -3   1   1 13678.4 449.910   6 
  -3  -1   0 13837.1 407.493   6 
  -3  -1   0 14728.7 468.439  16 
   3   1   0 13849.9 412.922  17 
  -3   1   0 14299.1 458.073   6 
  -3   1  -1 10269.4 401.064   6 
   3   1   1 9973.04 367.876  17 
  -3  -1  -1 9992.58 408.777  16 
  -3   1  -1 10059.5 355.059  16 
  -3  -1  -1 9288.22 360.526   6 
  -3   1  -2 15010.6 476.996  16 
   3   1   2 14915.3 471.023  17 
  -3   1  -2 15217.8 513.748   6 
  -3  -1  -2 14640.3 497.731   6 
  -3  -1  -2 15547.0 539.827  16 
  -3   1  -3 14396.9 506.403  16 
  -3  -1  -3 14313.0 550.826  16 
   3   1   3 14278.6 486.726  17 
  -3  -1  -3 12929.5 521.597   6 
  -3   1  -3 14290.3 531.342   6 
   3   1   4 46668.4 967.403  32 
   3  -1   4 49040.0 991.052  32 
   3   1   4 50700.5 951.582  17 
   3  -1   4 47411.8 838.987  15 
  -3   1  -4 47350.4 1058.03   6 
   3   1   4 49512.1 1149.56   3 
  -3  -1  -4 47807.3 1116.51   6 
   3   1   4 47616.8 1025.16  28 
   3  -1   4 48365.4 1004.56  28 
   3  -1   4 49463.8 944.067  25 
   3  -1   5 19454.5 699.907  23 
   3   1   5 17996.4 644.718  32 
   3   1   5 21860.1 647.483  17 
   3  -1   5 19910.5 583.003  15 
  -3  -1  -5 20848.0 809.169   6 
  -3   1  -5 19577.7 734.749   6 
   3   1   5 21221.8 820.091   3 
   3  -1   5 19481.5 711.574   3 
   3  -1   5 20771.6 723.171  28 
   3  -1   5 20280.4 683.690  32 
   3  -1   5 20937.6 644.671  25 
   3   1   5 18897.0 704.799  28 
   3  -1   6 7520.47 487.082  23 
   3   1   6 7479.48 439.369  32 
   3   1   6 7836.63 399.014  17 
  -3  -1  -6 7931.88 532.457   6 
   3  -1   6 7775.58 444.244  32 
  -3   1  -6 7448.32 487.055   6 
   3   1   6 8034.07 527.727   3 
   3  -1   6 7905.05 487.121   3 
   3   1   6 7391.07 474.449  28 
   3  -1   6 8269.52 495.600  28 
   3  -1   7 3431.01 351.931  23 
   3  -1   7 3944.66 328.977  32 
   3   1   7 3849.88 323.308  32 
  -3   1  -7 3593.63 379.762   6 
  -3  -1  -7 3226.37 352.702   6 
   3   1   7 3590.76 388.763   3 
   3   1   7 3817.67 382.653  28 
   3  -1   7 3760.89 361.566  28 
   3  -1   7 3756.37 364.637   3 
   3  -1   8 9641.30 597.236  23 
   3  -1   8 8499.97 482.793  32 
   3   1   8 8959.85 615.766   3 
   3  -1   8 8880.02 552.648   3 
   3   1   8 8335.27 550.697  28 
   3  -1   8 8349.82 533.320  28 
   3  -1   9 9806.04 598.262  23 
   3  -1   9 10584.5 514.505  32 
   3  -1   9 8981.52 553.224  28 
   3  -1   9 9309.70 575.663   3 
   3   1   9 10463.1 670.274   3 
   3   1   9 10213.0 589.574  28 
   3  -1  10 90.5878 51.7668   3 
   3  -1  10 86.0873 95.3573  28 
   3  -1  11 50295.0 1111.00  28 
   3   1  11 49394.4 1181.61   3 
  -3  -2  12-24.9102 126.445   5 
  -3   2  12-2.08417 93.5792   5 
  -3  -2  12 111.994 97.4548  23 
  -3  -2  11 819.371 174.951  23 
  -3  -2  11 1077.46 191.930   5 
  -3   2  11 955.736 224.448   5 
  -3  -2  10 3442.41 355.655  34 
  -3  -2  10 3715.64 374.394   5 
  -3   2  10 3461.00 413.822   5 
  -3  -2   9 108397. 2037.68   5 
  -3   2   9 107663. 2221.55   5 
  -3  -2   9 106958. 1959.26  21 
  -3  -2   9 107094. 1921.60  34 
  -3  -2   8 38304.3 1267.18   5 
  -3   2   8 39170.0 1378.85   5 
   3   2  -8 35732.3 1004.57   1 
  -3  -2   8 38758.7 1207.27  34 
  -3  -2   8 37708.4 1239.75  21 
  -3  -2   8 38634.9 1085.42  33 
  -3  -2   8 34746.8 889.684  31 
  -3   2   7 2973.42 352.249  21 
  -3  -2   7 3226.26 412.197  34 
   3   2  -7 3152.34 296.296   1 
  -3   2   7 3522.96 453.019   7 
  -3  -2   7 3310.42 363.332  33 
  -3  -2   7 3521.20 285.090  31 
  -3  -2   7 3926.35 416.575  26 
  -3  -2   6 1675.90 301.554  26 
  -3   2   6 1594.14 298.207   7 
  -3  -2   6 1267.12 267.878  33 
   3   2  -6 1512.36 197.080   1 
  -3   2   6 1496.49 254.380  21 
  -3  -2   6 1261.34 282.799  34 
  -3  -2   6 1335.17 225.537  31 
  -3  -2   5 9546.88 646.775  22 
  -3   2   5 9995.69 548.536  21 
  -3  -2   5 9862.58 589.587  18 
  -3   2   5 9982.66 649.679   7 
   3   2  -5 9365.00 441.184   1 
  -3  -2   5 7972.55 623.156  26 
  -3  -2   4 8945.56 447.668  18 
   3   2  -4 8272.12 395.659   1 
  -3  -2   3 47556.7 905.336  18 
   3   2  -3 48284.8 917.704   1 
   3  -2  -3 48654.2 695.970   1 
   3  -2  -3 46288.9 925.893  14 
  -3  -2   2 117887. 1376.24  18 
  -3  -2   2 116871. 1064.92   6 
   3  -2  -1 13001.6 464.861  14 
  -3  -2   1 12413.7 371.648   6 
   3   2  -1 13936.8 484.563   1 
  -3  -2   0 2746.40 222.225  16 
  -3   2   0 2590.43 217.792   6 
   3  -2   0 3055.47 230.109  14 
  -3  -2   0 2660.30 185.319   6 
   3   2   1 2916.15 219.063  17 
  -3   2  -1 3023.88 239.363   6 
  -3  -2  -1 2694.97 229.755  16 
  -3  -2  -1 2552.67 199.250   6 
  -3   2  -2 6104.22 278.378  16 
  -3   2  -2 6312.22 344.267   6 
  -3  -2  -2 6612.73 375.374  16 
   3   2   2 6281.09 327.611  17 
  -3  -2  -2 6335.38 342.463   6 
  -3  -2  -3 48749.5 1074.43  16 
   3   2   3 49715.6 1126.46   3 
   3   2   3 47265.0 914.353  17 
   3  -2   3 46395.8 944.756  32 
  -3   2  -3 46565.4 976.788   6 
  -3   2  -3 47810.3 859.513  16 
  -3  -2  -3 47098.3 1054.29   6 
   3  -2   3 47847.6 915.456  25 
   3   2   4 74818.5 1483.71   3 
   3   2   4 69329.3 1145.84  17 
   3  -2   4 66354.5 1090.97  15 
   3   2   4 64188.5 1175.10  32 
   3  -2   4 69544.2 1226.71  32 
  -3   2  -4 69689.1 1284.13   6 
  -3  -2  -4 64764.9 1392.54   6 
   3  -2   4 66205.9 1201.30  28 
  -3   2  -4 65450.7 1343.86  10 
   3  -2   4 68595.7 1153.98  25 
   3   2   5 11385.6 522.611  32 
   3  -2   5 10477.5 513.546  23 
   3   2   5 10737.6 548.785  28 
  -3   2  -5 11806.5 568.479   6 
   3   2   5 11707.0 489.035  17 
   3  -2   5 10972.5 482.646  15 
   3  -2   5 11310.3 533.882  32 
  -3  -2  -5 11401.9 644.955   6 
   3  -2   5 11764.3 548.617  28 
   3   2   5 12274.2 646.486   3 
  -3   2  -5 11179.7 643.735  10 
   3  -2   5 11819.2 501.209  25 
   3  -2   6 3452.93 333.864  23 
  -3   2  -6 4113.19 353.855   6 
   3   2   6 4130.12 397.387   3 
   3   2   6 3610.93 322.462  32 
   3  -2   6 3666.53 301.340  25 
   3  -2   6 4045.43 329.512  32 
  -3  -2  -6 3111.74 350.259   6 
   3   2   6 3568.11 345.351  28 
   3  -2   6 4303.72 361.390  28 
   3  -2   6 3580.81 284.675  15 
  -3   2  -6 3910.80 432.017  10 
   3   2   7 764.020 204.418   3 
   3  -2   7 622.988 194.600  23 
   3  -2   7 412.252 132.906  25 
   3  -2   7 412.509 138.376  32 
   3   2   7 563.973 207.927  28 
  -3  -2  -7 574.656 202.719   6 
   3  -2   7 417.912 152.109  28 
  -3   2  -7 633.998 181.110  10 
   3  -2   8 2363.34 291.721  23 
   3  -2   8 2025.21 256.454  32 
   3  -2   8 2261.19 297.885  28 
   3   2   8 2510.99 365.204   3 
   3   2   9 1147.06 261.628   3 
   3  -2   9 772.976 203.994  23 
   3  -2   9 937.798 161.090  32 
   3  -2   9 914.158 219.892  28 
   3  -2  10 933.168 200.010  28 
   3   2  10 951.535 219.532   3 
   3   2  11 7590.09 471.628   3 
   3  -2  11 7500.31 427.366  28 
  -3  -3  12 2581.12 247.568  23 
  -3   3  12 2268.29 230.913   3 
  -3  -3  11 53.9316 53.9998  23 
  -3   3  11 3.91953 113.731   5 
  -3  -3  10 41029.9 1145.82  34 
  -3   3  10 42447.3 1271.70   5 
  -3   3   9 47565.8 1404.13   5 
  -3  -3   9 45581.2 1203.02  33 
  -3  -3   9 46105.3 1296.27  34 
  -3   3   8 3692.88 420.336   5 
   3   3  -8 3592.56 353.159   1 
  -3  -3   8 3933.79 417.602  21 
  -3  -3   8 3985.58 444.938  34 
  -3  -3   8 3936.64 380.240  33 
  -3  -3   8 4220.33 349.827  31 
  -3   3   7 5588.61 511.933   5 
  -3  -3   7 5112.72 531.283  34 
   3   3  -7 5808.28 425.558   1 
  -3   3   7 6146.93 607.360   7 
  -3  -3   7 5729.15 441.234  31 
  -3  -3   7 5096.40 516.839  33 
  -3  -3   7 6547.33 591.674  26 
  -3  -3   6 6721.19 578.658  34 
  -3   3   6 6549.13 471.356  21 
  -3   3   6 6470.33 609.338   7 
   3   3  -6 6625.22 432.182   1 
  -3  -3   6 5652.01 571.114  26 
  -3  -3   5 953.561 221.165  22 
  -3   3   5 849.876 171.186  21 
  -3  -3   5 688.495 186.627  18 
  -3   3   5 689.997 239.598   7 
  -3  -3   5 661.501 257.528  26 
   3   3  -5 599.894 182.905   1 
  -3  -3   4 2956.15 315.010  22 
  -3   3   4 3225.08 292.628  21 
  -3   3   4 2834.85 280.295   4 
  -3  -3   4 3134.52 292.795  18 
  -3   3   4 2707.36 328.471   7 
   3   3  -4 2737.55 263.523   1 
   3   3  -3 6116.62 366.069   1 
  -3   3   3 5736.74 369.258   4 
  -3  -3   3 5856.49 357.435  18 
   3  -3  -3 5300.28 348.375  14 
  -3  -3   2 20824.2 639.936  18 
   3   3  -2 20294.7 642.146   1 
   3  -3  -2 18959.0 617.584  14 
   3  -3  -1 21573.1 636.763  14 
  -3  -3   1 20797.6 461.997   6 
   3   3  -1 20820.6 633.135   1 
   3   3   0 33418.2 785.233   1 
   3  -3   0 35771.2 813.111  14 
  -3  -3   0 33959.6 667.420   6 
   3   3   1 495.172 122.056   1 
  -3  -3  -1 333.150 108.827  16 
  -3  -3  -1 376.819 98.2129   6 
  -3   3  -2 14303.6 640.671   8 
   3  -3   2 13474.8 499.150  32 
  -3  -3  -2 14177.4 580.001  16 
   3   3   2 13030.9 579.676   3 
   3  -3   2 14135.1 500.650  25 
   3   3   2 12884.3 548.118   2 
  -3  -3  -2 12705.2 510.169   6 
  -3   3  -2 14013.7 540.610   6 
  -3   3  -2 14202.7 575.214  10 
  -3  -3  -3 21353.0 748.198  16 
   3  -3   3 21150.7 634.111  28 
  -3   3  -3 21073.8 687.814   6 
   3  -3   3 21426.9 672.694  32 
   3   3   3 20427.6 662.853  32 
   3   3   3 20962.4 745.483   2 
   3  -3   3 21264.2 625.813  29 
  -3  -3  -3 20799.9 746.970   6 
  -3   3  -3 20160.3 835.788   8 
   3   3   3 20277.7 774.057   3 
  -3   3  -3 21868.9 763.537  10 
   3  -3   3 21617.9 649.707  25 
  -3   3  -4 13628.1 688.038   8 
  -3  -3  -4 14493.5 651.801  16 
   3  -3   4 13562.9 551.442  15 
  -3   3  -4 14190.2 589.738   6 
   3  -3   4 15550.5 602.052  32 
   3   3   4 14820.0 694.447   3 
   3  -3   4 14287.2 554.242  29 
  -3  -3  -4 14136.9 706.338   6 
   3  -3   4 15023.4 586.743  28 
   3   3   4 13327.6 561.703  32 
  -3   3  -4 14628.5 705.720  10 
   3  -3   4 14613.2 557.288  25 
   3  -3   5 15221.9 622.252  32 
   3  -3   5 14857.3 602.385  15 
  -3  -3  -5 13939.5 765.633   6 
  -3   3  -5 14990.7 631.187   6 
   3   3   5 15184.0 744.397   3 
   3  -3   5 15536.7 611.002  29 
   3   3   5 14738.0 595.550  32 
   3  -3   5 14976.5 630.031  28 
  -3  -3  -5 13618.4 706.806  16 
  -3   3  -5 15313.0 793.593  10 
   3  -3   5 14237.2 574.418  25 
   3  -3   6 6351.11 397.236  25 
   3  -3   6 7111.32 446.785  32 
   3   3   6 6838.60 531.473   3 
  -3  -3  -6 6727.29 558.402   6 
   3  -3   6 6511.68 444.516  28 
  -3   3  -6 6803.96 579.796  10 
   3  -3   6 6885.03 440.742  15 
   3  -3   7 2823.04 302.349  32 
   3   3   7 3060.39 384.409   3 
   3  -3   7 2904.17 323.571  28 
  -3   3  -7 2863.58 385.274  10 
   3  -3   7 3112.25 278.199  25 
   3  -3   8 6431.86 435.484  23 
   3  -3   8 6318.55 435.530  32 
   3   3   8 5940.82 513.947   3 
   3  -3   8 6316.85 454.767  28 
   3  -3   8 5704.69 374.248  25 
  -3   3  -8 5827.54 496.620  10 
   3  -3   9 6006.43 433.050  23 
   3   3   9 6204.28 517.328   3 
   3  -3   9 6799.26 458.782  28 
   3  -3   9 6758.02 419.503  32 
  -3   3  -9 6003.51 458.737  10 
   3   3  10 2529.97 308.290   3 
   3  -3  10 2449.80 245.919  32 
   3  -3  10 2238.67 255.932  28 
   3  -3  11 1135.05 180.570  28 
   3   3  11 974.075 148.479   2 
   3   3  11 1070.72 189.700   3 
  -3  -4  12 2021.56 204.192  23 
   3   4 -12 1989.55 220.196  12 
  -3   4  11-48.8623 77.4836   5 
  -3  -4  11 200.861 100.232  23 
   3   4 -11 345.914 139.066  12 
  -3  -4  10 3583.24 354.840  34 
  -3   4  10 3192.09 331.036   5 
  -3  -4   9 10881.8 630.764  34 
  -3  -4   9 11146.0 603.736  33 
  -3  -4   9 9159.81 500.334  31 
  -3   4   9 9844.34 606.420   5 
  -3   4   8 22456.5 922.375   5 
  -3  -4   8 24917.3 1039.06  34 
  -3  -4   8 24917.0 991.725  33 
  -3  -4   8 24157.1 864.933  31 
   3   4  -8 24295.5 812.202  11 
  -3  -4   7 1975.20 360.933  26 
  -3   4   7 1618.00 256.008   5 
   3   4  -7 1782.72 253.661   1 
  -3  -4   7 1509.88 358.380  34 
  -3  -4   7 1742.32 373.233  33 
  -3  -4   7 1617.64 291.776  31 
   3   4  -7 1552.07 226.460  11 
  -3  -4   6 1213.97 340.867  34 
  -3   4   6 1294.69 296.595   7 
  -3   4   6 1850.93 276.847   5 
   3   4  -6 2146.71 275.961   1 
  -3  -4   6 1575.20 333.786  22 
  -3  -4   6 1569.61 369.400  26 
  -3  -4   5 15450.9 840.032  22 
  -3  -4   5 15523.2 830.598  34 
  -3   4   5 14385.1 863.179   7 
  -3  -4   5 15629.9 832.633  18 
   3   4  -5 15845.4 697.115   1 
  -3  -4   5 16475.5 961.390  26 
  -3   4   4 22306.5 639.423   8 
  -3   4   4 21678.7 798.760   4 
  -3   4   4 20819.2 1000.02   7 
  -3  -4   4 23075.3 854.975  18 
   3   4  -4 23165.7 798.744   1 
  -3  -4   4 22846.0 874.137  22 
   3   4  -4 22304.2 729.126  24 
   3   4  -3 60119.0 1164.17  24 
  -3   4   3 57005.9 1038.74   8 
  -3  -4   3 59567.7 1226.33  22 
  -3   4   3 58796.2 1246.32   4 
  -3   4   3 55621.8 1534.66   7 
  -3  -4   3 61217.1 1250.58  18 
   3  -4  -3 56851.0 1212.42  14 
   3   4  -3 60657.2 1218.35   1 
   3   4  -2 46813.0 1034.37  24 
   3   4  -2 51787.1 1088.08   1 
  -3   4   2 48196.2 964.236   8 
  -3   4   2 49001.1 1099.94   4 
  -3  -4   2 49705.7 1079.73  18 
  -3   4   2 50995.7 1339.20   7 
   3  -4  -2 48996.9 1086.79  14 
  -3   4   2 48464.3 1038.47  10 
   3   4  -1 26782.3 772.525  24 
  -3   4   1 26115.1 722.932   8 
   3   4  -1 27200.3 797.404   2 
  -3  -4   1 25917.2 776.405  18 
   3   4  -1 26878.4 760.784   1 
   3  -4  -1 26417.6 763.449  14 
  -3   4   1 26295.1 779.986  10 
  -3   4   0 21800.8 701.293   8 
   3   4   0 20529.4 690.193   2 
   3   4   0 19997.2 652.499   1 
  -3   4   0 21928.8 723.915  10 
   3  -4   0 20685.6 661.862  14 
  -3   4  -1 7077.33 445.814   8 
   3   4   1 6529.90 389.121   2 
   3   4   1 5965.05 400.140   3 
   3  -4   1 6246.39 341.114  32 
  -3  -4  -1 5930.92 321.790   6 
   3   4   1 6506.40 377.777   1 
  -3   4  -1 6619.42 414.257  10 
  -3   4  -2 2796.12 312.798   8 
   3   4   2 2853.04 242.489   1 
  -3  -4  -2 2340.08 249.050  16 
   3   4   2 2147.85 251.236   2 
   3   4   2 2591.27 276.766   3 
   3  -4   2 2530.54 237.878  32 
   3  -4   2 2338.20 211.056  29 
  -3  -4  -2 2582.82 239.593   6 
  -3   4  -2 2640.68 269.978  10 
  -3   4  -3 36108.7 1212.07   8 
  -3  -4  -3 35292.6 990.396  16 
   3   4   3 33897.6 1034.18   3 
   3   4   3 34951.6 881.696   1 
   3   4   3 33003.0 952.814   2 
   3  -4   3 35738.1 897.076  32 
   3  -4   3 35915.6 846.949  29 
  -3  -4  -3 33561.8 1004.00   6 
  -3   4  -3 36224.6 1080.92  10 
  -3   4  -4 24938.6 969.573   8 
  -3  -4  -4 22029.5 817.620  16 
   3  -4   4 24941.7 811.125  15 
   3   4   4 24139.4 924.533   3 
   3  -4   4 25064.4 794.049  32 
   3   4   4 21600.4 811.952   2 
   3  -4   4 23505.4 734.354  29 
  -3  -4  -4 21773.2 932.126   6 
   3  -4   4 24885.6 766.615  28 
  -3   4  -4 25322.0 980.648  10 
   3  -4   4 23462.8 730.693  25 
  -3   4  -5 2713.50 290.605   8 
  -3  -4  -5 1808.95 258.659  16 
   3   4   5 2080.12 314.848   3 
   3  -4   5 1959.54 254.199  15 
   3  -4   5 2011.52 272.593  32 
   3   4   5 1994.89 271.054   2 
   3  -4   5 2297.11 250.425  29 
   3  -4   5 1832.39 241.089  28 
  -3  -4  -5 1505.65 323.893   6 
  -3   4  -5 2079.55 326.985  10 
   3  -4   5 1870.68 226.899  25 
   3  -4   6 699.727 190.946  32 
  -3  -4  -6 735.181 188.460  16 
   3   4   6 724.155 209.293   3 
   3  -4   6 759.582 181.058  29 
  -3  -4  -6 802.239 301.348   6 
   3  -4   6 895.051 202.712  28 
  -3   4  -6 659.558 192.939  10 
   3   4   6 671.381 151.337   2 
   3  -4   6 1063.76 190.390  25 
   3  -4   7 1593.28 238.610  32 
   3  -4   7 1784.19 274.160  28 
  -3   4  -7 1030.78 229.412  10 
   3   4   7 1217.19 234.515   2 
   3  -4   7 1804.51 222.596  25 
   3   4   7 1523.61 293.980   3 
   3  -4   8 3914.09 340.725  32 
  -3   4  -8 3498.00 415.763  10 
   3   4   8 3360.84 386.557   3 
   3   4   8 3870.85 366.101   2 
   3  -4   8 4156.44 358.290  28 
   3  -4   8 3519.75 317.078  25 
   3  -4   9 354.966 111.148  32 
   3  -4   9 263.380 100.242  28 
   3   4   9 204.273 127.886   2 
  -3   4  -9 659.050 202.367  10 
   3   4   9 336.138 128.066   3 
   3   4  10 3765.82 347.496   3 
   3  -4  10 3548.56 269.830  32 
   3  -4  10 3775.51 307.449  28 
  -3   4 -10 3014.47 283.205  10 
   3   4  11 1350.01 179.783   3 
   3  -4  11 1457.37 182.742  28 
  -3  -5  11 4491.48 309.903  23 
   3   5 -11 3986.67 316.763  12 
  -3  -5  10 9069.74 421.326  28 
   3   5 -10 9612.28 557.301  12 
  -3  -5   9 14910.4 690.657  34 
  -3  -5   9 14992.4 691.162  33 
  -3  -5   9 14551.2 624.206  31 
   3   5  -9 14956.5 744.559  12 
   3   5  -8 27498.8 1040.01  12 
  -3  -5   8 29385.4 1079.96  33 
  -3  -5   8 29034.4 981.156  31 
  -3  -5   8 29148.0 1083.70  34 
   3   5  -8 27149.8 873.356  11 
  -3  -5   7 2039.18 381.237  34 
  -3  -5   7 2006.21 397.337  33 
  -3  -5   7 2044.24 347.996  31 
   3   5  -7 2603.58 296.551  11 
  -3  -5   7 1998.95 426.761  26 
  -3  -5   6 6238.28 644.457  34 
   3   5  -6 5796.08 457.526  12 
   3   5  -6 5247.62 420.749  11 
  -3  -5   6 5727.36 695.268  26 
  -3  -5   5 2956.08 430.722  22 
  -3   5   5 2230.80 376.083   7 
  -3  -5   5 2263.91 407.532  34 
   3   5  -5 2273.48 284.847   1 
  -3  -5   5 1951.81 361.302  18 
  -3  -5   5 2940.05 513.411  26 
   3   5  -5 1938.81 264.375  12 
   3   5  -5 2243.76 266.819  11 
  -3   5   4 254.631 184.286   7 
  -3  -5   4 172.914 131.756  22 
  -3   5   4 416.715 138.283   4 
  -3  -5   4-34.1363 199.900  18 
   3   5  -4 244.737 128.798   1 
   3   5  -4 161.972 76.3575  12 
  -3   5   3 6392.54 379.072   8 
  -3  -5   3 7751.71 484.700  22 
  -3   5   3 7244.58 466.662   4 
  -3   5   3 6548.65 573.423   7 
  -3  -5   3 7345.32 482.824  18 
   3  -5  -3 6381.14 452.379  14 
   3   5  -3 6767.34 460.019   1 
   3   5  -3 6311.02 405.409  12 
   3   5  -3 7024.34 461.593  24 
   3   5  -2 13092.6 598.037  24 
  -3   5   2 12287.3 529.444   8 
  -3   5   2 12351.1 592.065   4 
  -3  -5   2 12713.1 592.681  18 
   3  -5  -2 12348.4 591.033  14 
   3   5  -2 12621.4 590.087   1 
  -3   5   2 12238.6 558.008  10 
   3   5  -1 56428.5 1220.87  24 
  -3   5   1 54202.0 1148.61   8 
  -3  -5   1 55997.4 1223.11  18 
   3  -5  -1 56398.4 1200.78  14 
  -3   5   1 55340.4 1196.45  10 
   3   5  -1 56635.6 1194.22   1 
   3   5   0 15004.1 635.981  24 
   3   5   0 14615.9 591.155   1 
   3   5   0 14199.5 602.091   2 
  -3   5   0 15271.0 640.131   8 
  -3  -5   0 14563.2 637.625  18 
   3  -5   0 14627.8 593.902  14 
  -3   5   0 14360.1 630.809  10 
   3   5   1 10780.7 556.153  24 
  -3   5  -1 12254.0 634.066   8 
   3   5   1 10548.3 522.096   2 
   3   5   1 11429.3 518.671   1 
   3  -5   1 10577.0 472.008  32 
  -3   5  -1 10821.1 558.061  10 
   3   5   2 1967.36 260.395  24 
  -3   5  -2 2413.89 322.121   8 
   3   5   2 2209.26 261.206   2 
   3  -5   2 2176.48 234.476  32 
   3   5   2 2229.63 274.339   3 
  -3   5  -2 2190.95 276.360  10 
   3   5   3 3624.74 342.926  24 
  -3   5  -3 4385.15 448.271   8 
   3   5   3 4493.97 355.298   2 
   3   5   3 4219.88 382.033   3 
  -3  -5  -3 3490.75 346.116  16 
   3  -5   3 3938.29 321.983  32 
   3  -5   3 4144.99 315.266  29 
  -3  -5  -3 3999.45 374.838   6 
  -3   5  -3 4033.02 379.847  10 
   3   5   4 32584.9 956.399  24 
  -3   5  -4 31712.1 1118.92   8 
   3  -5   4 32233.1 981.861  15 
   3   5   4 32410.2 1090.18   3 
   3  -5   4 31765.5 933.993  32 
   3  -5   4 31435.6 874.152  29 
  -3  -5  -4 29044.5 1140.63   6 
   3  -5   4 32944.7 892.586  28 
  -3   5  -4 32545.6 1162.73  10 
  -3   5  -5 42388.0 1189.43   8 
   3   5   5 40702.9 1267.26   3 
   3  -5   5 45598.7 1152.91  32 
   3  -5   5 44381.8 1076.88  29 
   3  -5   5 44700.5 1093.56  28 
  -3   5  -5 44839.6 1469.74  10 
   3  -5   5 45195.4 1086.60  25 
   3   5   6 6999.79 531.233   3 
  -3   5  -6 7300.55 438.405   8 
   3  -5   6 7737.73 497.854  32 
   3  -5   6 7569.47 465.064  29 
   3  -5   6 7681.92 480.612  28 
  -3   5  -6 6882.48 597.592  10 
   3  -5   6 7651.28 464.972  25 
   3   5   7 6273.75 526.425   3 
   3  -5   7 7079.55 461.196  32 
   3  -5   7 6605.91 436.739  28 
  -3   5  -7 6502.26 574.187  10 
   3  -5   7 6992.46 429.938  25 
   3  -5   8 2496.74 278.241  32 
   3  -5   8 2457.24 254.659  28 
   3   5   8 2245.80 339.088   3 
  -3   5  -8 2503.12 336.325  10 
   3  -5   8 2504.83 257.252  25 
   3  -5   9 1490.99 201.222  32 
   3  -5   9 1323.46 174.807  28 
  -3   5  -9 1141.88 211.786  10 
   3   5   9 1118.78 201.988   3 
   3   5  10 2505.41 255.142   3 
   3  -5  10 2694.02 210.713  32 
   3  -5  10 2296.76 215.631  28 
  -3   5 -10 2059.57 208.045  10 
  -3  -6  10 3574.08 273.916  23 
  -3  -6  10 3326.60 238.324  28 
   3   6 -10 3542.14 319.686  12 
  -3  -6   9 1310.97 186.450  34 
  -3  -6   9 1613.56 219.274  33 
  -3  -6   9 1504.24 205.331  31 
   3   6  -9 1711.37 255.302  12 
  -3  -6   9 1455.97 198.229  28 
  -3  -6   8 13997.5 667.150  34 
  -3  -6   8 14582.0 709.514  33 
  -3  -6   8 14340.8 663.205  31 
   3   6  -8 13770.4 708.462  12 
   3   6  -8 13092.5 597.841  11 
  -3  -6   7 22880.1 984.413  31 
  -3  -6   7 21775.2 952.424  34 
  -3  -6   7 21540.4 1006.27  33 
   3   6  -7 21584.5 824.918  11 
  -3  -6   7 22635.5 1086.08  26 
   3   6  -7 20670.0 897.918  12 
  -3  -6   6 4172.28 508.761  34 
  -3  -6   6 3740.70 539.546  33 
   3   6  -6 4069.81 417.142  12 
   3   6  -6 3678.96 356.083  11 
  -3  -6   6 3170.04 568.646  26 
  -3  -6   5 966.918 323.726  34 
   3   6  -5 620.991 175.820  12 
   3   6  -5 1383.47 244.169  11 
  -3  -6   5 779.376 355.210  26 
   3   6  -4 5665.87 459.112   1 
  -3  -6   4 6329.10 587.519  18 
   3  -6  -4 5070.22 434.231  14 
  -3  -6   4 6528.07 575.389  34 
   3   6  -4 5154.98 413.927  12 
   3   6  -4 6884.33 496.089  11 
   3  -6  -3 5053.98 437.085  14 
  -3   6   3 5734.76 379.702   8 
  -3  -6   3 5578.90 438.604  22 
  -3   6   3 5522.66 429.360   4 
  -3  -6   3 5648.78 457.632  18 
   3   6  -3 5444.03 437.074   1 
   3   6  -3 5251.47 391.451  12 
   3   6  -3 5181.86 441.928  11 
  -3   6   2 19185.7 708.452   8 
  -3   6   2 20509.4 779.583   4 
  -3  -6   2 20785.8 822.612  18 
   3   6  -2 20639.0 812.855   1 
   3  -6  -2 19920.7 808.039  14 
   3   6  -2 19539.4 816.401  11 
   3   6  -1 1092.08 226.380  24 
   3   6  -1 1118.76 210.331   1 
  -3   6   1 1250.03 214.867   8 
  -3  -6   1 1521.52 226.450  18 
  -3   6   1 957.306 193.660   4 
   3  -6  -1 1300.12 236.766  14 
   3   6  -1 1603.84 230.862  11 
  -3   6   1 1424.46 208.164  10 
  -3   6   0 1551.95 266.633   8 
  -3  -6   0 1757.89 238.419  18 
   3   6   0 1721.73 239.636  11 
  -3   6   0 1814.06 244.296  10 
   3   6   0 1741.77 273.449  24 
   3   6   1 420.925 153.175  24 
  -3   6  -1 222.735 113.816   8 
  -3  -6  -1 247.942 106.626  18 
   3   6   1 409.864 129.881  11 
  -3   6  -1 129.587 64.4558  10 
   3   6   2 5089.31 416.604  24 
  -3   6  -2 5709.89 500.740   8 
  -3   6  -2 5452.41 441.910  10 
   3  -6   2 5946.89 393.553  32 
   3   6   3 7290.52 488.565  24 
  -3   6  -3 7273.96 594.375   8 
   3  -6   3 7206.19 453.942  32 
   3  -6   3 7662.35 425.604  29 
  -3   6  -3 7330.00 544.365  10 
   3   6   4 102099. 1710.21  24 
  -3   6  -4 102968. 2025.89   8 
   3   6   4 103289. 1926.02   3 
   3  -6   4 100938. 1684.74  32 
   3  -6   4 101236. 1573.42  29 
  -3   6  -4 102366. 2076.65  10 
   3   6   5 47007.9 1304.76   3 
  -3   6  -5 44431.7 1208.33   8 
   3  -6   5 46080.7 1162.65  32 
   3  -6   5 45377.8 1090.45  29 
  -3   6  -5 44781.8 1436.19  10 
   3  -6   5 47208.9 1139.08  25 
  -3   6  -6 1696.51 235.696   8 
   3  -6   6 1358.04 227.279  32 
   3  -6   6 1922.28 224.182  29 
   3  -6   6 1733.93 224.223  28 
   3   6   6 1992.38 263.332   3 
  -3   6  -6 1886.22 330.941  10 
   3  -6   6 1792.63 262.304  25 
   3  -6   7 2041.99 244.684  32 
   3  -6   7 2329.10 239.814  28 
   3   6   7 1898.57 260.222   3 
  -3   6  -7 1954.03 347.468  10 
   3  -6   7 2181.63 249.246  25 
   3  -6   8 630.112 142.165  32 
   3  -6   8 631.914 136.093  28 
   3   6   8 683.675 154.809   3 
  -3   6  -8 442.625 174.239  10 
   3  -6   8 545.537 101.682  25 
   3  -6   9 232.808 66.1490  32 
   3  -6   9 188.839 87.4019  28 
   3   6   9 252.563 78.1160   3 
  -3   6  -9 84.4976 105.068  10 
   3   7  -9 7126.23 414.394  12 
  -3  -7   9 6807.20 341.387  28 
  -3  -7   8 9088.58 476.589  33 
  -3  -7   8 8473.97 436.497  34 
  -3  -7   8 9184.43 472.765  31 
   3   7  -8 9141.68 516.725  12 
  -3  -7   8 8560.20 387.549  29 
  -3  -7   7 3032.42 311.172  34 
  -3  -7   7 2648.61 324.269  31 
   3   7  -7 2669.49 327.954  12 
  -3  -7   7 2883.82 337.624  33 
  -3  -7   7 3066.59 357.275  26 
   3   7  -6 2703.87 270.129   9 
  -3  -7   6 2426.51 399.507  26 
  -3  -7   6 2464.10 306.737  34 
  -3  -7   6 2580.38 388.824  33 
   3   7  -6 2469.83 313.241  12 
  -3  -7   6 2062.73 342.608  31 
   3   7  -6 2414.32 297.627  11 
   3   7  -5 3106.81 306.986   9 
  -3  -7   5 2710.92 392.541  34 
   3   7  -5 3197.60 344.275  12 
   3   7  -5 2942.78 356.310  11 
  -3  -7   5 1980.17 438.640  26 
  -3  -7   4 291.719 256.236  34 
   3   7  -4 230.836 120.519  12 
   3   7  -4 418.466 177.135  11 
  -3  -7   4 411.490 279.059  26 
  -3   7   3 23898.1 772.201   8 
  -3  -7   3 24085.5 1059.77  34 
   3   7  -3 22757.3 918.715  11 
  -3   7   2 85981.4 1540.44   8 
  -3  -7   2 87191.4 1610.07  22 
  -3   7   1 20252.2 791.859   8 
   3   7  -1 21051.6 845.547  11 
  -3   7   1 20473.8 745.838  10 
  -3   7   0 4483.28 410.023   8 
   3   7   0 5409.13 419.358  11 
  -3   7   0 4089.92 353.349  10 
  -3   7  -1 21307.6 923.973   8 
  -3   7  -1 18845.4 767.999  10 
  -3   7  -2 9566.39 660.727   8 
   3  -7   2 10172.9 510.142  32 
  -3   7  -2 9278.58 558.058  10 
   3   7   3 721.505 154.478   9 
  -3   7  -3 565.155 179.239   8 
   3  -7   3 486.624 142.452  32 
  -3   7  -3 152.537 132.055  10 
  -3   7  -4 35321.9 1154.09   8 
   3  -7   4 36926.4 985.438  25 
   3  -7   4 36663.3 987.047  32 
   3  -7   4 35928.4 904.853  29 
  -3   7  -4 37068.5 1205.82  10 
  -3   7  -5 12647.9 630.673   8 
   3  -7   5 13555.4 610.166  32 
   3  -7   5 13195.4 558.574  29 
  -3   7  -5 12621.0 723.647  10 
   3  -7   5 13010.0 591.674  25 
  -3   7  -6 9802.98 488.580   8 
   3  -7   6 9811.92 506.831  32 
  -3   7  -6 9853.51 625.840  10 
   3  -7   6 10160.9 497.951  25 
   3  -7   7 587.346 137.376  32 
  -3   7  -7 382.165 163.283  10 
   3  -7   7 537.150 132.013  25 
   3  -7   8 3790.50 275.962  32 
  -3   7  -8 3330.35 288.045  10 
   3  -7   8 3584.61 236.120  25 
  -3  -8   8 4130.57 257.928  31 
  -3  -8   8 4134.69 253.073  28 
  -3  -8   7 196.590 87.2479  33 
  -3  -8   7 351.379 129.851  31 
   3   8  -7 197.985 90.8981  12 
  -3  -8   6 2226.72 292.235  33 
   3   8  -6 2057.41 240.089  12 
  -3  -8   6 2073.85 298.806  31 
  -3  -8   6 2100.69 282.332  26 
   3   8  -6 2175.78 207.417   9 
   3   8  -5 10975.7 516.350   9 
   3   8  -5 12018.9 574.111  12 
  -3  -8   5 11467.9 693.789  33 
  -3  -8   5 10981.7 759.790  26 
   3   8  -4 27353.4 870.508   9 
   3   8  -4 28722.5 880.149  12 
   3   8  -3 20399.2 795.846   9 
   3   8  -3 20855.9 850.851  11 
   3   8  -2 25968.0 923.290   9 
  -3   8   2 25427.4 795.097   8 
   3   8  -2 25617.1 926.946  11 
   3   8  -1 15599.5 730.911   9 
  -3   8   1 15521.7 669.311   8 
   3   8   0 78.1608 116.448   9 
  -3   8   0-4.57255 118.181   8 
   3  -8   0 46.7184 37.2385  25 
   3   8   1 4984.56 383.680   9 
  -3   8  -1 5693.31 457.390   8 
  -3   8  -1 5443.81 397.007  10 
   3  -8   1 4856.67 333.434  25 
   3   8   2 1464.20 216.151   9 
  -3   8  -2 1901.04 317.310   8 
  -3   8  -2 1504.35 230.366  10 
   3  -8   2 1294.67 194.601  25 
  -3   8  -3 7099.03 530.586   8 
   3  -8   3 6476.26 381.064  32 
  -3   8  -3 6775.47 466.373  10 
   3  -8   3 6100.11 390.412  25 
  -3   8  -4 1980.37 281.429   8 
   3  -8   4 1802.42 213.746  32 
  -3   8  -4 1959.20 261.321  10 
   3  -8   4 2018.01 225.899  25 
  -3   8  -5 5098.96 367.928   8 
   3  -8   5 5173.52 332.835  32 
  -3   8  -5 4645.90 385.998  10 
   3  -8   5 5420.38 343.879  25 
  -3   8  -6 1421.59 195.051   8 
   3  -8   6 1669.44 183.938  32 
  -3   8  -6 1468.65 204.385  10 
   3  -8   6 1607.25 186.852  25 
   3  -8   7 4685.52 266.781  25 
  -3  -9   6 528.890 94.0672  31 
  -3  -9   5 6476.73 356.332  33 
  -3  -9   5 6705.13 417.848  31 
   3   9  -5 6024.77 323.993   9 
  -3  -9   4 9113.46 510.065  33 
  -3  -9   4 8000.23 550.985  26 
   3   9  -4 7447.68 402.348   9 
   3   9  -3 3197.28 296.523   9 
  -3  -9   3 3272.87 368.056  33 
  -3  -9   3 3151.78 372.876  26 
   3   9  -2 9014.34 496.943   9 
  -3  -9   2 11190.9 692.879  26 
   3   9  -1 28.9196 38.7624   9 
  -3   9   1-41.8755 47.0719   8 
   3   9   0 4184.40 333.634   9 
  -3   9   0 4957.26 353.582   8 
   3   9   1 10270.8 481.518   9 
  -3   9  -1 9784.46 519.583   8 
   3  -9   1 9487.49 406.454  25 
  -3   9  -2 9022.79 508.002   8 
   3  -9   2 8723.77 398.357  25 
   3   9   2 9059.70 403.635   9 
  -3   9  -3 6627.24 416.200   8 
   3  -9   3 6767.96 349.641  25 
  -3   9  -4 3175.89 276.414   8 
  -3   9  -4 3083.65 257.842  10 
   3  -9   4 2721.23 220.401  25 
  -4   0  12 106.477 108.715   5 
  -4   0  11 167.619 170.276   5 
  -4   0  10 201.984 78.9663  23 
  -4   0  10 256.761 182.730   5 
  -4   0   9 2392.36 392.741   5 
  -4   0   9 2687.23 386.453  21 
  -4   0   9 2085.32 255.700  34 
  -4   0   8 203072. 2975.37  21 
  -4   0   8 196864. 2337.37  34 
  -4   0   7 87744.1 1982.64  21 
  -4   0   7 90365.3 2166.50   7 
  -4   0   7 90988.7 1680.41  34 
  -4   0   6 58146.6 1598.10   7 
  -4   0   6 50025.3 1346.87  34 
   4   0  -5 871.852 148.030   1 
  -4   0   5 1035.29 205.491  34 
  -4   0   5 903.304 196.239   7 
   4   0  -5 1124.05 176.075  14 
  -4   0   5 1001.98 187.116  26 
  -4   0   4 191.949 197.317  22 
  -4   0   4 166.375 69.7433   4 
  -4   0   4 90.1863 50.8434   7 
   4   0  -4 87.4594 99.3332   1 
   4   0  -3 30807.0 779.179   1 
  -4   0   3 30595.2 1070.57  22 
  -4   0   3 31478.4 712.453  18 
   4   0  -3 29991.4 774.361  30 
   4   0  -2 11367.7 475.998   1 
  -4   0   2 10940.8 382.290  18 
   4   0  -2 10376.7 379.473  17 
   4   0  -2 10485.3 448.601  30 
  -4   0   1 321443. 2064.86  18 
   4   0  -1 323848. 2214.12  17 
   4   0   0 305.384 99.0814  17 
  -4   0   0 230.622 92.7759   6 
   4   0   1 90.4242 74.9091  17 
  -4   0  -1 441.103 108.775  16 
   4   0   1 206.799 95.4420  32 
  -4   0  -1 429.870 118.131   6 
   4   0   1 62.6320 75.1251  27 
   4   0   2 268.631 111.464  32 
   4   0   2 392.009 105.126  17 
  -4   0  -2 178.680 90.6204  16 
   4   0   2 325.541 89.5021  30 
   4   0   2-9.22879 58.3713  28 
  -4   0  -2 13.4347 95.7783   6 
   4   0   2-81.6678 48.4225  27 
   4   0   2-247.011 79.9815   3 
  -4   0  -3 1087.78 179.872  16 
   4   0   3 1146.85 183.413  17 
   4   0   3 1047.53 188.849  32 
   4   0   3 1028.47 148.861  30 
  -4   0  -3 1067.76 187.078   6 
   4   0   3 945.343 180.007  28 
   4   0   3 1230.31 157.523  27 
   4   0   3 1128.92 191.396   3 
  -4   0  -4 11970.8 610.950  16 
   4   0   4 12025.4 563.695  32 
   4   0   4 12531.7 559.053  17 
  -4   0  -4 11378.5 615.025   6 
   4   0   4 11859.2 603.575   3 
   4   0   4 11161.0 563.485  28 
  -4   0  -5 24144.8 995.385  16 
   4   0   5 23634.3 801.222  17 
  -4   0  -5 22597.7 937.298   6 
   4   0   5 23679.5 857.564  28 
   4   0   5 24363.3 832.732  32 
   4   0   5 23886.6 907.873   3 
   4   0   6 39162.7 1028.18  17 
   4   0   6 37897.6 1075.43  32 
   4   0   6 37841.2 1178.47   3 
  -4   0  -6 37981.0 1261.50   6 
   4   0   6 37894.2 1143.63  28 
  -4   0  -6 38327.0 1423.23  16 
   4   0   7 9658.77 543.313  32 
   4   0   7 8862.41 578.668   3 
   4   0   7 9059.01 596.420  28 
   4   0   8 7519.38 455.230  32 
   4   0   8 6411.97 507.583   3 
   4   0   8 7450.13 531.007  28 
   4   0   9 21721.4 837.922   3 
   4   0   9 23931.3 867.743  28 
   4   0  10 1749.86 223.693   3 
   4   0  11 191.576 104.387   2 
  -4  -1  12 416.890 99.8817  23 
  -4  -1  12 634.998 159.477   5 
  -4   1  12 601.884 169.231   5 
  -4  -1  11 773.666 144.542  23 
  -4  -1  11 870.335 192.957   5 
  -4   1  11 971.039 230.431   5 
  -4  -1  10 86.4519 180.243   5 
  -4   1  10 149.516 154.817   5 
  -4  -1  10 262.963 168.620  21 
  -4  -1   9 10478.9 725.987   5 
  -4   1   9 11360.8 781.408   5 
  -4   1   9 9943.17 642.670  21 
  -4  -1   9 9029.66 630.226  21 
  -4  -1   9 9415.38 544.896  34 
  -4   1   8 9940.46 662.978  21 
  -4  -1   8 10765.6 732.016  21 
  -4   1   8 9623.53 757.042   7 
  -4  -1   8 9773.05 597.622  34 
  -4   1   7 77952.5 1793.10  21 
  -4   1   7 77886.2 2095.11   7 
  -4  -1   7 79758.7 1952.57   7 
  -4  -1   7 80595.4 1828.99  34 
  -4  -1   7 80871.8 1457.82  33 
  -4  -1   6 63440.4 1680.53  34 
   4  -1  -6 69580.4 1356.25  14 
  -4   1   6 68906.8 1657.42  21 
  -4   1   6 73396.6 1901.61   7 
  -4  -1   6 73142.0 1737.45   7 
   4   1  -6 73312.2 1331.67   1 
  -4  -1   6 78447.1 1690.96  26 
  -4  -1   5 14532.1 880.245  22 
  -4  -1   5 16075.9 759.284  34 
  -4  -1   5 15127.1 732.813  18 
  -4   1   5 16830.6 816.102   7 
  -4  -1   5 16664.8 745.555   7 
   4  -1  -5 15092.4 618.462  14 
  -4  -1   5 14788.0 790.166  26 
   4   1  -5 16011.7 591.171   1 
  -4  -1   4 21988.5 976.812  22 
   4  -1  -4 22190.7 713.838  14 
  -4  -1   4 21367.0 748.231   7 
  -4   1   4 23313.6 780.291   4 
   4   1  -4 22515.3 695.227   1 
  -4  -1   4 22685.7 750.199  18 
  -4   1   4 22446.2 842.860   7 
   4  -1  -4 24033.0 651.334   1 
   4  -1  -4 21554.0 689.963  30 
  -4  -1   3 8240.17 523.122  22 
   4  -1  -3 8001.04 418.567  14 
  -4   1   3 7866.38 436.787   4 
   4  -1  -3 7893.76 381.732   1 
  -4  -1   3 8347.49 396.547  18 
   4  -1  -3 7451.89 304.364  17 
  -4   1   3 7590.32 445.221   7 
   4  -1  -3 7758.70 403.860  30 
   4   1  -3 8133.87 426.712   1 
   4  -1  -3 7416.90 365.838  27 
  -4  -1   2 19128.0 697.534  22 
   4   1  -2 19795.5 692.886   2 
  -4  -1   2 17069.6 537.109  18 
   4  -1  -2 17140.2 475.106  17 
   4   1  -2 18291.7 626.419   1 
   4   1  -2 17244.6 577.922  30 
   4  -1  -2 17728.5 595.945  30 
  -4  -1   2 16817.8 540.461   6 
   4  -1  -2 17050.3 559.612  27 
  -4  -1   1 15103.6 508.480  18 
   4   1  -1 15277.9 507.991  17 
   4  -1  -1 15909.0 490.915  17 
  -4   1   1 14555.3 553.815   6 
  -4  -1   1 13843.8 498.995   6 
   4  -1  -1 14901.0 542.997  30 
   4  -1  -1 15362.7 534.278  27 
   4  -1   0 74741.3 1226.92  30 
   4   1   0 75456.7 1157.84  17 
   4   1   0 73606.4 1312.47   2 
  -4   1   0 73680.2 1248.84   6 
  -4  -1   0 73466.2 1173.65   6 
   4  -1   0 72706.3 1158.42  27 
   4   1   0 74040.1 1207.83  32 
  -4   1  -1 4445.57 295.932   8 
  -4  -1  -1 5133.23 342.893  16 
   4   1   1 5180.86 319.127  17 
   4   1   1 5078.77 355.459   3 
   4   1   1 5416.16 349.607  32 
   4   1   1 5043.55 355.584   2 
  -4   1  -1 5132.79 340.845   6 
  -4  -1  -1 4877.83 322.536   6 
   4  -1   1 5135.60 326.653  32 
   4  -1   1 5409.49 326.366  27 
  -4   1  -2 946.980 156.952   8 
  -4   1  -2 697.246 128.023  16 
   4  -1   2 1078.64 163.535  32 
   4   1   2 862.790 145.687  17 
  -4  -1  -2 898.481 169.500  16 
   4   1   2 770.390 150.641  32 
  -4   1  -2 1050.05 176.682   6 
  -4  -1  -2 755.972 156.568   6 
   4  -1   2 980.562 168.703  28 
   4  -1   2 880.358 161.449  27 
  -4   1  -2 993.274 149.313  10 
   4   1   2 992.655 178.549   3 
   4   1   2 773.435 149.068   2 
   4   1   3 4012.25 310.793  17 
  -4   1  -3 3746.96 313.372  16 
  -4  -1  -3 4342.79 363.221  16 
   4   1   3 4211.78 360.337   3 
   4   1   3 4043.76 321.861  32 
   4  -1   3 4281.37 329.744  32 
  -4   1  -3 3586.27 322.637   6 
  -4  -1  -3 3846.37 334.918   6 
   4  -1   3 4107.25 329.802  28 
  -4   1  -3 4180.61 316.800  10 
   4  -1   3 4252.91 293.238  27 
   4   1   4 2119.14 242.645  17 
  -4   1  -4 1752.21 239.571  16 
  -4  -1  -4 2053.88 273.774  16 
   4   1   4 2024.33 255.368  32 
   4   1   4 1836.60 256.707   3 
   4  -1   4 2083.16 252.230  32 
  -4   1  -4 1793.63 256.184   6 
  -4  -1  -4 1904.03 280.993   6 
   4   1   4 1694.50 253.152  28 
   4  -1   4 2095.12 263.966  28 
   4   1   5 16411.2 658.468  17 
  -4  -1  -5 15639.4 822.602  16 
  -4   1  -5 16529.1 787.461  16 
   4   1   5 16901.9 700.128  32 
   4   1   5 15639.4 763.172   3 
  -4   1  -5 16725.7 802.829   6 
  -4  -1  -5 16007.5 821.978   6 
   4  -1   5 16530.5 695.696  32 
   4   1   5 15771.7 720.539  28 
   4  -1   5 15759.6 709.357  28 
  -4  -1  -6 4746.70 507.362  16 
   4  -1   6 5161.88 419.109  32 
   4   1   6 4776.28 363.962  17 
   4  -1   6 5556.13 394.940  17 
   4   1   6 4791.82 441.758   3 
  -4   1  -6 5143.67 465.458   6 
  -4  -1  -6 5274.76 504.499   6 
   4   1   6 5013.74 444.268  28 
   4  -1   6 5125.61 447.713  28 
   4   1   6 4890.05 406.221  32 
   4  -1   7 3582.03 341.224  32 
   4   1   7 3792.90 403.433   3 
   4   1   7 3203.38 382.474  28 
   4  -1   7 3677.92 383.171  28 
   4   1   7 3196.21 330.272  32 
   4   1   8 4917.46 376.535  32 
   4   1   8 4121.04 456.990   3 
   4  -1   8 4480.17 410.992  28 
   4  -1   8 4570.78 366.827  32 
   4  -1   9 2775.34 266.330  32 
   4   1   9 2831.28 332.261   3 
   4  -1   9 2774.65 299.762  28 
   4  -1  10 66.0872 99.4656  28 
   4   1  10 57.5677 116.731   3 
   4   1  11 1563.61 191.270   2 
  -4  -2  12 5498.75 312.799  23 
  -4   2  12 5834.86 391.211   5 
  -4  -2  11 2658.23 250.447  23 
  -4  -2  11 2806.21 302.768   5 
  -4   2  11 2595.33 316.709   5 
  -4   2  10 15138.7 784.808   5 
  -4  -2  10 13455.0 671.058  21 
  -4  -2  10 13657.5 632.118  34 
  -4  -2  10 13786.4 699.297   5 
  -4  -2   9 5363.50 493.812   5 
  -4   2   9 4733.91 526.506   5 
  -4  -2   9 4992.03 461.220  21 
  -4  -2   9 5491.59 436.747  34 
  -4   2   8 14703.3 769.021  21 
  -4  -2   8 15023.3 858.973  21 
  -4   2   8 15202.7 959.499   7 
  -4  -2   8 15052.8 798.322  34 
  -4  -2   8 14881.2 666.652  33 
  -4   2   7 31287.1 1094.17  21 
  -4   2   7 31190.7 1382.84   7 
   4   2  -7 32375.0 973.443   1 
  -4  -2   7 31706.1 1262.44  34 
  -4  -2   7 31819.3 1084.64  33 
   4  -2  -7 29506.2 972.066  14 
  -4  -2   6 16104.6 912.117  34 
  -4   2   6 17062.1 801.417  21 
  -4   2   6 16768.2 973.276   7 
  -4  -2   6 13812.3 801.928  33 
   4   2  -6 16229.2 670.799   1 
  -4  -2   6 17262.8 934.570  26 
   4  -2  -6 15472.6 697.526  14 
  -4  -2   5 4745.99 509.033  22 
  -4   2   5 5224.41 443.266  21 
  -4   2   5 5256.23 421.426   4 
  -4  -2   5 4814.01 460.125  18 
  -4   2   5 4942.54 500.659   7 
   4  -2  -5 4104.84 355.684  14 
   4   2  -5 4693.87 353.050   1 
  -4  -2   5 3515.20 450.294  26 
  -4  -2   4 6442.47 529.043  22 
   4   2  -4 5810.14 391.176   1 
  -4   2   4 5866.99 460.365  21 
  -4   2   4 5948.15 418.790   4 
  -4  -2   4 6254.32 416.748  18 
  -4  -2   4 5387.10 369.116   7 
  -4   2   4 6034.79 482.480   7 
   4  -2  -4 5691.52 394.412  14 
   4  -2  -4 5706.98 326.083  27 
   4  -2  -4 6058.99 378.399  30 
  -4  -2   4 5420.86 515.715  26 
  -4  -2   3 3055.37 311.426  22 
  -4   2   3 3347.53 301.372   4 
  -4  -2   3 2725.41 259.121  18 
  -4   2   3 2819.94 296.681   7 
   4  -2  -3 2773.09 271.897  14 
   4   2  -3 3311.29 289.783   1 
   4  -2  -3 3049.48 273.502  30 
   4  -2  -3 2919.03 244.392  27 
   4  -2  -2 7307.17 410.970  14 
   4   2  -2 8643.80 462.984   1 
  -4   2   2 8470.30 415.850   8 
  -4  -2   2 7715.02 447.888  22 
   4   2  -2 8648.51 477.872   2 
  -4  -2   2 8397.47 417.872  18 
   4  -2  -2 7909.27 330.199  17 
  -4   2   2 7836.34 448.139   7 
   4  -2  -2 8042.99 415.341  30 
   4  -2  -2 7840.74 393.248  27 
  -4   2   1 23223.7 677.043   8 
   4   2  -1 24377.3 791.824   2 
  -4  -2   1 23546.0 698.239  18 
  -4  -2   1 22851.0 622.259   6 
   4   2  -1 23089.4 728.283   1 
   4  -2  -1 23688.3 713.661  30 
  -4   2   1 25227.3 759.258  10 
   4  -2  -1 23279.8 685.053  27 
   4   2   0 116491. 1620.45   1 
   4   2   0 117390. 1722.48   2 
  -4  -2   0 112085. 1455.68   6 
  -4   2   0 118809. 1639.36  10 
   4  -2   0 112570. 1519.68  27 
   4  -2   0 113661. 1413.42  25 
  -4  -2  -1 1245.92 191.689  16 
  -4   2  -1 1410.65 193.326   8 
  -4   2  -1 1244.64 188.601   6 
   4  -2   1 1297.32 190.165  32 
   4   2   1 1412.38 209.220   3 
   4   2   1 1239.18 186.818   2 
   4   2   1 1148.46 180.491  32 
  -4  -2  -1 1214.99 174.257   6 
   4  -2   1 1300.39 171.643  27 
  -4   2  -1 1167.93 173.630  10 
   4  -2   1 1126.52 158.017  25 
  -4   2  -2 1963.33 238.847   8 
   4   2   2 1876.36 220.863  17 
  -4  -2  -2 2429.50 270.418  16 
   4   2   2 1813.42 229.389   3 
   4  -2   2 2132.27 228.978  32 
  -4   2  -2 1988.41 243.285   6 
   4   2   2 2475.45 267.177   2 
  -4  -2  -2 1950.69 219.867   6 
  -4   2  -2 1821.68 214.506  10 
   4  -2   2 1938.91 218.820  27 
   4   2   2 1761.56 229.290  32 
   4  -2   2 2002.14 209.809  25 
  -4   2  -3 3754.40 379.079   8 
   4   2   3 4449.62 352.350  32 
   4   2   3 5121.69 365.548  17 
  -4  -2  -3 4236.48 363.127  16 
   4   2   3 4090.45 377.284   3 
   4  -2   3 5127.49 362.952  32 
  -4   2  -3 4415.69 371.054   6 
  -4  -2  -3 4802.26 392.779   6 
   4   2   3 4144.11 374.028   2 
   4  -2   3 4828.68 346.878  28 
  -4   2  -3 4503.78 360.583  10 
   4  -2   3 4919.28 330.564  27 
   4  -2   3 4834.96 352.845  25 
   4   2   4 11338.2 549.528  17 
  -4  -2  -4 10273.5 610.741  16 
   4  -2   4 10690.5 480.706  15 
   4   2   4 10917.7 631.694   3 
   4   2   4 10494.6 543.720  32 
   4  -2   4 11192.6 564.294  32 
  -4   2  -4 10394.6 607.605   6 
  -4  -2  -4 10119.2 632.347   6 
   4  -2   4 10219.0 525.703  28 
  -4   2  -4 10863.2 605.884  10 
   4  -2   4 10689.5 488.536  27 
   4  -2   4 11834.8 547.414  25 
  -4  -2  -5 1536.14 261.962  16 
   4  -2   5 1942.92 233.471  15 
   4   2   5 1881.77 241.644  32 
   4  -2   5 2236.83 279.189  32 
   4  -2   5 2190.75 271.486  28 
  -4   2  -5 1983.77 271.200   6 
  -4  -2  -5 1870.71 302.409   6 
   4   2   5 2225.70 311.985   3 
  -4   2  -5 1787.62 285.121  10 
   4  -2   5 2038.89 248.242  25 
   4   2   6 21766.1 972.525   3 
   4  -2   6 22909.1 847.335  32 
  -4   2  -6 22706.0 937.134   6 
   4  -2   6 22238.9 870.068  28 
   4   2   6 23722.0 850.305  32 
  -4   2  -6 20637.5 1001.39  10 
   4   2   7 6837.05 446.812  32 
   4  -2   7 6396.32 449.198  32 
   4   2   7 6678.93 552.416   3 
   4  -2   7 6292.92 484.080  28 
   4   2   8 7426.44 574.719   3 
   4  -2   8 7153.12 463.933  32 
   4  -2   8 7004.26 488.116  28 
   4   2   9 5610.01 471.225   3 
   4  -2   9 6409.07 398.558  32 
   4  -2   9 6170.39 429.523  28 
   4   2  10 2806.68 290.679   3 
   4   2  10 2838.07 296.293   2 
   4  -2  10 3218.35 275.826  28 
   4   3 -12 2682.97 242.007  12 
  -4  -3  11 837.696 152.627  23 
  -4   3  11 789.444 153.001   5 
  -4  -3  10 2282.17 269.046  21 
  -4  -3  10 2627.32 291.372  34 
  -4   3  10 2592.83 320.227   5 
  -4   3   9 185.348 176.337   5 
  -4  -3   9 323.073 144.901  21 
  -4  -3   9 333.787 128.134  33 
  -4  -3   9 19.7588 76.1089  34 
  -4   3   8 9833.56 713.860   5 
  -4  -3   8 8860.61 673.320  21 
  -4  -3   8 9923.94 700.315  34 
  -4  -3   8 9708.46 589.144  33 
  -4  -3   8 9635.76 478.124  31 
   4  -3  -7 46216.0 1297.24  14 
  -4   3   7 46894.4 1719.46   7 
  -4  -3   7 50286.2 1683.42  34 
  -4  -3   7 46217.6 1449.14  33 
  -4  -3   7 48525.1 1160.38  31 
  -4  -3   6 771.950 320.839  22 
  -4   3   6 1567.75 266.293  21 
   4  -3  -6 1461.26 239.634  14 
  -4  -3   6 1334.05 359.667  34 
  -4   3   6 934.133 301.115   7 
  -4  -3   6 923.104 224.788  31 
   4   3  -6 1499.50 248.163   1 
  -4  -3   6 617.791 331.404  26 
   4  -3  -5 10813.0 602.817  14 
  -4  -3   5 10853.1 774.347  22 
  -4   3   5 10944.8 605.066  21 
  -4   3   5 11500.6 640.723   4 
  -4  -3   5 11338.7 711.864  18 
  -4   3   5 9739.64 723.674   7 
   4  -3  -5 11264.4 522.121  30 
   4   3  -5 10972.0 582.577   1 
  -4  -3   5 10018.5 807.344  26 
   4   3  -4 4847.83 335.032  24 
  -4  -3   4 5822.84 517.272  22 
  -4   3   4 4674.68 385.191  21 
   4  -3  -4 4787.47 388.611  14 
  -4   3   4 5169.09 408.495   4 
  -4  -3   4 5097.01 421.994  18 
  -4   3   4 5091.66 484.627   7 
   4  -3  -4 4907.47 351.889  30 
   4  -3  -4 4842.27 309.229  27 
  -4  -3   4 5617.06 529.152  26 
   4   3  -4 5053.90 393.329   1 
   4   3  -3 7210.33 417.067  24 
  -4   3   3 7325.17 416.177   8 
  -4  -3   3 6563.54 473.260  22 
   4   3  -3 7062.20 441.583   1 
  -4   3   3 7216.95 467.326   4 
  -4  -3   3 6950.45 434.168  18 
  -4   3   3 6167.41 483.622   7 
   4  -3  -3 6195.06 413.272  14 
   4  -3  -3 7157.28 419.227  30 
   4  -3  -3 6816.93 377.265  27 
  -4   3   2 21540.5 698.089   8 
   4   3  -2 20946.2 773.337   2 
  -4  -3   2 20868.9 762.605  22 
  -4  -3   2 20433.2 710.266  18 
  -4   3   2 18793.3 767.689   7 
   4  -3  -2 21545.2 745.358  14 
   4   3  -2 22363.1 761.875   1 
   4  -3  -2 20122.5 682.234  30 
   4  -3  -2 20598.4 664.785  27 
  -4   3   1 14078.1 566.902   8 
   4   3  -1 12611.7 603.294   2 
  -4  -3   1 13472.9 574.407  18 
  -4   3   1 11676.8 566.054   7 
   4  -3  -1 13403.2 583.963  14 
  -4   3   1 13786.7 594.194  10 
   4   3  -1 13522.7 593.152   1 
   4  -3  -1 13043.4 482.272  25 
  -4   3   0 23902.6 776.626   8 
   4   3   0 22737.2 792.829   2 
   4   3   0 25080.7 802.088   1 
   4  -3   0 24049.3 676.341  32 
  -4  -3   0 24655.9 677.894   6 
  -4   3   0 24095.8 793.417  10 
   4  -3   0 22255.7 660.213  25 
  -4   3  -1 6657.24 453.600   8 
  -4   3  -1 6688.32 431.398  10 
   4   3   1 6684.87 434.003   2 
   4  -3   1 7064.05 396.886  32 
  -4  -3  -1 6733.90 382.788   6 
   4   3   1 7259.99 449.503   1 
   4  -3   1 6306.31 375.087  25 
  -4   3  -2 9017.60 575.917   8 
   4   3   2 8983.86 499.693   1 
  -4  -3  -2 8392.77 501.727  16 
   4   3   2 8631.31 532.153   3 
   4   3   2 8293.05 502.131   2 
  -4   3  -2 7597.20 475.425   6 
   4  -3   2 8137.94 444.464  32 
  -4  -3  -2 7769.17 452.398   6 
  -4   3  -2 8545.35 495.800  10 
   4  -3   2 7923.51 446.278  25 
  -4  -3  -3 35201.8 1060.74  16 
  -4   3  -3 34235.5 1204.63   8 
  -4   3  -3 38205.4 1106.76   6 
   4   3   3 37495.1 1154.97   3 
   4   3   3 37326.9 1110.23   2 
  -4  -3  -3 34373.2 1054.84   6 
   4  -3   3 35679.9 975.321  32 
  -4   3  -3 37574.4 1097.11  10 
   4  -3   3 36759.6 963.718  25 
  -4   3  -4 13990.4 743.318   8 
  -4   3  -4 14239.0 713.312   6 
   4  -3   4 13029.5 579.512  15 
   4   3   4 14703.6 757.228   3 
   4  -3   4 15380.6 677.995  32 
   4   3   4 13762.5 713.316   2 
  -4  -3  -4 13155.3 702.773  16 
  -4  -3  -4 13362.7 756.567   6 
   4  -3   4 13824.0 618.558  28 
  -4   3  -4 14939.5 761.737  10 
   4  -3   4 14947.3 632.411  25 
   4  -3   5 795.663 184.197  15 
  -4  -3  -5 863.340 204.328  16 
   4  -3   5 949.139 200.390  32 
  -4   3  -5 835.924 173.489   6 
  -4  -3  -5 463.638 227.453   6 
   4  -3   5 1108.55 238.829  28 
   4  -3   5 1066.32 183.820  27 
   4   3   5 582.993 182.362   2 
  -4   3  -5 770.476 220.523  10 
   4   3   5 1145.34 225.550   3 
   4  -3   5 1075.24 192.782  25 
   4   3   6 15305.7 827.861   3 
   4  -3   6 15079.7 697.898  32 
   4   3   6 14605.6 783.041   2 
   4  -3   6 14758.9 695.514  28 
  -4   3  -6 13980.5 869.836  10 
   4  -3   6 14452.3 622.474  25 
   4  -3   7 1554.87 238.000  32 
   4  -3   7 1650.90 226.757  28 
  -4   3  -7 2241.05 348.123  10 
   4   3   7 1673.79 278.083   2 
   4   3   7 1428.98 307.387   3 
   4   3   8 7552.24 584.709   3 
   4  -3   8 7985.87 480.817  32 
   4   3   8 7004.47 534.123   2 
   4  -3   8 7408.28 482.155  28 
  -4   3  -8 6623.94 489.155  10 
   4   3   9 3353.75 349.071   3 
   4   3   9 3085.51 332.378   2 
   4  -3   9 3168.60 285.968  28 
   4  -3   9 3187.28 281.828  32 
   4  -3  10 1016.78 144.018  32 
   4  -3  10 966.223 160.649  28 
   4   3  10 1147.61 184.024   2 
   4   3  10 1204.70 201.366   3 
  -4  -4  11 1707.00 195.343  23 
  -4   4  11 1282.04 193.310   5 
   4   4 -11 1361.01 205.457  12 
  -4   4  10 147.647 104.991   5 
  -4  -4  10 352.198 144.547  34 
  -4  -4   9 3497.39 357.487  34 
  -4  -4   9 3253.87 330.640  33 
  -4   4   9 3057.21 318.217   5 
  -4   4   8 372.965 176.401   5 
  -4  -4   8 144.351 94.2517  21 
  -4  -4   8 49.4178 207.882  34 
  -4  -4   8-255.069 171.771  33 
  -4  -4   8 182.863 72.0857  31 
   4   4  -8-68.2138 142.149  11 
  -4   4   7 19012.6 911.369   5 
  -4   4   7 17967.0 1026.57   7 
  -4  -4   7 18510.5 1002.96  33 
  -4  -4   7 19012.0 1072.93  34 
  -4  -4   7 18280.8 799.844  31 
  -4  -4   7 19227.5 1076.97  26 
  -4  -4   6 9772.39 818.978  22 
  -4   4   6 9941.57 769.062   7 
  -4  -4   6 10391.9 827.964  34 
  -4  -4   6 9134.85 853.227  26 
  -4  -4   5 4265.76 525.281  22 
  -4   4   5 4025.62 497.580   7 
  -4  -4   5 4342.24 461.074  18 
   4  -4  -5 4258.47 384.117  14 
   4   4  -5 4383.81 425.080   1 
  -4  -4   5 3964.64 588.927  26 
   4   4  -4 1744.92 235.394  24 
  -4   4   4 1897.22 208.894   8 
  -4  -4   4 1995.75 343.885  22 
  -4  -4   4 2045.70 282.645  18 
  -4   4   4 1755.21 257.847   4 
   4  -4  -4 1237.86 217.307  14 
  -4   4   4 2105.06 355.969   7 
   4  -4  -4 2149.63 247.229  30 
   4   4  -4 2100.90 285.746   1 
   4  -4  -4 1828.56 206.403  27 
   4   4  -3 4234.25 358.575  24 
   4   4  -3 4445.94 398.138   1 
  -4   4   3 4460.37 323.467   8 
  -4  -4   3 4903.60 428.600  22 
  -4   4   3 4587.98 390.777   4 
  -4  -4   3 4605.13 376.820  18 
  -4   4   3 3873.60 430.460   7 
   4  -4  -3 4633.54 388.395  14 
   4  -4  -3 4521.79 347.277  30 
   4  -4  -3 4238.35 323.161  27 
   4   4  -2 545.599 165.758  24 
  -4   4   2 611.337 147.774   8 
  -4  -4   2 698.601 144.144  18 
  -4   4   2 608.026 147.432   4 
   4   4  -2 655.391 187.428   1 
  -4   4   2 792.791 209.763   7 
   4  -4  -2 697.081 142.127  14 
   4  -4  -2 616.453 170.149  30 
  -4   4   1 3741.35 317.849   8 
   4   4  -1 4801.53 383.502   2 
  -4  -4   1 4116.29 355.251  18 
  -4   4   1 5060.91 413.451   7 
   4   4  -1 4188.86 354.561   1 
   4  -4  -1 4503.25 362.489  14 
   4  -4  -1 4067.09 281.799  25 
  -4   4   0 21071.2 779.329   8 
   4   4   0 19028.4 757.281   2 
   4   4   0 20310.8 762.760   1 
  -4   4   0 19824.7 769.721  10 
   4  -4   0 19414.4 645.175  25 
  -4   4  -1 1605.13 262.809   8 
   4   4   1 1823.18 245.807   2 
   4  -4   1 1886.36 226.383  32 
  -4   4  -1 1787.27 235.658  10 
   4   4   1 1891.36 241.301   1 
   4  -4   1 1760.18 211.135  25 
  -4   4  -2 4353.87 434.313   8 
   4   4   2 3706.67 351.422   2 
   4   4   2 3795.31 364.097   3 
   4  -4   2 3617.49 315.773  32 
  -4  -4  -2 3513.32 314.747   6 
  -4   4  -2 3918.65 361.768  10 
   4  -4   2 4209.81 336.093  25 
  -4   4  -3 3609.61 413.779   8 
  -4  -4  -3 3464.87 343.998  16 
   4   4   3 3919.08 352.307   1 
   4   4   3 3759.85 358.535   2 
   4   4   3 3786.97 394.649   3 
   4  -4   3 3558.34 327.547  32 
  -4  -4  -3 3175.42 348.551   6 
  -4   4  -3 4249.76 389.145  10 
   4  -4   3 4173.37 348.910  25 
  -4   4  -4 2190.45 303.796   8 
   4  -4   4 1983.51 246.775  15 
  -4  -4  -4 1818.44 264.533  16 
   4   4   4 2099.41 311.560   3 
   4   4   4 2156.70 285.412   2 
   4  -4   4 1937.30 272.284  32 
  -4  -4  -4 983.477 238.654   6 
  -4   4  -4 2059.99 312.962  10 
   4  -4   4 1912.43 269.865  25 
  -4   4  -5 19191.1 766.330   8 
   4   4   5 20257.7 929.955   3 
   4   4   5 19683.0 854.506   2 
   4  -4   5 20501.9 824.471  32 
   4  -4   5 18765.5 747.693  28 
  -4   4  -5 19113.5 983.920  10 
   4  -4   5 19656.2 753.510  25 
   4   4   6 24662.5 1042.17   3 
   4   4   6 24799.1 951.928   2 
   4  -4   6 26093.5 912.808  32 
   4  -4   6 26481.6 889.921  28 
  -4   4  -6 23810.9 1114.34  10 
   4  -4   6 25677.5 835.304  25 
   4   4   7 6930.10 491.753   2 
   4   4   7 6766.77 539.474   3 
   4  -4   7 7892.34 488.677  32 
   4  -4   7 7039.35 457.014  28 
  -4   4  -7 6903.33 568.688  10 
   4  -4   8 289.198 143.292  32 
   4  -4   8 191.031 87.7026  28 
  -4   4  -8 220.122 102.113  10 
   4   4   8 0.89574 123.578   3 
   4  -4   9-139.887 79.0222  32 
   4  -4   9-53.5412 50.3734  28 
   4   4   9-161.151 94.8251   2 
   4   4   9-10.7490 119.748   3 
   4   4  10 486.607 106.361   3 
  -4  -5  10 1442.18 179.758  34 
   4   5 -10 1623.05 222.905  12 
  -4  -5   9 8130.70 496.470  34 
  -4  -5   9 7802.81 456.669  33 
  -4  -5   9 7562.64 394.481  31 
   4   5  -9 7725.16 507.373  12 
  -4  -5   8 31507.3 1136.02  34 
  -4  -5   8 32053.0 1085.06  33 
  -4  -5   8 30683.7 902.678  31 
   4   5  -8 29268.5 1009.25  12 
   4   5  -8 28157.4 873.780  11 
  -4  -5   7 28401.5 1245.62  34 
  -4  -5   7 28777.9 1224.07  33 
  -4  -5   7 30583.6 1064.04  31 
   4   5  -7 29117.8 1025.90  12 
   4   5  -7 28790.3 956.503  11 
  -4  -5   6 5134.44 604.640  22 
  -4  -5   6 5969.71 685.451  34 
   4   5  -6 5922.05 458.102  12 
   4   5  -6 5703.90 432.999  11 
  -4  -5   6 5035.68 707.316  26 
  -4  -5   5 546.637 263.594  22 
  -4   5   5 386.455 190.793   7 
  -4  -5   5 622.765 274.723  34 
   4   5  -5 576.254 137.220  12 
  -4  -5   5 280.113 345.525  26 
  -4  -5   4 384.643 214.283  22 
  -4   5   4 134.118 110.505   8 
  -4   5   4 312.388 133.044   4 
  -4  -5   4 221.685 187.015  18 
  -4   5   4-17.3314 184.487   7 
   4  -5  -4 449.565 129.492  14 
   4   5  -4 275.810 148.384   1 
  -4   5   3 2281.92 247.275   8 
  -4  -5   3 2209.54 306.453  22 
  -4   5   3 2011.12 281.081   4 
  -4  -5   3 2201.88 283.141  18 
  -4   5   3 2074.02 332.081   7 
   4  -5  -3 1877.91 269.135  14 
   4  -5  -3 2408.02 273.692  30 
   4   5  -3 2280.59 286.254   1 
   4  -5  -3 2370.84 251.175  27 
   4   5  -3 2566.50 306.246  24 
   4   5  -2 10853.8 588.616  24 
  -4   5   2 10396.2 536.701   8 
  -4   5   2 10271.9 591.162   4 
  -4   5   2 10022.8 716.949   7 
  -4  -5   2 9515.35 568.477  18 
   4  -5  -2 10285.8 592.806  14 
   4  -5  -2 10433.9 536.983  30 
   4   5  -2 10264.4 586.473   1 
   4   5  -1 151382. 2165.42  24 
   4   5  -1 149203. 2152.60   1 
  -4   5   1 151032. 2086.28   8 
  -4  -5   1 148517. 2165.41  18 
   4  -5  -1 146893. 2167.88  14 
  -4   5   1 154122. 2193.69  10 
   4   5   0 26641.0 924.486  24 
  -4   5   0 27474.1 955.146   8 
   4   5   0 27801.4 933.100   2 
   4   5   0 26400.1 901.134   1 
  -4  -5   0 28391.5 981.507  18 
  -4   5   0 27468.2 948.593  10 
   4  -5   0 26687.2 788.486  25 
   4   5   1 11866.5 630.073  24 
  -4   5  -1 12149.3 698.342   8 
   4   5   1 12043.4 624.235   2 
   4   5   1 11500.4 589.612   1 
   4  -5   1 11832.5 541.868  32 
  -4   5  -1 11829.9 640.514  10 
   4  -5   1 11665.8 545.834  25 
   4   5   2 28608.8 974.407  24 
  -4   5  -2 28811.9 1172.44   8 
   4   5   2 30257.5 995.855   2 
   4  -5   2 28481.6 887.172  32 
  -4   5  -2 29486.8 1039.64  10 
   4  -5   2 29150.6 889.289  25 
   4   5   3 6944.32 487.673  24 
  -4   5  -3 6941.60 573.380   8 
   4   5   3 6187.21 470.778   2 
   4  -5   3 6881.16 454.300  32 
  -4   5  -3 6917.80 537.811  10 
   4  -5   3 7081.29 456.655  25 
   4   5   4 1621.73 268.651  24 
  -4   5  -4 1748.99 280.961   8 
   4  -5   4 1547.00 254.297  32 
   4   5   4 1581.07 243.783   2 
   4   5   4 1537.48 251.964   3 
  -4   5  -4 1835.52 288.736  10 
   4  -5   4 1967.27 260.653  25 
   4   5   5 9144.71 497.997  24 
  -4   5  -5 9038.82 542.696   8 
   4   5   5 8484.65 540.382   2 
   4   5   5 7353.20 554.398   3 
   4  -5   5 8812.48 529.464  32 
  -4   5  -5 8302.08 652.965  10 
   4  -5   5 8769.87 510.714  25 
   4   5   6 29886.5 972.380   2 
   4   5   6 30568.9 1108.27   3 
   4  -5   6 30114.3 952.472  32 
   4  -5   6 29813.4 877.990  28 
  -4   5  -6 28259.2 1180.83  10 
   4  -5   6 31374.8 825.510  27 
   4  -5   6 31437.5 913.560  25 
   4   5   7 4842.54 441.353   3 
   4  -5   7 5053.36 382.418  32 
   4  -5   7 4906.83 352.143  28 
  -4   5  -7 4289.68 440.435  10 
   4  -5   7 4657.42 341.952  25 
   4   5   8 2909.36 314.350   3 
   4  -5   8 2836.37 279.218  32 
   4  -5   8 2645.37 246.174  28 
  -4   5  -8 2821.34 295.313  10 
   4   5   9 2064.37 238.689   3 
   4  -5   9 2123.20 195.983  32 
  -4  -6   9 544.696 141.890  34 
  -4  -6   9 328.151 102.584  33 
   4   6  -9 592.562 136.919  12 
  -4  -6   9 287.595 90.3013  28 
  -4  -6   8 10230.9 554.946  34 
  -4  -6   8 11150.5 582.767  33 
  -4  -6   8 9430.98 473.017  31 
   4   6  -8 10201.9 562.106  12 
   4   6  -8 10569.4 511.982  11 
  -4  -6   7 7413.28 569.469  34 
  -4  -6   7 7968.55 619.225  33 
  -4  -6   7 9202.09 564.641  31 
   4   6  -7 8046.68 507.303  12 
   4   6  -7 8333.15 497.369  11 
  -4  -6   7 9188.29 683.860  26 
  -4  -6   6 1137.93 326.703  34 
  -4  -6   6 1857.34 353.147  33 
   4   6  -6 1770.29 286.576  12 
   4   6  -6 1868.77 282.398  11 
  -4  -6   6 1713.26 375.662  26 
  -4  -6   5 204.436 199.456  22 
  -4  -6   5 135.281 203.051  34 
   4   6  -5 15.2877 155.075  11 
  -4  -6   5 291.683 253.818  26 
  -4  -6   4 770.581 194.162  22 
  -4   6   4 823.128 169.706   8 
   4   6  -4 948.096 195.129  11 
  -4  -6   4 1209.85 363.588  26 
  -4   6   3 2383.67 263.844   8 
  -4  -6   3 2371.93 325.461  22 
  -4   6   3 1944.97 276.761   4 
   4   6  -3 2214.64 284.645  11 
   4  -6  -3 2402.01 258.741  27 
  -4   6   2 28148.5 907.584   8 
  -4  -6   2 28411.5 1001.72  22 
  -4   6   2 26238.0 959.955   4 
   4  -6  -2 29157.0 897.779  30 
   4   6  -2 27991.6 991.027  11 
   4   6  -2 28096.5 987.485  24 
  -4   6   1 37211.4 1090.22   8 
  -4   6   1 34753.8 1097.45   4 
   4  -6  -1 34811.7 992.084  30 
   4   6  -1 36625.8 1089.93  11 
   4   6  -1 36082.0 1118.50  24 
   4   6   0 38662.7 1166.52  24 
  -4   6   0 43828.1 1256.87   8 
   4   6   0 42391.5 1110.31  11 
  -4   6   0 41739.8 1180.58  10 
   4  -6   0 41527.1 1003.81  25 
   4   6   1 38440.1 1158.60  24 
  -4   6  -1 40970.9 1322.83   8 
  -4   6  -1 38367.6 1159.89  10 
   4  -6   1 38446.4 1002.91  25 
   4   6   2 20044.4 825.010  24 
  -4   6  -2 21014.7 1013.09   8 
   4  -6   2 20323.7 740.035  32 
  -4   6  -2 19774.4 869.882  10 
   4  -6   2 19631.0 739.949  25 
   4   6   3 6228.65 460.729  24 
  -4   6  -3 6154.51 547.584   8 
   4  -6   3 5151.02 400.609  32 
  -4   6  -3 5685.24 498.159  10 
   4  -6   3 6503.78 438.431  25 
   4   6   4 1154.89 207.193  24 
  -4   6  -4 1100.19 256.432   8 
   4  -6   4 1296.65 216.980  32 
  -4   6  -4 1139.87 243.290  10 
   4  -6   4 1328.00 194.743  25 
  -4   6  -5 16454.1 695.560   8 
   4  -6   5 17289.8 708.634  32 
  -4   6  -5 16457.9 872.109  10 
   4  -6   5 18463.3 707.900  25 
   4  -6   6 1244.56 211.061  32 
   4  -6   6 915.007 155.583  27 
  -4   6  -6 1156.08 257.021  10 
   4  -6   6 1001.88 179.812  25 
   4  -6   7 3215.54 285.989  32 
  -4   6  -7 3194.95 318.928  10 
   4  -6   7 3454.09 272.134  25 
   4  -6   8 470.431 118.632  32 
  -4   6  -8 519.492 156.635  10 
  -4  -7   8 12253.8 496.389  34 
  -4  -7   8 13110.6 517.139  33 
  -4  -7   8 11924.8 451.016  31 
   4   7  -8 12222.3 495.235  12 
  -4  -7   7 27837.7 898.900  33 
   4   7  -7 26117.2 782.248  12 
  -4  -7   7 27639.8 829.281  31 
  -4  -7   7 26756.0 851.264  34 
   4   7  -7 26342.0 787.749  11 
  -4  -7   7 27865.0 957.457  26 
   4   7  -6 643.642 159.404   9 
  -4  -7   6 1054.17 200.850  34 
  -4  -7   6 451.101 211.590  33 
  -4  -7   6 542.246 189.921  31 
   4   7  -6 568.264 145.595  11 
  -4  -7   6 410.991 174.436  26 
  -4  -7   5 1952.85 337.754  34 
   4   7  -5 2203.15 291.634  11 
  -4  -7   5 1942.37 378.264  26 
  -4  -7   4 1208.69 262.740  34 
   4   7  -4 1801.48 289.436  11 
  -4  -7   4 1249.62 346.802  26 
  -4  -7   3 627.571 190.456  22 
  -4   7   3 773.249 164.979   8 
   4   7  -3 522.567 171.772  11 
   4  -7  -3 342.253 123.661  27 
  -4   7   2 6906.13 453.743   8 
  -4  -7   2 7466.27 523.532  22 
  -4   7   2 7232.09 483.681   4 
   4   7  -2 7145.57 513.484  11 
  -4   7   1 52692.7 1292.04   8 
  -4  -7   1 51791.8 1328.78  22 
  -4   7   1 50244.0 1245.67   4 
   4   7  -1 51750.4 1271.78  11 
  -4   7   0 6037.75 472.693   8 
  -4   7   0 5849.81 447.024   4 
   4   7   0 5184.71 395.222  11 
  -4   7   0 5271.88 406.912  10 
   4  -7   0 5382.19 348.879  25 
  -4   7  -1 1660.76 309.868   8 
  -4   7  -1 1224.74 239.331   4 
  -4   7  -1 1511.93 228.465  10 
   4  -7   1 1486.92 190.979  25 
  -4   7  -2 1411.60 278.483   8 
  -4   7  -2 1095.38 217.807  10 
   4  -7   2 1663.89 215.083  25 
  -4   7  -3 4597.78 445.235   8 
   4  -7   3 4510.33 330.437  32 
  -4   7  -3 4872.05 431.944  10 
   4  -7   3 4480.04 348.081  25 
  -4   7  -4 1347.01 265.519   8 
   4  -7   4 1074.55 167.501  32 
  -4   7  -4 1218.02 202.778  10 
   4  -7   4 1336.06 187.471  25 
  -4   7  -5 8166.10 450.686   8 
   4  -7   5 8308.36 434.259  32 
  -4   7  -5 7924.89 542.832  10 
   4  -7   5 8669.45 443.874  25 
   4  -7   6 12993.5 518.147  32 
  -4   7  -6 12740.0 620.288  10 
   4  -7   6 13338.1 470.011  27 
   4  -7   6 13816.1 517.819  25 
   4  -7   7 24393.7 637.627  32 
  -4   7  -7 23753.3 725.257  10 
   4   8  -6 819.931 112.436   9 
  -4  -8   6 756.745 157.628  33 
  -4  -8   6 1214.56 190.321  31 
  -4  -8   6 835.617 172.272  26 
   4   8  -5 1437.20 192.171   9 
  -4  -8   5 1473.82 231.298  34 
  -4  -8   5 1348.08 259.606  33 
  -4  -8   5 758.087 214.425  31 
  -4  -8   5 1465.53 262.585  26 
   4   8  -4 6707.06 410.212   9 
  -4  -8   4 7224.46 534.800  34 
   4   8  -4 7250.77 452.507  11 
  -4  -8   4 5717.65 565.001  26 
   4   8  -3 3839.53 345.257   9 
  -4  -8   3 4329.10 441.588  34 
   4   8  -3 4011.12 336.340  11 
  -4  -8   3 4824.43 505.343  26 
   4   8  -2 14526.3 642.340   9 
  -4   8   2 15205.4 595.461   8 
  -4  -8   2 14604.5 773.018  34 
   4   8  -2 15115.8 648.197  11 
   4  -8  -2 15143.6 569.644  27 
   4   8  -1 5555.48 407.780   9 
  -4   8   1 5801.01 406.553   8 
  -4  -8   1 6129.70 435.420  22 
   4   8  -1 5437.66 379.508  11 
   4   8   0 10801.3 553.935   9 
  -4   8   0 10608.4 568.499   8 
  -4  -8   0 10823.6 558.028  22 
   4   8   1 5155.63 362.630   9 
  -4   8  -1 4685.05 420.593   8 
   4  -8   1 4165.37 311.039  30 
   4  -8   1 4448.67 298.328  25 
   4   8   2 6055.01 359.444   9 
  -4   8  -2 5946.28 450.590   8 
  -4   8  -2 5650.99 398.822  10 
   4  -8   2 5664.36 350.196  25 
  -4   8  -3 1487.37 222.409   8 
  -4   8  -3 1252.24 194.791  10 
   4  -8   3 1466.26 192.472  25 
  -4   8  -4 2171.44 243.199   8 
  -4   8  -4 2290.14 257.924  10 
   4  -8   4 2262.38 215.882  25 
  -4   8  -5 5920.94 329.355   8 
  -4   8  -5 6837.82 413.548  10 
   4  -8   5 6360.67 316.637  27 
   4  -8   5 6834.81 335.276  25 
  -4  -9   4 2196.87 244.378  31 
   4   9  -4 2350.58 213.991   9 
   4   9  -3 5310.03 332.207   9 
  -4  -9   3 4913.09 401.846  33 
   4   9  -2 3201.50 260.659   9 
  -4  -9   2 2832.98 343.887  26 
   4   9  -1 3641.06 286.831   9 
  -4   9   1 3326.25 259.954   8 
   4  -9  -1 2967.27 223.432  27 
  -4  -9   1 2899.83 314.425  26 
   4   9   0 6378.61 356.006   9 
  -4   9   0 6378.19 364.457   8 
   4  -9   0 6257.14 336.675  27 
   4   9   1 551.389 106.433   9 
  -4   9  -1 775.980 160.159   8 
   4  -9   1 776.875 119.789  27 
  -4   9  -2 1251.80 186.458   8 
   4  -9   2 1154.67 137.582  27 
  -5   0  11 4523.31 374.503   5 
  -5   0  10 102.885 94.3746   5 
  -5   0   9 2617.12 339.224  21 
  -5   0   9 2212.49 407.106   5 
  -5   0   8 10141.7 700.095  21 
  -5   0   8 10427.3 788.592   7 
  -5   0   7 33048.9 1278.46  21 
  -5   0   7 35969.4 1458.26   7 
  -5   0   6 226061. 3400.65   7 
  -5   0   5 11694.4 704.919   7 
  -5   0   4 6119.31 424.823   4 
   5   0  -4 6669.62 437.403   1 
  -5   0   4 6700.90 500.080   7 
   5   0  -3 1002.67 197.085   1 
  -5   0   3 655.143 260.571  22 
  -5   0   3 958.371 171.294   4 
   5   0  -2 1654.56 222.919   2 
  -5   0   2 1227.02 271.720  22 
  -5   0   2 1403.12 202.647   4 
   5   0  -2 1353.99 216.570  30 
   5   0  -2 1493.09 226.938   1 
  -5   0   1 5376.04 454.875  22 
   5   0  -1 4181.73 348.413   2 
   5   0  -1 4651.62 322.512  17 
  -5   0   1 4176.34 342.984   6 
   5   0  -1 4191.58 319.132  32 
   5   0  -1 4622.67 351.584  30 
  -5   0   0 1790.84 273.274  22 
   5   0   0 1753.51 243.966   2 
   5   0   0 1967.84 218.742  17 
   5   0   0 2299.12 265.497  32 
  -5   0   0 2047.39 253.794   6 
   5   0   0 1962.00 223.368  30 
   5   0   1 2208.78 236.105  17 
   5   0   1 2200.14 257.114   2 
   5   0   1 2690.77 281.547  32 
  -5   0  -1 2068.08 269.926   6 
   5   0   1 2298.70 256.480  30 
   5   0   2 20047.0 734.307  17 
   5   0   2 20620.4 820.347   2 
   5   0   2 20348.1 777.469  32 
  -5   0  -2 20143.4 819.861   6 
   5   0   2 20233.4 719.991  30 
   5   0   3 4159.79 357.557  17 
   5   0   3 4039.16 391.212   2 
  -5   0  -3 3994.78 367.312  16 
   5   0   3 4513.94 398.688  32 
  -5   0  -3 4041.10 397.161   6 
   5   0   3 4402.43 350.429  30 
  -5   0  -4 5198.71 497.389   6 
   5   0   4 6063.42 446.237  17 
   5   0   4 6063.58 465.859   3 
  -5   0  -4 5744.11 461.711  16 
   5   0   4 5535.76 439.106  32 
   5   0   4 6414.32 505.912   2 
   5   0   5 624.695 175.734  32 
   5   0   5 610.258 172.178   3 
   5   0   5 363.567 165.178   2 
   5   0   6 3938.43 380.626   3 
   5   0   6 4622.79 396.655  32 
   5   0   7 16124.6 729.992   3 
   5   0   7 17214.4 721.493  32 
   5   0   7 15437.5 814.008   2 
   5   0   8 697.202 135.236  32 
   5   0   8 445.939 161.213   2 
   5   0   9 2304.48 277.296   2 
  -5  -1  11 2750.90 271.189   5 
  -5   1  11 2603.17 297.998   5 
  -5  -1  10 2216.19 321.234   5 
  -5   1  10 2350.08 337.098   5 
  -5  -1  10 1969.08 246.220  21 
  -5  -1   9 37.3865 205.382   5 
  -5   1   9 71.1146 169.962   5 
  -5   1   9-85.0918 151.895  21 
  -5  -1   9-191.985 196.817  21 
  -5  -1   9 129.239 89.8191  34 
  -5   1   8 7901.19 581.195  21 
  -5  -1   8 7881.17 622.807  21 
  -5   1   8 7096.62 680.277   7 
  -5  -1   8 8452.88 518.575  34 
  -5   1   7 3716.64 452.887  21 
  -5  -1   7 3717.99 489.543  21 
  -5   1   7 3861.92 492.019   7 
  -5  -1   7 3794.43 478.251   7 
  -5  -1   7 3489.75 415.882  34 
  -5   1   6 69561.8 1773.98  21 
  -5   1   6 74904.6 2047.06   7 
  -5  -1   6 75475.6 1906.59   7 
  -5  -1   6 69229.0 1811.19  34 
  -5   1   5 25220.6 1082.19  21 
  -5   1   5 27706.0 1139.97   7 
  -5  -1   5 26853.5 1034.65   7 
  -5  -1   5 28973.8 1101.61  34 
  -5  -1   5 29975.9 1081.86  26 
   5   1  -5 29025.1 928.019   1 
  -5  -1   4 2555.89 409.668  22 
  -5   1   4 2974.43 307.191   4 
   5   1  -4 3222.61 331.497   1 
  -5   1   4 3092.00 356.982   7 
  -5  -1   4 3154.40 324.042   7 
   5  -1  -3 5194.93 375.655   1 
  -5  -1   3 4270.46 469.962  22 
  -5   1   3 4170.58 351.951   4 
  -5   1   3 4304.66 389.610   7 
   5  -1  -3 4606.71 367.616  30 
   5   1  -3 5153.50 407.558   1 
   5   1  -2 1691.87 250.409   2 
  -5  -1   2 1247.60 275.139  22 
   5   1  -2 1760.97 253.792   1 
  -5   1   2 1380.66 216.616   4 
   5  -1  -2 1695.42 186.228  17 
   5  -1  -2 1809.84 241.307  30 
   5  -1  -2 1551.95 204.103  27 
   5  -1  -2 1293.90 212.169   1 
  -5  -1   1 8452.50 539.613  22 
   5  -1  -1 8822.93 487.343   2 
   5   1  -1 8275.30 509.832   2 
  -5  -1   1 8170.18 421.935  18 
   5  -1  -1 7817.89 408.843  17 
   5  -1  -1 7667.89 419.728  32 
  -5  -1   1 7542.66 446.248   6 
   5   1  -1 8782.87 466.446  30 
   5  -1  -1 8010.13 462.484  30 
   5  -1  -1 8490.36 458.471  27 
   5   1  -1 8844.43 500.051   1 
  -5  -1   0 1261.89 217.027  22 
   5   1   0 1730.90 234.470   2 
  -5  -1   0 1342.63 191.566  18 
   5   1   0 1510.97 209.857  17 
   5  -1   0 1651.99 213.644  17 
   5  -1   0 1810.17 230.354  32 
  -5  -1   0 1733.41 224.591   6 
   5   1   0 1427.38 219.631  32 
   5   1   0 1499.96 206.878  30 
   5  -1   0 1383.14 208.759  30 
   5  -1   0 1262.74 195.628   2 
  -5   1   0 1222.96 224.849   6 
   5  -1   0 1181.91 176.241  27 
  -5  -1  -1 10769.8 556.736  22 
   5   1   1 10765.8 539.402  17 
   5  -1   1 10689.9 528.702  17 
   5   1   1 10969.1 599.876   2 
   5  -1   1 9762.14 516.875   2 
   5   1   1 10513.8 561.174  32 
   5  -1   1 10191.0 529.858  32 
  -5   1  -1 12435.6 627.708   6 
  -5  -1  -1 9439.13 531.758   6 
   5   1   1 10536.7 508.024  30 
   5  -1   1 10312.0 542.083  30 
   5  -1   1 10259.8 504.651  27 
  -5  -1  -2 12445.6 647.111   6 
   5   1   2 13720.2 623.836  17 
   5  -1   2 13308.4 611.088  17 
   5   1   2 12493.3 655.999   2 
   5   1   2 12848.2 626.282  32 
   5  -1   2 12899.7 629.122   2 
   5  -1   2 13176.4 623.834  32 
  -5   1  -2 11478.5 632.274   6 
   5  -1   2 13157.8 605.786  30 
   5  -1   2 13079.8 573.946  27 
   5   1   3 10323.9 587.745  32 
   5  -1   3 10172.4 544.766  30 
   5  -1   3 10857.5 592.381  32 
   5   1   3 10872.4 574.962  17 
   5   1   3 11776.2 662.908   3 
   5  -1   3 10391.1 569.984  17 
  -5  -1  -3 9626.91 585.135  16 
   5   1   3 11646.6 668.958   2 
  -5   1  -3 10721.4 649.446   6 
  -5  -1  -3 9961.74 614.913   6 
   5  -1   3 10340.0 597.896   2 
   5  -1   3 10345.0 513.274  27 
   5   1   4 31039.5 992.875  17 
   5  -1   4 31421.5 997.001  17 
  -5  -1  -4 27357.0 1048.18  16 
   5   1   4 30631.3 1082.31   3 
   5   1   4 29756.0 1003.18  32 
   5  -1   4 29128.6 994.443  32 
  -5   1  -4 28545.9 1105.40   6 
  -5  -1  -4 28840.1 1146.14   6 
   5   1   4 29256.2 1088.95   2 
   5  -1   4 30326.6 1058.93   2 
   5  -1   4 28690.5 898.520  30 
   5  -1   4 27894.5 946.615  28 
   5  -1   4 31229.7 845.804  27 
   5   1   5 2265.91 323.749   3 
   5   1   5 2201.46 318.029  32 
   5  -1   5 3003.69 347.171  32 
   5   1   5 2471.48 349.296   2 
   5  -1   5 3142.69 373.337  28 
   5   1   6 2302.47 308.916   3 
   5  -1   6 1940.32 267.978  32 
   5   1   6 1667.36 258.292  32 
   5  -1   6 1280.13 250.183  28 
   5   1   6 1555.38 307.334   2 
   5   1   7 1255.64 224.196  32 
   5  -1   7 1517.32 222.723  32 
   5   1   7 1423.63 262.781   3 
   5   1   7 1194.41 284.316   2 
   5   1   8 781.721 137.182  32 
   5  -1   8 754.927 170.148  32 
   5   1   8 954.010 219.094   3 
   5   1   8 518.626 195.528   2 
   5  -1   8 955.953 193.388   2 
   5   1   9 4803.27 341.422   3 
   5  -1   9 5282.77 312.668  32 
   5   1   9 5111.87 382.638   2 
   5  -1   9 5177.98 375.203   2 
  -5  -2  11 5923.68 308.512  23 
  -5   2  11 5618.08 384.923   5 
  -5   2  10 3171.20 337.866   5 
  -5  -2  10 3728.23 325.402  21 
  -5  -2  10 3667.11 301.125  34 
  -5  -2  10 3335.94 339.112   5 
  -5  -2   9 2466.23 315.354   5 
  -5   2   9 2423.88 373.349   5 
  -5  -2   9 2666.39 327.340  21 
  -5  -2   9 2632.45 290.103  34 
  -5   2   8-59.5415 138.072  21 
  -5  -2   8 172.735 193.159  21 
  -5  -2   8-35.8106 42.7575  34 
  -5   2   8 49.0087 189.684   7 
  -5   2   7 1071.91 249.229  21 
  -5   2   7 1697.31 341.207   7 
  -5  -2   7 1360.35 301.462  34 
  -5   2   6 124679. 2235.05  21 
  -5   2   6 127880. 2797.36   7 
  -5  -2   6 126467. 2586.70  34 
  -5  -2   5 69509.1 2118.10  22 
  -5   2   5 76273.0 1732.77  21 
  -5   2   5 79023.8 2028.23   7 
  -5  -2   5 81916.1 1745.47   7 
   5  -2  -5 71758.0 1581.91  14 
   5   2  -5 81979.6 1636.29   1 
  -5  -2   5 71840.9 1952.80  26 
  -5  -2   4 3560.59 489.440  22 
   5   2  -4 4157.31 366.232   1 
  -5   2   4 3642.63 403.003  21 
  -5   2   4 3701.37 367.911   4 
  -5  -2   4 3978.60 389.912  18 
  -5   2   4 3160.46 399.436   7 
  -5  -2   4 3506.90 365.554   7 
   5  -2  -4 3431.98 321.497  30 
  -5  -2   4 3497.25 480.211  26 
  -5  -2   3 90.8883 146.627  22 
  -5   2   3 485.967 166.348  21 
  -5   2   3 101.014 85.8869   4 
  -5  -2   3 137.794 74.3234  18 
  -5   2   3 266.514 121.113   7 
   5  -2  -3 133.522 132.957  30 
   5  -2  -3 136.121 109.145  27 
  -5  -2   3 494.517 224.558  26 
   5   2  -3 299.767 144.991   1 
   5   2  -2 16161.6 738.518   2 
  -5  -2   2 14965.4 755.346  22 
  -5   2   2 16402.6 722.173   4 
  -5  -2   2 14654.6 612.469  18 
  -5   2   2 13345.1 678.131   7 
   5  -2  -2 14953.6 642.108  30 
   5   2  -2 15084.1 675.826   1 
   5  -2  -2 14856.9 610.897  27 
  -5  -2   1 7707.54 517.347  22 
   5   2  -1 8497.07 530.085   2 
   5   2  -1 8631.24 513.594   1 
  -5  -2   1 8375.58 476.784  18 
   5  -2  -1 8243.56 420.903  17 
   5  -2  -1 8276.22 490.547  30 
   5  -2  -1 8010.58 467.700  27 
   5   2   0 16141.4 730.362   2 
  -5  -2   0 15895.5 661.841  18 
   5  -2   0 17484.3 646.249  17 
   5  -2   0 16485.5 637.100  32 
  -5  -2   0 16068.2 653.633   6 
   5  -2   0 16464.3 692.549  30 
   5   2   0 16038.3 706.302   1 
   5  -2   0 16573.7 656.700  27 
   5   2   1 12542.2 651.957   1 
   5   2   1 11430.8 626.148   2 
   5  -2   1 11664.9 557.628  32 
  -5  -2  -1 12135.3 594.992   6 
   5  -2   1 11844.4 600.564  30 
  -5   2  -1 12319.5 595.366  10 
   5  -2   1 12158.5 578.632  27 
   5   2   2 30279.8 1046.89   2 
   5   2   2 29545.8 972.985  32 
  -5   2  -2 28404.4 1020.68   6 
   5  -2   2 30418.0 940.085  32 
  -5  -2  -2 28055.1 965.913   6 
   5  -2   2 29271.5 948.690  30 
  -5   2  -2 29952.0 964.540  10 
   5  -2   2 29755.2 890.649  27 
   5   2   3 20646.2 901.486   3 
  -5  -2  -3 18209.6 815.990  16 
  -5   2  -3 19400.8 887.175   6 
   5   2   3 19643.6 884.002   2 
   5  -2   3 20023.6 790.510  32 
   5  -2   3 20043.2 794.419   2 
  -5  -2  -3 17784.3 842.527   6 
   5   2   3 18363.9 786.249  32 
  -5   2  -3 19373.4 825.549  10 
   5  -2   3 19676.8 721.830  27 
   5   2   4 10865.8 663.951   3 
   5   2   4 10660.1 611.334  32 
   5   2   4 10600.7 668.137   2 
   5  -2   4 10222.2 595.403  32 
   5  -2   4 10850.8 615.074   2 
   5  -2   4 10333.5 571.025  28 
  -5   2  -4 11514.1 685.559  10 
   5  -2   4 11389.4 532.122  27 
   5   2   5 209.603 126.855  32 
   5  -2   5 209.973 148.715  32 
   5  -2   5 134.190 160.709  28 
   5   2   5-6.02628 100.060   2 
   5   2   5 223.174 101.625   3 
   5  -2   5 325.587 115.267   2 
   5   2   6 3849.25 430.315   3 
   5   2   6 5210.96 410.045  32 
   5  -2   6 5331.56 434.681  32 
   5   2   6 4404.35 458.928   2 
   5  -2   6 4469.52 396.412  28 
   5   2   7 17074.9 820.427   3 
   5  -2   7 17875.3 728.016  32 
   5   2   7 17275.8 832.932   2 
   5  -2   7 17265.2 763.745   2 
   5  -2   7 17155.7 733.758  28 
   5   2   8 20082.4 816.467   3 
   5  -2   8 20028.1 701.491  32 
   5   2   8 20075.4 828.480   2 
   5  -2   8 20419.7 773.409   2 
   5   2   9 3339.87 295.032   3 
   5   2   9 3138.43 321.687   2 
   5  -2   9 3560.33 268.599  32 
   5  -2   9 2875.52 272.367   2 
  -5   3  11 961.726 142.342   5 
   5   3 -11 1102.28 156.807  12 
  -5   3  10 1425.19 250.230   5 
  -5  -3  10 1350.72 194.445  21 
  -5  -3  10 1674.61 216.770  34 
  -5   3   9 3997.36 401.450   5 
  -5  -3   9 3651.33 363.742  21 
  -5  -3   9 3950.36 368.015  34 
  -5   3   8 6959.12 583.597   5 
  -5  -3   8 7648.76 606.609  21 
  -5   3   8 6786.81 634.796   7 
  -5  -3   8 7558.16 569.769  34 
  -5  -3   8 8324.58 484.573  33 
  -5   3   7 4846.47 587.140   7 
  -5  -3   7 6333.92 612.356  34 
  -5  -3   7 6897.39 531.336  33 
  -5  -3   7 6786.77 569.879  26 
  -5   3   6 23991.2 935.156  21 
  -5   3   6 22937.2 1219.81   7 
  -5  -3   6 23737.9 1179.28  34 
  -5  -3   6 25611.7 1211.80  26 
  -5  -3   5 12163.5 936.376  22 
  -5   3   5 12566.5 681.808  21 
  -5   3   5 12602.9 868.837   7 
  -5  -3   5 10091.3 843.055  26 
   5   3  -4 10325.5 601.031   1 
   5   3  -4 10093.2 526.167  24 
  -5  -3   4 11340.8 818.121  22 
  -5   3   4 11081.6 651.927   4 
  -5  -3   4 10612.8 651.431  18 
  -5   3   4 10020.8 721.754   7 
   5  -3  -4 10361.2 612.372  14 
   5  -3  -4 10733.4 567.098  30 
   5  -3  -4 10420.6 511.992  27 
  -5  -3   4 10237.2 802.906  26 
   5   3  -3 628.541 181.132  24 
  -5  -3   3 827.564 262.704  22 
  -5   3   3 1343.75 227.620   4 
  -5  -3   3 1003.05 209.511  18 
  -5   3   3 748.633 215.339   7 
   5   3  -3 1069.38 241.224   1 
   5  -3  -3 1014.65 206.575  30 
   5  -3  -3 803.309 178.832  27 
  -5  -3   2 7422.60 562.207  22 
  -5   3   2 7193.80 512.034   4 
  -5  -3   2 6775.29 454.309  18 
  -5   3   2 6243.24 498.357   7 
   5   3  -2 7492.67 500.959   1 
   5  -3  -2 7600.09 469.419  30 
   5  -3  -2 7575.78 455.408  27 
  -5   3   1 2684.10 290.996   8 
  -5  -3   1 2666.57 327.354  22 
   5   3  -1 2347.40 295.347   2 
  -5  -3   1 2493.59 285.731  18 
  -5   3   1 2578.26 310.700   7 
   5  -3  -1 2665.27 251.162  17 
   5  -3  -1 2740.47 307.551  30 
   5   3  -1 2991.31 341.523   1 
   5  -3  -1 2755.24 287.821  27 
  -5   3   0 17150.6 761.102   8 
   5   3   0 17808.9 777.341   1 
   5   3   0 15102.3 736.652   2 
  -5  -3   0 15434.0 702.402  18 
  -5   3   0 15254.3 714.358   7 
   5  -3   0 15916.6 633.698  32 
   5  -3   0 15735.3 713.214  30 
   5  -3   0 16248.4 680.852  27 
  -5   3  -1 192040. 2782.39   8 
   5   3   1 184978. 2590.52   2 
   5   3   1 193412. 2602.66   1 
   5  -3   1 187824. 2239.22  32 
   5  -3   1 185598. 2425.43  30 
  -5   3  -1 182513. 2411.51  10 
   5  -3   1 185951. 2308.64  27 
  -5   3  -2 12794.5 786.304   8 
   5   3   2 12509.6 701.039   2 
   5  -3   2 12763.1 618.880  32 
  -5  -3  -2 11945.9 632.458   6 
   5   3   2 13139.5 699.805   1 
  -5   3  -2 12000.8 639.454  10 
   5  -3   2 12978.1 630.479  27 
  -5   3  -3 15516.8 863.403   8 
   5   3   3 16678.4 817.384   2 
   5  -3   3 15605.5 701.281  32 
  -5   3  -3 16884.7 812.515  10 
   5  -3   3 17099.9 697.570  27 
   5   3   3 16486.2 787.191   1 
   5  -3   4 1298.21 255.353  32 
   5   3   4 1198.60 227.716   2 
   5  -3   4 1194.89 212.667  27 
   5   3   4 1619.01 289.575   3 
  -5   3  -4 1520.27 271.285  10 
   5  -3   5 902.718 215.421  32 
   5  -3   5 1191.73 196.781  28 
   5   3   5 644.613 219.466   2 
   5  -3   5 1250.87 172.053  27 
   5   3   5 800.485 205.011   3 
  -5   3  -5 1156.20 312.562  10 
   5   3   6 4765.44 473.183   3 
   5   3   6 4362.04 443.014   2 
   5  -3   6 5168.12 409.950  32 
   5  -3   6 4645.83 374.059  28 
  -5   3  -6 5073.30 475.733  10 
   5   3   7 14548.0 749.057   3 
   5   3   7 13215.4 690.551   2 
   5  -3   7 14167.7 632.517  32 
   5  -3   7 14247.7 629.286  28 
   5   3   8 21752.4 819.519   3 
   5   3   8 21421.0 795.313   2 
   5  -3   8 21797.3 703.450  32 
   5  -3   8 20698.8 698.456  28 
   5  -3   9 283.790 82.0186  32 
   5   3   9 395.619 104.755   2 
  -5   4  10 16.2116 85.4306   5 
  -5  -4  10 75.0821 74.2590  34 
   5   4 -10 179.666 104.664  12 
  -5   4   9 757.077 149.526   5 
  -5  -4   9 670.663 165.158  34 
  -5  -4   9 574.398 115.986  33 
   5   4  -9 925.583 171.702  12 
  -5   4   8 390.950 180.912   5 
  -5  -4   8 201.873 128.105  21 
  -5  -4   8 519.750 182.076  34 
  -5  -4   8 523.171 154.778  33 
   5   4  -8 464.525 142.209  11 
  -5   4   7 2488.03 337.953   5 
  -5   4   7 3043.38 455.473   7 
  -5  -4   7 2746.67 427.910  34 
  -5  -4   7 2423.14 352.885  33 
  -5  -4   7 3052.98 414.631  26 
  -5   4   6 193.182 273.424   7 
  -5  -4   6-165.987 224.451  34 
  -5  -4   6-95.2576 235.428  26 
  -5  -4   5 7291.39 737.328  22 
  -5   4   5 6786.77 653.982   7 
  -5  -4   5 6104.76 712.783  26 
   5   4  -4 1174.44 234.092  24 
  -5  -4   4 1269.45 338.100  22 
  -5   4   4 952.329 219.201   4 
  -5   4   4 1067.50 245.804   7 
   5  -4  -4 1169.19 207.243  30 
   5  -4  -4 1063.40 189.954  27 
  -5  -4   4 997.533 330.051  26 
   5   4  -3 1595.27 243.892  24 
  -5  -4   3 2002.52 349.494  22 
  -5   4   3 1760.42 287.235   4 
  -5   4   3 1674.63 334.898   7 
   5  -4  -3 1854.68 247.869  30 
   5  -4  -3 1604.35 227.168  27 
   5   4  -2 3159.59 343.432  24 
  -5   4   2 3332.20 322.111   8 
  -5  -4   2 3271.51 396.591  22 
   5   4  -2 3255.09 341.145   1 
  -5   4   2 2651.81 330.771   4 
  -5  -4   2 2563.68 312.711  18 
  -5   4   2 2781.77 384.089   7 
   5  -4  -2 3067.83 323.603  30 
   5  -4  -2 3108.07 314.669  27 
   5   4  -1 2078.70 285.736  24 
  -5   4   1 1983.75 269.025   8 
   5   4  -1 2561.16 321.588   2 
  -5  -4   1 2036.26 312.489  22 
  -5  -4   1 2575.90 292.342  18 
   5   4  -1 2355.72 315.457   1 
  -5   4   1 2026.56 307.676   7 
   5  -4  -1 2324.00 301.160  30 
   5  -4  -1 2468.33 290.439  27 
  -5   4   0 32611.9 1098.37   8 
   5   4   0 29467.9 1029.39   2 
  -5  -4   0 29259.5 1014.49  18 
  -5   4   0 29950.0 1073.38   7 
   5   4   0 30446.1 1044.41   1 
   5  -4   0 28996.9 983.238  30 
  -5   4   0 30469.6 1020.99  10 
   5  -4   0 30529.4 964.291  27 
   5   4   1 61107.0 1504.58   2 
   5  -4   1 61393.3 1279.10  32 
   5   4   1 62791.3 1516.34   1 
  -5   4  -1 63071.9 1499.24  10 
   5  -4   1 62387.0 1389.15  27 
   5  -4   1 58176.6 1242.37  25 
  -5   4  -2 79271.2 2027.29   8 
   5   4   2 77848.0 1728.43   2 
   5  -4   2 74738.0 1470.33  32 
  -5   4  -2 73736.4 1676.51  10 
   5  -4   2 79393.1 1571.42  27 
   5  -4   2 75613.4 1462.12  25 
  -5   4  -3 11785.9 776.348   8 
   5   4   3 11391.7 673.306   2 
   5  -4   3 11549.7 606.134  32 
  -5   4  -3 11838.0 717.185  10 
   5  -4   3 11695.1 595.255  27 
   5  -4   3 11474.9 598.680  25 
  -5   4  -4 3956.94 407.994   8 
   5   4   4 3177.64 375.888   2 
   5  -4   4 3375.47 334.088  32 
  -5   4  -4 3211.68 413.231  10 
   5  -4   4 3759.75 328.613  27 
   5  -4   5 1522.92 253.471  32 
   5   4   5 1286.32 264.963   2 
   5  -4   5 1287.81 189.872  27 
  -5   4  -5 1307.68 305.148  10 
   5   4   6 1790.84 296.941   3 
   5  -4   6 1461.12 220.367  32 
   5   4   6 1767.68 262.244   2 
  -5   4  -6 1921.56 310.810  10 
   5   4   7 7394.74 476.942   2 
   5  -4   7 7500.77 438.024  32 
   5  -4   7 6655.97 387.530  28 
  -5   4  -7 6726.62 470.967  10 
   5   4   8 3072.51 284.786   2 
   5  -4   8 2974.99 258.584  32 
  -5  -5   9 4021.30 309.583  34 
  -5  -5   9 3568.98 265.617  33 
   5   5  -9 3057.92 274.557  12 
  -5  -5   8 520.794 135.013  21 
  -5  -5   8 131.171 109.656  34 
  -5  -5   8 535.874 146.412  33 
   5   5  -8 205.733 100.131  11 
  -5  -5   7 10392.6 703.550  34 
  -5  -5   7 10302.6 635.928  33 
   5   5  -7 10119.8 538.062  11 
  -5  -5   7 11747.2 726.766  26 
  -5   5   6 11297.1 777.711   7 
  -5  -5   6 11451.5 825.336  34 
  -5  -5   6 11951.8 644.870  31 
   5   5  -6 12202.9 626.622  11 
  -5  -5   6 11792.3 859.450  26 
  -5  -5   5 8808.35 761.017  22 
  -5   5   5 9132.01 718.967   7 
  -5  -5   5 8939.53 718.294  34 
  -5  -5   5 8339.12 785.902  26 
  -5  -5   4 2014.39 381.193  22 
  -5   5   4 1654.21 268.614   4 
  -5   5   4 987.071 328.866   7 
   5  -5  -4 1491.84 196.364  27 
  -5  -5   4 1750.26 414.138  26 
  -5  -5   3 5009.29 517.087  22 
  -5   5   3 4249.18 409.744   4 
  -5   5   3 4086.81 486.241   7 
   5  -5  -3 5002.76 396.820  30 
   5  -5  -3 4607.18 359.494  27 
   5   5  -3 4836.61 409.059  24 
   5   5  -2 3711.25 368.995  24 
  -5   5   2 3408.01 344.607   8 
  -5  -5   2 3726.33 425.239  22 
  -5   5   2 3065.78 367.517   4 
  -5   5   2 3431.20 459.307   7 
   5  -5  -2 3373.29 324.425  30 
   5  -5  -2 3381.43 332.750  27 
   5   5  -1 3471.76 374.336  24 
  -5   5   1 3681.56 360.908   8 
  -5  -5   1 3961.31 406.353  22 
  -5   5   1 3019.99 347.753   4 
   5  -5  -1 3321.07 349.493  30 
   5  -5  -1 3966.24 361.020  27 
   5   5   0 90027.1 1806.68  24 
  -5   5   0 95373.1 1915.96   8 
   5   5   0 90925.9 1800.35   2 
   5  -5   0 91178.8 1732.66  30 
   5  -5   0 90332.0 1686.90  27 
   5   5   1 8215.41 567.229  24 
  -5   5  -1 9863.92 680.185   8 
   5   5   1 8865.00 575.065   2 
  -5   5  -1 9691.60 611.470  10 
   5  -5   1 9166.93 557.085  27 
   5  -5   1 8527.57 487.106  25 
   5   5   2 7204.91 527.759  24 
  -5   5  -2 6959.89 632.850   8 
   5   5   2 6391.01 486.079   2 
   5  -5   2 6219.46 423.081  32 
  -5   5  -2 7445.63 569.556  10 
   5  -5   2 7052.24 482.734  27 
   5  -5   2 6461.01 438.526  25 
   5   5   3 1836.60 269.205  24 
  -5   5  -3 1652.24 320.426   8 
   5   5   3 2317.94 300.685   2 
   5  -5   3 1745.51 234.534  32 
   5  -5   3 1972.80 270.013  27 
  -5   5  -3 2102.66 343.790  10 
   5  -5   3 1886.64 252.432  25 
   5   5   4 3306.22 342.934  24 
  -5   5  -4 2833.51 322.165   8 
   5   5   4 2980.29 348.230   2 
   5  -5   4 3175.82 314.026  32 
  -5   5  -4 2944.97 400.202  10 
   5  -5   4 3388.92 312.184  27 
   5  -5   4 2914.00 294.451  25 
   5   5   5 658.896 145.765  24 
  -5   5  -5 731.728 168.226   8 
   5  -5   5 936.537 204.473  32 
   5   5   5 463.363 143.605   2 
   5  -5   5 711.000 132.485  27 
  -5   5  -5 687.712 240.636  10 
   5  -5   6 168.467 108.217  32 
   5   5   6 381.339 120.252   2 
  -5   5  -6 358.823 153.125  10 
   5  -5   7 544.725 116.210  32 
   5  -5   7 655.612 112.689  30 
  -5   5  -7 869.004 171.525  10 
  -5  -6   8 4948.05 339.520  34 
  -5  -6   8 5022.60 326.308  33 
   5   6  -8 4539.72 293.124  11 
  -5  -6   7 3450.43 356.285  34 
  -5  -6   7 3157.40 322.512  33 
  -5  -6   7 3289.35 257.750  31 
   5   6  -7 3015.01 283.369  11 
  -5  -6   7 3272.08 353.503  26 
  -5  -6   6 5514.37 512.437  34 
  -5  -6   6 5553.50 521.334  33 
  -5  -6   6 5560.48 410.049  31 
   5   6  -6 5697.35 406.226  11 
  -5  -6   6 5875.49 569.730  26 
  -5  -6   5 6362.15 576.199  22 
  -5  -6   5 7037.33 641.247  34 
   5   6  -5 6959.14 475.319  11 
  -5  -6   5 5319.22 611.695  26 
  -5  -6   4 6933.77 604.960  22 
  -5  -6   4 6985.74 591.892  34 
   5   6  -4 7118.52 514.785  11 
  -5  -6   4 6149.37 649.167  26 
  -5  -6   3 9497.82 669.800  22 
  -5   6   3 9472.05 586.267   4 
   5   6  -3 9952.09 598.088  11 
   5  -6  -3 8397.25 451.053  27 
   5   6  -2 607.141 188.663  24 
  -5  -6   2 264.232 188.614  22 
  -5   6   2 564.095 171.690   8 
  -5   6   2 309.335 150.659   4 
   5  -6  -2 182.702 80.5874  30 
   5   6  -2 66.8334 168.899  11 
   5  -6  -2 426.514 139.289  27 
  -5   6   1 4302.21 399.603   8 
  -5  -6   1 3742.22 397.867  22 
  -5   6   1 3476.20 382.924   4 
   5  -6  -1 3478.41 331.011  30 
   5   6  -1 4036.42 372.333  11 
   5  -6  -1 3485.43 328.720  27 
   5   6  -1 3840.05 390.403  24 
   5   6   0 3637.25 385.846  24 
  -5   6   0 3391.60 391.793   8 
  -5   6   0 2767.48 335.846   4 
   5  -6   0 3006.40 316.455  30 
   5   6   0 3144.71 308.613  11 
   5  -6   0 3748.15 352.385  27 
   5   6   1 351.332 162.724  24 
  -5   6  -1 357.703 207.382   8 
   5  -6   1 176.900 109.252  30 
  -5   6  -1 248.949 185.803  10 
   5  -6   1 137.833 72.4382  27 
   5  -6   1 250.367 91.8257  25 
   5   6   2 2612.77 296.563  24 
  -5   6  -2 2076.27 352.519   8 
  -5   6  -2 2252.08 307.994  10 
   5  -6   2 2129.63 256.181  27 
   5  -6   2 2273.20 253.850  25 
   5   6   3 1924.11 249.862  24 
   5   6   3 1651.49 249.517   2 
  -5   6  -3 1483.38 273.784   8 
   5  -6   3 1857.37 217.104  32 
   5  -6   3 1537.01 226.573  27 
  -5   6  -3 1613.69 272.141  10 
   5  -6   3 1519.79 210.739  25 
   5   6   4 293.462 92.9494  24 
  -5   6  -4 265.018 134.418   8 
   5  -6   4 189.836 108.612  32 
   5  -6   4 245.292 93.1421  27 
  -5   6  -4 168.034 132.932  10 
   5  -6   5 286.842 107.951  32 
   5  -6   5 233.789 77.1966  27 
  -5   6  -5 325.177 179.838  10 
   5  -6   6 289.469 100.995  32 
  -5   6  -6 572.360 152.545  10 
  -5  -7   7 5032.55 322.017  34 
  -5  -7   7 5427.78 333.856  33 
   5   7  -7 4653.53 297.374  11 
   5   7  -6 4953.57 295.099   9 
  -5  -7   6 5088.48 402.471  34 
  -5  -7   6 5180.08 417.646  33 
  -5  -7   6 5632.20 359.365  31 
   5   7  -6 5249.72 353.380  11 
  -5  -7   6 5796.95 453.317  26 
  -5  -7   5 7149.43 551.322  34 
  -5  -7   5 7057.46 569.633  33 
  -5  -7   5 6307.50 454.072  31 
   5   7  -5 7997.04 473.408  11 
  -5  -7   5 6875.14 592.166  26 
  -5  -7   4 12037.6 745.017  22 
  -5  -7   4 13214.5 799.247  34 
   5   7  -4 13153.9 616.673  11 
  -5  -7   4 11716.2 849.083  26 
  -5  -7   3 6101.47 531.380  22 
  -5  -7   3 6507.17 545.376  34 
   5   7  -3 5828.44 421.583  11 
   5  -7  -3 5652.26 336.033  27 
  -5  -7   3 6621.54 642.310  26 
  -5   7   2 6629.90 438.263   8 
  -5  -7   2 7083.14 552.914  22 
  -5   7   2 5386.99 426.606   4 
   5   7  -2 6614.50 446.612  11 
   5  -7  -2 5878.32 374.668  27 
  -5  -7   1 506.427 172.326  22 
  -5   7   1 438.346 187.348   8 
  -5   7   1 55.8448 102.789   4 
   5  -7  -1 388.485 110.556  30 
   5   7  -1 625.333 149.856  11 
   5  -7  -1 667.493 145.904  27 
  -5   7   0 15794.9 740.081   8 
  -5  -7   0 13436.7 677.795  22 
  -5   7   0 14342.3 673.773   4 
   5  -7   0 13279.2 579.229  30 
   5  -7   0 14435.2 623.682  27 
  -5   7  -1 1324.68 247.781   8 
  -5   7  -1 1019.02 199.499   4 
   5  -7   1 1086.70 170.897  30 
   5  -7   1 1491.34 210.558  27 
  -5   7  -2 3002.21 364.384   8 
  -5   7  -2 2643.91 296.705   4 
   5  -7   2 3016.28 295.786  30 
   5  -7   2 3048.35 287.830  27 
  -5   7  -3 2732.73 295.187   8 
  -5   7  -3 2776.22 288.386   4 
   5  -7   3 2780.77 275.347  30 
  -5   7  -3 2928.65 324.673  10 
   5  -7   3 2689.83 255.893  27 
  -5   7  -4 1427.14 199.051   8 
  -5   7  -4 1470.87 205.838   4 
   5  -7   4 1083.36 137.233  32 
   5  -7   4 1480.52 182.928  30 
  -5   7  -4 1293.91 214.755  10 
   5  -7   4 1308.03 196.638  27 
   5  -7   5 1465.76 168.421  30 
  -5   7  -5 1297.48 178.621  10 
  -5  -8   5 10724.0 523.212  33 
   5   8  -4 4348.48 285.954   9 
  -5  -8   4 3628.94 367.383  33 
  -5  -8   4 4185.91 450.967  26 
   5   8  -3 5081.64 329.525   9 
  -5  -8   3 4253.85 380.692  34 
   5   8  -3 4942.31 325.665  11 
  -5  -8   3 4152.20 436.808  26 
   5   8  -2 2672.03 259.805   9 
  -5  -8   2 2216.26 281.907  22 
  -5  -8   2 2302.52 313.938  34 
   5  -8  -2 2341.79 192.081  27 
  -5  -8   2 2686.27 364.383  26 
   5   8  -1 6795.96 398.090   9 
  -5  -8   1 6640.82 437.076  22 
  -5  -8   1 5535.03 397.289  34 
   5  -8  -1 6599.33 356.480  27 
   5   8   0 3927.49 290.223   9 
  -5   8   0 3665.68 316.405   8 
  -5  -8   0 3522.58 299.312  22 
   5  -8   0 3733.71 278.692  27 
   5   8   1 14349.6 501.638   9 
  -5   8  -1 14219.0 609.826   8 
  -5  -8  -1 12775.6 545.503  22 
   5  -8   1 13494.9 479.292  30 
   5  -8   1 13264.7 503.019  27 
  -5   8  -2 4746.63 357.145   8 
  -5  -8  -2 4354.89 312.389  22 
   5  -8   2 4930.35 297.138  30 
   5  -8   2 4697.52 299.864  27 
  -5  -8  -3 1865.54 197.960  22 
   5  -8   3 1950.70 185.058  27 
  -6   0  10 10089.0 532.629   5 
  -6   0   9 105.511 166.968   5 
  -6   0   9 482.161 156.989  21 
  -6   0   8 1263.71 258.951  21 
  -6   0   8 924.221 273.038   7 
  -6   0   7 546.814 205.616  21 
  -6   0   7 846.131 299.955   7 
  -6   0   6 213.893 204.100  21 
  -6   0   6 10.4995 78.9215   7 
  -6   0   5 15978.3 899.357   7 
  -6   0   4 301.516 185.592   7 
  -6   0   3 18002.4 856.046   7 
  -6   0   2 194.459 240.194  22 
   6   0  -2 80.4268 119.550   1 
   6   0  -1 1325.07 275.234   1 
  -6   0   1 971.075 291.795  22 
   6   0  -1 1003.74 204.426  30 
   6   0  -1 1259.75 230.153   2 
   6   0   0 68.8620 110.460  32 
   6   0   0 47.2292 129.878  30 
   6   0   0 78.6356 80.0013   2 
   6   0   1 734.155 201.749  32 
   6   0   1 669.491 178.879  30 
   6   0   1 525.525 153.169   2 
   6   0   2 1782.92 295.300  32 
   6   0   2 2081.28 265.730  30 
   6   0   2 1973.83 275.370   2 
   6   0   3 93961.4 1882.00   2 
   6   0   3 93275.3 1819.60  32 
   6   0   4 35418.1 1169.06   2 
   6   0   4 36829.0 1153.56  32 
   6   0   5 8276.23 567.521   2 
   6   0   5 9526.63 575.589  32 
   6   0   6 2021.42 281.578   2 
   6   0   6 2040.93 272.562  32 
   6   0   7 1678.19 221.508  32 
   6   0   7 1535.11 225.036   2 
   6   0   8 6442.15 391.183   2 
  -6  -1  10 2900.28 286.704   5 
  -6   1  10 2638.14 293.624   5 
  -6  -1   9 3761.92 393.452   5 
  -6   1   9 4460.55 440.638   5 
  -6  -1   9 3439.53 354.301  21 
  -6   1   8 515.613 181.679  21 
  -6  -1   8 295.939 165.793  21 
  -6   1   8 545.551 253.690   7 
  -6   1   7 5975.94 490.326  21 
  -6  -1   7 6316.92 567.395  21 
  -6   1   7 5835.16 641.842   7 
  -6  -1   7 6191.92 596.550   7 
  -6   1   6 4340.13 439.835  21 
  -6   1   6 3536.69 495.190   7 
  -6  -1   6 3849.42 435.352   7 
  -6   1   5 12239.2 763.217  21 
  -6   1   5 12035.3 806.341   7 
  -6  -1   5 12656.9 770.339   7 
  -6   1   4 19160.7 821.545   4 
  -6   1   4 17916.7 954.338  21 
  -6   1   4 19321.1 957.816   7 
  -6  -1   4 19092.2 889.332   7 
  -6  -1   3 3678.43 527.902  22 
  -6   1   3 3831.71 350.767   4 
  -6   1   3 4230.84 442.555   7 
  -6  -1   3 4259.60 418.392   7 
  -6  -1   2 3817.34 511.220  22 
  -6   1   2 3818.64 381.574   4 
  -6   1   2 3541.92 380.663   7 
   6  -1  -2 3716.35 367.896  30 
  -6  -1   1 924.107 312.982  22 
  -6   1   1 810.541 213.772   4 
   6  -1  -1 554.918 145.479  32 
   6  -1  -1 672.373 182.536  30 
   6   1  -1 730.913 200.361   2 
  -6  -1   0 2647.16 408.202  22 
   6  -1   0 2909.12 308.679   2 
   6   1   0 2576.93 310.829   2 
   6  -1   0 3140.10 324.048  32 
   6  -1   0 2981.28 334.030  30 
   6  -1   1 4576.84 389.229   2 
   6   1   1 4486.77 424.066   2 
   6  -1   1 4360.91 395.866  32 
   6  -1   1 4474.72 407.139  30 
   6   1   2 30926.9 1101.07   2 
   6  -1   2 30917.5 1010.71   2 
   6   1   2 30645.3 1048.30  32 
   6  -1   2 31156.4 1028.43  32 
   6  -1   2 29286.7 962.893  30 
   6   1   3 21740.4 934.102   2 
   6  -1   3 21807.4 866.665   2 
   6   1   3 21681.8 885.854  32 
   6  -1   3 20697.7 855.459  32 
   6  -1   3 22814.0 823.933  30 
   6   1   4 949.592 231.203  32 
   6  -1   4 842.542 224.100  32 
   6  -1   4 1150.98 195.354  30 
   6   1   4 1122.10 260.655   2 
   6  -1   4 736.503 187.666   2 
   6   1   5 9705.26 621.885   2 
   6  -1   5 10373.7 598.609   2 
   6   1   5 10666.6 604.600  32 
   6  -1   5 11375.3 627.119  32 
   6  -1   6-132.597 81.1859  32 
   6   1   6-76.3864 114.618   2 
   6  -1   6-159.832 80.4525   2 
   6  -1   7 197.385 116.502  32 
   6   1   7 533.692 167.070   2 
   6  -1   7 216.766 134.487   2 
   6   1   8 2905.56 281.151   2 
   6  -1   8 3211.53 234.623  32 
  -6   2  10 5818.13 376.779   5 
  -6  -2  10 5120.63 330.353  21 
  -6  -2   9 751.847 177.278   5 
  -6   2   9 781.587 227.726   5 
  -6  -2   9 827.571 198.444  21 
  -6  -2   8 1487.16 287.296  21 
  -6   2   8 1534.04 346.716   7 
  -6  -2   8 1585.96 208.421  34 
  -6   2   7 3858.34 365.788  21 
  -6  -2   7 4200.47 492.444  21 
  -6   2   7 3780.85 495.649   7 
  -6  -2   7 4076.75 401.819  34 
  -6   2   6 5713.60 482.439  21 
  -6   2   6 5871.03 633.919   7 
  -6  -2   6 6018.71 570.689  34 
  -6   2   5 40786.9 1265.10  21 
  -6   2   5 39167.9 1503.09   7 
  -6  -2   5 41915.4 1314.45   7 
  -6  -2   5 42230.4 1428.01  34 
  -6  -2   4 223.205 251.644  22 
  -6   2   4 359.313 207.856  21 
  -6   2   4 662.733 174.778   4 
  -6   2   4 766.108 237.544   7 
  -6  -2   4 751.911 200.111   7 
  -6  -2   3 5411.45 631.149  22 
  -6   2   3 5599.92 458.185   4 
  -6   2   3 5179.32 509.696   7 
  -6  -2   3 5658.40 460.944   7 
   6  -2  -3 5537.64 441.117  30 
  -6  -2   2 9339.79 736.895  22 
  -6   2   2 9890.15 599.215   4 
  -6   2   2 9126.22 628.059   7 
   6  -2  -2 9589.42 576.739  30 
   6   2  -1 12544.8 685.669   2 
  -6  -2   1 12793.2 807.985  22 
  -6   2   1 12418.5 674.045   4 
  -6   2   1 11027.0 667.487   7 
   6  -2  -1 11684.3 639.045  30 
  -6  -2   0 4904.01 512.036  22 
   6   2   0 5723.25 481.393   2 
   6  -2   0 4733.69 394.559  32 
   6  -2   0 5324.98 443.308  30 
   6  -2   0 4522.15 390.558  27 
  -6  -2  -1 8872.80 636.304  22 
   6   2   1 9583.58 635.209   2 
   6  -2   1 8478.51 524.100  32 
   6  -2   1 8399.12 544.326  30 
   6  -2   1 9009.13 536.342  27 
  -6  -2  -2 56304.1 1551.97  22 
   6   2   2 58007.4 1546.37   2 
   6  -2   2 55753.8 1350.39  32 
   6  -2   2 54071.4 1343.14  30 
   6  -2   2 56563.9 1290.64  27 
   6   2   3 76300.5 1767.31   2 
   6  -2   3 75489.7 1587.80  32 
   6  -2   3 76751.2 1562.24  30 
   6  -2   4 943.031 216.806  32 
   6  -2   4 1006.86 180.348  30 
   6   2   4 1002.58 246.436   2 
   6  -2   5 690.171 174.820  32 
   6  -2   5 1088.42 171.258  30 
   6   2   5 697.890 222.965   2 
   6  -2   6 2003.11 267.392  32 
   6   2   6 1625.68 253.436   2 
   6  -2   7 406.140 104.981  32 
   6   2   7 531.576 145.871   2 
   6   2   8 3899.91 293.536   2 
  -6   3   9 824.681 161.372   5 
  -6  -3   9 961.109 171.098  21 
  -6  -3   9 818.305 138.116  34 
  -6   3   8 2360.73 293.496   5 
  -6  -3   8 2383.70 337.121  21 
  -6  -3   8 2661.61 291.052  34 
  -6   3   7 4115.60 521.918   7 
  -6  -3   7 4400.12 448.492  34 
  -6   3   6 6936.61 657.275   7 
  -6  -3   6 7381.68 656.799  34 
  -6  -3   6 8795.64 605.718  26 
  -6  -3   5 3392.80 440.458  34 
  -6   3   5 2351.67 444.541   7 
  -6  -3   5 2716.72 387.393  26 
   6   3  -4 123450. 1772.39  24 
  -6  -3   4 123753. 2916.88  22 
  -6   3   4 124217. 2215.75   4 
  -6   3   4 112078. 2500.00   7 
  -6  -3   4 107440. 2510.66  26 
   6   3  -3 7514.50 484.467  24 
  -6  -3   3 7416.07 729.217  22 
  -6   3   3 8236.35 574.921   4 
  -6   3   3 6893.41 613.391   7 
  -6  -3   3 7878.48 506.984   7 
   6  -3  -3 7987.83 523.803  30 
  -6  -3   3 6314.34 652.087  26 
  -6  -3   2 6858.53 645.227  22 
  -6   3   2 6416.49 508.805   4 
  -6   3   2 6608.92 557.414   7 
   6  -3  -2 6570.76 475.743  30 
   6  -3  -2 6422.00 450.743  27 
  -6  -3   2 7850.38 681.533  26 
   6   3  -1 440.231 132.738   2 
  -6  -3   1 405.712 188.788  22 
  -6   3   1 448.364 174.935   4 
  -6   3   1 474.159 176.716   7 
   6  -3  -1 433.648 194.380  30 
   6  -3  -1 192.503 142.965  27 
  -6  -3   0 597.581 225.768  22 
  -6   3   0 627.718 201.984   7 
   6  -3   0 1091.79 250.430  30 
   6   3   0 1037.95 218.821   2 
   6  -3   0 850.900 213.069  27 
  -6  -3  -1 9450.89 654.974  22 
   6   3   1 10618.5 660.077   2 
  -6   3  -1 10699.8 669.257   7 
   6  -3   1 10546.3 565.680  32 
   6  -3   1 10520.5 618.038  30 
   6  -3   1 10413.5 571.451  27 
  -6  -3  -2 6939.93 553.227  22 
   6   3   2 7199.21 571.723   2 
  -6   3  -2 6619.08 500.192   7 
   6  -3   2 6226.66 445.183  32 
   6  -3   2 6344.51 493.445  30 
   6  -3   2 6657.01 464.308  27 
  -6  -3  -3 25729.7 1064.96  22 
   6   3   3 26400.9 1042.99   2 
   6  -3   3 25578.0 901.321  32 
   6  -3   3 26639.4 936.555  30 
   6  -3   3 27683.1 859.378  27 
  -6  -3  -4 7722.23 562.274  22 
   6   3   4 8011.95 572.319   2 
   6  -3   4 8193.56 506.886  32 
   6  -3   4 8059.89 497.543  30 
   6  -3   4 8124.96 431.414  27 
   6   3   5 8726.08 562.639   2 
   6  -3   5 9274.94 523.354  32 
   6  -3   5 9821.21 495.977  30 
   6   3   6 4752.45 397.031   2 
   6  -3   6 5668.75 380.417  32 
   6  -3   7 1212.43 179.942  32 
   6   3   7 947.996 178.555   2 
  -6  -4   9 93.5912 105.985  34 
  -6   4   8 1263.27 219.437   5 
  -6  -4   8 1352.41 215.933  21 
  -6  -4   8 1440.84 212.345  34 
   6   4  -8 965.834 157.877  11 
  -6   4   7 312.034 148.229   5 
  -6  -4   7 458.767 204.970  34 
  -6  -4   7 789.987 176.017  33 
  -6   4   6 1079.58 295.844   7 
  -6  -4   6 692.811 266.531  34 
  -6  -4   6 1334.36 219.005  33 
  -6  -4   6 1252.28 259.097  26 
  -6  -4   5 71637.7 2127.82  22 
  -6   4   5 76144.6 2085.69   7 
  -6  -4   5 79154.5 1965.56  34 
  -6  -4   5 78154.0 2051.42  26 
  -6  -4   4 31606.1 1435.09  22 
  -6   4   4 30461.7 1105.50   4 
  -6   4   4 29330.1 1306.91   7 
  -6  -4   4 26629.6 1306.00  26 
   6   4  -4 29722.8 884.929  24 
   6   4  -3 24626.8 851.766  24 
  -6  -4   3 27131.6 1267.22  22 
  -6   4   3 25321.5 1008.01   4 
  -6   4   3 26934.6 1235.04   7 
   6  -4  -3 25086.6 862.321  30 
   6  -4  -3 25153.3 827.135  27 
  -6  -4   3 25002.1 1248.05  26 
   6   4  -2 8787.20 534.505  24 
  -6  -4   2 9055.03 705.008  22 
  -6   4   2 8366.70 593.562   4 
  -6   4   2 7564.36 662.461   7 
   6  -4  -2 8040.21 514.030  30 
   6  -4  -2 7227.34 463.810  27 
  -6  -4   2 9918.50 713.765  26 
   6   4  -1 1345.67 226.150  24 
  -6  -4   1 1328.78 304.734  22 
  -6   4   1 1301.59 280.579   4 
  -6   4   1 1539.04 314.526   7 
   6  -4  -1 1701.49 256.459  30 
   6  -4  -1 1239.39 205.279  27 
   6   4   0 1577.27 256.375  24 
   6   4   0 1357.33 278.947   2 
  -6  -4   0 1378.22 291.629  22 
  -6   4   0 1100.89 264.987   4 
  -6   4   0 1608.09 311.187   7 
   6  -4   0 1819.90 257.068  30 
   6  -4   0 1237.06 223.325  27 
  -6  -4  -1 2777.95 342.299  22 
   6   4   1 3119.26 378.501   2 
   6  -4   1 2663.06 307.750  30 
   6  -4   1 2995.87 312.507  27 
  -6  -4  -2 14962.7 790.087  22 
   6   4   2 16767.4 806.534   2 
   6  -4   2 15401.2 662.212  32 
   6  -4   2 15646.3 737.642  30 
   6  -4   2 15697.8 684.475  27 
  -6  -4  -3 2030.53 291.704  22 
   6  -4   3 1864.53 233.146  32 
   6  -4   3 1745.28 260.762  30 
   6   4   3 1709.71 284.859   2 
   6  -4   3 1675.19 208.889  27 
   6   4   4 2175.74 256.504  24 
   6  -4   4 1875.21 226.103  32 
   6  -4   4 1686.19 220.387  30 
   6   4   4 1812.05 267.972   2 
   6  -4   4 1938.92 202.203  27 
   6   4   5 2224.22 235.141  24 
  -6  -4  -5 1553.44 239.209  22 
   6  -4   5 2190.67 238.565  32 
   6  -4   5 2040.86 221.599  30 
   6   4   5 1755.09 250.861   2 
   6  -4   6 1329.68 165.302  32 
   6  -4   6 1144.60 162.870  30 
   6   4   6 1253.01 185.747   2 
  -6  -5   8 205.389 109.623  34 
  -6  -5   7 1124.20 212.956  21 
  -6  -5   7 1010.38 213.205  34 
  -6  -5   7 928.358 144.878  33 
   6   5  -7 746.706 145.094  11 
  -6  -5   6 1757.77 302.486  34 
  -6  -5   6 1910.23 246.529  33 
   6   5  -6 2112.86 257.662  11 
  -6  -5   6 1996.89 322.075  26 
  -6   5   5 3771.11 455.451   7 
  -6  -5   5 4365.94 472.918  34 
  -6  -5   5 3691.70 466.743  26 
  -6  -5   4 1576.20 324.532  22 
  -6   5   4 1240.90 312.463   7 
  -6  -5   4 1174.57 374.978  26 
  -6  -5   3 48861.6 1616.49  22 
  -6   5   3 46271.1 1293.66   4 
  -6   5   3 45586.0 1560.78   7 
   6  -5  -3 46396.0 1079.43  30 
   6  -5  -3 45188.7 1046.87  27 
  -6  -5   3 44200.7 1604.15  26 
   6   5  -3 43121.7 1101.94  24 
   6   5  -2 2956.69 310.326  24 
  -6  -5   2 2765.83 403.120  22 
  -6   5   2 2664.08 352.338   4 
  -6   5   2 2240.19 430.929   7 
   6  -5  -2 2559.41 285.895  30 
   6  -5  -2 2726.45 282.322  27 
  -6  -5   2 2993.30 458.646  26 
   6   5  -1 4201.86 381.028  24 
  -6  -5   1 4479.22 464.786  22 
  -6   5   1 3865.97 393.748   4 
   6  -5  -1 4361.96 380.648  30 
   6  -5  -1 4232.67 356.153  27 
   6   5   0 2172.09 294.973  24 
  -6  -5   0 2116.97 308.084  22 
  -6   5   0 1670.57 283.932   4 
   6  -5   0 2269.79 271.188  30 
   6  -5   0 1722.06 252.994  27 
   6   5   1 3320.93 361.332  24 
  -6  -5  -1 3591.79 379.448  22 
  -6   5  -1 3277.07 371.782   4 
   6  -5   1 3271.50 331.028  30 
   6  -5   1 3015.95 304.743  27 
   6   5   2 5630.65 424.021  24 
   6   5   2 6212.25 473.404   2 
  -6  -5  -2 5507.40 482.575  22 
   6  -5   2 6209.07 448.488  30 
   6  -5   2 5608.07 400.204  27 
   6   5   3 2476.44 277.020  24 
   6   5   3 2155.63 269.983   2 
  -6  -5  -3 2117.74 308.286  22 
   6  -5   3 2166.35 235.435  32 
   6  -5   3 2295.46 280.241  30 
   6  -5   3 2303.41 232.963  27 
   6   5   4 5599.38 382.923  24 
  -6  -5  -4 4395.77 453.986  22 
   6   5   4 5213.96 387.164   2 
   6  -5   4 5238.47 343.931  32 
   6  -5   4 5206.63 367.965  30 
   6  -5   4 5299.33 322.820  27 
   6   5   5 1745.96 196.326  24 
   6   5   5 1763.54 224.891   2 
  -6  -5  -5 1592.06 218.771  22 
   6  -5   5 1820.09 196.797  32 
   6  -5   5 1147.64 171.535  30 
  -6  -6   6 553.064 137.618  34 
  -6  -6   6 763.963 135.397  33 
   6   6  -6 513.147 118.320  11 
  -6  -6   6 852.278 189.105  26 
  -6  -6   5 116.859 149.730  34 
  -6  -6   5 89.7350 59.9394  33 
   6   6  -5 7.51662 95.8655  11 
  -6  -6   5 80.2598 81.8061  26 
  -6  -6   4 1480.74 297.239  22 
  -6  -6   4 2215.02 338.338  34 
   6   6  -4 1995.30 243.925  11 
  -6  -6   4 2030.05 344.026  26 
  -6  -6   3 3675.09 450.180  22 
   6   6  -3 3709.51 351.752  11 
  -6  -6   3 3231.59 442.022  26 
  -6  -6   2 753.919 206.647  22 
  -6   6   2 770.032 157.132   4 
   6  -6  -2 1016.42 163.914  30 
   6   6  -2 891.484 180.058  11 
   6  -6  -2 668.579 147.645  27 
  -6  -6   2 692.548 248.773  26 
   6   6  -1 36.2072 111.569  24 
  -6  -6   1 37.1183 140.545  22 
  -6   6   1-81.6560 71.6739   4 
   6  -6  -1 152.480 69.5178  30 
   6   6  -1 51.9720 68.8950  11 
   6  -6  -1 103.742 91.7533  27 
   6   6   0 267.942 118.898  24 
  -6  -6   0 289.852 168.414  22 
  -6   6   0 237.243 113.986   4 
   6  -6   0-109.712 115.272  30 
   6  -6   0 88.7988 82.5487  27 
  -6  -6  -1 6099.82 472.028  22 
  -6   6  -1 5717.05 429.565   4 
   6  -6   1 5815.32 394.768  30 
   6  -6   1 5613.97 378.618  27 
   6   6   1 6122.50 420.831  24 
  -6  -6  -2 7710.57 547.348  22 
  -6   6  -2 8176.83 501.227   4 
   6  -6   2 8144.53 453.090  30 
   6  -6   2 7893.70 422.420  27 
   6   6   2 7980.11 461.376  24 
  -6  -6  -3 4098.25 404.827  22 
  -6   6  -3 3864.51 329.511   4 
   6  -6   3 3839.37 297.891  30 
   6  -6   3 4027.84 282.170  27 
   6   6   3 4305.81 318.207  24 
  -6  -6  -4 781.705 186.752  22 
  -6   6  -4 658.775 143.560   4 
   6  -6   4 885.673 151.186  30 
   6  -6   4 967.950 140.111  27 
  -6  -7   4 1272.17 226.928  34 
  -6  -7   4 1853.24 247.123  33 
   6   7  -4 1451.15 188.738  11 
  -6  -7   4 1449.84 241.586  26 
  -6  -7   3 2992.49 354.961  22 
  -6  -7   3 3559.67 359.348  34 
   6   7  -3 3537.31 292.703  11 
  -6  -7   3 3181.43 390.936  26 
  -6  -7   2 1007.54 235.967  22 
  -6  -7   2 642.385 160.650  34 
   6   7  -2 954.789 169.272  11 
   6  -7  -2 947.238 124.497  27 
  -6  -7   2 831.949 223.216  26 
  -6  -7   1 949.072 190.303  22 
  -6   7   1 746.434 163.488   4 
   6  -7  -1 792.899 140.364  27 
  -6  -7   1 958.225 255.323  26 
  -6  -7   0 2368.72 273.813  22 
  -6   7   0 2018.31 229.644   4 
   6  -7   0 2516.96 219.301  30 
   6  -7   0 2447.67 216.976  27 
  -6  -7  -1 3473.39 330.643  22 
  -6   7  -1 3700.15 300.590   4 
   6  -7   1 3429.11 252.460  30 
   6  -7   1 3142.30 241.728  27 
  -6  -7  -2 2288.87 275.501  22 
   6  -7   2 2024.79 187.096  27 
  -7   0   8 199.515 130.931  21 
  -7   0   8-111.694 81.2877   7 
  -7   0   7 5421.86 398.284  21 
  -7   0   7 4317.57 456.005   7 
  -7   0   6-19.5462 111.008  21 
  -7   0   6-61.5318 187.162   7 
  -7   0   5 859.887 222.286  21 
  -7   0   5 955.534 261.460   7 
  -7   0   4 4138.17 437.579  21 
  -7   0   4 4576.47 505.873   7 
  -7   0   3 442.769 188.925   7 
  -7   0   2 26574.7 1061.60   7 
  -7   0   1 2027.37 325.171   7 
   7   0   0 273.804 165.556   2 
   7   0   1 362.715 157.595   2 
   7   0   2 8174.02 521.722   2 
   7   0   3 9750.87 564.552   2 
   7   0   4 38983.9 1055.50   2 
   7   0   5 39107.7 980.247   2 
  -7  -1   8 7452.30 494.751   5 
  -7   1   8 7857.12 536.386   5 
  -7  -1   8 7857.86 466.561  21 
  -7   1   8 7516.83 517.262   7 
  -7   1   7 11665.9 561.654  21 
  -7  -1   7 12216.2 647.967  21 
  -7  -1   7 11117.6 649.485   7 
  -7   1   7 11174.9 738.877   7 
  -7   1   6 5893.96 435.021  21 
  -7  -1   6 5639.84 500.820  21 
  -7   1   6 5592.72 558.533   7 
  -7  -1   6 5482.12 502.549   7 
  -7   1   5 5035.88 426.741  21 
  -7   1   5 4758.28 526.269   7 
  -7  -1   5 4675.64 487.883   7 
  -7   1   4 4752.00 513.587   7 
  -7  -1   4 4882.51 491.880   7 
  -7   1   3 10737.0 705.988   7 
  -7  -1   3 10392.8 667.609   7 
  -7   1   2 3093.39 337.502   4 
  -7   1   2 3134.00 386.921   7 
  -7  -1   2 3103.71 401.093   7 
  -7  -1   1 8137.69 777.232  22 
  -7   1   1 7631.11 496.860   4 
  -7   1   1 7559.96 566.398   7 
   7   1   0 1689.52 273.924   2 
  -7   1   0 1172.47 209.085   4 
  -7   1   0 1558.03 255.381   7 
   7  -1   0 1873.65 239.857  30 
   7   1   1 2113.70 299.763   2 
  -7   1  -1 1836.88 261.533   4 
   7  -1   1 2422.28 272.797  30 
   7   1   2 2099.86 299.186   2 
  -7   1  -2 1874.63 262.322   4 
   7  -1   2 1706.54 234.303  32 
   7  -1   2 2313.29 257.269  30 
   7   1   3 40364.2 1154.24   2 
   7  -1   3 38138.3 1059.45  32 
   7   1   4 27234.2 906.488   2 
   7  -1   4 27110.7 863.119  32 
   7  -1   5 1100.09 169.031  32 
   7   1   5 1388.23 212.462   2 
  -7   2   8-104.038 118.752   5 
  -7  -2   8 125.043 95.3266  21 
  -7  -2   7 4619.15 411.890  21 
  -7   2   7 4070.01 437.375   7 
  -7  -2   6 1659.59 287.418  21 
  -7   2   6 926.935 265.812   7 
  -7   2   5 776.140 273.020   7 
  -7  -2   5 832.330 223.230   7 
  -7   2   4 5615.85 565.015   7 
  -7  -2   4 5771.40 489.844   7 
  -7  -2   4 6110.70 520.893  34 
  -7   2   3 13993.6 682.553   4 
  -7   2   3 13983.3 830.020   7 
  -7  -2   3 14279.1 736.557   7 
  -7  -2   2 21861.3 1217.61  22 
  -7   2   2 25345.6 905.931   4 
  -7   2   2 24323.6 1050.08   7 
  -7  -2   2 23201.9 922.198   7 
  -7  -2   1 733.452 276.293  22 
  -7   2   1 254.705 154.761   4 
  -7   2   1 217.798 194.319   7 
   7  -2  -1 313.210 131.265  30 
   7   2   0 2493.47 328.239   2 
  -7  -2   0 2820.41 488.056  22 
  -7   2   0 1962.97 278.566   4 
  -7   2   0 2728.36 356.644   7 
   7  -2   0 3004.38 319.271  30 
  -7   2  -1 228.768 152.073   4 
   7  -2   1 199.154 80.1451  32 
  -7   2  -1 185.259 172.219   7 
   7  -2   1 122.049 96.4816  30 
   7   2   1 79.5781 103.912   2 
   7   2   2 2011.17 293.500   2 
  -7   2  -2 1989.48 276.754   4 
   7  -2   2 1997.55 244.235  32 
  -7   2  -2 1601.62 272.946   7 
   7  -2   2 1903.76 226.037  30 
   7   2   3 9339.86 567.372   2 
  -7   2  -3 9449.28 564.404   7 
   7  -2   3 9330.96 504.174  32 
   7  -2   3 9237.74 472.824  30 
   7   2   4 6072.31 431.039   2 
   7  -2   4 6722.63 409.691  32 
   7   2   5 1991.67 247.027   2 
   7  -2   5 1970.83 214.791  32 
  -7   3   7 382.948 127.393   5 
  -7  -3   7 676.293 199.130  21 
  -7   3   7 565.275 142.801   7 
  -7   3   6 1044.42 253.607   7 
  -7  -3   6 969.236 186.065  34 
  -7   3   5 538.328 207.674   7 
  -7  -3   5 1128.66 241.960  34 
  -7  -3   4 1173.45 229.088  34 
  -7   3   4 1166.05 326.774   7 
   7   3  -3 14655.3 584.645  24 
  -7  -3   3 13407.8 942.198  22 
  -7   3   3 13947.8 702.523   4 
  -7   3   3 13700.8 826.974   7 
  -7  -3   3 14737.7 693.400   7 
   7   3  -2 1592.13 225.034  24 
  -7  -3   2 1763.30 407.925  22 
  -7   3   2 1494.30 292.606   4 
  -7   3   2 2692.40 401.977   7 
  -7  -3   2 1556.50 263.505   7 
   7  -3  -2 1849.64 248.966  30 
   7   3  -1 4201.01 347.360  24 
  -7  -3   1 5115.14 614.842  22 
  -7   3   1 4509.44 429.287   4 
  -7   3   1 4887.35 496.998   7 
   7  -3  -1 4731.34 395.895  30 
  -7  -3   0 654.270 231.011  22 
  -7   3   0 392.894 214.372   4 
  -7   3   0 520.222 216.693   7 
   7  -3   0 598.437 172.785  30 
   7   3   1 4122.54 382.462   2 
  -7  -3  -1 5227.17 599.894  22 
  -7   3  -1 4329.43 384.394   4 
  -7   3  -1 4473.04 428.662   7 
   7  -3   1 4523.80 365.832  30 
   7   3   2 4181.24 369.560   2 
  -7  -3  -2 4442.12 553.988  22 
  -7   3  -2 3924.98 383.978   4 
   7  -3   2 3804.38 299.454  32 
   7  -3   2 3783.10 334.793  30 
   7   3   3 2937.69 317.956   2 
   7  -3   3 2629.21 249.555  32 
   7  -3   3 2888.88 285.487  30 
   7   3   4 6840.26 435.482   2 
   7  -3   4 6659.53 384.350  32 
   7  -3   4 7341.89 370.188  30 
   7   3   5 3749.38 292.081   2 
   7  -3   5 3537.72 260.231  32 
  -7   4   6 2024.67 301.753   7 
  -7  -4   6 2160.09 249.545  34 
  -7   4   5 517.862 197.298   7 
  -7  -4   5 280.987 100.541  34 
  -7   4   4 6562.85 573.839   7 
  -7  -4   4 7248.22 556.471  34 
  -7  -4   3 12504.2 830.576  22 
  -7   4   3 12684.7 645.800   4 
  -7   4   3 13509.9 823.500   7 
   7   4  -3 13530.3 553.678  24 
   7   4  -2 986.968 156.883  24 
  -7  -4   2 528.089 254.133  22 
  -7   4   2 546.513 197.804   4 
  -7   4   2 1122.02 304.220   7 
   7  -4  -2 749.062 156.823  30 
   7   4  -1 5801.63 396.074  24 
  -7  -4   1 6095.64 608.460  22 
  -7   4   1 5381.77 439.869   4 
  -7   4   1 6862.83 597.713   7 
  -7  -4   1 5953.42 386.333   7 
   7  -4  -1 6162.06 418.989  30 
   7   4   0 6774.63 434.774  24 
  -7  -4   0 7495.22 646.739  22 
  -7   4   0 6925.83 484.862   4 
   7  -4   0 7417.10 449.062  30 
   7   4   1 4428.56 343.287  24 
  -7  -4  -1 5546.48 565.174  22 
  -7   4  -1 5012.40 415.439   4 
   7  -4   1 4837.66 356.853  30 
   7   4   2 6687.56 409.331  24 
  -7   4  -2 7063.12 494.663   4 
   7  -4   2 7887.89 439.658  30 
   7   4   3 1320.45 185.366  24 
   7   4   3 1251.38 205.176   2 
  -7   4  -3 1082.49 217.712   4 
   7  -4   3 1411.39 175.832  32 
   7  -4   3 1158.24 172.126  30 
   7   4   4 7262.38 362.890  24 
   7   4   4 6905.50 398.761   2 
  -7   4  -4 5979.94 425.306   4 
  -7  -5   5 581.033 170.749  34 
   7   5  -5 473.205 112.676  11 
  -7   5   4-84.9290 71.3364   7 
  -7  -5   4-142.970 149.376  34 
  -7  -5   3 14149.9 706.005  34 
   7   5  -3 12752.4 534.656  11 
  -7  -5   2 43650.8 1407.88  22 
  -7   5   2 47339.9 1148.13   4 
   7   5  -2 47683.3 1013.73  11 
   7   5  -2 46299.5 1003.82  24 
  -7  -5   1 6988.42 577.891  22 
  -7   5   1 7221.56 469.292   4 
   7  -5  -1 7209.98 395.196  30 
   7   5  -1 7990.65 407.155  11 
   7   5  -1 6884.78 398.794  24 
   7   5   0 4120.36 313.442  24 
  -7  -5   0 4320.45 482.884  22 
  -7   5   0 4226.52 366.721   4 
   7  -5   0 4444.23 323.217  30 
   7   5   1 450.891 125.584  24 
  -7  -5  -1 569.469 182.518  22 
  -7   5  -1 539.193 145.645   4 
   7  -5   1 358.943 124.173  30 
   7   5   2 792.580 137.747  24 
  -7  -5  -2 370.416 167.423  22 
  -7   5  -2 654.486 169.455   4 
   7  -5   2 721.910 136.177  30 
  -8   0   5-97.1137 148.899   7 
  -8   0   4 146.513 148.918   7 
  -8   0   3 264.813 215.550   7 
  -8   0   2 25035.8 960.682   7 
  -8   0   1 1520.04 274.639   7 
  -8   0   0 3585.04 395.387   7 
  -8   0  -1 7619.18 528.230   7 
  -8   0  -2 1118.94 236.310   7 
  -8   1   5-34.9348 155.873   7 
  -8  -1   4 1147.65 222.535  21 
  -8   1   4 1218.89 262.176   7 
  -8  -1   4 1536.77 242.882   7 
  -8   1   3 1360.31 301.133   7 
  -8  -1   3 1231.80 237.208   7 
  -8   1   2 3140.59 375.778   7 
  -8  -1   2 3070.74 351.003   7 
   8   1  -1 4697.65 298.395  24 
  -8   1   1 4315.13 427.367   7 
  -8  -1   1 4311.82 407.903   7 
  -8   1   0 8012.46 553.152   7 
  -8  -1   0 8049.34 529.597   7 
  -8  -1  -1 2268.30 296.454   7 
  -8   1  -1 2043.77 316.863   7 
  -8   1  -2 6545.70 475.421   7 
  -8  -1  -2 6019.12 455.358   7 
  -8   2   5 2382.56 307.453   7 
  -8  -2   4 2101.16 287.819  21 
  -8   2   4 1877.42 300.953   7 
  -8   2   3 2417.40 345.906   7 
  -8  -2   3 2373.25 284.508   7 
  -8   2   2 380.472 122.301   7 
  -8  -2   2 763.436 167.923   7 
   8   2  -1 6338.79 339.206  24 
  -8   2   1 5908.18 494.830   7 
  -8  -2   1 5976.76 422.792   7 
   8   2   0 575.514 115.080  24 
  -8   2   0 407.694 184.978   7 
  -8  -2   0 544.678 158.454   7 
   8   2   1 1875.38 194.000  24 
  -8  -2  -1 1567.70 230.723   7 
   0   0   0    0.00    0.00   0 
TITL 04016A in P2(1)/m 
REM P2(1)/m (#11 in standard setting) 
CELL 1.54184   7.068625   8.972934  11.429571  90.0000  96.7753  90.0000 
ZERR    2.00   0.000207   0.000293   0.000381   0.0000   0.0029   0.0000 
LATT  1 
SYMM -x, y+1/2,-z 
SFAC C H O 
UNIT 40.00 40.00 12.00 
TREF 
HKLF 4 
END 
;
_shelx_hkl_checksum              56884
loop_
_space_group_symop_operation_xyz
'x, y, z'
'-x, y+1/2, -z'
loop_
_atom_site_label
_atom_site_type_symbol
_atom_site_fract_x
_atom_site_fract_y
_atom_site_fract_z
_atom_site_U_iso_or_equiv
_atom_site_adp_type
_atom_site_occupancy
_atom_site_site_symmetry_order
_atom_site_calc_flag
_atom_site_refinement_flags_posn
_atom_site_refinement_flags_adp
C1 C 0.5767(3) 0.6947(2) 1.05291(18) 0.0181(5) Uani 1 1 d . .
O1 O 0.73770(19) 0.74030(18) 1.04172(13) 0.0223(4) Uani 1 1 d . .
C2 C 0.4939(3) 0.7142(3) 1.16261(19) 0.0216(5) Uani 1 1 d . .
H2 H 0.5648 0.7663 1.2255 0.026 Uiso 1 1 calc R U
C3 C 0.3220(3) 0.6615(2) 1.17811(18) 0.0214(5) Uani 1 1 d . .
C4 C 0.2033(3) 0.5769(2) 1.08226(19) 0.0206(5) Uani 1 1 d . .
H4A H 0.0671 0.5966 1.0883 0.025 Uiso 1 1 calc R U
H4B H 0.2255 0.4689 1.0950 0.025 Uiso 1 1 calc R U
C4A C 0.2456(3) 0.6169(2) 0.95857(18) 0.0176(5) Uani 1 1 d . .
O4 O 0.1486(2) 0.51738(19) 0.87454(12) 0.0210(4) Uani 1 1 d . .
H4 H 0.179(4) 0.426(4) 0.894(2) 0.032 Uiso 1 1 d . U
C5 C 0.1659(3) 0.7717(2) 0.92386(19) 0.0204(5) Uani 1 1 d . .
H5A H 0.0251 0.7667 0.9151 0.024 Uiso 1 1 calc R U
H5B H 0.2063 0.8420 0.9888 0.024 Uiso 1 1 calc R U
C6 C 0.2273(3) 0.8329(2) 0.81178(19) 0.0196(4) Uani 1 1 d . .
C6A C 0.3991(3) 0.7772(2) 0.76960(18) 0.0183(4) Uani 1 1 d . .
O6 O 0.1298(2) 0.9335(2) 0.75896(14) 0.0279(4) Uani 1 1 d . .
C7 C 0.4531(3) 0.8331(3) 0.66425(18) 0.0193(5) Uani 1 1 d . .
C7A C 0.6202(3) 0.7823(3) 0.61810(18) 0.0187(5) Uani 1 1 d . .
O7 O 0.3479(2) 0.9385(2) 0.60334(15) 0.0283(4) Uani 1 1 d . .
H7 H 0.249(4) 0.954(4) 0.642(3) 0.042 Uiso 1 1 d . U
C8 C 0.6832(3) 0.8384(3) 0.51244(19) 0.0225(5) Uani 1 1 d . .
O8 O 0.5869(3) 0.9466(2) 0.44596(14) 0.0319(4) Uani 1 1 d . .
H8 H 0.477(5) 0.971(4) 0.481(3) 0.048 Uiso 1 1 d . U
C9 C 0.8464(3) 0.7844(3) 0.47381(19) 0.0250(5) Uani 1 1 d . .
H9 H 0.8867 0.8219 0.4031 0.030 Uiso 1 1 calc R U
C10 C 0.9537(3) 0.6746(3) 0.53803(19) 0.0246(5) Uani 1 1 d . .
H10 H 1.0668 0.6386 0.5105 0.030 Uiso 1 1 calc R U
C11 C 0.8984(3) 0.6176(3) 0.64027(18) 0.0216(5) Uani 1 1 d . .
H11 H 0.9730 0.5428 0.6825 0.026 Uiso 1 1 calc R U
C11A C 0.7314(3) 0.6701(2) 0.68261(19) 0.0175(4) Uani 1 1 d . .
C12 C 0.6729(3) 0.6142(3) 0.78953(18) 0.0187(5) Uani 1 1 d . .
H12 H 0.7476 0.5393 0.8317 0.022 Uiso 1 1 calc R U
C12A C 0.5140(3) 0.6645(2) 0.83305(18) 0.0165(4) Uani 1 1 d . .
C12B C 0.4618(3) 0.6118(2) 0.95055(17) 0.0170(4) Uani 1 1 d . .
H12B H 0.5004 0.5048 0.9582 0.020 Uiso 1 1 calc R U
C13 C 0.2381(4) 0.6796(3) 1.2912(2) 0.0312(6) Uani 1 1 d . .
H13A H 0.3331 0.7237 1.3506 0.047 Uiso 1 1 calc R U
H13B H 0.1995 0.5820 1.3186 0.047 Uiso 1 1 calc R U
H13C H 0.1267 0.7451 1.2786 0.047 Uiso 1 1 calc R U
loop_
_atom_site_aniso_label
_atom_site_aniso_U_11
_atom_site_aniso_U_22
_atom_site_aniso_U_33
_atom_site_aniso_U_23
_atom_site_aniso_U_13
_atom_site_aniso_U_12
C1 0.0195(11) 0.0139(11) 0.0210(11) 0.0024(8) 0.0029(8) 0.0004(8)
O1 0.0167(7) 0.0262(9) 0.0247(8) -0.0013(6) 0.0053(6) -0.0038(6)
C2 0.0254(11) 0.0235(12) 0.0160(10) -0.0026(8) 0.0030(8) -0.0020(9)
C3 0.0265(11) 0.0205(12) 0.0180(11) 0.0011(8) 0.0059(9) 0.0008(9)
C4 0.0164(10) 0.0220(12) 0.0247(11) -0.0002(9) 0.0076(8) -0.0007(8)
C4A 0.0150(10) 0.0175(12) 0.0205(10) -0.0006(8) 0.0030(8) -0.0020(8)
O4 0.0204(8) 0.0193(8) 0.0225(8) 0.0001(6) -0.0007(6) -0.0013(6)
C5 0.0172(10) 0.0202(12) 0.0247(11) 0.0003(9) 0.0060(8) 0.0024(8)
C6 0.0169(10) 0.0198(11) 0.0221(10) 0.0002(9) 0.0026(8) 0.0007(9)
C6A 0.0190(10) 0.0177(11) 0.0182(10) -0.0001(8) 0.0028(8) -0.0003(8)
O6 0.0274(8) 0.0257(9) 0.0319(8) 0.0085(7) 0.0088(7) 0.0114(7)
C7 0.0208(10) 0.0186(11) 0.0182(11) 0.0019(9) 0.0013(9) 0.0023(9)
C7A 0.0204(10) 0.0183(11) 0.0177(10) 0.0003(8) 0.0029(8) -0.0021(8)
O7 0.0293(9) 0.0289(9) 0.0279(8) 0.0122(7) 0.0089(7) 0.0115(7)
C8 0.0273(11) 0.0217(12) 0.0184(10) 0.0024(9) 0.0023(9) -0.0021(10)
O8 0.0393(10) 0.0319(10) 0.0259(8) 0.0136(7) 0.0098(7) 0.0075(8)
C9 0.0296(12) 0.0278(13) 0.0193(11) 0.0025(9) 0.0094(9) -0.0040(9)
C10 0.0221(11) 0.0318(13) 0.0211(11) -0.0026(10) 0.0077(8) -0.0010(9)
C11 0.0198(11) 0.0245(12) 0.0207(11) -0.0027(9) 0.0033(9) 0.0027(9)
C11A 0.0162(10) 0.0201(11) 0.0159(10) -0.0017(8) 0.0010(8) -0.0012(8)
C12 0.0208(11) 0.0190(11) 0.0162(10) 0.0001(8) 0.0014(8) 0.0021(9)
C12A 0.0166(10) 0.0155(11) 0.0174(10) -0.0014(8) 0.0016(8) -0.0005(8)
C12B 0.0178(11) 0.0155(11) 0.0181(10) 0.0005(8) 0.0040(8) 0.0027(9)
C13 0.0351(13) 0.0358(14) 0.0251(13) -0.0056(10) 0.0140(10) -0.0068(11)
loop_
_atom_type_symbol
_atom_type_description
_atom_type_scat_dispersion_real
_atom_type_scat_dispersion_imag
_atom_type_scat_source
C C 0.0181 0.0091 'International Tables Vol C Tables 4.2.6.8 and 6.1.1.4'
H H 0.0000 0.0000 'International Tables Vol C Tables 4.2.6.8 and 6.1.1.4'
O O 0.0492 0.0322 'International Tables Vol C Tables 4.2.6.8 and 6.1.1.4'
loop_
_geom_angle_atom_site_label_1
_geom_angle_atom_site_label_2
_geom_angle_atom_site_label_3
_geom_angle
O1 C1 C2 121.41(19)
O1 C1 C12B 119.64(18)
C2 C1 C12B 118.93(17)
C3 C2 C1 122.49(19)
C3 C2 H2 118.8
C1 C2 H2 118.8
C2 C3 C13 122.5(2)
C2 C3 C4 121.33(19)
C13 C3 C4 116.15(19)
C3 C4 C4A 113.79(17)
C3 C4 H4A 108.8
C4A C4 H4A 108.8
C3 C4 H4B 108.8
C4A C4 H4B 108.8
H4A C4 H4B 107.7
O4 C4A C4 110.25(17)
O4 C4A C5 105.10(15)
C4 C4A C5 110.32(17)
O4 C4A C12B 110.04(16)
C4 C4A C12B 110.68(16)
C5 C4A C12B 110.32(17)
C4A O4 H4 109.7(17)
C6 C5 C4A 114.64(17)
C6 C5 H5A 108.6
C4A C5 H5A 108.6
C6 C5 H5B 108.6
C4A C5 H5B 108.6
H5A C5 H5B 107.6
O6 C6 C6A 121.7(2)
O6 C6 C5 118.54(19)
C6A C6 C5 119.70(19)
C7 C6A C12A 119.37(19)
C7 C6A C6 119.2(2)
C12A C6A C6 121.40(19)
O7 C7 C6A 120.5(2)
O7 C7 C7A 117.74(19)
C6A C7 C7A 121.8(2)
C7 C7A C8 123.8(2)
C7 C7A C11A 117.68(19)
C8 C7A C11A 118.54(19)
C7 O7 H7 106(2)
O8 C8 C9 117.1(2)
O8 C8 C7A 122.5(2)
C9 C8 C7A 120.4(2)
C8 O8 H8 107.9(19)
C8 C9 C10 120.3(2)
C8 C9 H9 119.8
C10 C9 H9 119.8
C11 C10 C9 121.2(2)
C11 C10 H10 119.4
C9 C10 H10 119.4
C10 C11 C11A 120.2(2)
C10 C11 H11 119.9
C11A C11 H11 119.9
C11 C11A C12 121.1(2)
C11 C11A C7A 119.39(19)
C12 C11A C7A 119.51(19)
C12A C12 C11A 122.2(2)
C12A C12 H12 118.9
C11A C12 H12 118.9
C12 C12A C6A 119.43(19)
C12 C12A C12B 121.43(18)
C6A C12A C12B 119.03(18)
C12A C12B C1 111.27(17)
C12A C12B C4A 113.08(16)
C1 C12B C4A 112.29(16)
C12A C12B H12B 106.6
C1 C12B H12B 106.6
C4A C12B H12B 106.6
C3 C13 H13A 109.5
C3 C13 H13B 109.5
H13A C13 H13B 109.5
C3 C13 H13C 109.5
H13A C13 H13C 109.5
H13B C13 H13C 109.5
loop_
_geom_bond_atom_site_label_1
_geom_bond_atom_site_label_2
_geom_bond_distance
C1 O1 1.231(3)
C1 C2 1.456(3)
C1 C12B 1.536(3)
C2 C3 1.336(3)
C2 H2 0.9500
C3 C13 1.494(3)
C3 C4 1.505(3)
C4 C4A 1.522(3)
C4 H4A 0.9900
C4 H4B 0.9900
C4A O4 1.426(2)
C4A C5 1.534(3)
C4A C12B 1.543(3)
O4 H4 0.87(3)
C5 C6 1.504(3)
C5 H5A 0.9900
C5 H5B 0.9900
C6 O6 1.248(3)
C6 C6A 1.448(3)
C6A C7 1.399(3)
C6A C12A 1.439(3)
C7 O7 1.345(3)
C7 C7A 1.425(3)
C7A C8 1.428(3)
C7A C11A 1.428(3)
O7 H7 0.88(3)
C8 O8 1.364(3)
C8 C9 1.372(3)
O8 H8 0.94(3)
C9 C10 1.398(3)
C9 H9 0.9500
C10 C11 1.374(3)
C10 H10 0.9500
C11 C11A 1.410(3)
C11 H11 0.9500
C11A C12 1.427(3)
C12 C12A 1.359(3)
C12 H12 0.9500
C12A C12B 1.510(3)
C12B H12B 1.0000
C13 H13A 0.9800
C13 H13B 0.9800
C13 H13C 0.9800
loop_
_geom_hbond_atom_site_label_D
_geom_hbond_atom_site_label_H
_geom_hbond_atom_site_label_A
_geom_hbond_distance_DH
_geom_hbond_distance_HA
_geom_hbond_distance_DA
_geom_hbond_angle_DHA
_geom_hbond_site_symmetry_A
O8 H8 O7 0.94(3) 1.78(3) 2.611(2) 145(3) .
O7 H7 O6 0.88(3) 1.68(3) 2.489(2) 152(3) .
O4 H4 O1 0.87(3) 1.89(3) 2.751(2) 171(3) 2_647
loop_
_geom_torsion_atom_site_label_1
_geom_torsion_atom_site_label_2
_geom_torsion_atom_site_label_3
_geom_torsion_atom_site_label_4
_geom_torsion
O1 C1 C2 C3 -177.8(2)
C12B C1 C2 C3 0.6(3)
C1 C2 C3 C13 179.1(2)
C1 C2 C3 C4 0.5(3)
C2 C3 C4 C4A -26.7(3)
C13 C3 C4 C4A 154.6(2)
C3 C4 C4A O4 171.53(17)
C3 C4 C4A C5 -72.8(2)
C3 C4 C4A C12B 49.5(2)
O4 C4A C5 C6 -70.8(2)
C4 C4A C5 C6 170.40(17)
C12B C4A C5 C6 47.8(2)
C4A C5 C6 O6 159.23(19)
C4A C5 C6 C6A -22.4(3)
O6 C6 C6A C7 -2.7(3)
C5 C6 C6A C7 178.95(18)
O6 C6 C6A C12A 178.0(2)
C5 C6 C6A C12A -0.4(3)
C12A C6A C7 O7 180.0(2)
C6 C6A C7 O7 0.6(3)
C12A C6A C7 C7A -0.5(3)
C6 C6A C7 C7A -179.80(18)
O7 C7 C7A C8 1.0(3)
C6A C7 C7A C8 -178.58(18)
O7 C7 C7A C11A -179.76(19)
C6A C7 C7A C11A 0.7(3)
C7 C7A C8 O8 -0.1(3)
C11A C7A C8 O8 -179.3(2)
C7 C7A C8 C9 179.66(19)
C11A C7A C8 C9 0.4(3)
O8 C8 C9 C10 179.3(2)
C7A C8 C9 C10 -0.5(3)
C8 C9 C10 C11 0.4(3)
C9 C10 C11 C11A -0.2(3)
C10 C11 C11A C12 -179.02(19)
C10 C11 C11A C7A 0.2(3)
C7 C7A C11A C11 -179.56(19)
C8 C7A C11A C11 -0.3(3)
C7 C7A C11A C12 -0.3(3)
C8 C7A C11A C12 178.94(19)
C11 C11A C12 C12A 179.03(19)
C7A C11A C12 C12A -0.2(3)
C11A C12 C12A C6A 0.4(3)
C11A C12 C12A C12B -175.69(17)
C7 C6A C12A C12 -0.1(3)
C6 C6A C12A C12 179.25(19)
C7 C6A C12A C12B 176.11(19)
C6 C6A C12A C12B -4.6(3)
C12 C12A C12B C1 80.2(2)
C6A C12A C12B C1 -95.9(2)
C12 C12A C12B C4A -152.34(19)
C6A C12A C12B C4A 31.6(3)
O1 C1 C12B C12A -29.9(3)
C2 C1 C12B C12A 151.76(18)
O1 C1 C12B C4A -157.74(19)
C2 C1 C12B C4A 23.9(3)
O4 C4A C12B C12A 63.3(2)
C4 C4A C12B C12A -174.59(17)
C5 C4A C12B C12A -52.2(2)
O4 C4A C12B C1 -169.78(17)
C4 C4A C12B C1 -47.7(2)
C5 C4A C12B C1 74.7(2)
