#------------------------------------------------------------------------------
#$Date: 2019-11-24 16:46:12 +0200 (Sun, 24 Nov 2019) $
#$Revision: 238633 $
#$URL: file:///home/coder/svn-repositories/cod/cif/1/55/54/1555411.cif $
#------------------------------------------------------------------------------
#
# This file is available in the Crystallography Open Database (COD),
# http://www.crystallography.net/
#
# All data on this site have been placed in the public domain by the
# contributors.
#
data_1555411
loop_
_publ_author_name
'Li, Zequan'
'Shi, Yian'
_publ_section_title
;
 Chiral Phosphine Oxide-Sc(OTf)3 Complex Catalyzed Enantioselective
 Bromoaminocyclization of 2-Benzofuranylmethyl N-Tosylcarbamates. Approach
 to a Novel Class of Optically Active Spiro Compounds.
;
_journal_issue                   23
_journal_name_full               'Organic letters'
_journal_page_first              5752
_journal_page_last               5755
_journal_paper_doi               10.1021/acs.orglett.5b02817
_journal_volume                  17
_journal_year                    2015
_chemical_absolute_configuration ad
_chemical_formula_moiety         'C17 H14 Br N O5 S'
_chemical_formula_sum            'C17 H14 Br N O5 S'
_chemical_formula_weight         424.26
_space_group_crystal_system      monoclinic
_space_group_IT_number           4
_space_group_name_Hall           'P 2yb'
_space_group_name_H-M_alt        'P 1 21 1'
_atom_sites_solution_hydrogens   geom
_atom_sites_solution_primary     direct
_audit_creation_date             2015-03-10
_audit_creation_method
;
Olex2 1.2
(compiled 2015.01.26 svn.r3150 for OlexSys, GUI svn.r4998)
;
_cell_angle_alpha                90
_cell_angle_beta                 101.811(9)
_cell_angle_gamma                90
_cell_formula_units_Z            2
_cell_length_a                   8.091(6)
_cell_length_b                   6.973(5)
_cell_length_c                   15.224(11)
_cell_measurement_reflns_used    2875
_cell_measurement_temperature    173.1500
_cell_measurement_theta_max      27.4789
_cell_measurement_theta_min      1.3665
_cell_volume                     840.7(11)
_computing_cell_refinement       'CrystalClear (Rigaku Inc., 2007)'
_computing_data_collection       'CrystalClear (Rigaku Inc., 2007)'
_computing_data_reduction        'CrystalClear (Rigaku Inc., 2007)'
_computing_molecular_graphics    'Olex2 (Dolomanov et al., 2009)'
_computing_publication_material  'CIFTAB (Sheldrick, 2013)'
_computing_structure_refinement  'SHELXL (Sheldrick, 2014)'
_computing_structure_solution
;
'SHELXT (Sheldrick, 2014)'
;
_diffrn_ambient_temperature      173.1500
_diffrn_detector_area_resol_mean 28.5714
_diffrn_measured_fraction_theta_full 0.992
_diffrn_measured_fraction_theta_max 0.990
_diffrn_measurement_details
;
scan:
	Number of images: 360
	           Slice: -110.0000 - 70.0000
	     Image width: 0.5000
	        Exp time: 5.0000
	   Rotation axis: Omega
	           Omega: 0.0000
	             Chi: 45.0000
	             Phi: 0.0000
	             XTD: 45.0998
	          2theta: -19.7064
scan:
	Number of images: 360
	           Slice: -110.0000 - 70.0000
	     Image width: 0.5000
	        Exp time: 5.0000
	   Rotation axis: Omega
	           Omega: 0.0000
	             Chi: 45.0000
	             Phi: 180.0000
	             XTD: 45.0998
	          2theta: -19.7064
scan:
	Number of images: 328
	           Slice: -110.0000 - 54.0000
	     Image width: 0.5000
	        Exp time: 5.0000
	   Rotation axis: Omega
	           Omega: 0.0000
	             Chi: 45.0000
	             Phi: 90.0000
	             XTD: 45.0998
	          2theta: -19.7064
;
_diffrn_measurement_device
;
Saturn724+ (2x2 bin mode)
;
_diffrn_measurement_device_details
;
AFC10: Fixed Chi 2 circle
;
_diffrn_measurement_device_type  'Saturn724+ CCD'
_diffrn_measurement_method       '\w scans at fixed \c = 45\%'
_diffrn_orient_matrix_type       d*Trek
_diffrn_orient_matrix_UB_11      0.0356
_diffrn_orient_matrix_UB_12      0.1206
_diffrn_orient_matrix_UB_13      0.0113
_diffrn_orient_matrix_UB_21      -0.0171
_diffrn_orient_matrix_UB_22      -0.0083
_diffrn_orient_matrix_UB_23      0.1421
_diffrn_orient_matrix_UB_31      0.0664
_diffrn_orient_matrix_UB_32      -0.0060
_diffrn_orient_matrix_UB_33      0.0076
_diffrn_radiation_detector       CCD
_diffrn_radiation_monochromator  'Graphite Monochromator'
_diffrn_radiation_type           MoK\a
_diffrn_radiation_wavelength     0.71073
_diffrn_reflns_av_R_equivalents  0.0442
_diffrn_reflns_av_unetI/netI     0.0378
_diffrn_reflns_Laue_measured_fraction_full 0.992
_diffrn_reflns_Laue_measured_fraction_max 0.990
_diffrn_reflns_limit_h_max       10
_diffrn_reflns_limit_h_min       -10
_diffrn_reflns_limit_k_max       9
_diffrn_reflns_limit_k_min       -9
_diffrn_reflns_limit_l_max       19
_diffrn_reflns_limit_l_min       -19
_diffrn_reflns_number            8839
_diffrn_reflns_point_group_measured_fraction_full 0.931
_diffrn_reflns_point_group_measured_fraction_max 0.923
_diffrn_reflns_theta_full        26.000
_diffrn_reflns_theta_max         27.467
_diffrn_reflns_theta_min         2.734
_diffrn_source                   'Sealed Tube'
_diffrn_source_current           30.0000
_diffrn_source_power             1.5000
_diffrn_source_voltage           50.0000
_exptl_absorpt_coefficient_mu    2.597
_exptl_absorpt_correction_T_max  1.0000
_exptl_absorpt_correction_T_min  0.37441
_exptl_absorpt_correction_type   multi-scan
_exptl_absorpt_process_details   'CrystalClear (Rigaku Inc., 2007)'
_exptl_crystal_colour            Colorless
_exptl_crystal_density_diffrn    1.676
_exptl_crystal_description       Prism
_exptl_crystal_F_000             428
_exptl_crystal_size_max          0.889
_exptl_crystal_size_mid          0.421
_exptl_crystal_size_min          0.071
_refine_diff_density_max         0.787
_refine_diff_density_min         -0.816
_refine_diff_density_rms         0.096
_refine_ls_abs_structure_details
;
 Flack x determined using 1315 quotients [(I+)-(I-)]/[(I+)+(I-)]
 (Parsons, Flack and Wagner, Acta Cryst. B69 (2013) 249-259).
;
_refine_ls_abs_structure_Flack   0.007(10)
_refine_ls_extinction_method     none
_refine_ls_goodness_of_fit_ref   1.137
_refine_ls_hydrogen_treatment    constr
_refine_ls_matrix_type           full
_refine_ls_number_parameters     227
_refine_ls_number_reflns         3549
_refine_ls_number_restraints     1
_refine_ls_restrained_S_all      1.137
_refine_ls_R_factor_all          0.0490
_refine_ls_R_factor_gt           0.0477
_refine_ls_shift/su_max          0.001
_refine_ls_shift/su_mean         0.000
_refine_ls_structure_factor_coef Fsqd
_refine_ls_weighting_details
'w=1/[\s^2^(Fo^2^)+(0.0621P)^2^+0.6615P] where P=(Fo^2^+2Fc^2^)/3'
_refine_ls_weighting_scheme      calc
_refine_ls_wR_factor_gt          0.1190
_refine_ls_wR_factor_ref         0.1206
_reflns_Friedel_coverage         0.720
_reflns_Friedel_fraction_full    0.859
_reflns_Friedel_fraction_max     0.843
_reflns_number_gt                3437
_reflns_number_total             3549
_reflns_threshold_expression     'I > 2\s(I)'
_cod_data_source_file            ol5b02817_si_002.cif
_cod_data_source_block           sa3974b
_cod_original_cell_volume        840.8(10)
_cod_database_code               1555411
_shelx_space_group_comment
;
The symmetry employed for this shelxl refinement is uniquely defined
by the following loop, which should always be used as a source of
symmetry information in preference to the above space-group names.
They are only intended as comments.
;
_diffrn_number_total             2069
_olex2_refinement_description
;
1. Fixed Uiso
 At 1.2 times of:
  All C(H) groups, All C(H,H) groups
 At 1.5 times of:
  All C(H,H,H) groups
2.a Ternary CH refined with riding coordinates:
 C2(H2)
2.b Secondary CH2 refined with riding coordinates:
 C9(H9A,H9B)
2.c Aromatic/amide H refined with riding coordinates:
 C4(H4), C5(H5), C6(H6), C7(H7), C12(H12), C13(H13), C15(H15), C16(H16)
2.d Idealised Me refined as rotating group:
 C17(H17A,H17B,H17C)
;
_shelx_res_file
;
    sa3974b.res created by SHELXL-2014/7

TITL sa3974b in P2(1)
CELL 0.71073 8.091 6.9733 15.2245 90 101.811 90
ZERR 2 0.0057 0.0048 0.0109 0 0.009 0
LATT -1
SYMM -X,0.5+Y,-Z
SFAC C H Br N O S
UNIT 34 28 2 2 10 2

L.S. 4
PLAN  20
BOND
fmap 2
MORE -1
BOND $H
ACTA 52
CONF
OMIT 0 0 1
REM <olex2.extras>
REM <HklSrc "%.\\sa3974b.hkl">
REM </olex2.extras>

WGHT    0.062100    0.661500
FVAR       0.86502
BR1   3    0.736767    0.341071    1.015580    11.00000    0.03707    0.04803 =
         0.03735    0.00589    0.00597   -0.00102
S1    6    0.768775    0.677925    0.707103    11.00000    0.02610    0.04588 =
         0.04078    0.00695    0.01110    0.00211
O1    5    0.526464    0.701042    0.854988    11.00000    0.01822    0.03207 =
         0.04665   -0.00219    0.00758   -0.00105
O2    5    0.834025    0.934698    0.933927    11.00000    0.03461    0.03704 =
         0.05100   -0.00594    0.00192   -0.00597
O3    5    0.899766    1.041084    0.807313    11.00000    0.03143    0.04826 =
         0.06758    0.01555   -0.00086   -0.01052
O4    5    0.918622    0.743407    0.680260    11.00000    0.02796    0.06765 =
         0.05591    0.01637    0.01941    0.00451
O5    5    0.723830    0.479371    0.701842    11.00000    0.05015    0.04135 =
         0.04281   -0.00305    0.01285    0.00323
N1    4    0.796745    0.729644    0.817927    11.00000    0.02321    0.03524 =
         0.04262    0.00506    0.00833   -0.00163
C1    1    0.701949    0.644843    0.881334    11.00000    0.01728    0.03369 =
         0.03596    0.00036    0.00458    0.00095
C2    1    0.702343    0.423069    0.888309    11.00000    0.02194    0.03572 =
         0.03421    0.00130    0.00507   -0.00139
AFIX  13
H2    2    0.784980    0.364680    0.857546    11.00000   -1.20000
AFIX   0
C3    1    0.524525    0.370622    0.844771    11.00000    0.02308    0.03397 =
         0.03656   -0.00309    0.00866   -0.00225
C4    1    0.445672    0.195898    0.825016    11.00000    0.02564    0.03507 =
         0.04603    0.00402    0.00603   -0.00163
AFIX  43
H4    2    0.507362    0.082525    0.833971    11.00000   -1.20000
AFIX   0
C5    1    0.272841    0.192173    0.791574    11.00000    0.03126    0.04007 =
         0.04856    0.00075    0.00896   -0.00943
AFIX  43
H5    2    0.218444    0.075133    0.778113    11.00000   -1.20000
AFIX   0
C6    1    0.180329    0.360244    0.777982    11.00000    0.02052    0.05297 =
         0.04421    0.00097    0.00482   -0.00293
AFIX  43
H6    2    0.064608    0.354352    0.755370    11.00000   -1.20000
AFIX   0
C7    1    0.257500    0.538521    0.797587    11.00000    0.01916    0.03857 =
         0.04003    0.00351    0.00579   -0.00172
AFIX  43
H7    2    0.196268    0.652181    0.788347    11.00000   -1.20000
AFIX   0
C8    1    0.430494    0.537492    0.831615    11.00000    0.02780    0.03177 =
         0.03510    0.00162    0.00918   -0.00411
C9    1    0.783042    0.754552    0.966362    11.00000    0.03157    0.03652 =
         0.05081   -0.00468    0.00728   -0.00729
AFIX  23
H9A   2    0.702495    0.774485    1.004720    11.00000   -1.20000
H9B   2    0.879769    0.685487    0.999837    11.00000   -1.20000
AFIX   0
C10   1    0.850231    0.915750    0.848098    11.00000    0.01899    0.03606 =
         0.06134    0.00265    0.00619   -0.00515
C11   1    0.596833    0.815335    0.653347    11.00000    0.02751    0.04898 =
         0.03927    0.00196    0.00948   -0.00355
C12   1    0.435843    0.728868    0.636250    11.00000    0.02971    0.06716 =
         0.03871    0.00653    0.00534   -0.00562
AFIX  43
H12   2    0.422876    0.600670    0.650268    11.00000   -1.20000
AFIX   0
C13   1    0.297756    0.839237    0.598151    11.00000    0.02615    0.09473 =
         0.03759    0.00986    0.00084    0.00282
AFIX  43
H13   2    0.190786    0.784229    0.586002    11.00000   -1.20000
AFIX   0
C14   1    0.316899    1.034374    0.577426    11.00000    0.04165    0.07793 =
         0.04075    0.00913    0.00774    0.02046
C15   1    0.477305    1.111961    0.591353    11.00000    0.05052    0.05179 =
         0.04559    0.01261    0.00230    0.01043
AFIX  43
H15   2    0.491560    1.238329    0.574839    11.00000   -1.20000
AFIX   0
C16   1    0.617411    1.003526    0.629700    11.00000    0.03553    0.05247 =
         0.04399    0.01020    0.00652    0.00027
AFIX  43
H16   2    0.724728    1.057498    0.639416    11.00000   -1.20000
AFIX   0
C17   1    0.161522    1.153515    0.541693    11.00000    0.06107    0.13294 =
         0.05542    0.02174    0.00175    0.04671
AFIX 137
H17A  2    0.091846    1.088169    0.492084    11.00000   -1.50000
H17B  2    0.194931    1.275683    0.522027    11.00000   -1.50000
H17C  2    0.099149    1.172331    0.588285    11.00000   -1.50000
AFIX   0
HKLF 4

REM  sa3974b in P2(1)
REM R1 =  0.0477 for    3437 Fo > 4sig(Fo)  and  0.0490 for all    3549 data
REM    227 parameters refined using      1 restraints

END

WGHT      0.0621      0.6615

REM Highest difference peak  0.787,  deepest hole -0.816,  1-sigma level  0.096
Q1    1   0.7812  0.3385  0.9551  11.00000  0.05    0.79
Q2    1   0.3004  0.1807  0.6781  11.00000  0.05    0.62
Q3    1   0.2455  0.1817  0.7373  11.00000  0.05    0.52
Q4    1   0.7599  1.0106  0.7070  11.00000  0.05    0.44
Q5    1   0.6853  0.2510  1.0751  11.00000  0.05    0.36
Q6    1   0.8674  0.4098  1.0808  11.00000  0.05    0.35
Q7    1   1.0218  0.8630  0.8153  11.00000  0.05    0.34
Q8    1   0.6263  0.5029  0.9957  11.00000  0.05    0.32
Q9    1   0.9738  0.3387  0.8655  11.00000  0.05    0.32
Q10   1   0.0831  0.4934  0.8964  11.00000  0.05    0.32
Q11   1   0.6814  0.4394  1.0752  11.00000  0.05    0.30
Q12   1   0.7686  0.5079  0.9724  11.00000  0.05    0.29
Q13   1   0.7157  1.3454  0.5631  11.00000  0.05    0.29
Q14   1   0.8018  0.5024  0.6003  11.00000  0.05    0.29
Q15   1   0.8933  0.3251  1.0789  11.00000  0.05    0.28
Q16   1   0.6040  0.6228  1.0008  11.00000  0.05    0.28
Q17   1   0.7147  0.8493  0.7402  11.00000  0.05    0.28
Q18   1   1.0250  0.8609  0.8783  11.00000  0.05    0.28
Q19   1   0.9484  1.0317  0.7950  11.00000  0.05    0.27
Q20   1   0.8897  1.0381  0.7817  11.00000  0.05    0.27
;
_shelx_res_checksum              52153
_shelx_hkl_file
;
   0   0   1    0.14    0.22
   0   0   1    0.16    0.22
   0   0  -1    0.21    0.23
   0   0   1    0.37    0.23
   0   0   2  120.93    7.10
   0   0  -2   80.39    4.73
   0   0   2  121.90    7.15
   0   0  -2   85.31    5.05
   0   0   2   96.28    5.73
   0   0   3  644.48   15.58
   0   0   3  592.00   14.36
   0   0  -4   41.91    3.30
   0   0  -4   27.91    2.49
   0   0   4   40.61    3.82
   0   0  -4   31.64    2.14
   0   0   4   38.83    3.35
   0   0  -5 3480.70   26.95
   0   0   5 3412.51   26.52
   0   0  -5 3502.52   26.93
   0   0   5 3460.38   26.61
   0   0  -6 4238.65   32.87
   0   0   6 3988.79   30.99
   0   0  -6 4352.55   33.57
   0   0  -7 2109.49   17.24
   0   0   7 2071.51   16.89
   0   0  -7 2224.59   17.93
   0   0   7 2099.65   16.77
   0   0   7 2204.33   17.84
   0   0   8    3.75    0.65
   0   0  -8   10.19    1.99
   0   0   8    8.11    1.30
   0   0   8   16.39    1.94
   0   0   9   51.32    3.58
   0   0  -9   54.27    3.50
   0   0   9   48.46    3.12
   0   0   9   68.82    5.84
   0   0  10  786.30   23.15
   0   0 -10  774.98   22.59
   0   0  11   86.87    6.41
   0   0 -11   92.16    6.48
   0   0  12    4.71    1.35
   0   0  13   63.57    5.35
   0   0  13   60.06    4.97
   0   0  13   50.45    4.43
   0   0  14  115.12    5.83
   0   0  14  100.92    4.91
   0   0  14  113.16    5.86
   0   0  15   13.10    1.95
   0   0  15   15.41    2.10
   0   0  15    5.86    1.62
   0   0  16   11.35    2.66
   0   0  16    4.45    1.03
   0   0  16    6.00    1.89
   0   0  17   36.51    3.51
   0   0  18   13.36    3.93
   0   0  19    5.41    1.77
   0   1   0    4.30    0.62
   0   1   0    2.67    0.65
   0  -1   0    6.17    0.74
   0  -1   1 1912.05   14.36
   0   1  -1 1963.02   15.15
   0   1  -1 2084.71   15.91
   0   1   1 2051.94   15.71
   0  -1  -2  485.05   11.81
   0   1   2  484.26   11.74
   0  -1   3 2491.42   18.80
   0  -1   3 2417.31   18.84
   0  -1  -4 3955.75   30.58
   0   1   4 3938.42   30.51
   0  -1   4 3673.72   27.88
   0  -1   4 3767.69   28.51
   0  -1  -4 3757.66   28.28
   0  -1   4 3907.69   30.11
   0  -1  -4 3681.77   28.06
   0   1   5  614.77   14.79
   0   1   5  721.29    6.56
   0  -1   6 1792.39   14.27
   0  -1  -6 1903.66   14.77
   0  -1   6 1838.93   15.05
   0  -1   7 1009.65    8.61
   0   1   7  998.10    9.09
   0  -1   8 1204.88   10.24
   0   1   8 1170.03   10.34
   0   1  -8 1178.11   10.46
   0  -1   9  513.08   12.82
   0  -1   9  485.47   12.18
   0   1  -9  448.84   11.34
   0   1   9  426.94   10.55
   0   1  -9  511.64   12.94
   0  -1   9  404.70   10.09
   0   1   9  452.76   11.80
   0  -1  10  303.10    9.27
   0   1  10  297.25    9.46
   0   1 -10  294.30    9.06
   0   1  10  260.02    7.82
   0   1 -10  369.08   11.43
   0   1  10  289.39    9.26
   0   1  11  450.48   11.07
   0   1 -11  460.13   10.81
   0   1  11  397.15    9.13
   0   1 -11  530.31   12.56
   0   1  11  450.87   11.01
   0  -1  12  391.35   11.62
   0   1  12  433.35   13.34
   0   1 -12  438.88   12.99
   0   1  12  362.91   10.53
   0   1  12  354.09   10.34
   0   1  12  401.48   12.20
   0  -1  13  281.56   11.47
   0   1  13  341.97   14.26
   0   1 -13  343.85   13.99
   0   1  13  340.28   14.02
   0  -1  14  281.91   12.58
   0   1  14  213.70   10.13
   0   1  14  204.12    9.06
   0  -1  14  272.92   12.30
   0   1  14  242.51   11.26
   0  -1  15  301.88   20.25
   0   1  15  312.86   21.19
   0  -1  15  296.45   20.03
   0   1  15  296.16   20.08
   0  -1  16  185.02   14.61
   0   1  16  228.95   18.15
   0  -1  16  173.23   13.80
   0   1  16  218.23   17.30
   0  -1  17  207.49   15.88
   0   1  17  217.84   17.02
   0  -1  17  210.61   16.24
   0   1  18  165.59   20.38
   0   1  19   37.16    5.91
   0  -2   0 1799.66   14.19
   0   2  -1 3442.65   26.04
   0   2  -1 3580.89   27.59
   0  -2   1 3412.21   26.15
   0   2  -2 3100.36   23.30
   0   2  -2 3187.38   23.96
   0   2  -2 3240.64   25.28
   0  -2  -2 3015.29   23.04
   0  -2   2 3116.08   23.98
   0  -2  -3 3225.88   25.53
   0   2  -3 3175.26   25.03
   0  -2  -3 3317.23   25.66
   0  -2  -3 3328.57   25.12
   0   2   3 3169.45   24.61
   0   2  -4 1045.83    8.72
   0  -2   5  767.25    5.88
   0  -2   5  785.30    6.80
   0   2   5  820.19    7.55
   0  -2  -5  746.59    6.63
   0  -2   6 1180.11    9.22
   0  -2   6 1235.13    9.55
   0   2  -6 1202.52   10.10
   0  -2   6 1257.15   10.39
   0   2   6 1158.24   10.28
   0  -2  -7  575.19   14.61
   0  -2   7  493.37   12.00
   0  -2   7  492.09   11.94
   0   2  -7  483.74   12.37
   0   2  -7  471.43   11.74
   0  -2   7  501.46   12.38
   0   2   7  452.60   11.61
   0  -2   8  913.72    7.59
   0   2   8 1029.58    9.81
   0  -2   9  355.24   10.48
   0  -2   9  354.79   10.46
   0   2  -9  412.51   12.58
   0   2   9  318.57    9.15
   0   2   9  320.74    9.22
   0   2  -9  413.33   12.39
   0   2   9  381.80   11.83
   0   2  10    5.41    1.91
   0   2 -10    3.33    0.96
   0   2  10    2.37    0.36
   0   2  10    3.46    0.39
   0   2 -10    4.11    1.05
   0   2  10    8.44    2.03
   0  -2  11   16.61    1.47
   0  -2  11   21.97    1.86
   0   2  11   13.95    2.35
   0   2 -11   15.48    2.13
   0   2  11   12.21    0.98
   0   2 -11   19.20    3.04
   0   2  11   11.48    2.82
   0  -2  12  190.56    8.03
   0   2  12  227.79   10.16
   0   2 -12  237.67    9.98
   0   2  12  173.15   13.10
   0   2 -12  223.30   10.41
   0   2  12  237.21   10.18
   0  -2  13   68.11    3.25
   0   2  13   68.84    4.19
   0   2 -13   72.69    3.80
   0   2 -13   70.75    7.67
   0   2  13   71.99    4.27
   0  -2  14    7.09    1.25
   0   2  14    5.94    1.91
   0   2 -14    5.69    1.21
   0   2  14    7.65    3.06
   0  -2  15    8.86    1.54
   0   2  15    3.43    1.78
   0  -2  15    4.98    2.02
   0   2  15    6.14    2.64
   0   2  16    6.27    2.15
   0  -2  16   10.52    3.30
   0   2  16    7.60    2.57
   0   2  17   23.48    3.40
   0  -2  17   13.57    2.19
   0   2  18    6.82    2.47
   0  -2  18    2.53    2.48
   0   3   0    1.95    0.55
   0   3   0    5.58    1.42
   0  -3   0   10.99    1.89
   0   3  -1  841.82    7.04
   0   3  -1  788.18    6.54
   0  -3  -1  808.65    7.10
   0  -3  -2  260.13    6.92
   0   3   2  258.46    6.63
   0   3  -2  289.20    7.10
   0   3  -2  283.00    6.93
   0   3  -2  317.00    8.22
   0  -3  -2  248.15    6.35
   0  -3  -2  240.23    6.10
   0   3  -2  309.90    7.92
   0   3   2  288.89    7.47
   0   3  -3  129.41    7.58
   0   3  -3  114.25    6.69
   0   3  -3  123.21    8.24
   0  -3  -3  132.07    7.99
   0  -3  -3  131.91    7.83
   0   3  -3  127.50    7.69
   0   3   3  132.01    8.03
   0  -3  -4   10.72    1.40
   0   3  -4   15.90    3.05
   0  -3  -4   12.27    1.31
   0  -3  -4   11.63    0.97
   0   3  -4   15.58    1.49
   0   3  -5  499.29   13.48
   0  -3  -5  404.35    9.77
   0  -3  -5  418.22   10.08
   0   3  -5  531.74   13.22
   0   3   5  517.43   13.10
   0  -3  -6  834.25    8.97
   0   3  -6  877.37    9.22
   0   3  -6  792.28    7.42
   0   3   6  840.47    8.54
   0  -3  -7  522.66   13.68
   0   3  -7  486.85   12.25
   0   3   7  526.40   13.62
   0   3  -8  144.14    5.41
   0   3  -8  131.29    5.31
   0   3   8  144.07    5.44
   0  -3   9  215.31   14.43
   0  -3   9  232.87   15.60
   0   3   9  241.78    8.10
   0   3  -9  280.29    7.72
   0   3  -9  262.80    6.55
   0   3   9  260.26    7.13
   0  -3  10  316.36    7.08
   0  -3  10  335.13    7.47
   0   3  10  305.78    8.60
   0   3 -10  320.77    8.62
   0   3 -10  308.37    9.55
   0   3  10  335.27    8.98
   0  -3  11  191.38    7.81
   0   3  11  176.63   14.02
   0   3 -11  187.08    8.40
   0   3 -11  174.94   14.08
   0   3  11  190.57    8.79
   0  -3  12  306.04   12.40
   0   3  12  303.17   13.39
   0   3 -12  347.67   14.75
   0   3 -12  303.53   13.02
   0   3  12  347.73   15.02
   0   3  13  696.43   30.52
   0   3 -13  658.11   28.60
   0   3 -13  580.91   25.72
   0   3  13  689.20   30.05
   0   3  14   83.72    6.72
   0  -3  14   78.75    6.15
   0   3 -14   65.56    9.16
   0   3  14   87.79    6.74
   0   3  15   74.30    6.66
   0  -3  15   80.89    7.17
   0   3 -15   53.11    7.53
   0   3  16  276.75   21.55
   0  -3  16  210.91   16.44
   0   3 -16  186.11   16.68
   0   3  16  294.29   22.72
   0   3  17   26.76    3.81
   0  -3  17   21.61    3.26
   0   3  18   56.87    8.63
   0  -3  18   56.61    8.50
   0   4   0   91.34    7.04
   0   4   0  103.16    6.42
   0   4   0  107.21    6.57
   0   4   0  126.46    7.90
   0   4   1  490.37   12.15
   0   4  -1  554.00   13.67
   0   4  -1  582.54   14.28
   0   4   1  608.34   15.18
   0   4  -1  596.70   14.98
   0   4  -2 1598.07   12.61
   0   4  -2 1607.73   12.73
   0   4   2 1655.65   14.63
   0  -4  -2 1517.34   12.66
   0   4   2 1650.04   14.35
   0   4  -3  444.71   10.79
   0   4  -3  392.30    9.54
   0   4  -3  450.77   11.77
   0  -4  -3  456.87   11.28
   0  -4  -3  490.86   12.13
   0   4  -3  447.00   11.42
   0   4   3  415.04   10.73
   0   4  -4  634.55   16.21
   0  -4  -4  621.64   15.25
   0  -4  -4  689.01    6.20
   0   4  -4  658.47   19.42
   0   4   4  607.39   15.40
   0   4  -5 1828.17  122.49
   0  -4  -5 1736.08  116.06
   0  -4  -5 2032.87  135.86
   0   4  -5 1762.44  117.95
   0   4   5 1773.46  118.75
   0   4   6  159.69    5.91
   0   4  -6  183.57    6.47
   0  -4  -6  224.59    6.56
   0  -4  -6  240.78    7.03
   0   4  -6  195.29    6.43
   0   4   6  195.93    6.75
   0   4   7  305.95    8.37
   0   4  -7  346.74    9.13
   0   4  -7  346.54    8.54
   0   4   7  330.32    8.53
   0   4  -8  690.59   16.49
   0   4  -8  612.61   14.17
   0   4   8  655.77   15.68
   0   4  -9  411.08   12.23
   0   4   9  450.32   14.03
   0   4  10   44.27    4.37
   0   4 -10   43.00    4.22
   0   4 -10   48.64    6.61
   0   4  10   41.95    4.22
   0   4  11   25.65    3.02
   0   4 -11   35.12    3.22
   0   4 -11   25.44    3.67
   0   4  11   28.55    2.73
   0   4  12  254.25   12.08
   0   4 -12  242.11   11.21
   0   4 -12  223.51   11.32
   0   4  12  263.70   12.29
   0   4  13   21.31    3.85
   0  -4  13    7.73    2.11
   0   4 -13   15.24    3.13
   0   4  13   20.42    3.32
   0   4  14    3.35    2.68
   0  -4  14    5.40    1.81
   0   4 -14    2.28    0.82
   0   4  14    8.86    3.28
   0   4  15   31.56    3.50
   0   4 -15   18.80    3.04
   0   4  15   32.13    3.54
   0   4  16   13.58    2.53
   0  -4  16   20.37    4.08
   0   4 -16    4.42    1.81
   0   4  16    8.98    1.97
   0   4  17    1.32    1.82
   0  -4  17    8.86    3.65
   0   5   0    7.38    1.52
   0  -5   0    5.62    2.18
   0   5   0    7.32    2.18
   0   5  -1   48.12    4.11
   0   5  -1   67.57    2.66
   0   5   1   79.57    3.75
   0  -5  -1   48.21    2.34
   0  -5   1   58.25    3.29
   0   5  -1   73.31    3.39
   0   5   1   71.75    3.24
   0   5  -2   29.27    1.32
   0   5  -2   29.39    1.60
   0   5   2   32.89    2.58
   0  -5  -2   30.66    2.53
   0   5  -2   36.85    2.36
   0   5   2   25.84    2.08
   0   5  -3   27.92    2.05
   0   5  -3   26.65    2.06
   0   5   3   29.10    3.00
   0   5  -3   30.41    2.99
   0  -5  -3   39.99    3.11
   0   5  -3   26.95    2.56
   0   5   3   24.40    2.48
   0   5  -4  282.23    6.27
   0   5  -4  260.98    5.81
   0   5   4  283.00    7.71
   0   5  -4  304.52    8.31
   0  -5  -4  257.42    6.26
   0   5  -4  313.37    8.15
   0   5   4  270.08    7.26
   0   5   5   68.97    5.57
   0   5  -5  108.93    8.18
   0  -5  -5   83.37    5.77
   0  -5  -5   95.94    6.69
   0   5  -5   89.48    6.50
   0   5   5   92.33    6.99
   0   5   6  134.65    5.53
   0   5  -6  153.56    6.01
   0   5  -6  152.80    5.29
   0   5   6  144.41    5.53
   0   5   7   12.17    3.51
   0   5  -7   25.64    3.37
   0  -5  -7    1.69    0.36
   0  -5  -7    3.68    0.54
   0   5   7   15.53    2.63
   0   5   8  323.79   13.81
   0   5  -8  374.42   15.78
   0   5  -8  327.04   13.39
   0   5   8  341.83   14.35
   0   5   9   63.24    4.32
   0   5  -9   89.12    5.58
   0   5  -9   81.76    4.48
   0   5   9   75.51    4.68
   0   5  10  256.07   12.10
   0   5 -10  260.75   11.67
   0   5  10  264.42   12.35
   0   5 -11  378.86   25.74
   0   5  11  423.60   28.55
   0   5  12  230.01   18.42
   0  -5  12  266.47   21.17
   0   5 -12  211.77   20.23
   0   5  12  255.93   20.38
   0   5  13   67.73    8.95
   0  -5  13   83.17   10.91
   0   5 -13   53.68    7.86
   0   5  13   68.31    9.09
   0   5  14   46.00    5.65
   0   5 -14   35.82    6.76
   0   5  14   36.41    4.51
   0   5  15   44.57    5.80
   0  -5  15   47.21    6.16
   0   5 -15   36.18    7.02
   0   5  15   54.88    6.85
   0   5  16    4.15    1.89
   0  -5  16   11.23    2.56
   0   5  16   16.39    3.32
   0   6   0  954.43   37.26
   0  -6   0  848.18   33.38
   0   6   0 1165.27   45.68
   0   6  -1  198.13    8.16
   0   6   1  206.13    8.77
   0  -6  -1  136.83   10.73
   0  -6   1  147.90   11.84
   0   6   1  231.04   10.08
   0   6  -2   70.38    5.54
   0   6   2   72.16    6.22
   0  -6  -2  143.26   11.18
   0  -6   2  152.23   12.31
   0   6  -2   87.54    7.27
   0   6   2   70.11    6.26
   0   6  -3  369.69   14.47
   0   6   3  403.27   16.47
   0  -6  -3  495.48   19.56
   0  -6   3  505.51   20.53
   0   6  -3  457.56   18.64
   0   6   3  407.09   16.69
   0   6  -4  249.73    9.76
   0   6   4  315.59   13.24
   0  -6  -4  346.72   13.87
   0  -6   4  332.74   14.09
   0   6  -4  415.38   17.05
   0   6   4  345.24   14.46
   0   6   5  294.28   12.81
   0  -6  -5  269.09   11.18
   0  -6   5  233.69   10.91
   0   6  -5  354.29   15.06
   0   6   5  314.32   13.56
   0   6   6  295.13   13.65
   0  -6  -6  229.95   10.04
   0  -6   6  233.69   11.61
   0   6  -6  369.89   16.58
   0   6   6  314.59   14.29
   0   6   7  242.54   11.44
   0  -6   7  226.08   11.16
   0   6  -7  247.62   11.29
   0   6   7  253.43   11.81
   0   6   8   70.00    7.84
   0   6  -8   72.01    7.37
   0   6   8   68.16    7.24
   0   6   9   38.88    5.79
   0   6  -9   55.94    7.47
   0   6   9   32.07    4.81
   0   6  10  129.62   11.04
   0  -6  10  118.20   10.09
   0   6 -10  131.02   10.72
   0   6  10  126.38   10.60
   0   6  11   47.89    9.63
   0  -6  11   24.43    5.62
   0   6 -11   45.27    9.07
   0   6  11   54.18    7.44
   0   6  12    5.85    2.06
   0  -6  12    9.49    4.03
   0   6 -12    2.57    1.18
   0   6  12    5.57    1.98
   0   6  13   23.78    4.41
   0  -6  13   21.30    3.83
   0   6 -13   13.72    2.32
   0   6  13   11.26    2.80
   0  -6  14   23.84    4.63
   0   6 -14   19.52    4.49
   0   6  14   20.66    3.88
   0   7   0    1.17    0.96
   0  -7   0    4.95    2.04
   0   7   0    6.54    2.88
   0   7  -1   13.96    1.86
   0   7   1   10.30    1.62
   0  -7   1    7.54    1.69
   0  -7  -1   12.59    2.39
   0   7   1   15.40    3.19
   0   7   2    6.81    2.06
   0  -7  -2    3.76    1.28
   0  -7   2   11.10    2.74
   0   7  -2    6.20    2.72
   0   7   2    3.68    1.95
   0   7   3   14.86    2.34
   0  -7  -3   15.63    1.79
   0  -7   3   11.87    2.05
   0   7  -3   17.34    2.25
   0   7   3   19.55    2.91
   0   7   4   22.82    2.90
   0  -7  -4   26.98    2.31
   0  -7   4   26.20    3.62
   0   7  -4   20.50    2.62
   0   7   4   22.68    2.93
   0   7   5   11.72    3.19
   0  -7   5    2.87    2.00
   0   7  -5   10.54    2.84
   0   7   5    4.20    2.21
   0   7   6   38.70    4.74
   0  -7   6   25.99    4.12
   0   7  -6   30.09    3.21
   0   7   6   40.39    4.46
   0   7   7   13.47    3.01
   0  -7   7    3.87    2.04
   0   7  -7    9.49    2.54
   0   7   7   13.15    3.60
   0   7   8   55.97    5.45
   0  -7   8   75.37    7.37
   0   7  -8   73.22    6.54
   0   7   8   70.01    6.80
   0   7   9   53.16    6.29
   0  -7   9   56.48    7.13
   0   7  -9   79.61    8.78
   0   7   9   54.78    6.38
   0   7 -10    9.46    2.84
   0   7  10   21.27    5.57
   0   7  11   51.33    7.57
   0  -7  11   51.21    7.66
   0   7 -11   58.81    8.21
   0   7  11   54.51    8.05
   0   7  12   60.28    9.35
   0  -7  12   37.59    6.39
   0   7 -12   38.93    7.26
   0   7  12   53.95    8.31
   0  -8   0   74.80    6.46
   0   8   0   63.22    5.83
   0  -8  -1   42.03    3.86
   0  -8   1   44.51    4.40
   0   8   1   42.00    4.73
   0   8   2   62.57    5.20
   0  -8  -2   59.51    5.13
   0  -8   2   68.34    6.47
   0   8  -2   97.81    8.29
   0   8   3   79.92    8.55
   0  -8   3   80.94    8.89
   0   8  -3  112.47   11.91
   0   8   3  108.44   11.43
   0   8   4   51.66    5.92
   0  -8   4   60.09    7.27
   0   8  -4   75.30    8.25
   0   8   4   79.11    8.92
   0   8   5   65.74    8.71
   0  -8   5   46.64    6.69
   0   8  -5   84.39   10.96
   0   8   5   82.18   10.76
   0   8   6   19.20    5.12
   0  -8   6   27.45    7.25
   0   8  -6   31.81    4.94
   0   8   6   42.46    6.15
   0  -8   7   16.19    3.56
   0   8  -7   19.61    3.23
   0   8   7   27.25    4.35
   0   8   8   19.64    4.07
   0  -8   8    9.67    3.26
   0   8  -8   19.70    3.85
   0   8   8   13.07    3.72
   0   8   9   13.48    3.70
   0  -8   9    2.19    2.22
   0   8  -9    7.58    2.90
   0   8   9    9.54    2.64
   0  -9   0    0.35    1.26
   0   9   0    2.28    1.96
   0  -9   1    3.88    1.88
   0   9   1   -0.53    1.82
   0  -9   2    8.67    2.42
   0   9  -2   13.17    3.25
   0   9   2    8.46    2.21
  -1   0  19  117.95   15.78
  -1   0  18    7.04    2.18
  -1   0  17  186.28   22.89
  -1   0  16  410.26   26.45
   1   0 -16  405.66   25.95
  -1   0  15  217.16    9.88
   1   0 -15  204.31    9.07
  -1   0  15  179.01    8.17
  -1   0  14  277.65   11.93
   1   0 -14  260.52   10.96
  -1   0  14  249.04   10.55
  -1   0  13  690.67   27.33
   1   0 -13  664.48   26.07
  -1   0  13  597.74   23.54
  -1   0  12  655.81   15.38
   1   0 -12  625.55   14.28
  -1   0  12  592.81   13.49
  -1   0  12  570.31   13.13
  -1   0  11  195.67    6.48
   1   0 -11  222.07    7.19
  -1   0  11  221.49    7.79
  -1   0  11  212.21    6.80
  -1   0  10  579.71   17.25
   1   0 -10  568.06   16.76
  -1   0  10  587.48   17.21
  -1   0  10  523.67   15.43
  -1   0   9  320.35    8.39
   1   0  -9  347.32    8.89
  -1   0   9  313.65    8.05
  -1   0   8  582.38   14.57
   1   0  -8  576.98   14.26
  -1   0   8  591.24   14.41
  -1   0   7  469.44   11.62
  -1   0   7  417.05   10.50
   1   0  -7  442.70   10.99
  -1   0   7  462.74   11.48
  -1   0   7  464.50   11.43
  -1   0   6 4683.06   36.20
   1   0  -6 4591.07   35.15
   1   0  -5 3835.83   29.31
  -1   0   4 8561.78  244.72
  -1   0   3   51.13    3.12
   1   0  -3   50.74    3.10
   1   0  -3   51.66    3.14
  -1   0   3   58.13    3.52
  -1   0   2  101.38    5.98
  -1   0   2  102.20    6.03
   1   0   1 1011.55    7.88
  -1   0  -1  994.42    8.32
   1   0   2  207.97    5.18
   1   0   2  198.57    4.93
   1   0   2  174.19   10.61
   1   0   3  369.35    9.07
  -1   0  -3  340.84    8.35
   1   0   3  326.63    8.38
  -1   0  -4   59.36    4.26
   1   0   4   53.98    3.36
   1   0   4   55.43    3.36
   1   0   4   50.62    3.17
   1   0   4   73.14    6.59
  -1   0  -5  476.01   11.72
   1   0   5  480.83   11.84
   1   0   5  482.52   11.76
   1   0   5  463.13   11.38
   1   0   5  497.96   12.60
  -1   0  -6 1719.78   14.14
   1   0   6 1654.02   13.56
   1   0   6 1607.97   12.85
  -1   0  -7   86.97    7.16
   1   0   7   66.62    4.61
   1   0   7   71.35    5.45
   1   0   7   53.95    3.49
   1   0   7   79.38    6.19
  -1   0  -8  169.57   10.22
   1   0   8  154.71   10.39
   1   0   8  161.76    9.73
  -1   0  -9  946.73   27.60
   1   0   9  904.67   26.30
   1   0   9 1061.22   30.87
  -1   0 -10 1413.80   41.08
   1   0  10 1444.51   96.73
  -1   0 -11   84.01    7.98
   1   0  11   74.39    5.50
  -1   0 -12  165.01    5.79
   1   0  12  160.64    5.35
   1   0  13  712.53   28.92
   1   0  14   74.69    4.26
   1   0  14   68.35    3.74
   1   0  14   58.99    3.79
   1   0  15  451.11   29.00
   1   0  15  403.91   25.85
   1   0  15  419.19   27.07
   1   0  16  638.53  121.20
   1   0  17   28.92    3.60
   1   0  18   18.95    2.97
  -1   1  19   10.61    3.09
  -1   1  18    2.40    1.68
  -1  -1  18   12.30    3.26
  -1  -1  17   39.54    7.80
  -1   1  17   34.03    7.06
   1   1 -17   30.72    6.11
  -1  -1  16    3.55    1.43
  -1   1  16    2.98    1.63
   1   1 -16    2.04    1.45
  -1  -1  15   35.92    4.03
  -1   1  15   29.42    3.43
   1  -1 -15   35.25    3.62
   1   1 -15   33.13    3.71
  -1   1  15   22.78    2.80
  -1  -1  14    4.36    1.71
  -1   1  14    2.34    1.61
   1  -1 -14    2.41    1.10
   1   1 -14    6.04    1.18
  -1   1  14    3.29    1.67
  -1  -1  13   89.28    7.16
  -1   1  13   88.29    7.45
   1   1 -13   72.79    8.77
   1  -1 -13   82.32    8.11
  -1   1  13   65.64    5.49
  -1  -1  12  182.55    5.90
  -1   1  12  151.41    5.55
   1   1 -12  156.06    7.06
   1  -1 -12  178.19    5.46
  -1  -1  12  132.90    4.08
  -1   1  12  149.32    5.19
  -1  -1  11   91.32    6.50
  -1   1  11   73.27    5.55
   1   1 -11   79.96    9.01
   1  -1 -11   87.22    6.86
  -1   1  11   59.22    4.29
   1   1 -11   77.36    5.57
  -1   1  11   68.33    6.71
  -1  -1  11   74.95    5.18
  -1   1  11   66.33    5.00
  -1  -1  10  228.40    7.13
  -1   1  10  286.14    9.24
   1   1 -10  301.41    9.45
   1  -1 -10  219.17    6.68
  -1   1  10  275.54    8.31
  -1   1  10  269.97    8.67
  -1   1  10  268.46    8.31
  -1  -1   9  127.36    9.21
  -1   1   9  174.45   10.61
   1   1  -9  217.78    6.01
  -1   1   9  215.29    5.62
  -1   1   9  215.28    6.45
  -1   1   9  177.12   10.61
  -1  -1   8 2060.05   16.56
   1   1  -8 2179.39   18.01
   1  -1  -8 2145.18   17.04
   1   1  -8 2122.01   17.34
  -1  -1   8 1983.57   15.51
  -1   1   8 2038.19   16.33
  -1  -1   7 3968.07   30.66
  -1  -1   7 3996.04   30.68
   1   1  -7 4216.21   33.02
   1  -1  -7 3924.30   30.02
  -1   1   7 4229.31   32.47
  -1   1   6   80.13    5.63
  -1  -1   6  124.06    7.37
  -1   1   6   73.32    8.35
   1   1  -6   58.37    3.57
   1   1  -6   78.29    5.38
  -1  -1   6  132.26    7.98
   1  -1  -6  115.75    6.86
  -1   1   6   74.64    4.52
   1   1  -6   76.31    4.61
  -1  -1   6  131.52    7.74
  -1   1   6   65.61    4.06
  -1   1   5 2171.56   17.42
   1   1  -5 2131.88   16.45
   1  -1  -5 2176.11   16.70
   1   1  -5 2213.03   16.93
   1  -1  -5 2168.18   16.67
  -1  -1   4  539.81   13.06
   1   1  -4  552.19   13.32
  -1   1   4  590.32   14.51
  -1  -1   4  576.84   14.14
   1  -1  -4  477.31   11.54
  -1   1   4  569.72   13.75
   1   1  -4  587.68   14.15
  -1  -1   4  527.44   12.71
  -1   1   4  546.11   13.22
   1  -1  -4  464.84   11.26
   1  -1  -3 2020.33   15.46
   1  -1  -3 2241.50   17.17
   1  -1  -2 9075.92  259.51
  -1  -1   1 1693.70   12.98
   1   1  -1 1699.27   13.20
   1  -1  -1 1711.11   13.20
  -1   1   1 1661.73   12.84
  -1   1   1 1611.99   12.43
   1  -1  -1 1600.19   12.35
   1   1  -1 1629.93   12.56
  -1  -1   1 1617.49   12.46
   1  -1   1  889.00    7.29
   1  -1   1  844.84    6.82
   1  -1   2 3197.90   24.18
   1   1   2 3226.70   24.35
   1   1   2 3353.96   25.93
   1   1   3 3352.83   25.86
  -1   1  -3 3204.25   24.29
   1  -1   3 3331.47   25.65
   1   1   3 3321.89   25.04
  -1  -1  -3 3089.29   23.30
   1  -1   3 3129.87   24.26
   1  -1   3 3298.33   25.41
   1   1   5 1175.34    9.18
  -1   1  -6  623.14   15.22
   1  -1   6  542.35   13.27
   1  -1   6  540.21   13.30
   1   1   6  551.63   13.34
   1   1   6  568.28   13.75
   1  -1   6  534.29   13.35
   1   1   6  654.31   19.16
   1   1   6  573.62   14.41
   1   1   7 1099.99    8.87
   1   1   7 1126.14   10.49
  -1  -1  -8  802.63    8.10
  -1   1  -8  759.15    7.05
   1  -1   8  734.35    6.83
   1   1   8  659.17   19.09
   1   1   8  707.07    7.76
  -1   1  -9 1159.95   33.64
  -1  -1  -9 1191.28   34.74
   1   1   9 1032.32   29.78
   1   1   9  998.26   28.82
   1  -1   9 1247.94   36.38
  -1   1  -9 1221.23   35.69
   1   1   9 1241.74   36.31
  -1  -1 -10  683.09   20.36
   1   1  10  685.65   19.93
   1   1  10  664.23   19.35
   1  -1  10  752.03   22.36
  -1   1 -10  890.63   27.32
   1   1  10  797.86   23.75
  -1  -1 -11  163.56   14.18
  -1   1 -11  157.62   10.98
   1   1  11  117.55    8.08
   1   1  11  129.97    8.96
   1  -1  11  152.72   10.76
  -1   1 -11  148.25   10.42
   1   1  11  165.35   11.95
  -1  -1 -12  414.73   16.87
   1   1  12  272.52   10.83
   1   1  12  320.67   12.73
   1  -1  12  423.60   17.09
   1   1  12  399.02   16.41
  -1  -1 -13    1.37    1.48
   1  -1  13    7.33    1.96
   1   1  13   14.05    1.20
   1  -1  13    1.71    1.22
   1   1  13    2.71    1.67
   1   1  14    3.59    2.35
   1  -1  14    4.27    1.77
   1   1  14    4.66    1.36
   1  -1  14   10.26    2.88
   1   1  14    0.51    1.88
   1  -1  15   74.03    9.65
   1   1  15   60.26    8.04
   1  -1  15   67.57    8.86
   1   1  15   65.65    8.82
   1  -1  16   16.53    3.52
   1   1  16   19.44    4.29
   1  -1  16   12.02    2.67
   1   1  16   11.77    3.30
   1   1  17   23.09    3.15
   1  -1  17   19.08    2.39
   1  -1  17   29.84    3.71
   1   1  17   23.50    3.35
   1   1  18    4.48    2.38
  -1   2  19   41.16    6.83
  -1  -2  19   21.98    3.88
  -1   2  18  196.95   21.74
  -1   2  17   98.17    8.31
   1   2 -17   93.26    7.59
  -1   2  16   74.60    6.60
   1   2 -16   97.77    8.17
  -1  -2  15  275.28   18.37
  -1   2  15  269.46   18.42
   1   2 -15  297.77   20.13
  -1   2  15  273.36   18.44
  -1  -2  14  435.56   18.88
  -1   2  14  439.71   19.77
   1   2 -14  429.26   18.88
   1   2 -14  409.62   17.84
  -1   2  14  444.49   19.51
  -1  -2  13  167.17    7.18
  -1   2  13  191.25    8.78
   1  -2 -13  158.36    6.54
   1   2 -13  207.89   10.90
   1   2 -13  194.56   11.56
  -1   2  13  197.38    8.74
  -1  -2  12  175.15    5.46
  -1   2  12  232.39    8.00
   1   2 -12  238.44    8.22
   1  -2 -12  179.69    5.61
  -1   2  12  158.87    4.75
   1   2 -12  207.39    7.54
  -1   2  12  244.38    7.81
  -1  -2  11 1164.91   25.70
  -1   2  11 1303.87   29.64
   1  -2 -11 1148.93   25.14
   1   2 -11 1307.39   29.41
   1   2 -11 1191.03   26.52
  -1   2  11 1306.42   29.09
  -1  -2  10  342.14   12.43
  -1  -2  10  403.53   11.92
  -1   2  10  497.21   15.25
   1   2 -10  523.79   15.84
   1  -2 -10  383.06   11.19
  -1   2  10  412.35   12.02
   1   2 -10  502.75   15.02
  -1  -2  10  358.44   10.63
  -1   2  10  519.61   15.53
  -1  -2   9  420.86   12.32
  -1  -2   9  470.56   13.77
  -1   2   9  451.33   13.85
   1   2  -9  468.54   14.16
   1  -2  -9  406.01   11.81
  -1   2   9  408.69   11.88
   1   2  -9  490.86   14.69
  -1  -2   9  438.33   12.84
  -1   2   9  492.60   14.74
  -1  -2   8  821.91    6.97
  -1   2   8  853.98    7.02
  -1  -2   8  792.19    6.93
  -1   2   7  293.84    7.90
  -1  -2   6  621.85   15.02
  -1   2   6  478.38   12.27
   1   2  -6  493.20   11.93
   1  -2  -6  516.83   12.50
  -1   2   6  557.01   13.47
   1   2  -6  569.53   13.90
  -1  -2   6  577.25   14.05
  -1   2   6  579.83   14.31
   1  -2  -6  560.96   13.73
  -1  -2   5  380.56    9.22
   1   2  -5  311.77    7.57
   1   2  -5  347.90    9.05
   1  -2  -5  388.31    9.43
  -1   2   5  334.37    8.18
   1   2  -5  342.05    8.47
  -1  -2   5  386.40    9.48
  -1   2   5  324.67    8.16
   1  -2  -5  406.46   10.06
  -1  -2   4 1074.56    8.36
   1   2  -4 1098.92    8.51
  -1  -2   4 1059.31    8.63
   1  -2  -4 1113.64    9.23
  -1  -2   3   17.89    1.17
  -1   2   3   30.10    2.16
   1   2  -3   47.71    5.04
  -1  -2   3   18.51    1.39
   1  -2  -3   18.52    1.36
  -1   2   3   32.49    2.08
  -1  -2   3   17.08    1.25
   1  -2  -3   14.26    1.11
   1   2  -2   11.31    0.89
  -1   2   2    7.44    0.85
   1   2  -2   15.29    2.52
  -1   2   2   10.45    0.92
  -1   2   2   10.84    1.15
   1   2  -2   11.11    1.05
   1  -2  -2   22.03    1.54
  -1  -2   1  207.84    5.26
   1   2  -1  167.09    9.81
  -1   2   1  162.07    9.58
   1  -2  -1  175.31   10.33
   1   2  -1  187.42    5.89
  -1  -2   1  211.17    5.37
   1  -2  -1  216.63    5.56
  -1   2   1  148.99    8.81
  -1   2   1  163.49    9.68
   1  -2  -1  179.11   10.55
   1   2  -1  174.10   10.29
  -1  -2   1  215.73    5.50
   1   2   0   87.30    5.21
  -1   2   0   87.21    5.23
   1  -2   0   92.85    5.53
  -1  -2   0  103.68    6.17
  -1   2   0   80.27    4.88
  -1   2   0   95.25    5.78
   1  -2   0   96.94    5.80
  -1  -2   0   98.49    5.93
  -1  -2  -1  365.13    9.11
   1   2   1  357.87    8.81
  -1   2  -1  354.33    8.64
   1  -2   1  320.65    7.81
   1  -2   1  361.18    8.94
   1   2   1  415.60   10.22
  -1  -2  -1  377.44    9.20
  -1   2  -1  332.61    8.33
  -1  -2  -1  363.58    9.05
  -1  -2  -2  123.16    7.46
  -1   2  -2   99.07    5.85
   1  -2   2  104.03    6.12
   1   2   2  121.29    7.44
  -1  -2  -2  119.61    7.04
  -1   2  -2  107.76    6.49
   1  -2   2  112.00    6.69
   1   2   2  104.90    6.41
  -1   2  -3  887.43    6.97
   1  -2   3  912.68    7.14
   1  -2   3  896.38    7.94
   1   2   3  937.24    7.49
  -1  -2  -3  950.87    7.39
   1  -2   3  941.04    7.97
   1   2   3  918.32    8.22
  -1  -2  -4  279.46    7.35
  -1   2  -4  226.04    5.53
   1  -2   4  248.63    6.06
   1   2   4  239.82    5.84
  -1  -2  -4  244.49    5.91
   1  -2   4  264.14    7.03
   1   2   4  258.71    6.90
  -1  -2  -5  305.81    8.15
  -1   2  -5  367.76    8.94
   1  -2   5  302.85    7.39
   1  -2   5  314.71    8.29
  -1   2  -6   52.41    4.02
  -1  -2  -6  100.77    8.54
   1  -2   6   77.16    4.62
   1  -2   6   74.79    5.03
  -1   2  -6   54.61    6.30
   1   2   6   49.51    3.84
  -1   2  -7  167.15   10.21
   1  -2   7  138.15    8.18
   1  -2   7  122.91    7.82
  -1   2  -7  171.09   10.75
   1   2   7  172.25   10.69
  -1   2  -8  771.51   22.34
   1  -2   8  646.67   18.78
   1  -2   8  686.21   20.62
  -1   2  -8  855.84   25.30
   1   2   8  839.51   24.95
  -1   2  -9  181.93    5.64
  -1  -2  -9  234.73   10.01
   1  -2   9  220.62    6.72
   1  -2   9  240.89    8.06
  -1   2  -9  175.72    6.89
   1   2   9  164.72    6.30
  -1  -2 -10  390.00    9.89
   1  -2  10  352.03    8.23
  -1   2 -10  374.61    9.98
   1   2  10  374.96    9.84
  -1  -2 -11  558.89   17.77
   1  -2  11  471.07   13.57
   1   2  11  370.73   10.37
   1  -2  11  534.11   16.11
  -1   2 -11  516.72   15.33
  -1  -2 -12  286.74   12.34
   1  -2  12  244.91    9.92
   1  -2  12  235.71   10.14
  -1   2 -12  275.61   12.38
   1   2  12  304.33   13.04
  -1  -2 -13  161.93    7.95
   1  -2  13  194.60    8.71
   1  -2  13  180.07    8.65
  -1   2 -13  200.09   11.73
   1   2  13  211.13   10.25
   1  -2  14  268.20   17.91
   1   2  14  289.54   19.76
   1  -2  14  267.57   18.21
  -1   2 -14  310.26   20.97
   1   2  14  353.32   24.03
   1   2  15  170.84   13.85
   1  -2  15  135.69   11.03
  -1   2 -15  155.94   12.47
   1   2  15  200.39   16.08
   1   2  16  112.86    9.38
   1  -2  16  148.46   11.94
   1   2  16  103.67    8.74
   1   2  17  113.55   14.36
   1  -2  17  115.27   14.41
   1   2  17  127.56   15.98
   1   2  18  126.51   18.23
   1  -2  18  130.96   18.76
  -1   3  18   25.47    4.42
  -1  -3  18   23.27    3.99
  -1   3  17    5.45    2.13
  -1   3  16    4.54    2.02
  -1   3  15    4.39    1.88
   1   3 -15    5.30    1.51
   1   3 -15    2.94    0.81
  -1   3  15    3.08    1.44
  -1   3  14   58.72    5.19
   1   3 -14   68.69    5.55
   1   3 -14   38.34    5.62
  -1   3  14   70.16    5.62
  -1   3  13   93.88    5.38
   1   3 -13   93.39   10.09
   1   3 -13   71.62    8.56
  -1   3  13  107.14    5.70
  -1  -3  12  107.01    8.22
  -1   3  12   81.86    7.16
   1   3 -12   75.94   11.64
   1   3 -12   64.48    8.86
  -1   3  12   86.18    7.17
  -1  -3  11  132.34    4.06
  -1   3  11  111.52    4.96
   1   3 -11  118.18    9.10
   1   3 -11  122.75    7.87
  -1   3  11  136.05    5.10
  -1  -3  10  544.54   12.04
  -1   3  10  615.03   14.99
   1   3 -10  608.27   15.22
   1   3 -10  600.62   15.59
  -1   3  10  676.11   15.78
  -1  -3   9  290.78    7.16
  -1  -3   9  307.34    6.84
  -1   3   9  397.88   10.08
  -1  -3   8  174.58    6.01
  -1  -3   8  195.28    5.70
  -1   3   8  170.09    5.97
   1  -3  -8  158.02    4.64
   1   3  -8  207.30    6.52
  -1   3   8  218.83    7.24
  -1  -3   7  355.46    8.58
  -1   3   7  271.03    7.57
   1   3  -7  361.07    9.91
   1  -3  -7  341.63    8.33
   1   3  -7  339.25    8.63
  -1   3   7  305.05    8.09
   1   3  -6  612.92   15.09
  -1   3   6  577.40   14.39
  -1  -3   5  540.09   12.99
   1   3  -5  524.95   12.61
  -1   3   5  566.84   14.34
   1  -3  -5  566.26   13.73
   1   3  -5  618.54   15.24
  -1   3   5  565.16   14.03
  -1   3   4  899.75    8.85
   1   3  -4  960.26   10.16
   1  -3  -4  890.68    7.50
   1   3  -4  927.57    8.26
  -1   3   4  882.38    8.03
   1   3  -3 1596.14   12.37
  -1   3   3 1605.66   13.41
   1  -3  -2  733.65    6.37
  -1  -3   2  777.53    7.12
  -1   3   2  691.90    6.65
   1   3  -2  700.45    6.62
  -1   3   1 1056.31    9.08
  -1  -3   1 1003.80    8.61
  -1   3   1 1067.43    9.03
  -1  -3   1 1046.85    9.10
   1  -3  -1 1049.12    9.07
  -1  -3   0 5559.89  159.37
   1   3   0 5650.78  161.70
  -1   3   0 5586.89  159.85
   1   3   0 5855.30  167.85
  -1  -3   0 5285.91   40.95
   1  -3   0 5535.27  158.50
  -1   3   0 5927.76  169.81
  -1   3  -1 2653.64   20.74
  -1  -3  -1 2733.62   22.08
   1   3   1 2718.84   21.37
  -1   3  -1 2617.83   20.13
  -1  -3  -1 2707.00   21.29
   1  -3   1 2723.53   22.02
   1   3   2  644.52   16.17
   1   3   2  648.23   19.03
  -1   3  -3  257.04    6.30
   1   3   3  262.01    6.62
   1   3   3  267.38    7.20
  -1   3  -4  710.09    5.54
   1   3   4  685.68    5.61
  -1  -3  -4  678.17    5.50
   1  -3   4  656.41   19.49
  -1  -3  -5 1164.56   11.28
  -1  -3  -6 1736.65   15.58
  -1  -3  -7 1251.96   36.63
   1  -3   7 1128.61   32.31
   1  -3   7  968.27   27.73
   1  -3   7 1193.15   34.93
  -1   3  -7 1486.53   99.75
   1   3   7 1500.98  100.66
  -1  -3  -8  223.93    7.48
   1  -3   8  205.17    6.00
   1  -3   8  178.33    5.23
   1  -3   8  211.01    7.22
  -1   3  -8  167.00    5.89
   1   3   8  157.48    5.92
  -1  -3  -9   63.04    7.57
   1  -3   9   38.79    2.73
   1  -3   9   43.72    4.00
   1   3   9   12.88    2.23
   1  -3  10  433.63   12.26
   1  -3  10  435.64   12.31
   1  -3  10  505.18   15.63
  -1   3 -10  551.97   16.34
   1   3  10  544.58   16.64
  -1  -3 -11  325.71   13.66
   1  -3  11  257.56   10.15
   1  -3  11  316.29   13.49
  -1   3 -11  358.46   16.37
   1   3  11  359.92   15.25
  -1  -3 -12    6.26    1.82
   1  -3  12    8.44    0.74
   1  -3  12    9.05    2.67
  -1   3 -12    4.47    1.06
   1   3  12    4.29    3.33
   1  -3  13  112.94    8.31
  -1   3 -13   89.32   12.81
   1   3  13  124.31    9.27
   1   3  14   13.89    2.59
   1  -3  14   22.12    3.49
   1   3  14    9.89    1.99
   1   3  15   37.93    7.66
   1  -3  15   65.11    8.55
  -1   3 -15   42.97    9.66
   1   3  15   54.62    7.55
   1   3  16    0.67    1.76
   1  -3  16   -0.95    1.96
  -1   3 -16    3.64    1.65
   1   3  16   -0.01    1.95
   1   3  17    3.06    1.57
   1  -3  17    2.21    1.64
   1   3  17    4.95    2.86
  -1   4  17   59.83    8.59
  -1   4  16   44.72    6.39
   1   4 -16   42.79    6.06
  -1   4  15  191.73   15.24
   1   4 -15  216.24   16.95
   1   4 -15  128.08   12.55
  -1   4  15  221.57   17.22
  -1   4  14  190.31   15.42
   1   4 -14  181.51   14.54
   1   4 -14  133.74   14.31
  -1   4  14  177.69   14.25
  -1   4  13  139.24   10.26
   1   4 -13  129.58    9.39
   1   4 -13  114.99   12.82
  -1   4  13  140.81   10.08
  -1   4  12  259.53   12.17
   1   4 -12  260.47   12.06
   1   4 -12  229.99   10.96
  -1   4  12  279.83   12.56
  -1   4  11  369.91   16.19
   1   4 -11  414.05   17.59
   1   4 -11  385.43   15.94
  -1   4  11  400.91   16.93
  -1   4  10  276.21   12.03
   1   4 -10  278.54   13.13
   1   4 -10  287.89   11.67
  -1   4  10  296.29   12.39
   1   4  -9  164.08    5.36
  -1   4   9  176.61    6.21
  -1   4   8  433.31   10.91
   1  -4  -8  451.65    9.91
  -1   4   7  548.23   13.30
   1  -4  -7  453.81   10.06
   1   4  -7  569.31   13.13
  -1   4   7  549.36   12.88
  -1   4   6  451.74   14.21
   1  -4  -6  349.49   10.25
  -1   4   6  463.38   13.99
   1   4  -5  307.52    8.88
  -1   4   5  291.64    9.29
   1   4  -5  316.24   10.89
   1  -4  -5  323.17    9.65
   1   4  -5  320.18    9.86
  -1   4   5  291.50    9.22
  -1  -4   4  572.55   13.94
   1   4  -4  605.08   14.63
  -1   4   4  583.41   14.94
   1   4  -4  597.05   16.20
   1  -4  -4  667.78   19.49
   1   4  -4  619.40   15.52
  -1   4   4  572.95   14.48
  -1  -4   3  432.63   10.91
   1   4  -3  427.83   10.47
  -1   4   3  355.61    9.27
   1   4  -3  410.32   10.92
  -1   4   3  416.57   10.81
   1   4  -3  425.39   10.91
  -1  -4   2  217.27    6.67
   1   4  -2  196.92    5.92
  -1   4   2  177.48   10.67
   1  -4  -2  153.22    9.12
   1   4  -2  190.45    6.64
   1  -4  -2  227.99    6.15
  -1   4   2  202.33    5.87
   1   4  -2  201.48    5.72
  -1  -4   1  465.82   11.89
   1   4  -1  509.65   12.51
  -1   4   1  484.92   12.11
   1   4  -1  493.88   13.02
   1  -4  -1  511.60   12.83
  -1   4   1  544.84   13.82
   1   4  -1  513.98   12.93
  -1   4   0   15.41    1.97
  -1  -4   0   10.66    1.89
   1   4   0   12.14    1.15
  -1   4   0   14.85    1.53
   1   4   0   26.58    3.20
   1  -4   0   15.56    1.71
  -1   4   0   15.31    1.85
  -1  -4  -1  662.08   19.49
  -1   4  -1  673.96    5.97
   1   4   1  712.82    6.79
   1  -4   1  683.22    7.18
  -1   4  -1  717.67    7.30
   1   4   1  691.52    7.08
  -1  -4  -2   12.50    2.05
  -1   4  -2    8.70    1.09
  -1   4  -2   10.06    0.96
   1   4   2   18.87    2.12
  -1  -4  -2   10.41    1.00
   1  -4   2   12.97    1.90
  -1   4  -2   13.14    1.60
   1   4   2    6.78    1.42
  -1  -4  -3   24.01    3.71
  -1   4  -3   24.51    2.07
  -1   4  -3   24.21    1.63
   1   4   3   29.71    2.13
  -1  -4  -3   17.71    1.33
   1  -4   3   19.06    2.65
   1   4   3   23.70    2.15
  -1  -4  -4  319.82   10.07
  -1   4  -4  263.50    7.61
  -1   4  -4  317.21    9.16
  -1  -4  -4  343.90   10.09
  -1   4  -4  326.43   10.08
   1   4   4  318.08   10.09
  -1  -4  -5  291.27   11.06
  -1  -4  -5  269.46    7.88
  -1  -4  -5  253.41    7.46
   1  -4   5  264.10    8.84
  -1   4  -5  306.51    9.58
   1   4   5  324.48   10.40
  -1  -4  -6  247.26   12.62
  -1   4  -6  302.77    9.51
   1   4   6  321.06   10.40
  -1  -4  -7  208.39   17.28
   1  -4   7  170.04   12.23
  -1   4  -7  230.84   15.84
   1   4   7  231.93   16.27
  -1  -4  -8  844.14   24.80
   1  -4   8  842.52   25.00
  -1   4  -8  795.10   22.87
   1   4   8  839.62   24.65
  -1  -4  -9   55.20    7.93
   1  -4   9   41.02    4.57
  -1   4  -9   76.64    9.01
   1   4   9   78.22    7.07
  -1  -4 -10  125.49    6.57
   1  -4  10  132.16    6.98
  -1   4 -10   85.88    9.05
   1   4  10   98.65    5.87
  -1  -4 -11  525.56   23.51
   1  -4  11  545.88   24.34
  -1   4 -11  518.80   22.99
   1   4  11  547.36   24.40
   1  -4  12   22.88    3.52
  -1   4 -12   32.71    5.26
   1   4  12   37.94    4.43
   1   4  13  157.30   11.07
   1  -4  13  135.89    9.67
  -1   4 -13  116.72   15.86
   1   4  13  204.74   14.08
   1   4  14  212.25   26.18
   1  -4  14  201.45   24.88
  -1   4 -14  179.42   24.92
   1   4  14  256.66   31.62
   1   4  15   78.47   10.26
   1  -4  15   92.90   11.91
  -1   4 -15   48.85    8.94
   1   4  15   94.42   12.17
   1   4  16   58.35    8.45
   1  -4  16   59.96    8.70
  -1   4 -16   52.71    9.97
   1   4  16   69.20    9.78
  -1   5  16   -0.44    2.02
  -1   5  15    4.70    2.08
   1   5 -15    5.81    2.55
  -1   5  15    5.04    1.54
  -1   5  14   15.60    2.78
   1   5 -14   19.10    3.22
   1   5 -14   17.06    3.00
  -1   5  14   11.51    2.17
  -1   5  13   11.78    3.20
   1   5 -13    8.06    2.06
  -1   5  13    9.81    2.58
   1   5 -12  169.91   11.84
   1   5 -12  151.86   12.86
  -1   5  12  174.50   11.89
  -1   5  11   14.98    2.51
   1   5 -11   12.63    1.96
  -1   5  11    8.43    1.58
  -1   5  10  145.17    7.65
   1   5 -10  165.54    8.70
   1   5 -10  146.16    6.98
  -1   5  10  142.98    7.26
  -1   5   9   25.68    3.69
   1   5  -9   25.56    4.54
   1   5  -9   20.78    1.92
  -1   5   9   27.94    2.63
  -1   5   8  225.67   10.19
   1   5  -8  232.12   10.39
   1  -5  -8  144.71   10.98
   1   5  -8  228.01    9.50
  -1   5   8  224.31    9.76
  -1   5   7  206.29    9.34
   1   5  -7  263.51   16.39
   1  -5  -7  256.45   10.15
   1   5  -7  229.18    7.36
  -1   5   7  212.77    7.15
   1   5  -6  328.59   18.36
  -1   5   6  265.67    8.64
   1   5  -5  374.73    8.24
   1   5  -5  334.71    7.35
  -1   5   5  377.30    9.74
   1   5  -5  374.21    9.79
   1  -5  -5  377.85    8.89
   1   5  -5  400.47    9.78
  -1   5   5  353.37    8.97
   1   5  -4  153.91   10.41
  -1   5   4  146.38   10.45
   1   5  -4  127.34    8.63
   1   5  -4  156.59   15.55
   1  -5  -4  228.70   15.61
   1   5  -4  159.77   11.19
  -1   5   4  159.11   11.26
   1   5  -3  435.75    9.79
  -1   5   3  401.77    9.80
   1   5  -3  396.96    9.98
   1  -5  -3  443.97   10.44
   1   5  -3  479.23   11.72
  -1   5   3  460.72   11.43
  -1  -5   2 1572.64   34.63
   1   5  -2 1581.90   34.57
  -1   5   2 1589.07   35.17
   1   5  -2 1615.97   36.15
   1  -5  -2 1504.14   33.26
  -1   5   2 1795.80   39.97
   1   5  -2 1813.96   40.28
  -1  -5   1  705.39   20.77
  -1   5   1  706.47   20.84
   1   5  -1  728.93   22.33
   1  -5  -1  707.76   20.97
  -1   5   1  804.83   23.96
   1   5  -1  778.31   23.14
  -1  -5   0  701.06   20.69
  -1   5   0  535.09   15.79
   1   5   0  574.06   17.17
   1  -5   0  687.57   20.44
  -1   5   0  604.00   18.16
  -1  -5  -1  670.85   16.07
  -1   5  -1  664.70   14.87
   1   5   1  700.53   15.92
   1  -5   1  728.11   17.04
  -1   5  -1  737.84   17.04
   1   5   1  687.79   16.02
  -1  -5  -2  939.85   22.30
  -1   5  -2 1081.88   23.70
   1   5   2 1159.71   25.73
   1  -5   2  990.26   22.66
   1   5   2 1101.06   24.87
  -1  -5  -3  693.21   17.00
  -1   5  -3  573.08   12.66
  -1   5  -3  695.34   15.31
   1  -5   3  664.55   15.87
   1   5   3  704.96   16.43
  -1  -5  -4  918.85   21.41
  -1   5  -4  772.49   16.82
  -1   5  -4  799.52   17.42
  -1  -5  -4  841.86   18.65
  -1  -5  -4  809.78   17.94
   1  -5   4  871.43   20.42
  -1   5  -4  886.26   20.39
   1   5   4  845.41   19.63
  -1  -5  -5  835.20   25.30
  -1  -5  -5  726.39   20.39
  -1  -5  -5  705.52   19.83
   1  -5   5  734.27   21.66
  -1   5  -5  898.62   25.82
   1   5   5  900.31   26.19
  -1  -5  -6  232.96   16.50
  -1  -5  -6  196.43    5.71
  -1   5  -6  178.40    6.15
   1   5   6  176.13    6.85
  -1  -5  -7  466.20   19.32
   1  -5   7  409.74   17.15
  -1   5  -7  331.77   13.62
   1   5   7  341.27   14.34
  -1  -5  -8   78.49    4.84
   1  -5   8   79.58    5.73
  -1   5  -8  141.61    6.62
   1   5   8  137.51    6.95
  -1  -5  -9   20.57    2.76
   1  -5   9   12.15    2.77
  -1   5  -9   43.81    3.32
   1   5   9   32.25    3.69
   1  -5  10   51.37    6.06
  -1   5 -10   49.93    7.07
   1   5  10   60.51    6.86
  -1   5 -11   13.42    3.01
   1   5  11   23.32    4.41
   1   5  12  122.23   10.60
   1  -5  12  141.22   12.03
  -1   5 -12   96.76   14.33
   1   5  12  150.02   12.69
   1   5  13   21.54    3.00
   1  -5  13   29.60    4.11
  -1   5 -13   23.79    4.04
   1   5  13   34.49    4.34
   1   5  14   28.37    7.26
   1  -5  14   29.52    7.54
  -1   5 -14   15.58    4.58
   1   5  14   18.42    4.92
   1   5  15   -0.22    2.04
   1  -5  15    3.10    2.04
  -1   5 -15    3.36    1.74
   1   5  15    5.75    2.37
  -1   6  14   17.31    3.79
   1   6 -14    8.56    1.84
  -1   6  14   15.97    4.17
  -1   6  13  202.09   24.96
   1   6 -13  207.80   25.61
   1   6 -13  134.74   19.19
  -1   6  13  219.52   26.89
  -1   6  12  113.42   12.21
   1   6 -12  121.29   12.74
   1   6 -12  123.47   12.61
  -1   6  12  123.59   13.03
  -1   6  11   43.25    8.92
   1   6 -11   33.68    7.40
   1   6 -11   47.28    9.34
  -1   6  11   43.02    8.78
  -1   6  10   73.23    6.77
   1   6 -10   98.04    8.59
   1   6 -10   90.80    7.62
  -1   6  10   94.84    8.13
  -1   6   9   83.96    6.66
   1   6  -9   96.39    7.47
   1   6  -9   83.77    6.09
  -1   6   9   77.72   10.25
  -1   6   8   17.83    3.97
   1   6  -8   15.05    2.98
   1   6  -8    6.29    1.35
  -1   6   8   10.83    2.21
  -1   6   7  141.41    7.47
   1   6  -7  157.14    8.27
   1   6  -7  161.38    7.70
  -1   6   7  160.48    7.98
  -1   6   6  657.12   28.85
   1   6  -6  671.02   29.37
   1  -6  -6  627.56   26.83
   1   6  -6  715.81   30.99
  -1   6   6  661.38   28.89
  -1   6   5   87.32    4.81
   1   6  -5  108.45    5.86
   1  -6  -5   94.33    4.41
   1   6  -5  134.00    6.54
  -1   6   5   84.97    4.70
   1   6  -4   17.62    1.14
  -1   6   4   14.02    1.80
   1   6  -4   22.72    2.55
   1  -6  -4   23.07    1.77
   1   6  -4   21.58    2.60
  -1   6   4   25.24    2.29
  -1   6   3  117.94    9.43
   1   6  -3  109.05    8.38
   1   6  -3  130.96   10.59
   1  -6  -3  157.69   12.32
   1   6  -3  139.93   11.20
  -1   6   3  138.11   11.18
  -1   6   2  188.12    8.17
   1   6  -2  186.85    7.87
   1   6  -2  232.00   10.25
   1  -6  -2  193.63    8.42
   1   6  -2  240.65   10.29
  -1   6   2  217.88    9.66
  -1   6   1   92.89    7.49
   1   6  -1   81.47    6.61
   1   6  -1   99.62    8.09
   1  -6  -1   72.32    6.06
  -1   6   1   99.42    8.29
   1   6  -1   99.00    8.14
  -1   6   0   60.23    4.89
   1   6   0   66.22    5.65
   1   6   0   68.68    5.70
   1  -6   0   61.76    5.34
  -1   6   0   81.12    7.17
  -1   6  -1   13.58    1.60
   1  -6   1    8.50    1.60
  -1   6  -1   20.41    3.35
   1   6   1   14.03    2.35
  -1  -6  -2  196.16    8.53
  -1   6  -2  188.08    7.82
   1  -6   2  190.75    8.74
  -1  -6  -2  167.78   12.97
   1   6   2  170.34   13.41
  -1  -6  -3  178.16   14.11
  -1   6  -3  211.42    8.41
   1  -6   3  188.68    8.83
  -1  -6  -3  181.69   13.96
   1   6   3  210.45    9.37
  -1  -6  -4   17.94    2.45
  -1  -6  -4   13.91    1.24
   1  -6   4   12.50    2.08
  -1   6  -4   32.26    2.77
   1   6   4   29.25    3.00
  -1  -6  -5   66.65    4.27
  -1  -6  -5   60.69    3.09
   1  -6   5   65.02    4.65
  -1   6  -5   66.90    4.03
   1   6   5   57.37    4.01
   1  -6   6  117.23    7.27
  -1   6  -6  102.26    5.45
   1   6   6   97.97    5.58
   1  -6   7   76.43    8.08
  -1   6  -7   62.73    6.47
   1   6   7   68.88    7.60
   1   6   8   30.38    3.59
   1  -6   8   27.82    3.49
  -1   6  -8   23.52    2.79
   1   6   8   30.56    3.89
   1   6   9  175.96   12.15
   1  -6   9  184.60   13.08
  -1   6  -9  177.94   12.09
   1   6   9  175.67   12.16
   1   6  10  261.26   32.10
   1  -6  10  275.64   33.92
  -1   6 -10  279.73   36.10
   1   6  10  323.08   39.58
   1   6  11   19.23    3.46
   1  -6  11   15.57    4.00
  -1   6 -11   15.60    2.79
   1   6  11   10.41    2.44
   1   6  12   30.25    7.71
   1  -6  12   30.79    7.75
   1   6  12   33.55    4.97
   1   6  13   71.33   10.10
   1  -6  13  108.71   15.14
  -1   6 -13   56.66   10.83
   1   6  13   79.05   11.22
  -1   7  12   19.36    4.22
  -1  -7  12   16.89    4.93
   1   7 -12   20.93    3.76
  -1   7  12   28.83    4.87
  -1   7  11    6.83    2.26
   1   7 -11    4.65    1.50
  -1   7  11   14.98    3.44
  -1   7  10    4.42    2.17
   1   7 -10    4.91    2.44
   1   7 -10    3.61    1.71
  -1   7  10    4.91    3.10
  -1   7   9   10.03    2.89
   1   7  -9    7.92    2.77
   1   7  -9    9.56    2.34
  -1   7   9    5.95    2.99
  -1   7   8   11.63    3.56
   1   7  -8   13.10    4.39
   1   7  -8    6.46    2.13
  -1   7   8    8.63    3.40
  -1   7   7   96.65    8.53
   1   7  -7  103.68    9.23
   1   7  -7   97.11    8.22
  -1   7   7   94.86    8.18
  -1   7   6  114.08    9.68
   1   7  -6   87.23    7.90
   1   7  -6  102.14    8.65
  -1   7   6  101.99    8.72
   1   7  -5  294.19   19.53
   1  -7  -5  294.92   19.21
   1   7  -5  321.92   21.07
  -1   7   5  314.48   20.84
  -1   7   4  112.68    8.52
   1   7  -4  128.26    9.71
   1   7  -4  130.39    9.42
  -1   7   4  110.15    8.35
  -1   7   3   83.87    6.21
   1   7  -3   85.93    7.01
   1  -7  -3   53.21    4.40
  -1   7   3   90.46    7.10
   1   7  -3   88.53    6.92
  -1   7   2  170.19   11.63
   1   7  -2  138.90    9.40
   1  -7  -2  145.53   10.11
  -1   7   2  215.14   15.01
   1   7  -2  197.19   13.80
  -1   7   1  127.51    6.05
   1   7  -1  113.16    7.86
   1  -7  -1  111.63    8.01
  -1  -7   1  106.32   10.65
  -1   7   1  148.63    7.66
   1   7  -1  148.91    7.56
  -1   7   0  159.70    7.21
   1   7   0  165.16    7.75
   1  -7   0  169.53    8.12
  -1  -7   0  160.08    7.63
  -1   7   0  200.83    9.71
  -1   7  -1  295.63   12.74
   1   7   1  345.09   23.16
   1  -7   1  397.54   26.76
  -1  -7  -1  353.16   23.62
  -1   7  -1  451.12   30.38
   1   7   1  392.02   26.36
   1   7   2  303.23   20.49
  -1  -7  -2  298.78   20.01
   1  -7   2  327.00   22.22
   1   7   2  308.86   20.97
   1   7   3  198.30   13.71
   1  -7   3  194.50   14.00
  -1   7  -3  236.67   16.40
   1   7   3  219.99   15.25
   1  -7   4   62.05    8.85
  -1   7  -4   78.20   10.34
   1   7   4   71.57    9.65
   1   7   5   81.70    7.43
   1  -7   5  115.06    8.83
  -1   7  -5   88.69    6.65
   1   7   5   94.17    6.99
   1   7   6  103.45    8.88
   1  -7   6  106.30    9.30
  -1   7  -6  137.87   11.34
   1   7   6  136.04   11.31
   1   7   7   52.09    5.42
   1  -7   7   35.65    7.64
  -1   7  -7   59.43    7.91
   1   7   7   43.01    8.70
   1   7   8   37.46    4.68
   1  -7   8   40.59    4.46
  -1   7  -8   41.39    4.02
   1   7   8   59.16    6.08
   1   7   9   25.28    6.40
   1  -7   9   18.65    4.95
  -1   7  -9   33.30    5.05
   1   7   9   30.87    7.72
   1   7  10    8.83    2.86
   1  -7  10   17.62    3.97
  -1   7 -10    7.14    1.87
   1   7  10    9.71    2.92
   1   7  11    2.46    2.92
   1  -7  11    1.67    2.72
  -1   7 -11   -0.44    1.60
   1   7  11    3.22    1.93
  -1   8   9   23.62    4.54
  -1  -8   9   19.82    4.11
   1   8  -9   24.01    4.13
  -1   8   9   25.50    4.74
  -1   8   8   26.62    4.62
  -1  -8   8   16.38    3.79
   1   8  -8   12.65    2.53
  -1   8   8   21.93    3.82
  -1   8   7    8.21    2.51
  -1  -8   7   11.35    3.18
   1   8  -7    5.36    1.77
  -1   8   7    4.37    2.22
  -1   8   6   25.79    6.47
  -1  -8   6   29.04    7.55
   1   8  -6   22.09    5.88
  -1   8   6   26.73    6.70
  -1   8   5   12.82    3.65
  -1  -8   5   13.74    4.01
   1   8  -5   13.09    3.79
  -1   8   5   15.26    4.29
  -1   8   4   38.16    4.57
  -1  -8   4   20.26    3.45
   1   8  -4   37.64    5.14
  -1   8   4   37.59    4.96
  -1   8   3   10.95    2.24
   1  -8  -3    5.49    1.27
  -1  -8   3   11.52    2.36
   1   8  -3    9.16    2.22
  -1   8   3   15.26    3.31
   1  -8  -2    5.95    1.64
  -1  -8   2    1.78    2.35
  -1   8   2    5.30    2.63
   1   8  -2    4.97    2.75
   1  -8  -1    9.86    2.01
  -1  -8   1    8.29    2.55
  -1   8   1   11.31    2.85
   1   8  -1   13.47    3.04
   1  -8   0    2.89    1.99
  -1  -8   0    3.24    1.81
  -1   8   0    3.63    1.80
   1   8   1    2.93    1.46
   1  -8   1    5.63    1.72
  -1  -8  -1    4.81    1.63
  -1   8  -1    4.98    1.74
   1   8   1    2.56    1.68
   1   8   2    7.03    1.85
   1  -8   2    0.17    1.49
  -1  -8  -2    6.56    1.43
   1   8   2    9.17    2.60
   1   8   3    6.65    1.67
   1  -8   3   10.66    2.40
  -1   8  -3    3.83    2.80
   1   8   3   16.42    3.13
   1   8   4   32.96    4.56
   1  -8   4   31.49    7.97
  -1   8  -4   41.27    5.99
   1   8   4   39.44    5.60
   1   8   5    7.22    2.90
   1  -8   5    2.60    2.15
  -1   8  -5   11.89    3.77
   1   8   5    5.04    2.35
   1   8   6    2.53    1.74
   1  -8   6    7.69    2.95
  -1   8  -6    7.20    2.54
   1   8   6    3.02    2.54
   1   8   7    2.49    2.65
   1  -8   7    2.84    2.38
  -1   8  -7   -1.84    1.72
   1   8   7    8.62    2.95
   1   8   8   12.27    4.07
   1  -8   8    8.75    3.16
  -1   8  -8    9.33    2.77
   1   8   8    7.37    2.75
  -1  -9   1   15.16    3.07
  -1   9   1   11.44    2.97
   1   9  -1    7.03    2.25
   1  -9   0   18.39    3.38
  -1   9   0   53.22    8.71
   1   9   0   48.13    7.95
  -2   0  19   60.76    8.42
  -2   0  18   15.15    2.66
  -2   0  17    0.30    1.84
   2   0 -17    1.88    0.92
  -2   0  16    4.57    2.34
   2   0 -16    3.08    0.97
  -2   0  15   14.82    2.23
   2   0 -15   10.19    1.88
  -2   0  14   34.74    2.50
   2   0 -14   31.34    4.00
  -2   0  14   20.23    1.35
  -2   0  13   36.31    3.44
   2   0 -13   36.90    5.06
  -2   0  13   22.27    2.03
  -2   0  12  245.53    7.82
   2   0 -12  236.05   16.15
  -2   0  12  221.40   14.89
  -2   0  12  201.31   13.64
  -2   0  11  112.64    8.16
   2   0 -11  143.11   10.85
  -2   0  11  119.41    8.07
  -2   0  11  104.97    7.19
  -2   0  10 2290.54  153.26
   2   0 -10 2307.76  154.38
  -2   0  10 1869.45  124.92
  -2   0  10 1852.40  123.80
  -2   0   9 1450.42   11.18
  -2   0   8  183.29    5.87
   2   0  -8  180.05   10.74
  -2   0   8  170.31    9.94
  -2   0   8  126.99    7.44
  -2   0   7   22.19    1.74
   2   0  -7   25.67    1.80
   2   0  -7   20.36    1.62
  -2   0   7   24.72    1.84
   2   0  -6   87.47    5.29
   2   0  -6   85.15    5.22
  -2   0   6  104.27    6.35
  -2   0   5  365.98    9.14
   2   0  -5  350.25    8.68
   2   0  -5  341.91    8.53
  -2   0   5  395.08    9.82
  -2   0   4 7008.48  200.49
  -2   0   3 3568.89   27.41
  -2   0   3 3481.82   26.68
   2   0  -3 3494.70   26.29
  -2   0   2  336.98    8.38
   2   0  -2  319.10    7.89
  -2   0   2  328.94    8.12
  -2   0   2  351.28    8.83
   2   0  -2  340.51    8.47
  -2   0   1  785.58    6.65
   2   0  -1  851.74    7.06
   2   0  -1  850.97    7.50
   2   0   0 9999.00  285.91
  -2   0   0 8019.56  229.71
   2   0   1 6820.67  195.09
  -2   0  -1 6501.62  186.23
  -2   0  -2 2307.88   17.99
   2   0   2 2310.25   18.00
   2   0   2 2346.07   18.24
  -2   0  -2 2269.05   17.59
  -2   0  -2 2378.86   19.50
  -2   0  -4 4016.33   30.77
  -2   0  -5  447.06   11.15
   2   0   5  424.36   10.59
   2   0   5  424.84   10.58
  -2   0  -5  412.08   10.20
  -2   0  -6  685.90    6.57
   2   0   6  666.39   19.44
  -2   0  -6  725.13    7.75
  -2   0  -7 2471.06   20.12
   2   0   7 2352.61   18.85
   2   0   7 2387.24   19.27
  -2   0  -8  701.44   20.66
   2   0   8  603.45   17.68
   2   0   8  666.19   19.54
  -2   0  -9   55.78    5.25
   2   0   9   42.87    2.33
  -2   0 -10 1144.05   26.58
   2   0  10 1040.41   23.29
  -2   0 -11   80.30    7.53
   2   0  11   65.90    2.89
  -2   0 -12   76.01    8.34
   2   0  12   80.45    6.59
  -2   0 -13   75.06    8.65
   2   0  13   79.52    4.22
  -2   0 -14   61.82    7.54
   2   0  14   45.28    3.65
  -2   0 -15    2.61    1.28
   2   0  15    2.02    1.47
   2   0  16    2.17    1.33
   2   0  16   -0.87    1.52
   2   0  17   54.81    6.50
   2   0  17   33.13    4.36
   2   0  18    2.31    1.51
   2   0  18    0.53    1.57
  -2   1  19   70.44    9.71
  -2  -1  18  225.33   27.38
  -2   1  18  207.79   25.42
   2   1 -18  169.15   20.65
  -2  -1  17   97.85   12.18
  -2   1  17   92.92   11.78
   2   1 -17   74.55   12.81
  -2  -1  16  151.74   10.17
  -2   1  16  208.46   13.94
   2   1 -16  188.20   16.28
  -2  -1  15  246.87   11.01
  -2   1  15  297.56   13.35
   2  -1 -15  216.82   10.94
   2   1 -15  277.37   12.26
  -2  -1  14  334.07   14.01
  -2   1  14  369.42   15.68
   2  -1 -14  335.56   13.85
   2   1 -14  410.55   17.21
  -2   1  14  337.34   13.82
  -2  -1  14  275.04   11.31
  -2  -1  13  807.86   31.77
  -2   1  13  816.96   32.46
   2   1 -13  840.93   33.15
   2  -1 -13  729.95   28.57
  -2  -1  12  389.71   11.58
  -2   1  12  383.67   12.06
   2   1 -12  384.20   11.68
   2  -1 -12  384.92   11.31
  -2   1  12  386.23   11.11
  -2  -1  12  376.36   10.70
  -2   1  12  349.52   10.17
  -2   1  11  707.66   16.54
   2   1 -11  705.17   16.35
  -2   1  11  768.08   17.02
  -2   1  11  700.37   15.58
  -2  -1  10  364.95   11.04
  -2   1  10  430.97   13.19
   2   1 -10  416.90   12.90
   2  -1 -10  368.93   11.03
  -2   1  10  384.46   11.50
  -2   1  10  495.18   14.93
  -2  -1  10  357.92   10.42
  -2   1  10  417.29   12.24
  -2   1   9  860.78    9.90
  -2   1   9  782.98    7.23
  -2   1   9  760.50    6.50
  -2   1   9  772.70    6.57
   2   1  -8 1572.51   13.60
   2   1  -8 1576.85   12.40
   2   1  -7 1027.23    8.58
   2  -1  -7 1019.30    8.64
  -2   1   7  995.25    7.91
  -2  -1   7  940.28    7.37
  -2  -1   6  573.00   14.03
   2   1  -6  481.40   11.78
  -2   1   6  520.48   13.00
   2  -1  -6  508.30   12.47
  -2   1   6  541.69   13.27
   2   1  -6  520.81   12.53
  -2   1   6  489.04   11.83
  -2  -1   6  481.95   11.63
  -2   1   5  756.83    6.96
   2   1  -5  742.94    6.28
   2   1  -5  802.30    7.19
   2  -1  -5  793.14    6.76
  -2   1   5  777.12    6.67
   2   1  -5  791.25    6.22
  -2   1   5  787.21    6.31
   2  -1  -5  732.94    5.93
   2   1  -4  650.56   18.80
  -2   1   4  652.45   19.00
   2   1  -4  669.59   19.44
   2  -1  -4  776.45    6.58
  -2  -1   4  668.48   19.22
   2   1  -3  929.60    7.67
   2  -1  -3  869.37    7.30
   2   1  -3  864.46    7.39
  -2  -1   3  932.21    7.84
  -2   1   3  865.59    6.93
   2  -1  -3  897.79    7.15
   2   1  -3  926.09    7.38
  -2  -1   2  371.27    9.13
   2   1  -2  382.44    9.41
   2  -1  -2  344.82    8.51
   2   1  -2  389.88    9.62
  -2  -1   2  386.75    9.51
  -2   1   2  361.31    8.93
   2  -1  -2  356.01    8.67
   2   1  -2  333.65    8.17
  -2  -1   2  378.11    9.26
  -2  -1   1  446.48   10.93
  -2   1   1  432.21   10.66
   2  -1  -1  407.35    9.99
   2   1  -1  467.91   11.44
  -2   1   1  418.98   10.28
  -2   1   1  427.40   10.43
   2  -1  -1  408.59    9.95
   2   1  -1  442.74   10.86
  -2  -1   0 2346.95   18.26
  -2   1   0 2339.20   18.31
  -2  -1  -1 2308.14   18.07
  -2   1  -1 2248.93   17.47
   2  -1   1 2298.86   18.07
  -2  -1  -2  105.31    6.35
   2   1   2  104.23    6.26
  -2   1  -2  130.28    7.75
   2  -1   2  114.78    6.84
   2   1   2  121.39    7.20
  -2  -1  -2  113.85    6.74
   2  -1   2  118.11    7.14
  -2   1  -2  128.83    7.75
   2   1   3 1461.64   11.95
  -2   1  -3 1507.45   12.05
   2  -1   3 1412.30   11.28
   2  -1   3 1475.25   12.24
   2   1   3 1415.03   12.13
   2   1   4   21.37    1.62
  -2   1  -4   19.78    1.50
   2  -1   4   39.34    2.54
   2   1   4   23.06    1.58
   2  -1   4   37.33    2.68
  -2  -1  -4   36.86    2.35
  -2   1  -4   18.39    1.43
   2   1   4   24.69    1.91
   2  -1   4   36.97    3.72
  -2   1  -5  519.09   12.77
   2  -1   5  521.61   12.81
   2   1   5  517.48   12.65
  -2  -1  -5  547.27   13.33
   2  -1   5  549.45   13.71
  -2   1  -6  749.32    6.80
   2   1   6  789.58    6.80
   2  -1   6  670.95   19.74
  -2   1  -6  810.41    9.12
  -2  -1  -7  338.52    8.86
  -2   1  -7  314.10    8.02
   2  -1   7  309.43    7.88
   2   1   7  307.46    7.63
   2   1   7  315.80    7.95
   2  -1   7  326.55    8.70
  -2   1  -7  362.84   10.30
  -2  -1  -8 2036.94  136.34
  -2   1  -8 2099.91  140.46
   2   1   8 1711.69  114.44
   2   1   8 1916.55  128.14
   2  -1   8 2131.11  142.62
  -2   1  -8 2176.79  145.77
   2   1   8 2080.92  139.34
  -2  -1  -9  369.61   12.12
  -2   1  -9  432.78   13.04
   2   1   9  374.20   12.66
   2   1   9  428.27   12.65
   2  -1   9  361.24   11.26
  -2   1  -9  513.28   16.49
   2   1   9  464.70   14.35
  -2   1 -10   37.46    4.54
  -2  -1 -10   51.79    5.89
   2   1  10   22.92    2.07
   2   1  10   28.46    2.28
   2  -1  10   43.16    3.71
  -2   1 -10   48.84    5.56
   2   1  10   16.27    2.16
  -2   1 -11  446.83   14.78
   2   1  11  362.33   10.56
  -2   1 -11  485.92   14.65
   2   1  11  434.66   13.51
  -2   1 -12  317.14   18.49
  -2  -1 -12  362.92   15.64
   2   1  12  268.63   11.11
   2  -1  12  388.93   16.34
   2   1  12  329.01   14.54
  -2   1 -13  329.63   15.09
  -2  -1 -13  272.04   16.03
   2   1  13  279.00   12.20
   2  -1  13  276.44   12.47
   2   1  13  327.00   15.13
  -2  -1 -14  245.99   19.41
  -2   1 -14  245.88   16.68
   2  -1  14  245.60   16.73
   2   1  14  237.53   16.52
  -2  -1 -15  220.25   17.65
   2  -1  15  194.58   15.39
   2  -1  15  207.19   16.39
   2   1  15  220.41   17.74
   2  -1  16   83.85    6.87
   2  -1  16   93.05    7.58
   2   1  16   91.22    7.81
   2   1  17   54.81    6.72
   2   1  17   31.79    4.13
   2   1  18   96.55   14.64
   2   1  18  110.29   16.71
  -2   2  19    4.51    1.97
   2   2 -19   14.20    3.91
  -2   2  18    0.56    1.73
   2   2 -18    2.52    1.35
  -2   2  17   22.78    2.96
   2   2 -17   18.16    2.65
  -2   2  16   33.30    4.16
   2   2 -16   24.70    4.40
  -2  -2  15   14.90    1.91
  -2   2  15   14.57    2.66
   2   2 -15    8.13    2.18
  -2  -2  14   43.20    2.63
  -2   2  14   36.38    3.64
   2  -2 -14   31.86    2.98
   2   2 -14   28.42    5.11
  -2   2  14   32.76    2.24
  -2  -2  13    2.64    1.45
  -2   2  13    6.93    2.12
   2   2 -13    5.16    1.38
   2  -2 -13    5.54    0.70
   2   2 -13    6.16    0.84
  -2   2  13    4.74    0.92
  -2  -2  12  319.47    9.56
  -2   2  12  329.62   10.81
   2   2 -12  353.73   10.99
   2  -2 -12  279.90    8.90
   2   2 -12  289.08    8.59
  -2  -2  12  273.90    7.97
  -2   2  12  352.37   10.45
  -2  -2  11   10.48    1.30
  -2   2  11   18.58    2.69
   2   2 -11   20.39    3.16
   2  -2 -11    5.49    0.91
  -2   2  11    8.64    0.95
   2   2 -11   15.45    2.10
  -2  -2  11    8.85    0.90
  -2   2  11   12.64    1.38
  -2  -2  10  163.83    5.15
  -2  -2  10  184.50    5.80
  -2   2  10  145.87    5.51
   2   2 -10  139.00    7.10
   2  -2 -10  173.42    5.38
  -2   2  10  133.88    4.33
   2   2 -10  149.82    5.19
  -2  -2  10  168.51    5.14
  -2   2  10  159.53    5.17
  -2  -2   9   11.67    0.96
  -2   2   9   17.49    1.89
   2   2  -9   18.01    1.00
   2   2  -9   20.55    3.06
   2  -2  -9   10.94    0.86
  -2   2   9   17.69    1.03
   2   2  -9   18.64    2.43
  -2  -2   9   11.60    0.67
  -2   2   9   19.41    1.21
   2  -2  -9    8.37    0.64
  -2  -2   8  386.09    9.67
  -2   2   8  412.35   10.91
   2   2  -8  345.09    8.56
   2   2  -8  361.99    9.55
   2  -2  -8  349.44    8.74
  -2   2   8  343.86    8.57
   2   2  -8  389.35    9.60
  -2   2   8  351.11    8.79
  -2  -2   8  325.65    8.06
  -2  -2   7  472.34   11.65
  -2   2   7  482.59   12.55
   2   2  -7  410.03   10.06
   2   2  -7  489.50   12.44
   2  -2  -7  477.52   11.75
  -2   2   7  448.04   11.09
   2   2  -7  449.69   11.02
  -2   2   7  433.15   10.72
  -2  -2   7  431.84   10.60
   2  -2  -7  408.75   10.11
  -2  -2   6  713.67    6.20
   2   2  -6  664.06   19.17
  -2   2   6  673.20   19.87
   2  -2  -6  702.52    6.19
  -2   2   6  738.50    6.55
   2   2  -6  722.11    6.17
  -2   2   6  667.12   19.33
  -2  -2   6  660.69   19.10
   2  -2  -6  652.80   18.92
  -2  -2   5 2005.19   15.66
   2   2  -5 1910.84   14.91
  -2   2   5 1998.20   15.82
   2   2  -5 1946.56   15.25
  -2   2   5 1911.71   15.14
   2  -2  -5 2081.04   16.37
  -2  -2   5 2101.57   16.47
  -2  -2   4  322.31    7.96
   2   2  -4  248.60    6.24
   2   2  -4  254.85    6.75
  -2   2   4  246.64    6.28
  -2   2   4  243.68    6.22
   2   2  -4  247.09    6.22
   2  -2  -4  310.60    7.70
   2   2  -3  416.76   10.24
   2  -2  -3  468.56   11.53
   2   2  -3  408.27   10.25
   2  -2  -3  532.64   13.05
  -2   2   3  391.76    9.73
  -2   2   3  409.21   10.11
   2  -2  -3  488.62   11.93
   2   2  -3  401.71    9.92
  -2  -2   3  511.82   12.49
   2   2  -2 3563.64   27.29
  -2   2   2 3443.97   26.69
   2   2  -2 3551.25   27.59
  -2   2   2 3423.79   26.48
   2  -2  -2 3472.63   26.69
   2   2  -2 3514.20   27.06
  -2  -2   2 3507.63   26.96
   2   2  -1 3410.68   26.20
  -2   2   1 3369.49   26.02
  -2  -2   1 3381.90   26.08
  -2   2   1 3319.48   25.66
   2   2  -1 3316.87   25.65
   2   2   0 1653.16   13.17
  -2   2   0 1629.39   13.00
  -2  -2   0 1574.31   12.48
   2  -2   0 1664.57   13.59
  -2   2   0 1600.85   13.00
  -2   2   0 1621.46   13.09
   2  -2   1 1257.68   10.10
   2   2   1 1300.84   10.63
  -2  -2  -2 3214.08   25.37
  -2  -2  -2 3149.39   24.06
  -2   2  -2 3253.34   25.47
  -2  -2  -3 2036.52   16.60
   2  -2   3 2055.52   16.98
  -2  -2  -4 2812.50   22.64
   2  -2   4 2708.66   20.93
   2   2   4 2750.80   21.25
  -2  -2  -4 2729.65   20.84
   2   2   4 2772.93   22.79
  -2   2  -5 2473.19   19.27
  -2  -2  -5 2454.54   18.81
  -2  -2  -6  326.42    8.74
  -2   2  -6  301.36    7.58
   2  -2   6  299.09    7.49
   2   2   6  281.18    6.97
   2  -2   6  314.18    8.62
  -2  -2  -6  307.34    7.55
  -2   2  -6  308.93    8.99
   2   2   6  276.27    7.97
  -2   2  -7  359.13   10.64
   2  -2   7  377.30   11.12
   2   2   7  351.10   10.18
   2   2   7  340.35    9.94
   2  -2   7  381.51   11.92
  -2   2  -7  401.47   12.29
   2   2   7  362.90   11.58
  -2  -2  -8  743.50   22.10
  -2   2  -8  816.13   23.74
   2  -2   8  769.07   22.37
   2   2   8  653.96   18.83
   2   2   8  683.20   19.71
   2  -2   8  744.41   22.16
  -2   2  -8  884.80   26.21
   2   2   8  772.82   23.18
  -2   2  -9  453.97   10.47
  -2  -2  -9  424.23   10.86
   2  -2   9  351.27    8.23
   2   2   9  393.23    8.77
   2  -2   9  438.99   11.02
  -2   2  -9  472.08   11.97
   2   2   9  469.77   12.03
  -2   2 -10  174.85    7.98
  -2  -2 -10  237.47   14.60
   2   2  10  130.56    3.93
  -2   2 -10  153.57    9.07
   2   2  10  165.38    6.73
  -2  -2 -11  324.08   17.32
  -2   2 -11  231.00   11.90
   2   2  11  181.10   13.72
   2  -2  11  375.85   15.71
  -2   2 -11  251.86   12.46
   2   2  11  302.69   13.54
  -2   2 -12  136.95    9.72
  -2  -2 -12  125.46    9.32
   2  -2  12  161.02    7.91
  -2   2 -12  153.80   14.55
   2   2  12  174.06    8.86
  -2   2 -13   26.15    2.91
  -2  -2 -13   28.58    4.88
   2  -2  13   26.36    3.44
  -2   2 -13   38.51    5.63
   2   2  13   14.09    2.42
  -2  -2 -14   14.36    3.07
   2  -2  14   11.79    1.86
   2   2  14    6.14    3.64
  -2  -2 -15    8.40    2.30
   2  -2  15   10.50    3.10
   2   2  15   13.04    4.05
   2  -2  16   19.92    4.96
   2   2  16   20.82    5.56
   2   2  17   10.32    2.32
   2  -2  17    9.85    2.88
   2   2  17   15.11    3.52
  -2   3  18    7.08    2.49
   2   3 -18   14.98    3.21
  -2   3  17   92.52   11.82
   2   3 -17   92.25   11.69
  -2   3  16  392.12   38.97
   2   3 -16  383.07   29.68
  -2   3  15  155.24   12.69
   2   3 -15  120.32   16.90
  -2   3  14  114.47    8.57
   2   3 -14  115.57   14.02
   2   3 -14   76.11    7.89
  -2   3  14  125.96    8.84
  -2  -3  13  417.08   17.96
  -2   3  13  426.84   19.32
   2   3 -13  388.95   17.30
   2   3 -13  341.98   15.30
  -2   3  13  394.82   17.25
  -2  -3  12  246.08   10.16
  -2   3  12  190.43    8.91
   2   3 -12  164.85   11.55
   2  -3 -12  188.04    8.97
   2   3 -12  163.95    7.61
  -2   3  12  190.05    8.23
  -2  -3  11  127.70    6.13
  -2   3  11  153.16    5.99
   2   3 -11  159.61   11.44
   2  -3 -11  171.79    5.10
   2   3 -11  148.57    5.13
  -2   3  11  157.04    5.24
  -2  -3  10  420.83   10.74
  -2  -3  10  495.25   11.15
  -2   3  10  417.82   10.88
   2   3 -10  443.73   11.17
   2  -3 -10  423.98    9.54
   2   3 -10  443.08   10.18
  -2   3  10  429.12   10.17
  -2  -3   9  572.29   12.71
  -2   3   9  486.58   11.99
   2   3  -9  521.76   11.58
   2   3  -9  574.00   13.74
   2  -3  -9  516.05   11.54
  -2   3   9  494.53   11.10
   2   3  -9  589.89   13.30
  -2   3   9  567.53   13.07
  -2  -3   8  596.50   17.28
  -2   3   8  623.64   18.85
   2   3  -8  564.90   16.34
   2  -3  -8  618.62   17.99
  -2   3   8  551.50   16.09
  -2   3   8  609.48   18.01
  -2  -3   7  429.66   12.53
   2   3  -7  345.53   10.07
   2   3  -7  400.57   12.47
   2  -3  -7  429.53   12.60
  -2   3   7  362.82   10.71
   2   3  -7  380.50   11.30
  -2   3   7  361.70   10.88
   2   3  -6  722.25    6.05
   2   3  -6  795.68    8.52
   2  -3  -6  750.94    6.66
   2   3  -6  770.50    7.04
  -2   3   6  766.68    7.30
  -2  -3   5  663.89   19.22
   2   3  -5  538.87   13.14
  -2   3   5  483.81   12.33
   2   3  -5  556.88   14.21
   2  -3  -5  623.54   15.26
  -2   3   5  472.34   11.68
  -2   3   5  504.17   12.61
   2   3  -5  530.26   13.14
   2   3  -4    9.03    0.89
  -2   3   4   25.02    2.09
  -2   3   4    9.47    1.04
  -2   3   4   11.68    1.31
   2   3  -4   10.62    1.26
  -2  -3   3   50.09    3.16
   2   3  -3   36.20    2.38
  -2   3   3   35.42    2.63
   2   3  -3   47.48    6.17
   2  -3  -3   49.25    3.30
  -2   3   3   27.26    1.92
  -2   3   3   36.36    2.62
   2   3  -3   35.02    2.56
  -2  -3   2  264.66    6.78
   2   3  -2  267.02    6.73
  -2   3   2  251.75    6.66
   2   3  -2  284.67    8.04
   2  -3  -2  256.10    6.75
  -2   3   2  220.88    5.75
   2   3  -2  269.33    7.05
   2   3  -1  503.65   12.36
  -2   3   1  484.17   12.02
   2   3  -1  551.96   14.10
  -2  -3   1  431.74   10.69
   2  -3  -1  485.19   12.20
  -2   3   1  517.06   12.88
   2   3  -1  506.53   12.66
  -2  -3   0   42.06    4.99
   2   3   0   39.18    2.53
  -2   3   0   36.85    2.48
   2  -3   0   27.72    1.90
  -2  -3   0   33.20    2.22
   2  -3   0   33.98    2.58
  -2   3   0   45.63    3.09
  -2  -3  -1  214.53    6.04
  -2   3  -1  207.93    5.39
   2  -3   1  179.83   10.62
   2   3   1  235.92    6.34
  -2  -3  -1  208.67    5.36
  -2   3  -1  216.32    5.83
  -2  -3  -2   88.17    5.51
  -2   3  -2   83.90    5.11
   2  -3   2   79.92    4.81
   2   3   2   90.01    6.65
  -2  -3  -2   89.29    5.38
  -2   3  -2   78.06    4.98
   2   3   2   78.60    5.08
  -2  -3  -3  544.26   14.80
  -2   3  -3  558.04   13.62
   2  -3   3  473.83   11.56
   2   3   3  566.63   13.95
  -2  -3  -3  544.15   13.24
   2  -3   3  536.72   13.68
  -2   3  -3  554.75   13.88
   2   3   3  561.71   14.24
  -2  -3  -4   11.68    1.75
  -2   3  -4   12.09    1.02
   2  -3   4    8.96    0.84
   2   3   4   12.73    1.13
  -2  -3  -4    5.25    0.55
   2  -3   4    8.60    1.69
   2   3   4    5.93    1.30
  -2  -3  -5    7.43    1.61
  -2   3  -5    7.73    0.80
   2  -3   5    5.13    0.61
   2   3   5    9.30    1.02
  -2  -3  -5    4.31    0.50
   2  -3   5    4.61    1.85
  -2   3  -5    4.26    1.28
   2   3   5    5.31    2.23
  -2  -3  -6  392.72   12.98
  -2   3  -6  403.84   11.78
   2  -3   6  354.87   10.36
   2   3   6  388.45   11.41
  -2  -3  -6  353.85   10.23
   2  -3   6  397.41   12.49
  -2   3  -6  409.39   12.85
   2   3   6  413.87   12.99
  -2  -3  -7  178.81   11.79
  -2   3  -7  145.38    5.93
   2  -3   7  147.78    4.52
   2  -3   7  163.79    6.24
  -2   3  -7  165.22   10.26
   2   3   7  170.56    6.55
  -2   3  -8    1.13    0.52
  -2  -3  -8   17.28    2.76
   2  -3   8   18.10    2.76
  -2   3  -8    5.86    1.58
   2   3   8   10.69    3.96
  -2   3  -9  537.37   15.23
  -2  -3  -9  530.27   15.86
   2  -3   9  589.00   18.05
  -2   3  -9  599.16   17.62
   2   3   9  615.05   18.68
  -2   3 -10  402.06   15.83
   2  -3  10  412.31   17.33
  -2   3 -10  439.06   19.58
   2   3  10  466.65   19.51
  -2   3 -11  174.61    7.31
  -2  -3 -11  207.22   14.38
   2  -3  11  221.58   10.32
  -2   3 -11  194.90   14.04
   2   3  11  196.19    9.63
  -2  -3 -12  107.05   14.32
   2  -3  12  156.32    8.22
  -2   3 -12   70.41   10.15
   2   3  12   78.28    8.54
  -2  -3 -13  148.29   16.70
   2  -3  13  149.53   10.45
  -2   3 -13   86.15   11.42
   2   3  13   92.21    7.28
  -2  -3 -14  171.60   21.34
   2  -3  14  143.89   17.95
  -2   3 -14   99.79   16.79
   2   3  14  132.98   16.90
  -2  -3 -15  113.76   12.05
   2  -3  15  122.52   12.75
  -2   3 -15  111.47   16.62
   2   3  15  163.12   17.00
   2   3  16  310.16   33.72
   2  -3  16  307.24   33.25
  -2   3 -16  310.75   33.61
   2   3  16  367.56   48.44
   2   3  17   82.14   12.67
   2  -3  17   75.10   11.61
   2   3  17   59.04    9.43
  -2   4  17   26.51    4.41
   2   4 -17   33.15    5.50
  -2   4  16    2.30    2.19
   2   4 -16    3.88    2.52
  -2   4  15   50.15    5.06
   2   4 -15   48.78    7.85
  -2   4  14    3.69    2.06
   2   4 -14    5.32    1.27
   2   4 -14    2.93    1.04
  -2   4  14    5.55    2.13
  -2   4  13   19.12    3.47
   2   4 -13   14.67    2.72
   2   4 -13    8.12    1.65
  -2   4  13   12.81    2.16
  -2   4  12   91.41    9.56
   2   4 -12   76.73   12.90
   2   4 -12   62.29    9.51
  -2   4  12   96.37    9.58
  -2   4  11    3.29    2.55
   2   4 -11    8.06    1.65
   2   4 -11    8.49    1.43
  -2   4  11    5.13    1.02
  -2  -4  10   46.02    3.53
  -2   4  10   75.18    6.44
   2  -4 -10   48.98    3.84
   2   4 -10   88.26    7.01
  -2   4  10   87.26    7.09
  -2  -4   9  193.97    5.57
  -2  -4   9  210.68    6.00
   2   4  -9  254.98   10.11
   2  -4  -9  247.58    7.23
   2   4  -9  248.72    7.61
  -2   4   9  254.86    8.05
  -2  -4   8  286.49    6.46
  -2   4   8  296.14    8.17
   2   4  -8  271.87    6.05
   2   4  -8  305.01    8.33
   2  -4  -8  333.05    7.70
  -2   4   8  201.79   13.65
   2   4  -8  322.47    7.88
  -2   4   8  308.18    7.79
  -2  -4   7  248.96    7.16
   2   4  -7  256.68    5.76
  -2   4   7  271.62    7.61
   2   4  -7  312.65    9.78
   2  -4  -7  272.71    6.45
  -2   4   7  196.08   13.29
   2   4  -7  309.85    7.62
  -2   4   7  268.38    6.92
  -2  -4   6  550.54   16.07
   2   4  -6  534.27   15.47
  -2   4   6  485.57   14.82
   2   4  -6  572.42   17.72
   2  -4  -6  576.57   16.92
   2   4  -6  569.16   16.90
  -2   4   6  534.29   15.96
  -2   4   5  851.03   25.06
   2   4  -5 1003.58   30.38
  -2  -4   4  544.18   16.30
   2   4  -4  491.48   14.35
  -2   4   4  402.30   12.24
   2   4  -4  443.05   13.70
  -2   4   4  471.44   14.24
   2   4  -4  490.28   14.71
  -2  -4   3  227.13    7.12
   2   4  -3  273.80    8.17
  -2   4   3  240.50    7.60
   2   4  -3  270.00    8.84
   2  -4  -3  253.22    7.98
  -2   4   3  269.34    8.49
   2   4  -3  277.09    8.64
  -2  -4   2 1219.94   11.19
   2   4  -2 1181.60   10.01
  -2   4   2 1138.98   10.21
   2   4  -2 1214.90   11.58
  -2   4   2 1223.41   11.21
   2   4  -2 1218.27   10.97
  -2  -4   1 1248.85   11.92
  -2   4   1 1277.58   11.00
   2   4  -1 1310.60   12.22
   2  -4  -1 1402.30   12.60
  -2   4   1 1327.70   11.96
   2   4  -1 1362.66   12.15
  -2  -4   0  280.68    7.66
   2   4   0  376.77   10.83
   2  -4   0  303.19    8.20
  -2  -4  -1  383.88   11.97
  -2   4  -1  303.71    7.72
   2  -4   1  318.98    8.04
   2   4   1  304.48    8.15
   2  -4   1  388.41   10.22
  -2   4  -1  317.94    8.41
  -2  -4  -2 1218.01   35.52
  -2   4  -2  993.69   28.68
   2  -4   2 1004.95   29.00
   2   4   2 1049.70   30.81
  -2  -4  -2 1146.38   33.17
   2  -4   2 1244.19   36.37
  -2   4  -2  981.55   28.74
   2   4   2 1073.23   31.45
  -2  -4  -3  566.19   17.06
  -2   4  -3  619.03   17.97
   2   4   3  629.23   18.68
  -2  -4  -3  557.99   16.26
   2  -4   3  546.37   16.71
  -2   4  -3  630.03   18.77
   2   4   3  599.94   18.10
  -2  -4  -4  193.66    6.65
  -2  -4  -4  214.75    6.46
  -2  -4  -5 1232.09   27.94
  -2   4  -5 1019.10   22.22
  -2  -4  -5 1220.41   26.58
   2  -4   5 1145.28   26.07
  -2   4  -5 1077.96   24.30
   2   4   5 1091.95   24.93
  -2  -4  -6  333.40    8.96
  -2   4  -6  326.39    7.24
   2   4   6  314.20    6.95
  -2  -4  -6  324.89    7.21
   2  -4   6  319.67    8.78
  -2   4  -6  342.59    8.68
   2   4   6  374.56   10.16
  -2  -4  -7   66.28    7.25
  -2   4  -7   34.45    2.03
   2  -4   7   32.39    1.04
   2  -4   7   44.82    3.18
  -2   4  -7   44.56    5.83
   2   4   7   46.04    3.35
  -2  -4  -8  773.35   30.86
   2  -4   8  792.44   31.73
  -2   4  -8  792.00   31.89
   2   4   8  881.90   35.24
  -2  -4  -9  311.85   19.43
   2  -4   9  301.14   13.60
  -2   4  -9  346.72   15.47
   2   4   9  381.19   16.49
  -2  -4 -10   37.62    5.24
   2  -4  10   30.68    3.36
  -2   4 -10   29.98    4.57
   2   4  10   27.82    3.08
  -2  -4 -11   76.87   11.25
   2  -4  11   71.74    7.94
  -2   4 -11   69.83   10.67
   2   4  11   71.72    7.80
   2  -4  12  211.24   14.49
  -2   4 -12  144.57   14.10
   2   4  12  182.31   12.88
  -2  -4 -13   43.78    8.95
   2  -4  13   38.65    7.95
  -2   4 -13   29.15    7.16
   2   4  13   59.50    8.19
  -2  -4 -14    7.36    2.64
   2  -4  14    2.88    1.84
  -2   4 -14    4.43    1.85
   2   4  14    6.77    2.30
   2  -4  15   11.88    3.12
  -2   4 -15    5.04    1.61
   2   4  15   11.92    3.17
   2   4  16    3.64    1.85
   2  -4  16    7.54    3.22
  -2   4 -16    4.76    1.84
   2   4  16    7.07    2.62
  -2   5  16    8.52    2.88
   2   5 -16   12.25    3.60
  -2   5  15   97.49   11.36
   2   5 -15   83.98    9.75
  -2   5  14  224.94   22.80
   2   5 -14  174.81   22.98
  -2   5  14  251.64   25.11
  -2   5  13  131.85   16.64
   2   5 -13  116.70   20.36
   2   5 -13   81.24   13.91
   2   5 -12   45.98    8.53
   2   5 -12   64.74    8.42
  -2   5  12   60.44    8.07
  -2   5  11  224.94   15.72
   2   5 -11  219.36   22.10
   2   5 -11  240.05   16.17
  -2   5  11  231.28   15.82
  -2   5  10  388.39   17.34
   2   5 -10  384.77   18.86
   2   5 -10  395.89   17.02
  -2   5  10  392.82   17.19
  -2   5   9  208.62    9.91
   2   5  -9  208.05   12.41
   2  -5  -9  236.38    9.77
   2   5  -9  222.14    9.53
  -2   5   9  210.90    9.40
  -2   5   8  526.03   21.51
   2   5  -8  527.18   21.74
   2  -5  -8  450.11   17.67
   2   5  -8  523.09   20.86
  -2   5   8  507.42   20.37
  -2  -5   7   90.31    6.87
  -2   5   7  146.74   11.75
   2   5  -7  163.83   14.65
   2  -5  -7  125.40    9.70
   2   5  -7  171.03   13.27
  -2   5   7  156.86   12.44
  -2  -5   6   80.55    4.11
  -2   5   6   46.58    2.93
   2   5  -6   49.93    6.87
   2   5  -6   52.85    2.82
  -2   5   6   44.26    2.71
  -2  -5   5  125.81    5.83
   2   5  -5  155.14    4.70
  -2   5   5  130.07    4.93
   2   5  -5  137.97   15.04
   2  -5  -5  138.92    4.78
   2   5  -5  144.12    5.20
  -2   5   5  142.96    5.37
  -2  -5   4  573.98   13.59
   2   5  -4  698.36   15.51
  -2   5   4  639.11   14.99
   2   5  -4  689.29   16.56
   2  -5  -4  691.26   15.78
  -2   5   4  693.66   16.26
   2   5  -4  734.64   17.05
  -2  -5   3  110.88    8.70
   2   5  -3   89.18    6.16
  -2   5   3   79.35    5.92
   2   5  -3  124.42   12.29
   2  -5  -3  132.83    9.40
  -2   5   3   95.89    7.11
   2   5  -3  103.09    7.47
  -2  -5   2   46.14    5.05
  -2   5   2   18.95    1.92
   2   5  -2   28.58    4.35
   2  -5  -2   45.93    3.68
  -2   5   2   24.54    2.51
   2   5  -2   24.01    2.57
  -2  -5   1   72.77    7.55
  -2   5   1   88.98    6.37
   2   5  -1   99.06    9.61
   2  -5  -1   67.50    5.22
  -2   5   1   93.87    6.95
   2   5  -1   77.32    5.68
  -2  -5   0   83.70    9.51
  -2   5   0   80.92    5.79
   2   5   0  100.50    9.76
   2  -5   0   72.56    5.74
  -2   5   0   86.43    6.44
   2   5   0   76.43    5.68
  -2  -5  -1  186.96   13.41
  -2   5  -1  172.92   11.85
   2   5   1  197.99   14.99
   2  -5   1  180.55   12.60
  -2   5  -1  176.00   12.29
  -2   5  -2   18.87    2.09
  -2  -5  -2   44.84    5.65
  -2   5  -2   33.90    2.59
   2   5   2   54.03    5.06
   2  -5   2   46.72    4.52
  -2   5  -2   44.83    3.89
   2   5   2   37.72    3.23
  -2  -5  -3  269.97    7.81
  -2   5  -3  247.06    7.26
   2   5   3  244.48   10.72
   2  -5   3  246.23    8.46
  -2   5  -3  245.27    7.90
   2   5   3  216.80   15.04
  -2  -5  -4  195.17   13.46
   2   5   4  196.68    7.95
  -2  -5  -4  159.34    4.86
   2  -5   4  169.91    6.35
   2   5   4  217.77    7.63
  -2  -5  -5   26.41    3.66
  -2   5  -5   23.86    0.91
  -2  -5  -5   14.23    0.77
   2  -5   5   17.36    2.48
  -2   5  -5   22.64    1.96
   2   5   5   31.96    3.10
  -2  -5  -6   61.27    7.95
  -2  -5  -6   43.67    3.41
   2  -5   6   60.31    5.52
  -2   5  -6   34.38    3.78
   2   5   6   31.85    3.61
  -2  -5  -7   42.36    5.13
   2  -5   7   41.16    4.19
  -2   5  -7   71.10    4.37
   2   5   7   68.64    4.69
  -2  -5  -8  242.21   17.61
   2  -5   8  223.99   11.00
  -2   5  -8  248.28   15.45
   2   5   8  291.42   13.78
  -2  -5  -9   80.42   11.49
   2  -5   9   70.36    7.85
  -2   5  -9   51.51    7.51
   2   5   9   54.92    6.27
  -2  -5 -10   82.83    9.50
   2  -5  10   88.98    7.32
  -2   5 -10   67.33   11.10
   2   5  10   55.35    7.84
  -2  -5 -11  125.86   16.61
   2  -5  11  143.20   12.17
  -2   5 -11  124.71   16.48
   2   5  11  159.11   13.38
  -2  -5 -12   30.68    3.54
   2  -5  12   41.20    4.55
  -2   5 -12   36.22    5.78
   2   5  12   59.68    6.27
  -2  -5 -13   62.84    8.43
   2  -5  13   53.18    7.45
  -2   5 -13   43.75    7.65
   2   5  13   56.85    8.12
   2   5  14   80.01   11.39
   2  -5  14   66.13    9.58
  -2   5 -14   42.21    8.24
   2   5  14  111.12   15.48
   2   6 -14   12.48    3.18
  -2   6  14   17.85    3.05
  -2   6  13   20.15    5.38
   2   6 -13   35.31    4.55
  -2   6  13   29.76    7.28
  -2   6  12   57.52    6.83
   2   6 -12   63.74    7.17
   2   6 -12   54.44    5.87
  -2   6  12   65.12    7.21
  -2   6  11    5.42    2.40
   2   6 -11    3.31    2.22
   2   6 -11    2.61    1.82
  -2   6  11    0.87    1.78
  -2   6  10  202.42   16.61
   2   6 -10  199.59   19.55
   2   6 -10  212.47   16.90
  -2   6  10  237.38   18.83
  -2   6   9   94.78    7.22
   2   6  -9   96.40   12.63
  -2   6   9  122.05    8.81
  -2   6   8   12.63    3.54
   2   6  -8   12.28    2.88
   2   6  -8   16.36    2.26
  -2   6   8   10.80    1.96
  -2   6   7  303.01   13.81
   2   6  -7  334.32   22.00
   2  -6  -7  326.42   13.98
   2   6  -7  333.53   14.66
  -2   6   7  351.31   15.67
  -2   6   6  103.62    5.91
   2   6  -6  111.54   12.26
   2  -6  -6  146.78    6.89
   2   6  -6  128.61    6.74
  -2   6   6  112.37    6.07
  -2  -6   5   83.72    3.70
  -2   6   5  130.17    6.22
   2   6  -5  138.17   16.68
   2  -6  -5   89.21    4.61
   2   6  -5  154.26    7.21
  -2  -6   4  510.04   20.87
  -2   6   4  586.00   24.12
   2   6  -4  601.45   25.11
   2  -6  -4  569.36   23.31
   2   6  -4  705.44   28.93
  -2   6   4  683.39   28.12
  -2  -6   3  672.41   27.18
  -2   6   3  761.37   31.05
   2   6  -3  778.99   32.06
   2  -6  -3  801.14   32.54
  -2   6   3  879.64   35.95
   2   6  -3  870.93   35.47
  -2  -6   2   44.80    5.23
  -2   6   2   43.00    3.88
   2   6  -2   49.78    5.57
   2  -6  -2   54.68    4.92
  -2   6   2   49.37    5.00
   2   6  -2   68.89    6.15
  -2  -6   1  225.30    9.88
  -2   6   1  179.89   13.91
   2   6  -1  177.72   18.11
   2  -6  -1  265.18   11.12
  -2   6   1  198.52    8.86
   2   6  -1  167.63   13.21
  -2  -6   0  385.84   15.59
  -2   6   0  429.53   17.02
   2   6   0  434.37   18.18
   2  -6   0  485.48   19.56
  -2   6   0  457.08   18.64
   2   6   0  437.56   17.75
  -2  -6  -1   10.03    1.71
   2   6   1   50.68    4.68
   2  -6   1   10.18    2.06
  -2   6  -1   44.91    3.48
  -2  -6  -2   68.03    7.34
  -2   6  -2   74.68    3.47
   2   6   2   66.78    3.56
   2  -6   2   59.63    3.76
  -2   6  -2   65.49    3.89
   2   6   2   62.38    3.70
  -2  -6  -3  337.82   14.94
  -2   6  -3  361.47   14.67
   2   6   3  399.75   16.38
   2  -6   3  371.16   16.03
  -2   6  -3  420.72   17.74
   2   6   3  337.14   14.56
  -2  -6  -4  288.67   20.48
   2  -6   4  277.34   13.13
   2   6   4  336.71   15.40
  -2  -6  -5  108.28   12.94
   2  -6   5  110.15    6.53
  -2   6  -5  120.55    6.23
   2   6   5  124.13    6.87
  -2  -6  -6   66.99    9.49
   2  -6   6   58.96    6.58
  -2   6  -6   41.46    5.05
   2   6   6   54.74    6.59
  -2  -6  -7  179.69   20.81
  -2   6  -7  174.47   12.29
   2   6   7  187.71   13.50
  -2  -6  -8   56.52    9.58
   2  -6   8   33.00    5.08
  -2   6  -8   41.19    5.69
   2   6   8   45.93    6.67
  -2  -6  -9   24.12    5.47
   2  -6   9   16.85    4.89
  -2   6  -9   22.97    5.05
   2   6   9   24.34    5.58
  -2  -6 -10  211.52   16.97
  -2   6 -10  154.93   17.07
   2   6  10  249.98   19.88
  -2  -6 -11   34.68    5.14
   2  -6  11   46.60    6.84
  -2   6 -11   32.81    5.98
   2   6  11   32.94    5.09
   2   6  12    4.55    1.89
   2  -6  12    7.12    3.50
  -2   6 -12    3.48    1.37
   2   6  12    7.19    2.82
   2   6  13   26.85    4.67
   2  -6  13   30.84    5.77
  -2   6 -13   18.35    5.39
   2   6  13   33.98    5.82
  -2   7  12   67.77   10.51
   2   7 -12   89.48   13.31
   2   7 -12   71.61   10.47
  -2   7  12   91.48   13.37
  -2   7  11   68.38    8.26
   2   7 -11   90.58   10.79
   2   7 -11   74.77    8.61
  -2   7  11   78.60    9.23
  -2   7  10   22.87    6.27
   2   7 -10   22.82    5.93
   2   7 -10   21.66    5.53
  -2   7  10   21.36    5.52
  -2   7   9   56.69    6.78
   2   7  -9   67.75    7.75
   2   7  -9   66.46    7.23
  -2   7   9   56.08    6.36
  -2   7   8   65.76    6.22
   2   7  -8   65.76    6.35
   2   7  -8   91.63    7.97
  -2   7   8   80.25    7.11
  -2   7   7   63.54    8.33
   2   7  -7   87.55   11.73
   2   7  -7   80.11   10.30
  -2   7   7   78.64   10.35
  -2   7   6   42.04    4.32
   2   7  -6   51.58    4.96
   2   7  -6   53.86    5.14
  -2   7   6   49.02    4.67
   2   7  -5   34.23    5.24
   2  -7  -5   26.44    3.87
   2   7  -5   38.20    5.48
  -2   7   5   52.92    7.38
  -2   7   4   97.71    6.90
   2   7  -4  111.32    8.25
   2  -7  -4  113.75    7.80
  -2   7   4  125.15    8.88
   2   7  -4  113.13    8.05
  -2   7   3   16.00    2.57
   2   7  -3   25.43    4.09
   2  -7  -3   10.81    2.45
  -2   7   3   19.28    3.55
   2   7  -3   14.86    2.49
  -2   7   2    4.46    1.70
   2   7  -2   10.85    2.62
   2  -7  -2    2.28    1.43
  -2   7   2    5.20    2.26
   2   7  -2    2.64    1.94
  -2  -7   1    7.17    1.28
  -2   7   1    1.73    1.11
   2   7  -1    7.48    2.18
   2  -7  -1    5.53    1.34
  -2   7   1    6.64    2.39
   2   7  -1    7.85    2.70
  -2  -7   0    6.57    1.93
  -2   7   0    6.03    1.62
   2   7   0   12.09    2.47
   2  -7   0    7.76    2.40
  -2   7   0   12.72    2.88
   2   7   0    3.32    1.80
  -2  -7  -1    0.02    1.48
  -2   7  -1    7.31    1.43
   2   7   1   10.91    2.33
   2  -7   1    4.31    1.72
  -2   7  -1    6.91    1.93
  -2  -7  -2   15.95    2.86
   2  -7   2   21.04    3.44
  -2   7  -2   30.66    4.62
  -2  -7  -3   12.62    2.44
   2  -7   3   22.35    4.05
  -2  -7  -3   19.12    2.79
  -2   7  -3   25.66    4.16
   2   7   3   38.79    5.62
  -2  -7  -4   11.29    2.54
   2  -7   4   18.49    3.07
  -2   7  -4   18.70    2.80
   2   7   4    6.68    2.15
  -2  -7  -5   41.40    4.55
   2  -7   5   35.68    4.86
  -2   7  -5   23.93    3.02
   2   7   5   19.40    3.13
  -2  -7  -6   11.61    3.06
   2  -7   6    3.37    2.17
  -2   7  -6   11.16    2.78
   2   7   6   10.38    3.04
   2  -7   7    6.75    2.48
   2   7   7   23.54    3.67
   2  -7   8    8.78    3.16
  -2   7  -8   11.03    3.06
   2   7   8   17.83    4.91
   2   7   9    5.29    2.63
  -2   7  -9    2.00    1.11
   2   7   9   12.10    3.81
   2   7  10    6.97    2.23
   2  -7  10    1.63    2.59
  -2   7 -10   -0.44    1.11
   2   7  10    7.48    2.82
   2   8  -9    0.49    2.30
   2   8  -9    2.80    1.50
  -2   8   9    2.74    2.20
  -2   8   8   10.35    3.46
   2   8  -8   12.92    3.74
  -2   8   8    9.66    2.87
  -2   8   7   19.77    4.04
   2   8  -7    8.36    2.61
   2   8  -7   27.75    4.74
  -2   8   7   21.95    4.02
  -2   8   6   28.51    4.00
   2   8  -6   34.62    5.08
  -2   8   6   18.79    3.00
   2   8  -6   24.11    3.32
   2   8  -5   74.04   10.01
  -2   8   5   71.45    9.34
   2   8  -5   82.03   10.79
  -2   8   4   64.11    8.16
   2   8  -4   68.48    8.99
   2   8  -4   68.19    8.87
  -2   8   3   29.31    3.70
   2   8  -3   35.63    4.48
   2  -8  -3   40.33    4.76
  -2   8   3   30.90    4.12
   2   8  -3   41.40    4.97
   2   8  -2  107.50   11.29
   2  -8  -2   57.57    6.29
  -2   8   2  100.88   10.77
   2  -8  -1   71.23    7.69
  -2   8   1  123.33   13.12
   2   8  -1  100.12   10.68
   2  -8   0   40.38    4.90
  -2  -8   0   42.54    4.92
  -2   8   0   33.38    4.94
   2   8   0   17.67    3.12
   2   8   1   22.11    3.18
   2  -8   1   34.04    4.19
  -2  -8  -1   19.31    2.59
  -2   8  -1   13.27    2.36
   2   8   1   23.37    3.20
   2   8   2   31.82    3.88
   2  -8   2   28.19    4.04
  -2   8  -2   45.47    5.55
   2   8   2   27.09    3.88
   2   8   3   74.41    9.62
   2  -8   3   84.23   10.89
  -2   8  -3  102.46   13.20
   2   8   3   76.92    9.89
   2   8   4   92.28   11.82
   2  -8   4  112.73   14.62
  -2   8  -4  125.36   15.93
   2   8   4  120.29   15.24
   2   8   5   67.07    8.10
   2  -8   5   37.99    5.13
  -2   8  -5   83.33    9.94
   2   8   5   77.31    9.13
   2   8   6   26.32    4.67
   2  -8   6   16.60    3.23
  -2   8  -6   34.02    5.68
   2   8   6   43.73    6.80
   2   8   7    4.05    2.07
   2  -8   7    9.46    2.92
  -2   8  -7    7.49    2.51
   2   8   7    7.55    2.79
  -3   0  19   69.82    9.59
  -3   0  18    1.70    1.60
   3   0 -18    2.95    1.20
  -3   0  17  150.84   18.65
   3   0 -17  129.28   20.09
  -3   0  16 1192.28   91.55
   3   0 -16 1034.95   79.42
  -3   0  15  341.63   15.17
   3   0 -15  305.80   13.74
  -3   0  14   14.84    2.16
   3   0 -14   28.98    3.48
  -3   0  13  139.54   11.06
   3   0 -13  146.04   12.44
  -3   0  12  170.11    5.91
   3   0 -12  189.93    7.75
  -3   0  11  127.11    8.97
   3   0 -11  150.00   10.46
  -3   0  10 2670.27  178.64
   3   0 -10 2446.87  163.69
  -3   0   9 2296.76  153.65
   3   0  -9 2103.77  140.74
  -3   0   8  254.33    6.88
   3   0  -8  234.23    6.35
  -3   0   7  523.85   13.18
   3   0  -7  528.86   13.20
   3   0  -6 1384.13   11.70
  -3   0   5   64.28    4.12
   3   0  -5   57.26    3.38
   3   0  -5   49.57    2.96
  -3   0   4   34.97    2.47
   3   0  -4   39.58    2.69
  -3   0   4   29.37    2.03
   3   0  -4   31.06    2.10
  -3   0   3 2668.36   21.06
   3   0  -3 2775.63   21.75
   3   0  -3 2598.15   20.13
  -3   0   2  672.15   19.55
  -3   0   2  608.83   14.86
  -3   0   2  739.17    6.82
   3   0  -2  702.04    6.11
   3   0  -1   91.28    5.55
   3   0  -1  100.99    6.11
  -3   0   1   95.91    6.04
   3   0  -1   92.44    5.95
   3   0   0 1027.15    8.68
  -3   0   0  961.24    8.02
   3   0   1  124.37    7.44
   3   0   1  142.06    8.53
  -3   0  -1  117.66    7.02
  -3   0  -1  133.78    8.76
   3   0   2  105.93    6.40
  -3   0  -2  103.06    6.19
  -3   0  -2  120.64    7.59
  -3   0  -3  534.22   13.27
   3   0   3  524.12   12.97
  -3   0  -3  458.08   11.28
  -3   0  -3  580.74   14.81
  -3   0  -4  232.40    6.21
   3   0   4  227.26    6.06
  -3   0  -4  206.89    5.43
  -3   0  -5   66.59    4.34
   3   0   5   67.05    4.28
  -3   0  -5   67.86    4.73
  -3   0  -6 2192.79   18.20
   3   0   6 2035.91   16.84
  -3   0  -7  210.28    8.58
   3   0   7  204.38    6.56
  -3   0  -8  248.46    8.90
   3   0   8  212.22    6.92
  -3   0  -9   11.62    2.13
   3   0   9   15.87    2.12
  -3   0 -10  207.09    9.80
   3   0  10  192.42    6.30
  -3   0 -11   45.58    5.69
   3   0  11   27.31    2.74
  -3   0 -12  121.36    9.02
   3   0  12  117.81    5.82
  -3   0 -13  528.65   66.86
   3   0  13  521.74   34.62
  -3   0 -14   64.77    7.77
   3   0  14   74.06    6.20
  -3   0 -15  112.63   14.51
   3   0  15  140.16   11.47
   3   0  16  166.49   20.57
   3   0  17   46.54    7.10
  -3   1  19   12.42    3.40
   3   1 -19    8.11    2.49
  -3  -1  18   11.97    3.43
  -3   1  18    4.14    1.84
   3   1 -18    3.49    1.84
  -3  -1  17   28.36    3.17
  -3   1  17   14.45    2.35
   3   1 -17    9.11    1.91
  -3  -1  16    6.61    2.32
  -3   1  16    6.62    2.70
   3   1 -16    2.08    1.19
   3  -1 -16    6.38    1.37
  -3  -1  15  194.09    9.02
  -3   1  15  222.83   10.49
   3  -1 -15  175.13   11.45
   3   1 -15  205.40   12.45
  -3  -1  14   35.70    2.69
  -3   1  14   23.94    2.54
   3   1 -14   30.58    3.99
   3  -1 -14   38.09    4.01
  -3  -1  13    6.86    1.23
  -3   1  13    9.96    1.82
   3   1 -13   12.48    1.97
   3  -1 -13   15.81    2.35
  -3   1  13    7.05    0.63
  -3  -1  12  425.51   12.73
  -3   1  12  394.26   12.32
   3   1 -12  380.83   12.05
   3  -1 -12  417.48   12.34
  -3   1  12  333.62    9.32
  -3   1  12  332.18    9.29
  -3  -1  11   64.49    4.84
  -3   1  11   78.40    6.01
   3   1 -11  100.91   11.32
   3  -1 -11   60.98    4.54
  -3   1  11   76.97    5.27
  -3   1  11   74.73    5.04
  -3  -1  10   83.41    3.23
  -3   1  10  127.28    4.77
   3   1 -10  135.32    5.29
  -3   1  10  125.56    3.92
  -3   1  10  111.90    3.30
  -3  -1   9  389.27   11.78
  -3   1   9  317.80    9.99
   3   1  -9  344.11   10.61
   3  -1  -9  417.93   12.51
  -3   1   9  329.76    9.55
  -3   1   9  306.25    8.84
  -3  -1   8  603.13   15.03
  -3   1   8  493.51   12.61
   3   1  -8  494.18   12.50
   3  -1  -8  613.81   15.25
  -3   1   8  457.35   11.02
   3   1  -7  849.15    8.04
  -3   1   7  799.69    6.35
   3   1  -7  811.88    6.23
  -3  -1   6  664.69   19.41
  -3   1   6  574.78   14.41
   3   1  -6  504.16   12.40
   3   1  -6  567.98   14.13
   3  -1  -6  670.86   19.58
  -3   1   6  571.01   13.79
   3   1  -6  567.92   13.66
   3  -1  -6  578.07   13.95
  -3  -1   5  464.10   11.57
  -3   1   5  489.31   12.30
   3   1  -5  428.02   10.59
   3  -1  -5  442.57   11.01
  -3   1   5  466.08   11.54
  -3   1   5  458.72   11.20
   3  -1  -5  389.83    9.47
   3   1  -5  479.17   11.61
  -3  -1   4  910.89    7.98
   3   1  -4  933.30    8.11
  -3   1   4  877.09    8.08
   3  -1  -4  914.93    7.99
  -3   1   4  911.04    7.88
   3  -1  -4  866.69    7.02
   3   1  -3 1985.01   15.83
   3   1  -3 1891.43   14.78
   3  -1  -2 2946.52   22.91
   3  -1  -2 3093.00   23.74
   3   1  -2 3254.23   25.11
  -3  -1   1 1445.64   11.90
   3   1  -1 1343.20   11.06
   3  -1  -1 1361.50   10.99
  -3  -1   0 3372.33   25.98
   3  -1   0 3331.80   26.01
   3  -1   0 3358.11   26.03
  -3  -1  -1  631.56   15.55
  -3   1  -1  709.55    6.55
   3   1   1  732.97    6.59
   3  -1   1  647.99   18.97
  -3   1  -1  740.56    7.13
  -3   1  -3 1660.87   13.64
   3  -1   3 1605.81   13.52
  -3   1  -3 1667.59   14.56
  -3   1  -4   41.67    2.86
   3  -1   4   31.46    2.16
   3   1   4   45.41    2.97
  -3  -1  -4   35.58    2.39
   3  -1   4   39.02    2.81
  -3   1  -4   56.99    6.76
  -3  -1  -5 1111.83   10.17
  -3   1  -5  998.60    8.98
   3   1   5 1036.16    9.03
   3  -1   5 1027.16    9.65
  -3  -1  -5 1108.00    9.31
  -3   1  -6 1505.25   12.85
   3  -1   6 1340.88   12.14
  -3  -1  -8  357.52    8.87
  -3   1  -8  404.30   12.87
   3   1   8  360.48    8.44
   3  -1   8  387.30    9.62
  -3   1  -8  416.37   13.80
  -3  -1  -9  606.47   16.09
  -3   1  -9  564.26   13.10
   3   1   9  504.06   11.57
   3  -1   9  621.51   14.68
  -3   1  -9  639.01   15.94
   3   1   9  497.54   12.64
  -3  -1 -10  337.63   11.79
  -3   1 -10  427.44   13.98
   3   1  10  346.39   10.19
   3  -1  10  325.25   10.15
  -3   1 -10  467.46   14.35
   3   1  10  426.08   13.61
  -3   1 -11  117.29    9.77
  -3  -1 -11   81.01    8.43
   3   1  11   91.99    4.23
   3  -1  11   93.76    5.06
  -3   1 -11  124.27    6.34
   3   1  11   98.27    5.69
  -3  -1 -12  381.46   21.95
  -3   1 -12  329.90   17.73
   3   1  12  246.31   10.92
   3  -1  12  360.38   16.01
   3   1  12  351.17   16.34
  -3  -1 -13  114.71   12.97
  -3   1 -13  115.95   10.34
   3  -1  13  132.24    9.46
   3   1  13  132.10    9.98
  -3  -1 -14   23.50    4.27
  -3   1 -14   36.90    5.12
   3  -1  14   20.82    2.42
   3   1  14   39.77    4.28
  -3   1 -15   38.22    5.96
  -3  -1 -15   49.22    6.69
   3  -1  15   58.02    5.13
   3   1  15   35.47    4.22
  -3  -1 -16    5.46    1.34
  -3   1 -16    8.59    1.82
   3   1  16   10.30    3.19
   3   1  17   13.81    3.84
  -3   2  19   22.39    4.31
   3   2 -19   11.31    2.82
  -3   2  18  122.58   13.80
   3   2 -18   92.88   15.21
  -3   2  17  100.07   10.60
   3   2 -17   80.92   13.11
  -3  -2  16   94.23    7.72
  -3   2  16   67.31    6.22
   3   2 -16   58.79    8.44
  -3  -2  15  415.91   26.72
  -3   2  15  376.47   24.64
   3   2 -15  383.18   24.86
  -3  -2  14  245.38   10.86
  -3   2  14  213.76   10.18
   3   2 -14  223.29   13.26
   3  -2 -14  213.56   11.31
  -3  -2  13  452.50   18.60
  -3   2  13  379.47   16.23
   3   2 -13  342.42   14.85
   3  -2 -13  415.38   17.80
  -3   2  13  340.43   13.81
  -3  -2  12  223.65    9.26
  -3   2  12  217.73    9.71
   3   2 -12  212.90   11.59
   3  -2 -12  190.19    8.05
   3   2 -12  199.66    8.38
  -3  -2  11  558.00   16.12
  -3   2  11  659.23   19.68
   3   2 -11  656.91   19.26
   3  -2 -11  522.70   15.04
   3   2 -11  553.91   15.60
  -3  -2  11  477.83   13.49
  -3   2  10  829.86   19.44
   3   2 -10  772.16   17.89
   3  -2 -10  854.85   19.08
   3   2 -10  665.93   14.83
  -3   2  10  766.46   16.95
  -3  -2  10  742.42   16.37
  -3  -2   9  461.70   13.79
  -3   2   9  396.33   12.41
   3   2  -9  396.35   13.21
   3   2  -9  372.48   10.85
  -3   2   9  363.94   10.71
  -3  -2   9  356.45   10.46
   3  -2  -9  351.49   10.34
  -3  -2   8 1157.39   33.51
  -3   2   8 1120.83   32.78
   3   2  -8 1189.93   34.71
   3  -2  -8 1153.07   33.39
   3   2  -8 1097.20   31.56
  -3   2   8 1078.99   31.09
   3  -2  -8  992.47   28.62
  -3  -2   7 1022.28    8.99
   3   2  -7  991.31    8.41
   3  -2  -7 1054.32    9.32
  -3   2   7 1077.55    8.97
   3  -2  -7 1017.63    8.54
   3  -2  -6  269.52    7.00
  -3  -2   5  222.57    5.80
   3   2  -5  256.63    6.59
  -3   2   5  265.97    7.20
   3   2  -5  278.28    7.43
   3  -2  -5  211.95    5.59
  -3   2   5  256.33    6.48
   3   2  -5  280.15    7.05
  -3  -2   5  201.47    5.23
   3   2  -4 1209.53   10.14
   3   2  -4 1188.61   10.46
   3  -2  -4 1197.07    9.80
   3   2  -4 1290.83   10.60
  -3  -2   4 1285.54   10.56
  -3  -2   3  827.75    7.38
   3   2  -3  830.84    7.35
   3  -2  -3  830.54    7.58
   3   2  -3  823.21    7.19
  -3  -2   3  775.99    6.82
  -3  -2   2   50.98    3.31
   3   2  -2   22.45    1.60
  -3   2   2   23.17    1.92
   3   2  -2   26.31    1.94
   3  -2  -2   45.17    3.13
  -3   2   2   22.56    1.66
   3  -2  -2   46.06    2.90
   3   2  -2   27.07    1.96
  -3  -2   2   45.37    2.89
  -3   2   1  115.47    7.06
   3  -2  -1  103.29    6.23
   3   2  -1  122.61    7.42
  -3  -2   1  109.92    6.58
  -3   2   1  108.68    6.58
   3  -2  -1  104.11    6.25
   3   2  -1  112.72    6.89
  -3  -2   1  110.22    6.64
  -3  -2   0  439.67   11.02
  -3   2   0  503.79   12.54
  -3  -2   0  398.74    9.84
  -3   2   0  508.41   12.68
   3   2   0  536.70   13.36
  -3   2  -1  773.52    7.05
   3  -2   1  738.68    6.52
  -3  -2  -1  790.10    6.80
  -3   2  -1  786.35    7.34
  -3  -2  -2  317.81    8.27
  -3   2  -2  338.81    8.61
   3  -2   2  281.79    7.16
   3   2   2  374.88    9.45
  -3  -2  -2  315.18    7.87
   3  -2   2  333.71    8.77
  -3   2  -2  323.84    8.57
  -3  -2  -3    4.07    1.45
  -3   2  -3    3.66    1.40
   3  -2   3    5.32    1.24
   3   2   3    2.91    1.34
  -3  -2  -3    1.85    0.80
   3  -2   3    6.15    3.23
  -3   2  -3    7.38    1.34
   3   2   3    1.77    1.98
  -3  -2  -4  179.01   11.08
  -3   2  -4  190.35    5.97
   3  -2   4  168.11   10.00
   3   2   4  190.86    5.91
  -3  -2  -4  169.97   10.06
   3  -2   4  182.21    6.28
  -3   2  -4  195.34   11.58
   3   2   4  165.47   10.31
  -3  -2  -5    4.18    1.76
  -3   2  -5    8.14    1.70
   3  -2   5    1.66    0.50
   3   2   5    6.38    0.97
  -3  -2  -5    6.08    1.26
   3  -2   5    4.94    1.75
  -3   2  -5    7.61    1.57
   3   2   5    4.81    1.42
  -3  -2  -6   12.50    1.72
   3   2   6   17.76    1.13
   3  -2   6    7.93    1.49
  -3   2  -6   23.02    2.95
   3   2   6   24.35    2.51
  -3   2  -7  131.34    4.40
   3   2   7  121.01    3.97
   3  -2   7  156.11    5.81
  -3  -2  -7  143.68    4.50
  -3   2  -7  144.72   10.17
   3   2   7  112.54    5.12
  -3  -2  -8  438.68   10.82
  -3   2  -8  510.96   11.73
   3   2   8  464.05   10.56
   3  -2   8  449.39   11.30
  -3   2  -8  473.73   13.36
   3   2   8  486.30   12.55
  -3  -2  -9  172.97   10.60
  -3   2  -9  180.84    7.51
   3   2   9  150.36    4.72
   3  -2   9  173.76    6.62
  -3   2  -9  188.77   12.50
   3   2   9  159.45    6.84
  -3  -2 -10  223.49   14.58
  -3   2 -10  135.86   11.97
   3   2  10  105.67    8.17
  -3   2 -10  150.16   17.46
   3   2  10  140.49   11.68
  -3   2 -11   96.99    6.42
  -3  -2 -11   65.95    7.49
   3   2  11   67.49    3.26
   3  -2  11   69.70    4.45
  -3   2 -11  110.77   11.52
   3   2  11   89.93    5.80
  -3   2 -12  189.15   11.30
  -3  -2 -12  128.32   11.94
   3  -2  12  131.77    7.01
  -3   2 -12  233.12   19.71
   3   2  12  207.90   10.60
  -3  -2 -13  177.18   15.73
  -3   2 -13  152.22   13.13
   3  -2  13  208.58   14.02
  -3   2 -13  211.66   14.24
   3   2  13  210.66   14.62
  -3  -2 -14  273.27   35.10
   3  -2  14  356.51   27.34
  -3   2 -14  334.44   40.81
   3   2  14  382.34   29.47
  -3  -2 -15   74.08   11.20
   3  -2  15  109.23   11.33
   3   2  15  151.38   15.81
  -3  -2 -16   63.39   10.59
   3  -2  16   47.01    6.72
   3   2  16   34.72    5.64
  -3   3  18   15.24    4.30
   3   3 -18   14.31    4.10
  -3   3  17    6.71    2.97
   3   3 -17    3.60    1.54
  -3   3  16   35.34    4.10
   3   3 -16   32.32    5.15
  -3   3  15   46.91    4.88
   3   3 -15   37.20    6.09
  -3   3  14    3.47    2.04
   3   3 -14    5.75    2.13
  -3  -3  13   31.08    3.35
  -3   3  13   29.43    4.10
   3   3 -13   23.83    4.48
   3  -3 -13   24.71    2.61
  -3   3  13   28.28    3.03
  -3  -3  12   96.23    4.36
  -3   3  12   81.04    5.10
   3   3 -12   77.87    9.71
   3  -3 -12   74.88    3.44
   3   3 -12   56.02    5.38
  -3   3  12   86.79    4.11
  -3  -3  11   10.95    1.27
  -3   3  11    1.90    3.64
   3  -3 -11    6.13    0.96
   3   3 -11    4.97    0.79
  -3   3  11    6.10    1.17
  -3  -3  10  238.49    7.15
  -3   3  10  252.36    8.58
   3   3 -10  242.64    8.04
   3  -3 -10  254.73    7.67
   3   3 -10  243.72    7.18
  -3   3  10  235.69    7.13
  -3  -3   9  271.76    6.44
  -3   3   9  253.71    8.51
   3  -3  -9  286.34    6.94
   3   3  -9  255.30    6.08
  -3   3   9  245.23    7.39
  -3  -3   9  226.98   15.36
  -3  -3   8   64.96    4.60
  -3   3   8   55.24    4.51
   3   3  -8   51.93    3.65
   3   3  -8   60.77    8.16
   3  -3  -8   68.03    4.93
   3   3  -8   63.35    4.51
  -3   3   8   67.49    4.86
  -3  -3   8   52.37    3.78
  -3  -3   7  158.42    4.96
   3   3  -7  127.18    4.06
   3   3  -7  122.58    8.03
  -3   3   7  135.60    4.54
   3   3  -7  137.65    4.43
  -3  -3   7  137.16    4.38
   3   3  -6  226.72    6.88
  -3   3   6  209.53    7.03
   3   3  -6  228.55    8.17
  -3   3   6  218.47    6.82
   3   3  -6  227.80    7.02
  -3  -3   5  273.51    7.08
   3   3  -5  277.35    7.09
  -3   3   5  312.40    8.54
   3   3  -5  328.83    9.57
   3  -3  -5  250.84    6.72
  -3   3   5  307.32    7.95
   3   3  -5  317.97    8.18
  -3  -3   4 1085.92    9.50
  -3   3   4 1189.69   10.41
  -3  -3   3 2891.43   22.90
  -3   3   3 2847.55   23.05
   3   3  -3 2945.86   24.06
   3  -3  -3 2844.09   22.82
  -3   3   3 2720.36   21.90
   3   3  -3 2887.75   22.98
  -3  -3   2  272.72    7.12
  -3   3   2  337.89    8.78
   3   3  -2  383.96   10.01
   3  -3  -2  287.61    7.82
  -3   3   2  330.39    8.57
   3   3  -2  341.82    8.88
  -3  -3   1   99.80    6.16
  -3   3   1   53.06    3.57
   3   3  -1   59.52    4.05
   3  -3  -1  107.91    6.80
  -3   3   1   62.50    4.13
   3   3  -1   55.97    3.80
  -3  -3   0 1090.34    9.88
  -3   3   0 1143.44    9.91
   3  -3   0 1168.75   10.77
  -3   3   0 1139.33   10.22
   3   3   0 1145.39   10.34
  -3  -3  -1 1741.55   14.89
  -3  -3  -2 1085.87   10.25
  -3   3  -2 1115.56   10.15
  -3  -3  -3  949.37    9.31
  -3   3  -3  959.52    8.46
   3   3   3  959.27    8.81
  -3  -3  -3  962.00    8.13
   3  -3   3  964.01    9.87
   3   3   3 1002.25   10.54
  -3  -3  -4 1352.67   39.73
  -3   3  -4 1415.26   40.82
   3  -3   4 1215.19   35.04
   3   3   4 1274.18   36.82
  -3  -3  -4 1398.40   40.21
   3  -3   4 1341.20   39.12
  -3   3  -4 1265.51   36.98
   3   3   4 1211.85   35.58
  -3  -3  -5  201.59   12.15
  -3   3  -5  221.71    6.85
   3  -3   5  167.84    5.21
   3   3   5  178.57    5.63
  -3  -3  -5  175.59    5.36
   3  -3   5  185.27    6.75
   3   3   5  196.25    7.16
  -3  -3  -6  343.45    9.35
  -3   3  -6  344.80    8.05
   3  -3   6  283.86    6.65
   3   3   6  299.31    7.03
  -3  -3  -6  306.59    6.96
   3  -3   6  333.02    8.96
  -3   3  -6  325.60    8.89
   3   3   6  349.97    9.75
  -3  -3  -7  525.69   13.13
  -3   3  -7  649.78   14.58
   3  -3   7  504.89   11.48
   3   3   7  517.49   11.62
   3  -3   7  587.46   14.40
  -3  -3  -7  528.05   11.70
  -3   3  -7  637.65   17.84
   3   3   7  628.13   15.74
  -3  -3  -8  463.38   16.68
  -3   3  -8  526.24   16.10
   3  -3   8  387.78   11.23
   3   3   8  433.97   12.32
   3  -3   8  450.84   14.05
  -3   3  -8  507.36   16.08
   3   3   8  495.20   15.56
  -3   3  -9  214.29   11.28
   3   3   9  166.48   12.60
   3  -3   9  196.02    9.18
  -3   3  -9  220.36   15.94
   3   3   9  198.43    9.57
  -3   3 -10  421.42   17.48
  -3  -3 -10  388.43   20.63
   3  -3  10  417.88   18.05
  -3   3 -10  411.12   18.44
   3   3  10  423.35   18.44
  -3  -3 -11  175.63   11.22
  -3   3 -11  186.44   10.83
   3  -3  11  198.52    9.95
  -3   3 -11  198.43   13.44
   3   3  11  210.71   10.75
  -3  -3 -12   29.29    5.64
   3  -3  12   35.25    5.30
  -3   3 -12   14.87    2.68
   3   3  12   18.99    4.83
  -3  -3 -13   10.56    2.07
   3  -3  13    2.60    2.19
  -3   3 -13    2.32    1.33
   3   3  13    9.02    4.16
  -3  -3 -14   69.52   10.41
   3  -3  14   80.30    8.68
  -3   3 -14   72.70   11.99
   3   3  14   99.66   10.88
  -3  -3 -15   43.43    7.94
   3  -3  15   56.67    6.87
  -3   3 -15   43.03    8.42
   3   3  15   39.23    5.24
  -3  -3 -16    0.72    1.91
   3  -3  16    4.41    2.48
  -3   3 -16    2.70    1.80
   3   3  16    4.36    2.33
  -3   4  17   48.37    7.81
   3   4 -17   45.01    8.97
  -3   4  16   39.34    5.91
   3   4 -16   38.13    7.74
  -3   4  15  194.42   15.42
   3   4 -15  131.67   19.65
  -3   4  14  191.04   15.73
   3   4 -14  174.82   17.83
  -3   4  13   76.44   10.22
   3   4 -13   73.73   13.04
  -3   4  13   92.06    6.38
  -3   4  12  342.15   15.74
   3   4 -12  373.48   18.03
   3   4 -12  379.48   16.14
  -3   4  12  420.50   18.09
  -3   4  11  533.20   23.72
   3   4 -11  507.09   22.32
   3  -4 -11  595.40   25.43
   3   4 -11  530.33   22.83
  -3   4  11  555.97   24.07
  -3  -4  10   44.05    2.26
   3   4 -10   53.20    7.45
   3  -4 -10   39.77    2.26
   3   4 -10   64.57    3.23
  -3   4  10   68.65    3.64
  -3   4   9  364.93   15.20
   3   4  -9  334.51   13.99
   3  -4  -9  250.26   10.13
   3   4  -9  374.27   14.89
  -3   4   9  340.66   13.73
  -3  -4   8  542.29   15.47
  -3   4   8  470.30   14.19
   3   4  -8  537.38   16.29
   3  -4  -8  518.32   14.95
  -3   4   8  537.73   15.60
  -3  -4   7  696.36   15.60
   3   4  -7  598.95   13.33
  -3   4   7  569.30   13.73
   3   4  -7  612.05   16.00
   3  -4  -7  631.46   14.30
   3   4  -7  678.11   15.49
  -3   4   7  577.72   13.38
  -3  -4   6  400.03    9.27
  -3   4   6  388.46    9.84
   3   4  -6  430.46   10.85
   3  -4  -6  363.57    8.76
  -3   4   6  390.21    9.33
   3   4  -6  433.66   10.27
  -3  -4   5  230.58   15.64
   3   4  -5  180.88   12.28
  -3   4   5  197.39   13.66
   3   4  -5  229.73   16.52
   3  -4  -5  220.08   15.07
  -3   4   5  209.58   14.36
   3   4  -5  221.41   15.12
  -3  -4   4  298.52    9.09
  -3   4   4  216.52    7.15
   3   4  -4  251.51    9.36
   3  -4  -4  294.62    9.27
  -3   4   4  231.86    7.44
   3   4  -4  247.04    7.82
  -3  -4   3   69.17    2.79
  -3   4   3   75.49    3.24
   3   4  -3  106.77   10.88
   3  -4  -3   67.02    3.17
  -3   4   3   86.29    3.38
   3   4  -3   84.29    3.31
  -3  -4   2  223.08    7.93
  -3   4   2  258.97    8.16
   3   4  -2  280.26    9.23
   3  -4  -2  230.15    7.62
  -3   4   2  258.03    8.19
   3   4  -2  251.83    7.98
  -3  -4   1  803.96   23.96
  -3   4   1  663.27   19.50
   3   4  -1  781.51   23.76
   3  -4  -1  811.11   23.97
  -3   4   1  740.66   21.86
   3   4  -1  683.01   20.19
  -3  -4   0  374.05   11.66
  -3   4   0  326.30   10.01
   3   4   0  364.03   11.35
   3  -4   0  392.48   12.16
  -3   4   0  326.86   10.12
   3   4   0  324.17   10.11
  -3  -4  -1  259.78    8.40
   3   4   1  295.07   10.33
   3  -4   1  272.56    8.95
  -3   4  -1  304.46    9.62
   3   4   1  275.49    8.92
  -3  -4  -2   80.73    6.68
  -3   4  -2   64.54    2.62
   3  -4   2   54.37    2.14
   3   4   2   73.43    4.93
   3  -4   2   67.05    3.43
  -3   4  -2   71.52    3.30
  -3  -4  -3   58.25    6.89
  -3   4  -3   47.37    3.53
   3  -4   3   40.11    2.96
   3   4   3   61.43    5.56
  -3  -4  -3   42.73    3.11
  -3   4  -3   47.73    3.85
   3   4   3   53.19    4.37
  -3  -4  -4  159.90   13.70
  -3   4  -4  148.72   10.17
   3  -4   4  122.58    8.37
   3   4   4  157.96   13.19
  -3  -4  -4  147.36   10.04
   3  -4   4  152.39   10.94
  -3   4  -4  136.67    9.60
   3   4   4  122.76    8.95
  -3  -4  -5   34.89    5.27
  -3   4  -5   35.89    2.73
   3  -4   5   26.02    2.00
   3   4   5   38.86    3.63
  -3  -4  -5   27.25    2.11
   3  -4   5   24.26    2.99
   3   4   5   32.20    3.56
  -3  -4  -6   41.55    5.27
  -3   4  -6   58.36    2.20
   3   4   6   49.38    3.65
   3  -4   6   35.09    3.38
  -3   4  -6   52.35    5.85
   3   4   6   60.83    3.88
  -3  -4  -7  123.91   12.94
  -3   4  -7  128.25    9.81
   3   4   7   89.17    7.48
   3  -4   7   89.64    7.86
  -3   4  -7  121.98   13.34
   3   4   7  123.69   10.45
  -3  -4  -8  267.42   17.56
   3  -4   8  245.15   11.31
  -3   4  -8  268.02   17.51
   3   4   8  271.63   12.54
  -3  -4  -9  124.18   11.50
   3  -4   9  128.03    7.22
  -3   4  -9  116.17   12.21
   3   4   9  140.17    7.90
  -3  -4 -10   48.54    7.55
   3  -4  10   41.03    4.93
  -3   4 -10   29.57    5.28
   3   4  10   39.28    5.23
  -3  -4 -11  206.94   16.81
   3  -4  11  231.51   15.76
  -3   4 -11  144.23   17.73
   3   4  11  171.28   12.19
   3  -4  12  158.28   19.83
  -3   4 -12  112.19   18.22
   3   4  12  146.81   18.58
  -3  -4 -13  122.47   16.47
   3  -4  13  136.15   14.21
  -3   4 -13  137.69   20.52
   3   4  13  227.26   23.32
  -3  -4 -14   73.65   11.49
   3  -4  14   93.50   10.74
  -3   4 -14   79.33   14.76
   3   4  14  171.10   19.33
  -3  -4 -15   39.93    6.39
   3  -4  15   37.23    6.00
   3   4  15   47.13    7.57
  -3   5  16    1.06    2.28
   3   5 -16    7.10    2.41
  -3   5  15    5.61    2.93
   3   5 -15    3.79    1.77
  -3   5  14   57.53    6.67
   3   5 -14   42.94    9.37
  -3   5  13   31.05    7.02
   3   5 -13   25.73    6.67
  -3   5  13   36.99    7.31
  -3   5  12   79.01    7.44
   3   5 -12   75.23    6.20
  -3   5  12   75.34    6.46
  -3   5  11   89.57    6.96
   3   5 -11   72.89   12.86
   3   5 -11   83.67    5.78
  -3   5  11   84.59    6.14
  -3   5  10   73.48    7.88
   3   5 -10   69.72   11.19
   3   5 -10   75.39    7.47
  -3   5  10   77.28    7.85
  -3   5   9    2.79    2.27
   3   5  -9    5.03    2.32
   3  -5  -9    0.01    0.64
   3   5  -9    2.85    1.23
  -3   5   9    1.33    1.92
  -3  -5   8   35.80    3.60
  -3   5   8   69.59    4.37
   3   5  -8   77.58    9.44
   3  -5  -8   52.95    2.80
   3   5  -8   94.47    4.74
  -3   5   8   74.94    3.97
  -3  -5   7   61.90    6.23
  -3   5   7   46.43    4.49
   3   5  -7   52.18    6.92
   3  -5  -7   72.93    5.92
  -3   5   7   45.36    4.07
   3   5  -7   56.03    5.24
  -3  -5   6  186.34    9.56
  -3   5   6  185.02    8.45
   3   5  -6  210.13   15.57
   3  -5  -6  211.84    8.91
  -3   5   6  196.07    8.51
   3   5  -6  210.38    8.88
  -3  -5   5  778.60   22.40
  -3   5   5  771.50   22.45
   3   5  -5  844.81   24.78
   3  -5  -5  846.78   24.17
  -3   5   5  841.87   24.29
   3   5  -5  886.60   25.39
  -3  -5   4  289.21    9.59
  -3   5   4  261.76    8.47
   3   5  -4  269.33   11.65
   3  -5  -4  335.50   10.39
  -3   5   4  279.06    9.01
   3   5  -4  278.27    8.77
  -3   5   3   31.93    2.15
   3   5  -3   47.33    5.25
  -3   5   3   38.43    2.49
   3   5  -3   41.91    2.36
  -3  -5   2  317.46    9.61
  -3   5   2  395.86   11.81
   3   5  -2  405.49   12.36
   3  -5  -2  327.11   10.24
  -3   5   2  408.14   12.41
   3   5  -2  392.32   11.83
  -3   5   1  346.49   10.44
   3   5  -1  352.33   11.02
   3  -5  -1  249.37    8.24
  -3   5   1  359.46   11.14
   3   5  -1  346.00   10.65
  -3  -5   0  622.39   18.17
  -3   5   0  508.95   14.78
   3   5   0  474.68   15.00
   3  -5   0  649.87   19.10
  -3   5   0  509.93   15.23
   3   5   0  495.14   14.82
  -3  -5  -1  932.99   26.95
  -3   5  -1  929.79   26.27
   3   5   1  945.54   27.76
   3  -5   1  968.49   28.02
  -3   5  -1  944.83   27.11
   3   5   1  970.23   28.02
  -3  -5  -2  935.93   27.35
  -3   5  -2 1028.45   77.49
   3   5   2 1022.11   77.28
   3  -5   2  947.19   27.50
  -3   5  -2 1048.39   79.24
  -3  -5  -3  934.02   38.09
  -3   5  -3  852.10   33.13
   3   5   3  801.93   32.28
   3  -5   3  970.25   38.36
  -3   5  -3  787.68   31.18
   3   5   3  857.71   34.03
  -3  -5  -4  288.40   20.52
  -3   5  -4  229.37    9.20
   3   5   4  211.71   11.05
   3  -5   4  247.15   10.90
  -3   5  -4  258.17   10.97
   3   5   4  224.77   10.11
  -3  -5  -5  789.78   32.43
  -3   5  -5  835.07   33.46
   3   5   5  802.13   32.48
   3   5   5  929.81   38.13
  -3  -5  -6  326.49   22.66
   3  -5   6  306.00   13.89
  -3   5  -6  339.15   19.82
   3   5   6  368.41   16.25
  -3  -5  -7   67.09    7.86
   3  -5   7   54.52    4.18
  -3   5  -7   60.42    6.42
   3   5   7   72.08    5.38
  -3  -5  -8  204.34   18.56
   3  -5   8  201.43   10.17
  -3   5  -8  219.52   15.09
   3   5   8  252.80   12.37
  -3  -5  -9   65.31   10.76
   3  -5   9   63.84    9.02
  -3   5  -9   71.12   11.58
   3   5   9   71.30    9.83
  -3  -5 -10   60.33    8.49
   3  -5  10  102.98    9.11
  -3   5 -10   39.40    6.16
   3   5  10   54.23    6.13
   3  -5  11  104.30    9.12
  -3   5 -11   68.23   10.19
   3   5  11   80.27    7.59
  -3  -5 -12   54.37    9.28
  -3   5 -12   61.78   11.04
   3   5  12   68.33    9.38
  -3  -5 -13    8.78    2.23
   3  -5  13    7.72    2.51
  -3   5 -13   -0.44    1.74
   3   5  13    4.67    2.12
  -3   6  14    9.64    3.62
   3   6 -14   12.53    3.90
  -3   6  13   56.56    7.11
   3   6 -13   44.76    7.96
  -3   6  13   58.21    6.96
  -3   6  12  151.82   15.79
   3   6 -12  104.84   17.38
   3   6 -12  119.66   12.11
  -3   6  12  157.21   15.98
  -3   6  11   38.12    4.10
   3   6 -11   59.85    5.24
  -3   6  11   62.20    5.75
  -3   6  10  188.32   23.40
   3   6 -10  177.02   26.88
   3   6 -10  218.82   26.71
  -3   6  10  227.66   27.95
  -3   6   9  189.61   13.02
   3   6  -9  181.26   19.73
   3   6  -9  219.44   14.47
  -3   6   9  207.45   13.82
  -3   6   8    8.28    3.42
   3   6  -8    5.70    2.43
   3  -6  -8    6.45    1.43
   3   6  -8    9.16    2.19
  -3   6   8   11.59    3.15
  -3   6   7    9.50    2.18
   3   6  -7    8.06    2.16
   3  -6  -7   22.24    2.31
  -3   6   7    8.51    2.93
   3   6  -7    6.30    1.41
  -3   6   6  402.33   17.72
   3   6  -6  421.91   18.84
   3  -6  -6  491.90   21.04
  -3   6   6  455.03   19.83
   3   6  -6  480.13   20.72
  -3  -6   5  116.59    9.75
  -3   6   5  155.49    7.64
   3   6  -5  188.09   13.08
   3  -6  -5  180.99    8.54
  -3   6   5  186.67    9.11
   3   6  -5  188.70    8.91
  -3  -6   4    3.40    1.12
  -3   6   4   13.10    2.21
   3   6  -4   13.18    4.66
   3  -6  -4    4.32    2.25
  -3   6   4    9.90    2.15
   3   6  -4    4.98    1.67
  -3  -6   3  255.52   13.00
  -3   6   3  303.18   13.64
   3   6  -3  291.66   13.46
   3  -6  -3  317.38   14.32
  -3   6   3  331.78   14.99
   3   6  -3  304.87   13.74
  -3  -6   2  246.65   10.58
  -3   6   2  297.80   12.62
   3   6  -2  319.13   19.98
   3  -6  -2  287.76   12.41
  -3   6   2  300.76   13.01
   3   6  -2  302.84   12.93
  -3  -6   1    8.74    1.95
  -3   6   1    7.76    1.69
   3   6  -1    8.10    2.17
   3  -6  -1   22.25    2.69
  -3   6   1   13.00    3.41
   3   6  -1    6.36    1.18
  -3  -6   0  100.25   11.15
  -3   6   0   98.70    4.74
   3   6   0  102.48    8.81
   3  -6   0  102.74    5.73
  -3   6   0   85.98    4.69
   3   6   0   84.62    4.52
  -3  -6  -1   89.95    9.71
  -3   6  -1   79.25    4.17
   3   6   1   84.27    7.22
   3  -6   1   85.15    4.91
  -3   6  -1   75.85    4.47
   3   6   1   64.19    3.77
  -3  -6  -2    9.43    1.96
  -3   6  -2    9.12    1.50
   3   6   2   13.32    1.74
   3  -6   2   10.87    2.89
  -3   6  -2    7.41    1.33
   3   6   2   11.73    2.01
  -3  -6  -3   58.09    8.50
  -3   6  -3   52.79    5.22
   3   6   3   56.86    6.45
   3  -6   3   62.33    6.80
  -3   6  -3   52.86    6.04
   3   6   3   53.78    5.98
  -3  -6  -4   22.65    3.76
   3   6   4   12.71    1.83
   3  -6   4   14.26    3.97
  -3   6  -4   10.66    2.53
   3   6   4   11.99    2.30
  -3  -6  -5    6.49    1.95
   3  -6   5    4.67    2.66
   3   6   5    4.16    2.54
  -3  -6  -6  250.81   20.40
  -3   6  -6  267.33   17.70
   3   6   6  292.24   19.57
  -3  -6  -7   32.95    4.45
   3  -6   7   22.63    3.66
  -3   6  -7   39.60    4.55
   3   6   7   55.31    6.19
  -3  -6  -8    1.24    1.35
   3  -6   8    2.88    2.42
  -3   6  -8    3.50    1.61
   3   6   8    3.85    2.99
  -3  -6  -9  144.56   17.29
   3  -6   9  142.68   12.18
  -3   6  -9  110.41   14.77
   3   6   9  151.21   12.77
  -3  -6 -10   91.92   14.50
   3  -6  10   99.60   13.16
  -3   6 -10   81.49   14.17
  -3  -6 -11   29.18    5.86
   3  -6  11   26.69    5.11
  -3   6 -11   31.19    6.63
   3   6  11   43.05    6.83
  -3  -6 -12   33.62    5.61
   3  -6  12   48.97    7.91
  -3   6 -12   21.18    4.46
   3   6  12   12.61    3.79
  -3   7  12    6.05    2.16
   3   7 -12    3.37    1.55
  -3   7  12   -0.21    1.73
  -3   7  11   -0.10    2.01
   3   7 -11    5.80    1.55
   3   7 -11    1.94    1.21
  -3   7  11   -0.06    1.76
  -3   7  10    5.26    2.00
   3   7 -10   11.74    2.60
   3   7 -10    5.37    1.86
  -3   7  10    3.59    1.77
  -3   7   9    5.02    2.40
   3   7  -9    4.27    1.74
   3   7  -9   15.25    4.11
  -3   7   9    7.50    2.45
  -3   7   8   58.59    6.60
   3   7  -8   54.25    9.03
  -3   7   8   64.94    7.23
   3   7  -8   74.45    7.95
  -3   7   7   21.84    2.90
   3   7  -7   24.67    3.76
   3   7  -7   22.74    3.05
  -3   7   7   27.91    3.41
  -3   7   6    5.71    2.33
   3   7  -6    8.41    2.76
   3  -7  -6   10.13    2.32
  -3   7   6    7.18    2.42
   3   7  -6   11.46    2.93
  -3   7   5   91.29    7.73
   3   7  -5   84.48   12.86
   3  -7  -5  119.89    9.76
  -3   7   5   96.12    8.16
   3   7  -5   93.40    7.88
  -3   7   4   38.22    3.77
   3   7  -4   36.96    5.95
   3  -7  -4   37.07    3.54
  -3   7   4   46.94    4.75
   3   7  -4   68.89    6.37
  -3   7   3   80.95    6.88
   3   7  -3   73.20   11.53
   3  -7  -3   71.14    6.17
  -3   7   3   72.77    6.51
   3   7  -3   81.58    7.13
  -3  -7   2   81.03   10.82
  -3   7   2  115.89    7.92
   3   7  -2  101.64   12.15
  -3   7   2  111.73    8.00
   3   7  -2  102.38    7.28
  -3  -7   1  105.72   12.91
  -3   7   1  134.87    9.02
   3   7  -1  142.73   14.27
   3  -7  -1  169.02   11.49
  -3   7   1  130.68    9.16
   3   7  -1  131.51    9.15
  -3  -7   0   52.12    9.16
  -3   7   0   94.49    6.57
   3   7   0   82.00    9.25
   3  -7   0   82.79    6.51
  -3   7   0   98.74    7.27
   3   7   0   98.03    7.26
  -3  -7  -1   85.05   11.11
   3   7   1  102.22   10.78
   3  -7   1  103.45    8.95
  -3   7  -1  112.84    9.76
   3   7   1  101.52    8.53
  -3  -7  -2  236.59   23.46
   3   7   2  275.71   21.49
   3  -7   2  309.11   24.39
  -3   7  -2  312.14   24.48
   3   7   2  258.53   20.42
  -3  -7  -3  127.79   17.13
   3  -7   3  158.18   13.05
  -3   7  -3  152.98   12.38
  -3  -7  -4   52.14    6.71
   3  -7   4   46.47    9.50
  -3   7  -4   68.02    9.06
   3   7   4   57.96    7.77
  -3  -7  -5  107.08   12.57
   3  -7   5  127.45   10.74
   3   7   5  121.21   10.20
  -3  -7  -6  139.10   19.36
   3  -7   6  150.17   15.66
  -3   7  -6  162.61   16.60
   3   7   6  170.35   17.63
  -3  -7  -7   53.10    8.98
   3  -7   7   41.93    6.25
  -3   7  -7   42.03    5.92
   3   7   7   65.58    9.01
  -3  -7  -8   30.09    5.64
   3  -7   8   45.21    6.57
  -3   7  -8   16.93    3.44
   3   7   8   18.91    3.32
  -3  -7  -9   53.45    9.57
   3  -7   9   23.65    4.94
  -3   7  -9   36.17    6.87
   3   7   9   50.57    8.10
  -3   8   8   24.91    4.75
   3   8  -8   27.38    4.99
   3   8  -8   15.93    3.30
  -3   8   8   23.00    4.38
  -3   8   7   10.99    3.40
   3   8  -7   16.30    4.78
  -3   8   7   18.75    5.21
   3   8  -7   10.00    2.91
  -3   8   6    6.99    2.15
  -3   8   6    9.26    2.17
   3   8  -6    9.72    2.12
  -3   8   5   12.14    2.32
   3   8  -5   13.78    2.68
  -3   8   5   13.63    3.19
   3   8  -5    8.34    1.89
  -3   8   4   65.57    7.54
   3   8  -4   72.65    8.82
   3  -8  -4   39.36    4.76
  -3   8   4   82.83    9.67
   3   8  -4   62.65    7.33
  -3   8   3   34.31    4.26
   3   8  -3   52.63    7.36
   3  -8  -3   42.64    5.85
  -3   8   3   58.47    7.94
   3   8  -3   53.18    7.17
   3   8  -2   13.64    4.01
   3  -8  -2    8.78    2.62
  -3   8   2   15.83    4.86
   3   8  -2   16.96    4.70
   3   8  -1    3.57    2.35
   3  -8  -1    6.54    2.50
  -3   8   1    5.38    2.94
   3   8  -1    2.09    1.88
   3   8   0    1.30    1.52
   3  -8   0    1.52    1.61
  -3   8   0    2.26    2.01
   3   8   0    6.66    2.89
  -3  -8  -1    3.23    1.26
   3  -8   1   -0.49    1.73
  -3   8  -1    4.59    2.21
   3   8   1    2.43    2.51
  -3  -8  -2    2.80    1.61
   3  -8   2    1.93    1.58
  -3   8  -2   -1.40    1.87
   3   8   2    3.11    1.92
  -3  -8  -3    6.40    2.55
   3  -8   3    0.96    1.65
  -3   8  -3    7.92    2.88
  -3  -8  -4    5.99    2.14
   3  -8   4    7.71    2.78
  -3   8  -4    7.23    2.81
   3   8   4    9.96    2.41
  -3  -8  -5    8.78    3.10
   3  -8   5    3.24    2.17
  -3   8  -5    5.49    2.26
   3   8   5   18.89    5.46
  -3  -8  -6   17.15    3.87
   3  -8   6   17.39    3.95
  -3   8  -6    7.37    2.71
   3   8   6    7.14    2.35
  -4   0  19   12.84    3.87
  -4   0  18   46.50    6.51
   4   0 -18   26.12    7.39
  -4   0  17    4.12    1.80
   4   0 -17    3.98    1.38
  -4   0  16  134.63   11.03
   4   0 -16  129.76   15.15
  -4   0  15  305.13   20.73
   4   0 -15  299.12   21.52
  -4   0  14   28.01    2.73
   4   0 -14   22.72    3.01
  -4   0  13   32.61    2.71
   4   0 -13   22.45    1.95
  -4   0  12   43.32    4.11
   4   0 -12   33.45    3.16
  -4   0  11   10.84    1.48
   4   0 -11   16.08    1.56
  -4   0  10  749.00   17.40
   4   0 -10  724.19   16.61
  -4   0   9    4.98    1.57
   4   0  -9    2.15    1.33
  -4   0   8  125.60    4.58
   4   0  -8  130.99    4.61
  -4   0   7 1647.20   14.40
   4   0  -7 1601.43   13.81
  -4   0   6  156.75    9.56
   4   0  -6  158.46    9.59
   4   0  -6  136.83    8.02
   4   0  -6  107.12    6.32
   4   0  -5   42.40    2.97
   4   0  -5   36.33    2.24
  -4   0   4  963.59    9.02
   4   0  -4  860.57    7.11
  -4   0   3  235.00    6.32
   4   0  -3  261.25    6.61
  -4   0   2   76.38    4.88
   4   0  -2   83.84    5.26
   4   0  -2  103.17    6.28
   4   0  -1 2138.06   17.39
  -4   0   1 2093.85   17.70
  -4   0   0 3169.94   26.18
  -4   0  -2  403.09   10.36
   4   0   2  365.13    9.41
  -4   0  -3 1390.97   12.20
   4   0   3 1384.89   12.12
  -4   0  -3 1480.86   14.44
  -4   0  -4 1615.32   13.93
   4   0   4 1510.65   13.18
  -4   0  -5  845.82   24.82
   4   0   5  811.50   23.80
  -4   0  -6  867.00   25.49
   4   0   6  778.49   22.88
  -4   0  -7 2028.40   56.84
   4   0   7 1868.68   41.16
  -4   0  -8  921.41   26.37
   4   0   8  858.49   24.49
  -4   0  -9  125.54   11.53
   4   0   9   89.79    7.23
  -4   0 -10  656.30   27.79
   4   0  10  569.06   23.25
  -4   0 -11    8.57    2.27
   4   0  11    8.24    2.37
  -4   0 -12    3.14    1.16
   4   0  12    4.71    1.93
  -4   0 -13   24.31    3.99
   4   0  13   16.23    2.15
  -4   0 -14   31.89    4.19
  -4   0 -15   44.43    7.34
   4   0  15   32.71    4.57
  -4   0 -16    3.56    1.57
   4   0  16    4.29    1.86
  -4   1  19   55.51    8.45
   4   1 -19   34.14    7.18
  -4  -1  18  163.73   18.01
  -4   1  18  157.08   17.40
   4   1 -18  112.47   18.48
  -4  -1  17  229.49   17.78
  -4   1  17  230.20   18.02
   4   1 -17  194.84   21.92
  -4  -1  16   57.57    5.28
  -4   1  16   88.48    7.69
   4   1 -16   84.23   10.92
   4  -1 -16   54.09    6.21
  -4  -1  15  152.63   10.36
  -4   1  15  144.67   10.16
   4   1 -15  137.95   15.25
   4  -1 -15  170.37   15.41
  -4  -1  14  331.92   14.62
  -4   1  14  293.96   13.47
   4   1 -14  288.10   16.38
   4  -1 -14  318.36   14.13
  -4  -1  13  333.30   14.13
  -4   1  13  430.29   18.34
   4   1 -13  416.09   17.54
   4  -1 -13  310.86   13.07
  -4  -1  12  376.68   15.25
  -4   1  12  404.63   16.72
   4   1 -12  392.69   15.94
   4  -1 -12  371.90   14.97
  -4  -1  11 1104.26   83.34
  -4   1  11  930.12   27.06
   4   1 -11  853.79   24.52
   4  -1 -11 1085.13   81.84
  -4  -1  10  622.03   14.57
  -4   1  10  654.07   15.55
   4   1 -10  660.99   15.33
   4  -1 -10  578.52   13.42
  -4  -1   9  369.99   11.36
  -4   1   9  454.91   13.93
   4   1  -9  433.46   13.18
   4  -1  -9  338.38   10.41
  -4  -1   8  809.50   23.81
  -4   1   8  718.51   21.35
   4   1  -8  708.65   20.97
   4  -1  -8  828.10   24.30
  -4   1   8  756.45   21.78
  -4   1   7  770.11    8.20
   4   1  -7  749.57    7.65
   4   1  -7  786.08    6.49
  -4   1   7  795.98    6.78
  -4  -1   6  214.96    5.94
  -4   1   6  267.22    7.39
   4  -1  -6  206.26    5.65
  -4   1   6  254.80    6.72
   4   1  -6  233.80    5.84
  -4   1   5 1346.38   12.20
   4   1  -5 1344.51   11.84
   4   1  -5 1318.22   11.22
  -4   1   5 1209.45   10.50
   4  -1  -5 1211.14    9.71
  -4   1   4  664.69   19.59
   4   1  -4  681.78    6.88
   4   1  -4  627.51   15.56
  -4   1   4  609.50   15.01
   4  -1  -4  687.97    5.85
   4   1  -4  599.16   14.63
   4   1  -3  318.01    8.29
  -4  -1   2  259.71    6.84
   4   1  -2  260.79    6.88
   4  -1  -2  282.51    7.37
   4   1  -2  217.95    6.69
   4   1  -2  262.26    6.83
   4   1  -1  816.89    7.55
  -4   1   1  819.43    8.76
  -4  -1   0 1632.51   13.86
   4  -1   0 1630.23   13.84
  -4   1   0 1681.69   16.00
  -4   1  -1 1252.53   11.00
   4  -1   1 1266.28   11.36
  -4  -1  -2  174.23   10.63
  -4   1  -2  188.37    6.15
   4   1   2  204.40    5.58
   4  -1   2  154.84    9.40
  -4   1  -2  184.83    7.04
  -4  -1  -3    6.62    2.23
  -4   1  -3    4.37    1.53
   4   1   3    9.65    1.27
   4  -1   3    4.99    2.04
  -4   1  -3   11.52    2.01
  -4  -1  -4   32.82    2.62
  -4   1  -4   46.71    3.31
   4   1   4   48.72    3.27
   4  -1   4   37.72    2.88
  -4   1  -4   71.73    8.44
  -4  -1  -5  136.45    5.00
  -4   1  -5  173.50    5.80
   4   1   5  161.89    5.37
   4  -1   5  141.25    5.07
  -4   1  -5  175.98    7.56
  -4  -1  -6  216.80    7.42
  -4   1  -6  257.66    8.24
   4   1   6  242.75    7.65
   4  -1   6  206.59    6.94
  -4   1  -6  239.74    9.32
  -4  -1  -7   33.02    4.51
  -4   1  -7    8.76    1.30
   4   1   7   16.29    1.81
   4  -1   7   21.77    2.33
  -4   1  -7   20.09    3.41
  -4  -1  -8  521.28   15.54
  -4   1  -8  509.54   18.18
   4   1   8  469.08   13.74
   4  -1   8  501.80   14.93
  -4   1  -8  541.79   18.18
  -4   1  -9  237.07   13.44
  -4  -1  -9  254.33   15.79
   4   1   9  208.27    8.75
   4  -1   9  218.80    9.46
  -4   1  -9  239.16   10.67
  -4  -1 -10  148.01    9.68
  -4   1 -10  176.12   12.12
   4   1  10  143.32    6.38
   4  -1  10  103.79    5.30
  -4   1 -10  169.89    8.20
   4   1  10  158.08    8.03
  -4   1 -11  289.11   17.10
  -4  -1 -11  321.85   18.28
   4   1  11  238.30   10.60
   4  -1  11  272.61   12.24
   4   1  11  266.71   12.76
  -4   1 -12  135.49   12.71
  -4  -1 -12  166.15   13.94
   4   1  12  124.64    8.39
   4  -1  12  144.09    9.87
   4   1  12  127.90    9.46
  -4   1 -13  202.20   18.22
  -4  -1 -13  159.98   18.80
   4  -1  13  175.31   14.05
   4   1  13  231.41   18.79
  -4  -1 -14  113.55   15.69
  -4   1 -14   90.13   12.65
   4  -1  14  147.87   15.08
   4   1  14   78.91    8.64
  -4  -1 -15   61.11    9.59
  -4   1 -15   78.02    9.84
   4   1  15   72.49    8.80
  -4  -1 -16   48.93    9.59
   4   1  16   42.89    7.03
  -4   2  18   27.24    4.59
   4   2 -18   18.30    4.73
  -4   2  17   45.46    5.57
  -4  -2  16   19.03    4.04
  -4   2  16   15.55    3.89
   4   2 -16   14.63    3.61
  -4  -2  15   25.23    3.85
  -4   2  15    5.06    2.09
   4   2 -15    9.21    2.31
   4  -2 -15   17.84    2.84
  -4  -2  14   42.14    3.73
  -4   2  14   44.14    4.33
   4   2 -14   35.82    5.59
   4  -2 -14   34.22    2.83
  -4  -2  13   59.03    3.46
  -4   2  13   45.51    3.54
   4   2 -13   45.43    5.78
   4  -2 -13   57.50    3.30
  -4  -2  12   81.43    4.06
  -4   2  12   78.16    4.65
   4   2 -12   91.91    9.78
   4  -2 -12   69.48    3.65
  -4  -2  11  164.93   12.78
  -4   2  11  187.89    8.87
   4   2 -11  167.57   13.19
   4  -2 -11  175.52   13.60
  -4   2  11  160.69   12.18
  -4  -2  10   44.76    2.12
  -4   2  10   32.64    2.49
   4   2 -10   48.02    2.84
   4  -2 -10   45.14    2.36
   4   2 -10   22.41    2.08
  -4   2  10   39.33    1.50
   4  -2 -10   29.55    1.18
  -4  -2   9   37.68    3.01
  -4   2   9   69.19    5.64
   4   2  -9   50.68    4.02
   4  -2  -9   38.32    3.23
  -4   2   9   58.74    4.12
   4   2  -9   55.42    3.81
   4  -2  -9   26.18    1.96
  -4  -2   8  121.89    4.25
  -4   2   8  177.76    6.38
   4  -2  -8  136.87    4.74
  -4   2   8  158.04    4.88
  -4  -2   7   81.50    3.04
  -4   2   7   59.05    3.01
   4   2  -7   73.29    3.33
   4  -2  -7   92.60    3.56
  -4   2   7   63.60    2.24
   4   2  -7   66.78    2.29
   4  -2  -7   74.71    2.53
  -4  -2   6  282.15    8.66
  -4   2   6  266.63    8.61
   4   2  -6  245.24    7.83
   4  -2  -6  280.84    8.69
  -4   2   6  250.06    7.52
   4  -2  -6  253.41    7.53
   4   2  -6  256.05    7.66
  -4  -2   5 1269.01   11.14
   4   2  -5 1350.09   12.06
   4  -2  -5 1331.94   11.61
  -4   2   5 1282.69   10.82
   4   2  -5 1331.69   11.07
  -4  -2   4  781.72    7.50
  -4   2   4  848.72    8.63
   4  -2  -4  826.00    7.88
  -4   2   4  808.42    7.82
   4   2  -4  815.91    7.33
  -4   2   3  106.67    6.74
   4   2  -3  120.00    7.45
  -4   2   3  109.63    6.80
  -4   2   2 1291.66   11.54
  -4   2   2 1285.44   11.03
   4   2  -2 1282.55   10.99
  -4  -2   1  632.33   15.74
  -4   2   1  590.50   14.80
   4   2  -1  665.30   19.59
  -4   2   1  560.56   14.05
   4   2  -1  612.76   15.29
   4   2   0  981.23    9.12
   4   2   0  964.52    9.18
  -4   2  -1 1718.81   15.69
   4   2   1 1786.08   15.56
  -4  -2  -2 2112.56   17.80
   4  -2   2 2077.69   17.84
  -4   2  -2 2090.18   22.08
   4   2   2 2124.78   18.52
  -4  -2  -3 1174.26   34.22
  -4   2  -3 1402.14   40.57
   4   2   3 1563.92  104.66
   4  -2   3 1185.28   34.61
  -4   2  -3 1474.52   98.83
  -4  -2  -4  454.01   13.76
  -4   2  -4  573.44   17.03
   4   2   4  576.69   17.03
   4  -2   4  480.41   14.67
  -4   2  -4  556.39   17.21
   4   2   4  494.83   15.30
  -4  -2  -5  685.94   20.45
  -4   2  -5  718.45   21.15
   4   2   5  684.45   20.08
   4  -2   5  652.31   19.62
  -4   2  -5  666.91   20.30
  -4   2  -6  870.63   19.64
   4   2   6  886.85   19.93
   4  -2   6  772.34   18.08
   4   2   6  681.83   16.54
  -4   2  -7  599.14   17.32
   4   2   7  577.55   16.64
   4  -2   7  580.66   17.37
  -4   2  -7  534.20   16.19
   4   2   7  501.12   15.53
  -4  -2  -8  711.43   28.50
  -4   2  -8  762.72   29.93
   4   2   8  681.07   26.70
   4  -2   8  725.72   29.00
  -4   2  -8  644.00   27.18
   4   2   8  654.58   26.55
  -4  -2  -9  398.33   16.70
  -4   2  -9  540.46   24.44
   4   2   9  452.64   18.45
   4  -2   9  420.31   17.89
  -4   2  -9  528.78   22.80
   4   2   9  523.45   22.28
  -4  -2 -10   35.65    4.86
  -4   2 -10   30.54    3.33
   4   2  10   22.35    1.70
   4  -2  10   36.97    3.28
  -4   2 -10   35.79    4.61
   4   2  10   18.23    2.78
  -4  -2 -11  212.65   16.76
  -4   2 -11  152.31   12.80
   4  -2  11  205.65   14.44
  -4   2 -11  170.18   17.18
   4   2  11  153.12   11.53
  -4   2 -12  131.37   10.63
  -4  -2 -12  108.95   11.77
   4  -2  12  124.68    9.12
  -4   2 -12  144.40   10.58
   4   2  12  134.27   10.03
  -4   2 -13  109.14   15.61
  -4  -2 -13  115.81   17.64
   4  -2  13  143.23   17.88
  -4   2 -13  126.87   15.95
   4   2  13  135.20   17.11
  -4  -2 -14   17.92    5.08
   4  -2  14   23.40    6.19
   4   2  14   14.78    4.69
  -4  -2 -15    7.47    2.12
   4  -2  15    9.83    2.56
   4   2  15    4.71    2.62
  -4   3  18   15.12    4.29
   4   3 -18   14.30    4.15
  -4   3  17   59.37    7.49
   4   3 -17   49.98    9.04
  -4   3  16  185.99   19.02
   4   3 -16  187.68   22.95
  -4   3  15  162.48   20.20
   4   3 -15  139.28   23.03
  -4  -3  14   59.84    7.78
  -4   3  14   58.96    8.19
   4   3 -14   44.15    7.74
  -4  -3  13  182.87    8.30
  -4   3  13  205.38   10.21
   4   3 -13  172.94    9.89
   4  -3 -13  161.70    7.30
  -4  -3  12  262.03   11.62
  -4   3  12  282.28   13.49
   4   3 -12  237.25   14.52
   4  -3 -12  254.05   11.30
  -4   3  12  258.60   11.27
  -4  -3  11  232.41    9.80
  -4   3  11  246.33   11.26
   4   3 -11  203.92   11.47
   4  -3 -11  237.19   10.06
   4   3 -11  210.98    8.66
  -4   3  11  224.67    9.33
  -4  -3  10  532.40   20.97
  -4   3  10  535.79   21.87
   4   3 -10  529.49   21.81
   4  -3 -10  504.65   19.97
   4   3 -10  538.93   21.00
  -4   3  10  572.69   22.45
  -4  -3   9  833.01   23.65
  -4   3   9  760.78   22.18
   4  -3  -9  852.63   24.28
  -4   3   9  819.28   23.19
   4   3  -9  805.26   22.64
  -4  -3   8  504.28   11.60
  -4   3   8  388.88    9.83
   4   3  -8  401.57   10.33
  -4   3   8  398.87    9.37
   4   3  -8  421.74    9.68
  -4  -3   8  412.82    9.50
   4   3  -7    4.36    2.46
  -4   3   7    5.56    1.46
   4   3  -7    3.69    0.74
  -4  -3   6 1092.81   31.73
  -4   3   6 1167.04   34.26
   4   3  -6 1120.19   32.86
   4  -3  -6 1114.05   32.39
  -4   3   6 1041.36   30.25
  -4  -3   5 1042.10   30.32
  -4   3   5  980.96   28.98
   4   3  -5  980.50   28.83
   4  -3  -5 1066.78   31.10
  -4   3   5  860.78   25.12
   4   3  -5  983.54   28.58
  -4   3   4   53.62    2.79
   4   3  -4   55.13    2.68
   4  -3  -4   87.10    3.68
  -4   3   4   53.50    2.54
   4   3  -4   54.38    2.28
  -4  -3   3  421.97   12.67
  -4   3   3  412.09   12.59
   4   3  -3  439.18   13.30
   4  -3  -3  417.36   12.72
  -4   3   3  390.76   11.73
   4   3  -3  391.35   11.76
  -4  -3   2  280.28    8.72
  -4   3   2  209.00    6.88
   4   3  -2  228.76    7.37
   4  -3  -2  286.67    9.01
  -4   3   2  205.26    6.52
   4   3  -2  203.25    6.47
  -4  -3   1   82.20    3.17
  -4   3   1   58.75    2.83
   4   3  -1   68.63    2.94
   4  -3  -1   94.98    3.98
  -4   3   1   59.81    2.74
   4   3  -1   57.83    2.72
  -4   3   0   50.46    2.37
   4   3   0   52.29    2.70
   4  -3   0   29.25    2.30
  -4   3   0   59.29    5.74
   4   3   0   53.53    2.56
  -4  -3  -1   73.35    3.03
  -4   3  -1   67.34    2.80
   4   3   1   91.02    3.46
  -4   3  -1   86.91    6.82
   4   3   1   90.81    3.79
  -4  -3  -2   78.76    3.33
  -4   3  -2   82.96    3.26
   4   3   2   93.67    3.58
   4  -3   2   70.25    3.33
  -4   3  -2   87.87    6.45
   4   3   2   92.14    4.03
  -4  -3  -3  232.98    9.58
  -4   3  -3  239.99    7.57
   4   3   3  262.79    8.30
   4  -3   3  218.35    7.37
  -4   3  -3  246.23    7.95
  -4  -3  -4   45.02    5.90
  -4   3  -4   39.00    3.13
   4   3   4   38.50    3.19
   4  -3   4   39.95    3.89
  -4   3  -4   47.99    5.76
   4   3   4   41.12    3.77
  -4  -3  -5   52.53    6.20
  -4   3  -5   62.42    4.61
   4   3   5   57.22    4.29
   4  -3   5   36.88    3.49
  -4   3  -5   74.07    8.45
   4   3   5   51.58    4.55
  -4  -3  -6  741.77   22.81
  -4   3  -6  771.25   21.94
   4   3   6  754.16   21.50
   4  -3   6  718.77   21.19
   4   3   6  801.05   23.90
  -4  -3  -7  345.39   15.01
  -4   3  -7  414.75   16.51
   4   3   7  326.20   13.04
   4  -3   7  356.72   15.15
  -4   3  -7  381.63   21.75
   4   3   7  343.55   14.81
  -4  -3  -8  130.05    9.17
  -4   3  -8  101.19    4.71
   4   3   8   81.38    3.82
   4  -3   8  110.35    5.91
  -4   3  -8   89.16   10.15
   4   3   8   78.39    5.25
  -4   3  -9   22.06    2.62
   4  -3   9   43.81    3.90
  -4   3  -9   30.32    4.24
   4   3   9   37.28    4.60
  -4  -3 -10   89.12    9.21
  -4   3 -10   73.61    6.80
   4  -3  10   67.80    5.79
  -4   3 -10   72.14    9.28
   4   3  10   71.02    6.17
  -4  -3 -11  207.44   16.77
   4  -3  11  238.37   16.30
  -4   3 -11  253.56   22.03
   4   3  11  255.91   17.50
  -4  -3 -12  131.99   19.52
   4  -3  12  187.24   23.32
  -4   3 -12  159.03   25.38
   4   3  12  179.88   22.59
   4  -3  13  228.89   23.23
  -4   3 -13  148.48   22.11
   4   3  13  195.84   20.22
  -4  -3 -14   35.10    5.91
   4  -3  14   37.71    5.11
   4   3  14   29.99    4.73
  -4  -3 -15    7.10    2.02
   4  -3  15   14.31    3.70
  -4   3 -15    4.64    1.80
   4   3  15    2.44    1.88
  -4   4  17   16.25    4.62
   4   4 -17   15.26    4.91
  -4   4  16    6.43    2.14
   4   4 -16    5.97    2.12
  -4   4  15   51.91    6.41
   4   4 -15   43.20    7.14
  -4   4  14   21.21    4.74
   4   4 -14   24.47    5.73
  -4   4  13    9.33    2.39
   4   4 -13    5.75    1.54
  -4   4  12   24.62    3.04
   4   4 -12   20.45    3.40
   4  -4 -12   10.62    1.37
  -4   4  12   28.03    2.50
  -4  -4  11    5.97    1.46
  -4   4  11    7.94    3.69
   4  -4 -11    2.49    0.93
   4   4 -11    4.57    1.25
  -4   4  11    9.60    2.39
  -4  -4  10   85.48    4.18
   4   4 -10   89.92   11.68
   4  -4 -10   84.52    4.39
  -4   4  10   94.27    4.73
   4   4 -10   87.31    4.17
  -4  -4   9   34.81    2.21
  -4   4   9   32.56    3.04
   4   4  -9   34.50    4.61
   4  -4  -9   38.97    2.57
  -4   4   9   35.84    2.26
   4   4  -9   39.05    2.26
  -4  -4   8  272.81   10.99
  -4   4   8  248.88   10.77
   4   4  -8  266.82   11.92
   4  -4  -8  300.12   12.26
  -4   4   8  239.31    9.77
   4   4  -8  287.69   11.62
  -4  -4   7   47.91    2.11
  -4   4   7   36.85    3.01
   4   4  -7   47.46    5.89
   4  -4  -7   43.11    2.26
  -4   4   7   30.83    1.92
   4   4  -7   31.85    1.81
  -4  -4   6  137.18    4.60
  -4   4   6  131.33    5.36
   4   4  -6  167.15   16.99
   4  -4  -6  118.87    4.43
  -4   4   6  126.97    4.40
   4   4  -6  148.38    5.02
  -4  -4   5  765.38   17.38
  -4   4   5  710.28   16.62
   4   4  -5  756.35   18.62
   4  -4  -5  721.25   16.62
  -4   4   5  671.43   15.41
   4   4  -5  694.02   15.82
  -4  -4   4  183.05   12.56
  -4   4   4  105.87    7.74
   4   4  -4  129.07   11.96
   4  -4  -4  183.15   12.80
  -4   4   4  101.19    7.19
   4   4  -4  104.06    7.37
  -4  -4   3  372.80    9.02
  -4   4   3  404.80    9.94
   4   4  -3  458.53   11.39
   4  -4  -3  343.08    8.71
  -4   4   3  419.30   10.08
   4   4  -3  416.03   10.01
  -4  -4   2 1892.16   41.70
  -4   4   2 1627.57   36.06
   4   4  -2 1828.32   40.62
   4  -4  -2 1910.74   53.71
  -4   4   2 1644.37   36.46
   4   4  -2 1647.17   36.47
  -4  -4   1  710.53   16.39
  -4   4   1  556.56   13.03
   4   4  -1  626.46   14.81
  -4   4   1  577.83   13.68
   4   4  -1  589.42   13.80
  -4  -4   0  212.93   14.91
  -4   4   0  279.38    7.04
   4   4   0  315.77    8.06
   4  -4   0  218.05   15.30
  -4   4   0  283.93    7.32
   4   4   0  284.81    7.43
  -4  -4  -1  362.08   12.97
  -4   4  -1  362.10    8.76
   4   4   1  367.38    9.00
   4  -4   1  331.61    8.75
  -4   4  -1  345.11    8.72
   4   4   1  339.15    8.67
  -4  -4  -2  551.06   13.88
  -4   4  -2  462.25   10.80
   4   4   2  447.85   10.68
  -4   4  -2  455.31   11.05
   4   4   2  482.74   11.90
  -4  -4  -3  589.23   18.15
  -4   4  -3  576.61   16.55
   4   4   3  529.04   15.43
   4  -4   3  573.27   17.07
  -4   4  -3  575.22   17.30
  -4  -4  -4  349.87   16.43
  -4   4  -4  343.13   10.17
   4   4   4  303.19    9.17
   4  -4   4  328.86   10.76
  -4   4  -4  331.84   10.71
   4   4   4  331.77   10.78
  -4  -4  -5  426.21   21.31
  -4   4  -5  424.94   16.84
   4   4   5  357.26   14.28
   4  -4   5  413.36   17.26
  -4   4  -5  345.25   15.95
   4   4   5  367.19   15.50
  -4  -4  -6  171.22   11.60
  -4   4  -6  176.20    7.55
   4   4   6  153.39    6.63
   4  -4   6  149.14    7.82
   4   4   6  169.77    8.51
  -4  -4  -7  189.47   11.21
  -4   4  -7  284.76   12.45
   4   4   7  251.02   10.96
   4  -4   7  163.97    8.76
  -4   4  -7  265.35   17.71
   4   4   7  253.58   12.35
  -4  -4  -8  217.42   13.58
  -4   4  -8  243.54   11.43
   4  -4   8  193.17    9.50
  -4   4  -8  272.08   17.31
   4   4   8  253.81   12.21
  -4  -4  -9  220.46   18.02
   4  -4   9  226.05   16.09
  -4   4  -9  189.32   15.41
   4   4   9  201.18   14.58
  -4  -4 -10   65.39    8.00
   4  -4  10   63.47    6.24
  -4   4 -10   40.58    7.31
   4   4  10   49.47    5.06
  -4  -4 -11   20.33    5.15
   4  -4  11   40.10    8.43
  -4   4 -11   33.70    8.30
   4   4  11   35.98    8.01
  -4  -4 -12  158.41   21.86
   4  -4  12  211.05   21.61
  -4   4 -12  122.90   18.09
   4   4  12  206.19   21.27
  -4  -4 -13   65.67   10.00
   4  -4  13   73.28    9.00
  -4   4 -13   48.67    9.82
   4   4  13   50.91    6.74
  -4  -4 -14   12.73    2.85
   4  -4  14   10.90    2.79
  -4   4 -14   10.47    2.87
   4   4  14    8.61    2.62
  -4   5  15   14.58    3.20
   4   5 -15   17.51    3.49
  -4   5  14  172.41   21.54
   4   5 -14  126.89   21.29
  -4   5  12  101.00   13.02
   4   5 -12   87.03   14.72
  -4   5  12   94.95   11.84
  -4   5  11  191.90   15.73
   4   5 -11  170.56   19.05
   4   5 -11  174.89   13.72
  -4   5  11  181.65   14.38
  -4   5  10  142.69   10.51
   4   5 -10  138.35   14.34
   4  -5 -10  146.78   10.09
   4   5 -10  146.54   10.04
  -4   5  10  146.54    9.92
  -4   5   9  119.81    8.78
   4   5  -9  130.33   14.48
   4  -5  -9  204.75    9.19
  -4   5   9  147.86    6.92
   4   5  -9  154.70    7.14
  -4  -5   8  196.37    8.84
  -4   5   8  193.38    9.27
   4   5  -8  208.07   12.53
   4  -5  -8  213.98    9.73
  -4   5   8  212.37    9.71
   4   5  -8  242.64   10.95
  -4  -5   7  139.45    6.50
  -4   5   7  146.38    7.43
   4   5  -7  166.60   18.34
   4  -5  -7  143.80    6.89
  -4   5   7  149.65    7.21
   4   5  -7  183.65    8.66
  -4   5   6   20.67    2.31
   4   5  -6   28.88    4.20
   4  -5  -6   54.71    3.24
  -4   5   6   29.07    2.54
   4   5  -6   26.77    2.35
  -4  -5   5  320.63   13.36
  -4   5   5  270.42   11.91
   4   5  -5  281.31   14.23
   4  -5  -5  327.57   13.92
  -4   5   5  264.82   11.40
   4   5  -5  287.20   12.15
  -4  -5   4  569.11   22.83
  -4   5   4  564.29   22.53
   4   5  -4  606.43   25.14
   4  -5  -4  560.93   22.41
  -4   5   4  589.82   23.53
   4   5  -4  587.02   23.27
  -4  -5   3  475.36   19.37
  -4   5   3  400.67   16.19
   4   5  -3  422.48   18.56
   4  -5  -3  482.58   19.38
  -4   5   3  404.96   16.44
   4   5  -3  392.22   15.80
  -4  -5   2  206.23    8.73
  -4   5   2  130.03   10.35
   4   5  -2  170.33   13.89
   4  -5  -2  207.28    9.20
  -4   5   2  151.46   12.03
   4   5  -2  139.86   11.00
  -4  -5   1  165.10   15.18
  -4   5   1  183.41   14.21
   4   5  -1  218.67   17.77
   4  -5  -1  146.05   11.57
  -4   5   1  203.30    8.81
   4   5  -1  196.56    8.49
  -4  -5   0   26.10    4.01
  -4   5   0   29.06    2.83
   4   5   0   59.23    6.98
   4  -5   0   20.35    3.00
  -4   5   0   35.87    3.49
   4   5   0   38.09    3.78
  -4  -5  -1  101.96   11.73
  -4   5  -1   74.31    6.06
   4   5   1   92.15    9.60
   4  -5   1   71.85    6.36
  -4   5  -1   79.95    6.75
   4   5   1   78.16    6.93
  -4  -5  -2   30.68    3.54
  -4   5  -2   22.56    1.70
   4   5   2   37.78    3.28
   4  -5   2   17.36    2.11
  -4   5  -2   25.06    2.50
   4   5   2   29.08    3.00
  -4  -5  -3   63.45    6.28
  -4   5  -3   45.68    2.61
   4   5   3   58.40    4.62
   4  -5   3   45.20    3.75
  -4   5  -3   46.28    3.29
   4   5   3   51.71    3.75
  -4  -5  -4   91.94    7.70
  -4   5  -4   91.90    4.50
   4   5   4   92.85    7.04
  -4   5  -4   96.72   10.68
   4   5   4  100.11    6.03
  -4  -5  -5    2.92    1.15
  -4   5  -5    6.91    1.28
   4   5   5    8.07    1.11
   4  -5   5   12.59    2.98
  -4   5  -5   14.39    2.48
   4   5   5   19.51    4.05
  -4  -5  -6   56.54    8.14
   4  -5   6   44.62    5.20
   4   5   6   60.86    7.03
  -4  -5  -7   17.43    3.91
   4  -5   7   20.99    3.98
  -4   5  -7   15.81    2.92
   4   5   7    8.96    3.16
  -4  -5  -8   64.35    8.43
   4  -5   8   54.50    5.63
  -4   5  -8   63.01    8.07
   4   5   8   86.86    8.01
  -4  -5  -9   19.46    4.40
   4  -5   9   17.56    4.90
  -4   5  -9    5.97    2.04
   4   5   9    7.84    3.32
  -4  -5 -10   38.65    6.08
   4  -5  10   39.67    5.32
  -4   5 -10   34.49    5.01
   4   5  10   32.57    5.08
  -4  -5 -11   50.74    8.20
   4  -5  11   49.34    7.02
  -4   5 -11   69.12   11.76
   4   5  11   83.74   11.43
  -4  -5 -12   -0.57    1.79
   4  -5  12    5.28    3.49
  -4   5 -12    2.94    1.12
   4   5  12   11.34    4.05
  -4   6  13   16.68    3.49
   4   6 -13   23.18    5.14
  -4   6  12    4.36    2.30
   4   6 -12    3.49    1.84
   4   6 -11   14.69    2.97
   4   6 -11   10.33    2.03
  -4   6  11   16.79    3.50
  -4   6  10   31.56    4.13
   4   6 -10   38.09    6.26
   4   6 -10   44.81    4.36
  -4   6  10   33.46    3.45
  -4   6   9    4.07    2.58
   4   6  -9    4.48    2.09
  -4   6   9    1.20    1.82
   4   6  -9    3.76    1.91
  -4   6   8   11.40    2.65
   4   6  -8    8.37    2.02
  -4   6   8   12.93    3.02
   4   6  -8    8.04    1.47
  -4   6   7  265.50   17.62
   4   6  -7  289.00   19.24
   4  -6  -7  268.23   17.48
  -4   6   7  274.39   17.93
   4   6  -7  302.24   19.64
  -4   6   6  264.11   18.06
   4   6  -6  259.64   23.89
   4  -6  -6  245.91   16.78
  -4   6   6  242.80   16.50
   4   6  -6  268.23   18.12
  -4  -6   5   16.08    2.04
  -4   6   5   21.57    3.34
   4   6  -5   17.44    3.07
   4  -6  -5   14.86    2.21
  -4   6   5   11.65    2.08
   4   6  -5   10.58    1.70
  -4  -6   4   62.03    8.12
  -4   6   4   61.72    6.53
   4   6  -4   72.39   11.57
   4  -6  -4   65.55    6.74
  -4   6   4   71.00    7.57
   4   6  -4   71.86    7.33
  -4  -6   3  145.49   13.27
  -4   6   3  124.87    8.88
   4   6  -3  124.88   13.70
   4  -6  -3  164.68    7.98
  -4   6   3  139.37    7.02
   4   6  -3  121.74    8.62
  -4  -6   2  149.53   14.61
  -4   6   2  141.37    6.87
   4   6  -2  136.66   13.61
   4  -6  -2  166.22    8.12
  -4   6   2  142.56    7.13
   4   6  -2  139.15    6.98
  -4  -6   1  124.02   14.53
  -4   6   1  130.88    6.35
   4   6  -1  120.80   13.09
   4  -6  -1  118.65    8.69
  -4   6   1  133.60    6.86
   4   6  -1  122.96    8.87
  -4  -6   0  448.83   19.71
  -4   6   0  466.25   19.93
   4   6   0  429.55   24.46
   4  -6   0  430.21   18.90
  -4   6   0  474.10   20.68
   4   6   0  451.51   19.60
  -4  -6  -1  256.67   17.60
  -4   6  -1  276.62   12.07
   4   6   1  265.56   17.52
   4  -6   1  257.93   12.03
  -4   6  -1  294.45   13.48
   4   6   1  276.93   12.71
  -4  -6  -2    1.64    1.00
  -4   6  -2    7.83    1.61
   4   6   2    7.25    1.78
   4  -6   2    3.67    2.05
  -4   6  -2    4.02    2.19
   4   6   2    4.92    1.99
  -4  -6  -3  187.80   17.07
   4   6   3  132.58   11.85
   4  -6   3  129.94    9.61
  -4   6  -3  147.33   10.51
   4   6   3  161.84   11.63
  -4  -6  -4  303.92   25.51
   4  -6   4  290.99   19.45
  -4   6  -4  291.08   19.10
  -4  -6  -5   12.36    2.89
   4  -6   5    7.26    2.29
  -4   6  -5   16.22    3.27
   4   6   5   19.26    2.96
  -4  -6  -6   64.58   10.11
   4   6   6   46.39    9.46
  -4  -6  -7  122.03   15.15
   4  -6   7  122.49   10.66
  -4   6  -7  106.20   13.40
   4   6   7  150.70   13.07
  -4  -6  -8   21.88    3.38
   4  -6   8   20.44    3.26
  -4   6  -8   30.52    4.97
   4   6   8   48.93    6.37
  -4  -6  -9   10.02    3.49
   4  -6   9    6.88    2.89
  -4   6  -9    5.92    1.83
   4   6   9    7.32    2.92
  -4  -6 -10   68.46   11.79
   4  -6  10   78.75   11.22
  -4   6 -10   71.28   12.98
   4   6  10   90.11   12.63
  -4   7  11   48.70    8.08
   4   7 -11   27.62    6.04
  -4   7  11   51.24    7.71
  -4   7  10   31.56    4.85
   4   7 -10   47.53    9.87
  -4   7  10   65.79    9.22
   4   7 -10   47.86    6.89
  -4   7   9   21.56    3.48
   4   7  -9   42.54    6.83
  -4   7   9   30.18    4.10
   4   7  -9   37.37    4.84
  -4   7   8   72.49    9.61
   4   7  -8   64.95   11.10
  -4   7   8   72.05    9.30
   4   7  -8   70.37    8.96
  -4   7   7   69.13    7.65
   4   7  -7   61.92   10.76
  -4   7   7   86.22    9.34
   4   7  -7   84.28    8.84
  -4   7   6   38.01    3.88
   4   7  -6   47.52    7.49
   4  -7  -6   21.19    2.62
  -4   7   6   42.69    4.29
   4   7  -6   44.37    4.41
  -4   7   5   53.51    5.00
   4   7  -5   62.45    8.14
   4  -7  -5   29.83    3.26
  -4   7   5   58.38    5.57
   4   7  -5   72.10    6.49
  -4   7   4   30.55    6.24
   4   7  -4   32.92    7.36
   4  -7  -4   32.30    6.58
  -4   7   4   36.28    7.49
   4   7  -4   39.77    7.95
  -4  -7   3   22.49    5.38
  -4   7   3   24.88    5.22
   4   7  -3   26.46    6.71
   4  -7  -3   30.34    6.34
  -4   7   3   32.19    6.58
   4   7  -3   25.75    5.30
  -4  -7   2    6.40    2.20
  -4   7   2    9.54    2.29
   4   7  -2   19.29    4.62
   4  -7  -2    8.28    2.53
  -4   7   2   16.68    4.17
   4   7  -2   14.91    3.79
  -4  -7   1   42.22    9.61
  -4   7   1   28.45    5.74
   4   7  -1   36.27    8.20
   4  -7  -1   40.43    8.23
  -4   7   1   41.69    8.59
   4   7  -1   30.75    6.36
  -4  -7   0   26.55    6.17
  -4   7   0   24.86    5.04
   4   7   0   35.03    7.92
   4  -7   0   24.79    5.16
  -4   7   0   23.90    5.04
   4   7   0   26.42    5.67
  -4  -7  -1   24.65    5.84
   4   7   1   24.16    5.11
   4  -7   1   11.95    2.92
  -4   7  -1   22.38    4.76
   4   7   1   21.43    4.53
  -4  -7  -2   28.51    3.94
   4  -7   2   12.27    2.88
  -4   7  -2   15.57    3.18
   4   7   2   23.93    3.38
  -4  -7  -3   39.86    5.85
   4  -7   3   22.36    3.06
  -4   7  -3   17.46    3.22
   4   7   3   32.02    3.62
  -4  -7  -4    8.69    2.10
  -4   7  -4    2.94    1.75
  -4  -7  -5    4.08    2.27
   4  -7   5    4.45    3.17
  -4   7  -5    8.40    2.56
   4   7   5    8.86    4.24
  -4  -7  -6    5.76    1.86
   4  -7   6    7.58    3.13
   4   7   6    7.43    2.76
  -4  -7  -7    1.42    1.72
   4  -7   7    3.51    2.18
  -4   7  -7   -1.36    1.71
   4   7   7    7.46    3.93
  -4  -7  -8   36.48    6.63
   4  -7   8   39.82    7.67
  -4   7  -8   18.53    4.13
   4   7   8   30.23    5.42
  -4   8   6   16.14    4.42
   4   8  -6   24.51    5.01
  -4   8   6   19.17    5.17
   4   8  -6   21.35    4.08
  -4   8   5   59.44    8.81
   4   8  -5   53.26    8.65
  -4   8   5   69.18   10.46
   4   8  -5   61.44    9.13
  -4   8   4   21.98    3.71
   4   8  -4   24.81    4.23
   4  -8  -4    8.81    1.90
  -4   8   4   19.12    3.32
   4   8  -4   29.16    4.60
   4   8  -3    7.01    1.88
   4  -8  -3    6.09    1.76
  -4   8   3    5.22    2.12
   4   8  -3    5.23    2.35
   4   8  -2   10.67    2.69
   4  -8  -2    2.86    1.28
  -4   8   2    2.58    1.86
   4   8  -2    0.90    1.67
   4   8  -1   34.19    7.38
   4  -8  -1   24.57    4.19
  -4   8   1   44.15    6.78
   4   8  -1   44.43    6.39
   4  -8   0   38.43    5.66
  -4   8   0   41.64    6.36
   4   8   0   63.08    9.12
  -4  -8  -1   42.67    8.78
   4  -8   1   45.55    6.71
  -4   8  -1   45.41    6.68
   4   8   1   60.26    8.68
  -4  -8  -2   66.06   11.57
   4  -8   2   93.96   13.95
  -4   8  -2  128.11   18.47
   4   8   2  134.37   20.29
   4  -8   3    9.30    2.99
  -4   8  -3   18.25    4.87
   4   8   3   32.97    5.49
  -5   0  18   12.62    2.63
   5   0 -18   13.73    2.60
  -5   0  17   45.00    6.25
   5   0 -17   26.50    7.25
  -5   0  16  280.30   34.30
   5   0 -16  260.46   33.85
  -5   0  15  255.78   17.05
  -5   0  14   35.65    3.86
   5   0 -14   14.70    2.04
  -5   0  13  407.52   18.25
   5   0 -13  385.69   17.10
  -5   0  12  767.26   31.43
   5   0 -12  729.17   29.73
  -5   0  11    8.25    3.63
   5   0 -11    5.24    1.65
  -5   0  10  509.14   15.34
   5   0 -10  539.73   15.88
  -5   0   9 1211.25   27.33
   5   0  -9 1217.35   27.30
  -5   0   8  224.53   15.53
   5   0  -8  199.73   13.78
  -5   0   7 1076.80   31.56
   5   0  -7  867.99   24.93
  -5   0   6 2377.79  159.12
   5   0  -6 2307.54  154.38
   5   0  -6 1939.74  129.64
  -5   0   5  247.88    7.95
   5   0  -5  223.11    6.65
  -5   0   4   95.97    6.17
   5   0  -4   98.62    6.27
   5   0  -4   87.71    5.33
  -5   0   3  258.77    7.14
   5   0  -3  231.41    6.41
  -5   0   1  121.74    7.64
   5   0  -1  134.34    8.26
   5   0   0  417.16   10.76
  -5   0  -1  238.95    7.69
   5   0   1  241.74    7.66
  -5   0  -2   13.30    1.96
   5   0   2   14.13    1.49
  -5   0  -3  304.26    9.67
   5   0   3  293.27    9.22
  -5   0  -4    9.31    2.44
   5   0   4    9.04    1.46
  -5   0  -5    7.23    1.63
   5   0   5    9.74    1.64
  -5   0  -6  900.63   25.87
   5   0   6  842.14   24.13
  -5   0  -7   54.85    4.91
   5   0   7   44.31    4.11
  -5   0  -8    3.08    1.78
   5   0   8    6.95    2.18
  -5   0  -9   10.10    2.23
   5   0   9    5.78    1.32
  -5   0 -10    7.12    1.74
   5   0  10   10.29    2.96
  -5   0 -11  120.32   12.45
   5   0  11   98.30    7.01
  -5   0 -12   73.75   11.47
   5   0  12   61.01    7.79
  -5   0 -13  156.31   20.20
  -5   0 -14   33.41    5.60
  -5   0 -15    3.60    1.14
   5   0  15   -0.77    1.68
  -5  -1  18   12.14    2.85
  -5   1  18   20.75    3.97
   5   1 -18   14.36    3.10
  -5  -1  17   38.93    5.50
  -5   1  17   32.57    4.75
   5  -1 -17   31.75    4.97
   5   1 -17   26.77    7.07
  -5  -1  16   84.28    7.16
  -5   1  16   87.81    7.82
   5   1 -16   71.78    9.38
   5  -1 -16   77.30    8.38
  -5  -1  15   46.54    4.52
  -5   1  15   75.49    6.96
   5   1 -15   65.89    8.84
   5  -1 -15   56.89    5.07
  -5  -1  14   15.39    2.09
  -5   1  14   10.33    3.28
   5   1 -14   10.15    2.46
   5  -1 -14   13.90    1.94
  -5  -1  13   26.57    3.45
  -5   1  13    9.77    2.48
   5   1 -13   10.71    2.40
   5  -1 -13   15.92    2.13
  -5  -1  12  176.42    7.98
  -5   1  12  170.34    8.03
   5   1 -12  184.85    8.38
   5  -1 -12  166.45    7.58
  -5  -1  11   55.41    4.90
  -5   1  11   47.08    4.59
   5   1 -11   55.97    4.95
   5  -1 -11   55.63    4.85
  -5  -1  10  202.35    6.74
  -5   1  10  217.20    7.44
   5   1 -10  204.10    6.87
   5  -1 -10  195.26    6.51
  -5  -1   9   44.98    3.64
  -5   1   9   44.78    3.85
   5   1  -9   47.01    3.95
   5  -1  -9   52.58    4.24
  -5   1   8  432.19   10.79
   5   1  -8  387.80    9.47
  -5   1   8  418.96    9.40
   5  -1  -8  350.76    7.78
   5   1  -8  354.21    7.81
  -5  -1   7  100.97    3.86
  -5   1   7  120.17    4.70
   5  -1  -7  105.34    4.14
  -5   1   7  123.73    4.45
   5   1  -7  110.98    3.88
   5  -1  -7   83.72    2.66
   5   1  -7  103.65    3.26
  -5   1   6  200.35    6.88
   5   1  -6  205.34    6.82
  -5   1   6  195.48    7.26
   5   1  -6  163.11    5.01
  -5  -1   5  695.72   20.52
  -5   1   5  572.03   17.16
   5   1  -5  611.88   18.23
   5  -1  -5  705.63   20.84
  -5   1   5  655.12   19.65
   5   1  -5  577.35   16.94
   5  -1  -5  603.57   17.49
   5   1  -5  510.35   14.94
  -5  -1   4  670.63   19.82
  -5   1   4  801.12   23.68
   5   1  -4  835.75   24.50
   5  -1  -4  670.47   19.81
  -5   1   4  735.79   21.85
   5   1  -4  722.82   21.29
   5   1  -4  741.57   21.57
  -5  -1   3  634.35   18.75
  -5   1   3  794.30   23.43
   5   1  -3  854.02   25.03
  -5   1   3  693.01   20.75
   5   1  -3  786.21   22.94
  -5  -1   2 1234.86   11.29
   5   1  -2 1152.17   10.36
  -5  -1   1 1178.75   34.31
  -5   1   1 1133.11   33.05
   5   1  -1 1182.18   34.40
   5  -1  -1 1204.65   35.08
  -5   1   1 1059.52   31.09
   5   1  -1 1120.10   32.66
  -5  -1   0  854.66   25.10
  -5   1   0 1024.29   29.92
   5   1   0 1218.11   35.47
   5  -1   0  906.48   26.62
  -5   1   0 1158.58   34.22
  -5  -1  -1  552.31   16.56
  -5   1  -1  689.47   20.39
   5   1   1  753.34   22.21
   5  -1   1  569.92   17.10
  -5   1  -1  712.03   21.51
  -5  -1  -2 1439.69   96.48
  -5   1  -2 1251.19   36.40
   5   1   2 1336.79   38.85
   5  -1   2 1366.10   39.73
  -5   1  -2 1282.71   37.98
  -5   1  -3  609.60   18.19
   5   1   3  624.92   18.57
   5  -1   3  587.97   17.64
  -5   1  -3  604.62   20.65
  -5  -1  -4  299.54    7.78
  -5   1  -4  202.72   14.05
   5   1   4  174.01   12.06
   5  -1   4  275.61    7.30
  -5   1  -4  194.22   14.02
  -5  -1  -5  769.39   17.86
  -5   1  -5  797.67   18.32
   5   1   5  749.09   17.16
   5  -1   5  727.37   16.85
  -5   1  -5  788.42   20.69
  -5  -1  -6  378.49   11.76
  -5   1  -6  498.76   14.79
   5   1   6  479.65   14.13
   5  -1   6  351.29   11.04
  -5   1  -6  484.65   16.39
  -5  -1  -7  270.91   14.43
  -5   1  -7  405.53   16.38
   5   1   7  395.73   15.92
  -5  -1  -8  430.40   18.10
  -5   1  -8  484.43   20.06
   5   1   8  433.73   17.91
   5  -1   8  388.01   16.38
  -5  -1  -9  453.65   20.79
  -5   1  -9  379.73   19.24
   5   1   9  307.73   13.69
   5  -1   9  416.20   18.44
  -5   1  -9  342.60   15.80
   5   1   9  312.95   14.77
  -5   1 -10  178.36   14.26
  -5  -1 -10  159.05   14.37
   5   1  10  141.19    9.88
   5  -1  10  135.03    9.67
   5   1  10  156.31   11.52
  -5  -1 -11  125.37   12.90
  -5   1 -11   92.15   10.21
   5   1  11   78.31   10.15
   5  -1  11   93.64    6.80
   5   1  11   74.23   10.07
  -5   1 -12   23.34    5.24
   5  -1  12   18.89    4.17
   5   1  12   14.87    3.76
  -5   1 -13  137.24   17.67
  -5  -1 -13  136.42   17.34
   5  -1  13  127.42   13.10
   5   1  13  153.18   15.92
  -5   1 -14   35.21    6.14
  -5  -1 -14   28.33    5.44
   5  -1  14   27.41    4.32
   5   1  14   30.26    4.93
  -5   2  18   93.78   13.90
   5   2 -18   63.08   12.42
  -5   2  17  102.58   11.85
   5   2 -17   75.05   12.07
  -5  -2  16   67.89    7.39
  -5   2  16   52.40    6.30
   5   2 -16   51.27    7.89
  -5   2  15  102.69   13.21
   5   2 -15   77.73   13.18
   5  -2 -15  122.07   15.09
  -5  -2  14  168.97   11.31
  -5   2  14  179.25   12.48
   5   2 -14  158.67   17.97
   5  -2 -14  153.48   10.29
  -5  -2  13  468.53   20.25
  -5   2  13  395.42   17.90
   5   2 -13  310.69   15.66
   5  -2 -13  429.00   18.50
  -5  -2  12  422.20   18.57
  -5   2  12  302.42   14.09
   5   2 -12  272.99   13.61
   5  -2 -12  435.65   19.17
  -5  -2  11  479.87   19.81
  -5   2  11  537.00   22.57
   5   2 -11  486.66   20.30
   5  -2 -11  462.35   19.17
  -5   2   9  162.64    6.30
   5   2  -9  156.04    5.65
   5   2  -9  160.91    7.09
  -5   2   9  155.63    6.06
   5   2  -9  170.85    4.96
  -5  -2   8  646.53   14.98
  -5   2   8  657.47   15.67
   5   2  -8  600.54   14.17
   5  -2  -8  673.50   15.58
   5   2  -8  629.70   15.01
  -5   2   8  586.24   13.71
   5   2  -8  515.02   11.46
   5  -2  -8  518.58   11.57
  -5  -2   6  223.16   15.24
  -5   2   6  147.05   10.41
   5   2  -6  145.15   10.18
   5  -2  -6  232.73   15.94
  -5   2   6  134.42    9.57
   5   2  -6  147.83   10.10
  -5  -2   5  289.98    9.01
   5   2  -5  324.98   10.27
   5  -2  -5  304.36    9.52
  -5   2   5  295.11    9.08
   5   2  -5  285.13    8.60
  -5  -2   4 1012.72   29.56
  -5   2   4 1179.06   34.49
   5   2  -4 1248.67   36.37
   5  -2  -4 1059.76   30.98
  -5   2   4 1117.44   32.49
   5   2  -4 1061.18   30.75
  -5  -2   3  545.81   16.24
  -5   2   3  599.89   17.96
   5   2  -3  632.13   18.76
   5  -2  -3  578.14   17.31
  -5   2   3  615.02   18.68
   5   2  -3  576.39   17.00
  -5  -2   2  129.78    4.55
  -5   2   2  126.98    4.70
   5   2  -2  147.92    5.13
   5  -2  -2  143.95    5.28
  -5   2   2  146.12    7.14
   5   2  -2  132.61    4.65
  -5  -2   1  133.64    4.72
  -5   2   1  180.12    6.03
   5   2  -1  210.83    6.90
   5  -2  -1  135.08    5.06
  -5   2   1  214.05   10.41
   5   2  -1  195.21    6.47
  -5  -2   0   77.81    3.35
  -5   2   0  108.85    4.17
   5   2   0  120.19    4.31
   5  -2   0   73.73    3.42
  -5   2   0  119.06    7.49
   5   2   0  126.66    4.62
  -5  -2  -1  238.48    7.76
  -5   2  -1  201.85    6.65
   5   2   1  223.82    7.11
   5  -2   1  229.58    7.51
  -5   2  -1  195.86    6.70
   5   2   1  194.74    6.57
  -5  -2  -2  201.76   13.99
  -5   2  -2  178.06   12.37
   5   2   2  181.57   12.48
   5  -2   2  192.78   13.43
  -5   2  -2  184.13   14.70
   5   2   2  166.95   11.85
  -5  -2  -3   27.20    2.63
  -5   2  -3   14.76    1.85
   5   2   3   26.12    2.54
   5  -2   3   26.06    2.87
  -5   2  -3   26.62    3.77
   5   2   3   22.06    2.55
  -5  -2  -4   55.06    4.36
  -5   2  -4   67.53    5.18
   5   2   4   70.95    5.33
   5  -2   4   62.40    5.01
  -5   2  -4   83.69   10.33
  -5  -2  -5  106.20    4.28
  -5   2  -5  133.16    4.90
   5   2   5  134.51    4.81
   5  -2   5  106.87    4.68
  -5   2  -5  121.42   11.36
   5   2   5   92.22    4.35
  -5   2  -6  103.93    8.34
   5   2   6  103.80    8.30
   5  -2   6   90.46    7.63
  -5   2  -6  114.87   13.53
   5   2   6   64.50    5.92
  -5  -2  -7    2.38    1.36
  -5   2  -7    4.28    1.87
   5   2   7    4.36    1.89
   5  -2   7    6.78    3.58
  -5   2  -7   12.64    2.57
   5   2   7    2.74    3.03
  -5  -2  -8  184.25   12.02
  -5   2  -8  239.25   10.95
   5   2   8  190.24    8.80
   5  -2   8  147.23    7.60
   5   2   8  198.33   10.24
  -5  -2  -9  139.92   11.12
  -5   2  -9  173.67   11.58
   5   2   9  145.79    6.99
   5  -2   9  143.62    7.40
  -5   2  -9  177.05   12.99
   5   2   9  167.79    9.03
  -5  -2 -10   56.80    9.49
  -5   2 -10   38.83    6.17
   5  -2  10   66.75    9.07
  -5   2 -10   56.70    9.71
   5   2  10   34.64    5.35
  -5  -2 -11   68.30    8.38
  -5   2 -11   42.92    5.16
   5  -2  11   76.22    7.14
   5   2  11   33.40    4.01
  -5  -2 -12   33.11    4.68
  -5   2 -12   34.64    4.65
   5  -2  12   35.35    3.99
  -5   2 -12   32.34    4.34
   5   2  12   31.79    4.31
  -5  -2 -13    2.76    1.72
   5  -2  13    3.16    2.07
   5   2  13    5.64    3.20
  -5  -2 -14   51.87    9.90
   5  -2  14   64.93    9.64
   5   2  14   59.74    9.19
  -5   3  17    4.12    2.21
   5   3 -17   11.51    3.88
  -5   3  16   27.22    6.82
   5   3 -16   24.48    6.84
  -5   3  15   43.59    5.16
   5   3 -15   32.17    4.92
  -5  -3  14    5.69    2.09
  -5   3  14    6.01    3.34
   5   3 -14    6.28    2.28
   5  -3 -14    5.87    1.70
  -5  -3  13   29.68    4.15
  -5   3  13   21.25    4.10
   5   3 -13   23.22    4.83
   5  -3 -13   23.40    3.38
  -5  -3  12   31.33    3.68
  -5   3  12   40.49    5.18
   5   3 -12   24.11    4.18
   5  -3 -12   35.41    3.95
  -5  -3  11  166.96    7.69
  -5   3  11  143.30    7.59
   5   3 -11  144.75   12.47
   5  -3 -11  184.01    8.60
  -5   3  11  134.00    6.07
  -5  -3  10  153.38    6.80
  -5   3  10  135.20    7.05
   5  -3 -10  166.42    7.48
  -5   3  10  152.46    6.54
   5   3 -10  137.42    5.76
  -5  -3   9  155.62   12.05
  -5   3   9  141.42   11.38
   5   3  -9  147.04   11.73
   5  -3  -9  173.06   13.55
  -5   3   9  126.54    9.80
   5   3  -9  144.58   11.05
  -5  -3   8   57.85    4.72
   5   3  -8   26.07    2.81
   5  -3  -8   61.79    5.35
  -5   3   8   34.31    3.05
   5   3  -8   32.11    2.74
  -5  -3   7  458.23   13.41
  -5   3   7  491.18   14.91
   5   3  -7  465.04   14.05
   5  -3  -7  463.30   13.69
  -5   3   7  471.29   13.65
   5   3  -7  484.70   13.91
  -5  -3   6  221.64   15.16
  -5   3   6  225.87   15.72
   5   3  -6  227.39   15.80
   5  -3  -6  225.97   15.54
  -5   3   6  218.05   14.90
   5   3  -6  229.76   15.64
  -5  -3   5   73.55    5.37
  -5   3   5   38.54    3.54
   5   3  -5   49.66    4.20
   5  -3  -5   76.33    5.79
  -5   3   5   55.79    5.33
   5   3  -5   41.98    3.32
  -5  -3   4   93.08    6.67
  -5   3   4  103.47    7.64
   5   3  -4  101.04    7.32
   5  -3  -4  104.02    7.56
  -5   3   4  105.60    9.27
   5   3  -4   97.25    6.90
  -5  -3   3  321.37    8.06
  -5   3   3  287.77    7.61
   5   3  -3  307.87    7.91
   5  -3  -3  334.98    8.61
  -5   3   3  280.84    7.94
   5   3  -3  264.58    6.74
  -5  -3   2  237.93    7.45
  -5   3   2  209.47   14.49
   5   3  -2  237.38    7.65
   5  -3  -2  258.74    7.09
  -5   3   2  206.67   14.34
   5   3  -2  203.25   13.96
  -5  -3   1  639.68   14.85
  -5   3   1  713.80   16.46
   5   3  -1  815.48   18.64
   5  -3  -1  626.67   14.79
  -5   3   1  735.28   16.85
   5   3  -1  748.60   17.19
  -5  -3   0 1778.35   39.46
  -5   3   0 1920.58   53.81
   5   3   0 2179.14   61.09
  -5   3   0 1897.30   42.07
   5   3   0 2067.11   58.05
  -5  -3  -1  995.35   22.66
  -5   3  -1 1014.60   22.80
   5   3   1 1163.29   26.08
   5  -3   1 1036.92   23.68
  -5   3  -1 1035.59   23.83
   5   3   1 1108.66   25.20
  -5   3  -2    2.11    1.92
   5   3   2    0.27    1.53
   5  -3   2   25.02    2.95
  -5   3  -2    5.35    1.35
   5   3   2    9.41    4.84
  -5   3  -3   81.55    3.40
   5   3   3   82.25    3.50
  -5   3  -3   79.12    8.51
   5   3   3   67.55    3.79
  -5  -3  -4  783.48   23.03
  -5   3  -4  860.52   24.58
   5   3   4  817.05   23.44
   5  -3   4  756.04   22.32
  -5   3  -4  736.98   21.75
  -5  -3  -5  753.70   30.65
  -5   3  -5  853.76   33.49
   5   3   5  760.16   29.89
   5  -3   5  710.24   28.38
  -5   3  -5  740.39   30.53
   5   3   5  734.88   29.48
  -5  -3  -6  623.41   27.85
  -5   3  -6  903.13   36.55
   5   3   6  748.24   30.35
   5  -3   6  647.57   26.90
  -5   3  -6  735.88   30.33
   5   3   6  690.15   28.80
  -5  -3  -7  418.41   24.03
  -5   3  -7  524.82   22.74
   5   3   7  414.73   18.07
   5  -3   7  395.08   17.82
  -5   3  -7  421.76   18.95
   5   3   7  401.86   18.44
  -5   3  -8  169.46    7.76
   5   3   8  111.28    7.77
   5  -3   8  185.17    9.33
   5   3   8  123.47    9.57
  -5  -3  -9    2.79    1.71
  -5   3  -9    5.19    1.29
   5  -3   9    5.95    2.15
  -5   3  -9   16.12    3.43
   5   3   9    6.79    3.07
  -5  -3 -10  148.35   14.74
  -5   3 -10  124.01   12.65
   5  -3  10  153.69   12.83
  -5   3 -10  123.26   15.25
   5   3  10  141.78   12.19
  -5  -3 -11  203.57   19.77
   5  -3  11  211.92   16.87
  -5   3 -11  168.25   22.12
   5   3  11  226.30   18.32
  -5  -3 -12   14.44    4.23
   5  -3  12   18.40    5.28
  -5   3 -12   18.14    5.06
  -5  -3 -13   13.47    3.00
  -5   3 -13   14.22    2.83
   5   3  13   11.73    3.45
  -5   4  16   53.74    8.66
   5   4 -16   34.28    7.28
  -5   4  15   79.32    9.66
   5   4 -15   48.28    9.05
  -5   4  14  100.62   11.17
   5   4 -14   75.23   11.29
  -5   4  13   75.63   10.11
   5   4 -13   61.40   10.73
  -5   4  12  118.29   10.11
   5  -4 -12  132.38   10.66
  -5  -4  11  561.19   43.17
   5  -4 -11  567.84   43.77
  -5   4  11  522.22   33.23
  -5  -4  10  359.48   15.53
  -5   4  10  303.96   13.90
   5   4 -10  304.84   15.74
   5  -4 -10  380.09   16.53
  -5   4  10  330.08   14.24
   5   4 -10  319.23   13.65
  -5  -4   9    4.94    2.01
  -5   4   9   22.74    2.49
   5   4  -9   24.96    3.72
   5  -4  -9    5.32    2.17
  -5   4   9   20.40    1.84
   5   4  -9   26.08    1.91
  -5  -4   8  499.14   20.48
  -5   4   8  521.38   21.86
   5   4  -8  499.01   22.30
   5  -4  -8  442.28   18.33
  -5   4   8  503.04   20.60
   5   4  -8  551.35   22.43
  -5  -4   7  402.01   16.64
  -5   4   7  356.11   15.33
   5   4  -7  371.77   15.88
   5  -4  -7  396.93   16.61
  -5   4   7  347.95   14.45
   5   4  -7  382.49   15.73
  -5  -4   6   51.22    4.39
  -5   4   6   89.23    7.58
   5   4  -6  105.45    8.77
   5  -4  -6   36.13    3.42
  -5   4   6   91.63    7.36
   5   4  -6  104.54    8.29
  -5  -4   5  466.92   18.58
  -5   4   5  467.02   18.94
   5   4  -5  496.51   20.16
   5  -4  -5  494.13   19.83
  -5   4   5  453.05   18.04
   5   4  -5  479.17   19.00
  -5  -4   4  545.75   21.65
  -5   4   4  446.82   18.10
   5   4  -4  474.68   19.23
   5  -4  -4  522.93   21.00
  -5   4   4  408.20   16.38
   5   4  -4  422.31   16.91
  -5  -4   3   58.78    2.82
  -5   4   3   69.28    3.60
   5   4  -3   67.65    3.79
   5  -4  -3   54.68    3.08
  -5   4   3   58.48    2.90
   5   4  -3   63.12    3.05
  -5  -4   2  169.21    5.80
  -5   4   2  199.76    6.78
   5   4  -2  219.75    7.43
   5  -4  -2  163.86    5.89
  -5   4   2  195.96    6.58
   5   4  -2  182.20    6.09
  -5  -4   1  130.19    4.90
  -5   4   1  139.14    5.06
   5   4  -1  147.32    5.34
   5  -4  -1  145.05    5.80
  -5   4   1  152.73   11.84
   5   4  -1  139.82    4.96
  -5  -4   0  128.12   10.21
  -5   4   0  138.44   10.93
   5   4   0  152.10   11.98
   5  -4   0  136.79   11.03
  -5   4   0  133.81   15.78
   5   4   0  130.32   10.30
  -5  -4  -1  102.22    8.31
  -5   4  -1  135.89   10.64
   5   4   1  159.91   12.54
   5  -4   1  110.81    9.07
  -5   4  -1  132.83   15.37
   5   4   1  151.89   12.25
  -5  -4  -2  123.35   12.31
  -5   4  -2  118.76    9.39
   5   4   2  119.88    9.52
  -5   4  -2   98.63   11.84
   5   4   2  109.51    9.00
  -5  -4  -3  132.76    8.31
  -5   4  -3  117.56    5.54
   5   4   3  106.49    5.13
   5  -4   3  108.64    5.88
  -5   4  -3  122.40   13.03
   5   4   3  120.45    6.45
  -5  -4  -4  125.52   10.40
  -5   4  -4  130.63    6.08
   5   4   4  101.61    4.90
   5  -4   4   89.00    5.28
  -5   4  -4  118.52   12.37
   5   4   4  117.90    6.17
  -5  -4  -5    3.66    1.64
  -5   4  -5    7.88    1.69
   5   4   5    7.65    1.80
   5  -4   5    1.77    2.04
  -5   4  -5    3.48    1.38
   5   4   5   16.07    4.28
  -5  -4  -6    5.28    1.82
  -5   4  -6   15.07    2.02
   5   4   6    7.94    1.27
   5  -4   6    8.86    2.53
  -5   4  -6   15.10    2.91
   5   4   6   20.43    3.23
  -5  -4  -7    4.13    1.81
  -5   4  -7    2.95    0.94
   5  -4   7    7.87    3.26
   5   4   7    8.55    3.03
  -5  -4  -8  170.83   14.28
   5  -4   8  176.12   12.36
  -5   4  -8  145.69   18.16
   5   4   8  142.84   10.46
  -5  -4  -9   68.89   11.14
  -5   4  -9   61.22   10.16
   5   4   9   90.49   11.90
  -5  -4 -10   47.44    7.23
   5  -4  10   49.45    5.25
  -5   4 -10   60.56    9.07
   5   4  10   80.41    8.24
   5  -4  11   39.48    5.72
  -5   4 -11   28.97    7.50
   5   4  11   23.22    6.06
  -5  -4 -12   19.44    3.56
   5  -4  12   22.60    4.27
  -5   4 -12   26.02    5.41
   5   4  12   11.59    3.18
  -5   5  15    3.12    2.39
   5   5 -15    6.27    2.15
  -5   5  14    7.92    2.70
   5   5 -14   18.17    3.56
   5   5 -13   14.12    4.02
  -5   5  12   24.59    4.54
   5   5 -12   13.68    2.84
  -5   5  11    6.38    2.41
   5   5 -11    6.93    2.38
  -5   5  11   11.63    3.21
  -5   5  10   24.52    2.92
   5   5 -10   47.04    7.39
   5  -5 -10   64.23    5.62
  -5   5  10   47.45    4.44
   5   5 -10   47.08    4.15
  -5  -5   9   74.06    9.55
  -5   5   9   61.36    8.38
   5   5  -9   72.88   12.61
   5  -5  -9   64.10    8.41
  -5   5   9   66.73    8.76
   5   5  -9   77.05    9.93
  -5  -5   8   65.89    5.04
  -5   5   8   57.11    4.85
   5   5  -8   76.85    9.21
   5  -5  -8   49.57    4.08
  -5   5   8   57.65    4.47
   5   5  -8   80.84    5.91
  -5  -5   7   92.88    9.12
  -5   5   7   76.48    7.98
   5   5  -7   83.98   12.78
   5  -5  -7   96.94    9.69
  -5   5   7   73.19    7.35
   5   5  -7   88.34    8.71
  -5  -5   6   72.60    7.22
  -5   5   6   43.62    4.85
   5   5  -6   58.42    8.43
   5  -5  -6   67.72    7.05
  -5   5   6   43.35    4.65
   5   5  -6   49.62    5.23
  -5  -5   5  104.34    5.21
  -5   5   5  165.40    8.23
   5   5  -5  151.01   12.53
   5  -5  -5   97.59    5.32
  -5   5   5  133.43    6.46
   5   5  -5  134.92    6.45
  -5  -5   4  344.47   15.21
  -5   5   4  304.81   13.84
   5   5  -4  317.59   15.41
   5  -5  -4  336.66   15.17
  -5   5   4  295.68   13.29
   5   5  -4  297.08   13.23
  -5  -5   3  126.15    6.22
  -5   5   3   86.34    4.80
   5   5  -3  110.37    8.37
   5  -5  -3  141.62    7.38
  -5   5   3   80.17    4.60
   5   5  -3   84.88    4.54
  -5  -5   2   84.41    5.76
  -5   5   2  129.72    6.44
   5   5  -2  168.52   12.30
  -5   5   2  139.84    7.26
   5   5  -2  141.90    6.92
  -5  -5   1   79.03    7.32
  -5   5   1   72.26    4.12
   5   5  -1   93.81    9.16
   5  -5  -1   62.87    4.09
  -5   5   1   80.54    4.69
   5   5  -1   73.43    4.43
  -5  -5   0  133.79   11.50
  -5   5   0   85.55    4.61
   5   5   0   92.34    8.30
   5  -5   0  130.78    6.94
  -5   5   0   88.37    5.40
   5   5   0   83.21    4.90
  -5  -5  -1  353.04   20.63
  -5   5  -1  330.45   14.58
   5   5   1  354.36   15.78
   5  -5   1  347.15   15.95
  -5   5  -1  354.54   16.55
   5   5   1  344.72   15.52
  -5  -5  -2  658.40   31.40
  -5   5  -2  665.48   28.06
   5   5   2  668.59   31.69
   5  -5   2  654.23   28.15
  -5   5  -2  660.71   28.21
   5   5   2  723.01   48.11
  -5  -5  -3  312.32   17.28
  -5   5  -3  314.36   13.65
   5   5   3  310.55   16.12
  -5   5  -3  313.96   20.95
   5   5   3  317.90   14.48
  -5  -5  -4  150.17   14.51
  -5   5  -4  133.76    9.24
   5   5   4  117.36   10.48
   5  -5   4  142.91   10.70
  -5   5  -4  127.74   15.12
   5   5   4  110.21    8.40
  -5  -5  -5  239.24   18.55
  -5   5  -5  261.91   16.92
   5  -5   5  236.91   15.97
  -5   5  -5  259.87   21.52
  -5  -5  -6  202.09   19.38
   5  -5   6  181.55   14.82
  -5   5  -6  211.38   20.82
   5   5   6  227.45   18.32
  -5  -5  -7   88.81   14.29
   5  -5   7  101.63   13.12
   5   5   7   91.35   11.92
  -5  -5  -8  118.70   13.30
   5  -5   8  135.27   11.29
  -5   5  -8  142.30   17.34
   5   5   8  156.52   13.05
  -5  -5  -9  101.02   15.66
   5  -5   9  101.99   13.53
  -5   5  -9   86.76   13.00
   5   5   9  146.62   18.46
  -5  -5 -10   31.69    5.51
   5  -5  10   35.58    4.88
  -5   5 -10   21.91    3.65
   5   5  10   27.04    4.57
  -5  -5 -11   52.00   10.40
   5  -5  11   71.22   10.91
  -5   5 -11   36.68    7.21
   5   5  11   72.77   11.27
  -5   6  13   82.44   12.92
   5   6 -13   63.92   13.67
  -5   6  12  155.26   20.99
   5   6 -12  115.00   21.75
  -5   6  11   29.45    4.42
   5   6 -11   22.75    5.46
  -5   6  10   44.01    6.15
   5   6 -10   51.94    9.18
  -5   6  10   67.74    8.71
  -5   6   9   67.79    6.22
   5   6  -9   69.23   10.35
   5  -6  -9   75.23    6.27
  -5   6   9   75.06    6.47
   5   6  -9   83.01    6.94
  -5   6   8   11.08    2.50
   5   6  -8   19.37    3.10
   5  -6  -8    8.95    1.56
  -5   6   8   15.03    2.38
   5   6  -8    8.26    1.73
  -5   6   7   53.76    7.22
   5   6  -7   64.76   11.18
   5  -6  -7   45.94    9.07
  -5   6   7   57.86    7.57
   5   6  -7   61.42    7.86
  -5  -6   6  236.12   21.67
  -5   6   6  272.02   21.51
   5   6  -6  297.95   23.94
   5  -6  -6  299.04   23.45
  -5   6   6  282.45   22.10
   5   6  -6  289.12   22.53
  -5  -6   5  165.33   16.56
  -5   6   5  190.46   15.32
   5   6  -5  195.42   17.49
   5  -6  -5  188.71   15.10
  -5   6   5  190.33   15.18
   5   6  -5  178.40   14.11
  -5  -6   4   34.10    5.49
  -5   6   4    6.84    1.70
   5   6  -4   11.89    2.68
   5  -6  -4   14.76    2.56
  -5   6   4    9.65    2.05
   5   6  -4   14.29    2.63
  -5  -6   3   29.36    4.69
  -5   6   3   19.48    3.60
   5   6  -3   24.41    4.54
   5  -6  -3   15.28    2.81
  -5   6   3   12.72    2.62
   5   6  -3   13.78    2.48
  -5  -6   2  110.60   12.50
  -5   6   2  113.02    7.95
   5   6  -2  111.95   13.57
   5  -6  -2   87.24    6.49
  -5   6   2  115.10    8.22
   5   6  -2  108.35    7.79
  -5  -6   1   17.20    3.32
  -5   6   1    9.46    1.91
   5   6  -1   28.17    4.84
   5  -6  -1   20.48    4.00
  -5   6   1   30.22    4.85
   5   6  -1   29.59    4.54
  -5   6   0    4.65    1.16
   5   6   0   15.87    2.94
   5  -6   0    8.83    2.11
  -5   6   0   10.17    3.40
   5   6   0   10.27    2.25
  -5  -6  -1  142.26   12.25
  -5   6  -1  147.91   11.78
   5   6   1  135.38   15.51
   5  -6   1  129.37   10.71
  -5   6  -1  148.30   12.10
   5   6   1  153.71   12.66
  -5  -6  -2   23.28    3.07
  -5   6  -2   10.98    1.67
   5   6   2   18.03    2.66
   5  -6   2   17.88    3.16
  -5   6  -2   18.95    3.11
   5   6   2   16.73    2.87
  -5  -6  -3    8.03    2.04
   5   6   3    9.76    2.28
   5  -6   3    7.93    3.50
  -5   6  -3    6.38    2.54
   5   6   3    5.17    2.51
  -5  -6  -4   14.26    3.67
   5  -6   4    7.25    2.49
  -5   6  -4   18.49    4.93
   5   6   4   23.90    5.62
  -5  -6  -5   14.75    2.89
   5  -6   5   21.70    3.44
  -5   6  -5    8.73    2.10
  -5  -6  -6   37.35    5.95
   5  -6   6   34.59    4.97
  -5   6  -6   40.99    6.17
   5   6   6   39.84    5.45
  -5  -6  -7   21.86    6.52
   5  -6   7   22.04    6.49
   5   6   7   51.28    7.68
  -5  -6  -8    2.05    1.50
   5  -6   8    5.44    3.49
  -5   6  -8    2.35    1.22
   5   6   8   -6.81    2.84
  -5  -6  -9   17.60    3.66
   5  -6   9   22.73    4.65
  -5   6  -9   10.03    2.50
   5   6   9   12.99    3.39
  -5   7   9    1.39    1.93
   5   7  -9    6.26    3.21
  -5   7   9    2.45    1.74
   5   7  -9    2.83    2.18
  -5   7   8   11.65    3.27
   5   7  -8    9.92    2.05
  -5   7   8   14.90    3.03
   5   7  -8    8.52    2.22
  -5   7   7    5.68    1.78
   5   7  -7    3.40    2.06
   5  -7  -7    5.29    1.52
  -5   7   7    9.45    1.94
   5   7  -7   10.66    2.35
  -5   7   6    8.70    3.07
   5   7  -6    4.47    1.93
   5  -7  -6    2.50    1.39
  -5   7   6    2.57    2.41
   5   7  -6    7.30    2.63
  -5   7   5   37.56    5.27
   5   7  -5   46.54    8.95
   5  -7  -5   47.06    6.32
  -5   7   5   43.85    6.14
  -5   7   4   47.49    5.43
   5   7  -4   59.85    9.16
   5  -7  -4   52.13    5.90
  -5   7   4   40.73    4.77
   5   7  -4   57.12    6.36
  -5  -7   3   28.17    5.02
  -5   7   3   47.67    5.39
   5   7  -3   52.63    8.13
   5  -7  -3   32.81    4.41
  -5   7   3   38.45    4.62
   5   7  -3   48.34    5.59
  -5  -7   2   44.83    6.07
  -5   7   2   42.12    4.84
   5   7  -2   49.21    8.36
   5  -7  -2   46.29    5.68
  -5   7   2   56.61    6.38
   5   7  -2   50.29    5.55
  -5  -7   1   79.91   11.51
  -5   7   1   77.75    8.21
   5   7  -1   62.37    8.65
   5  -7  -1  109.35   11.68
  -5   7   1   76.37    8.34
   5   7  -1   86.23    9.24
  -5  -7   0   21.25    3.44
   5   7   0   28.63    4.00
   5  -7   0   11.57    2.68
  -5   7   0   28.19    3.82
   5   7   0   20.34    3.10
  -5  -7  -1   11.38    3.35
   5   7   1    9.00    3.19
   5  -7   1    4.49    2.78
  -5   7  -1    8.80    3.32
   5   7   1    6.67    2.38
  -5  -7  -2  134.25   20.30
   5  -7   2  124.83   15.66
  -5   7  -2  147.34   18.38
   5   7   2  121.45   15.20
  -5  -7  -3  149.07   20.90
   5  -7   3  144.74   16.18
  -5   7  -3  138.88   21.22
   5   7   3  193.30   21.27
  -5  -7  -4   40.84    6.80
   5  -7   4   48.63    7.97
  -5   7  -4   39.30    6.56
   5   7   4   75.32   10.92
  -5  -7  -5   81.71   14.26
   5  -7   5   74.15   11.42
  -5   7  -5   75.78   14.66
  -5  -7  -6   28.54    6.03
   5  -7   6   27.77    5.34
  -5   7  -6   23.20    4.43
   5   7   6   33.16    6.02
  -6   0  18  109.57   16.76
   6   0 -18   70.81   13.33
  -6   0  17   18.36    3.91
   6   0 -17   10.26    2.02
  -6   0  16    3.40    2.59
   6   0 -16    2.37    1.48
  -6   0  15  124.94   15.70
   6   0 -15  118.41   14.80
  -6   0  14   10.07    1.88
   6   0 -14    5.78    2.26
  -6   0  13   37.62    3.82
   6   0 -13   34.37    3.23
  -6   0  12  229.49   10.81
   6   0 -12  229.82   10.55
  -6   0  11    6.37    1.64
   6   0 -11    8.43    1.71
  -6   0  10  512.68   21.35
   6   0 -10  552.25   22.74
  -6   0   9  118.78    9.63
   6   0  -9  107.35    8.73
  -6   0   8  111.94    4.54
   6   0  -8  123.66    4.84
   6   0  -8   84.00    2.61
  -6   0   7    6.52    1.95
   6   0  -7    5.06    2.06
   6   0  -7    1.38    0.61
   6   0  -7    1.32    0.57
  -6   0   6  120.85    8.66
   6   0  -6  131.79    9.35
   6   0  -6   59.43    4.09
  -6   0   5    5.65    1.35
   6   0  -5    3.57    2.12
  -6   0   4  496.96   11.91
   6   0  -4  534.43   12.64
  -6   0   3 1260.45   28.19
   6   0  -3 1325.96   29.60
  -6   0   2  279.34    7.18
   6   0  -2  313.87    8.13
  -6   0   1   45.82    3.88
   6   0  -1   58.05    4.60
   6   0   0 1090.10   24.61
  -6   0  -1  473.85   11.46
   6   0   1  492.86   11.84
  -6   0  -2  220.03   15.25
   6   0   2  228.21   15.76
   6   0   3 1295.07   97.70
  -6   0  -4  843.17   33.32
   6   0   4  798.68   31.58
  -6   0  -5  473.87   19.22
   6   0   5  418.30   17.03
  -6   0  -6 1660.59   70.81
   6   0   6 1541.54   62.08
  -6   0  -7  431.21   19.11
   6   0   7  389.60   17.32
  -6   0  -8  248.52   19.36
   6   0   8  216.79   14.90
  -6   0  -9   39.23    6.29
   6   0   9   32.53    4.64
  -6   0 -10  166.39   24.10
   6   0  10  148.22   18.32
  -6   0 -11  313.58   27.42
   6   0  11  288.59   22.15
  -6   0 -12   28.78    7.60
   6   0  12   19.68    5.04
  -6   0 -13    7.54    2.23
  -6  -1  17   82.51   11.37
  -6   1  17   80.33   11.26
   6   1 -17   78.65   12.73
   6  -1 -17   79.44   11.48
  -6  -1  16   29.40    7.31
  -6   1  16   57.48    7.81
   6   1 -16   50.17    8.51
   6  -1 -16   33.64    4.38
  -6  -1  15   46.83    4.49
  -6   1  15   52.45    5.53
   6   1 -15   43.45    4.27
   6  -1 -15   49.96    4.55
  -6  -1  14  207.88   16.49
  -6   1  14  219.73   17.64
   6   1 -14  185.69   15.03
   6  -1 -14  244.98   19.31
  -6  -1  13  126.74    8.83
  -6   1  13  141.19    9.97
   6   1 -13  132.44    9.38
   6  -1 -13  124.95    8.77
  -6  -1  12  153.88    7.41
  -6   1  12  190.23    9.18
   6   1 -12  160.93    7.73
   6  -1 -12  172.57    8.35
  -6  -1  11  557.23   24.40
  -6   1  11  478.44   21.31
   6   1 -11  458.52   20.20
   6  -1 -11  561.48   24.49
  -6  -1  10  672.75   27.61
  -6   1  10  674.19   27.78
   6   1 -10  688.49   28.25
   6  -1 -10  656.74   26.89
  -6  -1   9  450.09   18.24
  -6   1   9  559.13   22.54
   6   1  -9  528.07   21.19
   6  -1  -9  474.11   19.02
   6   1  -9  440.34   17.04
  -6  -1   7  556.02   16.42
  -6   1   7  556.15   16.60
   6  -1  -7  613.55   17.97
   6   1  -7  444.55   12.64
   6  -1  -7  465.19   13.15
   6   1  -7  436.29   12.41
  -6  -1   6  232.75   16.01
  -6   1   6  261.14    7.12
   6   1  -6  277.29    7.21
   6  -1  -6  243.82    7.90
  -6   1   6  299.25    7.58
   6   1  -6  232.55   15.74
  -6  -1   5  259.82    6.90
  -6   1   5  200.28   13.93
   6   1  -5  218.73   15.09
   6  -1  -5  259.98    6.86
  -6   1   5  238.74    7.72
   6   1  -5  201.58   13.71
  -6  -1   4 1130.77   25.46
  -6   1   4  986.85   22.50
   6   1  -4 1002.24   22.62
  -6   1   4 1043.75   23.73
   6   1  -4  908.63   20.30
  -6  -1   3  495.94   11.87
   6   1  -3  501.54   12.01
   6  -1  -3  529.64   12.53
  -6   1   3  458.14   11.55
   6   1  -3  455.94   10.71
  -6   1   2  350.04    8.85
  -6   1   2  324.48    8.67
   6   1  -2  385.49    9.45
  -6  -1   1  359.26    9.03
  -6   1   1  278.19    7.33
   6   1  -1  333.09    8.58
   6  -1  -1  380.28    9.49
  -6   1   1  274.05   10.92
   6   1  -1  286.66    7.49
  -6  -1   0  575.66   13.65
  -6   1   0  614.45   14.55
   6   1   0  691.87   16.13
   6  -1   0  591.32   13.91
  -6   1   0  612.14   15.10
   6   1   0  573.34   13.62
  -6  -1  -1   88.53    6.57
  -6   1  -1  130.31    9.33
   6   1   1  150.53   10.64
   6  -1   1   87.52    6.52
  -6   1  -1  172.56   19.55
  -6  -1  -2  261.11    8.35
  -6   1  -2  249.20    7.93
   6   1   2  272.06    8.61
   6  -1   2  252.36    8.37
  -6   1  -2  261.99    9.16
  -6   1  -3  363.94   11.21
   6   1   3  351.63   10.75
   6  -1   3  330.84   10.37
  -6   1  -3  357.19   13.45
  -6  -1  -4   10.22    1.78
  -6   1  -4   11.57    2.40
   6   1   4   14.35    2.17
   6  -1   4   13.45    3.17
  -6   1  -4   19.68    4.05
  -6  -1  -5    9.13    1.82
  -6   1  -5   13.60    2.68
   6   1   5   11.96    2.25
   6  -1   5    8.38    2.13
  -6   1  -5   14.76    3.84
  -6  -1  -6  101.46    5.38
  -6   1  -6  112.27    5.73
   6   1   6  109.65    5.48
   6  -1   6   95.34    5.16
  -6   1  -6  109.69    6.40
  -6  -1  -7   32.26    3.89
  -6   1  -7   27.41    3.31
   6   1   7   29.58    3.55
   6  -1   7   35.18    4.26
  -6   1  -7   31.76    4.86
  -6   1  -8   81.05    6.28
  -6  -1  -8  110.63   11.04
   6   1   8   72.01    5.72
   6  -1   8  105.46    7.88
   6   1   8   71.24    6.06
  -6  -1  -9   57.17    9.55
  -6   1  -9   65.53   10.42
   6   1   9   50.97    6.97
   6  -1   9   59.60    8.17
   6   1   9   42.18    6.13
  -6   1 -10   36.50    8.13
  -6  -1 -10   21.60    5.02
   6   1  10   26.59    5.52
   6  -1  10   19.27    4.78
   6   1  10   21.78    4.86
  -6  -1 -11   58.19    8.02
  -6   1 -11   74.29    9.31
   6  -1  11   42.98    5.09
   6   1  11   53.72    6.61
  -6  -1 -12   95.18   13.79
  -6   1 -12   84.86   11.52
   6  -1  12   77.16    8.87
   6   1  12   73.90    9.00
  -6   1 -13   36.57    6.60
  -6  -1 -13   24.06    5.17
   6  -1  13   20.58    3.71
   6   1  13   25.12    4.77
  -6   2  17   43.17    7.06
   6   2 -17   35.49    6.91
  -6  -2  16   52.86    6.52
  -6   2  16   66.60    8.31
   6   2 -16   44.45    7.86
   6  -2 -16   42.97    5.19
  -6  -2  15    8.69    2.29
  -6   2  15   10.58    3.65
   6   2 -15    6.76    2.18
   6  -2 -15   11.43    2.10
  -6  -2  14    4.19    1.74
  -6   2  14    5.31    2.42
   6   2 -14    9.93    3.14
   6  -2 -14    5.12    2.24
  -6  -2  13   73.43    9.55
  -6   2  13   90.68    7.19
   6   2 -13   75.54   10.00
   6  -2 -13   87.67    6.37
  -6  -2  12   14.27    1.98
  -6   2  12   12.15    2.45
   6   2 -12   14.01    2.00
   6  -2 -12    8.87    1.79
  -6  -2  11   71.19    7.19
  -6   2  11   76.18    8.14
   6   2 -11   74.27    7.75
   6  -2 -11   76.12    7.76
  -6  -2  10   76.13    4.21
  -6   2  10   66.52    4.59
   6   2 -10   58.48    3.75
   6  -2 -10   71.24    4.17
  -6  -2   9  111.47    5.49
  -6   2   9   89.41    5.10
   6  -2  -9  112.19    5.59
  -6   2   9   89.68    4.33
   6   2  -9   97.42    4.14
  -6  -2   8  227.08    9.57
  -6   2   8  235.71   10.37
   6   2  -8  254.39   10.79
   6  -2  -8  229.09    9.73
  -6   2   8  240.11    9.75
   6   2  -8  240.44    9.55
  -6  -2   7  107.48    8.59
  -6   2   7  138.24   11.11
   6   2  -7  127.09   10.20
   6  -2  -7  101.57    8.17
  -6   2   7  135.16   10.90
   6   2  -7  124.18    9.54
  -6  -2   6   13.11    1.41
  -6   2   6    7.63    1.50
   6   2  -6    8.23    1.52
   6  -2  -6    7.10    1.33
  -6   2   6   16.00    2.71
   6   2  -6    9.02    0.98
  -6  -2   5  177.64    6.01
  -6   2   5  236.25    7.82
   6   2  -5  249.24    8.16
   6  -2  -5  180.85    6.25
  -6   2   5  217.46    7.18
   6   2  -5  217.16    6.66
  -6  -2   4   67.20    3.13
  -6   2   4   97.54    4.22
   6   2  -4   91.53    3.93
   6  -2  -4   67.49    3.20
  -6   2   4   78.24    4.88
   6   2  -4   87.39    3.31
  -6  -2   3  921.22   20.98
  -6   2   3  819.87   19.00
   6   2  -3  865.64   19.92
   6  -2  -3  963.67   21.97
  -6   2   3  772.77   18.04
   6   2  -3  798.84   18.11
  -6  -2   2  753.41   17.49
  -6   2   2  796.46   18.46
   6   2  -2  849.37   19.46
  -6   2   2  775.68   17.96
   6   2  -2  818.52   18.67
  -6   2   1  458.28   11.12
   6   2  -1  508.99   12.22
   6  -2  -1  371.87    9.33
  -6   2   1  446.45   12.03
   6   2  -1  491.13   11.87
  -6   2   0  157.54    5.56
   6   2   0  188.18    6.27
  -6   2   0  175.90    7.04
   6   2   0  159.96    5.94
  -6   2  -1  194.74    6.65
   6   2   1  218.31    7.35
  -6   2  -1  166.23   12.04
   6   2   1  180.05    6.44
  -6  -2  -2  879.41   25.50
  -6   2  -2  892.42   25.60
   6   2   2 1050.79   79.35
   6  -2   2  848.02   24.72
  -6   2  -2  856.74   25.14
   6   2   2  787.61   23.05
  -6  -2  -3  762.55   30.24
  -6   2  -3  863.18   33.95
   6   2   3  982.42   38.61
   6  -2   3  832.05   32.98
  -6   2  -3  773.78   31.58
   6   2   3  754.92   30.24
  -6  -2  -4  368.36   15.29
  -6   2  -4  356.80   14.57
   6   2   4  388.89   15.88
   6  -2   4  354.73   14.77
  -6   2  -4  333.69   14.95
   6   2   4  286.55   12.42
  -6   2  -5  321.05   13.63
   6   2   5  346.47   14.65
   6  -2   5  236.92   10.69
  -6   2  -5  303.31   24.58
   6   2   5  259.94   11.80
  -6  -2  -6  324.05   19.29
  -6   2  -6  354.49   15.79
   6   2   6  324.93   14.59
   6  -2   6  259.71   12.22
  -6   2  -6  293.59   16.98
   6   2   6  266.34   12.87
  -6  -2  -7  277.34   16.77
  -6   2  -7  253.97   11.47
   6   2   7  225.75   10.46
   6  -2   7  248.50   11.64
  -6   2  -7  240.98   18.01
   6   2   7  212.78   10.65
  -6  -2  -8  236.22   19.35
  -6   2  -8  264.93   17.39
   6   2   8  233.61   15.43
   6  -2   8  215.05   14.39
   6   2   8  229.57   15.56
  -6  -2  -9  312.06   28.34
  -6   2  -9  395.49   75.76
   6   2   9  322.51   25.08
   6  -2   9  304.74   24.02
   6   2   9  384.05   30.30
  -6  -2 -10   65.51    8.85
  -6   2 -10   98.17   10.34
   6  -2  10   64.99    5.85
  -6   2 -10   77.15    6.99
   6   2  10   71.77    6.97
  -6  -2 -11  102.44   15.54
  -6   2 -11   79.40   11.65
   6  -2  11   97.08   12.39
  -6   2 -11   72.25    9.86
   6   2  11   68.80    9.16
  -6  -2 -12   80.10   14.58
   6  -2  12  103.30   14.13
   6   2  12   77.53   11.04
  -6   3  16   42.71    6.48
   6   3 -16   25.51    5.42
  -6   3  15  259.61   31.99
   6   3 -15  173.12   24.88
  -6  -3  14   17.87    2.63
  -6   3  14   22.60    4.24
   6  -3 -14   20.54    2.77
  -6  -3  13  141.43   17.42
  -6   3  13  186.21   23.25
   6   3 -13  155.80   22.03
   6  -3 -13  162.63   20.03
  -6  -3  12  332.98   25.92
  -6   3  12  310.61   24.45
   6   3 -12  320.11   27.46
   6  -3 -12  348.78   27.16
  -6  -3  11    2.54    1.40
  -6   3  11    7.33    2.01
   6   3 -11    9.27    2.36
   6  -3 -11    5.59    2.09
  -6  -3  10  191.23    8.79
  -6   3  10  196.23    9.64
   6   3 -10  202.08    9.57
   6  -3 -10  209.27    9.70
  -6  -3   9  545.46   23.70
  -6   3   9  556.78   24.63
   6   3  -9  503.07   22.27
   6  -3  -9  563.52   24.54
  -6   3   9  504.21   22.13
   6   3  -9  508.98   21.78
  -6  -3   8  236.13   10.65
   6   3  -8  239.73   11.22
   6  -3  -8  237.81   10.86
  -6   3   8  239.85   10.71
   6   3  -8  256.09   11.17
  -6  -3   7  179.92    7.94
  -6   3   7  191.13    8.92
   6   3  -7  166.78    7.92
   6  -3  -7  198.68    8.92
  -6   3   7  171.48    9.89
   6   3  -7  168.65    7.20
  -6  -3   6  710.50   28.06
  -6   3   6  731.26   29.19
   6   3  -6  736.19   29.31
   6  -3  -6  696.82   27.54
  -6   3   6  679.08   26.72
   6   3  -6  679.27   26.60
  -6  -3   5  456.45   18.32
  -6   3   5  432.08   17.62
   6   3  -5  447.24   18.10
   6  -3  -5  462.11   18.61
  -6   3   5  434.33   17.63
   6   3  -5  446.57   17.73
  -6  -3   4  184.01   14.32
  -6   3   4   97.61    8.15
   6   3  -4  105.25    8.55
  -6   3   4  105.09   11.64
   6   3  -4   83.49    6.71
  -6   3   3   10.32    1.74
   6   3  -3   13.63    2.39
  -6   3   3   21.65    2.84
   6   3  -3   10.50    1.38
  -6  -3   2  570.06   22.72
  -6   3   2  554.72   22.10
   6   3  -2  634.28   25.27
   6  -3  -2  613.27   24.48
  -6   3   2  554.90   22.54
   6   3  -2  538.13   21.37
  -6  -3   1  408.94   16.63
  -6   3   1  422.53   17.08
   6   3  -1  476.41   19.27
  -6   3   1  412.53   17.01
   6   3  -1  409.47   16.51
  -6  -3   0  155.86   12.28
  -6   3   0  152.58   12.05
   6   3   0  177.78   14.01
   6  -3   0  162.09   12.79
  -6   3   0  155.41   15.31
   6   3   0  159.25   12.64
  -6  -3  -1  163.13   12.90
  -6   3  -1  178.52   13.92
   6   3   1  191.11    8.42
   6  -3   1  156.56   12.53
  -6   3  -1  181.57   14.43
   6   3   1  190.60    8.61
  -6  -3  -2   52.86    3.47
  -6   3  -2   25.66    2.25
   6   3   2   34.55    2.79
   6  -3   2   36.27    2.80
  -6   3  -2   33.48    5.14
   6   3   2   29.16    3.23
  -6  -3  -3  121.36    6.18
  -6   3  -3  127.66    6.14
   6   3   3  130.05    6.13
   6  -3   3  111.19    5.87
  -6   3  -3  123.53   11.97
   6   3   3  131.83    6.94
  -6  -3  -4   69.02    4.21
  -6   3  -4   83.87    4.67
   6   3   4   85.33    4.63
   6  -3   4   72.50    4.74
  -6   3  -4   79.52   10.26
   6   3   4   75.83    5.23
  -6  -3  -5  134.34   12.61
  -6   3  -5  154.95    7.49
   6   3   5  135.94    6.70
   6  -3   5  115.89    8.68
  -6   3  -5  125.41   12.54
   6   3   5  119.56    8.94
  -6  -3  -6   24.51    3.76
  -6   3  -6   17.41    2.07
   6   3   6   14.42    2.12
   6  -3   6   12.62    2.33
  -6   3  -6   15.41    2.73
   6   3   6   18.29    3.05
  -6  -3  -7   38.08    6.46
  -6   3  -7   18.27    2.85
   6   3   7   13.17    2.25
   6  -3   7   21.84    3.77
  -6   3  -7   20.48    3.92
   6   3   7   18.96    3.75
  -6   3  -8    2.58    1.27
   6  -3   8    1.94    1.82
  -6   3  -8    8.93    1.94
   6   3   8    4.90    4.14
  -6  -3  -9    7.71    1.93
   6  -3   9   17.65    3.79
  -6   3  -9   12.15    2.98
   6   3   9    9.43    4.53
  -6  -3 -10   72.37   11.54
   6  -3  10   66.72    8.79
  -6   3 -10   72.69   13.43
   6   3  10   82.78   11.01
  -6  -3 -11   12.17    2.96
   6  -3  11    6.16    2.15
  -6   3 -11   21.25    3.59
   6   3  11   17.16    3.68
  -6  -3 -12    5.81    1.71
   6  -3  12    8.50    3.49
  -6   3 -12    8.26    3.12
   6   3  12   11.93    4.66
   6   4 -15   18.83    5.49
  -6   4  14    7.85    3.45
   6   4 -14    5.06    1.26
  -6   4  13   15.03    2.88
   6   4 -13   18.30    3.34
   6  -4 -13    7.73    1.75
  -6  -4  12   30.53    3.13
  -6   4  12   40.12    4.30
   6  -4 -12   32.59    3.29
  -6  -4  11   23.09    2.90
   6   4 -11   35.10    4.99
   6  -4 -11   17.86    2.38
  -6  -4  10  127.54    8.73
  -6   4  10  121.51    8.87
   6   4 -10  115.09   13.30
   6  -4 -10  136.53    9.39
  -6  -4   9   18.83    2.97
  -6   4   9    8.99    2.45
   6   4  -9   28.41    5.06
   6  -4  -9    9.29    2.15
  -6   4   9   21.92    3.67
   6   4  -9   16.99    2.51
  -6  -4   8   35.72    3.96
  -6   4   8   34.45    4.28
   6   4  -8   40.24    4.96
   6  -4  -8   30.92    3.70
  -6   4   8   48.36    5.99
   6   4  -8   37.87    4.00
  -6  -4   7   51.34    5.26
  -6   4   7   61.65    6.69
   6   4  -7   64.31    6.84
   6  -4  -7   49.38    5.45
  -6   4   7   63.82    7.52
   6   4  -7   54.71    5.48
  -6  -4   6  201.21    9.21
  -6   4   6  185.46    9.17
   6   4  -6  191.28    9.22
   6  -4  -6  215.09   10.29
  -6   4   6  188.47   11.58
   6   4  -6  174.05    7.93
  -6  -4   5  290.50   13.02
  -6   4   5  226.99   10.72
   6   4  -5  225.07   10.63
   6  -4  -5  304.06   13.89
  -6   4   5  228.22   14.99
   6   4  -5  229.15   10.34
  -6  -4   4   23.10    2.26
  -6   4   4   26.00    2.48
   6   4  -4   29.56    2.86
   6  -4  -4   12.50    2.08
  -6   4   4   37.34    3.32
   6   4  -4   22.48    1.97
  -6  -4   3  229.99   10.12
  -6   4   3  314.75   13.54
   6   4  -3  345.62   14.80
   6  -4  -3  235.08   10.61
  -6   4   3  293.24   12.52
   6   4  -3  303.21   12.79
  -6  -4   2  504.47   20.98
  -6   4   2  523.71   21.64
   6   4  -2  574.65   23.84
   6  -4  -2  534.58   22.32
  -6   4   2  518.90   21.58
   6   4  -2  534.17   21.98
  -6  -4   1  591.66   25.73
  -6   4   1  547.35   23.77
   6   4  -1  645.58   28.09
   6  -4  -1  600.93   26.24
  -6   4   1  554.20   24.48
   6   4  -1  590.62   25.72
  -6  -4   0  224.87   10.48
  -6   4   0  153.88    7.38
   6   4   0  151.66    7.42
   6  -4   0  242.37   11.53
  -6   4   0  155.55   14.76
   6   4   0  143.42    7.05
  -6  -4  -1  278.86   12.85
  -6   4  -1  211.10    9.79
   6   4   1  230.68   10.91
  -6   4  -1  198.35   18.30
   6   4   1  229.12   10.77
  -6  -4  -2  362.56   16.15
  -6   4  -2  350.26   15.29
   6   4   2  352.70   15.43
   6  -4   2  383.77   17.14
  -6   4  -2  323.01   15.34
   6   4   2  360.86   16.01
  -6  -4  -3  264.99   17.36
  -6   4  -3  277.74   12.31
   6   4   3  229.19   10.45
   6  -4   3  221.79   10.69
  -6   4  -3  233.95   18.56
   6   4   3  262.67   12.40
  -6  -4  -4  179.79   16.79
  -6   4  -4  256.73   17.36
   6   4   4  189.57   13.07
   6  -4   4  156.77   11.32
  -6   4  -4  212.13   19.25
   6   4   4  233.58   16.30
  -6  -4  -5  192.30   14.94
  -6   4  -5  208.44   13.72
   6   4   5  161.26   10.81
   6  -4   5  152.15   10.70
  -6   4  -5  154.80   17.74
   6   4   5  172.60   12.39
  -6  -4  -6   97.14   11.22
  -6   4  -6   94.90    7.87
   6  -4   6  100.16    8.82
  -6   4  -6   58.84    7.87
  -6  -4  -7   36.61    8.43
  -6   4  -7   91.99   11.47
   6  -4   7   38.75    8.05
  -6   4  -7   71.87   11.33
   6   4   7   72.96    9.88
  -6  -4  -8   77.66   11.04
   6  -4   8   81.69    9.06
  -6   4  -8   92.73   13.42
   6   4   8   94.70   10.57
  -6  -4  -9  114.48   17.22
   6  -4   9  152.20   19.11
  -6   4  -9   92.55   15.83
   6   4   9  108.17   14.04
  -6  -4 -10   28.21    5.72
   6  -4  10   25.43    4.26
   6   4  10   48.71    7.67
  -6  -4 -11   21.29    5.46
   6  -4  11   14.06    3.05
  -6   4 -11   29.59    5.94
   6   4  11   31.89    6.28
  -6   5  13   70.70   10.22
   6   5 -13   55.35   11.04
  -6   5  12   48.95    6.28
   6   5 -12   42.83    7.25
  -6   5  11   63.94    7.59
   6   5 -11   58.52    9.43
   6  -5 -11   31.82    3.89
  -6   5  10   28.48    3.43
   6   5 -10   29.75    5.68
   6  -5 -10    7.83    1.33
  -6  -5   9   86.20   10.76
  -6   5   9   66.17    8.86
   6   5  -9   70.58   11.45
   6  -5  -9   90.95   11.41
  -6   5   9   58.90    7.74
  -6  -5   8  164.50   13.08
  -6   5   8  167.62   13.68
   6   5  -8  167.49   17.24
   6  -5  -8  151.78   12.36
   6   5  -8  168.46   13.29
  -6  -5   7  198.37   15.66
  -6   5   7  195.37   15.78
   6   5  -7  210.56   21.06
  -6   5   7  190.36   15.06
   6   5  -7  206.44   16.17
  -6  -5   6  177.50   11.76
  -6   5   6  116.35    8.61
   6   5  -6  158.45   18.14
   6  -5  -6  201.58   13.59
  -6   5   6  123.34    8.55
   6   5  -6  115.13    7.77
  -6  -5   5  144.07    9.75
  -6   5   5  122.79    8.76
   6   5  -5  141.46   16.49
   6  -5  -5  142.50    9.90
  -6   5   5  112.38    7.87
   6   5  -5  118.11    8.08
  -6  -5   4  214.28   14.63
  -6   5   4  235.11   16.11
   6   5  -4  259.39   17.78
   6  -5  -4  215.68   15.11
  -6   5   4  219.65   19.24
   6   5  -4  239.18   16.16
  -6  -5   3  154.48   10.73
  -6   5   3  128.12    9.24
   6   5  -3  154.77   11.11
   6  -5  -3  153.91   11.14
  -6   5   3  145.49   14.22
   6   5  -3  136.93    9.62
  -6  -5   2  121.36    8.75
  -6   5   2   93.86    6.97
   6   5  -2  101.89    7.53
   6  -5  -2  128.05    9.46
  -6   5   2   97.64   11.13
   6   5  -2  102.40    7.57
  -6  -5   1   32.81    3.21
  -6   5   1   19.97    2.18
   6   5  -1   31.23    3.12
   6  -5  -1   27.33    2.91
  -6   5   1   35.67    4.90
   6   5  -1   32.07    3.33
  -6  -5   0   10.02    2.22
   6   5   0    3.42    2.08
   6  -5   0    6.34    2.02
  -6   5   0   13.55    3.18
   6   5   0    2.51    2.42
  -6  -5  -1   21.46    3.80
  -6   5  -1   14.06    2.76
   6   5   1    9.12    2.27
   6  -5   1   15.73    2.90
  -6   5  -1    7.12    1.66
   6   5   1   13.78    2.50
  -6  -5  -2   12.40    2.70
  -6   5  -2   12.46    2.65
   6   5   2    9.05    1.99
   6  -5   2    4.52    2.02
  -6   5  -2    7.60    2.23
   6   5   2   15.09    3.07
  -6  -5  -3   65.69    9.10
  -6   5  -3   78.47    6.59
   6   5   3   62.15    5.69
  -6   5  -3   64.45    8.08
   6   5   3   78.39    7.13
  -6  -5  -4    4.72    1.56
  -6   5  -4    2.77    1.37
   6   5   4    4.08    1.82
   6  -5   4    6.49    2.82
  -6   5  -4    5.70    1.71
   6   5   4   10.19    3.83
  -6  -5  -5   33.95    5.03
   6  -5   5   26.77    3.49
  -6   5  -5   36.07    6.17
   6   5   5   47.92    5.70
  -6  -5  -6    8.05    1.88
   6  -5   6    0.21    2.03
  -6   5  -6    6.92    1.89
  -6  -5  -7    3.12    1.56
   6  -5   7    7.03    3.07
  -6   5  -7    7.09    2.63
   6   5   7    4.49    3.17
  -6  -5  -8    5.16    1.32
   6  -5   8    6.37    2.98
  -6   5  -8   13.68    2.97
   6   5   8   15.45    4.65
  -6  -5  -9    5.60    2.21
   6  -5   9   17.81    5.20
  -6   5  -9   11.58    3.48
   6   5   9   10.89    3.86
  -6   6  11    0.05    2.06
   6   6 -11    8.28    2.89
  -6   6  10   28.45    4.75
   6   6 -10   33.34    6.20
  -6   6   9    8.04    2.99
   6   6  -9    2.79    1.46
   6  -6  -9    2.89    1.72
  -6   6   9    4.71    1.54
  -6   6   8    6.91    2.64
   6   6  -8    4.62    2.34
   6  -6  -8    5.90    2.12
  -6   6   8   13.42    3.83
   6   6  -8   10.13    3.21
  -6   6   7   38.32    4.81
   6   6  -7   51.17    7.63
   6  -6  -7   47.17    5.54
  -6   6   7   46.80    5.63
   6   6  -7   45.60    5.09
  -6  -6   6   31.13    4.32
  -6   6   6   29.07    3.81
   6   6  -6   42.50    7.43
   6  -6  -6   25.58    3.39
  -6   6   6   46.03    5.35
   6   6  -6   33.13    3.75
  -6   6   5   -0.69    1.50
   6  -6  -5    8.33    2.14
  -6   6   5   13.42    2.15
   6   6  -5    6.20    1.36
  -6  -6   4   30.76    4.28
  -6   6   4   15.11    2.30
   6   6  -4   33.02    4.52
   6  -6  -4   24.07    2.81
  -6   6   4   22.20    2.96
   6   6  -4   29.45    3.30
  -6  -6   3   86.27    9.67
  -6   6   3   81.64    6.85
   6   6  -3   95.00   12.61
   6  -6  -3   76.05    6.76
  -6   6   3   76.89    6.89
   6   6  -3   70.61    5.85
  -6  -6   2   40.06    5.57
  -6   6   2   19.87    2.38
   6   6  -2   43.57    6.39
   6  -6  -2   27.41    3.06
  -6   6   2   20.78    3.03
   6   6  -2   29.76    3.13
  -6  -6   1   30.54    4.64
  -6   6   1   20.86    2.58
   6   6  -1   28.65    3.79
   6  -6  -1   24.59    3.34
  -6   6   1   28.70    4.75
   6   6  -1   28.03    3.24
  -6  -6   0  227.53   19.58
  -6   6   0  233.62   18.01
   6   6   0  224.86   19.44
   6  -6   0  197.95   15.64
  -6   6   0  214.94   23.79
   6   6   0  235.15   18.24
  -6  -6  -1  184.32   18.89
  -6   6  -1  207.26   16.02
   6   6   1  207.72   17.66
  -6   6  -1  189.78   18.33
   6   6   1  212.54   16.63
  -6  -6  -2   18.63    3.39
   6   6   2   13.60    2.46
   6  -6   2   15.88    2.93
  -6   6  -2   13.15    2.57
   6   6   2   10.01    3.55
  -6  -6  -3   71.19   10.72
   6  -6   3   66.63    8.92
  -6   6  -3   60.30   10.99
   6   6   3   66.53    9.21
  -6  -6  -4   77.84   11.71
   6  -6   4   90.72   11.81
  -6   6  -4   77.09   13.70
   6   6   4  125.80   16.07
  -6  -6  -5   23.20    4.63
   6  -6   5    9.04    2.31
  -6   6  -5   28.42    5.14
   6   6   5   44.48    6.60
  -6  -6  -6   34.87    6.49
   6  -6   6   13.66    3.90
  -6   6  -6   28.32    5.72
  -6  -6  -7   40.64    7.73
   6  -6   7   46.60    8.16
   6   6   7   52.33    9.14
  -6   7   7   20.84    3.76
   6   7  -7   43.15    8.24
   6  -7  -7   46.51    7.22
  -6   7   7   34.14    5.51
   6   7  -7   55.59    8.40
  -6   7   6   41.45    6.47
   6   7  -6   40.62    7.68
   6  -7  -6    6.43    2.04
  -6   7   6   38.32    6.10
   6   7  -6   32.90    5.15
  -6   7   5   32.09    5.12
   6   7  -5   41.46    7.61
   6  -7  -5   22.52    3.98
  -6   7   5   52.01    7.63
   6   7  -5   42.22    6.12
  -6   7   4   33.88    5.03
   6   7  -4   41.75    7.14
   6  -7  -4   16.70    2.94
  -6   7   4   44.01    6.68
   6   7  -4   42.26    6.15
  -6  -7   3   31.02    5.30
  -6   7   3   27.67    4.25
   6   7  -3   26.68    4.39
   6  -7  -3   31.69    5.15
  -6   7   3   19.73    3.38
   6   7  -3   28.73    4.39
  -6  -7   2   13.79    2.56
  -6   7   2   15.21    2.92
   6   7  -2   16.54    3.20
   6  -7  -2    4.62    1.62
  -6   7   2    9.27    2.38
   6   7  -2    6.62    1.78
  -6  -7   1    7.32    2.36
   6   7  -1    8.17    2.57
   6  -7  -1    7.08    1.91
  -6   7   1   14.25    3.39
   6   7  -1   11.07    2.68
  -6  -7   0   38.13    6.18
   6   7   0   37.89    6.45
   6  -7   0   18.96    3.61
  -6   7   0   32.14    5.17
   6   7   0   28.61    4.34
  -6  -7  -1    6.10    2.09
   6  -7   1    2.99    1.95
  -6   7  -1    9.00    2.56
   6   7   1    7.39    2.52
  -6  -7  -2    4.60    1.81
   6  -7   2    1.58    2.05
  -6   7  -2   -0.46    2.06
   6   7   2    5.09    3.07
  -6  -7  -3   17.51    4.21
   6  -7   3    7.08    2.12
   6   7   3   14.73    3.32
  -7   0  17   54.72    8.78
   7   0 -17   52.92    8.34
  -7   0  16  199.52   26.52
   7   0 -16  180.43   23.98
  -7   0  15   58.36    7.81
   7   0 -15   51.47    6.90
  -7   0  14   33.14    4.13
   7   0 -14   21.62    2.64
  -7   0  13   87.84   11.21
   7   0 -13   88.57   11.24
  -7   0  12  181.37   12.44
   7   0 -12  166.73   11.39
  -7   0  11  139.68   10.17
   7   0 -11  139.49    9.94
  -7   0  10  166.68    8.14
   7   0 -10  198.82    9.38
  -7   0   9  747.22   32.40
   7   0  -9  820.48   77.47
  -7   0   8  438.62   18.41
   7   0  -8  426.56   17.87
   7   0  -8  299.93   12.17
  -7   0   7   63.76    3.82
   7   0  -7   61.04    3.65
   7   0  -7   52.91    2.66
  -7   0   6  186.62    8.44
   7   0  -6  180.93   13.89
  -7   0   5  278.96   11.71
   7   0  -5  300.41   12.45
  -7   0   4   12.10    3.05
   7   0  -4    4.76    1.81
  -7   0   3  121.50    9.71
   7   0  -3  156.16   12.40
  -7   0   2 1776.10   69.15
   7   0  -2 1847.04   74.20
  -7   0   1   32.59    3.27
   7   0  -1   42.28    4.08
  -7   0   0  148.56   11.74
   7   0   0  169.69   13.33
  -7   0  -1  359.26   14.75
   7   0   1  378.56   15.53
  -7   0  -2   65.67    4.08
   7   0   2   60.74    3.95
  -7   0  -3   44.80    3.40
   7   0   3   54.46    3.71
  -7   0  -4    5.11    2.79
   7   0   4    6.07    2.89
  -7   0  -5   47.99    5.21
   7   0   5   56.01    6.03
  -7   0  -6    2.92    2.55
   7   0   6    3.81    3.21
  -7   0  -7   13.09    2.47
   7   0   7    6.93    1.55
  -7   0  -8    1.11    1.75
   7   0   8    6.92    2.82
  -7   0  -9   12.34    2.62
   7   0   9    7.89    1.91
  -7   0 -10   36.09    6.22
   7   0  10   15.65    4.25
  -7   0 -11   12.94    3.72
   7   0  11    0.03    1.73
  -7  -1  16   21.53    3.61
  -7   1  16   44.35    6.88
   7   1 -16   26.30    4.18
   7  -1 -16   27.65    4.38
  -7  -1  15   60.12    7.91
  -7   1  15   75.35    9.90
   7   1 -15   68.87    8.96
   7  -1 -15   59.76    7.81
  -7  -1  14   10.20    2.55
  -7   1  14   15.29    3.27
   7   1 -14    8.49    2.65
   7  -1 -14    4.73    1.58
  -7  -1  13   39.51    8.09
  -7   1  13   29.93    6.58
   7   1 -13   23.11    4.85
   7  -1 -13   48.66    9.66
  -7  -1  12    2.69    1.70
  -7   1  12    1.78    1.89
   7   1 -12    4.82    1.73
   7  -1 -12   -0.04    1.50
  -7  -1  11   24.12    3.85
  -7   1  11   28.34    4.38
   7   1 -11   21.41    3.55
   7  -1 -11   16.44    2.97
  -7  -1  10   11.24    2.24
  -7   1  10   10.98    3.71
   7   1 -10    8.67    2.40
   7  -1 -10   10.91    2.63
  -7  -1   9   25.59    3.27
  -7   1   9   22.26    3.14
   7   1  -9   26.79    3.27
   7  -1  -9   18.06    2.49
  -7  -1   8   87.28    4.77
  -7   1   8   82.24    5.04
   7  -1  -8  108.37    5.83
   7   1  -8   62.89    3.01
  -7  -1   7  172.34    7.88
  -7   1   7  163.24    7.87
   7   1  -7  168.83    7.88
   7  -1  -7  169.53    7.88
   7   1  -7  130.89    5.62
  -7  -1   6    7.03    3.11
  -7   1   6    0.77    2.17
   7   1  -6    7.56    1.93
   7  -1  -6    0.86    1.62
   7   1  -6    5.01    1.63
  -7  -1   5  448.18   18.13
  -7   1   5  363.42   14.98
   7   1  -5  384.02   15.67
   7  -1  -5  481.72   19.38
   7   1  -5  348.45   13.87
  -7  -1   4  322.61   13.43
  -7   1   4  322.88   13.35
   7   1  -4  400.39   16.42
   7  -1  -4  322.94   13.25
  -7   1   4  379.62   15.51
   7   1  -4  374.83   15.07
  -7  -1   3  287.20   12.01
   7   1  -3  488.90   19.75
   7  -1  -3  311.47   12.89
  -7   1   3  462.05   18.82
   7   1  -3  482.41   19.28
  -7  -1   2  344.39   14.27
  -7   1   2  336.12   13.86
   7   1  -2  379.58   15.61
   7  -1  -2  357.46   14.79
  -7   1   2  333.46   14.14
   7   1  -2  358.20   14.69
  -7  -1   1  829.77   32.77
  -7   1   1  788.11   31.13
   7   1  -1  896.10   35.31
   7  -1  -1  848.35   33.48
  -7   1   1  793.10   31.77
   7   1  -1  799.38   31.62
  -7  -1   0  181.21   14.25
  -7   1   0  148.40   11.72
   7   1   0  167.56   13.24
   7  -1   0  185.68    8.50
  -7   1   0  149.48   12.49
   7   1   0  138.98   11.20
  -7  -1  -1  266.96   11.68
  -7   1  -1  277.02   12.07
   7   1   1  305.19   13.09
   7  -1   1  259.00   11.30
  -7   1  -1  279.96   12.58
   7   1   1  250.89   11.12
  -7   1  -2  309.61   13.24
   7   1   2  342.97   14.70
   7  -1   2  316.09   13.61
  -7   1  -2  329.02   14.69
   7   1   2  255.65   11.52
  -7  -1  -3  310.40   14.03
  -7   1  -3  414.15   18.38
   7   1   3  416.05   18.46
   7  -1   3  297.35   13.57
  -7   1  -3  425.32   19.63
   7   1   3  291.56   13.55
  -7  -1  -4  275.94   12.51
  -7   1  -4  347.75   15.37
   7   1   4  367.79   16.20
   7  -1   4  272.30   12.41
  -7   1  -4  376.42   17.35
   7   1   4  286.78   13.29
  -7  -1  -5  279.81   19.19
  -7   1  -5  242.88   16.63
   7   1   5  232.69   15.95
   7  -1   5  268.02   18.36
   7   1   5  195.73   14.02
  -7  -1  -6  287.67   18.98
  -7   1  -6  283.03   18.62
   7   1   6  260.27   17.07
   7  -1   6  301.80   19.79
   7   1   6  235.22   16.15
  -7  -1  -7   63.71    5.98
  -7   1  -7  121.85   10.23
   7   1   7  106.56    9.04
   7  -1   7   61.93    5.72
  -7  -1  -8  101.67   15.67
  -7   1  -8  142.63   17.75
   7   1   8   97.22   12.27
   7  -1   8   86.07   11.00
   7   1   8  123.30   15.82
  -7  -1  -9  219.06   25.51
  -7   1  -9  208.94   24.60
   7   1   9  197.41   19.86
   7  -1   9  221.11   22.33
   7   1   9  201.69   20.79
  -7  -1 -10   36.13    6.05
  -7   1 -10   45.01    7.18
   7  -1  10   41.07    5.27
   7   1  10   22.56    3.79
  -7   1 -11    2.55    1.21
  -7  -1 -11    5.65    2.64
   7  -1  11    5.90    3.22
   7   1  11    4.28    2.32
  -7  -2  16   25.79    4.45
  -7   2  16    6.74    2.92
   7   2 -16   14.44    4.11
   7  -2 -16   12.04    3.35
  -7  -2  15   84.70    9.59
  -7   2  15   80.85   10.04
   7   2 -15   60.32    8.88
   7  -2 -15   78.88    9.08
  -7  -2  14  209.01   25.53
  -7   2  14  228.18   28.04
   7   2 -14  204.91   25.15
   7  -2 -14  215.50   26.39
  -7  -2  13   97.41    8.02
  -7   2  13  120.97   10.25
   7   2 -13  107.21    8.93
   7  -2 -13  109.19    9.04
  -7  -2  12  109.93    9.08
  -7   2  12   99.16    8.58
   7   2 -12   81.45    7.07
   7  -2 -12  144.65   11.85
  -7  -2  11  150.06   10.21
  -7   2  11  143.04   10.24
   7   2 -11  118.83    8.45
   7  -2 -11  163.60   11.19
  -7  -2  10  125.16    8.91
  -7   2  10  115.84    8.67
   7   2 -10  117.52    8.57
   7  -2 -10  131.65    9.47
  -7  -2   9  219.93   10.19
  -7   2   9  147.65    7.58
   7   2  -9  140.81    7.04
   7  -2  -9  218.54   10.06
  -7  -2   8  708.54   46.97
  -7   2   8  629.84   27.22
   7   2  -8  636.72   27.33
   7  -2  -8  683.83   45.29
  -7   2   8  577.98   24.54
  -7  -2   7  532.51   23.26
  -7   2   7  695.31   30.28
   7   2  -7  688.32   29.97
   7  -2  -7  560.84   24.51
  -7   2   7  644.47   27.81
   7   2  -7  595.06   25.43
  -7  -2   6   49.36    3.17
   7   2  -6   39.24    3.05
   7  -2  -6   48.50    3.39
  -7   2   6   45.41    6.29
   7   2  -6   36.25    2.11
  -7  -2   5  230.42   10.15
  -7   2   5  186.28    8.59
   7   2  -5  188.55    8.63
   7  -2  -5  242.14   10.62
  -7   2   5  180.81    9.30
   7   2  -5  177.83    7.66
  -7  -2   4  259.19   11.18
  -7   2   4  351.78   15.01
   7   2  -4  372.58   15.74
   7  -2  -4  269.86   11.75
  -7   2   4  316.65   14.30
   7   2  -4  329.33   13.64
  -7  -2   3  453.15   18.85
  -7   2   3  469.68   19.56
   7   2  -3  507.25   21.05
  -7   2   3  473.07   20.88
   7   2  -3  460.08   18.91
  -7  -2   2  228.38   10.01
  -7   2   2  190.52    8.71
   7   2  -2  210.68    9.39
   7  -2  -2  273.48   11.99
  -7   2   2  205.73    9.86
   7   2  -2  197.19    8.61
  -7  -2   1  107.03    5.38
  -7   2   1  156.58    7.38
   7  -2  -1  100.62    5.60
  -7   2   1  163.71   19.33
   7   2  -1  163.37    7.56
  -7  -2   0  244.23   10.81
  -7   2   0  306.47   13.07
   7   2   0  387.82   16.43
   7  -2   0  263.85   11.70
  -7   2   0  334.54   15.79
   7   2   0  336.68   14.70
  -7  -2  -1    3.56    2.10
  -7   2  -1    5.34    1.71
   7   2   1   11.94    3.31
   7  -2   1    4.24    2.15
  -7   2  -1   11.13    2.75
   7   2   1    4.43    2.82
  -7  -2  -2   32.61    3.01
  -7   2  -2   32.27    2.75
   7   2   2   45.86    3.28
   7  -2   2   44.40    4.11
  -7   2  -2   40.66    6.41
   7   2   2   20.53    2.33
  -7  -2  -3   59.30    6.32
  -7   2  -3   71.59    7.51
   7   2   3   76.81    8.01
   7  -2   3   64.76    7.06
  -7   2  -3   68.82   10.80
   7   2   3   67.76    7.64
  -7  -2  -4   33.29    3.38
  -7   2  -4   22.88    2.53
   7   2   4   30.13    3.29
   7  -2   4   34.70    3.93
  -7   2  -4   24.88    3.73
   7   2   4   18.74    3.14
  -7   2  -5  104.36    7.56
   7   2   5  101.57    7.31
   7  -2   5   93.68    7.25
  -7   2  -5   88.25   13.70
   7   2   5   80.05   11.09
  -7  -2  -6   15.28    3.18
  -7   2  -6   13.13    2.03
   7   2   6   16.65    2.40
   7  -2   6   20.22    2.67
  -7   2  -6   21.98    4.91
   7   2   6   11.01    3.18
  -7  -2  -7   30.10    6.91
  -7   2  -7   26.79    5.55
   7   2   7   18.14    3.91
   7  -2   7   30.72    6.83
  -7  -2  -8   75.67    8.76
  -7   2  -8   96.27    8.06
   7   2   8   69.29    5.83
   7  -2   8   67.68    6.22
  -7   2  -8   91.35    8.21
   7   2   8   83.31    7.90
  -7  -2  -9   12.46    3.75
   7  -2   9    3.72    2.17
  -7   2  -9   11.50    4.61
   7   2   9    6.54    3.24
  -7  -2 -10   28.28    5.30
  -7   2 -10    7.72    2.05
   7  -2  10   13.93    3.22
   7   2  10   19.24    4.65
  -7  -2 -11   14.83    3.34
  -7   2 -11   11.13    2.43
   7  -2  11   16.04    3.53
   7   2  11   17.70    4.12
  -7   3  15   77.94   11.85
   7   3 -15   53.70   11.21
  -7  -3  14   10.07    2.73
  -7   3  14    4.84    2.18
   7   3 -14    4.42    1.57
   7  -3 -14    7.24    1.97
  -7  -3  13   24.32    6.12
  -7   3  13   26.09    6.68
   7   3 -13   25.42    6.62
   7  -3 -13   17.16    4.59
  -7  -3  12   64.84    5.64
   7   3 -12   55.89    5.24
   7  -3 -12   61.51    5.67
  -7  -3  11    7.50    2.18
  -7   3  11    2.18    2.11
   7  -3 -11   10.69    3.30
  -7  -3  10  199.62   15.74
  -7   3  10  185.81   15.03
   7   3 -10  188.36   15.08
   7  -3 -10  177.71   14.18
  -7  -3   9   77.72   10.09
  -7   3   9   88.95    6.79
   7   3  -9   76.28   10.06
   7  -3  -9   62.58    8.36
  -7  -3   8  181.28   12.48
  -7   3   8  174.20   12.45
   7   3  -8  167.60   11.90
   7  -3  -8  187.53   13.08
  -7   3   8  133.82   13.29
   7   3  -8  159.40   10.76
  -7  -3   7  225.72   10.29
  -7   3   7  197.67    9.63
   7   3  -7  188.83    8.98
   7  -3  -7  236.19   10.87
  -7   3   7  178.33    8.68
   7   3  -7  184.92    8.19
  -7  -3   6   43.92    4.83
  -7   3   6   28.69    3.69
   7   3  -6   22.06    3.21
   7  -3  -6   44.88    4.95
  -7   3   6   25.34    5.12
   7   3  -6   35.98    3.82
  -7  -3   5  129.81    6.38
  -7   3   5  139.51    7.09
   7   3  -5  149.31    7.29
   7  -3  -5  129.43    6.57
  -7   3   5  151.19    7.33
   7   3  -5  140.82    6.44
  -7  -3   4  320.49   14.31
  -7   3   4  346.05   15.60
   7   3  -4  372.36   16.66
   7  -3  -4  358.52   16.30
  -7   3   4  345.72   15.94
   7   3  -4  339.96   14.93
  -7  -3   3  507.25   22.21
  -7   3   3  525.62   23.06
   7   3  -3  589.63   25.76
   7  -3  -3  549.10   24.16
  -7   3   3  513.97   22.90
   7   3  -3  526.87   22.85
  -7   3   2   49.69    3.35
   7   3  -2   66.06    4.30
   7  -3  -2  110.37    6.03
  -7   3   2   60.90    7.70
   7   3  -2   61.40    3.52
  -7  -3   1  116.27    5.98
  -7   3   1   71.39    4.22
   7   3  -1   88.77    5.05
  -7   3   1   70.51   10.40
   7   3  -1   79.45    4.53
  -7  -3   0  262.05   11.95
  -7   3   0  298.41   13.23
   7   3   0  357.59   15.84
   7  -3   0  272.55   12.53
  -7   3   0  318.75   14.96
   7   3   0  334.88   14.88
  -7  -3  -1  582.39   25.08
  -7   3  -1  649.53   27.73
   7   3   1  707.89   46.89
   7  -3   1  633.65   27.31
  -7   3  -1  655.98   28.31
   7   3   1  652.99   28.01
  -7  -3  -2   50.74    4.44
  -7   3  -2  109.91    8.13
   7   3   2  119.43    8.69
   7  -3   2   59.17    5.33
  -7   3  -2   86.53   12.25
   7   3   2   94.48    7.57
  -7  -3  -3  162.61   11.57
  -7   3  -3  185.25   12.89
   7   3   3  175.81   12.30
   7  -3   3  145.33   10.61
  -7   3  -3  146.24   17.92
   7   3   3  169.12   12.30
  -7  -3  -4  366.33   23.84
   7   3   4  416.52   26.94
   7  -3   4  368.90   24.08
  -7   3  -4  353.35   27.93
   7   3   4  365.14   24.21
  -7  -3  -5  125.31   13.97
  -7   3  -5  146.48   11.93
   7  -3   5  118.57   10.09
  -7   3  -5  117.43   15.18
   7   3   5  146.45   12.66
  -7  -3  -6   36.93    8.23
  -7   3  -6   55.59    7.30
   7   3   6   30.92    6.21
  -7   3  -6   45.39   10.17
   7   3   6   27.21    5.90
  -7  -3  -7  185.54   20.58
  -7   3  -7  231.45   23.16
   7  -3   7  179.60   18.47
  -7   3  -7  170.21   25.37
  -7   3  -8  176.48   21.67
   7  -3   8  111.98   14.27
  -7   3  -8  131.30   21.62
   7   3   8  141.03   17.92
  -7  -3  -9   20.97    4.72
   7  -3   9   28.09    4.94
  -7   3  -9   13.27    2.50
   7   3   9   31.94    5.81
  -7  -3 -10   62.05   11.37
   7  -3  10   65.69   10.47
   7   3  10   94.95   14.87
  -7   4  14   58.18    9.55
   7   4 -14   75.97   15.56
  -7   4  13   29.03    5.18
   7  -4 -13   38.16    5.64
  -7   4  12   66.65    9.02
   7   4 -12   65.47   11.30
   7  -4 -12   87.47   11.13
  -7  -4  11  194.06   19.43
  -7   4  11  150.75   15.65
   7   4 -11  140.72   17.84
   7  -4 -11  218.50   21.97
  -7  -4  10   64.25    5.75
  -7   4  10   70.77    6.74
   7  -4 -10   50.08    4.64
  -7  -4   9  122.34   15.09
  -7   4   9  182.76   22.71
   7   4  -9  170.46   21.13
   7  -4  -9  138.49   17.23
  -7  -4   8  162.39   13.01
  -7   4   8  155.70   12.75
   7   4  -8  153.85   12.55
   7  -4  -8  163.07   13.21
  -7   4   8  123.83   15.42
  -7  -4   7  325.74   25.34
  -7   4   7  259.88   20.66
   7   4  -7  291.10   22.97
   7  -4  -7  352.61   27.54
  -7   4   7  252.63   22.44
   7   4  -7  271.54   21.06
  -7  -4   6   72.72    9.46
  -7   4   6   91.77    6.90
   7   4  -6   73.12    9.66
   7  -4  -6   69.88    9.37
  -7   4   6   83.79    9.18
   7   4  -6   83.17    5.80
  -7  -4   5  103.45    7.24
  -7   4   5   71.69    9.49
   7   4  -5   88.89    6.69
   7  -4  -5  115.13    8.39
  -7   4   5   84.52    9.72
   7   4  -5   70.58    9.12
  -7  -4   4  269.46   17.55
  -7   4   4  246.58   16.32
   7   4  -4  257.53   16.99
   7  -4  -4  305.75   20.07
  -7   4   4  243.94   22.48
   7   4  -4  256.30   16.66
  -7  -4   3   88.92    6.57
  -7   4   3  116.66    8.61
   7   4  -3  121.27    8.80
   7  -4  -3   93.52    7.16
  -7   4   3  107.78   12.24
   7   4  -3  110.03    7.81
  -7  -4   2   52.29    4.49
  -7   4   2   91.43    6.87
   7   4  -2  100.51    7.48
   7  -4  -2   62.24    5.47
  -7   4   2   94.52   11.09
   7   4  -2   95.60    7.08
  -7  -4   1   43.82    6.00
  -7   4   1   90.88    6.67
   7   4  -1   84.17    6.18
   7  -4  -1   49.44    7.13
  -7   4   1   80.13   11.95
   7   4  -1   71.49    9.38
  -7  -4   0   99.95    7.40
  -7   4   0  110.76    7.90
   7   4   0  117.92    8.34
   7  -4   0   96.63    7.27
  -7   4   0  112.05   13.88
   7   4   0  108.49    8.04
  -7  -4  -1   39.38    5.50
   7   4   1   64.83    8.83
   7  -4   1   41.21    6.11
  -7   4  -1   60.85    9.23
   7   4   1   60.32    8.42
  -7  -4  -2   32.91    3.43
  -7   4  -2   41.22    3.96
   7   4   2   46.06    4.52
   7  -4   2   26.78    3.44
  -7   4  -2   45.36    6.22
   7   4   2   47.28    5.06
  -7  -4  -3  158.89   17.10
  -7   4  -3  152.08   12.30
   7   4   3  136.09   11.02
   7  -4   3  149.90   12.30
  -7   4  -3  131.95   16.44
   7   4   3  142.29   11.81
  -7  -4  -4    5.37    1.96
  -7   4  -4    3.63    1.93
   7   4   4    2.37    2.00
   7  -4   4    2.62    2.14
  -7   4  -4    1.87    1.77
   7   4   4    1.59    2.36
  -7  -4  -5    5.60    1.83
  -7   4  -5   19.11    2.89
   7   4   5   14.13    2.42
   7  -4   5   12.67    2.79
  -7   4  -5    6.93    2.11
   7   4   5   21.17    3.83
  -7  -4  -6   16.82    4.63
  -7   4  -6   13.24    3.44
   7  -4   6   14.87    4.77
  -7   4  -6   21.83    5.69
   7   4   6   18.44    5.05
  -7  -4  -7    3.61    1.25
   7  -4   7    4.37    1.87
  -7   4  -7    6.39    2.40
  -7  -4  -8   14.40    4.35
   7  -4   8   12.73    4.21
  -7   4  -8    8.98    3.74
   7   4   8   17.89    6.92
  -7   5  12   10.96    2.71
   7   5 -12    8.60    2.71
  -7   5  11    7.37    2.30
   7   5 -11   12.66    3.36
   7  -5 -11    4.67    1.29
  -7   5  10   41.39    5.35
   7   5 -10   53.36    8.65
   7  -5 -10   47.85    5.87
  -7  -5   9   27.53    6.68
  -7   5   9   27.54    6.88
   7   5  -9   33.26    6.15
   7  -5  -9    5.67    1.91
  -7  -5   8   56.60    6.20
  -7   5   8   39.54    4.88
   7   5  -8   43.42    7.95
   7  -5  -8   38.03    4.58
  -7   5   8   36.92    5.80
  -7  -5   7   37.29    3.72
  -7   5   7   16.04    2.31
   7   5  -7   31.32    6.40
   7  -5  -7   35.61    3.75
  -7   5   7   29.48    4.31
   7   5  -7   26.29    2.57
  -7  -5   6    8.84    2.16
  -7   5   6    4.33    1.71
   7   5  -6   12.11    2.34
   7  -5  -6    3.54    1.48
  -7   5   6    8.00    2.30
   7   5  -6    8.17    1.52
  -7  -5   5   15.08    3.58
  -7   5   5   23.41    5.11
   7   5  -5   33.87    7.43
   7  -5  -5   11.48    2.85
  -7   5   5   25.38    5.54
   7   5  -5   27.49    5.56
  -7  -5   4   40.80    8.15
  -7   5   4   24.14    5.20
   7   5  -4   33.33    6.80
   7  -5  -4   34.02    7.05
  -7   5   4   25.79    5.69
   7   5  -4   26.68    5.50
  -7  -5   3   96.77   12.18
  -7   5   3   46.51    9.21
   7   5  -3   60.83    8.15
   7  -5  -3   85.17   11.02
  -7   5   3   63.21    9.66
   7   5  -3   49.88    9.71
  -7  -5   2   87.79   11.20
  -7   5   2   77.53    9.93
   7   5  -2   98.84   12.65
   7  -5  -2   74.47    9.69
  -7   5   2   84.95   13.76
   7   5  -2   94.57   11.93
  -7  -5   1   54.03    7.18
  -7   5   1   72.05    9.19
   7   5  -1   83.37   10.78
   7  -5  -1   60.02    7.97
  -7   5   1   68.96   11.64
   7   5  -1   77.38    9.97
  -7  -5   0    5.63    1.74
  -7   5   0    2.46    1.37
   7   5   0    3.21    1.89
   7  -5   0   11.59    3.10
  -7   5   0    4.13    2.23
   7   5   0    7.52    1.79
  -7  -5  -1   87.00    9.17
  -7   5  -1   84.96    7.21
   7  -5   1   80.52    7.17
  -7   5  -1   66.82    9.50
   7   5   1   89.24    7.80
  -7  -5  -2  144.21   17.04
  -7   5  -2  174.18   17.51
   7   5   2  148.04   15.03
  -7   5  -2  125.36   19.42
   7   5   2  189.20   19.38
  -7  -5  -3  138.76   16.29
  -7   5  -3  148.78   15.08
   7   5   3  124.44   12.75
   7  -5   3  143.23   14.87
  -7   5  -3  117.52   17.97
   7   5   3  155.26   16.17
  -7  -5  -4   99.48   14.92
   7  -5   4   80.36   10.45
  -7   5  -4   80.73   13.62
   7   5   4  109.38   13.88
  -7  -5  -5   30.88    4.66
   7  -5   5   27.78    4.38
  -7   5  -5   37.02    6.55
   7   5   5   52.79    7.25
  -7  -5  -6   24.63    4.79
   7  -5   6   15.69    4.54
  -7   5  -6   20.56    4.66
   7   5   6   50.67    8.68
  -7   6   9  101.45   15.51
   7   6  -9   90.27   17.63
   7  -6  -9  110.77   16.74
  -7   6   8   11.53    3.25
   7   6  -8   23.71    4.51
   7  -6  -8    5.34    1.83
  -7   6   8   13.67    3.86
  -7   6   7    7.90    2.61
   7   6  -7   20.47    3.75
   7  -6  -7    7.72    2.11
  -7   6   7    7.01    1.53
   7   6  -7    7.95    1.54
  -7  -6   6   89.91   12.14
  -7   6   6   78.40    9.13
   7   6  -6   91.12   16.07
   7  -6  -6   89.21   12.30
  -7   6   6   73.27   12.05
   7   6  -6   78.34    8.76
  -7  -6   5  103.41   11.66
  -7   6   5  105.07   11.86
   7   6  -5  128.69   21.04
   7  -6  -5   98.12   11.14
  -7   6   5   99.76   13.84
   7   6  -5  103.01   11.35
  -7  -6   4   19.05    3.25
  -7   6   4   10.08    2.47
   7   6  -4   19.59    3.63
   7  -6  -4   17.03    2.95
  -7   6   4   16.20    3.21
   7   6  -4   14.14    2.44
  -7  -6   3   42.41    6.62
  -7   6   3   18.21    3.02
   7   6  -3   40.09    6.20
   7  -6  -3   25.16    3.80
  -7   6   3   24.31    4.33
   7   6  -3   24.36    3.25
  -7  -6   2   68.02    9.71
  -7   6   2   82.05    9.33
   7   6  -2   79.40   10.72
   7  -6  -2   77.25    9.07
  -7   6   2   52.94    8.07
   7   6  -2   78.82    8.95
  -7  -6   1    3.96    1.88
  -7   6   1    3.09    1.33
   7   6  -1    6.57    1.98
   7  -6  -1   -0.19    1.78
  -7   6   1    2.74    1.08
   7   6  -1    5.36    2.46
  -7  -6   0   15.64    3.23
  -7   6   0    4.18    1.68
   7   6   0    8.28    2.15
   7  -6   0    6.27    2.51
  -7   6   0    6.49    2.30
   7   6   0    6.61    1.98
  -7  -6  -1   50.95    8.38
   7   6   1   48.28    8.14
   7  -6   1   36.19    5.74
  -7   6  -1   37.12    6.60
   7   6   1   54.78    7.98
  -7  -6  -2    2.74    1.45
   7  -6   2    3.61    1.79
  -7   6  -2    4.12    2.05
   7   6   2    9.38    3.30
  -7  -6  -3    4.01    1.66
   7  -6   3    4.78    2.12
  -7   6  -3    4.23    1.94
   7   6   3    2.57    2.43
  -8   0  15   28.59    4.76
   8   0 -15   20.44    3.54
  -8   0  14    0.66    1.76
   8   0 -14    1.35    1.47
  -8   0  13    2.83    2.11
   8   0 -13    2.53    2.05
  -8   0  12   38.03    4.21
   8   0 -12   36.78    4.00
  -8   0  11   41.53    8.42
   8   0 -11   46.71    9.37
  -8   0  10    6.67    1.87
   8   0 -10    8.17    2.33
  -8   0   9    4.73    2.55
   8   0  -9    6.79    2.37
  -8   0   8   37.67    5.45
   8   0  -8   33.35    4.90
  -8   0   7   12.31    2.76
   8   0  -7    4.14    0.82
  -8   0   6   53.47    5.85
   8   0  -6   45.59    5.08
   8   0  -6   48.17    4.96
  -8   0   5    4.66    2.48
   8   0  -5    4.62    2.71
   8   0  -5    2.06    1.18
  -8   0   4  305.80   13.84
   8   0  -4  323.08   14.49
  -8   0   3  534.17   23.08
   8   0  -3  551.09   23.75
  -8   0   2   26.01    3.44
   8   0  -2   42.53    4.73
   8   0  -1    8.87    3.09
  -8   0   0   58.02    6.25
   8   0   0   65.20    7.02
  -8   0  -1  418.64   28.09
   8   0   1  442.84   29.68
  -8   0  -2   74.69   10.00
   8   0   2   90.29    6.99
  -8   0  -3   77.44   10.34
   8   0   3   68.11    9.19
  -8   0  -4  191.87   15.45
   8   0   4  190.13   15.24
  -8   0  -5  101.22   12.92
   8   0   5   89.68   11.41
  -8   0  -6  139.72   11.36
   8   0   6  128.05   13.43
  -8   0  -7  393.32   42.45
   8   0   7  347.78   42.20
  -8   0  -8  203.84   22.36
   8   0   8  159.33   17.51
  -8   0  -9   16.54    4.92
   8   0   9    8.56    2.68
  -8  -1  15   20.27    3.83
  -8   1  15   23.38    4.26
   8   1 -15   18.04    4.95
   8  -1 -15   14.79    3.87
  -8  -1  14   58.47    8.28
  -8   1  14   36.07    5.61
   8   1 -14   46.45    6.79
   8  -1 -14   45.39    6.57
  -8  -1  13   41.94    5.99
  -8   1  13   21.85    5.55
   8   1 -13   32.99    4.38
   8  -1 -13   23.00    5.78
  -8  -1  12   29.99    3.75
  -8   1  12   37.29    4.86
   8  -1 -12   28.94    3.94
  -8  -1  11  113.81   14.16
  -8   1  11  117.90   14.89
   8   1 -11  133.66   16.65
   8  -1 -11  146.95   18.28
  -8  -1  10  334.97   26.22
  -8   1  10  373.00   29.20
   8   1 -10  349.03   27.29
   8  -1 -10  415.21   78.93
  -8  -1   9  281.72   22.09
  -8   1   9  349.07   27.30
   8   1  -9  349.45   27.33
   8  -1  -9  260.03   20.49
  -8  -1   8  101.27    7.46
  -8   1   8   96.56    7.12
   8  -1  -8  103.18    7.49
  -8  -1   7  515.50   34.38
  -8   1   7  439.24   29.44
   8   1  -7  452.86   30.29
   8  -1  -7  532.39   66.82
   8   1  -7  372.74   24.67
  -8  -1   6   95.53    7.28
  -8   1   6   93.52    7.12
   8   1  -6  113.47    8.45
   8  -1  -6   98.54    7.32
   8   1  -6   98.06    6.86
  -8  -1   5  116.36    8.47
  -8   1   5   95.50    9.70
   8   1  -5  108.13   10.87
   8   1  -5  100.58    9.82
  -8  -1   4  259.29   11.89
   8   1  -4  293.75   13.45
   8  -1  -4  263.01   12.04
   8   1  -4  257.00   11.43
  -8  -1   3  174.24    8.40
  -8   1   3  172.61    8.26
   8   1  -3  207.58    9.87
   8  -1  -3  184.06    8.85
   8   1  -3  194.74    8.99
  -8  -1   2  151.25    7.61
  -8   1   2  180.17    8.52
   8   1  -2  212.80   10.11
   8  -1  -2  173.16    8.60
   8   1  -2  184.19    8.59
  -8  -1   1   92.08    9.29
  -8   1   1   86.86    8.87
   8   1  -1  111.99    8.32
   8  -1  -1   94.60    9.73
   8   1  -1   89.44    9.16
  -8  -1   0  242.02   16.54
  -8   1   0  208.41   14.52
   8   1   0  245.80   16.93
   8  -1   0  245.69   16.85
   8   1   0  215.66   14.94
  -8   1  -1   18.44    2.36
   8   1   1   25.13    3.20
   8  -1   1   15.28    2.49
   8   1   1   14.30    2.50
  -8   1  -2    5.85    2.39
   8   1   2    5.70    2.18
   8  -1   2    4.51    1.98
   8   1   2    2.46    2.48
  -8  -1  -3  191.43   15.50
  -8   1  -3  164.43   13.35
   8   1   3  177.95   14.32
   8  -1   3  185.13   14.91
   8   1   3  150.02   12.57
  -8  -1  -4   13.52    2.23
  -8   1  -4   22.64    2.89
   8   1   4   27.85    3.42
   8  -1   4   16.33    2.83
   8   1   4   17.04    3.03
  -8  -1  -5   27.65    3.09
  -8   1  -5   33.88    3.85
   8   1   5   28.91    3.59
   8  -1   5   28.39    3.89
   8   1   5   21.89    3.28
  -8   1  -6   17.46    2.81
   8   1   6   28.46    3.85
   8  -1   6   25.36    3.75
   8   1   6   26.17    4.67
  -8  -1  -7   15.85    4.14
  -8   1  -7   21.18    5.51
   8  -1   7   19.54    5.32
   8   1   7   12.31    3.76
  -8  -1  -8   24.52    4.56
  -8   1  -8   21.76    3.91
   8   1   8   13.81    2.76
   8  -1   8   16.69    3.55
  -8  -1  -9   20.74    4.28
  -8   1  -9   14.02    3.96
   8  -1   9   10.32    3.59
   8   1   9   17.06    5.40
  -8  -2  14   15.40    4.27
  -8   2  14   17.52    4.96
   8   2 -14   18.40    4.95
   8  -2 -14   29.03    4.75
  -8  -2  13   87.65   10.02
  -8   2  13   89.64   10.49
   8   2 -13   82.03    9.52
   8  -2 -13   89.58   10.28
  -8  -2  12   21.14    5.57
   8   2 -12   21.76    5.85
   8  -2 -12   12.18    3.43
  -8  -2  11   38.37    3.80
  -8   2  11   37.37    4.44
   8   2 -11   32.20    3.64
   8  -2 -11   36.91    3.93
  -8  -2  10   94.13   11.89
  -8   2  10   76.37    9.96
   8  -2 -10   82.80   10.53
  -8  -2   9   17.12    2.78
  -8   2   9    8.27    3.26
   8   2  -9   12.21    2.65
   8  -2  -9   11.57    2.46
  -8  -2   8   33.02    3.32
  -8   2   8   45.21    4.55
   8   2  -8   44.29    4.26
   8  -2  -8   36.53    3.89
  -8  -2   7   88.98    6.56
  -8   2   7   80.13   10.67
   8   2  -7   86.82    6.47
   8  -2  -7   80.29   10.57
  -8   2   7   99.34    7.07
   8   2  -7   76.80    9.80
  -8  -2   6   23.35    3.58
  -8   2   6   14.60    2.68
   8   2  -6   22.67    3.75
   8  -2  -6   21.99    3.64
  -8   2   6   17.42    4.51
   8   2  -6   20.03    2.90
  -8  -2   5   25.79    2.73
  -8   2   5   49.50    4.53
   8   2  -5   51.91    4.46
   8  -2  -5   26.84    2.78
  -8   2   5   42.09    7.60
   8   2  -5   46.19    3.59
  -8  -2   4   43.40    3.94
  -8   2   4   47.48    4.26
   8   2  -4   59.52    4.85
   8  -2  -4   38.76    3.70
  -8   2   4   48.77    8.30
   8   2  -4   48.43    3.86
  -8  -2   3   18.12    2.63
  -8   2   3    5.19    2.52
   8   2  -3    4.90    2.29
   8  -2  -3   16.70    3.13
  -8   2   3    8.43    2.26
   8   2  -3    8.10    2.64
  -8  -2   2  190.50   13.25
  -8   2   2  191.60   13.38
   8   2  -2  223.23   15.53
   8  -2  -2  179.03   12.59
  -8   2   2  172.17   16.97
   8   2  -2  211.72   14.62
  -8  -2   1  304.98   19.99
  -8   2   1  359.65   23.35
   8   2  -1  441.82   28.59
   8  -2  -1  337.06   21.95
  -8   2   1  346.65   25.05
   8   2  -1  387.28   25.11
  -8  -2   0   23.73    3.76
  -8   2   0   31.60    4.68
   8   2   0   41.23    6.00
   8  -2   0   23.06    3.77
  -8   2   0   46.64    7.43
   8   2   0   32.71    5.23
  -8  -2  -1  255.16   16.82
  -8   2  -1  196.77   13.24
   8   2   1  241.19   16.07
   8  -2   1  262.47   17.30
  -8   2  -1  180.46   22.54
   8   2   1  201.71   13.74
  -8  -2  -2  199.21   15.86
  -8   2  -2  202.57   16.20
   8   2   2  243.71   19.33
   8  -2   2  219.19   17.63
  -8   2  -2  212.33   17.38
   8   2   2  198.54   16.42
  -8  -2  -3  150.57   18.70
  -8   2  -3  144.73   18.01
   8   2   3  158.22   12.99
   8  -2   3  144.24   17.99
  -8   2  -3  120.50   20.21
   8   2   3  121.38   10.71
  -8   2  -4   98.78   12.52
   8   2   4   88.44   11.30
  -8   2  -4  100.97   13.36
   8   2   4   78.73   10.40
  -8  -2  -5   94.81   10.08
  -8   2  -5  133.20   13.80
   8   2   5  143.34   14.73
   8  -2   5   87.75    9.58
  -8   2  -5  137.29   14.50
   8   2   5  107.68   11.83
  -8  -2  -6  237.19   29.06
  -8   2  -6  313.58   38.12
   8   2   6  286.07   34.81
   8  -2   6  228.10   27.98
  -8   2  -6  288.30   35.27
   8   2   6  233.81   28.85
  -8  -2  -7  134.74   18.04
  -8   2  -7  123.79   13.92
   8   2   7   84.07    9.61
   8  -2   7  132.09   14.87
   8   2   7   79.54    9.65
  -8  -2  -8  131.11   22.07
  -8   2  -8  138.29   20.74
   8  -2   8  130.89   18.96
  -8  -3  13   25.66    4.32
  -8   3  13   21.40    4.46
   8   3 -13    9.70    3.39
   8  -3 -13   20.04    3.60
  -8  -3  12  106.27   11.88
  -8   3  12  107.61   12.45
   8  -3 -12  113.43   12.81
  -8  -3  11   81.69   10.34
  -8   3  11   93.04   12.16
   8   3 -11   87.35   11.26
  -8  -3  10  251.64   25.11
  -8   3  10  265.03   61.32
   8   3 -10  249.49   25.09
   8  -3 -10  246.72   24.73
  -8  -3   9  263.51   20.30
   8  -3  -9  247.12   19.13
  -8  -3   8   54.61    7.17
  -8   3   8   65.77    8.72
   8   3  -8   45.89    9.17
   8  -3  -8   46.96    9.34
  -8  -3   7    6.17    2.60
  -8   3   7    3.51    2.04
   8   3  -7    3.78    1.98
   8  -3  -7    6.72    3.32
  -8   3   7    0.88    1.41
  -8  -3   6  122.26   10.00
  -8   3   6   89.09    7.72
   8   3  -6   90.77    7.80
   8  -3  -6  119.99   10.06
  -8   3   6   64.04   12.16
   8   3  -6   91.53    7.40
  -8  -3   5  367.02   28.52
  -8   3   5  377.71   29.52
   8   3  -5  406.65   77.30
   8  -3  -5  401.85   76.38
   8   3  -5  350.33   27.10
  -8  -3   4   56.84    5.19
  -8   3   4   46.56    4.48
   8   3  -4   69.11    6.20
   8  -3  -4   44.59    4.47
  -8   3   4   45.44    7.67
   8   3  -4   58.50    5.11
  -8  -3   3   69.87    6.25
  -8   3   3   64.64    5.83
   8   3  -3   78.39    6.68
   8  -3  -3   61.98    5.94
  -8   3   3   54.53    9.31
   8   3  -3   68.47    5.78
  -8  -3   2  404.67   76.89
  -8   3   2  401.18   76.23
   8   3  -2  417.88   79.38
  -8   3   2  347.31   29.70
   8   3  -2  368.89   28.64
  -8  -3   1   42.32    4.11
  -8   3   1   34.48    3.64
   8   3  -1   41.75    4.29
   8  -3  -1   53.92    5.26
  -8   3   1   32.22    5.06
   8   3  -1   47.76    4.97
  -8  -3   0   57.79    5.35
  -8   3   0   30.41    3.32
   8   3   0   53.05    5.49
   8  -3   0   49.85    4.88
  -8   3   0   32.99    4.18
   8   3   0   36.44    4.13
  -8  -3  -1  118.10   14.89
  -8   3  -1   79.54   10.23
   8   3   1  106.33   13.47
   8  -3   1  120.44   15.18
  -8   3  -1   84.15   15.59
   8   3   1   89.34   11.40
  -8  -3  -2   99.26   12.59
  -8   3  -2  119.96   14.99
   8   3   2  123.66   15.48
   8  -3   2  123.77   15.69
  -8   3  -2  114.87   17.96
   8   3   2  112.77   14.35
  -8  -3  -3    4.62    1.84
  -8   3  -3   11.27    2.32
   8   3   3   14.16    2.79
   8  -3   3   10.68    2.25
  -8   3  -3    7.54    2.71
   8   3   3   18.73    4.44
  -8  -3  -4    8.97    2.08
  -8   3  -4   12.60    2.22
   8   3   4   10.35    2.35
   8  -3   4   13.92    2.83
  -8   3  -4   19.09    4.09
   8   3   4   20.31    4.34
  -8  -3  -5    4.77    2.12
  -8   3  -5    9.49    3.26
   8   3   5    9.10    3.23
   8  -3   5    2.17    2.04
  -8   3  -5   13.41    3.79
   8   3   5    7.70    2.52
  -8  -3  -6   70.41   10.34
  -8   3  -6   89.07   10.18
   8  -3   6   59.73    7.38
  -8   3  -6   57.20   10.04
   8   3   6   73.04    8.85
  -8   3  -7   10.97    3.60
   8  -3   7    6.24    3.15
  -8   3  -7    7.12    2.38
   8   3   7    8.04    3.54
   8   4 -12   11.63    3.49
   8  -4 -12   16.72    3.37
  -8  -4  11    9.92    3.14
  -8   4  11   14.08    4.19
   8   4 -11   18.13    4.94
   8  -4 -11    2.34    1.56
  -8  -4  10    1.38    1.20
  -8   4  10   10.23    3.61
   8   4 -10    4.87    2.65
   8  -4 -10    8.95    2.53
  -8  -4   9   23.19    5.88
  -8   4   9   16.97    5.09
   8   4  -9   22.60    5.97
   8  -4  -9   10.95    3.27
  -8  -4   8   31.66    7.71
   8   4  -8   26.90    6.69
   8  -4  -8   22.37    5.59
  -8  -4   7   39.95    4.79
  -8   4   7   28.02    4.08
   8   4  -7   33.96    4.45
   8  -4  -7   15.08    2.45
  -8   4   7   23.79    5.32
  -8  -4   6   34.59    3.38
  -8   4   6   39.72    4.49
   8   4  -6   64.42    6.19
   8  -4  -6   42.50    4.40
  -8   4   6   47.03    7.72
   8   4  -6   52.86    4.49
  -8  -4   5   35.61    3.50
  -8   4   5   25.63    3.49
   8   4  -5   28.62    3.32
   8  -4  -5   30.94    3.53
  -8   4   5   19.74    3.31
   8   4  -5   29.06    2.80
  -8  -4   4   21.81    2.88
  -8   4   4    7.56    1.61
   8   4  -4   19.16    2.67
   8  -4  -4   21.33    3.20
  -8   4   4   10.81    2.69
   8   4  -4   19.21    2.35
  -8  -4   3   37.36    3.97
  -8   4   3   51.76    4.99
   8   4  -3   60.54    5.68
   8  -4  -3   32.59    3.81
  -8   4   3   49.65    7.47
   8   4  -3   59.77    5.08
  -8  -4   2   50.22    4.79
  -8   4   2   57.87    5.32
   8   4  -2   64.44    5.87
   8  -4  -2   31.80    3.48
  -8   4   2   45.71    9.03
   8   4  -2   67.37    5.75
  -8  -4   1  166.51   13.18
  -8   4   1  142.47   11.42
   8   4  -1  177.20   14.01
   8  -4  -1  167.88   13.54
  -8   4   1  111.85   19.10
   8   4  -1  158.00   12.46
  -8  -4   0   69.48    7.54
  -8   4   0   96.31   10.14
   8   4   0   79.41    8.52
  -8   4   0   60.96   10.93
   8   4   0   70.47    7.62
  -8  -4  -1   46.19    5.35
  -8   4  -1   34.05    4.08
   8   4   1   38.61    4.76
   8  -4   1   32.56    4.27
  -8   4  -1   27.25    5.09
   8   4   1   48.91    5.84
  -8  -4  -2  215.87   26.40
  -8   4  -2  200.80   24.57
   8   4   2  185.66   22.76
   8  -4   2  217.59   26.81
  -8   4  -2  136.64   22.87
   8   4   2  190.38   23.45
  -8  -4  -3   72.26   10.01
  -8   4  -3   74.85    9.54
   8   4   3   50.56    6.94
   8  -4   3   68.53    9.25
  -8   4  -3   39.07    6.41
   8   4   3   80.45   10.72
  -8  -4  -4   28.83    4.28
  -8   4  -4   31.24    4.03
   8   4   4   27.35    3.75
   8  -4   4   25.60    4.04
  -8   4  -4   32.83    4.94
   8   4   4   30.25    5.09
  -8  -4  -5   83.39   13.24
  -8   4  -5   70.57   10.43
   8  -4   5   68.10   10.39
  -8   4  -5   59.35   12.69
   8   4   5   93.78   13.99
  -8  -4  -6  110.86   19.31
   8  -4   6   86.99   13.49
  -8   4  -6   82.86   16.53
   8   4   6  104.99   16.47
  -8  -5   9   34.82    5.66
  -8   5   9   14.46    4.14
   8   5  -9   22.48    4.72
   8  -5  -9   19.26    3.65
  -8  -5   8   38.16    5.93
  -8   5   8   50.99    7.96
   8   5  -8   44.21    7.02
   8  -5  -8   32.18    5.34
  -8  -5   7  144.28   19.15
  -8   5   7  143.02   19.30
   8   5  -7  171.70   22.97
   8  -5  -7  154.75   20.71
  -8  -5   6   49.15    5.98
  -8   5   6   31.74    4.26
   8   5  -6   42.70    5.65
   8  -5  -6   46.87    5.95
  -8   5   6   24.83    4.29
   8   5  -6   35.93    4.29
  -8  -5   5   57.35    6.86
  -8   5   5   34.85    4.56
   8   5  -5   47.86    6.21
   8  -5  -5   47.42    5.90
  -8   5   5   33.65    5.90
   8   5  -5   45.14    5.40
  -8  -5   4  103.41   11.56
  -8   5   4   85.49    9.82
   8   5  -4  118.51   13.23
   8  -5  -4  126.11   14.28
  -8   5   4   86.57   13.52
   8   5  -4  109.36   12.06
  -8  -5   3   19.08    2.96
  -8   5   3   16.43    2.60
   8   5  -3   18.07    3.01
   8  -5  -3   11.76    2.51
  -8   5   3   15.02    3.17
   8   5  -3   25.33    3.52
  -8  -5   2   28.07    3.84
  -8   5   2   17.44    2.89
   8   5  -2   33.10    4.51
   8  -5  -2   13.46    2.56
  -8   5   2   21.86    3.89
   8   5  -2   27.97    3.84
  -8  -5   1   48.57    5.92
  -8   5   1   59.00    6.94
   8   5  -1   50.30    6.28
   8  -5  -1   31.25    4.38
  -8   5   1   54.36    7.91
   8   5  -1   67.63    7.83
  -8  -5   0    8.77    2.52
  -8   5   0    1.03    1.87
   8   5   0    4.31    1.81
   8  -5   0    5.53    1.94
  -8   5   0   12.14    2.76
   8   5   0    4.41    1.94
  -8  -5  -1   20.37    3.90
  -8   5  -1    4.91    1.92
   8   5   1   10.63    2.65
   8  -5   1    6.44    2.01
  -8   5  -1    7.59    1.77
   8   5   1    9.54    2.38
  -8  -5  -2   32.85    5.75
  -8   5  -2   16.83    4.36
   8   5   2   17.69    4.88
   8  -5   2   15.03    4.55
  -8   5  -2   16.70    4.50
   8   5   2   23.80    4.42
  -8  -5  -3   48.50    8.78
   8  -5   3   33.16    5.81
  -8   5  -3   37.00    7.67
   8   5   3   59.72    9.52
  -9   0  13  136.90   20.59
   9   0 -13  128.49   18.59
  -9   0  12  203.19   26.91
   9   0 -12  205.80   48.59
  -9   0  11   51.53    6.38
   9   0 -11   45.94    5.88
  -9   0  10   99.36   12.51
   9   0 -10  101.00   12.78
  -9   0   9  199.51   20.21
   9   0  -9  175.75   17.89
  -9   0   8   17.31    3.15
   9   0  -8   13.32    2.46
  -9   0   7   12.27    2.07
   9   0  -7   14.99    2.31
  -9   0   6   99.04   12.52
   9   0  -6  121.69   15.26
  -9   0   5  160.15   19.85
   9   0  -5  177.73   21.95
   9   0  -5  146.90   18.01
  -9   0   4   66.79    8.70
   9   0  -4   67.60    8.81
   9   0  -4   56.68    7.27
  -9   0   3   38.04    7.62
   9   0  -3   58.60    7.75
  -9   0   2  211.46   25.98
   9   0  -2  219.24   26.91
  -9   0   1   50.29    4.75
   9   0  -1   57.08    7.65
  -9   0   0   39.78    4.03
   9   0   0   45.72    4.86
  -9   0  -1   72.48    6.44
   9   0   1   80.75    7.05
  -9   0  -2   50.71    5.93
   9   0   2   47.07    5.54
  -9   0  -3    5.81    2.49
   9   0   3    4.55    2.81
  -9   0  -4   -0.36    1.48
   9   0   4   -0.60    1.83
  -9   0  -5    4.70    2.31
   9   0   5    1.48    1.86
  -9   0  -6   24.07    4.48
   9   0   6   19.54    4.06
  -9  -1  13   98.25   14.92
  -9   1  13   82.54   12.83
   9   1 -13   90.92   13.88
   9  -1 -13   98.62   15.00
  -9  -1  12    4.49    2.51
  -9   1  12    4.47    2.98
   9   1 -12    8.98    3.66
   9  -1 -12   -0.38    1.82
  -9  -1  11   18.51    3.23
  -9   1  11   19.59    3.44
   9   1 -11   14.24    2.70
   9  -1 -11   10.85    2.29
  -9  -1  10   11.06    3.34
  -9   1  10    2.19    1.98
   9   1 -10    8.33    3.04
   9  -1 -10    7.68    2.45
  -9  -1   9   25.78    3.44
  -9   1   9   27.89    3.66
   9  -1  -9   18.59    3.05
  -9  -1   8   24.44    3.61
  -9   1   8   16.03    2.73
   9   1  -8   18.13    2.98
   9  -1  -8   14.22    2.70
  -9  -1   7    6.18    2.51
  -9   1   7    2.44    1.73
   9   1  -7   -0.66    1.94
   9  -1  -7    4.50    2.32
  -9  -1   6   22.45    3.11
  -9   1   6   31.10    3.53
   9   1  -6   29.62    3.85
   9  -1  -6   17.16    2.72
  -9  -1   5   72.80    9.40
  -9   1   5   75.75    9.82
   9   1  -5   85.91   11.15
   9  -1  -5   80.17   10.30
   9   1  -5   72.28    9.09
  -9  -1   4   90.09   11.54
   9   1  -4   73.88    9.57
   9  -1  -4   68.67    8.97
   9   1  -4   81.31   10.27
  -9  -1   3    6.08    3.36
  -9   1   3    5.92    2.77
   9   1  -3    8.17    3.45
   9  -1  -3    4.31    2.77
   9   1  -3    7.31    2.57
  -9  -1   2   11.94    2.96
  -9   1   2   12.96    3.62
   9  -1  -2   10.58    3.49
   9   1  -2   16.02    3.94
  -9  -1   1  154.28   19.15
  -9   1   1  163.45   12.98
   9   1  -1  181.36   14.44
   9  -1  -1  178.24   14.10
   9   1  -1  167.39   13.37
  -9  -1   0   52.03    4.97
  -9   1   0   56.17    5.33
   9   1   0   53.49    5.34
   9  -1   0   52.07    5.07
   9   1   0   52.86    5.46
  -9  -1  -1   32.28    4.25
  -9   1  -1   35.48    4.47
   9   1   1   45.78    5.74
   9  -1   1   25.04    3.45
   9   1   1   43.53    5.36
  -9  -1  -2   99.48   10.50
  -9   1  -2   76.89    8.30
   9   1   2   78.25    8.54
   9  -1   2   85.40    9.30
   9   1   2   54.96    6.28
  -9  -1  -3  172.41   21.31
  -9   1  -3  180.04   22.17
   9   1   3  189.30   23.34
   9  -1   3  167.38   20.64
   9   1   3  154.07   19.24
  -9  -1  -4  115.37   13.11
  -9   1  -4  137.88   15.39
   9   1   4  154.11   17.12
   9  -1   4  116.35   13.12
   9   1   4  111.60   12.92
  -9  -1  -5   26.50    4.49
  -9   1  -5   37.68    5.77
   9   1   5   38.13    6.07
   9  -1   5   26.82    4.57
   9   1   5   30.01    5.05
   9   1   6  124.25   18.80
   9  -1   6  111.85   16.99
   9   1   6  120.76   18.44
  -9  -2  12  120.44   17.40
  -9   2  12  102.69   15.02
   9   2 -12  112.52   16.33
   9  -2 -12  128.00   18.45
  -9  -2  11   60.59    8.62
  -9   2  11   77.65   10.83
   9   2 -11   79.52   11.11
   9  -2 -11   52.51    7.58
  -9  -2  10   67.26    7.90
  -9   2  10   78.69    9.40
   9   2 -10   54.47    6.65
   9  -2 -10   76.77    8.98
  -9  -2   9   96.02   12.11
  -9   2   9   50.38    7.00
   9   2  -9   44.25    6.10
   9  -2  -9  103.06   12.96
  -9  -2   8   50.95    6.78
  -9   2   8   42.17    6.09
   9   2  -8   42.99    6.14
   9  -2  -8   39.76    5.60
  -9  -2   7  207.84   20.95
   9   2  -7  208.82   21.14
   9  -2  -7  205.54   20.78
  -9  -2   6   69.47    7.57
  -9   2   6   60.15    6.83
   9   2  -6   68.41    7.77
   9  -2  -6   55.12    6.27
  -9  -2   5   82.22    7.11
  -9   2   5   77.47    6.76
   9   2  -5   94.78    8.35
   9  -2  -5   92.13    7.96
   9   2  -5   68.59    5.67
  -9  -2   4  236.80   18.32
  -9   2   4  229.65   17.91
   9   2  -4  281.39   21.78
  -9   2   4  248.94   19.36
   9   2  -4  247.20   18.93
  -9  -2   3   64.82    5.79
  -9   2   3   81.64    6.99
   9   2  -3   98.38    8.46
   9  -2  -3   55.88    5.42
  -9   2   3   81.96    7.88
   9   2  -3  100.25    8.30
  -9  -2   2   18.09    2.70
  -9   2   2    6.09    1.89
   9   2  -2    4.27    2.24
   9  -2  -2   14.30    2.56
  -9   2   2    1.60    2.28
   9   2  -2    9.50    2.88
  -9  -2   1   29.74    4.03
  -9   2   1   24.18    3.47
   9   2  -1   49.47    6.14
  -9   2   1   21.41    3.64
   9   2  -1   41.08    5.16
  -9  -2   0  227.87   22.99
  -9   2   0  269.04   62.17
   9   2   0  306.95   70.90
   9  -2   0  223.47   22.56
  -9   2   0  274.92   63.59
   9   2   0  280.11   64.72
  -9  -2  -1   43.60    6.15
  -9   2  -1   58.31    7.88
   9   2   1   70.53    9.58
   9  -2   1   29.57    7.26
  -9   2  -1   47.92    7.25
   9   2   1   46.63    6.65
  -9  -2  -2   24.24    6.17
  -9   2  -2   15.99    4.23
   9   2   2   30.22    7.87
   9  -2   2   13.06    3.62
  -9   2  -2    7.30    3.09
   9   2   2   14.64    4.34
  -9  -2  -3   49.10    6.13
  -9   2  -3   59.83    7.20
   9   2   3   59.28    7.32
   9  -2   3   41.57    5.44
   9   2   3   66.68    8.23
  -9   2  -4    2.55    2.03
   9   2   4    9.89    3.01
   9  -2   4    9.88    3.59
   9   2   4   -0.72    2.45
  -9  -2  -5   16.34    4.37
  -9   2  -5   10.83    3.02
   9   2   5   10.23    3.25
   9  -2   5    9.95    3.07
   9   2   5   15.55    5.09
  -9  -3  10    3.71    1.81
  -9   3  10    3.02    2.18
   9   3 -10    1.42    2.08
   9  -3 -10    4.57    1.88
  -9  -3   9   19.28    3.45
  -9   3   9   11.09    3.04
   9   3  -9   12.17    2.74
   9  -3  -9    9.31    2.61
  -9  -3   8    2.42    1.75
  -9   3   8    5.33    2.58
   9   3  -8   10.00    3.33
   9  -3  -8   12.25    3.37
  -9  -3   7    6.57    2.33
  -9   3   7    4.04    2.67
   9   3  -7    8.32    2.91
   9  -3  -7    9.52    2.71
  -9  -3   6   76.04    9.78
  -9   3   6   71.76    9.47
   9   3  -6   75.03    9.74
   9  -3  -6   81.07   10.46
  -9  -3   5    0.66    1.76
  -9   3   5    4.00    2.36
   9  -3  -5    4.90    2.17
  -9   3   5   -0.17    2.03
   9   3  -5    3.85    1.89
  -9  -3   4    0.34    1.77
  -9   3   4    5.02    2.80
   9   3  -4    4.44    2.31
   9  -3  -4    1.68    1.97
  -9   3   4    0.11    1.67
   9   3  -4    9.43    3.15
  -9  -3   3   87.73   11.13
  -9   3   3   77.98   10.05
   9   3  -3  111.29   14.26
   9  -3  -3   97.72   12.53
  -9   3   3   65.32   14.14
   9   3  -3   81.15   10.24
  -9  -3   2   52.05    6.88
  -9   3   2   51.30    6.90
   9   3  -2   55.31    7.43
   9  -3  -2   51.90    7.06
   9   3  -2   57.66    7.53
  -9  -3   1    2.76    1.78
  -9   3   1    2.29    1.80
   9   3  -1    0.15    2.15
   9  -3  -1    6.13    3.09
  -9   3   1    3.92    2.71
   9   3  -1   -1.37    2.04
  -9  -3   0  139.43   17.34
  -9   3   0  137.38   17.08
   9   3   0  156.20   19.48
   9  -3   0  137.04   17.18
  -9   3   0   90.36   15.79
   9   3   0  156.13   19.53
  -9  -3  -1  103.00   11.67
  -9   3  -1  112.56   12.72
   9   3   1  142.35   16.05
   9  -3   1  117.02   13.34
  -9   3  -1   88.09   17.63
   9   3   1  138.34   15.64
  -9  -3  -2    4.55    2.23
  -9   3  -2    7.25    2.32
   9   3   2    7.38    2.94
   9  -3   2    1.37    2.38
  -9   3  -2   13.44    3.34
   9   3   2    7.04    2.57
  -9  -3  -3   12.69    3.65
  -9   3  -3   22.21    3.88
   9   3   3   25.77    4.29
   9  -3   3   22.90    4.82
  -9   3  -3   21.26    4.12
   9   3   3   21.81    4.23
  -9  -3  -4   82.00   12.67
  -9   3  -4  120.69   18.24
   9  -3   4  103.02   15.84
  -9   3  -4   80.20   18.17
   9   3   4  115.82   17.77
  -9  -4   8   84.87   13.02
  -9   4   8   58.12    9.36
   9   4  -8   54.86    8.82
   9  -4  -8   58.42    9.23
  -9  -4   7  128.02   18.33
  -9   4   7   67.14   10.13
   9   4  -7   80.27   11.77
   9  -4  -7  131.36   19.04
  -9  -4   6   34.00    5.35
  -9   4   6   19.61    3.70
   9   4  -6   31.51    5.21
   9  -4  -6    9.82    3.11
  -9  -4   5   69.17    9.64
  -9   4   5   74.05   10.32
   9   4  -5   77.87   10.71
   9  -4  -5   50.37    7.38
  -9   4   5   41.32    9.41
  -9  -4   4   86.33   11.74
  -9   4   4   77.21   10.73
   9   4  -4   91.43   12.48
   9  -4  -4   78.06   10.93
  -9   4   4   45.97   10.14
   9   4  -4   74.27   10.06
  -9  -4   3   95.30   12.99
  -9   4   3   84.42   11.65
   9   4  -3   88.36   12.06
   9  -4  -3   91.61   12.67
  -9   4   3   48.79   11.73
   9   4  -3   94.83   12.73
  -9  -4   2    5.59    1.73
  -9   4   2   12.46    2.69
   9   4  -2   18.20    3.53
  -9   4   2   10.42    3.65
   9   4  -2   13.49    2.46
  -9  -4   1   13.48    3.88
  -9   4   1   10.77    3.34
   9   4  -1    9.32    3.37
   9  -4  -1    7.38    3.07
  -9   4   1   14.35    4.49
   9   4  -1   19.53    3.78
  -9  -4   0   46.31    7.24
  -9   4   0   55.92    8.47
   9   4   0   67.84   10.33
   9  -4   0   34.59    5.94
   9   4   0   71.37   10.68
  -9  -4  -1   51.87    8.19
  -9   4  -1   65.52   10.15
   9   4   1   81.39   12.64
   9  -4   1   37.23    6.56
   9   4   1   83.89   12.86
 -10   0   9    1.73    1.90
  10   0  -9    9.20    3.80
 -10   0   8    4.33    1.92
 -10   0   7    7.80    2.71
  10   0  -7    7.65    3.78
 -10   0   6    9.56    2.37
  10   0  -6    6.62    3.84
 -10   0   5   48.13    7.05
  10   0  -5   42.92    6.50
 -10   0   4   13.03    2.61
  10   0  -4   20.25    3.62
  10   0  -4   13.34    2.22
 -10   0   3  101.53   11.57
  10   0  -3  114.14   12.98
  10   0  -3   85.98    9.74
  10   0  -2   20.24    4.34
  10   0  -2   18.10    3.02
 -10   0   1   14.08    2.79
  10   0  -1   16.34    3.45
  10   0  -1   17.36    3.74
  10   0   0    7.82    2.78
  10   0   0   12.50    3.93
 -10   0  -1   26.79    4.51
  10   0   1   41.83    6.71
  10   0   1   29.77    5.16
 -10  -1   9   24.08    4.41
 -10   1   9   44.60    7.37
  10   1  -9   37.50    6.32
  10  -1  -9   11.84    2.76
 -10  -1   8   39.68    6.40
 -10   1   8   50.23    7.72
  10   1  -8   34.34    5.80
  10  -1  -8   34.42    5.70
 -10  -1   7  113.76   16.45
 -10   1   7  100.69   14.70
  10   1  -7  116.72   16.97
  10  -1  -7  133.69   20.15
 -10  -1   6   20.22    3.78
 -10   1   6   25.10    4.36
  10   1  -6   32.45    5.08
 -10  -1   5   37.45    5.78
 -10   1   5   43.20    6.54
  10   1  -5   45.56    6.87
  10  -1  -5   20.97    4.05
 -10  -1   4  155.06   20.66
 -10   1   4  143.32   19.22
  10   1  -4  158.13   21.22
  10  -1  -4  184.55   24.63
  10   1  -4  118.88   15.80
 -10  -1   3   76.66   10.71
 -10   1   3   80.80   11.15
  10   1  -3   82.13   11.36
  10  -1  -3   77.72   10.92
  10   1  -3   71.75    9.86
 -10  -1   2   67.88    9.59
 -10   1   2   99.39   13.53
  10   1  -2  114.65   15.57
  10  -1  -2   65.71    9.29
  10   1  -2   88.33   11.98
 -10  -1   1   21.60    3.69
 -10   1   1   20.00    3.37
  10   1  -1   26.15    4.50
  10  -1  -1   22.58    4.16
  10   1  -1   31.23    4.86
 -10  -1   0   16.07    4.36
 -10   1   0   21.27    3.99
  10   1   0   24.15    4.23
  10  -1   0   25.22    4.32
  10   1   0   23.34    4.61
 -10  -1  -1   37.26    6.22
 -10   1  -1   50.62    8.12
  10   1   1   50.72    8.22
  10  -1   1   37.92    6.51
  10   1   1   37.68    6.19
 -10  -2   7    4.37    2.52
 -10   2   7    3.80    1.82
  10   2  -7    5.55    2.94
  10  -2  -7    7.31    2.17
 -10  -2   6    9.77    3.56
 -10   2   6    4.42    2.53
  10   2  -6    7.26    3.38
  10  -2  -6    2.86    1.89
 -10  -2   5   21.56    3.89
 -10   2   5   18.95    5.16
  10   2  -5   28.21    5.10
  10  -2  -5   15.97    4.79
 -10  -2   4   23.18    3.99
 -10   2   4   13.19    3.67
  10   2  -4   18.88    5.27
  10  -2  -4   18.23    5.04
 -10  -2   3   13.71    3.99
 -10   2   3    7.45    2.43
  10   2  -3    3.53    2.21
  10  -2  -3   12.10    3.99
  10   2  -3    7.30    2.29
 -10  -2   2   14.47    3.86
 -10   2   2   25.64    4.64
  10   2  -2   14.82    3.98
  10  -2  -2   16.60    4.68
  10   2  -2   11.30    3.51
 -10  -2   1   76.95   11.44
 -10   2   1  103.64   15.11
  10   2  -1  109.99   16.09
  10  -2  -1   86.61   12.78
  10   2  -1  106.25   15.47
 -10  -2   0   11.35    3.01
 -10   2   0    3.47    1.45
  10   2   0   10.88    3.15
  10  -2   0    5.07    2.12
  10   2   0    4.02    2.08

_computing_structure_solution     'SHELXT 2014/4 (Sheldrick, 2014)'
;
_shelx_hkl_checksum              97314
_shelx_shelxl_version_number     2014/7
_olex2_submission_special_instructions 'No special instructions were received'
loop_
_space_group_symop_operation_xyz
'x, y, z'
'-x, y+1/2, -z'
loop_
_atom_site_label
_atom_site_type_symbol
_atom_site_fract_x
_atom_site_fract_y
_atom_site_fract_z
_atom_site_U_iso_or_equiv
_atom_site_adp_type
_atom_site_occupancy
_atom_site_site_symmetry_order
_atom_site_calc_flag
_atom_site_refinement_flags_posn
Br1 Br 0.73677(6) 0.34107(9) 1.01558(4) 0.04105(19) Uani 1 1 d .
S1 S 0.76878(17) 0.6779(2) 0.70710(10) 0.0370(3) Uani 1 1 d .
O1 O 0.5265(4) 0.7010(6) 0.8550(3) 0.0322(8) Uani 1 1 d .
O2 O 0.8340(6) 0.9347(6) 0.9339(3) 0.0419(10) Uani 1 1 d .
O3 O 0.8998(6) 1.0411(7) 0.8073(4) 0.0507(12) Uani 1 1 d .
O4 O 0.9186(5) 0.7434(8) 0.6803(4) 0.0490(12) Uani 1 1 d .
O5 O 0.7238(6) 0.4794(7) 0.7018(3) 0.0443(10) Uani 1 1 d .
N1 N 0.7967(6) 0.7296(7) 0.8179(4) 0.0335(11) Uani 1 1 d .
C1 C 0.7019(6) 0.6448(8) 0.8813(4) 0.0291(10) Uani 1 1 d .
C2 C 0.7023(6) 0.4231(8) 0.8883(4) 0.0307(11) Uani 1 1 d .
H2 H 0.7850 0.3647 0.8575 0.037 Uiso 1 1 calc R
C3 C 0.5245(6) 0.3706(8) 0.8448(4) 0.0308(11) Uani 1 1 d .
C4 C 0.4457(7) 0.1959(10) 0.8250(5) 0.0358(13) Uani 1 1 d .
H4 H 0.5074 0.0825 0.8340 0.043 Uiso 1 1 calc R
C5 C 0.2728(8) 0.1922(11) 0.7916(5) 0.0399(15) Uani 1 1 d .
H5 H 0.2184 0.0751 0.7781 0.048 Uiso 1 1 calc R
C6 C 0.1803(6) 0.3602(12) 0.7780(4) 0.0395(13) Uani 1 1 d .
H6 H 0.0646 0.3544 0.7554 0.047 Uiso 1 1 calc R
C7 C 0.2575(7) 0.5385(9) 0.7976(4) 0.0326(13) Uani 1 1 d .
H7 H 0.1963 0.6522 0.7883 0.039 Uiso 1 1 calc R
C8 C 0.4305(7) 0.5375(9) 0.8316(4) 0.0312(12) Uani 1 1 d .
C9 C 0.7830(8) 0.7546(9) 0.9664(5) 0.0398(13) Uani 1 1 d .
H9A H 0.7025 0.7745 1.0047 0.048 Uiso 1 1 calc R
H9B H 0.8798 0.6855 0.9998 0.048 Uiso 1 1 calc R
C10 C 0.8502(7) 0.9158(9) 0.8481(5) 0.0391(14) Uani 1 1 d .
C11 C 0.5968(7) 0.8153(10) 0.6533(4) 0.0382(14) Uani 1 1 d .
C12 C 0.4358(8) 0.7289(12) 0.6362(4) 0.0454(15) Uani 1 1 d .
H12 H 0.4229 0.6007 0.6503 0.055 Uiso 1 1 calc R
C13 C 0.2978(7) 0.8392(17) 0.5982(4) 0.0536(16) Uani 1 1 d .
H13 H 0.1908 0.7842 0.5860 0.064 Uiso 1 1 calc R
C14 C 0.3169(9) 1.0344(13) 0.5774(5) 0.0535(19) Uani 1 1 d .
C15 C 0.4773(9) 1.1120(11) 0.5914(5) 0.0504(16) Uani 1 1 d .
H15 H 0.4916 1.2383 0.5748 0.060 Uiso 1 1 calc R
C16 C 0.6174(8) 1.0035(11) 0.6297(5) 0.0442(14) Uani 1 1 d .
H16 H 0.7247 1.0575 0.6394 0.053 Uiso 1 1 calc R
C17 C 0.1615(12) 1.1535(19) 0.5417(6) 0.085(3) Uani 1 1 d .
H17A H 0.0918 1.0882 0.4921 0.127 Uiso 1 1 calc GR
H17B H 0.1949 1.2757 0.5220 0.127 Uiso 1 1 calc GR
H17C H 0.0991 1.1723 0.5883 0.127 Uiso 1 1 calc GR
loop_
_atom_site_aniso_label
_atom_site_aniso_U_11
_atom_site_aniso_U_22
_atom_site_aniso_U_33
_atom_site_aniso_U_23
_atom_site_aniso_U_13
_atom_site_aniso_U_12
Br1 0.0371(3) 0.0480(3) 0.0373(3) 0.0059(3) 0.0060(2) -0.0010(3)
S1 0.0261(6) 0.0459(8) 0.0408(8) 0.0069(7) 0.0111(5) 0.0021(5)
O1 0.0182(15) 0.0321(19) 0.047(2) -0.0022(18) 0.0076(15) -0.0010(14)
O2 0.035(2) 0.037(2) 0.051(3) -0.006(2) 0.0019(19) -0.0060(17)
O3 0.031(2) 0.048(3) 0.068(3) 0.016(2) -0.001(2) -0.0105(19)
O4 0.028(2) 0.068(3) 0.056(3) 0.016(2) 0.0194(19) 0.005(2)
O5 0.050(3) 0.041(2) 0.043(3) -0.003(2) 0.013(2) 0.003(2)
N1 0.023(2) 0.035(2) 0.043(3) 0.005(2) 0.008(2) -0.0016(18)
C1 0.017(2) 0.034(3) 0.036(3) 0.000(2) 0.0046(19) 0.0009(18)
C2 0.022(2) 0.036(3) 0.034(3) 0.001(2) 0.005(2) -0.001(2)
C3 0.023(2) 0.034(3) 0.037(3) -0.003(2) 0.0087(19) -0.002(2)
C4 0.026(3) 0.035(3) 0.046(3) 0.004(3) 0.006(2) -0.002(2)
C5 0.031(3) 0.040(3) 0.049(4) 0.001(3) 0.009(3) -0.009(2)
C6 0.021(2) 0.053(4) 0.044(3) 0.001(3) 0.0048(19) -0.003(3)
C7 0.019(2) 0.039(3) 0.040(3) 0.004(2) 0.006(2) -0.002(2)
C8 0.028(3) 0.032(3) 0.035(3) 0.002(2) 0.009(2) -0.004(2)
C9 0.032(3) 0.037(3) 0.051(4) -0.005(3) 0.007(3) -0.007(2)
C10 0.019(2) 0.036(3) 0.061(4) 0.003(3) 0.006(2) -0.005(2)
C11 0.028(2) 0.049(4) 0.039(3) 0.002(3) 0.009(2) -0.004(3)
C12 0.030(3) 0.067(4) 0.039(3) 0.007(3) 0.005(2) -0.006(3)
C13 0.026(2) 0.095(5) 0.038(3) 0.010(5) 0.001(2) 0.003(4)
C14 0.042(3) 0.078(5) 0.041(4) 0.009(4) 0.008(3) 0.020(3)
C15 0.051(4) 0.052(4) 0.046(4) 0.013(3) 0.002(3) 0.010(3)
C16 0.036(3) 0.052(4) 0.044(3) 0.010(3) 0.007(3) 0.000(3)
C17 0.061(5) 0.133(10) 0.055(5) 0.022(6) 0.002(4) 0.047(6)
loop_
_atom_type_symbol
_atom_type_description
_atom_type_scat_dispersion_real
_atom_type_scat_dispersion_imag
_atom_type_scat_source
C C 0.0033 0.0016 'International Tables Vol C Tables 4.2.6.8 and 6.1.1.4'
H H 0.0000 0.0000 'International Tables Vol C Tables 4.2.6.8 and 6.1.1.4'
Br Br -0.2901 2.4595 'International Tables Vol C Tables 4.2.6.8 and 6.1.1.4'
N N 0.0061 0.0033 'International Tables Vol C Tables 4.2.6.8 and 6.1.1.4'
O O 0.0106 0.0060 'International Tables Vol C Tables 4.2.6.8 and 6.1.1.4'
S S 0.1246 0.1234 'International Tables Vol C Tables 4.2.6.8 and 6.1.1.4'
loop_
_geom_angle_atom_site_label_1
_geom_angle_atom_site_label_2
_geom_angle_atom_site_label_3
_geom_angle
O4 S1 N1 105.6(3)
O4 S1 C11 109.3(3)
O5 S1 O4 120.9(3)
O5 S1 N1 104.0(3)
O5 S1 C11 109.6(3)
N1 S1 C11 106.3(3)
C8 O1 C1 108.3(4)
C10 O2 C9 109.8(5)
C1 N1 S1 125.8(4)
C10 N1 S1 119.2(5)
C10 N1 C1 108.7(5)
O1 C1 N1 108.8(4)
O1 C1 C2 106.1(4)
O1 C1 C9 109.0(4)
N1 C1 C2 116.8(5)
N1 C1 C9 99.4(5)
C9 C1 C2 116.5(5)
Br1 C2 H2 112.0
C1 C2 Br1 110.6(4)
C1 C2 H2 112.0
C3 C2 Br1 106.9(4)
C3 C2 C1 103.0(4)
C3 C2 H2 111.9
C4 C3 C2 132.1(5)
C4 C3 C8 119.7(5)
C8 C3 C2 108.0(5)
C3 C4 H4 120.6
C3 C4 C5 118.9(6)
C5 C4 H4 120.6
C4 C5 H5 119.6
C6 C5 C4 120.9(6)
C6 C5 H5 119.6
C5 C6 H6 119.4
C5 C6 C7 121.2(5)
C7 C6 H6 119.4
C6 C7 H7 121.7
C8 C7 C6 116.6(6)
C8 C7 H7 121.7
O1 C8 C7 124.1(6)
C3 C8 O1 113.1(5)
C3 C8 C7 122.7(5)
O2 C9 C1 104.4(5)
O2 C9 H9A 110.9
O2 C9 H9B 110.9
C1 C9 H9A 110.9
C1 C9 H9B 110.9
H9A C9 H9B 108.9
O2 C10 N1 108.7(5)
O3 C10 O2 123.0(6)
O3 C10 N1 128.2(7)
C12 C11 S1 117.9(5)
C16 C11 S1 121.1(5)
C16 C11 C12 121.0(6)
C11 C12 H12 120.8
C13 C12 C11 118.4(8)
C13 C12 H12 120.8
C12 C13 H13 119.5
C12 C13 C14 120.9(7)
C14 C13 H13 119.5
C13 C14 C17 119.2(8)
C15 C14 C13 119.0(6)
C15 C14 C17 121.7(9)
C14 C15 H15 119.6
C14 C15 C16 120.8(7)
C16 C15 H15 119.6
C11 C16 C15 119.7(6)
C11 C16 H16 120.1
C15 C16 H16 120.1
C14 C17 H17A 109.5
C14 C17 H17B 109.5
C14 C17 H17C 109.5
H17A C17 H17B 109.5
H17A C17 H17C 109.5
H17B C17 H17C 109.5
loop_
_geom_bond_atom_site_label_1
_geom_bond_atom_site_label_2
_geom_bond_distance
Br1 C2 1.984(6)
S1 O4 1.431(4)
S1 O5 1.430(5)
S1 N1 1.695(6)
S1 C11 1.748(6)
O1 C1 1.448(6)
O1 C8 1.385(7)
O2 C9 1.441(8)
O2 C10 1.346(9)
O3 C10 1.188(8)
N1 C1 1.474(7)
N1 C10 1.415(8)
C1 C2 1.550(8)
C1 C9 1.531(9)
C2 H2 0.9800
C2 C3 1.501(7)
C3 C4 1.380(9)
C3 C8 1.382(8)
C4 H4 0.9300
C4 C5 1.387(8)
C5 H5 0.9300
C5 C6 1.383(11)
C6 H6 0.9300
C6 C7 1.396(10)
C7 H7 0.9300
C7 C8 1.390(8)
C9 H9A 0.9700
C9 H9B 0.9700
C11 C12 1.410(8)
C11 C16 1.380(10)
C12 H12 0.9300
C12 C13 1.383(10)
C13 H13 0.9300
C13 C14 1.413(14)
C14 C15 1.382(11)
C14 C17 1.512(10)
C15 H15 0.9300
C15 C16 1.388(9)
C16 H16 0.9300
C17 H17A 0.9600
C17 H17B 0.9600
C17 H17C 0.9600
loop_
_geom_torsion_atom_site_label_1
_geom_torsion_atom_site_label_2
_geom_torsion_atom_site_label_3
_geom_torsion_atom_site_label_4
_geom_torsion
Br1 C2 C3 C4 -67.6(7)
Br1 C2 C3 C8 106.4(5)
S1 N1 C1 O1 -64.5(6)
S1 N1 C1 C2 55.5(6)
S1 N1 C1 C9 -178.4(4)
S1 N1 C10 O2 168.8(4)
S1 N1 C10 O3 -10.1(8)
S1 C11 C12 C13 176.6(5)
S1 C11 C16 C15 -176.6(6)
O1 C1 C2 Br1 -101.8(4)
O1 C1 C2 C3 12.1(6)
O1 C1 C9 O2 -85.1(5)
O4 S1 N1 C1 -162.0(5)
O4 S1 N1 C10 49.0(5)
O4 S1 C11 C12 151.6(5)
O4 S1 C11 C16 -29.5(6)
O5 S1 N1 C1 -33.7(5)
O5 S1 N1 C10 177.3(4)
O5 S1 C11 C12 16.9(6)
O5 S1 C11 C16 -164.2(5)
N1 S1 C11 C12 -95.0(5)
N1 S1 C11 C16 84.0(6)
N1 C1 C2 Br1 136.7(4)
N1 C1 C2 C3 -109.3(5)
N1 C1 C9 O2 28.6(5)
C1 O1 C8 C3 3.6(7)
C1 O1 C8 C7 -175.8(6)
C1 N1 C10 O2 15.0(6)
C1 N1 C10 O3 -163.9(6)
C1 C2 C3 C4 175.8(6)
C1 C2 C3 C8 -10.2(6)
C2 C1 C9 O2 155.0(4)
C2 C3 C4 C5 173.9(6)
C2 C3 C8 O1 4.6(7)
C2 C3 C8 C7 -175.9(6)
C3 C4 C5 C6 0.1(10)
C4 C3 C8 O1 179.5(6)
C4 C3 C8 C7 -1.0(9)
C4 C5 C6 C7 -0.1(10)
C5 C6 C7 C8 -0.3(9)
C6 C7 C8 O1 -179.7(6)
C6 C7 C8 C3 0.9(10)
C8 O1 C1 N1 116.5(5)
C8 O1 C1 C2 -10.0(6)
C8 O1 C1 C9 -136.1(5)
C8 C3 C4 C5 0.5(9)
C9 O2 C10 O3 -175.9(6)
C9 O2 C10 N1 5.1(6)
C9 C1 C2 Br1 19.6(6)
C9 C1 C2 C3 133.6(5)
C10 O2 C9 C1 -22.1(6)
C10 N1 C1 O1 87.2(5)
C10 N1 C1 C2 -152.8(5)
C10 N1 C1 C9 -26.7(5)
C11 S1 N1 C1 82.0(5)
C11 S1 N1 C10 -67.1(5)
C11 C12 C13 C14 -0.5(10)
C12 C11 C16 C15 2.3(10)
C12 C13 C14 C15 3.4(11)
C12 C13 C14 C17 -175.9(7)
C13 C14 C15 C16 -3.5(11)
C14 C15 C16 C11 0.7(11)
C16 C11 C12 C13 -2.4(10)
C17 C14 C15 C16 175.7(7)
