#------------------------------------------------------------------------------
#$Date: 2019-11-24 18:29:27 +0200 (Sun, 24 Nov 2019) $
#$Revision: 239012 $
#$URL: file:///home/coder/svn-repositories/cod/cif/1/55/56/1555682.cif $
#------------------------------------------------------------------------------
#
# This file is available in the Crystallography Open Database (COD),
# http://www.crystallography.net/
#
# All data on this site have been placed in the public domain by the
# contributors.
#
data_1555682
loop_
_publ_author_name
'Bender, Trandon A.'
'Dabrowski, Jennifer A.'
'Zhong, Hongyu'
'Gagn\'e, Michel R'
_publ_section_title
;
 Diastereoselective B(C6F5)3-Catalyzed Reductive Carbocyclization of
 Unsaturated Carbohydrates.
;
_journal_issue                   16
_journal_name_full               'Organic letters'
_journal_page_first              4120
_journal_page_last               4123
_journal_paper_doi               10.1021/acs.orglett.6b02050
_journal_volume                  18
_journal_year                    2016
_chemical_absolute_configuration syn
_chemical_formula_moiety         'C13 H17 Br O3'
_chemical_formula_sum            'C13 H17 Br O3'
_chemical_formula_weight         301.17
_space_group_crystal_system      monoclinic
_space_group_IT_number           4
_space_group_name_Hall           'P 2yb'
_space_group_name_H-M_alt        'P 1 21 1'
_atom_sites_solution_hydrogens   geom
_audit_creation_date             2015-12-17
_audit_creation_method
;
Olex2 1.2
(compiled 2015.09.30 svn.r3233 for OlexSys, GUI svn.r5103)
;
_cell_angle_alpha                90
_cell_angle_beta                 94.9040(10)
_cell_angle_gamma                90
_cell_formula_units_Z            2
_cell_length_a                   5.8040(2)
_cell_length_b                   7.1933(2)
_cell_length_c                   15.2241(5)
_cell_measurement_reflns_used    8580
_cell_measurement_temperature    100.15
_cell_measurement_theta_max      70.00
_cell_measurement_theta_min      2.91
_cell_volume                     633.28(3)
_computing_cell_refinement       'SAINT v8.34A (Bruker, 2013)'
_computing_data_reduction        'SAINT v8.34A (Bruker, 2013)'
_computing_molecular_graphics    'Olex2 (Dolomanov et al., 2009)'
_computing_publication_material  'Olex2 (Dolomanov et al., 2009)'
_computing_structure_refinement  'ShelXL (Sheldrick, 2015)'
_computing_structure_solution    'SIR97 (Burla et al., 2007)'
_diffrn_ambient_temperature      100.15
_diffrn_measured_fraction_theta_full 1.000
_diffrn_measured_fraction_theta_max 0.999
_diffrn_measurement_device_type  'Bruker APEX-II CCD'
_diffrn_measurement_method       '\f and \w scans'
_diffrn_radiation_type           CuK\a
_diffrn_radiation_wavelength     1.54178
_diffrn_reflns_av_R_equivalents  0.0235
_diffrn_reflns_av_unetI/netI     0.0228
_diffrn_reflns_Laue_measured_fraction_full 1.000
_diffrn_reflns_Laue_measured_fraction_max 0.999
_diffrn_reflns_limit_h_max       7
_diffrn_reflns_limit_h_min       -7
_diffrn_reflns_limit_k_max       8
_diffrn_reflns_limit_k_min       -8
_diffrn_reflns_limit_l_max       18
_diffrn_reflns_limit_l_min       -18
_diffrn_reflns_number            10189
_diffrn_reflns_point_group_measured_fraction_full 0.996
_diffrn_reflns_point_group_measured_fraction_max 0.993
_diffrn_reflns_theta_full        67.679
_diffrn_reflns_theta_max         69.990
_diffrn_reflns_theta_min         2.913
_diffrn_standards_number         0
_exptl_absorpt_coefficient_mu    4.387
_exptl_absorpt_correction_T_max  0.8936
_exptl_absorpt_correction_T_min  0.4694
_exptl_absorpt_correction_type   numerical
_exptl_absorpt_process_details
;
SADABS-2014/5 (Bruker,2014/5) was used for absorption correction.
wR2(int) was 0.0545 before and 0.0449 after correction.
The Ratio of minimum to maximum transmission is 0.5253.
The \l/2 correction factor is 0.00150.
;
_exptl_crystal_colour            colourless
_exptl_crystal_colour_primary    colourless
_exptl_crystal_density_diffrn    1.579
_exptl_crystal_description       plate
_exptl_crystal_F_000             308
_exptl_crystal_recrystallization_method
'DCM/MeOH, room temperature, slow evaporation'
_exptl_crystal_size_max          0.27
_exptl_crystal_size_mid          0.16
_exptl_crystal_size_min          0.03
_refine_diff_density_max         0.357
_refine_diff_density_min         -0.571
_refine_diff_density_rms         0.061
_refine_ls_abs_structure_details
;
 Flack x determined using 1063 quotients [(I+)-(I-)]/[(I+)+(I-)]
 (Parsons, Flack and Wagner, Acta Cryst. B69 (2013) 249-259).
;
_refine_ls_abs_structure_Flack   0.032(7)
_refine_ls_extinction_method     none
_refine_ls_goodness_of_fit_ref   1.113
_refine_ls_hydrogen_treatment    constr
_refine_ls_matrix_type           full
_refine_ls_number_parameters     155
_refine_ls_number_reflns         2389
_refine_ls_number_restraints     1
_refine_ls_restrained_S_all      1.113
_refine_ls_R_factor_all          0.0207
_refine_ls_R_factor_gt           0.0206
_refine_ls_shift/su_max          0.000
_refine_ls_shift/su_mean         0.000
_refine_ls_structure_factor_coef Fsqd
_refine_ls_weighting_details
'w=1/[\s^2^(Fo^2^)+(0.0257P)^2^+0.3486P] where P=(Fo^2^+2Fc^2^)/3'
_refine_ls_weighting_scheme      calc
_refine_ls_wR_factor_gt          0.0523
_refine_ls_wR_factor_ref         0.0524
_reflns_Friedel_coverage         0.829
_reflns_Friedel_fraction_full    0.991
_reflns_Friedel_fraction_max     0.985
_reflns_number_gt                2376
_reflns_number_total             2389
_reflns_threshold_expression     'I > 2\s(I)'
_iucr_refine_instructions_details
;

    x1506009.res created by SHELXL-2014/7

TITL SIR92 run in space group P 21
CELL 1.54178 5.804 7.1933 15.2241 90 94.904 90
ZERR 2 0.0002 0.0002 0.0005 0 0.001 0
LATT -1
SYMM -X,0.5+Y,-Z
SFAC C H Br O
UNIT 26 34 2 6
 
L.S. 10
PLAN  5
SIZE 0.03 0.16 0.27
TEMP -173
BOND $H
CONF
HTAB
fmap 2
acta
MERG 2
REM <olex2.extras>
REM <HklSrc "%.\\x1506009.hkl">
REM </olex2.extras>
 
WGHT    0.025700    0.348600
FVAR       0.27064
C1    1    0.535450    0.414611    0.161125    11.00000    0.01307    0.01240 =
         0.01544    0.00019    0.00142   -0.00061
AFIX  43
H1    2    0.421187    0.509421    0.159252    11.00000   -1.20000
AFIX   0
C2    1    0.575136    0.323939    0.236946    11.00000    0.01254    0.01130 =
         0.01379   -0.00119   -0.00072    0.00010
AFIX  43
H2    2    0.692872    0.231842    0.241389    11.00000   -1.20000
AFIX   0
C4    1    0.442989    0.359699    0.316229    11.00000    0.01412    0.01374 =
         0.01284    0.00068   -0.00061    0.00236
AFIX  13
H4    2    0.348066    0.474212    0.303809    11.00000   -1.20000
AFIX   0
C3    1    0.274770    0.199233    0.331203    11.00000    0.01618    0.01856 =
         0.02008    0.00234   -0.00110   -0.00346
AFIX 137
H3A   2    0.158985    0.190305    0.280614    11.00000   -1.50000
H3B   2    0.197305    0.223125    0.384807    11.00000   -1.50000
H3C   2    0.361062    0.082240    0.337708    11.00000   -1.50000
AFIX   0
C5    1    0.602252    0.396265    0.400224    11.00000    0.01721    0.02122 =
         0.01160    0.00122    0.00163   -0.00131
AFIX  13
H5    2    0.503620    0.435472    0.447683    11.00000   -1.20000
AFIX   0
C6    1    0.780141    0.548896    0.389474    11.00000    0.01775    0.03165 =
         0.01157   -0.00598    0.00280   -0.00545
AFIX  13
H6    2    0.871423    0.518129    0.338587    11.00000   -1.20000
AFIX   0
C7    1    0.669718    0.735666    0.374878    11.00000    0.03002    0.02572 =
         0.02121   -0.01078    0.00819   -0.01205
AFIX  23
H7A   2    0.578995    0.737559    0.316782    11.00000   -1.20000
H7B   2    0.562291    0.758759    0.420819    11.00000   -1.20000
AFIX   0
C8    1    0.649755    0.383693    0.079781    11.00000    0.01173    0.01025 =
         0.01594   -0.00104    0.00071   -0.00268
C9    1    0.867887    0.300487    0.078173    11.00000    0.01401    0.01231 =
         0.01402    0.00704   -0.00267   -0.00316
AFIX  43
H9    2    0.949629    0.263426    0.132054    11.00000   -1.20000
AFIX   0
C10   1    0.966576    0.271237   -0.000314    11.00000    0.01223    0.00512 =
         0.02146   -0.00065    0.00115    0.00021
AFIX  43
H10   2    1.112607    0.211708   -0.000651    11.00000   -1.20000
AFIX   0
C11   1    0.848269    0.330505   -0.078728    11.00000    0.01611    0.01018 =
         0.01271   -0.00083    0.00560   -0.00257
C12   1    0.633014    0.414765   -0.080209    11.00000    0.01550    0.01267 =
         0.01249    0.00044   -0.00012   -0.00091
AFIX  43
H12   2    0.552939    0.452541   -0.134298    11.00000   -1.20000
AFIX   0
C13   1    0.537456    0.442540   -0.000696    11.00000    0.01114    0.01070 =
         0.01639    0.00210    0.00052   -0.00113
AFIX  43
H13   2    0.391969    0.503083   -0.000782    11.00000   -1.20000
AFIX   0
BR1   3    0.985196    0.299850   -0.187112    11.00000    0.01916    0.02029 =
         0.01439   -0.00045    0.00622    0.00103
O2    4    0.931223    0.555972    0.468382    11.00000    0.02511    0.07675 =
         0.01898   -0.01723   -0.00408   -0.01546
AFIX  83
H2A   2    0.975103    0.447930    0.482482    11.00000   -1.50000
AFIX   0
O1    4    0.719963    0.229226    0.428353    11.00000    0.01946    0.04419 =
         0.02925    0.02510   -0.00010    0.00349
AFIX  83
H1A   2    0.680054    0.197926    0.478002    11.00000   -1.50000
AFIX   0
O3    4    0.840198    0.878873    0.377882    11.00000    0.05294    0.05152 =
         0.05143   -0.03255    0.03439   -0.03694
AFIX  83
H3    2    0.935919    0.855930    0.340941    11.00000   -1.50000
AFIX   0
HKLF 4
 
REM  SIR92 run in space group P 21
REM R1 =  0.0206 for    2376 Fo > 4sig(Fo)  and  0.0207 for all    2389 data
REM    155 parameters refined using      1 restraints
 
END  
     
WGHT      0.0257      0.3486 

REM Instructions for potential hydrogen bonds
HTAB O2 O1
EQIV $1 -x+2, y-1/2, -z+1
HTAB O2 O3_$1
EQIV $2 -x+2, y+1/2, -z
HTAB O3 Br1_$2

REM Highest difference peak  0.357,  deepest hole -0.571,  1-sigma level  0.061
Q1    1   0.8738  0.8832  0.4206  11.00000  0.05    0.36
Q2    1   0.8449  0.2369  0.4570  11.00000  0.05    0.28
Q3    1   0.9153  0.3150 -0.1336  11.00000  0.05    0.27
Q4    1   0.7542  0.9429  0.3822  11.00000  0.05    0.26
Q5    1   0.8950  0.8120  0.3833  11.00000  0.05    0.26

  REM The information below was added by Olex2.
  REM
  REM R1 = 0.0206 for 2376 Fo > 4sig(Fo) and 0.0207 for all 10204 data
  REM n/a parameters refined using n/a restraints
  REM Highest difference peak 0.36, deepest hole -0.57
  REM Mean Shift 0, Max Shift 0.000.
  
  REM +++ Tabular Listing of Refinement Information +++
  REM R1_all = 0.0207
  REM R1_gt = 0.0206
  REM wR_ref = 0.0524
  REM GOOF = 1.113
  REM Shift_max = 0.000
  REM Shift_mean = 0
  REM Reflections_all = 10204
  REM Reflections_gt = 2376
  REM Parameters = n/a
  REM Hole = -0.57
  REM Peak = 0.36
  REM Flack = 0.032(7)
  
  
;
_cod_data_source_file            ol6b02050_si_002.cif
_cod_data_source_block           x1506009
_cod_database_code               1555682
_shelx_space_group_comment
;
The symmetry employed for this shelxl refinement is uniquely defined
by the following loop, which should always be used as a source of
symmetry information in preference to the above space-group names.
They are only intended as comments.
;
_shelx_estimated_absorpt_t_max   0.880
_shelx_estimated_absorpt_t_min   0.384
_olex2_refinement_description
;
1. Fixed Uiso
 At 1.2 times of:
  All C(H) groups, All C(H,H) groups
 At 1.5 times of:
  All C(H,H,H) groups, All O(H) groups
2.a Ternary CH refined with riding coordinates:
 C4(H4), C5(H5), C6(H6)
2.b Secondary CH2 refined with riding coordinates:
 C7(H7A,H7B)
2.c Aromatic/amide H refined with riding coordinates:
 C1(H1), C2(H2), C9(H9), C10(H10), C12(H12), C13(H13)
2.d Tetrahedral OH refined with riding coordinates:
 O2(H2A), O1(H1A), O3(H3)
2.e Idealised Me refined as rotating group:
 C3(H3A,H3B,H3C)
;
_shelx_shelxl_version_number     2014/7
_olex2_submission_special_instructions 'No special instructions were received'
loop_
_space_group_symop_operation_xyz
'x, y, z'
'-x, y+1/2, -z'
loop_
_atom_site_label
_atom_site_type_symbol
_atom_site_fract_x
_atom_site_fract_y
_atom_site_fract_z
_atom_site_U_iso_or_equiv
_atom_site_adp_type
_atom_site_occupancy
_atom_site_site_symmetry_order
_atom_site_calc_flag
_atom_site_refinement_flags_posn
C1 C 0.5354(5) 0.4146(4) 0.1611(2) 0.0136(6) Uani 1 1 d .
H1 H 0.4212 0.5094 0.1593 0.016 Uiso 1 1 calc R
C2 C 0.5751(5) 0.3239(6) 0.23695(19) 0.0126(7) Uani 1 1 d .
H2 H 0.6929 0.2318 0.2414 0.015 Uiso 1 1 calc R
C4 C 0.4430(6) 0.3597(5) 0.3162(2) 0.0137(6) Uani 1 1 d .
H4 H 0.3481 0.4742 0.3038 0.016 Uiso 1 1 calc R
C3 C 0.2748(6) 0.1992(5) 0.3312(2) 0.0184(7) Uani 1 1 d .
H3A H 0.1590 0.1903 0.2806 0.028 Uiso 1 1 calc GR
H3B H 0.1973 0.2231 0.3848 0.028 Uiso 1 1 calc GR
H3C H 0.3611 0.0822 0.3377 0.028 Uiso 1 1 calc GR
C5 C 0.6023(6) 0.3963(5) 0.4002(2) 0.0167(7) Uani 1 1 d .
H5 H 0.5036 0.4355 0.4477 0.020 Uiso 1 1 calc R
C6 C 0.7801(6) 0.5489(5) 0.3895(2) 0.0202(7) Uani 1 1 d .
H6 H 0.8714 0.5181 0.3386 0.024 Uiso 1 1 calc R
C7 C 0.6697(7) 0.7357(5) 0.3749(2) 0.0253(8) Uani 1 1 d .
H7A H 0.5790 0.7376 0.3168 0.030 Uiso 1 1 calc R
H7B H 0.5623 0.7588 0.4208 0.030 Uiso 1 1 calc R
C8 C 0.6498(5) 0.3837(5) 0.0798(2) 0.0127(6) Uani 1 1 d .
C9 C 0.8679(4) 0.3005(8) 0.07817(17) 0.0137(5) Uani 1 1 d .
H9 H 0.9496 0.2634 0.1321 0.016 Uiso 1 1 calc R
C10 C 0.9666(5) 0.2712(4) -0.0003(2) 0.0130(7) Uani 1 1 d .
H10 H 1.1126 0.2117 -0.0007 0.016 Uiso 1 1 calc R
C11 C 0.8483(5) 0.3305(5) -0.07873(19) 0.0127(7) Uani 1 1 d .
C12 C 0.6330(5) 0.4148(4) -0.0802(2) 0.0136(6) Uani 1 1 d .
H12 H 0.5529 0.4525 -0.1343 0.016 Uiso 1 1 calc R
C13 C 0.5375(5) 0.4425(4) -0.0007(2) 0.0128(6) Uani 1 1 d .
H13 H 0.3920 0.5031 -0.0008 0.015 Uiso 1 1 calc R
Br1 Br 0.98520(5) 0.29985(7) -0.18711(2) 0.01767(11) Uani 1 1 d .
O2 O 0.9312(5) 0.5560(6) 0.46838(19) 0.0406(8) Uani 1 1 d .
H2A H 0.9751 0.4479 0.4825 0.061 Uiso 1 1 calc R
O1 O 0.7200(5) 0.2292(4) 0.42835(19) 0.0311(7) Uani 1 1 d .
H1A H 0.6801 0.1979 0.4780 0.047 Uiso 1 1 calc R
O3 O 0.8402(6) 0.8789(5) 0.3779(2) 0.0502(10) Uani 1 1 d .
H3 H 0.9359 0.8559 0.3409 0.075 Uiso 1 1 calc R
loop_
_atom_site_aniso_label
_atom_site_aniso_U_11
_atom_site_aniso_U_22
_atom_site_aniso_U_33
_atom_site_aniso_U_23
_atom_site_aniso_U_13
_atom_site_aniso_U_12
C1 0.0131(14) 0.0124(16) 0.0154(15) 0.0002(12) 0.0014(11) -0.0006(12)
C2 0.0125(12) 0.011(2) 0.0138(12) -0.0012(13) -0.0007(10) 0.0001(13)
C4 0.0141(14) 0.0137(16) 0.0128(15) 0.0007(10) -0.0006(11) 0.0024(11)
C3 0.0162(16) 0.0186(18) 0.0201(16) 0.0023(13) -0.0011(13) -0.0035(14)
C5 0.0172(16) 0.0212(18) 0.0116(16) 0.0012(13) 0.0016(13) -0.0013(14)
C6 0.0178(16) 0.032(2) 0.0116(15) -0.0060(14) 0.0028(12) -0.0055(14)
C7 0.0300(19) 0.0257(19) 0.0212(17) -0.0108(13) 0.0082(14) -0.0120(15)
C8 0.0117(14) 0.0102(13) 0.0159(15) -0.0010(12) 0.0007(12) -0.0027(12)
C9 0.0140(12) 0.0123(12) 0.0140(12) 0.007(2) -0.0027(9) -0.003(2)
C10 0.0122(12) 0.005(2) 0.0215(14) -0.0006(12) 0.0012(10) 0.0002(11)
C11 0.0161(13) 0.010(2) 0.0127(13) -0.0008(12) 0.0056(10) -0.0026(12)
C12 0.0155(14) 0.0127(16) 0.0125(15) 0.0004(12) -0.0001(11) -0.0009(12)
C13 0.0111(14) 0.0107(14) 0.0164(15) 0.0021(11) 0.0005(11) -0.0011(12)
Br1 0.01916(15) 0.02029(16) 0.01439(15) -0.00045(18) 0.00622(10) 0.00103(18)
O2 0.0251(14) 0.077(2) 0.0190(13) -0.0172(14) -0.0041(10) -0.0155(15)
O1 0.0195(13) 0.0442(17) 0.0293(14) 0.0251(12) -0.0001(11) 0.0035(11)
O3 0.053(2) 0.052(2) 0.051(2) -0.0325(16) 0.0344(17) -0.0369(17)
loop_
_atom_type_symbol
_atom_type_description
_atom_type_scat_dispersion_real
_atom_type_scat_dispersion_imag
_atom_type_scat_source
C C 0.0181 0.0091 'International Tables Vol C Tables 4.2.6.8 and 6.1.1.4'
H H 0.0000 0.0000 'International Tables Vol C Tables 4.2.6.8 and 6.1.1.4'
Br Br -0.6763 1.2805 'International Tables Vol C Tables 4.2.6.8 and 6.1.1.4'
O O 0.0492 0.0322 'International Tables Vol C Tables 4.2.6.8 and 6.1.1.4'
loop_
_geom_angle_atom_site_label_1
_geom_angle_atom_site_label_2
_geom_angle_atom_site_label_3
_geom_angle
C2 C1 H1 116.6
C2 C1 C8 126.9(3)
C8 C1 H1 116.6
C1 C2 H2 118.3
C1 C2 C4 123.4(3)
C4 C2 H2 118.3
C2 C4 H4 107.4
C2 C4 C3 111.3(3)
C2 C4 C5 112.6(3)
C3 C4 H4 107.4
C5 C4 H4 107.4
C5 C4 C3 110.4(3)
C4 C3 H3A 109.5
C4 C3 H3B 109.5
C4 C3 H3C 109.5
H3A C3 H3B 109.5
H3A C3 H3C 109.5
H3B C3 H3C 109.5
C4 C5 H5 108.0
C6 C5 C4 113.5(3)
C6 C5 H5 108.0
O1 C5 C4 110.1(3)
O1 C5 H5 108.0
O1 C5 C6 109.1(3)
C5 C6 H6 109.4
C7 C6 C5 112.1(3)
C7 C6 H6 109.4
O2 C6 C5 108.0(3)
O2 C6 H6 109.4
O2 C6 C7 108.5(3)
C6 C7 H7A 109.5
C6 C7 H7B 109.5
H7A C7 H7B 108.1
O3 C7 C6 110.9(3)
O3 C7 H7A 109.5
O3 C7 H7B 109.5
C9 C8 C1 123.5(3)
C9 C8 C13 117.8(3)
C13 C8 C1 118.7(3)
C8 C9 H9 119.3
C10 C9 C8 121.4(3)
C10 C9 H9 119.3
C9 C10 H10 120.5
C9 C10 C11 118.9(3)
C11 C10 H10 120.5
C10 C11 Br1 119.7(2)
C12 C11 C10 121.7(3)
C12 C11 Br1 118.6(2)
C11 C12 H12 120.8
C11 C12 C13 118.4(3)
C13 C12 H12 120.8
C8 C13 H13 119.1
C12 C13 C8 121.8(3)
C12 C13 H13 119.1
C6 O2 H2A 109.5
C5 O1 H1A 109.5
C7 O3 H3 109.5
loop_
_geom_bond_atom_site_label_1
_geom_bond_atom_site_label_2
_geom_bond_distance
C1 H1 0.9500
C1 C2 1.329(5)
C1 C8 1.471(5)
C2 H2 0.9500
C2 C4 1.507(4)
C4 H4 1.0000
C4 C3 1.541(5)
C4 C5 1.535(4)
C3 H3A 0.9800
C3 H3B 0.9800
C3 H3C 0.9800
C5 H5 1.0000
C5 C6 1.525(5)
C5 O1 1.430(4)
C6 H6 1.0000
C6 C7 1.497(6)
C6 O2 1.426(4)
C7 H7A 0.9900
C7 H7B 0.9900
C7 O3 1.426(4)
C8 C9 1.402(5)
C8 C13 1.403(4)
C9 H9 0.9500
C9 C10 1.385(4)
C10 H10 0.9500
C10 C11 1.392(5)
C11 C12 1.387(4)
C11 Br1 1.904(3)
C12 H12 0.9500
C12 C13 1.388(5)
C13 H13 0.9500
O2 H2A 0.8400
O1 H1A 0.8400
O3 H3 0.8400
loop_
_geom_torsion_atom_site_label_1
_geom_torsion_atom_site_label_2
_geom_torsion_atom_site_label_3
_geom_torsion_atom_site_label_4
_geom_torsion
C1 C2 C4 C3 107.3(4)
C1 C2 C4 C5 -128.1(3)
C1 C8 C9 C10 178.8(3)
C1 C8 C13 C12 -178.8(3)
C2 C1 C8 C9 -22.7(6)
C2 C1 C8 C13 158.2(3)
C2 C4 C5 C6 52.8(4)
C2 C4 C5 O1 -69.8(4)
C4 C5 C6 C7 66.4(4)
C4 C5 C6 O2 -174.1(3)
C3 C4 C5 C6 177.9(3)
C3 C4 C5 O1 55.3(4)
C5 C6 C7 O3 171.5(3)
C8 C1 C2 C4 -177.5(3)
C8 C9 C10 C11 1.7(6)
C9 C8 C13 C12 2.1(5)
C9 C10 C11 C12 -1.2(5)
C9 C10 C11 Br1 177.8(3)
C10 C11 C12 C13 1.1(5)
C11 C12 C13 C8 -1.6(5)
C13 C8 C9 C10 -2.2(6)
Br1 C11 C12 C13 -177.8(2)
O2 C6 C7 O3 52.4(4)
O1 C5 C6 C7 -170.4(3)
O1 C5 C6 O2 -50.9(4)
loop_
_refln_index_h
_refln_index_k
_refln_index_l
_refln_F_squared_meas
_refln_F_squared_sigma
1 0 0 97.85 2.89
-1 0 0 97.32 2.89
-1 0 0 94.72 2.89
-2 0 0 225.29 6.85
2 0 0 238.2 6.93
3 0 0 120.83 4.05
3 0 0 135.23 4.83
3 0 0 112.41 3.72
4 0 0 50.95 2.27
4 0 0 48.15 1.88
5 0 0 42.54 2.22
5 0 0 43.73 1.87
5 0 0 41.82 1.85
-5 0 0 43.61 1.88
5 0 0 43.36 1.98
5 0 0 43.55 1.89
5 0 0 46.51 1.84
5 0 0 45.74 1.97
5 0 0 45.97 1.6
6 0 0 24.73 1.35
6 0 0 24.57 1.14
6 0 0 25.22 1.16
6 0 0 25.16 1.61
6 0 0 24.63 1.25
6 0 0 24.94 1.26
-7 0 0 26.87 1.08
7 0 0 24.55 1.09
0 -1 0 -0.79 0.08
0 -1 0 -0.8 0.18
0 -1 0 -0.64 0.08
0 1 0 -0.59 0.09
0 1 0 -0.64 0.12
0 1 0 -0.71 0.07
0 1 0 -0.74 0.07
1 -1 0 120.63 3.67
-1 -1 0 115.94 3.43
1 -1 0 125.02 3.7
-1 1 0 122 3.66
-1 1 0 121.53 3.68
2 -1 0 5.11 0.5
2 -1 0 5.59 0.53
-2 -1 0 5.59 0.41
-2 1 0 4.49 0.47
2 1 0 4.34 0.42
-2 1 0 4.63 0.48
3 -1 0 67.95 2.64
3 -1 0 74.79 3.17
3 -1 0 68.59 2.91
-3 1 0 76.72 3.08
3 1 0 76.59 2.83
3 1 0 71.58 2.67
3 1 0 71.82 2.31
4 -1 0 11.13 0.94
4 -1 0 11.57 0.59
4 1 0 12.23 0.7
4 1 0 11.04 0.93
5 -1 0 14.59 1.06
5 -1 0 13.75 1
5 -1 0 14.74 0.99
5 -1 0 14.09 0.93
5 -1 0 14.42 1.18
5 1 0 15.63 1.09
5 1 0 16.28 1.28
5 1 0 14.98 0.99
5 1 0 14.63 0.83
5 1 0 15.08 0.88
5 1 0 15.18 0.9
5 1 0 15.85 0.82
5 1 0 15.68 0.85
6 -1 0 11.45 0.88
6 -1 0 11.32 1.05
6 -1 0 12.2 0.81
6 -1 0 11.68 0.8
6 -1 0 11.93 0.85
6 1 0 12.36 0.8
6 1 0 12.01 1.13
6 1 0 11.97 0.74
-6 1 0 11.7 0.86
6 1 0 12.63 0.85
6 1 0 12.32 0.92
6 1 0 12.59 0.67
7 -1 0 9.59 0.58
7 -1 0 8.18 0.46
-7 -1 0 9.29 0.59
7 1 0 9 0.54
7 1 0 9.49 0.58
0 -2 0 825.61 26.1
0 -2 0 923.9 25.81
0 -2 0 1000 27.02
0 2 0 919.51 25.62
0 2 0 960.92 26.49
0 2 0 871.31 25.59
0 2 0 943.02 25.98
1 -2 0 244.1 6.97
1 -2 0 242.46 6.91
1 -2 0 238.32 7.73
1 -2 0 246.54 6.94
-1 -2 0 239.49 6.43
-1 2 0 217.07 6.79
-1 2 0 224.21 6.84
-1 2 0 225.72 6.87
-1 2 0 224.45 6.92
2 -2 0 206.39 6.59
2 -2 0 202.67 6.58
-2 2 0 215.56 6.51
-2 2 0 214.42 6.59
-2 2 0 219.35 6.45
3 -2 0 129.75 4.68
3 -2 0 128.29 4.24
-3 -2 0 132.63 4.08
3 -2 0 124.66 4.57
3 2 0 119.62 4.21
-3 2 0 122.74 4.35
3 2 0 122.59 3.71
4 -2 0 50.1 1.74
4 -2 0 52.25 2.11
4 -2 0 49.97 2.26
4 2 0 45.34 1.68
4 2 0 47.7 2.26
-4 2 0 47.26 2.36
4 2 0 42.12 1.89
5 -2 0 44 2.31
5 -2 0 45.2 1.67
5 -2 0 43.25 2.01
5 -2 0 44.35 1.63
5 2 0 49.76 2.48
5 2 0 47.59 1.63
-5 2 0 51.53 2.55
5 2 0 48.06 2.02
5 2 0 46.79 1.82
5 2 0 48.81 1.75
5 2 0 47.91 2.14
-5 2 0 47.94 2.03
6 -2 0 35.75 1.66
-6 -2 0 34.33 1.56
6 -2 0 36.49 1.7
6 -2 0 36.51 1.44
-6 2 0 38.07 1.52
6 2 0 36.67 1.32
6 2 0 35.85 1.62
6 2 0 36.53 1.73
6 2 0 37.97 1.51
0 -3 0 0.4 0.29
0 3 0 0.23 0.12
0 3 0 0.18 0.2
0 3 0 0.34 0.13
1 -3 0 15.79 0.92
1 -3 0 15.97 1
1 -3 0 14.71 1.41
-1 3 0 15.39 0.85
-1 3 0 15.81 0.99
1 3 0 15.74 0.55
1 3 0 16.96 0.59
-1 3 0 15.76 0.84
2 -3 0 121.82 4.24
2 -3 0 118.52 3.91
2 -3 0 119.69 4.21
2 -3 0 122.07 4.24
-2 3 0 113.39 4.04
2 3 0 114.34 3.27
-2 3 0 119.9 4.25
-2 3 0 120.24 4.13
3 -3 0 9.45 0.99
3 -3 0 9.34 0.76
3 -3 0 9.07 0.99
3 -3 0 9.13 0.82
-3 3 0 10.74 1.03
3 3 0 11.31 0.44
4 -3 0 17.45 1.25
4 -3 0 17.83 1.55
4 -3 0 17.24 0.91
-4 3 0 16.7 0.91
4 3 0 17.2 0.7
4 3 0 15.27 1.01
5 -3 0 13.34 1.15
5 -3 0 13.05 0.76
5 -3 0 12.69 1.01
5 -3 0 12.49 0.94
5 -3 0 12.59 0.71
5 3 0 11.2 0.5
-5 3 0 11.8 0.76
5 3 0 11.94 0.69
5 3 0 11.27 0.86
6 -3 0 8.59 0.64
6 -3 0 8.5 0.68
6 -3 0 8.78 0.81
-6 3 0 8.25 0.56
6 3 0 8.1 0.53
6 3 0 8.84 0.67
0 -4 0 114.82 5.23
0 4 0 119.41 4.42
0 4 0 118.72 3.7
1 -4 0 336.32 10.25
1 -4 0 338.53 10.17
1 -4 0 328.84 11.71
-1 -4 0 321.82 11.43
1 -4 0 325.02 10.01
-1 4 0 342.92 9.87
-1 4 0 337 10.35
2 -4 0 119.03 4.43
2 -4 0 119.49 4.43
2 -4 0 122.72 4.52
-2 -4 0 115.83 5.46
2 -4 0 117.35 4.03
2 -4 0 117.82 3.86
-2 4 0 119.54 4.53
-2 4 0 119.96 4.26
-2 4 0 118.02 3.82
3 -4 0 67.81 2.65
3 -4 0 69.67 2.57
3 -4 0 70.1 3.33
3 -4 0 70 2.79
3 -4 0 67.35 3.18
-3 4 0 62.12 2.19
-3 4 0 62.39 2.52
-3 4 0 63.21 2.17
4 -4 0 51.04 2.38
4 -4 0 52.09 2.13
4 -4 0 51.64 2.16
4 -4 0 48.46 1.96
4 -4 0 51.06 2.14
4 -4 0 53.71 2.89
4 -4 0 51.79 2.11
4 -4 0 49.85 2.01
4 4 0 45.46 1.64
-4 4 0 47.46 1.79
4 4 0 44.64 2.03
-4 4 0 44.23 2.13
5 -4 0 40.28 1.77
5 -4 0 36.64 1.55
5 -4 0 35.82 1.99
5 -4 0 40.32 1.54
5 -4 0 39.59 1.82
-5 4 0 41.59 1.51
5 4 0 39.14 1.41
-5 4 0 40.05 1.89
5 4 0 39.62 1.77
6 -4 0 13.31 0.75
6 4 0 12.95 0.78
6 4 0 12.78 0.57
0 5 0 0.31 0.18
1 -5 0 3.42 0.57
1 -5 0 2.8 0.67
1 -5 0 3.17 0.42
1 -5 0 2.93 0.59
1 5 0 4.88 0.6
-1 5 0 3.59 0.46
-1 5 0 3.55 0.5
2 -5 0 42.31 2.4
2 -5 0 42.32 2.36
2 -5 0 44.77 2.39
2 -5 0 41.78 1.84
-2 5 0 42.38 1.72
-2 5 0 41.46 1.7
-2 5 0 43.26 2.17
-2 5 0 42.84 1.57
-2 5 0 45.35 1.67
3 -5 0 2.85 0.5
3 -5 0 3.11 0.56
3 -5 0 2.04 0.7
3 -5 0 2.88 0.56
3 -5 0 2.22 0.61
-3 5 0 2.26 0.48
-3 5 0 2.21 0.31
-3 5 0 2.52 0.48
-3 5 0 2.28 0.57
-3 5 0 2.21 0.46
-3 5 0 2.42 0.35
4 -5 0 2.25 0.52
4 -5 0 4.56 0.62
4 -5 0 2.2 0.6
4 -5 0 3.69 0.45
4 -5 0 3.74 0.56
4 -5 0 2.83 0.49
-4 5 0 4.32 0.75
-4 5 0 3.29 0.53
4 5 0 4.2 0.27
5 -5 0 12.57 0.73
5 -5 0 13.18 0.88
5 -5 0 13.27 0.79
5 -5 0 12.49 0.7
-5 5 0 10.97 0.79
5 5 0 11.5 0.49
-5 5 0 11.73 0.94
0 -6 0 19.22 1.43
0 -6 0 20.92 1.6
0 -6 0 19.13 1.31
0 6 0 17.2 0.69
0 6 0 15.18 0.96
1 -6 0 87.85 3.77
1 -6 0 78.84 3.88
1 -6 0 94.58 3.93
1 -6 0 91.07 3.22
1 6 0 97.38 3.22
-1 6 0 95.56 3.2
-1 6 0 97.23 3
-1 6 0 91.6 3.22
2 -6 0 100.99 3.49
2 -6 0 102.25 4.22
2 -6 0 87.59 4.11
2 -6 0 104.27 3.64
-2 6 0 96.31 3.29
-2 6 0 90.9 3.07
-2 6 0 92.08 3.06
-2 6 0 95.15 3.27
-2 6 0 95.3 3.24
-2 6 0 95.98 3.38
3 -6 0 23.99 1.82
3 -6 0 24.77 1.38
3 -6 0 25.83 1.38
3 -6 0 26.43 1.49
-3 6 0 21.48 1.01
-3 6 0 22.6 1.27
-3 6 0 22.61 1.28
-3 6 0 23.37 1.23
-3 6 0 22.92 1.01
4 -6 0 28.79 1.4
4 -6 0 25.78 1.87
4 -6 0 28.75 1.32
4 -6 0 29.13 1.59
-4 6 0 27.49 1.35
-4 6 0 27.54 1.4
5 -6 0 16.9 0.88
5 -6 0 18.15 0.79
-5 6 0 17.06 0.9
0 -7 0 0.07 0.18
0 -7 0 0.23 0.47
0 7 0 0.1 0.2
1 -7 0 6.92 0.95
1 -7 0 7.3 0.67
-1 7 0 7.62 0.66
-1 7 0 6.61 0.38
1 7 0 7.33 0.65
-1 7 0 7.21 0.64
2 -7 0 5.47 0.88
2 -7 0 3.91 0.59
2 -7 0 5.17 0.58
-2 7 0 5.78 0.46
-2 7 0 6.15 0.46
-2 7 0 4.02 0.54
-2 7 0 5.72 0.55
-2 7 0 5.99 0.47
3 -7 0 12.7 0.99
3 -7 0 15.15 0.89
3 -7 0 13.35 0.92
-3 7 0 14.05 0.67
-3 7 0 14.41 0.78
-3 7 0 14.6 0.87
-3 7 0 13.84 0.67
4 -7 0 1.41 0.31
4 -7 0 1.22 0.26
-4 7 0 0.92 0.21
0 -8 0 38.16 1.63
0 8 0 41.04 1.63
1 -8 0 29.16 1.97
1 -8 0 27.35 1.32
1 8 0 26.47 1.22
-1 8 0 27.66 1.06
-1 8 0 25.98 1.21
-1 8 0 27.37 1.07
2 -8 0 30.71 1.39
2 -8 0 29.93 1.25
-2 8 0 28.67 1.09
-2 8 0 30.51 1.1
-2 8 0 29.4 1.24
7 0 -1 16.69 0.84
-7 0 1 16.15 0.8
6 0 -1 56.27 2.24
6 0 -1 58.02 2.11
-6 0 1 61.45 2.42
6 0 -1 60.5 2.38
6 0 -1 59.31 2.14
6 0 -1 58.13 2.26
6 0 -1 55.68 2.64
5 0 -1 44.3 1.99
5 0 -1 43.99 1.86
-5 0 1 43.63 1.88
5 0 -1 44.55 1.9
5 0 -1 44.13 1.82
5 0 -1 47.23 1.97
5 0 -1 45.82 1.9
5 0 -1 42.88 2.23
5 0 -1 46.12 1.61
4 0 -1 30.75 1.61
4 0 -1 28.79 1.3
3 0 -1 16.9 1
3 0 -1 16.72 0.79
2 0 -1 224.19 6.92
2 0 -1 230.14 6.76
-2 0 1 225.47 6.68
-2 0 1 226.05 6.73
-1 0 1 2.51 0.21
-1 0 1 2.21 0.21
1 0 -1 2.17 0.2
-1 0 1 2.16 0.21
0 0 1 15.02 0.55
0 0 -1 14.95 0.55
0 0 -1 14.05 0.48
0 0 1 13.97 0.48
-1 0 -1 99.29 2.95
1 0 1 99.13 2.93
1 0 1 92.92 3.12
-2 0 -1 103.23 3.34
2 0 1 104.99 3.32
2 0 1 95.5 3.62
3 0 1 3.3 0.33
3 0 1 4.5 0.66
3 0 1 3.61 0.47
4 0 1 7.61 0.59
4 0 1 7.44 0.78
5 0 1 -0.04 0.21
5 0 1 0.1 0.2
5 0 1 0.31 0.29
5 0 1 0.14 0.23
-5 0 -1 -0.11 0.27
5 0 1 0.12 0.16
5 0 1 0.43 0.29
5 0 1 0.08 0.23
6 0 1 3.57 0.71
6 0 1 2.97 0.46
6 0 1 4.75 0.65
6 0 1 3.15 0.41
6 0 1 3.77 0.43
6 0 1 3.41 0.48
7 0 1 1.05 0.22
-7 0 -1 1.48 0.25
7 -1 -1 0.73 0.15
7 -1 -1 0.99 0.24
-7 -1 1 0.72 0.2
7 1 -1 0.86 0.23
7 1 -1 0.46 0.15
7 1 -1 0.77 0.19
6 -1 -1 39.73 1.7
6 -1 -1 39.48 1.72
6 -1 -1 34.79 2.03
6 -1 -1 39.18 1.77
6 -1 -1 39.99 1.67
6 -1 -1 38.11 2.04
-6 1 1 40.06 1.77
6 1 -1 36.87 1.56
6 1 -1 39.95 1.66
6 1 -1 41.24 1.74
6 1 -1 41.04 1.47
6 1 -1 38.91 1.79
6 1 -1 39.13 2.09
5 -1 -1 45 1.93
5 -1 -1 44.33 1.89
5 -1 -1 44.28 1.96
5 -1 -1 44.35 2.01
5 -1 -1 44 2.24
5 1 -1 44.48 1.78
5 1 -1 41.29 1.87
5 1 -1 43.03 2.24
5 1 -1 45.74 2
5 1 -1 43 1.69
5 1 -1 44.28 1.69
5 1 -1 45.35 1.78
4 -1 -1 48.39 2.05
4 -1 -1 45.39 2.14
4 -1 -1 43.57 1.58
4 1 -1 48.91 2.2
4 1 -1 47.2 1.74
-3 -1 1 16.02 0.93
3 -1 -1 14.35 0.86
3 -1 -1 15.28 1.18
3 -1 -1 14.17 1.09
3 -1 -1 15.33 0.93
3 1 -1 17.3 0.98
3 1 -1 16.41 0.72
-2 -1 1 52.58 1.89
2 1 -1 56.73 1.91
-2 1 1 55.64 2.11
-2 1 1 54.18 2.08
-1 -1 1 183.18 5.26
1 -1 -1 184.96 5.44
1 -1 -1 186.57 5.52
1 -1 -1 186.62 5.96
1 -1 -1 183.02 5.5
1 1 -1 189.24 5.25
-1 1 1 199.16 5.53
-1 1 1 188.8 5.5
-1 1 1 183.91 5.48
0 -1 -1 64.48 1.9
0 -1 1 68.27 1.89
0 -1 1 68.41 2.2
0 1 -1 61.47 1.87
0 1 1 58.59 1.85
0 1 1 61.07 1.86
0 1 1 60.48 1.9
0 1 -1 61.77 1.84
0 1 -1 61.05 2
0 1 1 60.66 1.9
1 -1 1 948.16 27.02
-1 -1 -1 917.35 26.9
1 -1 1 960.46 26.85
-1 1 -1 983.61 27.64
-1 1 -1 949.96 27.05
-2 -1 -1 239.69 7.05
-2 -1 -1 258.86 6.95
2 -1 1 238.76 7.29
2 -1 1 246.3 7.37
2 1 1 233.96 7.28
-2 1 -1 223.45 7.26
-2 1 -1 240.85 7.27
3 -1 1 259.88 8.41
3 -1 1 257.59 7.77
3 -1 1 246.7 8.05
3 1 1 246.14 7.32
3 1 1 271.04 8.07
3 1 1 255.78 7.74
-3 1 -1 250.19 7.91
4 -1 1 53.87 1.73
4 -1 1 52.9 2.34
4 1 1 48.3 1.55
4 1 1 50.66 2.3
4 1 1 49.64 1.88
5 -1 1 42.86 1.92
5 -1 1 42.35 1.8
5 -1 1 43.15 1.93
5 -1 1 44.12 1.86
5 -1 1 43.47 2.23
5 1 1 40.6 1.56
-5 1 -1 39.7 1.74
5 1 1 40.71 1.69
5 1 1 40.88 2.19
5 1 1 39.31 1.6
5 1 1 37.79 1.58
5 1 1 40.02 1.9
5 1 1 38.61 1.69
-5 1 -1 37.49 3.25
5 1 1 40.85 1.62
5 1 1 39.6 1.81
6 -1 1 54.86 2.16
-6 -1 -1 58.31 2.16
6 -1 1 57.55 2.29
6 -1 1 56.6 2.12
6 -1 1 54.97 2.59
6 -1 1 56.57 2.14
-6 1 -1 55.1 2.21
6 1 1 52.78 2.01
6 1 1 52.72 2.09
6 1 1 54.11 2.28
6 1 1 54.43 1.89
6 1 1 48.22 2.55
6 1 1 55.42 2.17
6 -2 -1 35.16 1.65
6 -2 -1 26.64 1.76
6 -2 -1 33.79 1.37
6 -2 -1 34.57 1.58
6 2 -1 36.36 1.58
-6 2 1 35.92 1.46
6 2 -1 33.42 1.24
6 2 -1 35.8 1.68
6 2 -1 34.2 1.42
5 -2 -1 55.66 2.38
5 -2 -1 54.74 1.85
5 -2 -1 53.84 2.2
5 -2 -1 54.76 2.53
5 -2 -1 52.39 1.79
-5 2 1 51.43 2.16
5 2 -1 50.33 1.77
5 2 -1 52.59 1.89
5 2 -1 51.01 2.55
5 2 -1 50.87 1.94
5 2 -1 51.46 2.15
5 2 -1 52.15 2.26
4 -2 -1 29.98 1.67
4 -2 -1 29.66 1.52
4 -2 -1 28.71 1.22
-4 2 1 31.74 1.81
4 2 -1 32.68 1.23
4 2 -1 32.5 1.74
3 -2 -1 22.92 1.47
3 -2 -1 22.87 1.25
3 -2 -1 23.21 1.49
3 2 -1 24.76 0.91
-3 2 1 24.1 1.35
3 2 -1 25.69 1.33
2 -2 -1 182.78 5.75
2 -2 -1 188.46 5.71
2 2 -1 179.36 5.24
-2 2 1 177.07 5.54
-2 2 1 175.52 5.69
-2 2 1 178.67 5.64
1 -2 -1 268.21 7.84
1 -2 -1 281.16 7.88
1 -2 -1 258.33 8.57
-1 2 1 266.54 7.8
-1 2 1 269.98 7.76
-1 2 1 263.62 7.81
-1 2 1 266.19 7.74
-1 2 1 261.62 7.81
0 -2 -1 222.26 6.31
0 -2 1 203.18 6.92
0 -2 -1 213.55 7.07
0 2 1 220.27 6.23
0 2 -1 227.26 6.15
0 2 -1 218.59 6.1
0 2 1 220.08 6.29
0 2 -1 237.74 6.59
0 2 1 206.97 6.2
0 2 1 224.44 6.14
0 2 1 220.84 6.41
0 2 -1 217.33 6.21
1 -2 1 270.81 7.88
-1 -2 -1 266.85 7.59
1 -2 1 281.99 8.79
-1 2 -1 268.81 7.86
-1 2 -1 272.46 7.94
-1 2 -1 259.15 7.78
-1 2 -1 261.85 7.83
2 -2 1 6.44 0.54
2 -2 1 7.02 0.66
2 -2 1 6.36 0.62
-2 2 -1 5.94 0.58
-2 2 -1 5.92 0.54
-2 2 -1 6.2 0.57
-2 2 -1 5.86 0.58
3 -2 1 12.35 0.89
3 -2 1 12.02 1.05
3 -2 1 12.31 1.1
-3 2 -1 13.1 1.02
3 2 1 12.1 0.58
-3 2 -1 12.97 0.96
3 2 1 12.94 0.92
4 -2 1 0.64 0.53
4 -2 1 0.67 0.21
4 -2 1 0.92 0.4
4 -2 1 0.57 0.38
4 2 1 0.86 0.38
4 2 1 0.73 0.2
4 2 1 0.68 0.2
-4 2 -1 0.86 0.42
5 -2 1 1.66 0.39
5 -2 1 3.3 0.7
5 -2 1 3.33 0.34
5 -2 1 3.2 0.41
5 2 1 3.19 0.36
5 2 1 3.13 0.43
-5 2 -1 1.9 0.52
5 2 1 3.26 0.54
-5 2 -1 3.91 0.62
5 2 1 3.18 0.32
5 2 1 2.88 0.68
6 -2 1 1.76 0.39
6 -2 1 1.07 0.31
6 -2 1 1.36 0.28
-6 2 -1 1.09 0.29
6 2 1 1.35 0.29
6 2 1 1.29 0.27
-6 2 -1 1.22 0.51
6 2 1 1.35 0.34
6 -3 -1 14.69 0.95
6 -3 -1 13.91 1
6 -3 -1 15.58 0.91
6 -3 -1 14.89 0.86
6 3 -1 14.97 0.91
6 3 -1 16.01 0.77
-6 3 1 14.84 0.78
5 -3 -1 26.53 1.39
5 -3 -1 25.97 1.46
5 -3 -1 26.39 1.17
5 -3 -1 26.22 1.62
5 -3 -1 24.93 1.11
5 3 -1 24.3 1.09
-5 3 1 26.59 1.22
5 3 -1 25.21 1.49
5 3 -1 25.14 0.85
5 3 -1 24.47 1.34
4 -3 -1 36.26 2.27
4 -3 -1 36.35 1.9
4 -3 -1 34 1.46
4 -3 -1 36.19 1.91
-4 3 1 37.69 1.51
4 3 -1 36.75 1.66
4 3 -1 37.35 1.25
3 -3 -1 46.85 1.93
3 -3 -1 47.82 2.37
3 -3 -1 45.8 2.37
3 -3 -1 48.28 2.03
3 3 -1 44.58 1.39
-3 3 1 38.6 2.19
2 -3 -1 80.16 2.98
2 -3 -1 80.79 2.99
2 -3 -1 81.19 2.99
2 -3 -1 79.73 2.66
2 3 -1 69.11 2.17
-2 3 1 71.49 2.8
-2 3 1 65.2 2.78
2 3 -1 74.99 2.22
-2 3 1 64.95 2.85
-1 -3 1 114.92 4.49
1 -3 -1 110.8 4.76
-1 3 1 111.76 3.62
-1 3 1 114.2 3.86
1 3 -1 112.33 3.91
-1 3 1 119.05 3.82
1 3 -1 113.62 3.22
-1 3 1 111.71 3.66
0 -3 -1 149.54 5.65
0 -3 1 143.42 5.46
0 3 1 143.41 4.35
0 3 1 149.16 4.46
0 3 1 136.88 4.72
0 3 -1 147.38 4.33
0 3 -1 154.59 4.93
1 -3 1 350.01 12.18
1 -3 1 358.62 10.98
1 -3 1 377.76 11.17
1 3 1 394.21 10.62
-1 3 -1 403.41 10.94
-1 3 -1 369.72 10.87
-1 3 -1 392.86 11.23
2 -3 1 212.63 6.89
2 -3 1 219.16 6.95
2 -3 1 215.43 6.89
2 -3 1 218.87 6.61
-2 3 -1 208.98 6.87
-2 3 -1 208.29 6.7
3 -3 1 131.4 4.99
3 -3 1 131.92 4.49
3 -3 1 130.87 4.88
3 -3 1 126.38 4.25
3 3 1 131.88 3.75
-3 3 -1 131.27 4.43
-3 3 -1 120.81 4.85
-3 3 -1 129.07 4.34
4 -3 1 76.62 3.79
4 -3 1 79.47 3.76
4 -3 1 81.83 2.74
4 -3 1 82.67 3.32
4 -3 1 77.27 3.99
-4 3 -1 80.09 2.73
4 3 1 78.78 2.91
4 3 1 82.45 2.48
5 -3 1 23.08 1.08
5 -3 1 24.4 1.59
5 -3 1 23.22 1.32
5 -3 1 22.39 1.02
5 -3 1 22.52 1.38
5 3 1 22.4 1.26
-5 3 -1 23.5 1.13
5 3 1 22.3 1.04
5 3 1 22.8 0.83
6 -3 1 44.31 1.8
6 -3 1 43.64 1.7
6 -3 1 42.93 1.89
-6 3 -1 42.46 1.59
6 3 1 42.4 1.58
6 3 1 43.97 1.78
6 -4 -1 18.52 0.97
6 -4 -1 17.96 0.89
6 4 -1 19.08 0.74
6 4 -1 19.15 0.97
5 -4 -1 23.55 1.3
5 -4 -1 21.94 1.42
5 -4 -1 23.31 1.05
5 -4 -1 22.93 1.21
5 -4 -1 23.16 1.1
-5 4 1 21.42 0.99
5 4 -1 20.92 1.19
-5 4 1 20.93 1.3
5 4 -1 21.26 0.92
4 -4 -1 19.53 1.18
4 -4 -1 19.17 1.21
4 -4 -1 17.08 1.15
4 -4 -1 19.86 1.35
4 -4 -1 18.68 1.41
4 -4 -1 19.14 1.04
4 -4 -1 19.01 1.11
4 -4 -1 20.05 1.36
4 -4 -1 20.36 1.68
4 4 -1 19.49 1.16
-4 4 1 19.73 0.95
4 4 -1 19.73 0.82
-4 4 1 21.26 1.29
3 -4 -1 29.79 2.01
3 -4 -1 29.39 1.47
3 -4 -1 30.28 1.56
3 -4 -1 28.97 1.58
3 -4 -1 31.78 1.99
-3 4 1 31.81 1.52
-3 4 1 32.15 1.22
-3 4 1 31.11 1.19
2 -4 -1 33.09 1.87
2 -4 -1 36.43 1.91
2 -4 -1 35.9 1.9
2 -4 -1 35.1 1.49
-2 4 1 32.34 1.92
-2 4 1 30.15 1.38
-2 4 1 31.95 1.71
1 -4 -1 55.62 2.29
1 -4 -1 49.92 3.26
1 -4 -1 53.94 2.32
-1 -4 1 52.43 3.08
1 4 -1 51.51 2.38
-1 4 1 51.59 2.42
1 4 -1 54.49 1.68
-1 4 1 50.71 2.09
0 -4 1 13.46 1.48
0 -4 -1 14.14 1.58
0 4 -1 16.75 1.25
0 4 1 15.52 1.13
0 4 1 14.28 0.84
0 4 1 15.21 0.8
0 4 -1 15.73 0.79
1 -4 1 59.87 2.58
1 -4 1 56.39 2.26
1 -4 1 59.28 3.55
-1 -4 -1 58.26 3.44
1 -4 1 60.56 2.43
-1 4 -1 58.69 2.66
-1 4 -1 60.6 2.29
1 4 1 57.75 1.96
2 -4 1 11.91 0.88
2 -4 1 11.95 1.06
2 -4 1 11.58 0.76
2 -4 1 12.4 1.06
2 -4 1 11.64 1.03
2 4 1 10.13 0.41
-2 4 -1 9.87 0.99
-2 4 -1 10.34 0.71
-2 4 -1 11.36 0.93
3 -4 1 6.46 0.91
3 -4 1 5.87 0.92
3 -4 1 6.51 0.74
3 -4 1 5.82 0.64
-3 4 -1 6.26 0.65
-3 4 -1 6.4 0.47
-3 4 -1 6.89 0.48
4 -4 1 0.48 0.31
4 -4 1 0.43 0.34
4 -4 1 0.29 0.33
4 -4 1 0.33 0.25
4 -4 1 1.49 0.41
4 -4 1 0.3 0.51
4 -4 1 0.29 0.27
4 -4 1 0 0.25
-4 4 -1 -0.03 0.3
-4 4 -1 0.57 0.34
-4 4 -1 0.45 0.19
4 4 1 0.11 0.3
4 4 1 0.28 0.14
5 -4 1 0.92 0.43
5 -4 1 0.7 0.26
5 -4 1 1.21 0.34
5 -4 1 0.85 0.34
5 -4 1 0.92 0.23
-5 4 -1 1.04 0.38
5 4 1 1.06 0.34
-5 4 -1 1.47 0.29
5 4 1 0.97 0.19
6 -4 1 2.6 0.38
6 4 1 2.15 0.21
6 4 1 1.93 0.34
5 -5 -1 7.58 0.69
5 -5 -1 7.88 0.55
5 -5 -1 8.36 0.6
-5 5 1 8.23 0.68
5 5 -1 8.26 0.37
-5 5 1 7.51 0.78
4 -5 -1 35.26 2.28
4 -5 -1 35.15 1.44
4 -5 -1 35.15 1.63
4 -5 -1 33.23 1.66
4 -5 -1 35.39 2.05
4 -5 -1 34.53 1.87
-4 5 1 36.86 1.89
-4 5 1 36.01 1.67
4 5 -1 36.97 1.18
3 -5 -1 33.11 2.29
3 -5 -1 34.25 2.2
3 -5 -1 35.14 1.79
3 -5 -1 33.39 1.69
3 -5 -1 35.47 1.7
-3 5 1 36.37 1.35
-3 5 1 33.55 1.35
-3 5 1 35.36 1.64
-3 5 1 35.92 1.6
-3 5 1 34.85 1.65
-3 5 1 33.82 1.74
2 -5 -1 24.85 1.75
2 -5 -1 24.94 1.34
2 -5 -1 24.81 1.7
2 -5 -1 24.82 1.68
2 -5 -1 22.57 1.23
-2 5 1 21.81 1.15
-2 5 1 23.33 1.02
-2 5 1 24.58 1.11
-2 5 1 22.4 1.14
1 -5 -1 54.8 2.14
1 -5 -1 59.08 2.83
1 -5 -1 58.82 2.68
1 -5 -1 57.15 2.63
-1 5 1 59.92 2.16
1 5 -1 61.56 2.18
0 -5 1 95.88 3.91
0 -5 -1 99.68 3.77
0 -5 1 98.9 3.51
0 -5 1 118.27 7.87
0 5 -1 94.63 3.32
0 5 1 97.34 3.38
1 -5 1 55.99 2.76
1 -5 1 57.76 2.6
1 -5 1 56.71 2.18
1 -5 1 55.32 2.69
-1 5 -1 59.86 2.15
1 5 1 59.39 2.14
-1 5 -1 61.43 2.43
2 -5 1 115.81 4.63
2 -5 1 118.66 4.74
2 -5 1 118.86 4.64
2 -5 1 113.25 3.91
-2 5 -1 113.01 3.76
-2 5 -1 115.77 3.77
-2 5 -1 117.9 4.37
-2 5 -1 115.78 3.65
-2 5 -1 113.91 3.58
3 -5 1 72.82 3.73
3 -5 1 82.66 3.1
3 -5 1 79.83 2.9
3 -5 1 78.45 2.96
3 -5 1 78.25 3.15
3 -5 1 79.24 3.69
-3 5 -1 76.37 2.99
-3 5 -1 73.65 2.51
-3 5 -1 75.68 2.82
-3 5 -1 72.44 2.51
-3 5 -1 75.57 2.87
-3 5 -1 77.76 2.77
4 -5 1 62.78 2.44
4 -5 1 61.33 2.74
4 -5 1 64.01 2.21
4 -5 1 63.62 2.42
4 -5 1 59.41 3.21
4 -5 1 62.79 2.51
-4 5 -1 61.6 2.65
4 5 1 62.02 1.95
-4 5 -1 63.7 2.44
5 -5 1 33.35 1.31
5 -5 1 31.73 1.25
5 -5 1 33.97 1.49
5 -5 1 31.83 1.39
-5 5 -1 26.97 1.35
-5 5 -1 28.22 1.55
5 5 1 28.95 1.02
5 -6 -1 6.91 0.47
5 -6 -1 7.82 0.6
-5 6 1 7.76 0.6
4 -6 -1 25.98 1.23
4 -6 -1 26.75 1.31
4 -6 -1 22.15 1.4
-4 6 1 25.22 1.31
-4 6 1 24.16 1.25
3 -6 -1 6.87 0.75
3 -6 -1 6.46 0.7
3 -6 -1 6.59 0.72
3 -6 -1 7.16 1.02
-3 6 1 6.5 0.63
-3 6 1 6.36 0.49
-3 6 1 6.36 0.73
-3 6 1 6.36 0.67
-3 6 1 6.35 0.47
2 -6 -1 21.53 1.3
2 -6 -1 20.67 1.61
2 -6 -1 21.02 1.21
2 -6 -1 20.47 1.64
-2 6 1 18.51 1.06
-2 6 1 19.69 0.93
-2 6 1 18.9 1.06
-2 6 1 18.26 0.93
-2 6 1 19.36 1.04
-2 6 1 18.9 1.13
1 -6 -1 36.74 2.14
-1 -6 1 34.25 2.15
1 -6 -1 37.91 2.18
1 -6 -1 39.62 1.71
1 -6 -1 34.2 2.25
-1 6 1 39.33 1.66
1 6 -1 37.99 1.32
-1 6 1 39.76 1.49
-1 6 1 38.3 1.67
1 6 -1 39.51 1.66
0 -6 -1 60.74 2.75
0 -6 1 62.11 2.71
0 -6 1 64.77 2.97
0 -6 1 61.46 3.06
0 -6 -1 62.21 3.08
0 6 -1 60.26 2.34
0 6 1 58.96 2.3
0 6 -1 61.69 2.33
0 6 -1 59.81 2.09
1 -6 1 5.61 0.86
1 -6 1 6.18 0.87
1 -6 1 6.08 0.81
1 -6 1 5.78 0.59
-1 6 -1 6.23 0.7
-1 6 -1 5.7 0.57
-1 6 -1 6.12 0.48
-1 6 -1 5.13 0.39
1 6 1 6.08 0.6
-1 6 -1 5.39 0.64
2 -6 1 4.6 0.87
2 -6 1 5.17 0.61
2 -6 1 4.53 0.78
-2 6 -1 4.95 0.44
-2 6 -1 4.43 0.45
-2 6 -1 4.57 0.48
-2 6 -1 4.8 0.61
-2 6 -1 4.31 0.62
-2 6 -1 4.25 0.53
3 -6 1 0.34 0.3
3 -6 1 -0.02 0.28
3 -6 1 0.23 0.25
3 -6 1 0.17 0.24
-3 6 -1 0.18 0.2
-3 6 -1 0.13 0.15
-3 6 -1 0.02 0.27
-3 6 -1 0.12 0.15
-3 6 -1 0.11 0.22
4 -6 1 0.4 0.23
4 -6 1 0.33 0.23
-4 6 -1 0.48 0.27
-4 6 -1 0.27 0.22
5 -6 1 0.53 0.18
5 -6 1 0.28 0.19
-5 6 -1 0.45 0.2
4 -7 -1 22.47 1.03
4 -7 -1 21.98 1.03
-4 7 1 22.35 0.96
3 -7 -1 18.23 1.03
3 -7 -1 19.32 0.98
3 -7 -1 17.95 1.16
3 -7 -1 19.49 1.11
-3 7 1 19.14 0.93
-3 7 1 18.34 0.81
-3 7 1 18.91 0.81
2 -7 -1 21.95 1.24
2 -7 -1 20.67 1.61
2 -7 -1 21.21 1.3
-2 7 1 21.79 0.99
-2 7 1 21.16 0.96
-2 7 1 21.5 1.11
-2 7 1 21.91 0.95
-2 7 1 21.21 1.15
1 -7 -1 22.19 1.23
1 -7 -1 22.25 1.32
1 7 -1 22.93 1.19
-1 7 1 22.85 1.19
-1 7 1 22.38 0.85
-1 7 1 21.62 1.17
0 -7 -1 39.58 1.72
0 -7 1 40.44 1.72
0 7 -1 39.48 1.72
0 7 1 40.25 1.73
0 7 -1 39.48 1.71
1 -7 1 36.69 1.69
1 -7 1 33.29 2.11
-1 7 -1 36.02 1.18
-1 7 -1 37.26 1.62
1 7 1 38.24 1.62
-1 7 -1 36.47 1.62
2 -7 1 41.04 1.96
2 -7 1 39.94 1.85
2 -7 1 39.38 2.36
-2 7 -1 41.54 1.73
-2 7 -1 43.97 1.82
-2 7 -1 43.13 1.57
-2 7 -1 41.75 1.56
-2 7 -1 45.07 1.57
3 -7 1 45.6 1.89
3 -7 1 44.71 2
3 -7 1 46.42 1.85
-3 7 -1 43.27 1.8
-3 7 -1 43.82 1.67
-3 7 -1 44.56 1.55
-3 7 -1 44.84 1.55
4 -7 1 20.81 0.99
4 -7 1 22.52 1.03
-4 7 -1 20.99 0.92
2 -8 -1 11.13 0.68
2 -8 -1 10.88 0.68
2 -8 -1 11.21 0.79
-2 8 1 11.02 0.55
-2 8 1 11.81 0.57
-2 8 1 10.86 0.67
1 -8 -1 4.4 0.5
-1 8 1 5.07 0.48
1 8 -1 4.47 0.48
-1 8 1 4.61 0.39
-1 8 1 4.91 0.38
0 -8 1 20.8 1.07
0 -8 1 15.92 1.4
0 -8 -1 19 1.04
0 8 1 21.83 1.06
0 8 -1 19.86 1.03
1 -8 1 2.63 0.44
-1 8 -1 2.32 0.31
-1 8 -1 2.24 0.31
-1 8 -1 1.79 0.31
1 8 1 2.14 0.38
-1 8 -1 1.9 0.33
2 -8 1 3.7 0.48
2 -8 1 4.17 0.43
-2 8 -1 4.6 0.44
-2 8 -1 4.61 0.34
-2 8 -1 4.19 0.33
-2 8 -1 4.42 0.43
7 0 -2 6.5 0.51
-7 0 2 6.62 0.48
6 0 -2 3.36 0.42
6 0 -2 3.94 0.45
6 0 -2 3.02 0.47
6 0 -2 2.79 0.43
6 0 -2 2.91 0.59
6 0 -2 2.64 0.43
-6 0 2 3.42 0.6
5 0 -2 27.05 1.07
5 0 -2 26.32 1.34
5 0 -2 25.06 1.6
5 0 -2 27.22 1.29
5 0 -2 26.2 1.41
5 0 -2 26.19 1.34
5 0 -2 27.49 1.34
-5 0 2 25.76 1.34
5 0 -2 25.94 1.32
4 0 -2 20.2 1.04
4 0 -2 22.5 1.32
4 0 -2 20.36 1
3 0 -2 22.97 1.19
3 0 -2 23.4 0.99
-2 0 2 24.22 1.13
-2 0 2 23.41 1.1
-1 0 2 56.03 1.85
1 0 -2 56.19 1.84
-1 0 2 57.97 1.87
1 0 -2 56.81 1.87
-1 0 2 57.66 1.87
0 0 2 0.59 0.11
0 0 -2 0.35 0.1
0 0 2 0.58 0.16
0 0 -2 0.36 0.13
1 0 2 198.91 6.13
1 0 2 207.88 5.88
-1 0 -2 198.06 5.87
-2 0 -2 152.6 4.7
2 0 2 148.35 4.62
2 0 2 142.54 4.98
3 0 2 55.25 2.62
3 0 2 54.35 2.18
4 0 2 92.53 4.1
4 0 2 88.71 2.66
4 0 2 93.69 3.16
4 0 2 94.31 3.57
5 0 2 41.95 1.97
-5 0 -2 40.83 1.82
5 0 2 43.05 1.83
5 0 2 41.07 2.21
5 0 2 40.56 1.8
5 0 2 42.53 1.75
5 0 2 39.64 1.79
6 0 2 42.97 2.29
6 0 2 43.37 1.85
6 0 2 45.54 1.89
6 0 2 46.1 2.01
6 0 2 46.68 1.73
6 0 2 45.67 1.76
7 -1 -2 29.65 1.22
7 -1 -2 31.52 1.1
-7 -1 2 29.94 1.24
7 1 -2 27.75 1.2
7 1 -2 30.01 1.24
6 -1 -2 21.8 1.22
6 -1 -2 24.5 1.18
6 -1 -2 25.02 1.23
6 -1 -2 22.63 1.28
6 -1 -2 22.6 1.47
6 1 -2 22.29 0.97
6 1 -2 19.52 1.41
6 1 -2 22.13 1.19
6 1 -2 21.3 1.07
6 1 -2 21.72 1.12
6 1 -2 21.46 1.24
-6 1 2 22.24 1.22
5 -1 -2 68.45 2.49
5 -1 -2 66.52 2.68
5 -1 -2 66.49 2.74
5 -1 -2 63.64 2.6
5 -1 -2 68.17 2.57
5 -1 -2 65.94 2.81
5 -1 -2 65.48 2.91
5 1 -2 66.86 2.64
5 1 -2 69.43 2.45
5 1 -2 66.35 2.35
-5 1 2 65.58 2.69
5 1 -2 68.06 2.57
5 1 -2 68.87 2.98
5 1 -2 67.01 2.43
5 1 -2 67.32 2.34
4 -1 -2 91.18 3.18
4 -1 -2 88.44 3.38
4 -1 -2 86.88 2.76
4 1 -2 88.11 3.39
4 1 -2 89.96 2.94
3 -1 -2 148.17 4.67
-3 -1 2 145.21 4.68
3 -1 -2 146.09 4.55
3 1 -2 141.02 4.66
3 1 -2 136.62 4.25
-2 -1 2 95.09 3.09
2 -1 -2 97.24 3.17
2 -1 -2 90.92 3.23
-2 1 2 94.24 3.26
2 1 -2 100.83 3.19
-1 -1 2 9.86 0.43
1 -1 -2 10.14 0.76
-1 1 2 7.22 0.49
-1 1 2 7.56 0.52
1 1 -2 7.59 0.4
-1 1 2 6.74 0.48
0 -1 2 162.93 4.77
0 -1 -2 158.96 4.79
0 1 -2 162.16 4.76
0 1 2 166.39 4.57
0 1 2 164.14 4.81
0 1 2 159.52 4.79
0 1 -2 169.61 4.86
1 -1 2 217.08 6.5
-1 -1 -2 215.64 6.31
1 -1 2 225.99 6.46
1 1 2 207.74 6.5
1 1 2 222.29 6.2
-1 1 -2 220.77 6.42
-1 1 -2 221.24 6.4
2 -1 2 37.9 1.81
2 1 2 38.75 1.42
-2 1 -2 40.92 1.73
2 1 2 41.12 1.87
3 -1 2 69.81 2.72
3 -1 2 73.21 3.28
3 -1 2 71 2.98
3 1 2 77.17 3.15
3 1 2 73.33 2.73
-3 1 -2 72.26 2.89
4 -1 2 45.06 2.14
4 -1 2 43.55 1.55
4 -1 2 43.66 2.6
4 1 2 45.75 1.73
-4 1 -2 43.67 2.51
4 1 2 46.01 2.18
5 -1 2 13.57 1.21
5 -1 2 11.43 0.9
5 -1 2 11.41 0.96
5 -1 2 11.94 0.98
5 -1 2 11.97 0.87
5 1 2 13.4 0.93
5 1 2 13.66 0.87
-5 1 -2 13.48 1.33
5 1 2 12.89 0.75
5 1 2 13 1.2
5 1 2 12.72 0.77
5 1 2 13.06 0.79
5 1 2 13.82 0.84
5 1 2 13.47 0.79
5 1 2 13.23 1.07
6 -1 2 0.61 0.29
6 -1 2 0.39 0.24
-6 -1 -2 0.41 0.24
6 -1 2 0.57 0.4
6 -1 2 0.52 0.25
6 -1 2 0.37 0.24
6 1 2 0.3 0.15
6 1 2 0.57 0.22
6 1 2 0.15 0.2
6 1 2 0.3 0.28
6 1 2 0.54 0.22
-6 1 -2 0.66 0.3
6 -2 -2 3.36 0.51
6 -2 -2 4.29 0.6
6 -2 -2 4.95 0.55
6 -2 -2 5.54 0.6
6 -2 -2 5.03 0.44
6 2 -2 3 0.46
6 2 -2 3.6 0.52
6 2 -2 3.8 0.42
-6 2 2 4.08 0.46
6 2 -2 3.98 0.34
5 -2 -2 21.59 0.92
5 -2 -2 20.29 1.21
5 -2 -2 19.78 1.4
5 -2 -2 20.64 0.94
5 -2 -2 21.22 1.32
5 2 -2 21.05 1.48
5 2 -2 21.37 0.9
-5 2 2 21.31 1.21
5 2 -2 20.2 1.01
5 2 -2 21.09 1.26
5 2 -2 22.18 1
5 2 -2 21.64 1.21
4 -2 -2 16.8 1.08
-4 -2 2 16.74 1.18
4 -2 -2 16.58 1.17
4 -2 -2 16.62 0.84
-4 2 2 18.77 1.34
4 2 -2 18.38 1.25
4 2 -2 17.32 0.81
4 2 -2 18.13 0.82
3 -2 -2 24.41 1.55
3 -2 -2 28.86 1.4
3 -2 -2 29.12 1.68
3 -2 -2 29.08 1.38
3 2 -2 28.93 1.04
3 2 -2 28.81 1.45
-3 2 2 29.39 1.52
2 -2 -2 150.96 4.7
2 -2 -2 142.88 4.75
2 -2 -2 145.49 4.84
-2 2 2 141.53 4.83
-2 2 2 141.83 4.67
2 2 -2 147.64 4.45
-2 2 2 144 4.74
-1 -2 2 31.4 1.52
1 -2 -2 32.27 1.86
1 -2 -2 32.08 1.38
-1 2 2 31.25 1.33
-1 2 2 31.96 1.36
-1 2 2 31.84 1.31
1 2 -2 31.08 1.44
-1 2 2 31.97 1.29
0 -2 -2 131.32 3.95
0 -2 2 129.59 3.98
0 -2 2 125.94 4.44
0 2 2 129.62 3.78
0 2 2 130.34 3.95
0 2 -2 125.63 3.83
0 2 -2 127.75 4.16
0 2 -2 132.79 3.83
0 2 2 129.92 3.9
0 2 2 132.75 3.89
0 2 -2 130.21 3.74
1 -2 2 73.8 2.71
-1 -2 -2 76.53 2.58
1 -2 2 75.23 2.67
-1 2 -2 81.97 2.7
-1 2 -2 78.63 2.61
-1 2 -2 84.53 2.78
-1 2 -2 81.91 2.67
2 -2 2 167.53 5.49
2 -2 2 155.01 5.15
2 -2 2 165.34 5.4
-2 2 -2 174.92 5.39
-2 2 -2 159.4 5.34
-2 2 -2 166.4 5.19
-2 2 -2 168.18 5.27
3 -2 2 62.76 2.95
3 -2 2 58.97 2.45
3 -2 2 61.42 2.74
-3 2 -2 59.59 2.53
-3 2 -2 61.96 2.67
3 2 2 60.39 2.46
4 -2 2 83.3 2.74
4 -2 2 83.97 3.38
4 -2 2 86 3.87
4 -2 2 83.64 4.17
4 2 2 80.56 2.64
4 2 2 82.63 2.74
4 2 2 84.7 3.43
-4 2 -2 83.83 3.49
5 -2 2 31.61 1.88
5 -2 2 29.23 1.56
5 -2 2 35.41 1.97
5 -2 2 30.79 1.2
5 -2 2 32.2 1.19
-5 2 -2 29.04 1.5
5 2 2 28.82 1.33
5 2 2 28.8 1.5
5 2 2 29.11 1.26
-5 2 -2 29.51 1.88
5 2 2 28.45 1.16
6 -2 2 11.14 0.65
6 -2 2 10.35 0.84
-6 -2 -2 11.86 0.81
6 -2 2 9.95 0.82
-6 2 -2 11.21 0.73
6 2 2 12.21 0.82
-6 2 -2 11.18 0.64
6 2 2 12.1 0.72
6 -3 -2 28.58 1.3
6 -3 -2 29.41 1.51
6 -3 -2 30.03 1.35
6 -3 -2 31.13 1.44
6 3 -2 31 1.39
6 3 -2 29.13 1.18
6 3 -2 28.65 1.43
-6 3 2 29.78 1.22
5 -3 -2 61.57 2.82
5 -3 -2 63.18 2.5
5 -3 -2 63.69 2.65
5 -3 -2 66.42 2.24
5 -3 -2 62.83 2.28
5 3 -2 65.38 2.68
5 3 -2 66.31 2.55
-5 3 2 69.76 2.39
5 3 -2 68.64 2.27
4 -3 -2 63.6 2.74
-4 -3 2 64.8 2.67
4 -3 -2 63.26 2.77
4 -3 -2 68.71 2.83
4 -3 -2 64.71 2.3
-4 3 2 63.89 2.31
4 3 -2 64.86 2.51
4 3 -2 67.73 2.06
3 -3 -2 59.93 2.49
3 -3 -2 66.47 2.99
3 -3 -2 61.79 2.9
3 -3 -2 59.66 2.44
3 3 -2 64.85 1.94
-3 3 2 63.24 2.93
-3 3 2 75.74 3.07
2 -3 -2 79.99 3.21
2 -3 -2 77.18 3.15
2 -3 -2 76.4 3.13
2 -3 -2 77.76 2.93
2 3 -2 87.21 2.35
-2 3 2 92.02 3.3
-2 3 2 89.06 3.14
-1 -3 2 102.15 4.01
1 -3 -2 101 4.42
-1 3 2 96.88 3.23
1 3 -2 96.58 3.59
1 3 -2 97.17 2.89
-1 3 2 93.34 3.35
-1 3 2 102.41 3.45
-1 3 2 94.23 3.25
0 -3 -2 78.07 3.63
0 -3 2 81.47 3.47
0 -3 2 81.28 2.77
0 3 -2 74.58 2.46
0 3 -2 74.7 2.94
0 3 2 72.11 2.67
0 3 2 73.66 2.58
1 -3 2 100.69 3.33
1 -3 2 102.51 3.38
1 -3 2 103.21 3.53
-1 3 -2 96.99 3.53
-1 3 -2 95.07 3.28
-1 3 -2 96.09 3.27
1 3 2 96.42 3.14
2 -3 2 107.25 3.97
2 -3 2 107.99 4.05
2 -3 2 109.76 4.01
2 -3 2 107.26 3.74
-2 3 -2 105.83 3.96
-2 3 -2 107.78 3.52
-2 3 -2 113.84 3.88
3 -3 2 14.37 1.07
3 -3 2 14.96 1.32
3 -3 2 14.4 1.26
-3 3 -2 16.58 1.07
-3 3 -2 16.88 1.08
-3 3 -2 16.84 0.82
4 -3 2 56.74 2.14
4 -3 2 58.02 2.37
4 -3 2 64.26 3.22
4 -3 2 61.73 2.72
4 -3 2 58.5 2.21
4 -3 2 59.49 3.38
4 -3 2 55.05 3.16
4 -3 2 59.57 2.12
-4 3 -2 53.61 2.55
4 3 2 55.35 1.88
4 3 2 53.4 2.26
4 3 2 56.57 1.73
-4 3 -2 58.7 2.11
5 -3 2 2.73 0.48
5 -3 2 3.74 0.77
5 -3 2 3.97 0.51
5 -3 2 2.87 0.36
5 3 2 2.72 0.25
5 3 2 2.84 0.38
-5 3 -2 2.44 0.37
5 3 2 3.63 0.57
6 -3 2 1.94 0.43
6 -3 2 1.96 0.34
6 -3 2 1.94 0.38
-6 3 -2 1.78 0.28
6 3 2 1.51 0.24
6 3 2 2.42 0.39
6 -4 -2 3.1 0.35
6 -4 -2 3.13 0.42
6 4 -2 2.63 0.24
6 4 -2 2.92 0.41
5 -4 -2 3.28 0.48
5 -4 -2 2.52 0.43
5 -4 -2 3.69 0.71
5 -4 -2 2.81 0.36
5 -4 -2 3.09 0.51
5 4 -2 4.3 0.6
5 4 -2 3.28 0.31
-5 4 2 2.77 0.55
4 -4 -2 13.55 0.98
4 -4 -2 13.88 1.18
4 -4 -2 13.27 0.86
4 -4 -2 12.85 0.97
4 -4 -2 14.86 1.14
4 -4 -2 14.73 1.42
4 -4 -2 12.91 0.91
4 4 -2 14.4 0.66
4 4 -2 15.58 1.02
-4 4 2 15.67 1.11
-4 4 2 15.47 0.8
3 -4 -2 30.43 1.5
3 -4 -2 31.48 2.04
3 -4 -2 31.75 1.99
3 -4 -2 31.47 1.6
-3 4 2 32.09 1.24
-3 4 2 31.06 1.2
-3 4 2 31.47 1.52
2 -4 -2 32.82 1.85
2 -4 -2 31.12 1.82
2 -4 -2 30.77 1.38
2 -4 -2 31.87 1.79
2 -4 -2 29.68 1.43
-2 4 2 27.83 1.79
-2 4 2 29.06 1.32
-1 -4 2 2.15 0.69
1 -4 -2 2.5 0.48
1 -4 -2 2.27 0.81
1 4 -2 1.32 0.17
-1 4 2 1.47 0.38
1 4 -2 1.46 0.46
0 -4 2 48.24 2.96
0 -4 -2 48.58 3.17
0 -4 2 48.92 2.2
0 4 -2 52.59 2.5
0 4 2 52.63 2.01
0 4 -2 51.77 1.86
1 -4 2 13.62 0.93
1 -4 2 14.3 1.07
1 -4 2 13.65 0.95
-1 -4 -2 13.29 1.59
-1 4 -2 10.89 1.01
-1 4 -2 11.12 0.8
1 4 2 11.03 0.67
2 -4 2 117.45 4.29
2 -4 2 120.25 4.59
2 -4 2 118.14 4.03
2 -4 2 121.59 4.71
2 -4 2 117.49 4.62
2 4 2 128.18 3.81
-2 4 -2 132.89 4.49
-2 4 -2 128.18 3.96
-2 4 -2 126.59 4.78
3 -4 2 40.98 2.47
3 -4 2 42.94 1.88
3 -4 2 40.63 2.39
3 -4 2 42.58 2.11
3 -4 2 41.6 1.92
-3 4 -2 43.22 1.86
-3 4 -2 40.77 1.51
-3 4 -2 42.23 1.52
4 -4 2 35.28 1.75
4 -4 2 36.75 1.76
4 -4 2 36.29 1.66
4 -4 2 37.27 2.05
4 -4 2 38.99 2.5
4 -4 2 35.9 1.58
4 -4 2 37.73 1.66
-4 4 -2 38.16 1.47
-4 4 -2 38.37 1.85
-4 4 -2 37.58 1.79
5 -4 2 63.56 2.84
5 -4 2 62.64 2.18
5 -4 2 65.9 2.27
5 -4 2 63.88 2.49
5 -4 2 59.21 2.44
5 4 2 62.05 2.44
-5 4 -2 62.89 2.14
-5 4 -2 62.86 2.57
5 4 2 63.15 2.11
6 -4 2 16.2 0.85
6 4 2 15.74 0.66
6 4 2 15.69 0.82
5 -5 -2 34.57 1.57
5 -5 -2 31.57 1.33
5 -5 -2 33.91 1.39
5 5 -2 35.69 1.56
-5 5 2 33.93 1.51
5 5 -2 36 1.1
-5 5 2 35.36 1.71
4 -5 -2 36.75 1.51
4 -5 -2 38.15 1.7
4 -5 -2 36.7 1.94
4 -5 -2 36.95 2.11
4 -5 -2 36.48 1.74
-4 5 2 39.74 1.96
-4 5 2 40.25 1.77
4 5 -2 38.75 1.25
3 -5 -2 36.72 1.71
3 -5 -2 35.3 1.71
3 -5 -2 35.03 2.21
3 -5 -2 32.19 2.25
3 -5 -2 34.1 1.76
-3 5 2 31.59 1.72
-3 5 2 32.47 1.32
-3 5 2 33.89 1.61
-3 5 2 34.24 1.62
-3 5 2 33.42 1.31
-3 5 2 33.85 1.57
2 -5 -2 25.29 1.71
2 -5 -2 24.06 1.27
2 -5 -2 24.52 1.74
2 -5 -2 25.47 1.37
2 -5 -2 23.72 1.68
-2 5 2 22.17 1.16
-2 5 2 23.91 1.2
-2 5 2 23.23 1.02
1 -5 -2 81.35 3.3
-1 -5 2 76.9 3.27
1 -5 -2 81.16 3.36
1 -5 -2 76.55 2.74
1 -5 -2 72.17 3.36
1 5 -2 81.18 2.74
-1 5 2 77.78 2.72
1 5 -2 84 2.53
0 -5 2 34.39 1.65
0 -5 2 32.6 3.64
0 -5 2 35 1.96
0 5 -2 36.31 1.5
0 5 -2 36.71 1.54
0 5 2 34.5 1.47
1 -5 2 26.52 1.48
1 -5 2 25.37 1.54
1 -5 2 24.56 1.65
-1 5 -2 24.6 1.37
1 5 2 23.61 1.17
-1 5 -2 24.12 1.17
2 -5 2 66.69 2.58
2 -5 2 68.14 3.32
2 -5 2 65.79 3.16
2 -5 2 69.59 2.88
2 -5 2 65.9 3.18
-2 5 -2 65.86 2.65
-2 5 -2 68.8 2.32
-2 5 -2 67.12 2.44
-2 5 -2 67.97 2.44
-2 5 -2 69.44 2.98
-2 5 -2 69.69 2.28
3 -5 2 7.4 1.05
3 -5 2 7.56 0.79
3 -5 2 8.33 1.08
3 -5 2 6.91 0.79
3 -5 2 7.69 0.75
3 -5 2 8.38 0.92
-3 5 -2 6.65 0.51
-3 5 -2 7.05 0.78
-3 5 -2 6.81 0.7
-3 5 -2 6.46 0.61
-3 5 -2 8.18 0.9
-3 5 -2 6.94 0.51
4 -5 2 9.83 0.78
4 -5 2 10.73 0.86
4 -5 2 10.03 1.02
4 -5 2 9.9 1.24
4 -5 2 10.93 0.86
-4 5 -2 11.19 0.99
4 5 2 11.49 0.55
-4 5 -2 11.24 0.88
-4 5 -2 11.26 0.83
5 -5 2 2.8 0.43
5 -5 2 3.05 0.44
5 -5 2 3.13 0.42
5 -5 2 2.31 0.31
-5 5 -2 2.89 0.47
-5 5 -2 2.52 0.51
5 5 2 2.8 0.22
5 -6 -2 2.24 0.3
5 -6 -2 2.71 0.37
-5 6 2 2.98 0.35
4 -6 -2 1.59 0.41
4 -6 -2 3.07 0.47
4 -6 -2 2.53 0.42
-4 6 2 4.18 0.53
-4 6 2 2.5 0.4
3 -6 -2 20.89 1.27
3 -6 -2 19.66 1.62
3 -6 -2 21.31 1.27
3 -6 -2 21 1.34
3 -6 -2 20.53 1.17
-3 6 2 20.76 0.93
-3 6 2 21.56 0.94
-3 6 2 21.98 1.22
-3 6 2 21.48 1.19
-3 6 2 19.74 1.13
2 -6 -2 21.11 1.62
2 -6 -2 19.82 1.17
2 -6 -2 18.57 1.6
2 -6 -2 19.83 1.25
-2 6 2 19.38 0.93
-2 6 2 18.59 1.11
-2 6 2 19.46 1.08
-2 6 2 18.43 0.9
-2 6 2 18.31 1.02
-2 6 2 18.8 1.08
1 -6 -2 41.47 1.91
1 -6 -2 41.47 2.34
1 -6 -2 41.88 1.81
1 6 -2 40.85 1.75
-1 6 2 41.79 1.76
1 6 -2 41.34 1.44
-1 6 2 42.39 1.61
0 -6 2 32.41 2.13
0 -6 2 36.14 1.94
0 6 -2 39.66 1.47
0 6 -2 39.55 1.71
0 6 2 40.59 1.69
0 6 -2 41.06 1.7
0 6 -2 39.22 1.72
1 -6 2 16.94 1.49
1 -6 2 19.6 1.46
1 -6 2 21.5 1.62
1 -6 2 20.08 1.11
-1 6 -2 16.98 0.85
-1 6 -2 15.12 0.69
-1 6 -2 15.04 1.13
-1 6 -2 15.93 0.98
1 6 2 16.73 1
-1 6 -2 17.03 1.05
-1 6 -2 15.53 0.89
2 -6 2 25.46 1.93
2 -6 2 27.99 1.52
2 -6 2 28.36 2
-2 6 -2 33.37 1.39
-2 6 -2 32.19 1.54
-2 6 -2 33.09 1.44
-2 6 -2 32.58 1.28
-2 6 -2 32.56 1.3
-2 6 -2 31.36 1.44
-2 6 -2 32.08 1.87
3 -6 2 46.97 2.12
3 -6 2 49.82 2.17
3 -6 2 48.08 2.77
3 -6 2 49.79 2.28
-3 6 -2 48.65 1.99
-3 6 -2 51.59 1.77
-3 6 -2 49.99 1.76
-3 6 -2 49.68 2.1
-3 6 -2 49.07 2.06
4 -6 2 21.57 1.11
4 -6 2 22.04 1.1
4 -6 2 20.52 1.18
-4 6 -2 22.38 1.16
-4 6 -2 22.3 1.21
5 -6 2 27.8 1.05
5 -6 2 26.18 1.1
-5 6 -2 29.87 1.21
4 -7 -2 13.82 0.76
4 -7 -2 13.85 0.76
-4 7 2 14.09 0.71
3 -7 -2 28.54 1.55
3 -7 -2 32.14 1.4
3 -7 -2 31 1.49
3 -7 -2 30.95 1.33
-3 7 2 30.26 1.15
-3 7 2 33.16 1.32
-3 7 2 31.92 1.17
2 -7 -2 11.97 0.87
2 -7 -2 11.22 0.91
-2 7 2 10.87 0.66
-2 7 2 10.52 0.62
-2 7 2 10.92 0.77
-2 7 2 11.43 0.65
-2 7 2 10.52 0.77
1 -7 -2 30.27 1.57
1 -7 -2 29.43 1.46
-1 7 2 30.32 1.42
1 7 -2 30.41 1.44
0 -7 2 20.81 1.62
0 -7 2 21.77 1.18
0 -7 -2 19.5 1.22
0 -7 -2 21.56 1.16
0 7 2 23.09 1.18
0 7 -2 22.4 1.18
0 7 -2 21.86 1.17
1 -7 2 16.9 1.45
1 -7 2 17.87 1.07
1 7 2 16.29 0.98
-1 7 -2 16.35 0.98
-1 7 -2 15.77 0.59
-1 7 -2 16.41 1.01
2 -7 2 16.93 1.5
2 -7 2 19.67 1.24
2 -7 2 17.83 1.12
-2 7 -2 19.19 0.89
-2 7 -2 17.36 0.85
-2 7 -2 17.8 1.07
-2 7 -2 19.22 0.88
-2 7 -2 19.26 1.04
3 -7 2 22.41 1.16
3 -7 2 19.71 1.26
-3 7 -2 19.17 0.84
-3 7 -2 20.85 0.97
-3 7 -2 20.11 1.09
-3 7 -2 20.12 0.86
4 -7 2 1.24 0.29
4 -7 2 1.04 0.25
-4 7 -2 0.81 0.19
2 -8 -2 9.24 0.69
2 -8 -2 8.6 0.58
-2 8 2 7.67 0.57
-2 8 2 8.27 0.47
-2 8 2 8.81 0.48
1 -8 -2 13.91 0.89
-1 8 2 14.08 0.82
-1 8 2 14.78 0.69
1 8 -2 14.85 0.83
-1 8 2 14.84 0.69
0 -8 2 10.09 0.72
0 -8 -2 9.79 0.72
0 8 -2 10.98 0.82
0 8 -2 11.65 0.74
0 8 2 12.1 0.75
1 -8 2 15.12 0.91
-1 8 -2 15.27 0.85
-1 8 -2 14.48 0.69
-1 8 -2 14.56 0.7
1 8 2 16.29 0.88
-1 8 -2 13.32 0.79
2 -8 2 6.44 0.6
-2 8 -2 7.61 0.57
-2 8 -2 8.09 0.46
-2 8 -2 7.78 0.55
-2 8 -2 8.61 0.46
7 0 -3 14.53 0.76
-7 0 3 13.88 0.72
-6 0 3 29.9 1.5
6 0 -3 29.05 1.25
6 0 -3 28.63 1.44
6 0 -3 26.44 1.65
6 0 -3 28.53 1.37
6 0 -3 28.58 1.38
6 0 -3 28.28 1.28
5 0 -3 49.18 2.05
5 0 -3 53.54 2.47
5 0 -3 50 1.97
5 0 -3 51.89 2.07
5 0 -3 48.89 1.72
5 0 -3 49.79 2.13
5 0 -3 49.86 2.06
5 0 -3 47.12 2.22
5 0 -3 51.56 2.06
4 0 -3 142.56 4.56
4 0 -3 147.83 4.97
4 0 -3 142.96 4.48
3 0 -3 124.4 3.9
-3 0 3 128.86 4.41
3 0 -3 128.29 4.2
-2 0 3 368.49 10.58
-2 0 3 360.06 10.57
2 0 -3 355.19 10.43
1 0 -3 739.54 20.25
-1 0 3 737.65 20.23
-1 0 3 696.22 20.2
1 0 -3 724.47 20.21
0 0 -3 16.26 0.67
0 0 3 15.99 0.8
0 0 -3 16.54 0.81
-1 0 -3 31.27 1.11
1 0 3 31.32 1.45
-1 0 -3 29.86 1.26
1 0 3 30.06 1.25
2 0 3 172.28 5.71
-2 0 -3 170.62 5.39
3 0 3 91.62 3.29
3 0 3 91.2 3.75
4 0 3 20.23 1.65
4 0 3 18.45 1.03
4 0 3 19.01 0.95
4 0 3 18.65 0.68
4 0 3 20.88 1.38
5 0 3 12.86 0.83
5 0 3 12.73 0.74
5 0 3 12.39 1.18
5 0 3 12.31 0.87
-5 0 -3 11.92 0.93
5 0 3 12.52 0.9
5 0 3 12.11 0.89
5 0 3 12.26 1
6 0 3 10.82 0.7
6 0 3 8.91 0.74
6 0 3 9.78 0.77
6 0 3 10.54 0.66
6 0 3 10.31 0.83
7 -1 -3 4.78 0.34
7 -1 -3 4.7 0.42
-7 -1 3 4.81 0.42
7 1 -3 5.49 0.44
7 1 -3 5.04 0.4
6 -1 -3 1.04 0.4
6 -1 -3 0.62 0.25
6 -1 -3 0.97 0.38
6 -1 -3 0.8 0.37
6 -1 -3 0.45 0.22
6 -1 -3 0.45 0.29
6 1 -3 0.92 0.21
6 1 -3 0.79 0.25
-6 1 3 0.93 0.3
6 1 -3 0.84 0.28
6 1 -3 0.64 0.23
6 1 -3 0.85 0.3
5 -1 -3 3.34 0.58
5 -1 -3 4.1 0.6
5 -1 -3 4.82 0.65
5 -1 -3 3.95 0.68
5 -1 -3 4.12 0.5
5 -1 -3 4.23 0.68
5 -1 -3 5.55 0.85
5 1 -3 3.9 0.43
-5 1 3 3.47 0.59
5 1 -3 3.97 0.46
5 1 -3 4.48 0.79
5 1 -3 5.03 0.68
5 1 -3 4.01 0.55
5 1 -3 4.21 0.48
5 1 -3 4 0.45
4 -1 -3 7.48 0.77
4 -1 -3 7.63 0.71
4 -1 -3 7 0.46
4 1 -3 7.45 0.54
4 1 -3 7.62 0.77
3 -1 -3 23.63 1.19
-3 -1 3 26.35 1.37
3 -1 -3 25.62 1.28
3 1 -3 25.06 1.01
3 1 -3 25.81 1.32
2 -1 -3 12.71 0.73
2 -1 -3 12.95 0.85
-2 -1 3 13.06 0.76
-2 1 3 11.61 0.83
-2 1 3 12.24 0.84
1 -1 -3 9.39 0.63
1 -1 -3 9.66 0.79
-1 1 3 11.02 0.67
-1 1 3 10.83 0.65
1 1 -3 10.49 0.49
1 1 -3 11.37 0.59
0 -1 -3 21.8 1.03
0 -1 3 22.27 0.93
0 -1 3 22.3 1.02
0 1 -3 25.08 1.03
0 1 3 24.03 1.05
0 1 -3 24.4 1.04
0 1 3 24.22 1.07
1 -1 3 198.58 5.83
-1 -1 -3 181.21 5.72
1 -1 3 199.32 5.89
-1 1 -3 195.58 5.8
1 1 3 184.49 5.91
1 1 3 188.34 5.59
-1 1 -3 192.52 5.7
2 -1 3 20.94 1.36
2 1 3 26.49 1.5
-2 1 -3 24.67 1.29
-2 1 -3 25.81 1.23
3 -1 3 81.95 3.65
3 -1 3 77.92 3.02
3 1 3 85.45 3.56
-3 1 -3 81.96 3.2
3 1 3 80.91 3.01
-3 1 -3 79.59 3.12
4 -1 3 37.86 1.49
4 -1 3 38.86 1.42
4 -1 3 36.67 2.38
4 -1 3 39.76 2.03
4 1 3 40.3 1.62
-4 1 -3 37.45 2.17
4 1 3 45.03 2.11
4 1 3 43.95 2.13
4 1 3 40.96 2.46
5 -1 3 19.85 1.28
5 -1 3 20.19 1.3
5 -1 3 20.8 1.52
5 -1 3 20.96 1.2
5 -1 3 20.38 1.18
-5 -1 -3 19.44 1.23
5 1 3 21.49 1.22
5 1 3 20.54 1.04
5 1 3 22.6 1.03
-5 1 -3 20.07 1.65
5 1 3 21.17 1.04
5 1 3 21.22 1.16
-5 1 -3 21.93 1.19
5 1 3 22.54 1.14
5 1 3 21.95 1.06
5 1 3 21.61 1.6
6 -1 3 6.14 0.67
6 -1 3 5.67 0.58
6 -1 3 6.46 0.6
6 -1 3 6.15 0.59
-6 -1 -3 6.48 0.6
6 1 3 5.52 0.51
6 1 3 5.46 0.43
6 1 3 6.25 0.62
6 1 3 5.27 0.53
-6 1 -3 5.79 0.59
6 -2 -3 24.82 1.32
6 -2 -3 23.49 1.31
6 -2 -3 22.01 1.17
6 -2 -3 23.34 1.04
6 -2 -3 23.31 1.23
6 2 -3 25.5 1.26
6 2 -3 23.42 0.96
-6 2 3 25.85 1.15
6 2 -3 23.95 1.11
6 2 -3 25.34 1.32
5 -2 -3 44.17 1.56
5 -2 -3 44 1.53
5 -2 -3 43.99 1.92
5 -2 -3 43.78 2.18
5 -2 -3 43.72 2.01
5 -2 -3 43.33 1.93
5 2 -3 42.04 1.87
5 2 -3 40.85 1.67
-5 2 3 39.3 1.84
5 2 -3 42.35 1.62
5 2 -3 40.78 1.5
5 2 -3 42.55 1.95
4 -2 -3 123.15 4.26
4 -2 -3 124.67 4.42
4 -2 -3 124.13 3.87
4 -2 -3 124.45 4.48
-4 -2 3 127.65 4.55
4 2 -3 124.61 3.85
4 2 -3 122.67 3.78
4 2 -3 127.52 4.54
3 -2 -3 92.62 3.38
3 -2 -3 96.62 3.51
3 -2 -3 94.6 3.41
-3 -2 3 101.65 3.43
3 -2 -3 97.1 3.83
3 2 -3 101.29 3.56
3 2 -3 103.73 3.01
2 -2 -3 63.81 2.61
2 -2 -3 61.37 2.53
-2 2 3 63.31 2.53
-2 2 3 64.04 2.59
2 2 -3 68.57 2.05
-1 -2 3 140.33 4.51
1 -2 -3 143.05 4.48
1 -2 -3 135.98 5.13
-1 2 3 142.34 4.47
-1 2 3 132.99 4.35
-1 2 3 137.62 4.43
1 2 -3 136.13 4.57
0 -2 -3 55.84 2.08
0 -2 3 59.94 2.05
0 -2 3 58.11 2.46
0 2 3 60.12 2.07
0 2 -3 58.98 1.99
0 2 -3 54.89 1.95
0 2 -3 58.2 1.9
0 2 3 57.36 2.09
0 2 3 60.27 1.95
0 2 3 58.34 1.84
0 2 -3 58.03 2.24
1 -2 3 59.76 2.32
-1 -2 -3 61.55 2.26
1 -2 3 56.07 2.23
-1 2 -3 64.26 2.23
-1 2 -3 61.33 2.27
1 2 3 66.24 1.78
-1 2 -3 62.48 2.32
2 -2 3 81.03 2.84
2 -2 3 81.32 3.11
2 -2 3 75.9 3.01
-2 2 -3 72.96 2.76
-2 2 -3 81.17 2.96
-2 2 -3 74.7 2.93
-2 2 -3 75.08 3.08
3 -2 3 51.86 2.3
3 -2 3 52.83 2.77
3 -2 3 54.4 2.57
-3 2 -3 53.43 2.37
-3 2 -3 54.77 2.49
4 -2 3 30.4 2.28
4 -2 3 31.82 1.83
4 -2 3 31.92 1.32
4 -2 3 28.5 1.98
-4 2 -3 35.71 1.99
4 2 3 34.21 1.35
4 2 3 34.98 1.56
4 2 3 32.72 1.27
5 -2 3 40.76 1.43
5 -2 3 37.46 2.16
5 -2 3 40.21 1.44
5 -2 3 38.86 1.89
5 -2 3 40.65 1.75
-5 2 -3 39.97 2.25
5 2 3 38.17 1.54
5 2 3 38.86 1.8
5 2 3 38.83 1.45
5 2 3 39.8 1.65
-5 2 -3 38.23 1.79
-6 -2 -3 21.79 1.12
6 -2 3 21.24 1.18
6 -2 3 22.32 1.2
6 -2 3 20.11 0.88
-6 2 -3 21.84 1.04
6 2 3 18.22 0.97
6 2 3 20.83 1.12
6 -3 -3 1.01 0.26
6 -3 -3 1.08 0.28
6 -3 -3 0.88 0.36
6 -3 -3 1.26 0.33
6 3 -3 0.51 0.26
6 3 -3 0.66 0.23
6 3 -3 0.52 0.16
5 -3 -3 1.78 0.45
5 -3 -3 1.77 0.36
5 -3 -3 1.7 0.42
5 -3 -3 1.06 0.41
5 -3 -3 1.06 0.24
5 -3 -3 1.37 0.44
5 3 -3 2.02 0.48
5 3 -3 1.64 0.3
5 3 -3 1.08 0.31
-5 3 3 1.54 0.35
4 -3 -3 6.8 0.78
4 -3 -3 6.84 0.78
4 -3 -3 7.16 0.59
4 -3 -3 7.46 0.83
4 -3 -3 5.2 0.73
-4 -3 3 6.85 0.76
4 3 -3 7.82 0.43
-4 3 3 6.97 0.58
4 3 -3 7.41 0.52
4 3 -3 6.4 0.66
3 -3 -3 4.39 0.55
3 -3 -3 5.05 0.74
3 -3 -3 6.71 1.14
3 3 -3 5.5 0.33
-3 3 3 4.33 0.7
2 -3 -3 6.09 0.71
2 -3 -3 5.51 0.68
2 -3 -3 5.54 0.54
2 -3 -3 7.11 1.14
2 -3 -3 6.87 0.71
-2 3 3 6.36 0.7
-2 3 3 6.06 0.72
2 3 -3 6.62 0.33
-1 -3 3 34.32 1.9
1 -3 -3 33.72 2.31
1 3 -3 33.34 1.24
-1 3 3 34.38 1.57
-1 3 3 31.61 1.41
-1 3 3 31.27 1.55
1 3 -3 34.14 1.76
0 -3 3 50.1 1.96
0 -3 3 47.36 1.66
0 -3 -3 52.41 2.87
0 -3 3 50.42 2.57
0 3 3 46.5 1.86
0 3 -3 47.98 2.16
0 3 3 45.48 1.52
0 3 3 46.84 1.61
0 3 -3 43.36 1.69
1 -3 3 83.31 2.96
1 -3 3 85.96 2.99
1 -3 3 87.13 3.11
-1 3 -3 77.76 2.84
-1 3 -3 80.2 2.89
1 3 3 79.21 2.85
-1 3 -3 78.82 3.1
2 -3 3 15.87 1.18
2 -3 3 16.99 1.27
2 -3 3 15.85 1.06
2 -3 3 16.87 1.2
-2 3 -3 19.22 1.26
-2 3 -3 18.15 0.93
-2 3 -3 18.82 1.16
3 -3 3 58.61 2.88
3 -3 3 60.63 2.61
3 -3 3 59.8 3.06
-3 3 -3 62.93 2.54
-3 3 -3 61.1 2.42
-3 3 -3 60.6 2.1
4 -3 3 38.97 1.82
4 -3 3 37.8 1.63
4 -3 3 37.55 2.06
4 -3 3 38.34 1.55
4 -3 3 41.42 2.52
4 -3 3 40.21 1.56
4 -3 3 36.27 2.6
4 3 3 35.48 1.34
-4 3 -3 33.57 1.89
4 3 3 33.54 1.66
-4 3 -3 34.86 1.5
4 3 3 34.84 1.21
5 -3 3 14.57 1.05
5 -3 3 14.84 0.83
5 -3 3 14.94 0.77
5 -3 3 14.31 1.25
5 3 3 15.91 0.85
5 3 3 15.14 0.65
-5 3 -3 15.55 0.88
5 3 3 15.48 1.02
-6 -3 -3 10.82 0.74
6 -3 3 11.85 0.88
6 -3 3 11.55 0.71
6 -3 3 12.53 0.82
-6 3 -3 11.55 0.64
6 3 3 12.87 0.66
6 3 3 12.48 0.8
6 -4 -3 26.12 1.21
6 4 -3 26.41 1.18
6 4 -3 27.7 0.97
5 -4 -3 33.15 1.39
5 -4 -3 34.93 1.77
5 -4 -3 32.19 1.61
5 -4 -3 33.61 1.35
5 4 -3 34.75 1.68
-5 4 3 30.91 1.67
5 4 -3 32.55 1.56
5 4 -3 32.01 1.23
4 -4 -3 67.78 2.58
4 -4 -3 69.85 2.53
4 -4 -3 67.21 3.06
4 -4 -3 68.15 2.69
4 -4 -3 72.62 2.98
4 -4 -3 68.6 2.61
-4 4 3 71.72 2.38
4 4 -3 68.98 2.69
4 4 -3 71.36 2.25
-4 4 3 70.55 2.81
4 4 -3 69.95 2.86
3 -4 -3 80.89 3.08
3 -4 -3 80.76 3.17
3 -4 -3 80.32 3.72
3 -4 -3 82.3 3.68
-3 4 3 89.96 2.7
-3 4 3 89.05 3.11
2 -4 -3 116.74 3.98
2 -4 -3 120.23 4.52
2 -4 -3 112.89 3.87
2 -4 -3 122.65 4.48
2 -4 -3 112.65 5.94
2 -4 -3 117.63 4.56
-2 4 3 122.54 3.9
2 4 -3 121.38 3.41
1 -4 -3 100.43 5.13
1 -4 -3 98.61 3.28
1 -4 -3 97.48 3.66
-1 -4 3 111.21 3.72
1 4 -3 97.67 4.03
-1 4 3 99.73 3.73
1 4 -3 104.6 3.16
0 -4 3 140.84 4.35
0 -4 -3 132.74 6.15
0 -4 3 136.37 5.8
0 -4 3 129.31 4.67
0 4 3 138.1 4.55
0 4 -3 137.02 4.3
0 4 -3 140.07 5.09
1 -4 3 84.08 3.37
-1 -4 -3 80.87 4.57
1 -4 3 83.27 3.23
1 -4 3 85.55 3.17
-1 4 -3 83.6 3.53
-1 4 -3 86.31 3.09
1 4 3 87.21 2.95
2 -4 3 27.48 1.54
2 -4 3 26.65 1.7
2 -4 3 25.9 1.3
2 -4 3 27.06 1.74
2 -4 3 26.76 1.76
-2 4 -3 25.46 0.96
-2 4 -3 26.19 1.56
-2 4 -3 26.6 1.23
3 -4 3 48 2.32
3 -4 3 47.61 2.63
3 -4 3 48.35 2.18
3 -4 3 46.6 2.73
-3 4 -3 45.34 2.01
-3 4 -3 47.23 1.69
-3 4 -3 48.2 1.7
3 4 3 49.98 1.41
4 -4 3 15.64 1.28
4 -4 3 16.3 0.95
4 -4 3 15.48 1.03
4 -4 3 15.32 0.97
4 -4 3 15.02 1.07
4 -4 3 14.98 1.54
4 -4 3 15.25 1.09
-4 4 -3 17.98 1.17
-4 4 -3 17.25 0.85
-4 4 -3 17.83 1.16
5 -4 3 12.8 0.92
5 -4 3 12.4 0.75
5 -4 3 10.31 1.06
5 -4 3 12.11 0.7
5 4 3 13.51 1.06
-5 4 -3 11.17 0.94
-5 4 -3 11.85 0.66
5 4 3 12.27 0.66
6 -4 3 1.89 0.29
6 4 3 2.14 0.21
5 -5 -3 0.46 0.24
5 -5 -3 0.73 0.25
5 -5 -3 0.76 0.22
5 5 -3 0.94 0.13
-5 5 3 0.89 0.34
5 5 -3 1.37 0.35
4 -5 -3 0.47 0.33
4 -5 -3 0.13 0.3
4 -5 -3 0.17 0.23
4 -5 -3 0.39 0.25
4 -5 -3 0.54 0.34
-4 5 3 0.64 0.37
4 5 -3 0.46 0.13
-4 5 3 0.33 0.26
4 5 -3 0.13 0.27
3 -5 -3 0.43 0.28
3 -5 -3 0.34 0.34
3 -5 -3 0.19 0.46
3 -5 -3 0.09 0.25
3 -5 -3 0.26 0.24
3 -5 -3 0.35 0.32
-3 5 3 0.22 0.25
-3 5 3 0.19 0.18
-3 5 3 0.41 0.3
-3 5 3 0.49 0.27
-3 5 3 0.28 0.35
-3 5 3 0.21 0.15
2 -5 -3 5.84 0.87
2 -5 -3 5.98 0.85
2 -5 -3 5.99 0.6
2 -5 -3 5.39 0.62
2 -5 -3 6.23 0.92
-2 5 3 5.78 0.99
-2 5 3 5.82 0.68
-2 5 3 5.49 0.46
-2 5 3 5.55 0.56
1 -5 -3 43.68 2.32
1 -5 -3 46.53 1.84
1 -5 -3 44.61 1.92
-1 5 3 45.35 1.8
1 5 -3 43.78 1.78
1 5 -3 45.88 1.63
0 -5 3 6.21 0.76
0 -5 3 6.25 0.78
0 -5 3 6.14 0.65
0 5 3 6.23 0.57
0 5 -3 6.13 0.55
0 5 -3 5.8 0.53
1 -5 3 16.7 1.26
1 -5 3 17.06 1.37
1 -5 3 18.04 1.24
-1 5 -3 15.83 0.87
-1 5 -3 16.29 1.11
1 5 3 16.88 0.95
-1 5 -3 16.39 0.92
2 -5 3 10.89 1
2 -5 3 9.49 1.07
2 -5 3 10.27 0.82
2 -5 3 11.51 1.18
2 -5 3 10.35 1.17
-2 5 -3 10.07 0.73
-2 5 -3 8.95 0.93
-2 5 -3 9.99 0.72
-2 5 -3 10.32 0.64
-2 5 -3 9.92 0.79
-2 5 -3 9.83 0.62
3 -5 3 30.51 1.84
3 -5 3 30.74 1.63
3 -5 3 31.52 1.7
3 -5 3 29.78 2.12
3 -5 3 29.02 1.61
-3 5 -3 33.77 1.63
-3 5 -3 35.18 1.32
-3 5 -3 31.68 1.29
-3 5 -3 34.25 1.57
-3 5 -3 32.98 1.67
-3 5 -3 34.41 1.52
4 -5 3 18.99 1.17
4 -5 3 17.53 1.11
4 -5 3 15.88 1.56
4 -5 3 17.93 1.03
4 -5 3 16.19 1.07
4 -5 3 17.19 1.32
-4 5 -3 16.89 1.03
-4 5 -3 16.9 1.1
-4 5 -3 17.02 1.21
5 -5 3 9.97 0.63
5 -5 3 9.94 0.61
5 -5 3 10.15 0.74
5 -5 3 10.8 0.73
-5 5 -3 12.64 0.93
-5 5 -3 12.31 0.76
5 5 3 12.64 0.52
5 -6 -3 25.69 1
5 -6 -3 24.32 1.1
-5 6 3 25.64 1.13
4 -6 -3 30.74 1.81
4 -6 -3 33.1 1.73
4 -6 -3 34.96 1.48
4 -6 -3 35.05 1.53
-4 6 3 31.66 1.48
-4 6 3 34.87 1.6
3 -6 -3 40.19 1.8
3 -6 -3 39.45 1.97
3 -6 -3 39.55 1.7
3 -6 -3 39.69 2.09
3 -6 -3 39.04 2.34
3 -6 -3 41.48 1.91
-3 6 3 42.19 1.76
-3 6 3 41.31 1.51
-3 6 3 42.95 1.87
-3 6 3 41.1 1.5
2 -6 -3 46.86 2.7
2 -6 -3 48.61 2.58
2 -6 -3 48.39 2.09
2 -6 -3 47.8 2.17
-2 6 3 48.52 1.91
-2 6 3 48.09 2
-2 6 3 48.5 1.97
-2 6 3 49.45 1.77
-2 6 3 45.93 1.92
-2 6 3 48.15 1.74
1 -6 -3 14.64 1.33
1 -6 -3 14.77 1.41
1 -6 -3 16.38 1
1 -6 -3 15.63 1.06
-1 6 3 14.96 0.83
1 6 -3 15.38 0.71
1 6 -3 14.9 0.94
1 6 -3 15.6 1
-1 6 3 15.2 0.94
0 -6 -3 68.71 2.48
0 -6 -3 69.62 2.63
0 -6 3 63.16 3.16
0 -6 3 65.87 2.91
0 6 -3 69.43 2.58
0 6 -3 64.82 2.27
0 6 -3 65.88 2.49
0 6 3 67.54 2.51
0 6 -3 67.83 2.57
0 6 -3 66.99 1.98
1 -6 3 79.76 2.99
1 -6 3 80.02 3.71
1 -6 3 78.84 3.53
1 -6 3 71.57 3.63
-1 6 -3 81 2.96
-1 6 -3 83.71 2.65
-1 6 -3 79.98 2.44
1 6 3 83.9 2.92
-1 6 -3 82.22 2.89
-1 6 -3 82.82 3.23
-1 6 -3 82.01 2.78
2 -6 3 5.4 0.65
2 -6 3 5.1 0.95
2 -6 3 5.6 0.89
-2 6 -3 7 0.63
-2 6 -3 6.66 0.83
-2 6 -3 6.36 0.55
-2 6 -3 6.91 0.57
-2 6 -3 6.37 0.68
-2 6 -3 6.84 0.52
-2 6 -3 7.05 0.63
3 -6 3 25.16 1.54
3 -6 3 26.14 1.47
3 -6 3 25.58 1.38
3 -6 3 26.84 1.99
-3 6 -3 26.7 1.13
-3 6 -3 27.42 1.32
-3 6 -3 28.76 1.45
-3 6 -3 28.27 1.13
-3 6 -3 28.82 1.41
4 -6 3 12.11 0.8
4 -6 3 12.19 0.75
4 -6 3 11.78 0.83
4 -6 3 12.58 0.88
-4 6 -3 12.69 0.82
-4 6 -3 11.52 0.84
4 -7 -3 0.34 0.21
4 -7 -3 0.23 0.16
-4 7 3 0.22 0.14
3 -7 -3 1.52 0.38
3 -7 -3 1.43 0.31
3 -7 -3 1.49 0.31
3 -7 -3 1.13 0.34
-3 7 3 1.35 0.27
-3 7 3 1.56 0.24
-3 7 3 1.87 0.27
2 -7 -3 1.5 0.34
2 -7 -3 1.23 0.36
2 -7 -3 1.34 0.36
2 -7 -3 1.06 0.61
-2 7 3 1.14 0.25
-2 7 3 1.32 0.26
-2 7 3 1.24 0.25
-2 7 3 1.42 0.34
1 -7 -3 20.31 1.24
1 -7 -3 21.1 1.18
-1 7 3 20.29 1.11
1 7 -3 19.22 1.08
-1 7 3 19.37 0.91
1 7 -3 21.08 1.13
0 -7 3 9.09 1.09
0 -7 3 9.23 0.75
0 -7 -3 10.09 0.74
0 7 -3 7.95 0.7
0 7 -3 8.18 0.56
0 7 -3 7.82 0.7
0 7 3 7.58 0.67
1 -7 3 9.68 1.13
1 -7 3 9.56 0.79
-1 7 -3 10.86 0.83
1 7 3 11.09 0.79
-1 7 -3 11.46 0.8
2 -7 3 19.19 1.68
2 -7 3 15.95 1.12
2 -7 3 15.78 1.44
2 -7 3 15.46 1.03
-2 7 -3 15.6 0.78
-2 7 -3 15.24 0.97
-2 7 -3 15.47 0.79
-2 7 -3 14.88 0.77
-2 7 -3 14.93 0.91
3 -7 3 2.63 0.47
-3 7 -3 3.4 0.32
-3 7 -3 3.38 0.48
-3 7 -3 3.43 0.32
-3 7 -3 3.95 0.4
2 -8 -3 57.99 2.16
2 -8 -3 55.13 1.99
-2 8 3 57.39 2.11
-2 8 3 59.02 1.84
-2 8 3 54.35 1.82
1 -8 -3 11.72 0.79
1 -8 -3 11.12 0.73
1 8 -3 12.11 0.73
-1 8 3 12.15 0.75
-1 8 3 11.75 0.6
-1 8 3 12.2 0.62
0 -8 3 28.94 1.37
0 -8 -3 29.23 1.36
0 8 -3 30.42 1.3
0 8 3 29.71 1.32
0 8 -3 30.17 1.33
1 -8 3 24.19 1.6
1 8 3 26.62 1.21
-1 8 -3 26.51 1.21
-1 8 -3 27 1.04
-1 8 -3 26.19 1.2
-1 8 -3 26.45 1.03
2 -8 3 9.66 0.7
-2 8 -3 9.82 0.66
-2 8 -3 9.3 0.49
-2 8 -3 9.44 0.5
7 0 -4 6.6 0.48
-7 0 4 6.71 0.46
-6 0 4 36.47 1.71
6 0 -4 36.06 1.58
6 0 -4 35.95 1.48
6 0 -4 34.66 1.63
6 0 -4 35.57 1.92
6 0 -4 36.17 1.6
6 0 -4 36.17 1.45
5 0 -4 0.64 0.35
5 0 -4 0.9 0.32
5 0 -4 0.79 0.33
5 0 -4 0.54 0.25
5 0 -4 0.62 0.28
5 0 -4 0.74 0.33
5 0 -4 0.43 0.3
5 0 -4 0.6 0.2
5 0 -4 1.07 0.44
4 0 -4 4.18 0.57
4 0 -4 4.63 0.47
4 0 -4 3.53 0.63
3 0 -4 0.47 0.26
3 0 -4 0.69 0.22
-3 0 4 0.63 0.29
-2 0 4 10.86 0.8
2 0 -4 11.83 0.74
1 0 -4 139.75 4.28
-1 0 4 133.98 4.41
-1 0 4 141.95 4.34
-1 0 4 134.29 4.27
0 0 4 82.22 2.68
0 0 -4 81.19 2.81
0 0 4 81.09 2.82
0 0 -4 83.35 2.58
-1 0 -4 35.89 1.52
1 0 4 33.76 1.47
1 0 4 34.63 1.59
-1 0 -4 34.38 1.25
2 0 4 208.1 6.69
-2 0 -4 200.4 6.12
-3 0 -4 7.43 0.88
3 0 4 7.94 0.74
3 0 4 7.81 0.9
4 0 4 29.23 1.26
4 0 4 29.95 2.08
4 0 4 29.79 0.98
4 0 4 32.06 1.47
4 0 4 31.54 1.81
-5 0 -4 0.34 0.31
5 0 4 0.01 0.22
5 0 4 1.98 0.52
5 0 4 0.43 0.27
5 0 4 0.28 0.27
5 0 4 0.43 0.22
5 0 4 0.22 0.37
5 0 4 0.42 0.25
6 0 4 9.35 0.74
6 0 4 8.24 0.7
6 0 4 9.62 0.61
6 0 4 8.86 0.64
6 -1 -4 26.72 1.31
-6 -1 4 25.8 1.51
6 -1 -4 26.65 1.59
6 -1 -4 27.28 1.34
6 -1 -4 26.95 1.28
6 -1 -4 26.46 1.38
6 -1 -4 24.87 1.38
6 1 -4 25.44 1.35
6 1 -4 26.65 1.08
6 1 -4 27.72 1.33
6 1 -4 26.76 1.24
-6 1 4 25.29 1.33
6 1 -4 26.4 1.2
5 -1 -4 61.44 2.48
5 -1 -4 61.85 2.35
5 -1 -4 61.92 2.43
5 -1 -4 62.64 2.57
5 -1 -4 61.02 2.75
5 1 -4 64.6 2.86
-5 1 4 64.54 2.58
5 1 -4 60.73 2.32
5 1 -4 65.41 2.27
5 1 -4 61.56 2.5
5 1 -4 62.6 2.34
5 1 -4 63.2 2.59
5 1 -4 62.28 2.46
5 1 -4 62.84 2.24
-4 -1 4 68.11 3.04
4 -1 -4 68.83 2.24
4 -1 -4 69.11 2.58
4 -1 -4 69.01 2.86
4 -1 -4 68.94 2.81
4 1 -4 68.49 2.83
4 1 -4 70.04 2.42
3 -1 -4 125.61 4.28
3 -1 -4 127.27 4.18
3 -1 -4 126.5 4.22
-3 -1 4 127.37 4.45
3 1 -4 129.48 3.89
-3 1 4 125.53 4.55
3 1 -4 130.95 4.29
-2 -1 4 213.5 6.55
2 -1 -4 203.84 6.63
2 -1 -4 207.49 6.46
-2 1 4 223.16 6.75
-2 1 4 216.71 6.67
-1 -1 4 355.81 10.86
1 -1 -4 398.58 11.39
1 -1 -4 390.54 11.06
-1 1 4 383.24 11.04
1 1 -4 381.82 10.95
-1 1 4 372.04 11.04
1 1 -4 375.93 10.76
0 -1 4 218.22 6.35
0 -1 4 227.1 6.58
0 -1 4 220.1 6.45
0 -1 -4 228.91 6.61
0 1 4 209.79 6.54
0 1 -4 208.37 6.39
0 1 -4 207.85 6.43
0 1 -4 208.3 6.46
0 1 4 215.57 6.53
0 1 4 212.7 6.01
-1 -1 -4 196.32 6.14
1 -1 4 180.93 6.18
-1 -1 -4 203.88 5.51
1 -1 4 196.33 6.21
1 -1 4 198.87 6.18
1 1 4 205.89 6.31
-1 1 -4 206.2 6.17
1 1 4 202.17 6
-1 1 -4 206.65 6.01
2 -1 4 191.49 5.94
2 -1 4 211.62 6.52
2 1 4 178.92 6.29
-2 1 -4 187.44 6.16
-2 1 -4 186.95 5.94
3 -1 4 93.58 3.39
3 -1 4 95.15 4
-3 1 -4 85.78 3.5
-3 1 -4 87.61 3.39
3 1 4 88.99 3.76
3 1 4 85.9 3.28
4 -1 4 63.84 2.48
4 -1 4 54.61 2.98
4 -1 4 55.72 2.58
4 -1 4 54.14 1.82
4 -1 4 52.33 1.9
4 1 4 51.42 2.91
4 1 4 51.43 1.97
4 1 4 50.75 2.21
-4 1 -4 49.92 2.1
4 1 4 54.17 2.57
4 1 4 51.79 2.03
-4 1 -4 54.21 2.73
5 -1 4 18.34 1.12
-5 -1 -4 17.04 1.12
5 -1 4 18.64 1.21
5 -1 4 17.94 1.19
5 -1 4 17.08 1.2
5 -1 4 17.42 1.42
5 1 4 16.71 0.99
5 1 4 15.79 0.9
5 1 4 16.75 0.89
5 1 4 15.56 0.9
5 1 4 16.14 1.02
5 1 4 14.78 1.03
-5 1 -4 16.97 1.51
5 1 4 16.32 0.9
-5 1 -4 16.2 1.02
6 -1 4 24.37 1.23
6 -1 4 23.54 1.21
6 -1 4 24.46 1.21
6 -1 4 23 1.26
-6 -1 -4 23.78 1.19
6 1 4 26.02 1.23
6 1 4 27.08 1.31
-6 1 -4 25.49 1.2
6 1 4 26.52 1.04
6 -2 -4 30.93 1.21
6 -2 -4 31.7 1.51
6 -2 -4 31.25 1.52
6 -2 -4 31.09 1.46
6 -2 -4 29.82 1.38
-6 2 4 30.7 1.29
6 2 -4 31.27 1.44
6 2 -4 30.66 1.48
6 2 -4 30.19 1.3
5 -2 -4 2.69 0.64
5 -2 -4 1.75 0.44
5 -2 -4 2.11 0.46
5 -2 -4 2.35 0.71
5 -2 -4 2.38 0.3
5 -2 -4 1.82 0.31
5 -2 -4 2.25 0.5
5 2 -4 3.91 0.42
5 2 -4 3.68 0.59
5 2 -4 2.89 0.47
5 2 -4 3.5 0.34
5 2 -4 3.39 0.38
-5 2 4 2.65 0.52
4 -2 -4 7.92 0.8
4 -2 -4 7.83 0.74
-4 -2 4 7.86 0.86
4 -2 -4 7.76 0.78
4 -2 -4 8.56 0.57
4 -2 -4 8.3 0.86
4 2 -4 8.93 0.57
4 2 -4 10.15 0.94
4 2 -4 8.43 0.53
4 2 -4 9.59 0.8
3 -2 -4 46.76 1.94
-3 -2 4 49.63 2.1
3 -2 -4 45.45 2.05
3 -2 -4 45.16 1.95
3 2 -4 43.99 1.57
3 2 -4 42.45 1.91
3 2 -4 43.68 2.01
2 -2 -4 21.18 1.74
2 -2 -4 21.12 1.26
2 -2 -4 20.56 1.76
2 -2 -4 20.83 1.2
2 -2 -4 21.51 1.14
2 -2 -4 20.92 1.31
2 2 -4 21.96 0.84
-2 2 4 22.41 1.32
-2 2 4 22.3 1.3
1 -2 -4 14.89 0.99
1 -2 -4 15.2 1.31
1 2 -4 18.32 1.09
-1 2 4 16.14 0.99
-1 2 4 16.45 0.95
0 -2 4 21.93 1.06
0 -2 4 21.07 0.98
0 -2 -4 22 1.17
0 2 -4 21.83 1.04
0 2 -4 22 1.21
0 2 4 23.29 1.13
0 2 4 22.88 1.18
0 2 -4 26.41 1.11
1 -2 4 2.39 0.38
1 -2 4 2.42 0.49
-1 2 -4 2.38 0.37
-1 2 -4 2.29 0.38
-1 2 -4 2.41 0.31
1 2 4 2.26 0.24
-1 2 -4 2.04 0.33
2 -2 4 25.22 1.5
2 -2 4 23.74 1.3
2 -2 4 23.21 1.38
2 -2 4 24.55 1.52
-2 2 -4 25.12 1.29
-2 2 -4 25.29 1.46
-2 2 -4 25.32 1.38
3 -2 4 26.63 1.86
-3 -2 -4 22.38 1.2
3 -2 4 24.48 1.62
3 -2 4 24.25 1.44
-3 2 -4 21.36 1.44
-3 2 -4 22.89 1.44
4 -2 4 67.64 3.62
4 -2 4 65.5 2.56
4 -2 4 66.96 3.05
4 -2 4 67.35 2.35
4 2 4 70.27 2.3
4 2 4 69.75 2.63
4 2 4 72.01 2.43
-4 2 -4 72.6 3.18
4 2 4 69.03 2.32
5 -2 4 17.88 1.21
5 -2 4 19.27 1.13
5 -2 4 20.73 0.83
5 -2 4 17.59 1.43
5 -2 4 19.89 0.83
-5 2 -4 18.21 1.1
5 2 4 17.73 1.13
5 2 4 18.29 0.86
5 2 4 18.1 1.01
5 2 4 17.7 0.99
-5 2 -4 17.63 1.44
5 2 4 18.6 0.95
5 2 4 17.75 0.94
6 -2 4 11.41 0.52
6 -2 4 12.05 0.76
6 -2 4 12.33 0.86
-6 -2 -4 11.87 0.78
6 -2 4 12.5 0.84
6 2 4 10.93 0.79
-6 2 -4 11.34 0.71
6 2 4 10.84 0.7
6 -3 -4 36.25 1.5
6 -3 -4 38.29 1.64
6 -3 -4 37.56 1.49
6 -3 -4 36.63 1.71
6 3 -4 36.93 1.63
6 3 -4 37.28 1.6
6 3 -4 38.1 1.42
5 -3 -4 48.97 2.11
5 -3 -4 48.42 2
5 -3 -4 47.02 1.73
5 -3 -4 46.6 1.78
5 -3 -4 46.44 2.14
5 3 -4 48.42 1.77
5 3 -4 48.75 2.12
5 3 -4 46.41 2.02
-5 3 4 45.18 1.82
4 -3 -4 69.93 2.9
4 -3 -4 70.46 2.4
4 -3 -4 67.92 2.87
4 -3 -4 65.85 2.46
-4 -3 4 67.01 2.91
4 -3 -4 66.24 2.61
-4 3 4 66.19 2.42
4 3 -4 66.66 2.16
4 3 -4 65.51 2.24
-4 3 4 66.21 2.37
4 3 -4 65.05 2.66
4 3 -4 64.05 2.56
3 -3 -4 116.94 4.23
3 -3 -4 116.01 4.47
3 -3 -4 111.59 3.94
-3 3 4 108.11 3.53
3 3 -4 112.84 3.39
2 -3 -4 124.14 4.13
2 -3 -4 129.14 4.24
2 -3 -4 130.53 4.58
2 -3 -4 129.09 4.73
2 -3 -4 126.32 5.88
2 -3 -4 130.57 4.64
-2 3 4 133.27 4.79
-2 3 4 137.83 4.73
2 3 -4 135.64 3.84
1 -3 -4 138.73 5.89
-1 3 4 134.84 4.54
1 3 -4 143.5 4.97
1 3 -4 148.18 4.4
-1 3 4 138.62 4.79
0 -3 4 181.17 5.75
0 -3 -4 185.33 7.13
0 -3 4 179.87 5.54
0 3 4 186.93 5.83
0 3 -4 180.14 5.24
0 3 -4 187.83 6.11
0 3 4 183.23 5.39
0 3 -4 189.92 5.59
0 3 -4 175.53 5.26
1 -3 4 95.2 3.39
1 -3 4 92.24 3.47
1 -3 4 90.42 3.34
1 3 4 95.2 3.38
-1 3 -4 89.37 3.25
-1 3 -4 95.18 3.55
2 -3 4 205.02 6.15
2 -3 4 208.73 6.5
2 -3 4 207.19 6.75
2 -3 4 207.76 6.85
2 -3 4 199.41 6.74
-2 3 -4 183.18 6.03
-2 3 -4 202.29 6.54
-2 3 -4 187.94 6.61
3 -3 4 49.48 2.86
3 -3 4 50.99 2.68
3 -3 4 49.56 2.4
-3 3 -4 56.86 2.29
-3 3 -4 54.37 2.35
-3 3 -4 56.83 1.94
-3 3 -4 53.54 1.84
4 -3 4 44.73 2.68
4 -3 4 43.14 1.84
-4 -3 -4 43.9 1.99
4 -3 4 40.45 2
4 -3 4 40.87 2.88
4 -3 4 41.13 1.72
4 -3 4 44.63 2.34
4 3 4 46.42 1.48
-4 3 -4 48.21 1.79
4 3 4 47.66 1.63
4 3 4 48.22 2.01
-4 3 -4 45.57 2.23
5 -3 4 29 1.54
5 -3 4 28.35 1.79
5 -3 4 29.04 1.17
5 -3 4 30.03 1.23
5 3 4 26.72 1.43
5 3 4 28.61 1.26
5 3 4 26.82 1.04
-5 3 -4 28.58 1.28
6 -3 4 11.39 0.83
6 -3 4 10.9 0.74
-6 3 -4 11.1 0.59
6 3 4 11.73 0.76
6 3 4 12.66 0.65
6 -4 -4 4.79 0.75
6 -4 -4 5.94 0.52
6 4 -4 5.82 0.51
6 4 -4 6.93 0.54
6 4 -4 6.74 0.36
5 -4 -4 4.51 0.44
5 -4 -4 5.33 0.51
5 -4 -4 5.1 0.66
5 -4 -4 5.42 0.81
5 -4 -4 5.47 0.83
-5 4 4 5.38 0.7
5 4 -4 5.68 0.61
5 4 -4 4.72 0.61
5 4 -4 5.18 0.4
4 -4 -4 12.01 1.12
4 -4 -4 11.14 0.88
4 -4 -4 12.2 0.87
4 -4 -4 11.74 0.92
4 -4 -4 12.97 1.09
4 -4 -4 11.99 0.82
4 4 -4 13.03 0.64
-4 4 4 13.15 1.04
4 4 -4 12.82 0.94
4 4 -4 13.02 1.04
3 -4 -4 20.91 1.07
3 -4 -4 20.38 1.5
3 -4 -4 20.78 1.57
3 -4 -4 21.65 1.3
-3 4 4 18.61 1.17
3 4 -4 18.2 1.12
3 4 -4 18.3 0.82
-3 4 4 18.2 0.86
2 -4 -4 1.58 0.33
2 -4 -4 1.44 0.45
2 -4 -4 2.11 0.62
2 -4 -4 2.44 0.65
2 -4 -4 1.78 0.4
-2 4 4 2.18 0.45
-2 4 4 1.4 0.5
2 4 -4 1.96 0.24
1 -4 -4 11.79 0.74
1 -4 -4 12.57 1.67
1 -4 -4 12.24 0.8
1 4 -4 13.43 0.71
1 4 -4 12.72 1.15
-1 4 4 12.64 1.02
0 -4 4 14.72 1.07
0 -4 4 15.12 0.92
0 -4 -4 14.94 1.79
0 4 4 14.75 1.02
0 4 -4 14.99 1.26
0 4 -4 14.82 0.88
1 -4 4 2.63 0.59
1 -4 4 2.34 0.45
1 -4 4 2.7 0.62
-1 4 -4 2.35 0.6
-1 4 -4 2.38 0.49
1 4 4 1.84 0.4
-1 4 -4 2.05 0.31
2 -4 4 6.14 0.74
2 -4 4 6.35 0.62
2 -4 4 6.43 0.86
2 -4 4 6.69 0.89
2 -4 4 6.57 0.85
-2 4 -4 5.32 0.54
-2 4 -4 5.62 0.7
-2 4 -4 6.11 0.39
3 -4 4 25.03 1.83
3 -4 4 25.4 1.4
3 -4 4 26.04 1.65
3 -4 4 25.48 1.98
-3 4 -4 24.24 1.04
-3 4 -4 23.84 1.04
-3 4 -4 23.56 1.33
-3 4 -4 24.47 1.06
-3 4 -4 24.01 1.94
4 -4 4 11.23 1.11
4 -4 4 11.97 0.91
4 -4 4 12.56 1.41
4 -4 4 11.74 0.98
4 -4 4 11.08 0.81
4 -4 4 12.88 1.01
4 -4 4 11.34 0.82
-4 4 -4 13.68 0.74
-4 4 -4 13.48 1.02
-4 4 -4 13.14 0.99
5 -4 4 10.79 0.83
5 -4 4 10.23 0.62
5 -4 4 10.79 0.68
-5 4 -4 9.12 0.84
-5 4 -4 10.19 0.58
5 4 4 10.94 0.62
5 -5 -4 36.51 1.6
5 -5 -4 35.67 1.39
5 -5 -4 37.97 1.45
5 5 -4 36.11 1.14
5 5 -4 35.71 1.58
-5 5 4 35.48 1.75
4 -5 -4 31.19 1.53
4 -5 -4 30.96 1.54
4 -5 -4 31.64 1.5
4 -5 -4 31.56 1.77
4 -5 -4 31.57 1.91
4 5 -4 32.74 1.14
4 5 -4 35.22 1.81
-4 5 4 32.7 1.74
4 5 -4 32.02 1.6
3 -5 -4 74.91 3.14
3 -5 -4 76.2 3.12
3 -5 -4 77.12 2.8
3 -5 -4 74.44 2.9
3 -5 -4 83.41 3.64
3 -5 -4 82.89 3.7
3 -5 -4 74.35 3
-3 5 4 78.85 2.59
-3 5 4 82.22 2.98
-3 5 4 79.44 3.09
-3 5 4 78.09 2.57
3 5 -4 86.05 3.31
2 -5 -4 42.68 2.34
2 -5 -4 41.88 2.49
2 -5 -4 42.84 1.97
2 -5 -4 44.17 2.52
2 -5 -4 41.86 1.87
-2 5 4 41.82 1.75
-2 5 4 41.92 1.78
-2 5 4 42.91 1.57
-2 5 4 43.55 1.93
1 -5 -4 84.46 3.63
1 -5 -4 83.43 2.91
1 -5 -4 86.05 3.03
1 5 -4 80.17 2.82
-1 5 4 79.08 2.83
1 5 -4 77.37 2.69
-1 5 4 78.2 2.75
0 -5 4 102.63 3.89
0 -5 4 110.17 4.15
0 -5 -4 108.4 3.65
0 -5 4 105.53 4.18
0 -5 -4 100.39 4.16
0 5 -4 109.77 3.69
0 5 4 108.15 3.57
0 5 -4 113.1 3.57
1 -5 4 75.46 3.42
1 -5 4 76.11 3.25
1 -5 4 77.51 3.17
-1 5 -4 72.23 2.98
1 5 4 72.36 2.66
-1 5 -4 73.17 2.51
-1 5 -4 74.62 2.65
2 -5 4 128.16 4.65
2 -5 4 121.25 4.98
2 -5 4 124.61 4.23
2 -5 4 113.96 4.85
2 -5 4 122.08 5.05
-2 5 -4 123.14 4.09
-2 5 -4 121.82 3.97
-2 5 -4 120.09 4.06
-2 5 -4 120.86 3.79
-2 5 -4 125.63 3.98
-2 5 -4 118.87 4.11
-2 5 -4 121.03 3.77
-2 5 -4 115.03 3.78
-2 5 -4 119.5 4.61
3 -5 4 21.03 1.28
3 -5 4 18.86 1.71
3 -5 4 21.19 1.76
3 -5 4 20.45 1.48
-3 5 -4 18.51 1.19
-3 5 -4 19.23 1.1
-3 5 -4 18.85 1.15
-3 5 -4 19.34 0.92
-3 5 -4 18.74 1.23
-3 5 -4 19.65 0.93
4 -5 4 21.8 1.83
4 -5 4 24.38 1.34
4 -5 4 22.54 1.57
4 -5 4 24.31 1.2
4 -5 4 23.87 1.26
4 -5 4 22.94 1.28
-4 5 -4 23.79 1.25
-4 5 -4 24.64 1.44
-4 5 -4 24.22 1.3
5 -5 4 11.01 0.75
5 -5 4 11.57 0.64
5 -5 4 11 0.61
-5 5 -4 10.54 0.86
5 5 4 11.11 0.5
-5 5 -4 11.11 0.67
5 -6 -4 7.83 0.45
5 -6 -4 8.09 0.53
4 -6 -4 2.88 0.42
4 -6 -4 3.74 0.63
4 -6 -4 3.61 0.52
4 -6 -4 3.64 0.46
-4 6 4 4.86 0.57
-4 6 4 4.8 0.53
3 -6 -4 3.46 0.51
3 -6 -4 2.82 0.53
3 -6 -4 3.13 0.55
3 -6 -4 3.4 0.51
-3 6 4 2.76 0.49
-3 6 4 3.47 0.53
-3 6 4 3.75 0.38
-3 6 4 3.83 0.43
2 -6 -4 4.71 0.86
2 -6 -4 5.05 0.6
2 -6 -4 6.16 0.7
2 -6 -4 6.18 0.69
2 6 -4 5.06 0.35
-2 6 4 5.35 0.63
-2 6 4 4.34 0.55
-2 6 4 6.24 0.71
-2 6 4 4.79 0.47
2 6 -4 6.53 0.75
-2 6 4 4.64 0.44
1 -6 -4 22.11 1.3
1 -6 -4 22.15 1.23
1 -6 -4 19.61 1.69
1 -6 -4 21.77 1.71
1 6 -4 23.38 0.96
-1 6 4 22.27 1.18
-1 6 4 22.79 1.09
1 6 -4 22.84 1.25
1 6 -4 21.99 1.18
0 -6 -4 17.82 1.03
0 -6 4 17.82 1.33
0 -6 4 17.47 1.37
0 6 4 16.07 0.99
0 6 -4 18.66 1.13
0 6 -4 17.19 0.64
0 6 -4 18.13 0.9
0 6 -4 16.56 1.05
0 6 -4 17.6 1.03
1 -6 4 6.06 0.66
1 -6 4 6.58 0.99
1 -6 4 4.89 0.82
1 -6 4 5.84 0.83
1 -6 4 3.87 0.98
-1 6 -4 5.86 0.41
-1 6 -4 4.36 0.58
1 6 4 5.79 0.6
-1 6 -4 5.06 0.51
-1 6 -4 5.56 0.57
-1 6 -4 5.09 0.67
-1 6 -4 5.17 0.45
2 -6 4 4.24 0.58
2 -6 4 4.34 0.8
2 -6 4 3.71 0.86
2 -6 4 3.21 0.83
-2 6 -4 3.73 0.56
-2 6 -4 4.04 0.41
-2 6 -4 3.45 0.44
-2 6 -4 2.78 0.41
-2 6 -4 3.39 0.54
-2 6 -4 3.2 0.48
-2 6 -4 4.95 0.69
3 -6 4 4.64 0.74
3 -6 4 3.79 0.83
3 -6 4 4.88 0.66
3 -6 4 5.61 0.7
3 -6 4 4.97 0.85
-3 6 -4 3.68 0.54
-3 6 -4 4.31 0.4
-3 6 -4 4.7 0.59
-3 6 -4 4.56 0.52
-3 6 -4 5.43 0.44
4 -6 4 5.81 0.58
4 -6 4 5.29 0.56
4 -6 4 4.91 0.52
4 -6 4 5.04 0.43
-4 6 -4 5.32 0.55
-4 6 -4 5.19 0.58
4 6 4 4.73 0.24
4 -7 -4 16.77 0.81
4 -7 -4 17.09 0.83
-4 7 4 16.3 0.77
3 -7 -4 32.8 1.38
3 -7 -4 34.36 1.42
3 -7 -4 31.64 1.63
3 -7 -4 32.93 1.53
-3 7 4 33.12 1.2
-3 7 4 36 1.39
-3 7 4 35.18 1.23
2 -7 -4 21.1 1.09
2 -7 -4 21.7 1.21
2 -7 -4 20.67 1.25
2 -7 -4 21.03 1.26
-2 7 4 18.13 0.87
-2 7 4 18.93 0.89
-2 7 4 19.44 0.95
-2 7 4 17.97 1.04
1 -7 -4 52.41 2.22
1 -7 -4 53.02 2.15
1 7 -4 50.38 2.03
1 7 -4 49.69 2.05
-1 7 4 51.36 1.81
-1 7 4 48.92 2.01
-1 7 4 49.46 1.79
1 7 -4 52.01 1.74
0 -7 4 32.66 2.16
0 -7 -4 30.97 1.53
0 -7 4 33.26 1.6
0 7 -4 34.48 1.59
0 7 -4 34.18 1.55
0 7 4 35.37 1.55
0 7 -4 35.51 1.38
1 -7 4 63.18 3.21
1 -7 4 67.57 2.57
-1 7 -4 63.8 2.49
1 7 4 62.42 2.42
-1 7 -4 63.81 2.2
-1 7 -4 63.67 2.42
2 -7 4 34.13 1.78
2 -7 4 34.15 1.76
2 -7 4 35.7 1.72
2 -7 4 34.02 2.21
-2 7 -4 39.26 1.69
-2 7 -4 39.75 1.43
-2 7 -4 38.48 1.41
-2 7 -4 37.61 1.58
-2 7 -4 39.28 1.43
3 -7 4 16.92 0.98
-3 7 -4 17.12 0.72
-3 7 -4 16.56 0.7
-3 7 -4 16.85 0.94
-3 7 -4 16.72 0.83
2 -8 -4 3.48 0.45
2 -8 -4 3.88 0.39
-2 8 4 3.48 0.3
-2 8 4 3.44 0.3
1 -8 -4 2.1 0.39
-1 8 4 2.19 0.29
1 8 -4 2.36 0.38
-1 8 4 1.71 0.32
-1 8 4 2.38 0.29
0 8 4 0.97 0.27
0 8 -4 1.53 0.33
0 8 -4 1.35 0.3
-1 8 -4 14.18 0.67
-1 8 -4 13.34 0.79
-1 8 -4 12.58 0.79
-1 8 -4 12.81 0.64
1 8 4 13.66 0.79
2 -8 4 5.99 0.54
-2 8 -4 7 0.53
-2 8 -4 7.21 0.41
-2 8 -4 7.08 0.4
6 0 -5 18.47 1.01
6 0 -5 18.72 1.09
6 0 -5 16.79 1.03
6 0 -5 17.9 0.88
6 0 -5 17.44 0.92
-6 0 5 17.36 1.09
6 0 -5 16.72 1.01
5 0 -5 14.81 0.65
5 0 -5 16.34 1.25
5 0 -5 15.18 1
5 0 -5 15.26 1.03
5 0 -5 15.8 0.97
5 0 -5 15.73 1.12
5 0 -5 17.18 1.04
5 0 -5 15 1
4 0 -5 58.83 2.18
4 0 -5 61.39 2.58
4 0 -5 62.23 2.29
4 0 -5 56.04 2.5
3 0 -5 52.98 1.97
3 0 -5 55.37 2.21
3 0 -5 54.47 2.23
-3 0 5 56.22 2.52
2 0 -5 185.4 5.77
2 0 -5 179.01 5.48
-2 0 5 186.2 6
-1 0 5 63.88 2.49
1 0 -5 65.7 2.07
-1 0 5 65.46 2.43
1 0 -5 66.11 2.41
0 0 5 328.74 9.9
0 0 -5 334.47 9.9
0 0 5 350.05 9.71
0 0 5 325.85 9.92
1 0 5 214.69 6.62
1 0 5 206.49 6.61
-1 0 -5 215.06 6.19
-1 0 -5 210.25 6.63
-2 0 -5 99.83 3.31
2 0 5 101.49 3.84
3 0 5 109.79 4.35
3 0 5 105.95 3.89
4 0 5 186.77 5.86
4 0 5 183.45 5.19
4 0 5 178.81 5.83
4 0 5 185.38 5.54
-4 0 -5 184.99 5.87
4 0 5 184.21 5.76
4 0 5 180.89 6.83
4 0 5 190.95 6.44
5 0 5 97.51 3.51
5 0 5 98.89 3.38
5 0 5 90.71 3.92
5 0 5 99.06 3.53
5 0 5 95.61 3.12
5 0 5 95.3 3.44
5 0 5 106 4.68
-5 0 -5 96.64 3.42
6 0 5 13.89 0.72
6 0 5 14.76 0.91
6 0 5 14.31 0.81
6 -1 -5 26.28 1.33
6 -1 -5 26.2 1.23
6 -1 -5 26.63 1.28
-6 -1 5 27.3 1.41
6 -1 -5 25.41 1.27
-6 1 5 23.96 1.26
6 1 -5 24.79 1.25
6 1 -5 23.57 1.01
6 1 -5 22.79 1.12
6 1 -5 24.45 1.29
6 1 -5 24.46 1.2
5 -1 -5 124.75 4.1
5 -1 -5 123.11 4.34
5 -1 -5 122.81 4.23
5 -1 -5 126.15 4.23
5 -1 -5 121.11 4.34
5 -1 -5 121.18 4.56
5 1 -5 129.17 4.71
5 1 -5 127.49 4.01
5 1 -5 129.96 4.13
5 1 -5 126.3 4.29
5 1 -5 124.72 4.32
5 1 -5 124.92 3.99
-5 1 5 124.63 4.33
5 1 -5 125.04 4.23
5 1 -5 128.1 4.11
4 -1 -5 34 1.78
4 -1 -5 37.37 1.81
4 -1 -5 36.4 1.29
4 -1 -5 36.12 1.6
-4 -1 5 35.04 2.03
4 1 -5 31.64 1.74
4 1 -5 28.66 1.34
4 1 -5 30.68 1.74
4 1 -5 31.03 1.41
3 -1 -5 76.58 2.87
3 -1 -5 76.49 2.87
-3 -1 5 88.4 3.31
3 -1 -5 77.11 2.97
3 1 -5 77.54 2.61
3 1 -5 79.63 2.97
3 1 -5 77.75 2.94
-2 -1 5 1.61 0.38
2 -1 -5 1.72 0.4
2 1 -5 0.85 0.27
2 1 -5 0.45 0.17
2 1 -5 0.73 0.23
-2 1 5 1.11 0.36
-2 1 5 0.4 0.24
-1 -1 5 28.07 1.43
1 -1 -5 29.83 1.62
1 -1 -5 29.34 1.44
1 1 -5 30.12 1.28
-1 1 5 31.36 1.48
-1 1 5 31.2 1.5
0 -1 5 89.36 3.22
0 -1 5 93.7 3.13
0 -1 -5 92.12 3.31
0 -1 5 90.52 3.29
0 1 5 97.5 3.31
0 1 -5 91.65 3.13
0 1 -5 96.28 3.18
0 1 5 92.94 3.3
0 1 -5 94.3 3.22
1 -1 5 66.18 2.69
-1 -1 -5 69.51 2.72
1 -1 5 67.96 2.79
-1 1 -5 70.54 2.67
-1 1 -5 70.56 2.47
-1 1 -5 66.6 2.52
1 1 5 70.47 2.7
2 -1 5 27.84 1.44
2 -1 5 29.64 1.78
-2 1 -5 28.42 1.54
-2 1 -5 30.33 1.66
2 1 5 29.87 1.68
-2 1 -5 30.46 1.45
-3 -1 -5 4.7 0.54
3 -1 5 5.5 1.06
3 -1 5 4.23 0.6
3 1 5 5.66 0.8
-3 1 -5 4.23 0.71
-3 1 -5 4.62 0.61
4 -1 5 6.36 0.82
4 -1 5 6.82 0.67
4 -1 5 6.02 0.46
4 -1 5 5.98 0.97
4 -1 5 6.25 0.5
-4 1 -5 6.48 0.68
-4 1 -5 6.13 0.92
4 1 5 5.82 0.94
4 1 5 5.82 0.68
4 1 5 6.52 0.58
4 1 5 6.48 0.57
4 1 5 5.8 0.61
5 -1 5 30.73 1.96
5 -1 5 31.66 1.67
5 -1 5 31.6 1.68
5 -1 5 31.29 1.58
5 -1 5 27.09 1.64
-5 -1 -5 32.2 1.59
-5 1 -5 30.79 2.08
5 1 5 32.18 1.34
-5 1 -5 31.59 1.44
5 1 5 32.07 1.4
5 1 5 32.48 1.4
5 1 5 33.05 1.52
5 1 5 31.44 1.58
5 1 5 34.2 1.35
5 1 5 32.17 1.55
-6 -1 -5 0.04 0.17
6 -1 5 0.08 0.19
6 -1 5 -0.05 0.17
6 -1 5 0.06 0.17
6 -1 5 0.22 0.2
6 1 5 0.25 0.14
-6 1 -5 0.19 0.17
6 1 5 0.39 0.2
6 1 5 0.27 0.23
6 -2 -5 21.46 1.17
6 -2 -5 20.26 0.82
6 -2 -5 20.38 1.05
6 -2 -5 20.89 1.1
6 -2 -5 20.65 1.13
6 2 -5 19.14 1.09
6 2 -5 18.12 0.95
6 2 -5 17.82 1.03
-6 2 5 19.6 0.91
5 -2 -5 13.92 1.14
5 -2 -5 13.71 0.69
5 -2 -5 14.65 0.99
5 -2 -5 14.49 1.03
5 -2 -5 14.27 1.01
5 -2 -5 13.27 1.13
5 -2 -5 14.26 0.68
5 2 -5 15.49 1.05
5 2 -5 14.43 0.99
5 2 -5 15.37 1.1
5 2 -5 14.76 0.81
5 2 -5 15.01 0.85
5 2 -5 14.95 0.74
-5 2 5 15.36 0.99
-4 -2 5 63.95 3.03
4 -2 -5 67.9 2.88
4 -2 -5 66.03 2.75
4 -2 -5 66.7 2.64
4 -2 -5 65.09 2.29
4 -2 -5 70.94 2.73
4 2 -5 63.95 2.23
4 2 -5 70.54 2.34
4 2 -5 67.05 2.55
-3 -2 5 194.42 6.23
3 -2 -5 194.67 6.15
3 -2 -5 189.18 6.02
3 2 -5 173.98 6.01
3 2 -5 181.5 5.51
2 -2 -5 225.65 7.3
-2 -2 5 238.58 7.24
2 -2 -5 239.37 8.47
2 -2 -5 222.74 8.76
2 2 -5 237.25 6.77
-2 2 5 242.53 7.57
1 -2 -5 167.28 6.16
-1 -2 5 157.48 4.98
1 -2 -5 165.98 5.52
-1 2 5 164.53 5.32
1 2 -5 161.66 4.75
-1 2 5 164.03 5.41
1 2 -5 167.84 5.07
0 -2 5 177.19 5.43
0 -2 5 165.44 5.38
0 2 -5 175.63 5.42
0 2 -5 172.91 5.44
0 2 -5 178.53 5.66
0 2 5 175.04 5.7
1 -2 5 265.64 7.87
1 -2 5 244.29 7.65
1 -2 5 266.77 7.86
-1 2 -5 250.53 7.8
-1 2 -5 254.28 7.78
-1 2 -5 232.68 7.38
-1 2 -5 248.94 7.67
2 -2 5 109.87 4.1
2 -2 5 112.71 4
2 -2 5 115.6 4.42
-2 2 -5 110.66 3.95
-2 2 -5 120.19 4.13
-2 2 -5 115.79 4.27
-3 -2 -5 124.31 4.15
3 -2 5 128.61 4.56
3 -2 5 129.06 5.23
-3 2 -5 117.63 4.6
-3 2 -5 125.52 4.59
4 -2 5 47.1 2.04
4 -2 5 47.47 2.47
4 -2 5 46.09 2.89
4 -2 5 49.51 1.81
4 -2 5 48.23 1.88
4 -2 5 48.27 2.19
4 2 5 49.33 1.8
4 2 5 49.77 1.77
-4 2 -5 49.61 2.56
4 2 5 51.16 2.11
-5 -2 -5 43.59 2.18
5 -2 5 49.14 2.16
5 -2 5 48.58 2.53
5 -2 5 48.04 2.03
5 -2 5 47.49 1.52
5 -2 5 47.52 1.58
5 2 5 47.05 2.06
-5 2 -5 45.97 2.46
5 2 5 47.59 1.76
-5 2 -5 47.69 1.87
5 2 5 45.33 1.77
5 2 5 47.13 1.92
5 2 5 46.69 1.69
5 2 5 47.15 1.82
-5 2 -5 48.86 1.93
6 -2 5 12.49 0.83
-6 -2 -5 11.8 0.74
6 -2 5 12.53 0.75
6 -2 5 12.21 0.79
6 -2 5 11.25 0.87
6 2 5 12.29 0.8
6 2 5 11.77 0.72
-6 2 -5 12.74 0.72
6 -3 -5 42.05 1.68
6 -3 -5 39.66 1.74
6 -3 -5 39.37 1.51
6 3 -5 37.46 1.44
6 3 -5 40.13 1.65
6 3 -5 37.73 1.62
5 -3 -5 41.86 2
5 -3 -5 41.78 1.59
5 -3 -5 40.45 2.11
5 -3 -5 41.3 1.93
5 -3 -5 42.2 1.64
5 3 -5 46.06 1.98
5 3 -5 47.62 1.96
5 3 -5 45.25 1.66
4 -3 -5 44.35 2.18
4 -3 -5 46.25 1.72
4 -3 -5 43.18 2.13
4 -3 -5 42.99 1.79
4 -3 -5 41.62 1.9
-4 -3 5 43.94 2.28
-4 3 5 40.43 1.66
4 3 -5 41.75 1.94
4 3 -5 40.82 1.56
-4 3 5 40.05 1.68
4 3 -5 40.43 1.85
4 3 -5 41.24 1.5
4 3 -5 38.64 1.93
3 -3 -5 48.38 2.14
-3 -3 5 49.16 2.29
3 -3 -5 46.85 2.32
3 3 -5 51.07 1.67
-3 3 5 49.42 1.77
-3 3 5 39.78 2.31
2 -3 -5 42.6 2.17
2 -3 -5 39.38 1.95
2 -3 -5 40.06 1.66
2 -3 -5 40.03 1.99
2 -3 -5 39.24 1.99
2 -3 -5 40.61 1.73
2 -3 -5 40.44 2.95
2 3 -5 33.72 1.35
-1 -3 5 16.94 0.81
1 -3 -5 17.43 1.74
-1 3 5 13.44 1.06
1 3 -5 14.53 1.13
1 3 -5 13.22 0.84
0 -3 5 78.03 2.81
0 -3 5 82.05 2.95
0 -3 -5 79.26 4.15
0 3 -5 75.66 3.16
0 3 -5 76.32 2.79
0 3 -5 77.28 2.57
0 3 5 77.72 3.06
1 -3 5 31.5 1.66
1 -3 5 30.12 1.6
1 -3 5 32.2 1.73
-1 3 -5 31.53 1.77
1 3 5 34.01 1.7
-1 3 -5 33.68 1.63
2 -3 5 16.8 1.34
2 -3 5 15.93 1.3
2 -3 5 17.12 1.01
2 -3 5 17.14 1.21
2 -3 5 17.96 1.34
-2 3 -5 16.36 0.93
-2 3 -5 17.08 1.41
-2 3 -5 16.95 1
-2 3 -5 16.83 1.27
3 -3 5 22.38 1.47
3 -3 5 22.8 1.85
3 -3 5 23.56 1.71
-3 3 -5 21.64 0.92
-3 3 -5 19.43 1.29
-3 3 -5 20.8 1.01
-3 3 -5 19.89 1.28
3 3 5 20.21 0.88
4 -3 5 3.76 0.48
4 -3 5 3.59 0.57
-4 -3 -5 3.73 0.56
4 -3 5 4.25 0.83
4 -3 5 3.47 0.61
4 -3 5 3.54 1.12
4 3 5 3.16 0.35
-4 3 -5 4.3 0.52
4 3 5 2.86 0.5
-4 3 -5 4.28 0.63
4 3 5 3.54 0.31
5 -3 5 4.58 0.67
5 -3 5 4.81 0.4
5 -3 5 4.17 0.43
5 -3 5 4.85 0.86
-5 3 -5 4.85 0.49
5 3 5 4.48 0.59
5 3 5 4.46 0.36
5 3 5 5.56 0.71
5 3 5 5.25 0.49
-6 -3 -5 11.97 0.7
6 -3 5 12.44 0.83
6 -3 5 11.85 0.73
6 3 5 11.91 0.63
-6 3 -5 13.03 0.58
6 3 5 12.34 0.71
6 -4 -5 12.05 0.69
6 -4 -5 11.6 0.8
6 4 -5 11.45 0.67
6 4 -5 11.69 0.52
6 4 -5 12.24 0.74
5 -4 -5 23.53 1.05
5 -4 -5 22.88 1.39
5 -4 -5 22.66 1.45
5 -4 -5 23.09 1.09
5 4 -5 24.14 1.29
5 4 -5 23.74 1.27
5 4 -5 24.94 1.01
4 -4 -5 50.99 2.06
4 -4 -5 51.99 2.46
4 -4 -5 51.44 2.17
4 -4 -5 50.75 2.51
4 -4 -5 53.07 2.01
4 -4 -5 53.31 2.12
4 4 -5 49.73 2.22
-4 4 5 49.54 2.27
4 4 -5 50.05 1.78
4 4 -5 50.75 2.18
3 -4 -5 56.22 2.41
3 -4 -5 54.88 2.07
3 -4 -5 54.29 3.13
3 -4 -5 58.19 2.77
3 4 -5 52.82 1.97
-3 4 5 54.78 2.29
3 4 -5 51.58 2.22
-3 4 5 50.62 1.84
2 -4 -5 47.8 2.46
2 -4 -5 48.21 2.07
2 -4 -5 48.99 2.42
2 -4 -5 46.1 1.98
2 -4 -5 48.58 2.59
2 4 -5 48.78 1.85
1 -4 -5 70.82 2.61
1 -4 -5 69.88 4.39
1 -4 -5 73.82 2.69
1 4 -5 77.76 2.64
-1 4 5 76.58 3.19
1 4 -5 74.14 3.32
0 -4 -5 83.74 4.79
0 -4 -5 80.43 2.69
0 -4 5 77.54 3.17
0 -4 5 84.49 3.06
0 4 -5 76.39 2.9
0 4 -5 76.73 3.46
0 4 5 76.49 3.17
1 -4 5 106.32 4.18
1 -4 5 106.71 4.05
1 -4 5 111.55 4.02
-1 4 -5 101.07 3.3
-1 4 -5 106.37 3.87
2 -4 5 58.66 2.93
2 -4 5 61.84 2.36
2 -4 5 60.89 2.95
2 -4 5 55.96 2.87
2 -4 5 60.35 2.69
-2 4 -5 53.49 2.61
-2 4 -5 54.21 2.1
-2 4 -5 52.92 1.8
-2 4 -5 54.55 1.95
-2 4 -5 55.89 2.16
3 -4 5 162.3 6.21
3 -4 5 154.3 6.43
3 -4 5 164.38 5.82
-3 4 -5 167.82 4.87
-3 4 -5 167.4 4.88
-3 4 -5 159.01 4.85
-3 4 -5 163.39 5.32
-3 4 -5 155.73 5.26
4 -4 5 39.16 1.58
4 -4 5 37.08 1.71
4 -4 5 39.19 1.64
-4 -4 -5 39.55 1.81
4 -4 5 38.61 2.17
4 -4 5 39.44 2.45
4 -4 5 36.86 1.84
-4 4 -5 38.28 1.48
-4 4 -5 38.63 1.87
5 -4 5 55.28 1.95
5 -4 5 55.01 2.24
5 -4 5 57.37 1.93
-5 4 -5 56.51 1.8
5 4 5 57.51 1.97
-5 4 -5 53.82 2.29
5 -5 -5 12.11 0.65
5 -5 -5 11.45 0.67
5 -5 -5 10.93 0.74
-5 5 5 11.79 0.92
5 5 -5 11.9 0.81
5 5 -5 11.66 0.46
4 -5 -5 44.46 1.84
4 -5 -5 42.59 2.28
4 -5 -5 44.6 2.18
4 -5 -5 44.67 1.85
4 -5 -5 42.78 1.85
4 -5 -5 43.06 1.88
4 5 -5 44.22 1.51
4 5 -5 44.68 1.97
4 5 -5 44.16 1.98
-4 5 5 43.31 2.11
3 -5 -5 19.66 1.07
3 -5 -5 19.41 1.29
3 -5 -5 19.01 1.57
-3 5 5 18.59 1.29
-3 5 5 20.09 0.92
-3 5 5 19.83 1.28
3 5 -5 19.6 1.25
3 5 -5 19.21 0.82
-3 5 5 19.44 0.9
3 5 -5 18.56 1.25
3 5 -5 17.55 1.16
2 -5 -5 32.24 1.64
2 -5 -5 30.66 2.13
2 -5 -5 28.19 2.02
2 -5 -5 30.19 1.53
-2 5 5 31.04 1.43
-2 5 5 30.05 1.23
2 5 -5 30.99 1.02
-2 5 5 28.41 1.2
-2 5 5 30.81 1.45
2 5 -5 28.71 1.52
-2 5 5 28.28 1.55
2 5 -5 29.35 1.15
1 -5 -5 4.73 0.81
-1 -5 5 3.65 0.97
1 -5 -5 4.41 0.55
1 -5 -5 4.6 0.53
-1 5 5 4.35 0.55
1 5 -5 4.84 0.52
-1 5 5 4.46 0.5
1 5 -5 5 0.47
0 -5 -5 18.03 1.01
0 -5 5 18.68 1.43
0 -5 5 18.76 1.38
0 -5 5 18.96 1.29
0 5 5 18.62 0.96
0 5 -5 18 1.01
0 5 -5 18.73 1.13
0 5 5 18.99 1.04
0 5 -5 17.35 0.81
1 -5 5 2.46 0.68
1 -5 5 2.65 0.65
1 -5 5 2.47 0.62
-1 5 -5 2.41 0.52
-1 5 -5 4.12 0.47
-1 5 -5 4.19 0.43
-1 5 -5 4.06 0.56
1 5 5 3.51 0.55
2 -5 5 24.45 1.42
2 -5 5 26.86 1.75
2 -5 5 23.95 1.89
2 -5 5 24.34 1.88
-2 5 -5 25.92 1.12
-2 5 -5 25.77 1.35
-2 5 -5 24.76 1.26
-2 5 -5 24.94 1.14
-2 5 -5 26.19 1.27
-2 5 -5 26.6 1.73
-2 5 -5 25.33 1.13
-2 5 -5 24.96 1.37
3 -5 5 1.23 0.39
3 -5 5 0.78 0.43
3 -5 5 0.76 0.44
-3 5 -5 1.42 0.39
-3 5 -5 1.61 0.42
-3 5 -5 1.23 0.27
-3 5 -5 1.54 0.44
-3 5 -5 1.33 0.27
-3 5 -5 1.83 0.46
4 -5 5 0.29 0.24
4 -5 5 0.02 0.34
4 -5 5 0.61 0.33
4 -5 5 0.5 0.26
4 -5 5 0.83 0.27
4 -5 5 0.16 0.33
-4 -5 -5 0.02 0.25
4 -5 5 1.38 0.36
-4 5 -5 0.34 0.32
-4 5 -5 0.14 0.23
5 -5 5 0.53 0.16
5 -5 5 0.49 0.17
5 -5 5 0.5 0.21
-5 5 -5 0.11 0.26
5 5 5 0.32 0.1
4 -6 -5 38.62 1.63
4 -6 -5 37.95 1.88
4 -6 -5 39.17 1.5
4 -6 -5 40.32 1.65
-4 6 5 39.15 1.66
3 -6 -5 30.78 1.41
3 -6 -5 31.35 1.46
3 -6 -5 29.32 1.65
3 -6 -5 32.86 1.6
-3 6 5 31 1.22
-3 6 5 30.48 1.5
-3 6 5 31.07 1.46
-3 6 5 29.29 1.18
2 -6 -5 57.54 2.47
2 -6 -5 53.52 2.2
2 -6 -5 50.97 2.99
2 -6 -5 54.09 2.34
-2 6 5 58.03 1.98
-2 6 5 58.94 2.25
-2 6 5 57.36 1.99
2 6 -5 57.33 2.33
2 6 -5 57.48 1.88
-2 6 5 59.27 2.21
1 -6 -5 29.45 2.09
-1 -6 5 30.37 1.93
1 -6 -5 28.92 1.56
-1 -6 5 30.32 1.73
1 -6 -5 30.46 1.52
-1 6 5 31.29 1.37
-1 6 5 30.87 1.46
1 6 -5 30.49 1.24
1 6 -5 29.49 1.23
-1 6 5 31.48 1.27
1 6 -5 29.81 1.54
1 6 -5 29.43 1.43
0 -6 5 45.41 2.34
0 -6 5 45.25 2.33
0 -6 -5 46.86 1.89
0 6 -5 41.45 1.35
0 6 5 40.34 1.79
0 6 -5 42.59 1.67
0 6 -5 42.09 1.82
0 6 -5 39.07 1.88
0 6 -5 38.93 1.86
1 -6 5 28.27 1.86
1 -6 5 30.16 1.6
1 -6 5 30.42 2.15
1 -6 5 30.44 2.02
-1 6 -5 31.89 1.42
1 6 5 32.01 1.51
-1 6 -5 31.75 1.76
-1 6 -5 32.07 1.28
-1 6 -5 32.66 1.51
-1 6 -5 29.53 1.53
2 -6 5 88.71 3.29
2 -6 5 87.92 4.06
2 -6 5 86.43 3.62
2 -6 5 86.07 5.26
-2 6 -5 82.68 2.95
-2 6 -5 87.83 2.86
-2 6 -5 86.02 2.94
-2 6 -5 89.19 3.14
-2 6 -5 77.85 3.13
-2 6 -5 87.04 3.05
-2 6 -5 87.37 2.84
3 -6 5 56.2 2.76
3 -6 5 62.56 2.53
3 -6 5 61.38 3.22
-3 6 -5 62.94 2.42
-3 6 -5 63.9 2.46
-3 6 -5 65.7 2.12
-3 6 -5 64.77 2.36
-3 6 -5 65.79 2.11
4 -6 5 24.4 1.14
4 -6 5 25.58 1.2
4 -6 5 25.53 1.17
4 6 5 24.53 0.83
-4 6 -5 22.09 1.16
-4 6 -5 23.84 1.17
3 -7 -5 8.09 0.58
3 -7 -5 8.83 0.69
3 -7 -5 8.33 0.59
-3 7 5 6.87 0.43
-3 7 5 6.85 0.43
-3 7 5 7.74 0.55
2 -7 -5 13.09 0.97
2 -7 -5 13.39 0.99
2 -7 -5 13.78 0.85
2 -7 -5 13.16 0.93
-2 7 5 13.37 0.69
-2 7 5 13.47 0.75
-2 7 5 13.74 0.69
-2 7 5 13.08 0.85
2 7 -5 12.27 0.85
1 -7 -5 12.23 0.95
1 -7 -5 12.58 0.89
-1 7 5 12.28 0.68
1 7 -5 11.33 0.61
1 7 -5 11.16 0.85
-1 7 5 11.41 0.69
-1 7 5 11.89 0.83
1 7 -5 13.12 0.86
0 -7 -5 4.53 0.54
0 -7 5 4.46 0.91
0 -7 5 3.86 0.54
0 7 -5 4.22 0.59
0 7 -5 3.79 0.4
0 7 -5 3.89 0.54
0 7 5 3.94 0.53
1 -7 5 7.17 0.7
1 -7 5 6.8 1.02
-1 -7 -5 6.76 0.65
-1 7 -5 6.48 0.67
-1 7 -5 6.34 0.51
1 7 5 6.73 0.64
-1 7 -5 6.7 0.57
-1 7 -5 6.26 0.54
-1 7 -5 6.74 0.62
2 -7 5 17.55 1.18
2 -7 5 17.08 1.09
2 -7 5 16.19 1.12
-2 7 -5 17.28 0.81
-2 7 -5 17.82 0.84
-2 7 -5 18.19 1.06
-2 7 -5 17.33 0.97
-2 7 -5 19.02 0.85
3 -7 5 0.44 0.22
3 -7 5 0.61 0.22
-3 7 -5 0.55 0.15
-3 7 -5 0.59 0.14
-3 7 -5 0.48 0.16
-3 7 -5 0.43 0.21
2 -8 -5 19.18 0.9
2 -8 -5 19.71 1.02
-2 8 5 18.66 0.76
-2 8 5 19.56 0.76
1 -8 -5 16.34 0.86
-1 8 5 15.25 0.69
1 8 -5 14.88 0.81
1 8 -5 13.32 0.79
-1 8 5 14.66 0.83
-1 8 5 14.73 0.68
0 8 5 22.36 1.09
0 8 -5 21.51 1.08
0 8 -5 23.13 1.1
0 8 5 23.76 0.94
0 8 5 22.61 0.92
1 8 5 9.69 0.65
-1 8 -5 10.43 0.68
-1 8 -5 10.77 0.56
-1 8 -5 10.06 0.55
-1 8 -5 10.93 0.69
2 -8 5 40.41 1.59
-2 8 -5 40.56 1.31
-2 8 -5 39.55 1.5
6 0 -6 30.69 1.78
6 0 -6 31.3 1.47
6 0 -6 32.68 1.27
6 0 -6 30.97 1.46
6 0 -6 32.69 1.36
-6 0 6 32.75 1.56
5 0 -6 55.05 2.55
5 0 -6 55.9 2.24
5 0 -6 53.53 2.2
-5 0 6 54.78 2.38
5 0 -6 51.46 2.28
5 0 -6 56.36 2.16
5 0 -6 56.17 2.26
5 0 -6 53.13 2.23
4 0 -6 271.58 8.33
4 0 -6 279.38 8.71
4 0 -6 277.61 8.77
4 0 -6 281.66 8.3
4 0 -6 289.4 8.44
-3 0 6 77.26 3.32
3 0 -6 77.18 2.88
3 0 -6 76.84 2.67
3 0 -6 76.22 2.9
2 0 -6 394.36 11.25
-2 0 6 395.74 11.89
2 0 -6 397.64 11.37
2 0 -6 385.83 11.62
1 0 -6 38.2 1.73
1 0 -6 37.64 1.59
-1 0 6 38.44 1.78
0 0 6 45.84 1.81
0 0 6 49.1 2.06
0 0 6 46.47 2.06
0 0 -6 47.5 2.03
0 0 6 44.53 1.96
-1 0 -6 186.69 5.51
1 0 6 185.48 5.93
-1 0 -6 178.8 6.04
2 0 6 126.49 4.3
2 0 6 132.39 4.74
3 0 6 14.18 1.11
3 0 6 14.34 1.27
3 0 6 13.61 0.65
4 0 6 29.27 1.49
-4 0 -6 27.57 1.41
4 0 6 28.6 1.79
4 0 6 28.06 1.22
4 0 6 29.37 2.07
4 0 6 28.81 1.21
4 0 6 27.57 1.52
4 0 6 28.98 1.44
5 0 6 0.39 0.34
5 0 6 0.34 0.25
5 0 6 0.44 0.29
5 0 6 0.46 0.29
-5 0 -6 0.34 0.27
6 0 6 0.75 0.17
6 0 6 0.67 0.21
6 0 6 0.71 0.24
-6 -1 6 6.27 0.7
6 -1 -6 7.7 0.64
6 -1 -6 7.33 0.65
6 -1 -6 7.6 0.62
6 -1 -6 6.88 0.66
6 1 -6 8.55 0.7
6 1 -6 8.69 0.71
-6 1 6 8.63 0.68
6 1 -6 7.69 0.48
6 1 -6 8.22 0.79
6 1 -6 7.98 0.62
6 1 -6 8.33 0.67
5 -1 -6 9.13 0.77
5 -1 -6 8.95 0.92
5 -1 -6 7.92 0.81
5 -1 -6 8.5 0.68
5 -1 -6 8.55 0.77
5 -1 -6 8.88 0.86
5 -1 -6 8.77 0.98
-5 1 6 6.14 0.73
5 1 -6 8.03 0.74
5 1 -6 7.29 0.64
5 1 -6 7.66 0.61
5 1 -6 6.82 0.58
5 1 -6 7.67 0.77
5 1 -6 7.35 0.64
5 1 -6 7.4 0.73
4 -1 -6 15.32 0.73
-4 -1 6 15.74 1.36
4 -1 -6 15.06 0.99
4 -1 -6 15.56 1.13
4 -1 -6 15.59 1.11
4 1 -6 13.1 0.81
4 1 -6 12.81 0.97
4 1 -6 14.36 0.87
4 1 -6 14.24 1.13
4 1 -6 13.99 1.08
3 -1 -6 27.24 1.38
-3 -1 6 28.41 1.7
3 -1 -6 27.1 1.48
3 -1 -6 26.54 1.36
3 1 -6 26.39 1.17
3 1 -6 25.9 1.1
3 1 -6 26.97 1.44
3 1 -6 26.48 1.39
2 -1 -6 2.37 0.49
-2 -1 6 2.79 0.47
2 -1 -6 2.43 0.47
1 -1 -6 349.71 10.37
-1 -1 6 346.65 10.32
1 -1 -6 343.1 10.6
-1 1 6 299.22 10.26
-1 1 6 369.39 10.46
1 1 -6 344.32 10.06
0 -1 -6 221.91 6.89
0 -1 6 217.2 6.95
0 -1 6 219.97 6.66
0 1 -6 215.11 6.72
0 1 -6 219.13 6.62
0 1 -6 215.18 6.63
0 1 -6 197.9 6.49
0 1 6 218.01 6.86
-1 1 -6 8.32 0.75
-1 1 -6 8.78 0.69
-1 1 -6 8.96 0.81
1 1 6 8.71 0.77
-1 1 -6 8.58 0.75
2 -1 6 137.14 4.77
2 -1 6 140.88 5.25
-2 1 -6 139.97 4.96
2 1 6 146.03 5.11
-2 1 -6 146.25 4.75
3 -1 6 59.85 2.64
3 -1 6 58.12 2.98
-3 -1 -6 57.36 2.29
3 -1 6 58.87 2.01
3 1 6 59.13 2.9
-3 1 -6 56.92 2.78
4 -1 6 61.27 2.08
-4 -1 -6 59.27 2.42
4 -1 6 60.09 2.11
4 -1 6 61.46 2.47
4 -1 6 60.08 2.54
4 -1 6 61.79 2.06
4 -1 6 59.27 3.2
4 -1 6 62.54 2.9
4 1 6 63.16 2.51
4 1 6 60.94 2.29
4 1 6 58.29 3.17
-4 1 -6 61.52 2.32
4 1 6 59.39 2.36
4 1 6 63.1 2.16
4 1 6 60.46 2.19
-4 1 -6 63.9 3.13
-5 -1 -6 54.75 2.2
5 -1 6 56.48 2.41
5 -1 6 50.14 2.6
5 -1 6 54.48 2.29
5 -1 6 54.53 2.31
5 1 6 53.03 1.93
5 1 6 55.24 2.25
-5 1 -6 52.1 2.81
5 1 6 57.99 2.34
5 1 6 53.97 1.92
5 1 6 56.66 2.07
5 1 6 55.03 2.21
5 1 6 54.71 2.06
-5 1 -6 55.5 2.02
6 -1 6 51.73 1.89
6 -1 6 52.62 1.92
-6 -1 -6 51.45 1.82
6 -1 6 52.9 1.98
-6 1 -6 48.41 1.63
6 1 6 51.15 2.01
6 1 6 51.33 1.69
6 -2 -6 37.51 1.63
6 -2 -6 38.74 1.7
6 -2 -6 39.34 1.57
6 -2 -6 36.05 1.6
6 2 -6 37.81 1.64
6 2 -6 38.35 1.63
6 2 -6 36.99 1.5
5 -2 -6 70.09 2.18
5 -2 -6 69.63 2.9
5 -2 -6 71.48 2.75
5 -2 -6 72.31 2.64
5 -2 -6 70.37 2.93
5 -2 -6 70.86 2.19
5 -2 -6 72.89 2.72
-5 2 6 64.06 2.58
5 2 -6 66.4 2.26
5 2 -6 69.22 2.68
5 2 -6 70.76 2.71
5 2 -6 67.13 2.41
5 2 -6 69.08 2.72
5 2 -6 67.82 2.48
4 -2 -6 132.54 4.73
4 -2 -6 137.51 4.58
4 -2 -6 137.84 4.98
4 -2 -6 144.02 4.81
-4 -2 6 132.07 5.27
4 -2 -6 134.07 4.41
4 -2 -6 136.08 4.3
4 2 -6 145.63 4.44
4 2 -6 143.83 4.93
4 2 -6 141.97 4.3
4 2 -6 141.1 4.37
-4 2 6 141.2 4.64
4 2 -6 132.7 4.71
4 2 -6 140.55 4.62
4 2 -6 143.84 4.16
3 -2 -6 69.82 2.81
3 -2 -6 68.28 2.71
-3 -2 6 69.63 2.91
3 2 -6 59.71 2.64
3 2 -6 59.83 2.22
2 -2 -6 119.02 3.94
2 -2 -6 112.8 4.14
-2 -2 6 117.43 4.2
2 2 -6 118.31 4.02
2 2 -6 118.49 3.65
-1 -2 6 117.31 3.85
1 2 -6 103.3 3.36
1 2 -6 106.64 3.43
1 2 -6 106.51 3.65
-1 2 6 110.4 4.04
0 -2 6 14.74 0.91
0 -2 6 14.3 0.97
0 2 -6 12.27 0.84
0 2 6 12.36 0.99
0 2 -6 11.84 0.84
0 2 -6 12.08 0.93
1 -2 6 89.69 3.23
1 -2 6 91.12 3.54
1 -2 6 92.09 3.48
-1 2 -6 87.13 3.42
-1 2 -6 85.3 3.03
-1 2 -6 90.35 3.33
1 2 6 90.41 3.43
-1 2 -6 89 3.38
2 -2 6 63.28 2.63
2 -2 6 61.76 2.98
-2 -2 -6 60.83 2.39
-2 2 -6 63.86 2.62
-2 2 -6 65.25 2.72
-3 -2 -6 90.68 3.17
3 -2 6 89.79 2.94
3 -2 6 88.45 4.18
3 -2 6 86.27 3.54
-3 2 -6 88.5 3.6
-3 2 -6 83.42 2.95
4 -2 6 45.24 2.86
4 -2 6 50.79 1.96
4 -2 6 53.19 2.65
4 -2 6 51.41 2.28
4 -2 6 49.99 2.16
4 -2 6 50.22 1.87
4 2 6 51.75 1.87
-4 2 -6 53.54 2.69
4 2 6 51.5 1.9
-4 2 -6 50.91 2.04
4 2 6 51.6 2.21
5 -2 6 10.03 0.86
5 -2 6 11.35 1.07
5 -2 6 11.2 0.84
5 -2 6 10.63 0.46
5 -2 6 8.9 1.01
-5 -2 -6 10.98 0.83
5 2 6 9.59 0.83
-5 2 -6 9.13 0.75
-5 2 -6 9.88 0.63
5 2 6 9.54 0.67
5 2 6 9.04 0.72
-5 2 -6 9.41 0.97
5 2 6 9.42 0.61
5 2 6 10.05 0.59
5 2 6 9.21 0.63
6 -2 6 0.41 0.24
-6 -2 -6 0.41 0.19
6 -2 6 0.89 0.26
6 -2 6 0.67 0.23
6 -2 6 0.46 0.22
6 2 6 0.22 0.15
-6 2 -6 0.41 0.17
6 2 6 0.53 0.22
6 -3 -6 10.1 0.59
6 -3 -6 9.35 0.69
6 -3 -6 9.63 0.78
6 3 -6 11.43 0.6
6 3 -6 11.58 0.72
6 3 -6 11.81 0.73
5 -3 -6 5.24 0.67
5 -3 -6 5.8 0.84
5 -3 -6 4.9 0.68
5 -3 -6 5.43 0.44
5 -3 -6 4.86 0.46
5 3 -6 4.09 0.43
5 3 -6 4.68 0.62
5 3 -6 4.87 0.66
5 3 -6 3.91 0.59
4 -3 -6 0.14 0.21
4 -3 -6 0.22 0.3
4 -3 -6 0.34 0.33
4 -3 -6 -0.08 0.24
-4 -3 6 0.32 0.33
4 -3 -6 0.44 0.31
4 3 -6 0.59 0.32
4 3 -6 0.83 0.39
4 3 -6 0.28 0.23
4 3 -6 0.54 0.2
4 3 -6 0.66 0.2
4 3 -6 0.53 0.15
3 -3 -6 43.11 2.02
3 -3 -6 43.22 2.21
-3 -3 6 43.17 2.14
3 3 -6 42.99 1.53
-3 3 6 38.67 2.11
3 3 -6 39.01 1.61
-3 3 6 40.56 1.48
2 -3 -6 50.53 2.54
2 -3 -6 46.1 1.94
-2 -3 6 48.17 2.14
2 -3 -6 50.85 2.38
2 -3 -6 49.31 2.05
2 3 -6 45.21 1.68
2 3 -6 47.32 1.96
1 -3 -6 87.4 4.54
1 -3 -6 81.43 2.89
1 -3 -6 86.15 2.95
-1 -3 6 84.88 3.06
1 3 -6 83.2 3.02
-1 3 6 85.45 3.5
0 -3 6 75.99 2.95
0 -3 6 77.43 2.95
0 3 -6 75.12 2.89
0 3 -6 78.07 3.22
0 3 6 72.53 3.15
1 -3 6 51.76 2.32
1 -3 6 52.03 2.46
1 -3 6 54.85 2.51
-1 3 -6 54.02 2.58
-1 3 -6 55.94 2.41
1 3 6 54.15 2.47
2 -3 6 47.31 2.59
2 -3 6 46.63 2.54
2 -3 6 47.74 2.27
2 -3 6 48.6 2.43
-2 -3 -6 42.71 1.9
2 -3 6 44.76 1.92
-2 3 -6 44.15 1.63
-2 3 -6 45 3.06
-2 3 -6 45.09 1.78
-2 3 -6 45.51 1.93
-3 -3 -6 93.78 3.24
3 -3 6 92.94 4.3
3 -3 6 91.72 3.68
3 -3 6 94.48 3.24
-3 3 -6 82.79 3.27
-3 3 -6 81.45 2.7
-3 3 -6 83.43 3.29
-3 3 -6 80.69 2.87
3 3 6 83.49 2.76
4 -3 6 75.75 3
4 -3 6 72.77 2.72
4 -3 6 74.78 2.86
4 -3 6 77.44 3.38
4 -3 6 73.22 2.63
4 3 6 77.3 2.58
-4 3 -6 74.64 2.93
4 3 6 77.13 2.41
-4 3 -6 76.6 2.67
-4 3 -6 78.87 3.16
5 -3 6 28.58 1.13
5 -3 6 27.52 1.88
5 -3 6 28.37 1.13
5 -3 6 27.91 1.48
5 -3 6 28.77 1.53
5 3 6 32.13 1.23
5 3 6 33.79 1.4
5 3 6 32.01 1.14
5 3 6 32.64 1.54
-5 3 -6 32.18 1.31
5 3 6 31.73 1.25
6 -3 6 52.13 1.85
-6 -3 -6 54.54 1.85
6 -3 6 57.1 2.03
6 -4 -6 29.84 1.21
6 4 -6 29.45 0.98
6 4 -6 28.99 1.17
6 4 -6 28.64 1.22
5 -4 -6 54.24 2.39
5 -4 -6 56.77 1.96
5 -4 -6 56.65 1.92
5 -4 -6 53.83 2.18
5 -4 -6 53.23 2.3
5 4 -6 52.28 1.86
5 4 -6 53.84 2.17
5 4 -6 53.69 2.19
4 -4 -6 51.39 2.21
4 -4 -6 49.2 2.44
4 -4 -6 52.25 2.04
4 -4 -6 49.71 2.53
4 -4 -6 52.82 2.14
4 -4 -6 52.61 2.05
-4 -4 6 51.12 2.62
4 4 -6 54 2.3
4 4 -6 59.11 2.32
4 4 -6 55.3 2.28
4 4 -6 55.02 1.88
3 -4 -6 161.4 5.28
3 -4 -6 161.01 5.16
3 -4 -6 164.44 5.04
3 -4 -6 166.39 5.91
3 -4 -6 167.53 5.5
-3 4 6 148.21 4.76
3 4 -6 156.37 5.27
3 4 -6 151.94 5.21
3 4 -6 162.61 5.02
-3 4 6 156.59 4.75
3 4 -6 156.16 4.76
3 4 -6 158.38 5.24
2 -4 -6 74.97 3.53
2 -4 -6 74.16 2.87
2 -4 -6 74.93 2.79
-2 4 6 72.25 2.4
2 4 -6 72.42 2.71
-2 4 6 72.22 2.65
1 -4 -6 87.52 3.05
1 -4 -6 87.05 3.1
-1 -4 6 92.72 3.25
-1 4 6 78.87 3.62
1 4 -6 82.26 3.09
0 -4 -6 39.42 1.64
0 -4 -6 45.64 5.03
0 -4 6 40.27 1.98
0 -4 6 41.34 2.09
0 4 -6 34.8 1.79
0 4 6 39.29 2.35
1 -4 6 42.35 2.29
-1 -4 -6 40.91 1.74
1 -4 6 42.98 2.27
1 -4 6 42.3 2.1
-1 4 -6 42.72 2.09
-1 4 -6 42.94 1.73
1 4 6 39.72 1.86
-1 4 -6 41.94 1.56
2 -4 6 19.53 1.17
2 -4 6 20.97 1.46
2 -4 6 19.72 1.64
2 -4 6 19.04 1.6
2 -4 6 18.97 1.55
-2 4 -6 17.87 1.05
-2 4 -6 19.5 1.06
-2 4 -6 18.25 0.76
-2 4 -6 19.22 1.45
-2 4 -6 18.26 1.1
-2 4 -6 18.48 0.91
-3 -4 -6 57.51 2.39
3 -4 6 58.18 3.01
3 -4 6 61.2 2.86
3 -4 6 55.62 3.28
3 -4 6 57.89 2.4
-3 4 -6 55.54 1.95
-3 4 -6 59.26 2.41
-3 4 -6 56.88 1.95
-3 4 -6 44.2 3.26
-3 4 -6 59.31 1.98
3 4 6 59.13 1.74
4 -4 6 0.54 0.31
-4 -4 -6 0.46 0.26
4 -4 6 0.77 0.29
4 -4 6 0.89 0.36
4 -4 6 0.42 0.39
4 4 6 1.01 0.17
-4 4 -6 0.99 0.23
-4 4 -6 0.66 0.34
5 -4 6 9.68 0.71
5 -4 6 9.84 0.52
5 -4 6 9.74 0.54
-5 4 -6 9.44 0.8
5 4 6 7 0.61
5 4 6 8.84 0.57
-5 4 -6 8.93 0.38
5 4 6 9.81 0.57
5 -5 -6 4.36 0.38
5 -5 -6 4.81 0.48
5 -5 -6 4.42 0.4
5 5 -6 5.48 0.53
5 5 -6 5.13 0.26
-5 5 6 5.19 0.62
4 -5 -6 8.3 0.66
4 -5 -6 8.3 0.66
4 -5 -6 8.95 0.74
4 -5 -6 8.56 0.97
4 -5 -6 8.91 0.76
4 -5 -6 8.26 0.87
4 5 -6 6.55 0.43
4 5 -6 5.06 1.06
-4 5 6 5.13 0.73
4 5 -6 6.03 0.7
3 -5 -6 30.28 2.01
3 -5 -6 29.28 1.41
3 -5 -6 28.61 1.67
3 -5 -6 30.36 1.49
3 5 -6 32.68 1.64
-3 5 6 28.17 1.21
3 5 -6 29.33 1.58
-3 5 6 30.57 1.68
3 5 -6 30.84 1.18
-3 5 6 31.08 1.21
2 -5 -6 56.63 2.34
2 -5 -6 53.53 2.38
2 -5 -6 46.58 2.74
2 -5 -6 56.47 3.14
2 -5 -6 52 2.15
-2 5 6 58.95 1.96
2 5 -6 56.03 2.36
-2 5 6 57.01 2.21
-2 5 6 53.84 2.2
-2 5 6 56.07 1.97
2 5 -6 55.44 1.91
-2 5 6 53.91 2.31
2 5 -6 56.03 1.91
1 -5 -6 15.83 1.49
1 -5 -6 17.78 1.15
-1 -5 6 16.1 1.21
1 -5 -6 16.84 1.08
1 5 -6 19.91 1.07
1 5 -6 19.09 0.63
-1 5 6 19.12 1.06
1 5 -6 19.93 1.08
-1 5 6 18.93 1.05
-1 5 6 19.44 0.9
0 -5 6 20.86 1.45
0 -5 -6 21 1.14
0 -5 6 20.14 1.46
0 5 6 18.26 1.07
0 5 -6 19.43 1.09
0 5 -6 19.32 1.22
0 5 -6 17.87 0.87
1 -5 6 55.17 2.68
1 -5 6 55.21 2.93
-1 -5 -6 59.22 2.25
1 -5 6 56.22 2.89
-1 5 -6 58.55 2.14
1 5 6 56.83 2.25
-1 5 -6 55.5 2.09
-1 5 -6 56.51 2.22
-1 5 -6 58.55 2.22
-1 5 -6 57.02 2.61
-1 5 -6 54.65 2.32
2 -5 6 18.63 1.49
2 -5 6 17.95 1.63
2 -5 6 19.66 1.27
2 -5 6 18.55 1.72
2 -5 6 18.5 1.71
-2 5 -6 20.75 1.58
-2 5 -6 21.92 1.25
-2 5 -6 22.95 1.01
-2 5 -6 20.96 1.15
-2 5 -6 22.81 1.02
-2 5 -6 24.26 1.06
-2 5 -6 21.93 1.16
-2 5 -6 22.26 1.24
2 5 6 24.04 1.56
-3 -5 -6 41.99 2.56
3 -5 6 40.09 1.86
3 -5 6 40.46 2.45
3 -5 6 39.83 2.24
-3 5 -6 38.02 1.42
-3 5 -6 35.38 1.63
-3 5 -6 36.98 1.86
-3 5 -6 39.06 1.78
-3 5 -6 36.78 1.42
-3 5 -6 36.86 1.75
4 -5 6 58.59 2.33
4 -5 6 56.89 2.14
-4 -5 -6 56.04 2.22
4 -5 6 57.92 2.21
-4 5 -6 56.89 2.11
-4 5 -6 57.7 2.41
5 -5 6 25.93 0.9
5 -5 6 27.36 1.17
-5 5 -6 25.42 1.24
5 5 6 26.54 0.94
4 -6 -6 24.83 1.99
4 -6 -6 21.96 1.1
4 -6 -6 21.59 1.08
4 -6 -6 20.7 1.06
-4 6 6 21.66 1.12
3 -6 -6 58.06 2.37
3 -6 -6 58.85 2.18
3 -6 -6 53.41 2.45
3 -6 -6 57.05 2.19
-3 6 6 57.29 1.93
3 6 -6 56.3 2.27
-3 6 6 57.66 2.24
3 6 -6 56.53 1.81
-3 6 6 58.73 1.95
2 -6 -6 31.97 1.66
2 -6 -6 31.06 1.44
2 -6 -6 30.84 1.58
-2 6 6 28.91 1.21
-2 6 6 28.93 1.22
-2 6 6 30.34 1.46
2 6 -6 27.76 1.5
-2 6 6 28.54 1.4
2 6 -6 27.85 1.17
1 -6 -6 36.72 1.75
-1 -6 6 38.34 2.16
-1 -6 6 38.08 2.1
1 -6 -6 36.68 2.42
1 -6 -6 38.29 1.83
-1 6 6 37.08 1.58
1 6 -6 36.43 1.48
1 6 -6 33.65 1.74
-1 6 6 35.48 1.45
1 6 -6 34.92 1.64
-1 6 6 35.46 1.65
-1 6 6 38.94 1.46
1 6 -6 36.49 1.5
0 -6 6 34.6 2.02
0 -6 6 35.65 2.13
0 -6 -6 35.87 1.66
0 6 -6 34.07 1.47
0 6 -6 32.97 1.56
0 6 6 33.67 1.6
0 6 -6 32.54 1.68
0 6 -6 34.31 1.14
0 6 -6 32.41 1.68
1 -6 6 5.85 0.67
1 -6 6 4.48 0.91
1 -6 6 6.06 1.02
1 -6 6 5.18 0.85
-1 -6 -6 5.24 0.6
-1 6 -6 5.98 0.57
-1 6 -6 6.02 0.7
-1 6 -6 5.35 0.47
-1 6 -6 4.91 0.71
-1 6 -6 6.07 0.77
-1 6 -6 5.41 0.54
1 6 6 6.09 0.72
2 -6 6 16.39 1.2
2 -6 6 15.18 1.47
2 -6 6 16.33 1.35
2 -6 6 15.82 1.07
-2 6 -6 13.81 0.79
-2 6 -6 14.97 0.95
2 6 6 18.04 1.57
-2 6 -6 14.07 0.78
-2 6 -6 14.47 0.88
-2 6 -6 13.51 0.96
-2 6 -6 13.84 0.85
-2 6 -6 12.72 0.97
3 -6 6 33.14 2.16
3 -6 6 36.17 1.67
-3 6 -6 37.06 1.61
-3 6 -6 36.58 1.56
-3 6 -6 35.81 1.28
-3 6 -6 35.03 1.27
-3 6 -6 35.65 1.58
4 -6 6 9.58 0.65
4 -6 6 10.04 0.67
4 -6 6 9.53 0.64
-4 6 -6 8.64 0.64
-4 6 -6 8.94 0.62
4 6 6 8.99 0.41
3 -7 -6 6.83 0.51
3 -7 -6 7.24 0.61
-3 7 6 6.37 0.38
-3 7 6 6.91 0.5
2 -7 -6 29.21 1.54
2 -7 -6 31.33 1.57
2 -7 -6 32.32 1.56
2 -7 -6 30.8 1.39
2 7 -6 29.93 1.43
-2 7 6 30.91 1.19
-2 7 6 30.63 1.4
-2 7 6 31.1 1.21
2 7 -6 31.61 1.04
1 -7 -6 11.2 0.82
1 -7 -6 11.19 0.86
1 7 -6 11.12 0.8
-1 7 6 11.63 0.66
-1 7 6 12.18 0.68
1 7 -6 11.6 0.63
1 7 -6 11.11 0.85
-1 7 6 11.38 0.81
0 -7 -6 9.04 0.76
0 -7 6 9.08 0.8
0 -7 6 7.57 1.11
0 7 -6 8.63 0.77
0 7 -6 8.33 0.6
0 7 -6 8.85 0.72
0 7 6 8.46 0.71
1 -7 6 25.42 1.92
-1 -7 -6 28.83 1.45
1 -7 6 28.19 1.48
-1 7 -6 29.17 1.44
-1 7 -6 29.24 1.21
-1 7 -6 28.69 1.38
1 7 6 29.27 1.4
-1 7 -6 29.42 1.33
-1 7 -6 30.56 1.22
2 -7 6 9.37 0.75
2 -7 6 9.24 0.82
-2 -7 -6 9.81 0.83
-2 7 -6 8.51 0.66
-2 7 -6 8.2 0.52
-2 7 -6 8.1 0.51
-2 7 -6 7.96 0.49
-2 7 -6 8.32 0.66
3 -7 6 18.05 0.89
3 -7 6 17.48 0.85
-3 7 -6 16.62 0.84
-3 7 -6 16.58 0.73
1 -8 -6 15.96 0.84
1 -8 -6 16.32 0.96
-1 8 6 13.8 0.79
-1 8 6 13.73 0.65
-1 8 6 12.87 0.64
1 8 -6 13.96 0.78
0 8 -6 10.86 0.7
0 8 -6 12.1 0.72
0 8 6 11.5 0.58
0 8 -6 10.39 0.57
0 8 -6 8.14 0.74
0 8 6 10.41 0.7
0 8 6 11.49 0.58
-1 8 -6 10.83 0.69
-1 8 -6 10.68 0.53
-1 8 -6 11.56 0.68
-1 8 -6 11.2 0.55
6 0 -7 0.65 0.24
-6 0 7 0.69 0.27
6 0 -7 0.56 0.26
6 0 -7 0.65 0.21
6 0 -7 0.42 0.16
-5 0 7 -0.08 0.3
5 0 -7 0.01 0.26
5 0 -7 -0.16 0.22
5 0 -7 0.13 0.26
5 0 -7 0.15 0.22
5 0 -7 0.02 0.22
5 0 -7 0.23 0.25
4 0 -7 10.64 0.92
4 0 -7 12.95 0.86
4 0 -7 9.11 0.75
4 0 -7 9.97 0.94
4 0 -7 9.55 0.72
4 0 -7 9.53 0.88
3 0 -7 2.3 0.44
-3 0 7 2.56 0.63
3 0 -7 3.06 0.56
3 0 -7 2.69 0.48
3 0 -7 1.82 0.42
2 0 -7 3.57 0.54
2 0 -7 3.28 0.48
-2 0 7 3.33 0.55
2 0 -7 2.71 0.35
-1 0 7 0.13 0.21
1 0 -7 0.11 0.18
1 0 -7 -0.04 0.16
0 0 7 47.48 1.91
0 0 7 49.81 2.23
0 0 -7 44.39 1.96
0 0 -7 48.75 2.18
1 0 7 203.77 6.33
-1 0 -7 183.52 6.18
-2 0 -7 5.89 0.81
2 0 7 7.42 0.81
3 0 7 21.94 1.66
3 0 7 22.28 1.02
3 0 7 23.62 0.95
4 0 7 5.58 0.71
4 0 7 3.55 0.41
4 0 7 4.13 0.61
-4 0 -7 4.63 0.63
4 0 7 3.67 0.64
4 0 7 2.78 0.76
4 0 7 3.68 0.43
5 0 7 28.78 1.53
5 0 7 30.35 1.5
-5 0 -7 29.63 1.34
5 0 7 29.35 1.44
5 0 7 29.34 1.56
6 0 7 20.23 0.91
6 0 7 19.83 0.99
6 -1 -7 30.16 1.38
6 -1 -7 30.07 1.4
6 -1 -7 29.55 1.36
-6 -1 7 31.5 1.52
6 -1 -7 29.55 1.36
6 1 -7 32.22 1.41
6 1 -7 31.79 1.44
6 1 -7 31.67 1.14
6 1 -7 31.65 1.37
6 1 -7 31.6 1.39
-6 1 7 32.27 1.4
5 -1 -7 29.85 1.59
5 -1 -7 31.61 1.79
5 -1 -7 30.41 1.64
5 -1 -7 33.26 1.58
5 -1 -7 34.16 1.58
5 -1 -7 31.69 1.45
5 -1 -7 32.38 1.72
-5 1 7 31.71 1.62
5 1 -7 32.25 1.58
5 1 -7 31.77 1.6
5 1 -7 32.33 1.56
5 1 -7 31.82 1.48
5 1 -7 32.67 1.51
5 1 -7 31.49 1.39
5 1 -7 31.57 1.35
4 -1 -7 47.13 2.09
4 -1 -7 49.15 1.74
4 -1 -7 47.4 2.25
-4 -1 7 49.62 2.76
4 -1 -7 47.75 2.28
4 -1 -7 44.34 2.77
4 -1 -7 49.79 2.3
4 1 -7 53.4 2.12
4 1 -7 53.18 2.29
4 1 -7 54.55 1.99
4 1 -7 54.99 2.05
4 1 -7 52.01 2.07
3 -1 -7 187.78 5.72
3 -1 -7 193.39 6.04
-3 -1 7 192.19 6.67
3 -1 -7 187.78 6.06
3 -1 -7 192.93 6.27
3 1 -7 195.84 6.17
3 1 -7 193.91 5.89
3 1 -7 201.06 5.75
2 -1 -7 205.32 7.1
2 -1 -7 218.06 6.92
2 -1 -7 217.45 6.75
-2 -1 7 229.54 7.09
2 1 -7 206.33 6.43
-2 1 7 208.29 7.19
2 1 -7 230.58 6.68
-1 -1 7 151.85 5.07
1 -1 -7 143.92 5.14
1 -1 -7 145.72 4.97
1 1 -7 142.91 4.27
1 1 -7 145.48 4.82
1 1 -7 148.36 4.89
0 -1 7 87.95 3.34
0 -1 -7 85.81 3.68
0 -1 7 86.64 3
0 1 -7 76.25 2.86
0 1 -7 79.34 3.11
0 1 -7 81.07 3.04
0 1 7 81.52 3.26
0 1 -7 82.19 2.98
1 -1 7 140.99 4.61
1 -1 7 155.97 5.11
-1 1 -7 140.27 4.73
1 1 7 148.42 4.98
-1 1 -7 139.86 5.1
-1 1 -7 134.69 4.76
2 -1 7 89 3.71
-2 -1 -7 86.6 3.02
2 -1 7 86.99 3.28
2 1 7 86.78 3.57
-2 1 -7 85.41 3.46
3 -1 7 31.85 1.28
3 -1 7 34.65 1.39
3 -1 7 34.05 2.19
3 -1 7 34.95 1.9
3 1 7 39.15 2.24
-3 1 -7 37.42 2.14
4 -1 7 36.27 1.38
4 -1 7 37.68 2.07
4 -1 7 33.99 2.31
4 -1 7 38.11 1.36
4 -1 7 37.42 1.77
-4 -1 -7 36.28 1.66
4 1 7 33.41 1.55
4 1 7 34.01 1.38
-4 1 -7 36 2.2
4 1 7 30.91 2.19
-4 1 -7 33.66 1.5
4 1 7 34.42 1.42
4 1 7 34.21 1.64
4 1 7 33.35 1.73
5 -1 7 75.46 2.94
5 -1 7 73.54 2.86
5 -1 7 76.06 3.03
-5 -1 -7 77.4 2.79
-5 1 -7 78.17 3.44
5 1 7 76.28 2.95
5 1 7 79.47 2.54
5 1 7 79.86 2.7
5 1 7 78.67 2.53
5 1 7 80.75 2.74
5 1 7 79.67 2.9
-6 -1 -7 4.49 0.36
6 -1 7 4.41 0.39
6 -1 7 4.39 0.44
6 -1 7 4.45 0.43
6 1 7 3.86 0.43
6 1 7 3.56 0.26
6 -2 -7 0.5 0.24
6 -2 -7 0.76 0.25
6 -2 -7 0.7 0.27
6 2 -7 0.6 0.23
6 2 -7 0.52 0.22
6 2 -7 0.72 0.2
6 2 -7 0.58 0.23
5 -2 -7 4.2 0.28
5 -2 -7 3.52 0.61
5 -2 -7 4.58 0.77
5 -2 -7 5.21 0.69
5 -2 -7 4.43 0.57
5 2 -7 3.48 0.35
-5 2 7 4.21 0.53
5 2 -7 3.7 0.54
5 2 -7 3.58 0.53
5 2 -7 4 0.52
5 2 -7 3.74 0.56
5 2 -7 3.63 0.42
4 -2 -7 14.28 1.06
4 -2 -7 13.79 0.78
4 -2 -7 13.85 1.13
-4 -2 7 12.93 1.29
4 -2 -7 13.2 0.83
4 -2 -7 12.56 0.79
4 -2 -7 13.96 0.99
4 2 -7 13.38 0.95
4 2 -7 14.18 1.1
4 2 -7 13.88 0.83
4 2 -7 13.9 1
-4 2 7 13.99 0.96
4 2 -7 14.89 1.03
4 2 -7 13.47 0.69
4 2 -7 13.89 0.83
4 2 -7 13.25 0.77
3 -2 -7 27.1 1.53
3 -2 -7 26.55 1.21
-3 -2 7 26.74 1.68
3 -2 -7 26.74 1.62
3 2 -7 27.67 1.23
3 2 -7 27.14 1.52
2 -2 -7 17.77 1.23
2 -2 -7 15.03 1.01
-2 -2 7 16.69 1.2
2 2 -7 14.62 0.99
2 2 -7 14.1 0.79
-1 -2 7 9.33 0.92
1 -2 -7 7.3 0.83
1 -2 -7 8.48 1.14
-1 2 7 10.48 1
1 2 -7 10.64 0.63
1 2 -7 10.06 0.77
1 2 -7 10.07 0.74
0 -2 7 47.38 2.09
0 -2 7 47.15 2.3
0 2 -7 45.96 2.15
0 2 7 47.69 2.31
0 2 -7 47.21 2.06
1 -2 7 40.32 1.87
1 -2 7 40.61 2.28
1 -2 7 39.61 2.12
-1 -2 -7 40.66 2.35
1 2 7 42.84 2.14
-1 2 -7 44.67 1.83
-1 2 -7 44.61 2.11
-1 2 -7 45 2.1
2 -2 7 25.45 1.8
2 -2 7 23.21 1.41
-2 -2 -7 24.11 1.25
-2 2 -7 21.82 1.47
-2 2 -7 21.79 1.4
3 -2 7 61.7 3.33
3 -2 7 60.39 2.31
-3 -2 -7 62.86 2.52
3 -2 7 62.66 2.87
3 -2 7 67.9 2.73
-3 2 -7 71.77 3.02
-3 2 -7 67.6 2.41
3 2 7 66.11 2.35
4 -2 7 20.82 1.49
4 -2 7 20.03 0.94
4 -2 7 19.72 1.21
4 -2 7 20.27 1.24
4 -2 7 20.24 1.01
4 2 7 16.41 0.9
4 2 7 16.06 0.92
4 2 7 15.54 1.15
-4 2 -7 15.35 1
4 2 7 17.1 0.92
-4 2 -7 15.8 1.32
4 2 7 16.69 0.89
5 -2 7 24.23 1.31
5 -2 7 21.53 1.51
-5 -2 -7 24.05 1.22
5 -2 7 22.56 1.27
5 -2 7 22.13 1.44
5 2 7 24.12 1.21
-5 2 -7 24.98 1.19
5 2 7 24.21 1.03
5 2 7 24.88 1.03
5 2 7 24 1.16
5 2 7 24.47 1.32
5 2 7 24.66 1.02
-5 2 -7 23.36 1.42
6 -2 7 14.89 0.83
6 -2 7 15.34 0.8
-6 -2 -7 15.79 0.72
6 -2 7 15.09 0.74
6 2 7 16.78 0.8
6 -3 -7 8.32 0.59
6 -3 -7 8.06 0.67
6 3 -7 7.85 0.6
6 3 -7 8.15 0.5
6 3 -7 7.87 0.57
5 -3 -7 50.13 1.75
5 -3 -7 52.47 2.22
5 -3 -7 50.09 2.11
5 -3 -7 51.62 1.75
5 -3 -7 52.27 2.33
5 3 -7 49.07 2.12
5 3 -7 49.84 2.12
5 3 -7 49.23 1.86
5 3 -7 51.28 2.08
4 -3 -7 30.97 1.61
4 -3 -7 34.03 1.84
4 -3 -7 32.91 1.44
4 -3 -7 31.86 1.52
-4 -3 7 31.74 2.04
4 -3 -7 31.45 1.85
4 3 -7 34.95 1.66
4 3 -7 33.6 1.3
4 3 -7 34.65 1.41
4 3 -7 33.59 1.66
4 3 -7 34.51 1.7
4 3 -7 34.66 1.11
3 -3 -7 109.05 3.68
-3 -3 7 110.63 4.33
3 -3 -7 109.75 4.35
3 -3 -7 107.85 4.1
3 3 -7 113.77 3.9
3 3 -7 115.48 3.52
3 3 -7 114.55 3.42
2 -3 -7 147.75 4.92
2 -3 -7 143.58 4.82
-2 -3 7 150.84 5.37
2 -3 -7 153.56 5.37
2 3 -7 139.42 4.83
1 -3 -7 111.4 3.86
1 -3 -7 114.03 3.9
1 -3 -7 115.91 5.66
-1 -3 7 110.85 4.23
-1 3 7 124.73 4.72
1 3 -7 123.66 4.07
0 -3 -7 108.6 3.72
0 -3 7 113 4.23
0 -3 -7 114.69 5.61
0 3 7 112.83 4.46
0 3 -7 113.09 4.34
0 3 -7 115.35 4.11
1 -3 7 56.97 2.7
1 -3 7 58.29 2.8
1 -3 7 55.76 2.41
-1 -3 -7 56.7 2.19
1 3 7 53.01 2.6
-1 3 -7 53.37 2.09
-1 3 -7 52.06 2.65
-1 3 -7 54.8 2.55
2 -3 7 57.91 2.81
-2 -3 -7 60.07 2.46
2 -3 7 56.69 3.06
2 -3 7 55.13 2.3
2 -3 7 59.07 2.67
-2 3 -7 60.52 2.07
-2 3 -7 59.78 2
-2 3 -7 59.61 2.24
-2 3 -7 60 2.41
-2 3 -7 65.7 2.16
3 -3 7 41.64 1.98
-3 -3 -7 42.31 1.97
3 -3 7 43.18 2.85
3 -3 7 41.16 1.89
3 -3 7 40.17 2.24
3 3 7 49.7 1.72
3 3 7 47.44 1.61
-3 3 -7 49.89 1.98
-3 3 -7 50.16 2.23
-3 3 -7 45.61 1.77
4 -3 7 75.53 2.69
4 -3 7 77.89 2.94
4 -3 7 79.07 2.62
4 -3 7 74.75 2.85
4 -3 7 75.58 3.3
-4 3 -7 70.21 2.58
-4 3 -7 70.46 2.63
4 3 7 69.15 2.37
-4 3 -7 75.72 3.1
5 -3 7 16.74 0.66
5 -3 7 15.79 0.98
-5 -3 -7 15.93 0.93
5 -3 7 15.04 0.94
5 -3 7 14.87 0.59
5 3 7 16.24 0.77
5 3 7 15.62 0.75
5 3 7 16.15 0.87
-5 3 -7 15.85 0.78
5 3 7 16.02 1.18
5 -4 -7 4.64 0.71
5 -4 -7 4.17 0.41
5 -4 -7 3.96 0.37
5 -4 -7 3.57 0.6
5 -4 -7 4.41 0.58
5 4 -7 4.74 0.62
5 4 -7 4.26 0.37
5 4 -7 3.93 0.49
5 4 -7 3.22 0.45
4 -4 -7 5.57 0.8
4 -4 -7 4.22 0.68
4 -4 -7 6.14 0.66
4 -4 -7 6.18 0.78
4 -4 -7 6.77 0.62
4 4 -7 6.45 0.49
4 4 -7 6.38 0.68
4 4 -7 6.31 0.69
4 4 -7 6.47 0.69
3 -4 -7 10.99 0.94
3 -4 -7 12.06 0.85
3 -4 -7 12.15 0.91
-3 -4 7 12 1.11
3 -4 -7 10.7 0.98
3 -4 -7 11.23 1.17
3 4 -7 10.34 0.77
-3 4 7 11.34 0.68
3 4 -7 11.21 0.93
3 4 -7 11.54 0.93
-3 4 7 11.38 0.67
3 4 -7 10.97 0.67
3 4 -7 11.25 0.93
2 -4 -7 11.98 0.91
2 -4 -7 13.2 1.01
2 -4 -7 12.18 0.88
2 -4 -7 12.45 1.31
-2 -4 7 12.3 1.14
2 4 -7 12.39 0.54
2 4 -7 12.18 0.96
-2 4 7 11.82 0.87
-2 4 7 13.04 0.71
2 4 -7 12.46 0.89
1 -4 -7 5.63 0.62
-1 -4 7 5.36 0.7
1 -4 -7 5.39 0.58
1 4 -7 4.6 0.58
-1 4 7 5.23 0.56
1 4 -7 5.27 0.63
0 -4 7 43.41 2.27
0 -4 -7 42.39 1.85
0 4 -7 45.1 1.84
0 4 7 45.75 1.87
0 4 -7 46.16 2.16
1 -4 7 7.48 0.97
1 -4 7 7.31 0.84
1 -4 7 7.53 0.95
-1 -4 -7 8.79 0.72
1 4 7 8.5 0.72
-1 4 -7 8.07 0.89
-1 4 -7 8.14 0.58
-1 4 -7 7.5 0.57
-1 4 -7 7.85 0.67
2 -4 7 28.49 1.47
2 -4 7 27.79 2.14
-2 -4 -7 29.02 1.54
2 -4 7 28.59 1.94
2 -4 7 27.3 2.07
2 -4 7 28.24 1.76
-2 4 -7 27.09 1.35
2 4 7 30.68 2.01
-2 4 -7 25.76 1.53
-2 4 -7 28.76 1.47
-2 4 -7 26.06 1.37
-2 4 -7 28.93 0.98
-2 4 -7 26.4 1.17
-2 4 -7 27.89 1.16
-3 -4 -7 4.57 0.61
3 -4 7 4.04 0.63
3 -4 7 4.98 0.88
3 -4 7 3.41 0.81
3 4 7 7.03 0.38
-3 4 -7 6.11 0.44
-3 4 -7 6.64 0.96
-3 4 -7 6.35 0.44
-3 4 -7 6.23 0.45
-3 4 -7 6.15 0.71
4 -4 7 8.04 0.63
4 -4 7 7.92 0.92
4 -4 7 7.6 0.75
4 -4 7 7.79 0.68
-4 4 -7 6.58 0.74
-4 4 -7 6.37 0.41
4 4 7 6.02 0.34
-5 -4 -7 6.17 0.7
5 -4 7 6.72 0.36
5 -4 7 7.87 0.61
5 -4 7 7.29 0.39
5 4 7 7.82 0.49
5 4 7 7.61 0.45
-5 4 -7 7.22 0.63
5 4 7 7.93 0.47
5 -5 -7 28.78 1.09
5 -5 -7 29.15 1.27
5 -5 -7 27.46 1.09
5 5 -7 31.74 0.95
5 5 -7 32 1.33
4 -5 -7 30.78 1.38
4 -5 -7 29.66 1.43
4 -5 -7 29.52 1.45
4 -5 -7 30.34 1.7
4 5 -7 31.9 1.51
-4 5 7 31.91 1.65
4 5 -7 30.88 1.52
4 5 -7 30.55 1.15
3 -5 -7 40.2 2.4
3 -5 -7 39.02 2.05
3 -5 -7 39.29 1.94
3 -5 -7 38.91 1.8
3 -5 -7 41.71 1.78
-3 5 7 44.37 1.57
3 5 -7 45.06 1.97
-3 5 7 43.04 2.04
-3 5 7 40.69 1.55
3 5 -7 44.88 1.98
3 5 -7 43.59 1.54
2 -5 -7 88.38 3.43
2 -5 -7 93.13 3.38
-2 -5 7 92.56 3.88
2 -5 -7 91.31 3.19
2 -5 -7 95.44 3.5
2 -5 -7 85.68 5.22
2 5 -7 86.05 3.27
2 5 -7 85.64 2.87
-2 5 7 91.32 3.22
2 5 -7 85.6 3.29
-2 5 7 92.38 2.91
2 5 -7 86.5 3.02
-2 5 7 86.45 3.2
-2 5 7 86.45 2.9
1 -5 -7 87 3.27
-1 -5 7 83.93 3.63
1 -5 -7 86.63 3.99
1 -5 -7 89.53 3.25
-1 5 7 86.46 3.13
1 5 -7 89.46 3.23
1 5 -7 85.51 3.08
-1 5 7 83.94 2.86
1 5 -7 85.63 2.92
1 5 -7 87.1 2.59
-1 5 7 88.87 3.11
-1 5 7 88.38 2.85
1 5 -7 88.29 3.26
0 -5 7 90.25 3.7
0 -5 -7 90.19 3.25
0 -5 7 87.72 3.83
0 5 -7 92.9 3.29
0 5 -7 88.56 2.9
0 5 -7 89.04 3.49
0 5 -7 86.49 2.73
0 5 -7 89.83 3.19
0 5 7 88.97 3.2
0 5 -7 89.05 3.1
1 -5 7 43.34 2.21
1 -5 7 38.32 2.41
-1 -5 -7 42.75 1.82
1 -5 7 42.21 2.48
-1 5 -7 37.45 1.71
-1 5 -7 36.09 1.69
-1 5 -7 32.62 1.77
-1 5 -7 36.49 2.08
-1 5 -7 37.29 1.6
1 5 7 37.02 1.73
-1 5 -7 36.44 1.76
-1 5 -7 38.03 1.5
-1 5 -7 35.7 1.61
2 -5 7 23.57 1.52
-2 -5 -7 24.62 1.42
2 -5 7 23.3 1.34
2 -5 7 24.75 1.85
2 -5 7 24.07 2.21
2 -5 7 23.09 1.63
-2 5 -7 20.97 1.01
-2 5 -7 20.72 1.19
-2 5 -7 21.7 1.25
2 5 7 21.86 1.34
-2 5 -7 22.26 2.05
-2 5 -7 21.14 1.2
-2 5 -7 21.97 0.95
-2 5 -7 22.58 1.01
-2 5 -7 21.85 1.27
3 -5 7 19.2 1.13
-3 -5 -7 18.08 1.12
3 -5 7 17.14 1.51
3 -5 7 17 1.37
-3 5 -7 16.3 1.05
-3 5 -7 17.17 1.18
-3 5 -7 17.16 0.79
-3 5 -7 17.39 0.78
-3 5 -7 18.32 0.96
-3 5 -7 17.2 1.1
4 -5 7 34.92 1.6
4 -5 7 37.04 1.49
4 -5 7 35.07 1.52
-4 5 -7 37.44 1.75
-4 5 -7 36.44 1.36
4 -6 -7 4.34 0.47
4 -6 -7 5.25 0.51
4 -6 -7 4.76 0.46
-4 6 7 5.23 0.53
3 -6 -7 6.67 0.7
3 -6 -7 7.06 0.78
3 -6 -7 6.3 0.59
-3 6 7 6.39 0.47
-3 6 7 6.37 0.46
-3 6 7 6.57 0.62
3 6 -7 6.44 0.67
3 6 -7 6.37 0.42
2 -6 -7 5.47 0.66
2 -6 -7 6 0.83
2 -6 -7 5.52 0.71
2 -6 -7 5.59 0.62
2 6 -7 6.2 0.73
-2 6 7 6.44 0.63
2 6 -7 6.8 0.5
-2 6 7 6.19 0.65
-2 6 7 6.09 0.48
-2 6 7 5.77 0.49
1 -6 -7 20.1 1.73
1 -6 -7 20.04 1.24
-1 -6 7 18.84 1.46
1 -6 -7 19.86 1.17
-1 -6 7 20.47 1.6
-1 6 7 19.94 1.16
-1 6 7 20.89 0.99
1 6 -7 20.37 1.03
-1 6 7 20.25 0.96
1 6 -7 18.95 1.21
1 6 -7 19.9 1.14
0 -6 7 7.16 0.94
0 -6 -7 8.07 0.75
0 -6 7 7.15 0.99
0 6 7 8.83 0.75
0 6 -7 8.73 0.68
0 6 -7 8.6 0.44
0 6 -7 9.54 0.76
0 6 -7 9.96 0.84
1 -6 7 4.86 0.61
-1 -6 -7 4.73 0.6
1 -6 7 3.88 0.75
1 -6 7 4.99 1.55
-1 6 -7 6.1 0.5
-1 6 -7 5.65 0.61
-1 6 -7 4.26 0.58
1 6 7 4.99 0.66
-1 6 -7 5.97 0.59
-1 6 -7 5.34 0.47
-1 6 -7 5.73 0.53
2 -6 7 16.05 1.16
2 -6 7 16.45 1.48
2 -6 7 16.8 1.08
2 -6 7 15.25 1.29
-2 -6 -7 17.09 1.16
-2 6 -7 16.82 0.95
-2 6 -7 16.15 1.01
-2 6 -7 17.18 0.95
-2 6 -7 17.36 1.05
-2 6 -7 17.27 0.82
-2 6 -7 16.21 0.82
-2 6 -7 16.97 1.07
2 6 7 19.89 1.41
-3 -6 -7 9.75 0.74
3 -6 7 8.44 0.7
3 -6 7 8.57 0.69
-3 6 -7 8.1 0.64
-3 6 -7 8.15 0.44
-3 6 -7 8.65 0.45
-3 6 -7 8.76 0.67
-3 6 -7 8.03 0.65
4 -6 7 9.45 0.62
4 -6 7 8.85 0.57
4 6 7 10.14 0.42
-4 6 -7 11.18 0.57
-4 6 -7 10.35 0.63
3 -7 -7 18.04 0.92
3 -7 -7 16.99 0.73
2 -7 -7 44.57 1.82
2 -7 -7 45.31 2
2 -7 -7 45.55 2.39
-2 7 7 46.92 1.87
-2 7 7 47.9 1.63
-2 7 7 47.03 1.62
2 7 -7 46.38 1.49
2 7 -7 47.13 1.9
1 -7 -7 41.8 1.91
1 -7 -7 44.88 1.82
-1 7 7 42.05 1.79
1 7 -7 41.54 1.56
1 7 -7 42.62 1.79
1 7 -7 42.51 1.83
-1 7 7 42.61 1.55
-1 7 7 43.8 1.58
0 -7 7 40.48 2.41
0 -7 -7 43.97 1.92
0 -7 7 42.22 1.86
0 7 7 42.22 1.55
0 7 -7 43.71 1.82
0 7 7 42.71 1.8
0 7 -7 38.85 1.76
0 7 7 42.81 1.58
0 7 -7 41.55 1.65
-1 -7 -7 15.91 1.04
1 -7 7 15.37 0.97
-1 7 -7 13.69 0.9
-1 7 -7 15.19 0.92
-1 7 -7 13.86 0.72
-1 7 -7 14.32 0.74
1 7 7 14.16 0.93
-1 7 -7 13.87 0.86
2 -7 7 14 0.91
-2 7 -7 14.2 0.8
-2 7 -7 12.9 0.8
-2 7 -7 14.01 0.64
-2 7 -7 13.61 0.56
-2 7 -7 13.39 0.63
3 -7 7 18.32 0.79
3 -7 7 16.7 0.73
3 -7 7 17.46 0.81
-3 7 -7 16.01 0.62
-3 7 -7 15.78 0.75
1 -8 -7 5.93 0.56
1 -8 -7 5.95 0.5
1 8 -7 5.62 0.44
-1 8 7 5.6 0.37
-1 8 7 5.53 0.37
0 -8 -7 4.46 0.48
0 8 7 5.9 0.89
0 8 -7 4.99 0.43
0 8 -7 4.26 0.33
0 8 7 4.82 0.35
6 0 -8 20.2 1.05
6 0 -8 20.84 0.96
6 0 -8 19.81 1.04
-6 0 8 20.67 1.11
5 0 -8 30.39 1.5
-5 0 8 27 1.55
5 0 -8 28.73 1.5
5 0 -8 28.23 1.45
5 0 -8 30.81 1.52
5 0 -8 30.05 1.6
5 0 -8 31.04 1.45
4 0 -8 34.12 1.72
4 0 -8 30 1.64
4 0 -8 32.37 1.43
4 0 -8 30.19 1.56
4 0 -8 32.09 1.58
4 0 -8 31.23 1.52
4 0 -8 33.23 1.59
3 0 -8 74.46 2.77
3 0 -8 76.47 2.79
3 0 -8 76.1 2.94
-3 0 8 77.47 3.47
3 0 -8 75.62 2.37
2 0 -8 38.45 1.71
-2 0 8 37.49 2.04
2 0 -8 39.2 1.51
2 0 -8 38.45 1.63
1 0 -8 167.71 5.54
1 0 -8 163.71 5.66
-1 0 8 167.26 5.62
1 0 -8 162.07 5.25
0 0 -8 136.44 4.87
0 0 -8 140.03 4.57
0 0 8 132.03 4.47
-1 0 -8 51.31 2.3
1 0 8 54.53 2.39
2 0 8 107.45 4.3
-2 0 -8 113.04 4.25
3 0 8 117.88 4.84
3 0 8 117.09 3.65
3 0 8 110.98 5.07
-3 0 -8 127.17 4.82
3 0 8 122.01 3.64
-3 0 -8 117.44 3.93
4 0 8 48.96 1.77
-4 0 -8 50.23 2
4 0 8 49.84 1.76
4 0 8 49.22 2.14
-4 0 -8 49.62 2.78
4 0 8 51.39 2.24
4 0 8 50.94 2.27
5 0 8 10.45 0.83
5 0 8 9.63 0.76
5 0 8 8.54 0.75
-5 0 -8 9.98 0.66
6 0 8 20.92 0.84
6 0 8 18.88 0.9
6 -1 -8 7.29 0.58
6 -1 -8 6.45 0.56
6 -1 -8 7.07 0.58
-6 -1 8 7.31 0.66
6 -1 -8 7.69 0.59
6 1 -8 7.84 0.62
6 1 -8 7.91 0.4
6 1 -8 7.93 0.63
6 1 -8 7.99 0.6
-6 1 8 7.89 0.57
6 1 -8 7.54 0.59
5 -1 -8 12.5 0.91
5 -1 -8 12.45 0.99
5 -1 -8 10.81 0.86
5 -1 -8 11.58 0.95
5 -1 -8 12.44 0.88
5 -1 -8 10.34 0.69
5 1 -8 7.81 0.69
5 1 -8 9.43 1.03
5 1 -8 8.24 0.71
5 1 -8 8.99 0.79
5 1 -8 8.69 0.77
5 1 -8 8.75 0.61
5 1 -8 8.17 0.75
-5 1 8 7.86 0.76
5 1 -8 8.94 0.67
4 -1 -8 20.85 1.3
4 -1 -8 21.36 1.37
-4 -1 8 22.62 1.75
4 -1 -8 20.47 0.92
4 -1 -8 20.64 1.38
4 -1 -8 22.4 1.29
4 -1 -8 22.84 0.92
4 1 -8 21.58 1.23
4 1 -8 23.15 1.38
4 1 -8 22.52 1.18
-4 1 8 20.93 1.29
4 1 -8 22.98 1.18
4 1 -8 24.63 1.31
4 1 -8 23.07 1.31
4 1 -8 23.57 1.22
4 1 -8 22.57 1.27
3 -1 -8 1.96 0.5
3 -1 -8 1.64 0.44
3 -1 -8 1.4 0.34
-3 -1 8 1.07 0.43
3 -1 -8 1.11 0.27
3 1 -8 1.29 0.36
3 1 -8 2.2 0.35
2 -1 -8 23.55 1.3
-2 -1 8 23.54 1.51
2 -1 -8 23.67 1.39
2 1 -8 25.26 1.19
2 1 -8 25.13 1.28
1 -1 -8 49.52 2.31
1 -1 -8 52.49 3.04
-1 -1 8 55.91 2.48
1 1 -8 53.07 1.72
1 1 -8 52.61 1.97
1 1 -8 53.17 2.29
0 -1 -8 0.26 0.3
0 -1 8 0.52 0.31
0 1 -8 0.45 0.28
0 1 -8 0.32 0.23
0 1 -8 0.27 0.25
0 1 8 0.41 0.31
1 -1 8 29.6 1.49
-1 -1 -8 32.46 1.46
1 -1 8 32.31 1.78
1 1 8 33.41 1.93
1 1 8 34.89 1.81
-1 1 -8 32.15 1.62
-1 1 -8 31.56 1.9
2 -1 8 16.65 1.15
-2 -1 -8 16.05 0.99
2 -1 8 16.88 1.37
2 1 8 20.67 1.45
-2 1 -8 16.75 1.24
3 -1 8 0.6 0.21
3 -1 8 0.23 0.21
3 -1 8 0.28 0.35
3 -1 8 0.53 0.35
3 -1 8 0.17 0.32
-3 -1 -8 0.4 0.35
3 1 8 0.39 0.34
-3 1 -8 0.22 0.34
3 1 8 0.21 0.3
3 1 8 0.13 0.35
3 1 8 0.71 0.24
-3 1 -8 0.4 0.26
4 -1 8 15.81 1.13
4 -1 8 16.64 1.43
4 -1 8 17.61 0.8
-4 -1 -8 16.4 1.03
4 -1 8 17.08 0.8
-4 1 -8 17.65 1.45
-4 1 -8 18.34 0.95
4 1 8 19.05 1.07
4 1 8 17.88 1.12
4 1 8 17.52 0.86
4 1 8 17.47 0.88
4 1 8 17.45 1.2
5 -1 8 0.67 0.4
5 -1 8 1.03 0.38
-5 -1 -8 1.24 0.3
5 -1 8 0.69 0.29
5 1 8 0.74 0.2
5 1 8 0.49 0.27
5 1 8 0.82 0.31
5 1 8 0.74 0.26
5 1 8 0.74 0.23
5 1 8 0.41 0.16
6 -1 8 5.68 0.44
6 -1 8 5.6 0.49
6 -1 8 5.85 0.35
6 1 8 6.89 0.48
6 -2 -8 21.66 1.06
-6 -2 8 21.63 1.16
6 -2 -8 21.53 1.12
6 -2 -8 20.41 1.08
6 2 -8 22.48 1.1
6 2 -8 21.93 1.05
6 2 -8 23.64 1.03
6 2 -8 22.44 1.02
5 -2 -8 37.6 1.92
5 -2 -8 36.53 1.71
5 -2 -8 36.44 1.73
5 -2 -8 37.13 1.88
-5 2 8 37.86 1.59
5 2 -8 37.11 1.67
5 2 -8 37.17 1.5
5 2 -8 37.99 1.33
5 2 -8 36.5 1.71
5 2 -8 38.39 1.59
5 2 -8 36.9 1.74
4 -2 -8 96.09 3.38
-4 -2 8 89.25 4.03
4 -2 -8 95.54 3.63
4 -2 -8 94.59 3.02
4 -2 -8 93.7 3.1
4 -2 -8 93.76 3.49
4 2 -8 89.56 3
4 2 -8 85.84 3.24
4 2 -8 94.5 3.54
-4 2 8 91.8 3.26
4 2 -8 86.51 3.09
4 2 -8 88.88 3.33
4 2 -8 86.62 2.83
4 2 -8 90.9 3.14
4 2 -8 88.66 3.32
3 -2 -8 89.6 3.61
-3 -2 8 90.57 3.88
3 -2 -8 87.83 3.12
3 -2 -8 92.8 3.72
3 2 -8 101.12 3.16
3 2 -8 98.19 3.23
3 2 -8 104.53 3.62
-2 -2 8 89.87 3.67
2 -2 -8 92.36 3.69
2 -2 -8 89.01 3.34
2 2 -8 89.08 3.01
2 2 -8 91.19 2.81
2 2 -8 89.53 3.42
2 2 -8 92.77 3.29
1 -2 -8 112.43 3.83
1 -2 -8 110.74 3.84
1 -2 -8 110.96 4.29
-1 -2 8 115.28 4.39
1 2 -8 112.44 3.62
1 2 -8 110.37 3.98
1 2 -8 112.79 3.79
0 -2 8 179.59 6.24
0 -2 -8 171.56 5.5
0 2 -8 169.1 5.71
0 2 8 166.17 6.04
0 2 -8 170.17 5.8
-1 -2 -8 80.77 2.95
1 -2 8 80.63 3.5
1 -2 8 79.3 3.01
1 -2 8 78.69 3.61
1 2 8 77.37 3.4
-1 2 -8 76.63 3.25
-1 2 -8 82.67 2.88
2 -2 8 35.56 2.23
2 -2 8 34.99 1.85
-2 -2 -8 35.55 1.66
-2 2 -8 34.18 1.82
-2 2 -8 36.55 1.5
-2 2 -8 37.66 1.84
3 -2 8 24.11 1.91
3 -2 8 26.05 1.23
-3 -2 -8 25.35 1.37
3 -2 8 25.26 1.43
3 -2 8 23.34 1.57
3 -2 8 25.38 1.6
-3 2 -8 25.16 1.24
3 2 8 23.04 1.22
3 2 8 24.18 1.28
-3 2 -8 24.56 1.56
4 -2 8 28.88 1.54
4 -2 8 27.56 1.49
4 -2 8 29.04 1.8
-4 -2 -8 28.35 1.44
4 -2 8 27.98 1.21
4 -2 8 28.51 1.27
4 2 8 31.09 1.35
4 2 8 29.58 1.25
-4 2 -8 29.99 1.39
4 2 8 28.05 1.55
-4 2 -8 29.4 1.7
4 2 8 30.03 1.31
4 2 8 29.08 1.21
5 -2 8 13.74 1.08
5 -2 8 12.94 0.91
5 -2 8 13.56 0.89
-5 -2 -8 13.45 0.84
5 2 8 14.74 0.86
5 2 8 14.81 0.71
5 2 8 14.26 0.69
5 2 8 14.45 0.7
-5 2 -8 14.03 0.79
5 2 8 15.44 0.94
5 2 8 12.67 1.11
6 -3 -8 4.48 0.43
6 -3 -8 4.31 0.5
6 3 -8 6.54 0.5
6 3 -8 6.36 0.41
6 3 -8 6.87 0.49
5 -3 -8 5.38 0.35
5 -3 -8 6.76 0.68
5 -3 -8 6.12 0.39
5 -3 -8 5.38 0.65
5 -3 -8 6.81 0.74
5 3 -8 5.72 0.58
5 3 -8 5.66 0.63
5 3 -8 5.72 0.59
5 3 -8 5.03 0.47
4 -3 -8 3.91 0.57
4 -3 -8 5.42 0.53
4 -3 -8 5.21 0.86
4 -3 -8 5.66 0.68
4 -3 -8 5 0.79
4 -3 -8 5.32 0.58
-4 -3 8 5.54 0.86
4 3 -8 5.82 0.33
4 3 -8 5.24 0.63
4 3 -8 6.33 0.64
4 3 -8 5.97 0.74
4 3 -8 4.7 0.47
4 3 -8 4.27 0.6
4 3 -8 4.99 0.41
3 -3 -8 3.36 0.56
3 -3 -8 3.83 0.57
3 -3 -8 4.47 0.88
-3 -3 8 4.01 0.67
3 -3 -8 3.46 0.65
3 -3 -8 3.09 0.63
3 3 -8 2.74 0.52
3 3 -8 2.17 0.37
3 3 -8 3.03 0.35
3 3 -8 2.58 0.51
3 3 -8 2.85 0.57
3 3 -8 2.82 0.35
3 3 -8 3.52 0.52
-2 -3 8 20.88 1.54
2 -3 -8 20.77 1.56
2 -3 -8 21.6 1.32
-2 3 8 18.98 0.93
2 3 -8 21.92 1.29
1 -3 -8 1.69 0.44
1 -3 -8 1.67 0.37
-1 -3 8 2.6 0.68
1 3 -8 2.48 0.5
0 -3 -8 11.88 1.65
0 -3 8 12.99 1.21
0 -3 -8 12.96 0.9
0 3 -8 12.6 1.02
0 3 -8 11.4 0.73
0 3 -8 13.04 1.16
0 3 8 12.36 1.22
1 -3 8 11.52 0.96
1 -3 8 11.23 1.24
-1 -3 -8 11.23 0.89
1 -3 8 12.54 1.21
-1 3 -8 11.19 0.81
-1 3 -8 10.58 0.59
1 3 8 11.56 1.53
-1 3 -8 11.62 0.85
-1 3 -8 12.43 1.14
2 -3 8 21.19 1.43
-2 -3 -8 20.11 1.24
2 -3 8 20.88 1.77
2 -3 8 18.23 1.74
2 -3 8 18.66 1.12
-2 3 -8 22.19 1.01
-2 3 -8 20.75 1.27
-2 3 -8 21.05 0.91
-2 3 -8 21.77 1.16
3 -3 8 4.61 0.67
3 -3 8 2.62 0.58
3 -3 8 4.1 0.53
3 -3 8 4.46 0.62
3 -3 8 4.73 1.13
-3 -3 -8 4.74 0.58
3 -3 8 3.72 1.13
-3 3 -8 3.48 0.58
-3 3 -8 3.13 0.66
3 3 8 4.14 0.4
3 3 8 3.89 0.43
-3 3 -8 2.96 0.41
4 -3 8 9.91 0.67
4 -3 8 10.29 0.86
4 -3 8 9.46 0.84
4 -3 8 9.21 0.71
4 -3 8 10.27 1.01
4 3 8 9.38 0.64
-4 3 -8 9.46 0.64
4 3 8 9.52 0.63
4 3 8 9.45 0.57
-4 3 -8 9.93 0.99
5 -3 8 3.1 0.43
5 -3 8 2.62 0.39
-5 -3 -8 3.75 0.43
5 3 8 2.51 0.3
5 3 8 2.78 0.32
-5 3 -8 2.78 0.31
-5 3 -8 2.23 0.48
5 3 8 2.93 0.35
5 -4 -8 11.83 0.57
5 -4 -8 10.92 0.88
5 -4 -8 12.01 0.58
5 -4 -8 12.18 0.8
5 4 -8 11.12 0.78
5 4 -8 11.26 0.61
5 4 -8 11.77 0.78
5 4 -8 12.16 0.75
4 -4 -8 32.56 1.42
4 -4 -8 32.4 1.56
4 -4 -8 32.35 1.83
4 -4 -8 34.93 1.53
4 -4 -8 31.6 1.78
4 4 -8 31.49 1.57
4 4 -8 30.91 1.62
4 4 -8 31.5 1.53
4 4 -8 29.91 1.31
-3 -4 8 10.23 1.09
3 -4 -8 10.43 0.92
3 -4 -8 11.18 0.92
3 -4 -8 11.99 0.88
3 -4 -8 9.9 0.99
3 -4 -8 10.37 1.2
3 4 -8 14.45 1
3 4 -8 13.83 1.01
3 4 -8 14.18 0.97
3 4 -8 14.11 0.91
3 4 -8 14.11 0.77
-3 4 8 14.21 0.75
2 -4 -8 101.55 3.63
2 -4 -8 107.96 4.51
2 -4 -8 106.58 3.88
2 -4 -8 104.03 3.91
-2 -4 8 106.9 4.48
2 -4 -8 110.63 3.97
-2 4 8 106.14 3.7
-2 4 8 106.63 3.36
2 4 -8 105.09 3.42
-2 4 8 104.71 3.38
2 4 -8 106.04 3.24
2 4 -8 107.51 3.8
2 4 -8 105.72 3.81
2 4 -8 108.31 3.69
-1 -4 8 65.95 3.13
1 -4 -8 66.06 2.58
1 -4 -8 67.32 2.61
1 4 -8 57.7 2.17
-1 4 8 65.06 2.17
-1 4 8 58 2.4
1 4 -8 63.18 2.68
-1 4 8 61.3 2.46
1 4 -8 62.05 2.4
0 -4 8 61.18 3.17
0 -4 -8 64.26 2.63
0 4 8 71.29 2.67
0 4 -8 68.33 2.45
0 4 -8 74.24 3.08
0 4 -8 68.6 2.6
0 4 8 70.78 2.63
1 -4 8 111.98 4.84
1 -4 8 111.7 4.71
1 -4 8 111.19 4.21
1 -4 8 110.85 3.86
-1 -4 -8 106.83 3.92
-1 4 -8 116.72 4.49
-1 4 -8 112.47 3.77
-1 4 -8 105.78 3.57
-1 4 -8 116.27 4.03
-1 4 -8 111.16 3.47
-1 4 -8 106.72 3.79
1 4 8 107.46 3.83
2 -4 8 42.29 2.43
2 -4 8 42.55 2.27
-2 -4 -8 41.7 2.04
2 -4 8 42.98 2.05
2 -4 8 40.88 1.95
2 -4 8 42.85 1.92
2 -4 8 38.89 2.64
-2 4 -8 44.15 1.92
-2 4 -8 41.88 1.94
-2 4 -8 44.58 1.89
-2 4 -8 44.83 2.1
-2 4 -8 46.19 1.6
2 4 8 44.25 1.45
-2 4 -8 44.04 1.6
3 -4 8 41.33 2.23
3 -4 8 37.74 1.86
3 -4 8 41.27 1.79
-3 -4 -8 42.54 1.9
3 4 8 39.4 1.39
-3 4 -8 40.11 1.47
-3 4 -8 40.55 1.91
-3 4 -8 40.96 1.36
-3 4 -8 38.58 2.09
4 -4 8 23.48 1.58
4 -4 8 28.57 1.3
4 -4 8 27.47 1.42
4 -4 8 26.45 1.22
-4 4 -8 28.94 0.91
4 4 8 30.93 1.28
4 4 8 27.38 0.97
-4 4 -8 29.43 1.46
4 4 8 29.11 1.16
5 -4 8 20.64 0.98
-5 -4 -8 20.07 0.93
5 4 8 20.33 0.87
5 4 8 20.74 0.8
5 4 8 21.35 0.81
5 -5 -8 12.02 0.47
5 -5 -8 12.73 0.69
5 5 -8 11.79 0.42
4 -5 -8 1.72 0.39
4 -5 -8 1.71 0.47
4 -5 -8 1.46 0.32
4 -5 -8 1.6 0.35
4 5 -8 1.39 0.21
4 5 -8 1.34 0.36
4 5 -8 1.93 0.36
3 -5 -8 3.93 0.88
3 -5 -8 2.98 0.58
3 -5 -8 3.54 0.53
3 -5 -8 3 0.56
3 5 -8 3.8 0.6
-3 5 8 4.43 0.42
3 5 -8 4.37 0.38
3 5 -8 4.84 0.6
-3 5 8 4.89 0.41
-2 -5 8 23.25 1.82
2 -5 -8 24.83 1.47
2 -5 -8 24.8 1.5
2 -5 -8 23.88 1.32
2 -5 -8 24.39 1.5
-2 5 8 26.26 1.39
2 5 -8 27.19 1.39
-2 5 8 25.3 1.1
-2 5 8 25.2 1.13
2 5 -8 23.35 1.28
2 5 -8 25.8 1.12
-1 -5 8 5.66 0.89
1 -5 -8 5.53 0.65
1 -5 -8 5.8 0.93
1 -5 -8 5.48 0.69
1 5 -8 5.4 0.5
1 5 -8 5.41 0.37
1 5 -8 4.97 0.65
-1 5 8 4.58 0.61
-1 5 8 5.51 0.53
-1 5 8 5.2 0.48
-1 5 8 3.86 0.55
1 5 -8 5.62 0.69
1 5 -8 5.87 0.71
0 -5 8 5.91 0.93
0 -5 8 6.04 0.82
0 -5 -8 5.09 0.62
0 5 8 5.5 0.52
0 5 -8 5.91 0.52
0 5 -8 4.01 0.58
0 5 -8 5.36 0.41
0 5 8 6.54 0.77
0 5 -8 5.56 0.73
0 5 -8 4.72 0.63
0 5 -8 5.18 0.55
1 -5 8 1.01 0.5
-1 -5 -8 1.08 0.37
1 -5 8 0.79 0.42
-1 5 -8 0.64 0.4
-1 5 -8 1.16 0.37
-1 5 -8 1.13 0.32
-1 5 -8 1.31 0.34
1 5 8 0.5 0.29
-1 5 -8 1.15 0.36
-1 5 -8 1.36 0.32
-1 5 -8 0.88 0.32
-1 5 -8 0.87 0.3
2 -5 8 1.57 0.39
-2 -5 -8 1.37 0.43
2 -5 8 2.12 0.56
2 -5 8 1.19 0.48
2 -5 8 1.85 0.57
-2 5 -8 1.58 0.46
-2 5 -8 2.12 0.34
2 5 8 1.94 0.17
-2 5 -8 1.08 0.34
-2 5 -8 2.49 0.48
-2 5 -8 1.6 0.27
-2 5 -8 1.7 0.41
3 -5 8 2.39 0.62
-3 -5 -8 3.12 0.51
3 -5 8 3.57 0.53
-3 5 -8 3.24 0.36
-3 5 -8 3.17 0.31
-3 5 -8 3.64 0.59
-3 5 -8 2.78 0.54
-3 5 -8 3.13 0.36
4 -5 8 2.48 0.37
4 -5 8 2.36 0.34
4 -5 8 2.18 0.35
-4 5 -8 2.97 0.46
4 -6 -8 24.66 1.11
4 6 -8 25.6 1.08
-4 6 8 24.73 1.16
3 -6 -8 24.15 1.25
3 -6 -8 24.82 1.08
3 -6 -8 22.39 1.36
3 6 -8 20.62 1.14
3 6 -8 22.01 0.89
-3 6 8 20.29 1.14
-3 6 8 21.13 1.1
2 -6 -8 36.34 1.88
2 -6 -8 35.73 1.87
2 -6 -8 34.67 1.83
2 -6 -8 37.79 1.7
2 6 -8 40.85 1.77
2 6 -8 40.89 1.5
-2 6 8 39.73 1.48
-2 6 8 38.92 1.68
-2 6 8 39.05 1.48
-2 6 8 40.89 1.79
1 -6 -8 51.01 2.16
1 -6 -8 51.92 2.3
-1 -6 8 53.68 2.58
1 6 -8 56.14 2.22
1 6 -8 49.52 2.12
-1 6 8 52.89 1.89
-1 6 8 51.74 1.91
1 6 -8 53.77 1.99
-1 6 8 52.79 2.17
0 -6 -8 34.5 1.79
0 -6 8 35.73 2.04
0 6 8 39.46 1.78
0 6 8 39.21 1.51
0 6 -8 37.74 1.26
0 6 -8 38.24 1.75
0 6 -8 37.92 1.62
0 6 -8 40.49 1.77
0 6 8 38.16 1.53
1 -6 8 85.32 3.67
-1 -6 -8 95.15 3.48
1 -6 8 95.3 3.36
1 -6 8 85.63 3.97
1 6 8 90.26 3.31
-1 6 -8 91.91 3.2
-1 6 -8 93.29 2.95
-1 6 -8 88.49 3
-1 6 -8 85.34 3.23
-1 6 -8 95.18 2.95
-1 6 -8 96.54 3.27
2 -6 8 17.48 1.04
2 -6 8 16.81 1.28
-2 -6 -8 17.22 1.1
2 -6 8 16.47 1.08
2 -6 8 15.18 1.37
-2 6 -8 14.8 0.89
-2 6 -8 15.26 0.75
-2 6 -8 15.23 0.8
-2 6 -8 15.35 0.95
-2 6 -8 15.73 0.74
-2 6 -8 14.74 0.96
-3 -6 -8 16.45 1.27
3 -6 8 14.97 0.83
3 -6 8 14.75 0.9
-3 6 -8 16.32 0.84
-3 6 -8 16.23 0.8
-3 6 -8 15.62 0.87
3 -7 -8 2.08 0.26
3 7 -8 1.75 0.26
2 -7 -8 10 0.78
2 -7 -8 10.03 0.7
-2 7 8 10.2 0.54
2 7 -8 10.25 0.7
2 7 -8 10.33 0.49
-2 7 8 10.3 0.73
-2 7 8 10.24 0.55
1 -7 -8 5.53 0.7
1 -7 -8 6.26 0.63
1 -7 -8 5.96 0.65
-1 7 8 5.16 0.43
1 7 -8 5.82 0.58
-1 7 8 4.96 0.43
1 7 -8 5.98 0.45
1 7 -8 5.72 0.55
-1 7 8 5.53 0.59
0 -7 -8 3.39 0.54
0 -7 -8 3.49 0.57
0 -7 8 3.3 0.45
0 7 -8 3.38 0.38
0 7 8 3.73 0.44
0 7 -8 3.6 0.53
0 7 8 3.01 0.38
0 7 8 3.09 0.47
0 7 -8 4.57 0.46
0 7 -8 3.22 0.37
1 -7 8 1.62 0.35
-1 -7 -8 1.56 0.38
-1 7 -8 1.99 0.28
-1 7 -8 1.63 0.3
1 7 8 2.19 0.51
-1 7 -8 2.05 0.29
1 7 8 2.22 0.41
-1 7 -8 1.61 0.33
1 7 8 2.22 0.35
-1 7 -8 2.43 0.39
2 -7 8 6.06 0.56
-2 7 -8 6.8 0.38
-2 7 -8 6.25 0.48
-2 7 -8 6.84 0.37
-2 7 -8 6.73 0.53
-6 0 9 42.13 1.67
6 0 -9 41.01 1.5
6 0 -9 41.07 1.34
6 0 -9 40.88 1.61
6 0 -9 41.99 1.63
5 0 -9 53.41 2.21
-5 0 9 56.34 2.37
5 0 -9 54.31 2.21
5 0 -9 54.78 2.36
5 0 -9 53.44 2.2
5 0 -9 57.19 2.32
5 0 -9 55.01 2.19
4 0 -9 6.86 0.67
4 0 -9 7.23 0.72
4 0 -9 5.55 0.69
4 0 -9 5.38 0.53
4 0 -9 5.95 0.7
4 0 -9 6.61 0.78
4 0 -9 6.17 0.67
-4 0 9 6.32 0.79
-3 0 9 47.15 2.55
3 0 -9 45.72 1.54
3 0 -9 47.53 2.03
3 0 -9 45.46 1.93
3 0 -9 45.66 2.07
2 0 -9 22.77 1.24
-2 0 9 22.34 1.55
2 0 -9 21.64 1.23
2 0 -9 22.87 1.01
-1 0 9 57.17 2.64
1 0 -9 59.65 2.32
1 0 -9 61.59 2.26
0 0 -9 18 1.13
1 0 9 5.26 0.66
-1 0 -9 5.28 0.67
2 0 9 0.76 0.4
-2 0 -9 0.95 0.41
-3 0 -9 9.53 1.09
3 0 9 10.75 0.6
3 0 9 10.12 0.57
3 0 9 10.52 0.9
3 0 9 10.34 0.63
-3 0 -9 10.9 0.76
3 0 9 9.72 1.13
3 0 9 10.36 0.63
4 0 9 1.04 0.25
4 0 9 1.27 0.46
4 0 9 0.97 0.35
-4 0 -9 1.19 0.33
4 0 9 1.01 0.22
-4 0 -9 1.03 0.51
4 0 9 1.74 0.45
5 0 9 0.27 0.23
5 0 9 0.08 0.18
-5 0 -9 0.28 0.16
5 0 9 0.12 0.2
6 -1 -9 15.98 0.83
6 -1 -9 16.16 0.76
-6 -1 9 15.8 0.93
6 -1 -9 16.22 0.85
-6 1 9 14.29 0.7
6 1 -9 14.24 0.79
6 1 -9 15.54 0.85
6 1 -9 13.99 0.81
5 -1 -9 36.84 1.78
5 -1 -9 35.23 1.75
5 -1 -9 34.39 1.63
5 -1 -9 35.12 1.39
5 -1 -9 36.14 1.68
-5 -1 9 36.76 1.83
5 -1 -9 35.58 1.28
5 1 -9 32.97 1.56
5 1 -9 34.69 1.65
5 1 -9 35.79 1.47
5 1 -9 36.42 1.62
-5 1 9 34.41 1.65
5 1 -9 34.28 1.65
5 1 -9 34.17 1.71
5 1 -9 34.76 1.32
5 1 -9 34.83 1.59
4 -1 -9 48.53 2.34
-4 -1 9 46.05 2.72
4 -1 -9 49.72 1.62
4 -1 -9 53.52 2.21
4 -1 -9 49.84 2.16
4 -1 -9 49.11 2.29
4 -1 -9 51 1.66
4 1 -9 49.98 2.02
4 1 -9 48.36 2.12
4 1 -9 50.82 2.15
-4 1 9 50.28 2.19
4 1 -9 50.67 2.07
4 1 -9 51.46 2.12
4 1 -9 50.6 2.12
4 1 -9 50.87 2.06
4 1 -9 51.51 2.27
3 -1 -9 41.14 1.96
3 -1 -9 41.18 1.61
3 -1 -9 39.06 1.96
-3 -1 9 38.54 2.3
3 -1 -9 39.36 1.56
3 1 -9 42.98 1.78
3 1 -9 43.81 1.96
3 1 -9 43.05 1.84
3 1 -9 43.47 1.6
-2 -1 9 136.5 5.09
2 -1 -9 135.21 4.7
2 -1 -9 140.78 4.97
2 -1 -9 136.85 4.64
2 1 -9 136.05 4.36
2 1 -9 138.83 4.57
2 1 -9 139.6 4.46
1 -1 -9 120.24 4
1 -1 -9 116.75 4.3
-1 -1 9 117.24 4.49
1 1 -9 120.44 3.93
1 1 -9 121.82 3.97
1 1 -9 123.27 4.37
0 -1 9 57.75 2.69
0 -1 -9 53.52 2.51
0 1 -9 60.76 2.25
1 -1 9 87.08 3.78
-1 -1 -9 96.39 3.81
-1 -1 -9 94.93 3.31
1 -1 9 96.74 3.8
-1 1 -9 100.35 3.58
1 1 9 107.75 3.89
2 -1 9 91.36 3.96
-2 -1 -9 97.5 3.36
2 1 9 92.96 3.04
2 1 9 95.5 3.99
-2 1 -9 104.52 3.47
-2 1 -9 91.25 3.68
2 1 9 93.45 2.92
-3 -1 -9 52.12 2.09
3 -1 9 47.42 2.75
3 -1 9 50.99 2.22
3 -1 9 52.48 1.9
3 -1 9 50.37 1.98
3 1 9 52.2 1.86
3 1 9 53.2 2.32
3 1 9 53.66 2.18
-3 1 -9 51.97 1.9
3 1 9 51.54 2.82
3 1 9 50.66 2.22
-3 1 -9 52.52 2.6
3 1 9 53.9 1.85
4 -1 9 34.24 1.18
4 -1 9 32.4 2.15
-4 -1 -9 34.75 1.53
4 -1 9 32.83 1.67
4 -1 9 34.19 1.21
4 1 9 34.89 1.34
4 1 9 34.57 1.58
-4 1 -9 33.82 1.34
4 1 9 34.4 1.31
-4 1 -9 32.61 1.95
4 1 9 34.83 1.66
4 1 9 34.59 1.71
5 -1 9 34.57 1.63
-5 -1 -9 35.02 1.39
5 -1 9 36.38 1.61
5 -1 9 36.48 1.6
5 1 9 33.85 1.53
5 1 9 33.45 1.28
-5 1 -9 34.71 1.45
5 1 9 33.29 1.4
6 -2 -9 30.28 1.3
6 -2 -9 31.88 1.31
-6 -2 9 31.68 1.39
6 -2 -9 31.07 1.26
6 2 -9 30.51 1.26
6 2 -9 31.34 1.23
6 2 -9 28.46 1.21
6 2 -9 31.7 1.3
5 -2 -9 16.82 1.15
5 -2 -9 17.61 1.08
5 -2 -9 16.96 1.02
5 -2 -9 17.85 1.25
-5 2 9 18.05 0.89
5 2 -9 18.53 0.75
5 2 -9 17.99 1.11
5 2 -9 18.88 1.11
5 2 -9 18.13 1.02
5 2 -9 16.72 0.87
5 2 -9 17.46 0.98
4 -2 -9 4.15 0.7
4 -2 -9 4.97 0.7
4 -2 -9 4.25 0.68
4 2 -9 2.36 0.37
4 2 -9 2.71 0.44
4 2 -9 2.61 0.51
-4 2 9 3.14 0.52
4 2 -9 2.64 0.54
4 2 -9 1.76 0.42
4 2 -9 2.62 0.5
4 2 -9 2.39 0.31
4 2 -9 1.72 0.36
3 -2 -9 26.02 1.22
3 -2 -9 24.45 1.49
3 -2 -9 24.75 1.51
3 -2 -9 23.03 2.11
-3 -2 9 25.22 1.74
3 2 -9 26.06 1.24
3 2 -9 24.47 1.16
3 2 -9 24.57 1.38
3 2 -9 24.58 1.18
3 2 -9 27.49 1.48
-2 -2 9 24.13 1.63
2 -2 -9 21.05 1.51
2 -2 -9 21.67 1.33
2 2 -9 20.68 0.92
2 2 -9 23.19 1.43
2 2 -9 20.91 1.08
2 2 -9 22.15 1.25
-1 -2 9 26.82 1.78
1 -2 -9 26.47 1.43
1 -2 -9 28.95 1.47
1 -2 -9 28.17 1.8
1 2 -9 31.34 1.67
1 2 -9 32.53 1.33
0 -2 -9 16.4 1.08
0 -2 9 17.56 1.44
0 2 -9 19.8 1.31
0 2 -9 19.64 1.33
0 2 -9 19.33 1.07
1 -2 9 14.53 1.26
1 -2 9 15.66 1.39
1 -2 9 15.48 1.07
-1 -2 -9 15.38 0.99
-1 2 -9 14.66 1.03
1 2 9 13.49 1.28
-1 2 -9 15.11 0.89
-1 2 -9 13.63 0.76
2 -2 9 19.31 1.58
2 -2 9 19.38 1.32
-2 -2 -9 17.98 1.05
-2 -2 -9 20.48 1.16
-2 2 -9 18.04 1.16
-2 2 -9 17.58 1.07
-2 2 -9 17.64 0.94
-2 2 -9 16.84 0.75
2 2 9 16.7 0.87
-2 2 -9 17.2 1.28
-3 -2 -9 0.89 0.32
3 -2 9 0.85 0.4
3 -2 9 0.8 0.39
3 -2 9 0.68 0.33
3 -2 9 1.15 0.31
-3 -2 -9 1 0.35
3 -2 9 1 0.49
-3 2 -9 1.42 0.35
3 2 9 0.96 0.27
-3 2 -9 0.95 0.36
3 2 9 1.62 0.44
3 2 9 0.89 0.26
3 2 9 0.93 0.31
4 -2 9 1.28 0.31
4 -2 9 1.48 0.37
4 -2 9 1.18 0.4
4 -2 9 0.62 0.39
-4 -2 -9 1.01 0.33
4 -2 9 1.2 0.24
-4 2 -9 0.84 0.27
-4 2 -9 1.2 0.38
4 2 9 1.03 0.27
4 2 9 2.18 0.48
4 2 9 0.9 0.22
4 2 9 1.3 0.3
4 2 9 1.81 0.32
-5 -2 -9 2.46 0.36
5 -2 9 2.36 0.4
5 -2 9 1.77 0.4
-5 2 -9 2.72 0.34
5 2 9 1.77 0.34
5 2 9 2.31 0.25
5 2 9 2.06 0.36
5 2 9 2.82 0.3
5 2 9 2.28 0.27
5 -3 -9 29.14 1.52
5 -3 -9 28.35 0.92
5 -3 -9 29.14 1.39
5 -3 -9 27.61 1.43
5 3 -9 30.05 1.34
5 3 -9 27.74 1.42
5 3 -9 29.19 1.27
5 3 -9 29.34 1.39
-4 -3 9 43.4 2.47
4 -3 -9 45.18 2.21
4 -3 -9 43.87 1.83
4 -3 -9 43.05 1.77
4 -3 -9 47.26 2.24
4 -3 -9 44.83 1.77
4 -3 -9 45.74 2
4 3 -9 46.24 1.81
4 3 -9 45.03 1.98
4 3 -9 44.35 2.04
4 3 -9 43.33 1.43
4 3 -9 46.3 1.92
3 -3 -9 41.28 1.77
3 -3 -9 45.81 2.4
3 -3 -9 47.83 2.26
-3 -3 9 41.21 2.33
3 -3 -9 40.78 1.78
3 -3 -9 40.52 1.88
3 -3 -9 44.44 1.9
3 3 -9 41.55 1.89
3 3 -9 39.23 1.52
3 3 -9 41.11 1.71
3 3 -9 39.92 2
3 3 -9 42.52 1.83
3 3 -9 41.54 1.96
-2 -3 9 48.35 2.6
2 -3 -9 52.3 2.74
2 -3 -9 49.54 2.06
2 -3 -9 51.36 2.32
2 3 -9 48.19 2.13
2 3 -9 47.1 1.82
2 3 -9 50.7 2.3
-2 3 9 53.82 1.81
1 -3 -9 97.34 3.57
1 -3 -9 101.74 3.58
-1 -3 9 98.73 4.22
1 3 -9 92.18 2.77
1 3 -9 98.44 3.68
-1 3 9 95.46 3.1
-1 3 9 93.68 3.45
1 3 -9 88.9 3.31
0 -3 -9 74.65 3
0 -3 9 85.56 3.85
0 3 -9 75.06 2.7
0 3 9 76.71 2.94
0 3 -9 79.92 3.27
0 3 -9 70.67 2.84
1 -3 9 55.59 3.14
1 -3 9 57.4 2.51
1 -3 9 49.06 2.92
-1 -3 -9 56.26 2.41
-1 3 -9 58.33 2.83
-1 3 -9 56.04 2.28
-1 3 -9 55.7 1.84
-1 3 -9 55.3 2.29
1 3 9 55.05 2.03
-1 3 -9 58.01 1.92
2 -3 9 85.22 3.46
-2 -3 -9 86.03 3.06
2 -3 9 87.69 3.14
-2 -3 -9 86.66 3.17
2 -3 9 87.42 3.15
2 -3 9 84.57 4.02
-2 3 -9 83 3.21
-2 3 -9 79.04 3.02
-2 3 -9 78.72 2.63
-2 3 -9 82.22 2.7
2 3 9 81.95 2.77
2 3 9 81.38 2.96
-2 3 -9 76.92 2.61
3 -3 9 38.6 1.72
3 -3 9 38.93 1.91
3 -3 9 41.47 2.22
-3 -3 -9 39.45 1.87
3 -3 9 41.28 1.87
3 -3 9 37.63 1.64
-3 3 -9 43.23 1.61
3 3 9 42.03 1.66
3 3 9 45.36 1.61
-3 3 -9 47.14 2.16
3 3 9 41.39 1.62
3 3 9 45.27 1.63
4 -3 9 28.3 1.71
4 -3 9 28.28 1.25
4 -3 9 27.34 1.43
4 -3 9 28.53 1.2
4 -3 9 28.15 1.43
4 3 9 30.73 1.19
-4 3 -9 28.97 1.17
4 3 9 28.29 1.17
4 3 9 30.1 1.15
-4 3 -9 31.4 1.63
5 -3 9 24.18 1.07
5 -3 9 23.18 1.07
-5 -3 -9 25.15 1.05
5 3 9 23.29 0.89
5 3 9 23.83 0.89
-5 3 -9 22.94 0.82
5 3 9 22.38 1
5 -4 -9 17.43 1.08
5 -4 -9 20.26 1.02
5 -4 -9 19.58 0.72
5 4 -9 21.88 0.88
5 4 -9 21.18 0.98
5 4 -9 20.68 1.05
4 -4 -9 37 1.63
4 -4 -9 38.37 1.56
4 -4 -9 36.62 1.91
4 -4 -9 38.38 1.78
4 -4 -9 36.78 1.67
4 4 -9 37.09 1.63
4 4 -9 35.79 1.67
4 4 -9 37.49 1.76
4 4 -9 35.65 1.45
3 -4 -9 21.52 1.27
3 -4 -9 20.59 1.05
3 -4 -9 20.96 1.43
3 -4 -9 20.75 1.66
-3 -4 9 20.62 1.55
3 4 -9 20.68 1.25
3 4 -9 21.32 1.29
3 4 -9 20.33 1.02
3 4 -9 21.13 1.19
3 4 -9 22.91 1.25
2 -4 -9 6.14 0.72
2 -4 -9 5.94 0.79
2 -4 -9 6.93 0.94
-2 -4 9 6.18 0.9
2 -4 -9 6.3 1.03
2 4 -9 6.24 0.53
2 4 -9 6.61 0.82
2 4 -9 6.2 0.68
2 4 -9 6.13 0.66
2 4 -9 6.36 0.49
-2 4 9 8.73 0.98
-2 4 9 6.61 0.57
-2 4 9 5.85 0.53
1 -4 -9 25.34 1.48
-1 -4 9 24.51 1.92
1 -4 -9 23.79 1.38
-1 4 9 24.59 1.13
1 4 -9 26.42 1.2
-1 4 9 26.55 1.18
1 4 -9 22.3 1.3
-1 4 9 25.96 1.39
1 4 -9 22.97 1.09
1 4 -9 24.86 1.19
1 4 -9 27.04 1.55
-1 4 9 25.93 1.4
1 4 -9 25.64 1.31
0 -4 9 14.04 1.16
0 -4 9 12.51 1.39
0 -4 -9 12.99 1.03
0 4 -9 15.21 0.93
0 4 -9 15.5 1.24
0 4 -9 14.34 0.99
0 4 9 14.71 0.85
0 4 -9 14.71 1.01
0 4 -9 13.92 1.09
0 4 9 13.46 1.01
1 -4 9 9.29 0.83
-1 -4 -9 9.46 0.9
1 -4 9 8.96 1.26
1 -4 9 9.65 0.97
-1 4 -9 8.16 0.76
-1 4 -9 7.73 0.85
-1 4 -9 9.06 0.58
-1 4 -9 8.93 0.6
-1 4 -9 9.06 0.8
-1 4 -9 8.55 0.66
1 4 9 10.6 0.94
-1 4 -9 8.42 1.03
1 4 9 7.27 0.78
-1 4 -9 7.85 0.77
2 -4 9 2.61 0.68
2 -4 9 1.79 0.53
2 -4 9 2.2 0.49
-2 -4 -9 2.04 0.45
-2 -4 -9 2.44 0.48
2 -4 9 2.33 0.49
-2 4 -9 1.86 0.3
-2 4 -9 1.48 0.5
-2 4 -9 1.95 0.44
-2 4 -9 1.88 0.46
-2 4 -9 2.02 0.33
-2 4 -9 2.31 0.56
2 4 9 2.23 0.31
3 -4 9 1.45 0.33
3 -4 9 0.51 0.34
-3 -4 -9 1.21 0.33
3 -4 9 1.56 0.43
3 4 9 1.28 0.29
-3 4 -9 1.38 0.57
3 4 9 1.46 0.24
-3 4 -9 1.31 0.38
-4 -4 -9 5.34 0.54
4 -4 9 5.06 0.55
4 -4 9 4.8 0.45
4 -4 9 5.18 0.48
4 -4 9 5.15 0.55
4 4 9 5.14 0.41
-4 4 -9 4.77 0.52
4 4 9 5.29 0.42
-4 4 -9 5.92 0.73
4 -5 -9 18.38 0.96
4 -5 -9 16.95 0.9
4 -5 -9 17.57 1.13
4 -5 -9 16.54 0.95
4 5 -9 17.83 0.76
4 5 -9 18.45 0.96
3 -5 -9 43.01 2.47
3 -5 -9 44 1.69
3 -5 -9 43.69 1.93
3 -5 -9 44.19 2.14
3 5 -9 44.04 1.61
3 5 -9 44.01 1.86
2 -5 -9 14.3 1.01
2 -5 -9 14.59 1.13
2 -5 -9 14.1 1.13
-2 -5 9 13.18 1.34
-2 5 9 14.4 0.79
2 5 -9 14.64 0.8
-2 5 9 13.85 0.8
-2 5 9 14.38 1.07
-2 5 9 15.39 1.06
2 5 -9 14.22 0.96
1 -5 -9 42.16 2.03
1 -5 -9 40.44 1.87
1 -5 -9 37.16 2.39
1 -5 -9 38.18 2.92
-1 -5 9 39.02 2.57
1 5 -9 40.87 1.84
1 5 -9 40.67 1.63
-1 5 9 40.92 1.59
-1 5 9 41.78 1.9
1 5 -9 38.15 1.41
1 5 -9 39.83 1.78
1 5 -9 40.23 2.07
-1 5 9 39.22 1.59
0 -5 9 72.93 3.16
0 -5 9 68.03 3.71
0 -5 -9 73.68 2.96
0 5 -9 74 2.63
0 5 -9 69.7 2.52
0 5 9 70.69 2.52
0 5 -9 72.56 2.71
0 5 -9 73 3.23
0 5 -9 72.39 2.95
0 5 -9 69.26 2.78
0 5 9 72.78 2.51
0 5 -9 72.01 2.31
0 5 9 69.75 2.8
1 -5 9 39.05 2.07
1 -5 9 33.05 2.53
1 -5 9 32.21 1.97
-1 -5 -9 34.83 1.87
-1 5 -9 35.88 1.66
-1 5 -9 37.54 1.41
-1 5 -9 39.69 1.7
-1 5 -9 37.17 1.44
-1 5 -9 38.18 1.68
-1 5 -9 36.6 1.65
1 5 9 41.94 2.1
-1 5 -9 34.3 2.19
-1 5 -9 35.29 1.72
1 5 9 37 1.84
2 -5 9 53.75 2.64
2 -5 9 55.47 2.26
-2 -5 -9 57.84 2.4
-2 -5 -9 58.8 2.33
2 -5 9 55.81 2.84
2 -5 9 57.08 2.38
-2 5 -9 56.34 2.28
-2 5 -9 56.59 2.19
-2 5 -9 55.53 1.92
-2 5 -9 54.91 1.89
2 5 9 55.28 1.71
-2 5 -9 56.3 2.27
-2 5 -9 55.35 2.34
-3 -5 -9 29.52 1.44
3 -5 9 30.77 1.34
-3 5 -9 29.43 1.5
3 5 9 30.3 1.24
-3 5 -9 29.56 1.46
4 -5 9 28.54 1.24
4 -5 9 28.89 1.13
4 -5 9 29.94 1.16
-4 5 -9 29.45 1.35
-4 5 -9 30.23 1.32
4 5 9 30.4 1.07
4 5 9 31 1.08
4 -6 -9 17.81 0.8
4 6 -9 17.61 0.79
3 -6 -9 13.43 0.8
3 -6 -9 11.89 1.3
3 6 -9 13.98 0.82
3 6 -9 13.32 0.61
2 -6 -9 2.55 0.48
2 -6 -9 1.41 0.44
2 -6 -9 1.89 0.48
-2 6 9 2.09 0.31
-2 6 9 2.27 0.33
2 6 -9 2.36 0.31
2 6 -9 1.9 0.36
-2 6 9 2.46 0.51
1 -6 -9 20.4 1.3
-1 -6 9 19.87 1.42
1 -6 -9 18.78 1.19
1 -6 -9 18.01 1.32
1 6 -9 21.13 1.15
1 6 -9 20.97 1.18
-1 6 9 20.73 0.98
-1 6 9 20.38 1.22
1 6 -9 19.96 0.99
-1 6 9 21.39 1
0 -6 -9 0.58 0.3
0 -6 -9 1.36 0.48
0 -6 9 0.67 0.4
0 6 -9 0.81 0.14
0 6 -9 0.85 0.26
0 6 -9 0.56 0.28
0 6 -9 0.64 0.23
0 6 -9 0.64 0.24
0 6 9 0.86 0.29
0 6 9 0.46 0.23
0 6 -9 0.83 0.3
0 6 9 0.99 0.37
-1 -6 -9 10.97 0.94
1 -6 9 10.51 1.16
1 -6 9 11.37 0.84
1 -6 9 10.88 1.05
-1 6 -9 12.03 0.64
1 6 9 12.15 0.91
-1 6 -9 11.72 0.7
-1 6 -9 11.4 0.78
-1 6 -9 12.45 0.8
1 6 9 11.94 0.75
-1 6 -9 10.91 0.85
-1 6 -9 11.47 0.64
1 6 9 11.34 0.71
-2 -6 -9 4.2 0.52
2 -6 9 4.48 0.54
-2 -6 -9 4.6 0.55
-2 6 -9 3.97 0.3
-2 6 -9 3.36 0.48
-2 6 -9 4.37 0.35
-2 6 -9 3.85 0.43
-2 6 -9 3.93 0.33
-2 6 -9 3.63 0.45
3 -6 9 2.67 0.29
3 -6 9 2.39 0.34
3 6 9 1.78 0.25
-3 6 -9 1.97 0.22
3 6 9 1.91 0.25
-3 6 -9 1.85 0.28
2 -7 -9 13.89 0.7
2 -7 -9 13.22 0.8
-2 7 9 11.59 0.53
2 7 -9 11.65 0.52
-2 7 9 11.89 0.55
2 7 -9 12.7 0.71
1 -7 -9 8.69 0.78
1 -7 -9 8.96 0.67
1 7 -9 9.11 0.53
-1 7 9 9.29 0.53
1 7 -9 9.1 0.66
-1 7 9 8.9 0.53
1 7 -9 8.96 0.63
-1 7 9 9.36 0.69
0 -7 -9 46.18 1.88
0 -7 -9 46.21 2
0 -7 9 44.95 1.85
0 7 9 47.14 1.9
0 7 -9 47.18 1.73
0 7 -9 50.4 1.91
0 7 -9 48.21 1.61
0 7 -9 48.08 1.8
0 7 -9 48.39 1.61
0 7 9 46.9 1.66
0 7 9 48.53 1.68
-1 -7 -9 12.58 0.78
1 -7 9 11.12 0.79
-1 7 -9 12.27 0.75
1 7 9 12.39 0.62
-1 7 -9 11.96 0.57
1 7 9 12.05 0.62
-1 7 -9 11.51 0.69
-1 7 -9 12.66 0.72
-1 7 -9 12.4 0.58
2 -7 9 24.98 1.07
-2 7 -9 26.16 1.03
-2 7 -9 24.51 0.84
2 7 9 26.01 0.93
6 0 -10 0.88 0.17
-6 0 10 1.31 0.24
6 0 -10 1.19 0.24
6 0 -10 0.97 0.22
5 0 -10 18.12 1.14
5 0 -10 16.77 1.03
-5 0 10 18.52 1.14
5 0 -10 18.21 1.05
5 0 -10 16.54 1.09
5 0 -10 17.62 1.01
5 0 -10 18.08 1.02
4 0 -10 8.6 0.8
4 0 -10 9.14 0.78
4 0 -10 8.52 0.63
-4 0 10 9.08 0.89
4 0 -10 9.61 0.82
4 0 -10 8.27 0.87
4 0 -10 9.82 0.87
3 0 -10 30.72 1.6
-3 0 10 30.57 2.03
3 0 -10 30.61 1.47
3 0 -10 30.82 1.61
3 0 -10 30.74 1.07
3 0 -10 26.63 1.99
2 0 -10 52.78 2.22
2 0 -10 51.55 2.19
-2 0 10 57.17 2.76
2 0 -10 51.84 1.95
2 0 -10 55.11 1.85
1 0 -10 87.45 3.05
1 0 -10 83.18 3.14
1 0 -10 87.11 3.11
0 0 -10 102.84 3.73
1 0 10 24.35 1.54
-1 0 -10 23.52 1.47
2 0 10 38.46 2.21
-2 0 -10 37.98 1.58
2 0 10 38.23 1.47
-2 0 -10 39.4 2.13
-2 0 -10 37.99 1.64
2 0 10 39.02 1.39
3 0 10 31.05 1.15
3 0 10 23.49 1.78
3 0 10 29.16 1.13
3 0 10 29.98 1.12
3 0 10 28.83 1.53
-3 0 -10 28.53 1.3
-3 0 -10 29.74 1.89
3 0 10 29.07 2
3 0 10 29.6 1.15
4 0 10 20.47 1.2
4 0 10 20.74 0.84
-4 0 -10 21.07 1
4 0 10 20.36 1.27
-4 0 -10 19.45 1.5
4 0 10 21.49 1.23
5 0 10 29.01 1.32
5 0 10 30.14 1.27
5 0 10 28 1.26
6 -1 -10 43.5 1.61
-6 -1 10 44.15 1.7
6 -1 -10 43.92 1.42
6 -1 -10 43.01 1.59
6 1 -10 45.12 1.42
6 1 -10 46.74 1.64
6 1 -10 43.88 1.57
6 1 -10 45.95 1.64
5 -1 -10 39.95 1.9
-5 -1 10 41.94 1.97
5 -1 -10 40.92 1.66
5 -1 -10 42.82 1.45
5 -1 -10 43.83 1.96
5 -1 -10 42.86 1.87
5 -1 -10 43.04 1.81
5 1 -10 42.92 1.63
-5 1 10 41.83 1.77
5 1 -10 41.91 1.76
5 1 -10 41.71 1.8
5 1 -10 43.87 1.85
5 1 -10 42.14 1.89
5 1 -10 41.82 1.82
5 1 -10 41.38 1.75
5 1 -10 42.87 1.41
-4 -1 10 80.04 3.74
4 -1 -10 77.82 2.5
4 -1 -10 80.9 3.14
4 -1 -10 81.53 2.96
4 -1 -10 81.83 3.26
4 -1 -10 82.32 2.34
4 -1 -10 80.71 2.96
4 1 -10 74.99 2.97
4 1 -10 76.6 2.79
-4 1 10 74.08 2.93
4 1 -10 75.27 2.88
4 1 -10 75.59 2.81
4 1 -10 78.57 3.08
4 1 -10 75.78 2.93
4 1 -10 77.09 2.89
4 1 -10 74.51 2.9
3 -1 -10 85.69 2.87
3 -1 -10 87.48 3.31
3 -1 -10 82.99 3.23
3 -1 -10 88.31 2.77
3 -1 -10 85.87 3.1
-3 -1 10 86.24 3.81
3 1 -10 84.03 3.2
3 1 -10 76.39 3.5
3 1 -10 79.62 3.11
3 1 -10 84.03 3.12
3 1 -10 81.7 2.99
3 1 -10 84.43 3.1
3 1 -10 86.37 2.79
-3 1 10 84.6 3.25
-2 -1 10 41.02 2.27
2 -1 -10 40.12 1.58
2 -1 -10 42.43 1.93
2 -1 -10 37.89 1.92
2 -1 -10 40.69 1.89
2 1 -10 39.56 2.15
2 1 -10 40.42 1.3
2 1 -10 41.09 1.77
2 1 -10 41.17 1.84
2 1 -10 38.31 1.64
1 -1 -10 58.9 2.59
-1 -1 10 58.25 2.8
1 -1 -10 58.9 2.33
1 1 -10 61.37 2.32
1 1 -10 58.88 2.31
1 1 -10 56.62 1.94
1 1 -10 58.89 2.27
1 1 -10 63.81 2.77
0 -1 -10 172.95 5.78
0 1 -10 169.87 5.24
0 1 -10 152.4 5.27
-1 -1 -10 25.9 1.25
-1 -1 -10 26.74 1.65
-1 -1 -10 27.28 1.32
1 -1 10 25.71 1.63
-1 1 -10 23.47 1.22
-1 1 -10 25.29 1.42
-1 1 -10 23.79 1.12
2 -1 10 9.25 0.83
2 -1 10 8.49 0.99
-2 -1 -10 9.29 0.75
-2 -1 -10 9.21 0.72
2 1 10 12.04 0.64
2 1 10 10.35 0.55
-2 1 -10 10.84 0.97
-2 1 -10 11.67 0.76
-2 1 -10 10.15 0.76
2 1 10 10.29 1.08
3 -1 10 19.49 0.99
3 -1 10 18.15 1.17
3 -1 10 19.14 0.92
3 -1 10 17.8 1.58
3 1 10 18.84 1.24
3 1 10 16.87 1.1
-3 1 -10 19.38 1.07
3 1 10 18.39 1.56
3 1 10 18.03 1.17
3 1 10 18.98 0.87
3 1 10 17.41 0.87
-3 1 -10 18.97 1.38
4 -1 10 4.1 0.27
-4 -1 -10 4.73 0.49
4 -1 10 3.33 0.51
4 -1 10 4.04 0.76
4 1 10 3.2 0.51
4 1 10 4.35 0.39
4 1 10 4.05 0.37
4 1 10 4.83 0.66
4 1 10 4.4 0.58
-4 1 -10 4.41 0.68
-4 1 -10 4.78 0.58
5 -1 10 7.43 0.64
-5 -1 -10 8.04 0.5
5 -1 10 7.6 0.62
5 -1 10 8.27 0.66
-5 1 -10 8.46 0.57
5 1 10 8.37 0.54
5 1 10 8.58 0.62
5 1 10 8.48 0.35
6 -2 -10 2.22 0.29
6 -2 -10 1.55 0.24
-6 -2 10 2.29 0.35
6 2 -10 1.21 0.15
6 2 -10 1.09 0.2
6 2 -10 1.06 0.19
6 2 -10 1.34 0.22
5 -2 -10 0.74 0.26
5 -2 -10 1.4 0.38
5 -2 -10 1.01 0.43
5 -2 -10 1.21 0.33
5 2 -10 2.37 0.41
5 2 -10 1.76 0.36
5 2 -10 1.74 0.31
5 2 -10 1.51 0.19
5 2 -10 1.33 0.32
5 2 -10 1.66 0.33
4 -2 -10 8.96 0.55
4 -2 -10 10.64 0.93
-4 -2 10 9.48 1.09
4 -2 -10 9.29 0.88
4 -2 -10 9.41 0.61
4 -2 -10 9.38 0.84
-4 2 10 7.74 0.65
4 2 -10 7.82 0.48
4 2 -10 8.04 0.65
4 2 -10 8.11 0.79
4 2 -10 8.05 0.57
4 2 -10 7.57 0.7
4 2 -10 7.55 0.75
4 2 -10 8.53 0.69
4 2 -10 7.38 0.78
3 -2 -10 26.08 1.62
3 -2 -10 24.54 1.18
3 -2 -10 23.03 1.25
-3 -2 10 23.98 1.74
3 -2 -10 23.39 1.36
3 -2 -10 24.3 1.39
3 -2 -10 24.69 1.49
3 2 -10 25.12 1.24
3 2 -10 24.78 1.35
3 2 -10 24.26 1.3
3 2 -10 24.29 1.15
3 2 -10 24.68 1.28
-3 2 10 25.41 1.22
3 2 -10 25.37 1.61
3 2 -10 24.63 1.39
3 2 -10 23.92 1.19
3 2 -10 25.69 1.44
2 -2 -10 39.31 2.12
2 -2 -10 39.93 1.68
2 -2 -10 39.36 1.92
-2 -2 10 35.31 2.16
2 2 -10 41.46 2.11
2 2 -10 42.22 1.73
2 2 -10 37.72 1.62
2 2 -10 36.45 2.49
2 2 -10 40.95 1.45
2 2 -10 40.62 1.85
1 -2 -10 60.8 2.36
1 -2 -10 60.12 2.86
-1 -2 10 57.03 2.88
1 2 -10 58.96 2.3
1 2 -10 57.29 2.16
1 2 -10 60.13 2.68
0 -2 -10 67.08 3.05
0 -2 -10 59.78 2.44
0 -2 -10 60.29 2.47
0 -2 10 63.5 3.11
0 2 -10 64.26 2.07
0 2 -10 63.61 2.43
0 2 -10 66.68 2.93
0 2 -10 65.04 2.42
-1 -2 -10 93.77 3.34
1 -2 10 92.31 3.5
-1 -2 -10 95.7 3.27
-1 2 -10 89.75 2.94
-1 2 -10 91.8 3.37
1 2 10 90.62 2.93
-1 2 -10 90.99 2.86
-1 2 -10 89.57 3.22
-1 2 -10 93.25 3
2 -2 10 83.8 3.83
2 -2 10 84.79 3.01
2 -2 10 85.09 3.13
-2 -2 -10 80.87 2.99
-2 -2 -10 86.68 3.14
2 -2 10 85.05 3.42
-2 -2 -10 82.99 2.97
2 2 10 83.63 2.73
2 2 10 86.23 2.9
-2 2 -10 82.76 2.81
-2 2 -10 81.98 3.01
-2 2 -10 83.58 3.09
2 2 10 84.59 3.2
-2 2 -10 86.75 3.33
3 -2 10 43.63 1.83
-3 -2 -10 42.02 1.85
3 -2 10 43.22 1.99
3 -2 10 45.89 1.77
3 -2 10 46.29 2.27
3 2 10 42.58 1.63
-3 2 -10 45.48 1.76
-3 2 -10 44.57 2.02
3 2 10 46.17 1.87
3 2 10 43.92 1.92
3 2 10 45.72 1.65
4 -2 10 20.41 0.89
4 -2 10 20.75 0.88
4 -2 10 22.52 1.23
-4 -2 -10 20.76 1.08
4 2 10 20.99 1.04
4 2 10 21.04 0.94
4 2 10 22.32 1.46
4 2 10 21.6 0.92
-4 2 -10 21.14 1.14
-4 2 -10 22.06 1.03
4 2 10 21.47 0.99
5 -2 10 33.22 1.51
-5 -2 -10 36.07 1.31
5 -2 10 34.53 1.43
5 2 10 35.47 1.38
-5 2 -10 34.18 1.23
5 2 10 34.86 1.16
5 2 10 34.35 1.12
5 -3 -10 35.57 1.51
5 -3 -10 33.83 1.62
5 -3 -10 34.73 1.52
5 3 -10 34.47 1.39
5 3 -10 36.41 1.58
5 3 -10 32.85 1.47
5 3 -10 37.99 1.48
4 -3 -10 66.31 2.32
4 -3 -10 68.18 2.39
4 -3 -10 70.72 2.91
4 -3 -10 67.16 2.59
4 -3 -10 65.99 2.82
4 3 -10 67.14 2.01
4 3 -10 68.21 2.43
4 3 -10 63.7 2.64
4 3 -10 65.78 2.51
4 3 -10 65.98 2.59
3 -3 -10 43.43 1.66
3 -3 -10 45.72 2.19
3 -3 -10 45.23 1.84
3 -3 -10 44.47 2.29
3 -3 -10 43.1 1.93
-3 -3 10 41.98 2.41
3 3 -10 41.06 1.96
3 3 -10 40.87 1.73
3 3 -10 40.39 1.91
3 3 -10 41.31 2.08
3 3 -10 42.66 1.58
3 3 -10 42.36 1.85
-2 -3 10 86.3 3.92
2 -3 -10 86.27 3.09
2 -3 -10 87.74 4
2 -3 -10 92.58 3.55
2 -3 -10 89.08 3.36
2 -3 -10 93.1 4.01
2 3 -10 93.24 3.37
2 3 -10 90.92 3.56
-2 3 10 88.34 2.85
2 3 -10 91.01 3
2 3 -10 91.25 3.03
2 3 -10 91.36 3.2
2 3 -10 89.93 3.09
-2 3 10 91.44 2.89
1 -3 -10 30.4 1.56
1 -3 -10 32.69 1.71
1 -3 -10 32.73 2.18
-1 -3 10 30.6 2.1
1 3 -10 35.61 1.63
-1 3 10 33.29 1.36
1 3 -10 35.39 1.09
1 3 -10 34.16 1.86
1 3 -10 33.33 1.45
0 -3 -10 53.79 2.3
0 -3 -10 56.93 2.44
0 -3 10 55.36 2.53
0 -3 10 54.04 3.02
0 3 -10 55.15 2.19
0 3 -10 57.37 1.93
0 3 -10 56.47 2.67
0 3 10 56.1 2.03
0 3 -10 57.01 2.3
0 3 -10 58.15 2.14
1 -3 10 31.76 2.8
-1 -3 -10 30.14 1.61
1 -3 10 31.09 1.57
-1 -3 -10 31.17 1.59
-1 -3 -10 29.43 1.54
1 -3 10 32.28 1.79
-1 3 -10 33.6 1.78
-1 3 -10 33.54 1.58
-1 3 -10 29.95 1.62
-1 3 -10 31.82 1.12
1 3 10 32.84 1.34
-1 3 -10 33.81 1.57
2 -3 10 21.25 1.79
2 -3 10 22.89 1.29
-2 -3 -10 22.41 1.26
-2 -3 -10 21.92 1.26
-2 -3 -10 22.59 1.33
2 -3 10 21.63 1.31
2 -3 10 21.82 1.51
2 3 10 25.32 1.09
-2 3 -10 24.36 1.3
-2 3 -10 24.9 1.01
2 3 10 24.91 1.13
-2 3 -10 24.14 0.97
2 3 10 24.84 1.26
-2 3 -10 24.24 0.95
-2 3 -10 24.86 1.4
3 -3 10 22.28 1.28
3 -3 10 24.06 1.03
-3 -3 -10 22.3 1.19
3 -3 10 23.04 1.13
3 -3 10 23.44 1.23
-3 -3 -10 24.69 1.32
3 -3 10 22.79 1.51
-3 3 -10 20.59 0.94
3 3 10 20.38 1.03
3 3 10 20.1 0.97
3 3 10 19.98 0.97
3 3 10 20.31 0.99
-3 3 -10 21.03 1.33
4 -3 10 7.02 0.64
4 -3 10 7.35 0.5
-4 -3 -10 7.73 0.61
4 -3 10 8.03 0.65
4 -3 10 6.68 0.46
4 3 10 5.5 0.44
-4 3 -10 6.14 0.41
-4 3 -10 6.21 0.66
4 3 10 5.98 0.41
4 3 10 6.19 0.44
-5 -3 -10 15.5 0.71
5 -3 10 13.74 0.84
5 3 10 16.45 0.75
5 3 10 16.42 0.62
5 3 10 17.03 0.62
5 -4 -10 1.74 0.28
5 4 -10 2.22 0.23
5 4 -10 1.79 0.28
5 4 -10 2.46 0.27
4 -4 -10 24.74 1.18
4 -4 -10 24.66 1.13
4 -4 -10 25.48 1.26
4 -4 -10 23.78 1.41
4 4 -10 26.11 1.23
4 4 -10 25.11 1.1
4 4 -10 25.98 1.36
-3 -4 10 10.64 1.52
3 -4 -10 10.37 0.8
3 -4 -10 9.91 0.74
3 -4 -10 10.57 0.93
3 -4 -10 9.83 1.09
3 -4 -10 10.17 0.97
3 4 -10 10.12 0.79
3 4 -10 10.12 0.87
3 4 -10 10.18 0.67
2 -4 -10 22.45 1.43
-2 -4 10 23.29 1.76
2 -4 -10 23.95 1.5
2 -4 -10 25.89 1.95
2 -4 -10 24.36 1.29
-2 4 10 22.8 1.06
2 4 -10 23.24 1.24
2 4 -10 24.24 1.03
-2 4 10 23.62 1.06
2 4 -10 21.89 1.11
2 4 -10 22.96 1.41
1 -4 -10 50.4 2.35
-1 -4 10 52.54 2.96
1 -4 -10 52.26 2.47
1 -4 -10 51.49 2.23
-1 4 10 51.08 1.93
-1 4 10 47.94 2.21
1 4 -10 49.43 2.37
1 4 -10 50.88 1.98
1 4 -10 49.99 1.93
1 4 -10 50.59 2.07
1 4 -10 51.52 1.91
0 -4 -10 30.67 1.69
0 -4 10 28.77 1.74
0 -4 -10 28.66 1.58
0 -4 10 26.04 2.13
0 4 10 29.01 1.29
0 4 -10 30.48 1.21
0 4 10 29.07 1.58
0 4 -10 29 1.4
0 4 -10 29.09 1.43
0 4 -10 28.81 1.82
0 4 -10 30.73 1.42
0 4 10 28.63 1.33
0 4 -10 29.68 1.5
0 4 -10 29.55 1.23
0 4 -10 30.38 1.58
-1 -4 -10 54.42 2.45
-1 -4 -10 49.11 2.69
1 -4 10 55.62 3.28
1 -4 10 59.3 2.68
1 -4 10 57.42 2.36
1 -4 10 57.94 2.46
1 4 10 57.31 2.13
-1 4 -10 58.26 2.44
-1 4 -10 55.88 1.97
-1 4 -10 57.16 1.96
-1 4 -10 56.66 2.36
1 4 10 56.9 2.09
-1 4 -10 57.91 2.03
-1 4 -10 54.63 2.86
-1 4 -10 57.59 2.32
-2 -4 -10 18.62 1.17
2 -4 10 20.91 1.44
2 -4 10 17.44 1.09
2 -4 10 14.24 1.06
-2 -4 -10 18.95 1.09
-2 4 -10 16.93 1.21
-2 4 -10 16.46 0.98
2 4 10 16.72 0.76
-2 4 -10 17.22 1.17
-2 4 -10 15.74 0.77
-2 4 -10 15.57 1.04
2 4 10 16.26 0.87
2 4 10 15.89 0.89
-2 4 -10 15.85 0.75
3 -4 10 15.8 0.96
3 -4 10 15.43 0.98
3 -4 10 16.3 1.02
3 -4 10 14.65 0.82
-3 -4 -10 14.32 0.97
3 -4 10 13.28 1.15
-3 -4 -10 16.15 0.96
3 4 10 14.39 0.67
3 4 10 14.52 0.76
3 4 10 15.9 0.79
-3 4 -10 15.47 1.18
-3 4 -10 15.51 0.93
4 -4 10 23.13 1.09
4 -4 10 21.09 1.04
-4 -4 -10 23.14 1.05
4 -4 10 22.42 0.93
4 -4 10 22.91 0.96
-4 4 -10 21.56 1
4 4 10 22.24 0.89
-4 4 -10 22.9 1.24
4 4 10 22.35 0.9
4 -5 -10 33.68 1.31
4 -5 -10 33.07 1.33
4 5 -10 33.82 1.2
4 5 -10 33.34 1.36
3 -5 -10 49.65 1.88
3 -5 -10 53.19 2.11
3 -5 -10 50.38 2.24
3 5 -10 44.45 1.71
3 5 -10 46.41 1.91
2 -5 -10 86.9 3.39
2 -5 -10 85.55 4.01
2 -5 -10 81.71 3.29
2 -5 -10 87.29 3.1
-2 5 10 86.99 2.82
-2 5 10 86.78 2.8
2 5 -10 88.47 2.89
2 5 -10 87.05 3.08
-1 -5 10 17.91 1.35
1 -5 -10 20.13 1.41
-1 -5 10 17.43 1.64
1 -5 -10 18.93 1.3
1 -5 -10 19.29 1.21
1 5 -10 19.33 1.19
-1 5 10 18.75 1.23
1 5 -10 19.28 1.1
1 5 -10 18.89 0.99
-1 5 10 17.35 0.92
1 5 -10 19.24 0.86
-1 5 10 18.33 0.98
0 -5 10 15.92 1.64
0 -5 10 15.54 1.22
0 -5 -10 14.95 1.14
0 -5 -10 14.76 1.1
0 5 -10 15.71 0.68
0 5 -10 14.8 0.91
0 5 10 13.63 1.06
0 5 -10 13.8 0.76
0 5 10 13.58 0.82
0 5 -10 15.53 0.97
0 5 -10 14.99 1.05
0 5 10 14.83 0.88
0 5 -10 13.95 0.79
0 5 -10 14.69 0.88
1 -5 10 20.15 1.2
1 -5 10 22.58 1.36
-1 -5 -10 22.07 1.35
-1 -5 -10 21.45 1.47
1 -5 10 21.36 1.48
-1 5 -10 22.47 1.18
-1 5 -10 21.91 1.15
1 5 10 20.52 1.06
-1 5 -10 21.31 0.94
-1 5 -10 18.99 1.11
-1 5 -10 21.61 1.23
-1 5 -10 20.48 0.94
1 5 10 18.99 1.01
-1 5 -10 20.35 1.14
2 -5 10 13.02 0.91
-2 -5 -10 13.13 0.88
2 -5 10 11.53 1.06
-2 -5 -10 12.69 0.94
-2 5 -10 14.83 0.95
2 5 10 13.59 0.52
-2 5 -10 13.33 0.9
-2 5 -10 14.1 0.67
2 5 10 14.08 0.75
-2 5 -10 14.42 0.92
-2 5 -10 13.87 0.66
2 5 10 13.35 0.75
-3 -5 -10 5.14 0.54
3 -5 10 5.53 0.44
-3 -5 -10 5.47 0.52
3 -5 10 5.76 0.57
3 5 10 4.96 0.4
3 5 10 4.94 0.41
-3 5 -10 4.81 0.54
-3 5 -10 5.12 0.55
4 -5 10 2.13 0.3
-4 -5 -10 2.55 0.36
4 -5 10 2.57 0.24
4 5 10 1.62 0.19
4 5 10 2.03 0.22
-4 5 -10 1.86 0.28
3 -6 -10 5.5 0.37
3 -6 -10 5.7 0.55
3 6 -10 5.02 0.45
3 6 -10 5.13 0.33
2 -6 -10 24.54 1.32
2 -6 -10 25.96 1.18
-2 6 10 24.6 0.99
2 6 -10 24.56 1.19
-2 6 10 24.48 0.97
2 6 -10 24.75 1.04
-1 -6 10 10.34 1.06
1 -6 -10 10.48 0.94
1 -6 -10 11.26 0.93
1 -6 -10 10.71 0.83
1 6 -10 11.35 0.78
1 6 -10 12.1 0.83
-1 6 10 10.74 0.66
-1 6 10 11.02 0.65
1 6 -10 11.13 0.68
0 -6 -10 13.93 1.05
0 -6 10 14.42 1.17
0 -6 -10 15.16 1
0 6 10 13.19 0.77
0 6 -10 15.24 0.9
0 6 10 14.86 0.8
0 6 -10 13.94 0.94
0 6 -10 15.3 0.73
0 6 -10 15.05 0.84
0 6 -10 14.74 0.74
-1 -6 -10 42.99 1.83
-1 -6 -10 42.67 1.92
1 -6 10 43.34 1.83
-1 6 -10 43.06 1.53
-1 6 -10 44.02 1.75
1 6 10 44.5 1.62
-1 6 -10 43.4 1.57
-1 6 -10 44.84 1.53
1 6 10 46.02 1.64
-1 6 -10 44.78 1.74
-1 6 -10 45.83 1.85
2 -6 10 17.13 0.93
-2 -6 -10 16.01 0.9
-2 -6 -10 16.62 0.96
2 6 10 16 0.74
-2 6 -10 16.37 0.67
-2 6 -10 16.98 0.84
2 6 10 18.15 0.78
-2 6 -10 15.99 0.79
-2 6 -10 16.75 0.68
-2 6 -10 17.09 0.91
3 -6 10 16.51 0.79
3 -6 10 15.46 0.77
3 6 10 16.16 0.65
-3 6 -10 16.13 0.71
2 -7 -10 23.88 1
2 7 -10 25.61 0.82
2 7 -10 23.03 0.97
1 -7 -10 17.59 0.94
1 -7 -10 17.93 0.91
1 -7 -10 17.12 0.83
1 7 -10 15.76 0.71
-1 7 10 16.4 0.68
1 7 -10 16.21 0.8
1 7 -10 15.76 0.68
1 7 -10 15.87 0.68
-1 7 10 16.44 0.69
0 -7 -10 7.89 0.66
0 -7 -10 8.28 0.6
0 -7 -10 8.3 0.63
0 7 -10 10.33 0.49
0 7 -10 11.16 0.62
0 7 -10 10.22 0.57
0 7 -10 10.06 0.49
0 7 -10 9.23 0.6
0 7 10 10.32 0.52
0 7 10 9.82 0.51
-1 -7 -10 9.5 0.59
1 -7 10 9.1 0.63
1 7 10 10.31 0.49
-1 7 -10 8.55 0.54
1 7 10 9.39 0.48
-1 7 -10 8.94 0.44
-1 7 -10 9.79 0.45
-1 7 -10 8.89 0.54
6 0 -11 46.31 1.57
-6 0 11 43.85 1.43
6 0 -11 43 1.37
5 0 -11 45.01 1.98
-5 0 11 45.1 1.9
5 0 -11 45.14 1.54
5 0 -11 45.01 1.76
5 0 -11 47.52 1.83
5 0 -11 46.89 1.86
4 0 -11 43.34 2
4 0 -11 42.3 1.55
4 0 -11 43.02 1.98
4 0 -11 42.32 1.58
-4 0 11 41.51 1.97
4 0 -11 42.2 2
4 0 -11 42.96 1.89
4 0 -11 42.38 1.85
3 0 -11 80.87 3.09
3 0 -11 79.54 2.57
3 0 -11 75.69 2.34
3 0 -11 79.52 3.16
3 0 -11 79.86 2.9
-3 0 11 75.53 3.03
3 0 -11 80.59 2.89
2 0 -11 62.23 2.53
2 0 -11 63.86 2.1
2 0 -11 63.06 2.52
1 0 -11 112.51 3.77
1 0 -11 119.36 3.47
1 0 -11 118.45 3.91
1 0 -11 106.31 3.55
1 0 -11 118.72 3.92
1 0 -11 113.57 4.02
0 0 -11 147.08 4.91
0 0 -11 140.26 4.57
0 0 -11 142.13 4.41
1 0 11 153.2 7.05
-1 0 -11 170.62 5.63
-1 0 -11 156.48 5.06
-2 0 -11 82.63 2.72
2 0 11 76.84 3.58
2 0 11 83.21 2.66
2 0 11 79.03 2.51
2 0 11 80.83 2.54
-2 0 -11 80.45 3.4
2 0 11 82.92 3.04
-2 0 -11 82.02 2.9
2 0 11 78.97 2.72
3 0 11 30.42 1.14
-3 0 -11 31.8 1.91
-3 0 -11 30.72 1.31
3 0 11 29.59 1.52
3 0 11 30.23 1.08
3 0 11 29.94 1.13
3 0 11 32.09 1.11
3 0 11 29.55 1.72
-4 0 -11 17.74 0.8
4 0 11 16.21 1.03
-4 0 -11 16.68 1.29
4 0 11 18.01 1.07
4 0 11 17.29 1.1
5 0 11 4.07 0.4
5 0 11 3.92 0.35
5 0 11 4.03 0.4
5 -1 -11 7.68 0.64
5 -1 -11 7.29 0.69
5 -1 -11 7.42 0.66
5 -1 -11 7.07 0.68
-5 -1 11 6.93 0.7
5 1 -11 7.78 0.48
5 1 -11 7.77 0.65
-5 1 11 7.49 0.57
5 1 -11 7.36 0.51
5 1 -11 8.14 0.65
5 1 -11 8.37 0.64
-4 -1 11 1.29 0.47
4 -1 -11 0.74 0.3
4 -1 -11 0.89 0.34
4 -1 -11 1.23 0.5
4 -1 -11 0.83 0.2
4 -1 -11 0.92 0.33
4 1 -11 0.82 0.27
4 1 -11 1.04 0.38
4 1 -11 0.73 0.47
4 1 -11 1.42 0.41
-4 1 11 0.89 0.32
4 1 -11 0.5 0.26
4 1 -11 0.92 0.31
4 1 -11 0.73 0.32
4 1 -11 1.29 0.37
3 -1 -11 7.22 0.51
-3 -1 11 7.37 0.99
3 -1 -11 7.54 0.56
3 -1 -11 7.52 0.77
3 -1 -11 6.89 0.46
3 -1 -11 7.82 0.8
3 -1 -11 7.66 0.75
3 1 -11 6.02 0.69
3 1 -11 6.83 0.7
3 1 -11 6.6 0.5
3 1 -11 6.35 0.73
3 1 -11 7.12 0.76
3 1 -11 6.2 0.51
3 1 -11 7.28 0.94
3 1 -11 7.36 0.68
3 1 -11 6.82 0.69
-3 1 11 6.48 0.7
2 -1 -11 4.34 0.36
2 -1 -11 4.42 0.51
2 -1 -11 4.42 0.77
2 -1 -11 5.08 0.72
2 -1 -11 4.34 0.56
-2 -1 11 3.6 0.7
2 1 -11 4.79 0.68
2 1 -11 4.76 0.75
2 1 -11 5.01 0.55
2 1 -11 4.75 0.27
2 1 -11 5.33 0.64
2 1 -11 4.63 0.52
-1 -1 11 4.11 0.71
1 -1 -11 3.91 0.52
1 -1 -11 5.35 0.59
1 -1 -11 4.08 0.61
1 1 -11 3.59 0.33
1 1 -11 2.76 0.47
1 1 -11 4.37 0.63
1 1 -11 2.83 0.48
1 1 -11 3.58 0.4
0 -1 -11 65.47 2.83
0 -1 -11 62.69 2.37
0 1 11 66.41 2.17
0 1 -11 61.44 2.13
0 1 -11 60.1 2.35
0 1 -11 62.31 2.5
0 1 -11 63.51 2.34
0 1 -11 61.11 2.03
-1 -1 -11 17.4 1.34
-1 -1 -11 17.54 1.01
-1 -1 -11 16.5 0.91
-1 1 -11 15.32 0.86
1 1 11 16.18 0.77
-1 1 -11 12.25 1.73
-1 1 -11 16.62 0.98
-1 1 -11 16.73 1.1
-2 -1 -11 15 0.94
2 -1 11 15.7 0.86
2 -1 11 13.55 1.31
2 -1 11 14.94 1.03
-2 -1 -11 15.38 1.36
-2 -1 -11 13.87 0.88
2 -1 11 14.49 0.93
-2 1 -11 15.83 1.15
2 1 11 15.51 1.21
2 1 11 15.24 0.71
-2 1 -11 16.33 0.97
2 1 11 15.6 0.76
2 1 11 14.97 0.77
-2 1 -11 16.61 0.91
2 1 11 15.9 0.69
3 -1 11 27.83 1.49
3 -1 11 28.48 1.17
3 -1 11 27.69 1.22
-3 -1 -11 30.43 1.95
-3 -1 -11 27.26 1.3
3 1 11 29.3 1.14
-3 1 -11 26.76 1.29
3 1 11 30.04 1.59
3 1 11 28.94 1.16
3 1 11 29.07 1.48
3 1 11 29.98 1.47
-3 1 -11 28.85 1.68
4 -1 11 22.53 1.37
-4 -1 -11 23.19 1.06
4 -1 11 22.58 1.22
4 1 11 23.14 1.23
4 1 11 22.96 0.9
4 1 11 23.1 1.16
4 1 11 23.95 1.2
-4 1 -11 24.09 1.11
4 1 11 22.63 0.91
-4 1 -11 22.11 1.36
5 -1 11 3.62 0.37
5 -1 11 4 0.41
5 -1 11 4.03 0.44
-5 1 -11 2.98 0.43
5 1 11 3.97 0.39
5 1 11 3.96 0.32
5 -2 -11 64.05 2.28
5 -2 -11 59.8 2.4
5 -2 -11 61.37 2.1
5 -2 -11 62.12 2.49
-5 -2 11 65.25 2.48
5 2 -11 62.75 2.3
5 2 -11 62.75 2.24
5 2 -11 59.35 2.31
5 2 -11 65.18 2.27
5 2 -11 62.37 2.05
4 -2 -11 51.66 2.11
4 -2 -11 49.22 2.27
4 -2 -11 50.38 1.72
4 -2 -11 52.19 1.72
4 -2 -11 52.43 2.25
4 2 -11 50.13 1.98
4 2 -11 52.78 2.2
4 2 -11 50.27 2.03
4 2 -11 50.83 1.84
-4 2 11 49.32 1.81
4 2 -11 52.95 2.07
4 2 -11 51.33 2.13
4 2 -11 51.83 1.56
3 -2 -11 76.6 2.65
3 -2 -11 79.78 2.87
-3 -2 11 75.23 3.58
3 -2 -11 79.32 3.22
3 -2 -11 77.38 2.75
3 -2 -11 77.07 3.11
3 2 -11 77.54 3.36
3 2 -11 79.71 2.71
3 2 -11 75.93 2.97
3 2 -11 77.66 2.82
3 2 -11 79.63 2.84
3 2 -11 79.59 3.04
3 2 -11 76.59 2.82
3 2 -11 76.63 2.72
3 2 -11 76.44 2.91
-3 2 11 74.99 2.6
2 -2 -11 61.93 2.52
2 -2 -11 62.1 2.69
2 -2 -11 60.34 2.35
-2 -2 11 61.02 2.99
2 -2 -11 59 2.18
2 -2 -11 55.8 2.12
2 2 -11 54.59 2.69
2 2 -11 57.48 2.28
2 2 -11 53.36 2.22
2 2 -11 54.88 2.16
2 2 -11 52.73 2.42
2 2 -11 56.13 1.91
2 2 -11 55.25 2.36
2 2 -11 55.11 2.29
-1 -2 11 155.11 5.95
1 -2 -11 160.84 5.15
1 -2 -11 154.82 4.92
1 -2 -11 165.17 5.79
1 2 -11 157.19 5.06
1 2 -11 162.99 5.12
-1 2 11 163.79 4.71
1 2 -11 160.22 4.99
1 2 -11 158.49 5.68
0 -2 -11 82.58 3.58
0 -2 11 80.8 3.21
0 -2 -11 75.88 2.81
0 -2 -11 82.65 3.01
0 -2 11 73.08 3.6
0 -2 -11 79.21 2.93
0 2 11 79.37 2.6
0 2 -11 88.88 2.55
0 2 -11 82.36 2.94
0 2 -11 84.53 2.96
0 2 -11 81.31 2.58
-1 -2 -11 67.4 2.61
-1 -2 -11 68.32 2.56
1 -2 11 65.71 2.61
1 -2 11 68.39 2.84
-1 -2 -11 64.96 2.46
-1 2 -11 69.99 2.69
-1 2 -11 67.96 2.25
1 2 11 66.04 2.24
-1 2 -11 66.55 2.53
-1 2 -11 64.89 2.16
2 -2 11 25.41 1.85
-2 -2 -11 28.15 1.35
2 -2 11 25.06 1.38
2 -2 11 26.32 1.28
2 -2 11 26 1.25
2 -2 11 26.59 1.37
-2 -2 -11 25.8 1.39
-2 -2 -11 26.01 1.28
-2 2 -11 25 1.31
2 2 11 26.27 1.1
2 2 11 25.38 1.45
2 2 11 25.35 1.11
-2 2 -11 26.32 1.53
-2 2 -11 26.38 1.14
-2 2 -11 26.08 1.24
3 -2 11 28.87 1.31
3 -2 11 28.84 1.23
3 -2 11 29.09 1.49
-3 -2 -11 27.62 1.34
3 2 11 27.7 1.39
-3 2 -11 27.42 1.21
-3 2 -11 27.46 1.6
-3 2 -11 27.59 1.31
3 2 11 29.2 1.35
3 2 11 27.82 1.15
3 2 11 28.67 1.15
4 -2 11 12.23 0.55
-4 -2 -11 12.81 0.75
4 -2 11 11.86 0.5
4 -2 11 12.21 0.84
4 2 11 12.61 0.62
4 2 11 13.14 0.63
-4 2 -11 12.75 0.68
4 2 11 12.41 0.61
4 2 11 12.93 0.73
-5 -2 -11 5.87 0.34
5 -2 11 5.26 0.47
5 -2 11 5.5 0.43
5 -3 -11 2.96 0.37
5 -3 -11 2.31 0.45
5 -3 -11 2.61 0.38
5 3 -11 2.12 0.31
5 3 -11 1.59 0.25
5 3 -11 2.75 0.27
4 -3 -11 2.55 0.37
4 -3 -11 1.59 0.43
4 -3 -11 2.61 0.34
4 -3 -11 2.12 0.48
4 -3 -11 2.47 0.44
4 3 -11 2.17 0.38
4 3 -11 2.16 0.46
4 3 -11 1.95 0.33
4 3 -11 2.01 0.39
4 3 -11 2.31 0.34
4 3 -11 2.3 0.17
3 -3 -11 5.85 0.58
3 -3 -11 5.85 0.65
3 -3 -11 5.7 0.71
-3 -3 11 5.29 0.83
3 -3 -11 6.36 0.76
3 3 -11 4.02 0.6
3 3 -11 4.32 0.55
3 3 -11 6.64 1.31
3 3 -11 5.37 0.54
3 3 -11 5.1 0.44
2 -3 -11 12.86 0.92
2 -3 -11 12.1 1.23
2 -3 -11 11.66 0.76
2 -3 -11 11.54 0.88
2 -3 -11 12.19 1.02
-2 -3 11 11.21 1.2
2 3 -11 12.77 0.83
2 3 -11 13.64 0.79
2 3 -11 13.71 0.91
2 3 -11 13.88 0.8
2 3 -11 12.66 1.07
1 -3 -11 2.99 0.53
1 -3 -11 3.73 0.57
1 -3 -11 2.84 0.71
1 -3 -11 4.56 0.74
-1 -3 11 2.2 0.62
1 3 -11 4.01 0.53
1 3 -11 4.16 0.42
-1 3 11 4.06 0.45
-1 3 11 4.43 0.48
1 3 -11 2.76 0.45
1 3 -11 3.8 0.57
1 3 -11 3.47 0.71
1 3 -11 4.96 0.68
1 3 -11 3.4 0.48
-1 3 11 3.65 0.39
1 3 -11 4.37 0.51
0 -3 -11 14.64 1.14
0 -3 11 15.97 1.22
0 -3 -11 16.5 1.04
0 -3 -11 15.75 1.09
0 -3 -11 14.81 1.05
0 3 11 16.91 0.89
0 3 11 16.25 0.85
0 3 -11 15.85 1.01
0 3 -11 16.59 0.82
0 3 -11 15.44 1
0 3 -11 17.23 1.12
0 3 -11 17.43 0.93
0 3 -11 16.2 1.32
0 3 -11 16.68 0.79
1 -3 11 21.75 1.3
-1 -3 -11 22.85 1.25
-1 -3 -11 21.69 1.32
-1 -3 -11 21.56 1.25
1 -3 11 19.97 1.25
1 -3 11 22.41 1.48
-1 3 -11 23.01 0.99
-1 3 -11 23.62 0.8
-1 3 -11 24.25 1.27
-1 3 -11 22.32 1.43
1 3 11 24.01 1.06
-1 3 -11 23.88 1.25
1 3 11 25.44 1.1
2 -3 11 32.86 1.88
-2 -3 -11 33.54 1.53
-2 -3 -11 34.3 1.65
-2 -3 -11 33.87 1.57
2 -3 11 32.78 1.61
-2 3 -11 32.82 1.19
2 3 11 34.81 1.55
-2 3 -11 33.62 1.2
2 3 11 33.54 1.32
-2 3 -11 31.94 1.53
-2 3 -11 24.79 2.26
-2 3 -11 32.5 1.62
2 3 11 32.5 1.34
3 -3 11 23.6 1.26
-3 -3 -11 23.6 1.18
3 -3 11 22.84 1.48
3 -3 11 22.09 1.15
3 -3 11 24.36 1.1
3 3 11 22.54 0.99
3 3 11 20.84 0.93
3 3 11 22.63 1.05
3 3 11 21.7 0.97
-3 3 -11 21.97 1.28
-3 3 -11 22.19 0.9
4 -3 11 8.64 0.65
4 -3 11 9.17 0.49
-4 -3 -11 8.58 0.59
4 -3 11 8.8 0.48
4 -3 11 8.78 0.64
4 3 11 9.21 0.44
4 3 11 9.47 0.49
-4 3 -11 9.1 0.41
4 3 11 9.48 0.51
-4 3 -11 8.92 0.7
5 -4 -11 15.21 0.94
5 4 -11 17.37 0.68
5 4 -11 17.48 0.66
5 4 -11 16.91 0.75
4 -4 -11 42.34 1.58
4 -4 -11 44.27 1.97
4 -4 -11 47 2.67
4 -4 -11 45.61 1.64
4 4 -11 42.68 1.61
4 4 -11 45.46 1.59
4 4 -11 44.12 1.72
3 -4 -11 62.95 2.83
3 -4 -11 61.63 2.66
3 -4 -11 63.12 2.47
3 -4 -11 64.77 2.38
3 4 -11 65.46 2.4
3 4 -11 64.01 2.27
2 -4 -11 48.16 2.11
-2 -4 11 51.54 2.77
2 -4 -11 52.54 1.94
2 -4 -11 51.68 2.3
2 -4 -11 52.58 2.77
2 -4 -11 51.76 2.11
-2 4 11 45.51 1.68
-2 4 11 47.53 1.67
2 4 -11 47.68 1.72
2 4 -11 44.81 1.96
2 4 -11 44.56 1.85
1 -4 -11 98.67 3.67
1 -4 -11 99.45 3.5
1 -4 -11 98.05 3.74
-1 -4 11 96.06 4.4
1 4 -11 101.25 3.55
1 4 -11 102.12 3.16
1 4 -11 99.44 3.37
1 4 -11 104 3.23
1 4 -11 98.46 3.42
1 4 -11 96.55 3.26
1 4 -11 93.4 3.82
-1 4 11 100.91 3.24
-1 4 11 99.63 3.21
1 4 -11 100.14 3.21
0 -4 -11 56.56 2.29
0 -4 11 59.38 2.64
0 -4 -11 52.95 2.46
0 -4 11 56.02 3.14
0 -4 -11 55.24 2.41
0 4 -11 53.95 2.12
0 4 -11 53.55 2.19
0 4 -11 54.52 1.92
0 4 -11 55.18 2.28
0 4 -11 51.47 2.66
0 4 11 52.67 2.01
0 4 -11 51.94 2.14
0 4 11 54.96 2
0 4 -11 56.01 1.9
0 4 -11 53.54 2.15
-1 -4 -11 82.12 3.04
1 -4 11 78.92 3.05
1 -4 11 79.71 3.12
-1 -4 -11 79.11 3.05
1 -4 11 81.58 3.41
-1 -4 -11 81.9 3.16
-1 4 -11 84.38 2.66
1 4 11 85.63 2.78
1 4 11 83.47 2.79
-1 4 -11 84.88 3.08
-1 4 -11 86.07 2.62
-1 4 -11 85.02 3.13
-1 4 -11 83.86 2.68
-1 4 -11 82.52 3.02
2 -4 11 40.28 1.76
-2 -4 -11 41.6 1.76
-2 -4 -11 40.71 1.73
-2 -4 -11 39.95 1.82
2 -4 11 41.51 1.83
-2 4 -11 41.12 1.85
-2 4 -11 40.09 1.74
-2 4 -11 39.96 1.39
-2 4 -11 38.11 1.37
-2 4 -11 40.23 1.58
2 4 11 39.37 1.51
2 4 11 40.12 1.53
-2 4 -11 40.58 1.9
2 4 11 39.35 1.55
2 4 11 38.23 1.34
3 -4 11 25.19 1.26
-3 -4 -11 26.74 1.23
3 -4 11 24.63 1.16
3 -4 11 26.38 1.23
3 4 11 25.47 0.92
-3 4 -11 25.6 1.14
3 4 11 25.17 1.03
3 4 11 26.39 1.04
-3 4 -11 25.64 1.42
-4 -4 -11 12.56 0.65
4 -4 11 11.78 0.67
4 -4 11 12.47 0.53
4 -4 11 11.63 0.66
4 -4 11 11.99 0.54
-4 4 -11 11.49 0.77
4 4 11 11 0.52
4 4 11 11.48 0.63
4 4 11 11.86 0.54
4 -5 -11 3.65 0.32
4 -5 -11 3.54 0.32
4 5 -11 3.24 0.33
4 5 -11 3.5 0.27
3 -5 -11 1.27 0.33
3 -5 -11 2.04 0.44
3 -5 -11 0.83 0.33
3 5 -11 0.57 0.22
3 5 -11 0.77 0.18
2 -5 -11 0.22 0.43
2 -5 -11 0.38 0.24
2 -5 -11 0.17 0.25
2 -5 -11 0.27 0.25
-2 5 11 1.05 0.23
2 5 -11 1.15 0.31
2 5 -11 0.68 0.2
-2 5 11 0.7 0.19
1 -5 -11 3.88 0.66
-1 -5 11 4.87 0.83
1 -5 -11 3.97 0.56
1 -5 -11 4.44 0.65
1 5 -11 4.26 0.47
1 5 -11 4.09 0.42
1 5 -11 5.04 0.6
1 5 -11 4.26 0.4
-1 5 11 4.26 0.48
1 5 -11 4.48 0.59
1 5 -11 4.26 0.36
-1 5 11 3.88 0.46
0 -5 11 4.79 0.64
0 -5 -11 5.57 0.69
0 -5 -11 5.64 0.65
0 -5 11 5.75 0.78
0 -5 -11 6.05 0.89
0 5 11 3.57 0.45
0 5 -11 5.18 0.44
0 5 -11 4.56 0.4
0 5 -11 4 0.45
0 5 -11 3.34 0.46
0 5 -11 4.96 0.52
0 5 11 5.13 0.47
0 5 -11 4.98 0.66
1 -5 11 11.58 0.85
1 -5 11 11.78 1.06
1 -5 11 10.5 0.88
1 -5 11 10.08 1.26
-1 -5 -11 10.6 0.82
1 -5 11 11.13 0.82
-1 -5 -11 11.12 0.88
-1 -5 -11 10.29 0.83
1 5 11 11.08 0.67
-1 5 -11 11.53 0.61
-1 5 -11 11.1 0.6
-1 5 -11 11.7 0.77
1 5 11 11.08 0.66
-1 5 -11 11.11 0.81
-1 5 -11 10.68 0.76
-1 5 -11 11.59 0.73
2 -5 11 30.74 1.4
-2 -5 -11 31.25 1.38
2 -5 11 32.45 1.44
-2 -5 -11 31.59 1.49
-2 -5 -11 30.33 1.4
2 5 11 32.66 1.25
-2 5 -11 31.61 1.11
-2 5 -11 34.15 1.44
-2 5 -11 31.81 1.38
2 5 11 30.47 1.21
-2 5 -11 31.96 1.11
-2 5 -11 32.11 1.41
3 -5 11 6.74 0.52
-3 -5 -11 6.74 0.52
3 -5 11 6.86 0.57
3 -5 11 6.76 0.54
3 5 11 6.81 0.42
-3 5 -11 7.2 0.55
-3 5 -11 7.29 0.54
3 5 11 7.49 0.43
3 -6 -11 23.28 1.02
3 6 -11 23.6 0.84
3 6 -11 23.59 1
2 -6 -11 50.78 1.9
2 -6 -11 55.55 1.97
2 -6 -11 55.11 1.78
2 6 -11 50.6 1.76
2 6 -11 51.16 1.89
-2 6 11 46.68 1.71
-1 -6 11 51.4 1.92
1 -6 -11 45.16 1.94
1 -6 -11 47.72 1.87
1 -6 -11 47.81 2.03
1 6 -11 50.68 1.79
1 6 -11 49.88 1.67
-1 6 11 49.71 1.68
1 6 -11 49.33 1.89
1 6 -11 47.89 1.87
-1 6 11 49.45 1.69
1 6 -11 51.84 1.69
0 -6 -11 53.63 1.98
0 -6 -11 54.64 2.16
0 -6 -11 52.72 2.05
0 -6 -11 50.6 2.08
0 6 -11 50.14 1.7
0 6 -11 48.57 1.85
0 6 -11 48.53 1.89
0 6 11 50.21 1.75
0 6 -11 49.05 1.95
0 6 -11 51.06 1.71
0 6 11 47.75 1.74
1 -6 11 17.39 1.02
-1 -6 -11 15.44 0.91
-1 -6 -11 17.58 1.25
-1 -6 -11 16.48 0.91
-1 -6 -11 15.44 0.97
-1 6 -11 17.63 0.88
-1 6 -11 18.08 0.73
1 6 11 18.13 0.78
1 6 11 17.98 0.79
-1 6 -11 18.04 0.91
-1 6 -11 18.23 0.75
-1 6 -11 18.3 0.94
-1 6 -11 18.97 0.73
-2 -6 -11 18.66 0.87
2 -6 11 17.89 0.84
2 6 11 16.66 0.71
-2 6 -11 17.93 0.74
-2 6 -11 17.9 0.85
2 6 11 18.1 0.74
1 -7 -11 0.82 0.21
1 -7 -11 0.78 0.17
1 7 -11 0.96 0.19
1 7 -11 0.64 0.12
1 7 -11 1.02 0.16
-1 7 11 0.78 0.12
0 -7 -11 1.79 0.31
0 -7 -11 1.83 0.28
0 -7 11 1.82 0.32
0 7 -11 2.18 0.3
0 7 -11 1.9 0.25
0 7 11 2.06 0.21
0 7 -11 1.99 0.2
0 7 -11 2.24 0.23
5 0 -12 9.16 0.62
5 0 -12 8.29 0.71
5 0 -12 9.73 0.57
5 0 -12 9.41 0.66
-5 0 12 9.45 0.66
5 0 -12 9.62 0.44
4 0 -12 3.97 0.51
4 0 -12 4.89 0.36
4 0 -12 5.43 0.64
4 0 -12 5.18 0.4
-4 0 12 5.11 0.61
4 0 -12 4.58 0.58
4 0 -12 3.47 0.54
3 0 -12 20.05 1.25
3 0 -12 19.78 1.1
3 0 -12 20.19 1.15
-3 0 12 18.8 1.19
3 0 -12 20.74 1.32
3 0 -12 18.46 0.86
2 0 -12 13.48 0.67
-2 0 12 14.57 0.98
2 0 -12 13.37 0.69
2 0 -12 13.39 0.98
2 0 -12 14.16 0.69
2 0 -12 13.61 0.97
1 0 -12 1.37 0.29
1 0 -12 1.99 0.39
1 0 -12 1.19 0.37
1 0 -12 1.62 0.4
1 0 -12 1.3 0.25
1 0 -12 1.72 0.5
0 0 -12 35.25 1.43
0 0 -12 33.45 1.54
0 0 -12 34.46 1.74
1 0 12 20.63 1.21
-1 0 -12 21.12 1.39
-1 0 -12 21.09 1.06
1 0 12 20.13 1.07
-1 0 -12 20.09 1.12
2 0 12 0.35 0.31
2 0 12 0.65 0.21
2 0 12 1.11 0.3
2 0 12 0.38 0.39
-2 0 -12 0.38 0.24
-2 0 -12 0.73 0.35
3 0 12 11.36 0.46
3 0 12 11.88 1.02
3 0 12 11.88 0.88
-3 0 -12 10.52 1.02
-3 0 -12 11.19 0.67
4 0 12 3.59 0.52
4 0 12 2.88 0.43
4 0 12 3.46 0.48
5 -1 -12 72.66 2.63
5 -1 -12 77.94 2.61
5 -1 -12 73.25 2.64
5 -1 -12 80.12 3.51
-5 -1 12 75.38 2.71
-5 1 12 75.85 2.36
5 1 -12 75.87 2.42
5 1 -12 76.33 2.58
5 1 -12 77.13 2.35
5 1 -12 74.99 2.58
-4 -1 12 48.31 2.13
4 -1 -12 45.56 2.08
4 -1 -12 46.83 2.19
4 -1 -12 47.48 1.9
4 -1 -12 47.12 1.95
4 1 -12 47.23 1.69
-4 1 12 47.71 1.88
4 1 -12 48.47 1.95
4 1 -12 47.67 1.99
4 1 -12 49.19 1.87
4 1 -12 48.92 2.11
4 1 -12 48.27 1.85
3 -1 -12 30.7 1.55
3 -1 -12 28 1.54
-3 -1 12 29.98 1.6
3 -1 -12 28.25 1.13
3 -1 -12 29.66 1.11
3 1 -12 26.32 1.09
3 1 -12 27.31 1.42
3 1 -12 26.91 1.37
3 1 -12 27.4 1.52
3 1 -12 26.37 1.14
3 1 -12 28.22 1.46
3 1 -12 27.93 1.36
-3 1 12 26.51 1.33
-2 -1 12 116.65 4.13
2 -1 -12 118.49 3.92
2 -1 -12 115.89 3.71
2 -1 -12 111.97 4.08
2 -1 -12 117.53 4.22
2 -1 -12 114.91 3.79
2 1 -12 114.42 3.61
2 1 -12 118.89 4.11
2 1 -12 118.41 4.12
2 1 -12 121.79 3.86
2 1 -12 116.75 3.97
2 1 -12 121.17 4.1
-2 1 12 115.41 3.86
1 -1 -12 10.01 0.87
1 -1 -12 10.48 0.68
1 -1 -12 8.67 0.71
1 1 -12 6.71 0.64
1 1 -12 7.2 0.69
1 1 -12 7.24 0.48
1 1 -12 7.1 0.69
1 1 -12 7.55 0.47
0 -1 -12 118.63 3.83
0 -1 -12 116.42 4.52
0 -1 -12 120.83 4.09
0 1 -12 128.05 3.83
0 1 -12 128.61 4.28
0 1 -12 125.62 3.71
0 1 -12 128.6 4.12
0 1 -12 123.82 3.86
-1 -1 -12 107.55 4.23
1 -1 12 105.81 3.57
1 -1 12 108.49 3.69
-1 -1 -12 109.06 3.69
-1 -1 -12 105.01 3.5
1 -1 12 107.94 3.77
-1 1 -12 112.14 3.5
-1 1 -12 108.85 3.95
-1 1 -12 110.18 3.79
1 1 12 106.11 3.31
1 1 12 112.91 3.32
-1 1 -12 109.79 3.7
1 1 12 108.1 3.44
2 -1 12 81.05 2.7
2 -1 12 76.63 2.97
-2 -1 -12 79.59 2.74
2 -1 12 79.65 2.78
-2 -1 -12 82.84 2.87
-2 -1 -12 82.05 3.53
2 1 12 80.77 2.53
-2 1 -12 78.13 2.72
-2 1 -12 78.03 3.1
-2 1 -12 79.44 2.88
2 1 12 78.27 2.54
2 1 12 80.25 3.19
2 1 12 78.38 2.39
2 1 12 79.67 2.43
3 -1 12 65.62 2.23
-3 -1 -12 68.39 3.12
3 -1 12 67.16 2.21
-3 -1 -12 67.43 2.36
3 -1 12 65.25 2.61
3 1 12 68.19 2.57
3 1 12 67.33 2.56
3 1 12 70.11 2.7
3 1 12 68.38 2.18
-3 1 -12 68.79 2.75
3 1 12 68.2 2.17
-3 1 -12 69.56 2.4
4 -1 12 20.44 1.19
4 -1 12 18.8 1.02
-4 -1 -12 18.99 0.81
4 1 12 17.41 0.93
-4 1 -12 17.51 0.86
4 1 12 18.74 1.01
4 1 12 17.38 0.94
5 -2 -12 6.34 0.6
5 -2 -12 5.82 0.49
-5 -2 12 5.81 0.56
5 2 -12 5.71 0.37
5 2 -12 5.16 0.46
5 2 -12 5.91 0.48
4 -2 -12 7.51 0.66
-4 -2 12 7.82 0.78
4 -2 -12 7.1 0.7
4 -2 -12 7.4 0.36
4 -2 -12 6.48 0.7
4 2 -12 5.61 0.57
4 2 -12 5.82 0.62
4 2 -12 6.08 0.47
4 2 -12 5.94 0.46
4 2 -12 6.49 0.58
3 -2 -12 11.27 0.7
3 -2 -12 11.28 0.74
3 -2 -12 12.28 1.05
-3 -2 12 10.32 1.18
3 -2 -12 11.96 0.98
3 2 -12 12.05 0.85
3 2 -12 11.72 0.76
3 2 -12 11.65 0.82
3 2 -12 11.89 0.68
3 2 -12 11.24 0.75
2 -2 -12 2.94 0.45
-2 -2 12 2.51 0.68
2 -2 -12 4.7 0.68
2 -2 -12 4 0.61
2 -2 -12 3.86 0.65
2 2 -12 3.47 0.49
2 2 -12 5.11 0.44
2 2 -12 4.02 0.31
2 2 -12 3.88 0.55
2 2 -12 4.55 0.67
2 2 -12 4.54 0.58
2 2 -12 3.11 0.69
1 -2 -12 7.28 0.58
1 -2 -12 7.68 0.7
-1 -2 12 8.7 0.87
1 -2 -12 7.96 0.93
-1 -2 12 7.75 1
1 -2 -12 8.57 0.72
1 2 -12 6.8 0.58
-1 2 12 7.4 0.62
1 2 -12 7.04 0.76
1 2 -12 6.94 0.67
1 2 -12 7.82 0.54
1 2 -12 7.02 0.69
1 2 -12 6.86 0.49
0 -2 -12 23.56 1.16
0 -2 12 24.6 1.36
0 -2 -12 24.12 1.29
0 -2 -12 22.49 1.29
0 -2 -12 25.02 1.71
0 2 -12 25.4 0.92
0 2 -12 24.67 0.99
0 2 12 23.08 1.03
0 2 -12 24.49 1.26
0 2 12 22.33 1.01
0 2 -12 24.9 1.01
0 2 12 24.82 1
0 2 -12 22.77 1.44
0 2 -12 24.52 1.27
1 -2 12 18.05 1.14
1 -2 12 18.64 1.1
-1 -2 -12 18.65 1.02
-1 -2 -12 18.12 1.07
-1 -2 -12 18.56 1.17
-1 -2 -12 19.29 1.51
1 2 12 18.95 0.85
-1 2 -12 18.02 0.83
1 2 12 17.83 0.7
-1 2 -12 18 1.15
-1 2 -12 18.12 0.78
1 2 12 18.35 0.87
-1 2 -12 18.81 1.09
-1 2 -12 18.86 0.81
2 -2 12 7.69 0.63
-2 -2 -12 8.01 0.69
2 -2 12 8.25 0.71
2 -2 12 7.71 0.57
-2 -2 -12 8.55 0.66
2 -2 12 8.25 0.76
-2 2 -12 7.23 0.52
2 2 12 7.44 0.74
2 2 12 6.6 0.49
-2 2 -12 5.85 0.76
2 2 12 7.29 0.51
-2 2 -12 6.44 0.63
3 -2 12 7.87 0.58
3 -2 12 6.95 0.69
-3 -2 -12 7.17 0.58
3 -2 12 7.49 0.52
-3 2 -12 7.65 0.8
-3 2 -12 8.11 0.53
3 2 12 7.32 0.64
3 2 12 7.27 0.49
3 2 12 7.36 0.61
3 2 12 7.6 0.48
-4 -2 -12 6.03 0.46
4 -2 12 6.32 0.55
-4 2 -12 6.31 0.68
4 2 12 7.19 0.39
4 2 12 6.99 0.47
-4 2 -12 6.88 0.42
4 2 12 7.01 0.38
5 -3 -12 41.73 1.72
5 -3 -12 43.23 1.51
-5 -3 12 42.24 1.65
5 3 -12 42.95 1.5
5 3 -12 44.13 1.4
5 3 -12 41.92 1.5
4 -3 -12 27.49 1.04
4 -3 -12 28.24 1.05
4 -3 -12 27.67 1.45
4 -3 -12 26.13 1.43
4 3 -12 28.22 1.28
4 3 -12 26.69 1.21
4 3 -12 30.88 1.13
3 -3 -12 50.71 1.88
3 -3 -12 49.26 1.95
3 -3 -12 49.3 2.08
3 -3 -12 49.53 2.23
3 3 -12 47.74 1.91
3 3 -12 49.1 1.73
3 3 -12 47.3 1.75
3 3 -12 47.93 1.96
2 -3 -12 45.35 2.36
2 -3 -12 44.28 1.85
2 -3 -12 45.47 1.94
2 -3 -12 45.95 2.03
-2 -3 12 44.57 2.59
2 -3 -12 45.53 1.9
2 -3 -12 46.02 2.13
2 3 -12 46.26 2.33
2 3 -12 48.02 1.78
2 3 -12 47.41 1.72
2 3 -12 49.99 1.81
2 3 -12 49.25 1.94
2 3 -12 47.7 1.9
1 -3 -12 73.77 2.48
1 -3 -12 75.06 2.68
1 -3 -12 73.03 2.68
1 -3 -12 74.37 3.29
-1 -3 12 70.03 3.42
1 3 -12 65.83 2.44
-1 3 12 62.71 2.14
1 3 -12 64.85 2.51
1 3 -12 64.24 2.25
1 3 -12 65.43 2.49
-1 3 12 64.16 2.21
-1 3 12 69.32 2.21
1 3 -12 62.81 2.51
1 3 -12 65.18 2.51
1 3 -12 63.1 3.02
1 3 -12 64.16 2.23
0 -3 -12 65.51 2.54
0 -3 -12 61.96 2.65
0 -3 12 65.35 2.8
0 -3 12 62.68 2.6
0 -3 -12 59.47 2.57
0 -3 -12 63.16 2.39
0 3 -12 64.21 2.55
0 3 -12 65.06 2.14
0 3 -12 62.91 2.45
0 3 -12 66 2.16
0 3 12 63.82 2.16
0 3 12 67.07 2.21
0 3 -12 63.83 2.46
0 3 -12 64.14 2.25
-1 -3 -12 58.44 2.26
1 -3 12 56.6 2.35
1 -3 12 55.77 2.62
-1 -3 -12 59.26 2.4
-1 -3 -12 58.41 2.47
1 -3 12 60.59 2.41
-1 -3 -12 59.98 2.35
-1 3 -12 59.78 1.96
-1 3 -12 58.96 2.51
1 3 12 60.03 2.04
1 3 12 57.66 2.05
-1 3 -12 58.95 2.26
-1 3 -12 59.7 1.97
-1 3 -12 59.1 2.31
-2 -3 -12 74.2 2.79
-2 -3 -12 78.98 2.95
2 -3 12 76.47 2.92
2 -3 12 75.95 3.21
2 -3 12 82.7 2.77
-2 -3 -12 79.08 2.79
2 -3 12 76.97 3.2
2 3 12 79.2 2.79
2 3 12 81.41 2.57
-2 3 -12 79.96 2.91
-2 3 -12 80.11 3.17
2 3 12 79.81 2.58
2 3 12 80.53 2.81
-2 3 -12 80.96 2.84
-2 3 -12 77.48 2.35
3 -3 12 36.07 1.62
3 -3 12 36.24 1.47
-3 -3 -12 35.93 1.51
3 -3 12 35.61 1.41
3 3 12 37.73 1.34
3 3 12 37.7 1.33
-3 3 -12 35.83 1.16
3 3 12 37.39 1.42
3 3 12 36.26 1.23
-3 3 -12 36.4 1.63
-4 -3 -12 23.73 0.95
4 -3 12 22.55 0.74
4 -3 12 23.52 1.04
4 3 12 22.13 0.82
4 3 12 20.97 0.98
4 3 12 21.6 0.81
4 -4 -12 4.65 0.34
4 -4 -12 3.94 0.32
4 4 -12 3.2 0.39
4 4 -12 3.07 0.32
4 4 -12 3.26 0.31
3 -4 -12 0.52 0.24
3 -4 -12 0.87 0.35
3 -4 -12 1.08 0.34
3 4 -12 0.96 0.27
3 4 -12 0.86 0.23
3 4 -12 0.89 0.23
2 -4 -12 7.47 0.65
2 -4 -12 6.96 0.66
2 -4 -12 7.69 0.54
2 -4 -12 7.37 0.93
2 4 -12 6.63 0.63
2 4 -12 7.48 0.54
2 4 -12 8.36 0.55
2 4 -12 7.06 0.59
2 4 -12 7.02 0.47
-1 -4 12 20.46 1.42
1 -4 -12 20.78 1.1
1 -4 -12 20.79 1.66
1 -4 -12 19.79 1.23
-1 -4 12 19.61 1.73
1 -4 -12 19.24 1.18
1 4 -12 19.84 1.07
1 4 -12 20.71 0.95
1 4 -12 19.66 0.99
-1 4 12 20.8 0.93
1 4 -12 20.31 1.11
1 4 -12 20.04 0.9
1 4 -12 21.14 0.92
1 4 -12 20.69 1.17
-1 4 12 19.41 0.9
0 -4 12 2.97 0.65
0 -4 -12 1.96 0.42
0 -4 12 3.05 1.17
0 -4 -12 2.71 0.5
0 -4 -12 2.37 0.49
0 -4 12 2.03 0.5
0 -4 -12 2.09 0.47
0 4 -12 2.42 0.41
0 4 -12 2.47 0.43
0 4 -12 2.49 0.33
0 4 -12 2.25 0.33
0 4 12 2.06 0.32
0 4 -12 2.43 0.44
0 4 12 1.94 0.32
0 4 -12 2.38 0.47
0 4 -12 2.13 0.41
-1 -4 -12 7.22 0.7
1 -4 12 7.83 0.74
-1 -4 -12 7.31 0.66
-1 -4 -12 7.59 0.69
1 -4 12 6.81 0.85
1 -4 12 7.4 0.72
-1 -4 -12 7.4 0.8
1 4 12 7.89 0.57
-1 4 -12 7.33 0.67
-1 4 -12 7.66 0.49
-1 4 -12 7.21 0.69
-1 4 -12 7.99 0.69
-1 4 -12 7.79 0.48
1 4 12 8.47 0.54
2 -4 12 4.89 0.5
-2 -4 -12 4.39 0.52
2 -4 12 4.87 0.56
2 -4 12 4.17 0.7
-2 -4 -12 4.48 0.55
-2 -4 -12 5.28 0.53
2 4 12 4.56 0.39
2 4 12 4.65 0.42
2 4 12 4.55 0.43
-2 4 -12 4.86 0.52
-2 4 -12 4.93 0.4
-2 4 -12 3.64 0.51
-2 4 -12 4.25 0.6
-3 -4 -12 6.21 0.5
3 -4 12 5.75 0.46
3 -4 12 6.72 0.55
3 -4 12 6.3 0.5
3 -4 12 6.26 0.54
-3 4 -12 5.77 0.39
-3 4 -12 5.8 0.61
3 4 12 5.43 0.24
3 4 12 5.97 0.39
3 4 12 5.32 0.38
3 -5 -12 33.77 1.38
3 -5 -12 35.12 1.45
3 5 -12 37.08 1.33
3 5 -12 37.45 1.27
3 5 -12 36.41 1.26
3 5 -12 35.67 1.42
2 -5 -12 16.79 0.92
2 -5 -12 16.09 0.72
2 -5 -12 15.75 0.88
2 5 -12 13.77 0.76
2 5 -12 14.24 0.69
2 5 -12 13.94 0.7
2 5 -12 13.29 0.82
1 -5 -12 57.95 2.33
1 -5 -12 60.43 2.31
1 -5 -12 58.53 2.15
-1 -5 12 57.62 2.58
1 5 -12 57.27 2.17
1 5 -12 57.21 2.2
1 5 -12 60 1.96
1 5 -12 58.88 1.94
-1 5 12 57.95 1.94
-1 5 12 54.49 1.91
1 5 -12 57.58 2.12
1 5 -12 57.5 1.82
0 -5 -12 37.5 1.79
0 -5 -12 36.2 1.61
0 -5 12 36.04 1.65
0 -5 -12 37.11 1.75
0 -5 12 37.62 1.77
0 -5 -12 36.48 1.7
0 -5 12 36.4 1.95
0 5 -12 42.01 1.51
0 5 -12 41.39 1.44
0 5 -12 39.79 1.62
0 5 -12 41.14 1.63
0 5 -12 42.1 1.72
0 5 -12 40.04 1.42
0 5 12 41.72 1.47
0 5 12 38.93 1.44
-1 -5 -12 39.95 1.76
1 -5 12 41.86 1.72
-1 -5 -12 43.27 1.86
-1 -5 -12 42.18 1.67
1 -5 12 43.46 1.8
-1 -5 -12 39.63 1.68
-1 5 -12 39.47 1.39
-1 5 -12 39.18 1.67
-1 5 -12 39.97 1.4
-1 5 -12 41.33 1.6
-1 5 -12 40.44 1.45
1 5 12 38.22 1.46
1 5 12 38.68 1.45
2 -5 12 58.44 2.12
2 -5 12 59.84 2.07
-2 -5 -12 57.25 2.06
-2 -5 -12 60.24 2.1
-2 -5 -12 53.7 2.17
-2 5 -12 58.71 2.09
-2 5 -12 60.31 2.02
-2 5 -12 60.62 2.1
2 5 12 59.75 1.92
2 5 12 59.18 1.91
3 -5 12 22.36 0.97
3 -5 12 23.16 0.94
-3 -5 -12 24.22 0.96
-3 5 -12 23.41 0.91
3 5 12 22.31 0.82
-3 5 -12 23.31 0.97
3 5 12 23.13 0.83
2 -6 -12 6.64 0.43
2 6 -12 6.01 0.45
2 6 -12 5.91 0.38
2 6 -12 6.1 0.37
2 6 -12 5.98 0.37
1 -6 -12 4.88 0.4
-1 -6 12 5.14 0.47
1 -6 -12 4.44 0.46
1 -6 -12 4.84 0.47
1 6 -12 4.78 0.34
-1 6 12 4.48 0.32
-1 6 12 4.62 0.31
1 6 -12 4.87 0.35
1 6 -12 4.68 0.39
1 6 -12 4.69 0.44
1 6 -12 4.89 0.44
0 -6 -12 0.94 0.24
0 -6 -12 1.26 0.3
0 -6 -12 0.9 0.29
0 -6 12 1.04 0.29
0 6 -12 0.82 0.17
0 6 -12 1.34 0.27
0 6 12 0.87 0.18
0 6 -12 0.76 0.21
0 6 -12 0.96 0.17
0 6 12 0.81 0.17
0 6 -12 0.61 0.18
1 -6 12 2.09 0.32
-1 -6 -12 1.95 0.36
-1 -6 -12 2.09 0.32
-1 -6 -12 2.22 0.34
-1 6 -12 2.55 0.22
-1 6 -12 2.34 0.15
-1 6 -12 1.8 0.29
1 6 12 2.13 0.24
-1 6 -12 2.37 0.22
1 6 12 2.22 0.25
-1 6 -12 2.47 0.3
-1 6 -12 2.07 0.31
5 0 -13 11.17 0.63
5 0 -13 11.68 0.51
5 0 -13 12.07 0.67
-5 0 13 11.36 0.61
4 0 -13 40.75 1.85
4 0 -13 40.47 1.66
4 0 -13 40.32 1.68
-4 0 13 38.11 1.66
4 0 -13 39.26 1.35
4 0 -13 40.73 1.74
4 0 -13 38.7 1.33
3 0 -13 83.27 2.97
3 0 -13 86.82 2.7
3 0 -13 90.11 3.34
3 0 -13 87.45 2.72
3 0 -13 85.31 3.26
3 0 -13 87.93 3.05
-3 0 13 88.69 3.14
2 0 -13 23.53 0.93
2 0 -13 23.93 1.31
2 0 -13 23.24 0.92
2 0 -13 22.68 0.94
2 0 -13 22.85 1.33
-2 0 13 23.12 1.26
1 0 -13 51.64 2.08
1 0 -13 56.19 1.95
-1 0 13 57.11 2.17
1 0 -13 57.15 2.19
1 0 -13 56.53 2.36
0 0 -13 3.89 0.54
0 0 -13 2.92 0.48
0 0 -13 2.46 0.61
0 0 13 2.17 0.38
0 0 -13 2.98 0.41
0 0 13 3.45 0.58
-1 0 -13 87.16 3.28
1 0 13 79.86 2.8
1 0 13 83.08 3.01
-1 0 -13 77.27 2.91
-1 0 -13 82.41 2.81
-2 0 -13 18.94 1.3
2 0 13 17.81 0.86
-2 0 -13 19.56 1.02
-2 0 -13 18.11 1.03
2 0 13 18.53 0.83
2 0 13 18.94 1.15
3 0 13 28.2 1.38
3 0 13 27.07 1.51
-3 0 -13 28.03 1.58
-3 0 -13 28.6 1.25
4 0 13 58.17 2.14
4 0 13 57.76 2.11
-4 0 -13 59.6 2
4 0 13 58.73 2.11
5 -1 -13 26.62 1.09
5 -1 -13 26.24 1.11
-5 -1 13 26.72 1.12
5 -1 -13 24.74 1.03
5 1 -13 24.81 0.91
5 1 -13 24.55 0.86
5 1 -13 23.35 0.84
5 1 -13 24.83 1.07
-4 -1 13 40.38 1.78
4 -1 -13 39.59 1.54
4 -1 -13 40.13 1.85
4 -1 -13 39.7 1.81
4 -1 -13 40.49 1.65
4 1 -13 41.51 1.6
4 1 -13 40.23 1.64
-4 1 13 41.6 1.51
4 1 -13 38.58 1.53
4 1 -13 40.01 1.41
4 1 -13 39.31 1.78
4 1 -13 36.94 1.68
3 -1 -13 7.99 0.74
3 -1 -13 8.44 0.78
-3 -1 13 8.25 0.79
3 -1 -13 8.48 0.46
3 1 -13 8.5 0.72
3 1 -13 7.62 0.39
3 1 -13 8.43 0.77
3 1 -13 8.18 0.67
3 1 -13 7.81 0.74
-3 1 13 8.01 0.62
3 1 -13 7.56 0.73
3 1 -13 6.81 0.49
2 -1 -13 21.05 1.05
-2 -1 13 21.36 1.29
2 -1 -13 22.34 1.02
2 -1 -13 23.65 1.34
2 -1 -13 24.01 1.42
-2 1 13 23 1.1
2 1 -13 21.5 1.24
2 1 -13 22.8 0.96
2 1 -13 23.66 1.32
2 1 -13 21.34 0.96
2 1 -13 23.47 1.14
2 1 -13 22.69 1.36
1 -1 -13 27.89 1.49
1 -1 -13 29.13 1.36
1 -1 -13 27.44 1.21
-1 -1 13 28.15 1.44
1 -1 -13 28.23 1.31
1 1 -13 25.95 1.03
1 1 -13 24.54 1.53
1 1 -13 25.48 1.34
1 1 -13 26.05 1
1 1 -13 26.2 1.31
1 1 -13 25.48 1.06
-1 1 13 24.33 1.28
0 -1 -13 4.69 0.62
0 -1 -13 4.32 0.5
0 -1 -13 5.42 0.7
0 -1 13 4.34 0.63
0 -1 -13 4.64 0.66
0 -1 13 3.8 0.51
0 1 -13 2.88 0.33
0 1 -13 2.85 0.3
0 1 -13 4.04 0.66
0 1 -13 2.69 0.44
0 1 13 2.91 0.48
0 1 -13 2.75 0.33
-1 -1 -13 37.08 1.43
1 -1 13 34.71 1.68
-1 -1 -13 36.33 2.02
-1 -1 -13 35.69 1.61
1 -1 13 35.76 1.6
1 -1 13 34.2 1.44
-1 1 -13 36.43 1.62
-1 1 -13 38.11 1.58
-1 1 -13 37.45 1.83
1 1 13 35.53 1.39
-1 1 -13 37.03 1.44
2 -1 13 3.2 0.45
-2 -1 -13 3.94 0.77
2 -1 13 3.38 0.41
-2 -1 -13 4.58 0.59
-2 -1 -13 3.99 0.42
2 -1 13 3.31 0.51
-2 1 -13 2.27 0.34
-2 1 -13 3.06 0.49
2 1 13 3.04 0.62
2 1 13 2.54 0.43
2 1 13 3.33 0.33
2 1 13 3.06 0.24
-2 1 -13 3.83 0.54
3 -1 13 10.42 0.52
-3 -1 -13 10.77 0.61
3 -1 13 10.78 0.8
-3 -1 -13 10.71 1.05
3 -1 13 10.81 0.51
-3 1 -13 11.26 0.9
3 1 13 11.04 0.85
-3 1 -13 11.57 0.67
4 -1 13 0.18 0.23
4 -1 13 0.19 0.17
4 1 13 0.16 0.17
-4 1 -13 0.13 0.12
4 1 13 0.13 0.13
4 1 13 0.25 0.15
5 -2 -13 8.36 0.5
-5 -2 13 8.89 0.59
5 -2 -13 8.54 0.6
5 2 -13 9.18 0.53
5 2 -13 9.42 0.42
5 2 -13 8.79 0.53
5 2 -13 9.26 0.42
4 -2 -13 42.47 1.72
4 -2 -13 41.38 1.87
4 -2 -13 42.33 1.99
4 -2 -13 42.91 1.76
-4 -2 13 43.51 1.88
4 2 -13 44.78 1.53
4 2 -13 43.45 1.5
4 2 -13 44.97 1.73
4 2 -13 40.55 1.68
3 -2 -13 45.42 2.14
3 -2 -13 49.78 1.72
-3 -2 13 49.36 2.16
3 -2 -13 47.73 1.75
3 -2 -13 45.17 2.09
3 2 -13 48.33 1.8
3 2 -13 49.76 1.85
3 2 -13 45.31 1.9
3 2 -13 49.05 1.7
3 2 -13 48.26 1.95
2 -2 -13 29.44 1.54
2 -2 -13 29.34 1.52
2 -2 -13 30.06 1.31
-2 -2 13 31.55 1.63
2 -2 -13 32.1 1.41
2 2 -13 27.82 1.34
2 2 -13 28.31 1.16
2 2 -13 27.78 1.36
2 2 -13 27.86 1.17
2 2 -13 26.75 1.38
1 -2 -13 50.92 2.16
-1 -2 13 48.76 2.24
1 -2 -13 47.53 2.02
1 -2 -13 47.65 2.1
1 -2 -13 50.05 2.47
1 2 -13 54.28 1.83
1 2 -13 56.99 2.2
-1 2 13 56.47 1.98
1 2 -13 58.21 2.18
1 2 -13 56.98 2.31
1 2 -13 57.75 1.88
1 2 -13 58.65 2.02
0 -2 -13 48.53 1.91
0 -2 -13 47.76 1.68
0 -2 -13 47.66 2.34
0 -2 13 46.85 1.92
0 2 -13 41.65 1.34
0 2 13 39.98 1.46
0 2 13 39.71 1.45
0 2 -13 39.96 1.5
0 2 -13 40.34 1.79
0 2 -13 38.29 1.75
0 2 -13 40.59 1.99
0 2 13 40.77 1.51
0 2 -13 41.48 1.49
-1 -2 -13 71.42 2.58
1 -2 13 74.37 2.84
-1 -2 -13 73.19 2.74
-1 -2 -13 70.39 3.27
1 -2 13 72.57 2.67
-1 2 -13 74.94 2.75
-1 2 -13 75.31 2.37
1 2 13 78.48 2.41
-1 2 -13 78.34 2.87
1 2 13 78.62 2.41
2 -2 13 35.5 1.69
-2 -2 -13 34.23 2.11
2 -2 13 35.1 1.47
-2 -2 -13 35.18 1.57
-2 -2 -13 35.03 1.49
2 -2 13 34.69 1.53
2 2 13 34.83 1.69
2 2 13 36.56 1.32
-2 2 -13 38.56 1.78
2 2 13 36.58 1.31
-2 2 -13 39.26 1.61
-2 2 -13 36.27 1.33
2 2 13 36.37 1.64
3 -2 13 32.98 1.26
-3 -2 -13 32.53 1.31
3 -2 13 33.17 1.24
3 -2 13 34.44 1.53
-3 2 -13 32.69 1.59
3 2 13 33.32 1.18
3 2 13 32.81 1.16
3 2 13 32.79 1.4
3 2 13 35.19 1.42
-3 2 -13 34.58 1.22
4 -2 13 55.58 1.95
-4 -2 -13 55.12 1.68
4 -2 13 52.97 2.23
-4 2 -13 54 1.63
4 2 13 54.31 1.76
4 -3 -13 24.77 1.24
-4 -3 13 26.17 1.27
4 -3 -13 24.52 0.8
4 3 -13 25.52 1.1
4 3 -13 24.65 1.09
4 3 -13 25.03 0.97
3 -3 -13 17.08 0.86
3 -3 -13 16.81 0.88
3 -3 -13 16.31 1.08
3 3 -13 16.21 0.78
3 3 -13 16.52 0.91
3 3 -13 15.55 0.91
3 3 -13 15.71 0.74
2 -3 -13 5.52 0.72
2 -3 -13 5.89 0.65
2 -3 -13 6.28 0.68
2 3 -13 7.61 0.56
2 3 -13 7.51 0.52
2 3 -13 7.52 0.64
2 3 -13 8.23 0.52
2 3 -13 7.41 0.51
-2 3 13 7.11 0.47
2 3 -13 7.74 0.66
1 -3 -13 12.43 1.17
1 -3 -13 12.2 0.86
-1 -3 13 12.6 1.01
-1 -3 13 12.89 1.11
1 -3 -13 12.54 0.89
1 -3 -13 12.66 0.75
1 3 -13 12.54 0.69
1 3 -13 12.59 0.82
1 3 -13 14.01 0.89
-1 3 13 13.29 0.53
1 3 -13 13.25 0.67
1 3 -13 13.07 0.85
0 -3 -13 12.24 0.88
0 -3 -13 13.06 0.93
0 -3 -13 13.16 0.81
0 -3 -13 12.44 1.24
0 -3 13 13.23 0.96
0 -3 13 12.41 1.08
0 3 -13 13.47 0.91
0 3 -13 12.39 0.65
0 3 13 12.29 0.64
0 3 -13 12.25 0.85
0 3 -13 12.51 0.67
0 3 -13 13.2 0.94
0 3 13 12.71 0.68
0 3 -13 12.68 0.67
-1 -3 -13 16.44 0.94
1 -3 13 16.5 1.02
1 -3 13 16.05 1.06
-1 -3 -13 15.56 0.99
-1 3 -13 18.95 0.76
1 3 13 18.66 0.83
-1 3 -13 18.57 1.04
1 3 13 16.93 0.8
-1 3 -13 18.34 0.76
-1 3 -13 18.39 0.96
-1 3 -13 18.35 1.2
-2 -3 -13 24.17 1.12
2 -3 13 23.48 1.11
2 -3 13 22.82 0.98
2 -3 13 24.8 1.2
2 -3 13 23.16 1.24
-2 -3 -13 24.19 1.16
-2 3 -13 22.14 1.14
2 3 13 22.46 1.11
-2 3 -13 22.18 1.35
2 3 13 23.32 1.13
2 3 13 22.9 0.95
2 3 13 22.55 0.94
-2 3 -13 22.33 1.15
3 -3 13 2.23 0.33
3 -3 13 2.18 0.28
3 -3 13 2.07 0.37
-3 -3 -13 2.52 0.35
-3 3 -13 2.46 0.49
3 3 13 1.99 0.27
3 3 13 2.69 0.26
3 3 13 2.88 0.27
-3 3 -13 2.71 0.4
-4 -4 13 24.7 1.38
4 4 -13 25.66 0.99
4 4 -13 24.72 1.01
4 4 -13 24.26 0.9
4 4 -13 25.54 0.91
3 -4 -13 25.24 1.1
3 -4 -13 27.59 1.16
3 4 -13 27.47 1.03
3 4 -13 25.48 1.17
3 4 -13 25.92 1.02
3 4 -13 26.55 1.14
2 -4 -13 55.1 2.02
2 -4 -13 52.54 2
2 -4 -13 53.14 1.86
2 -4 -13 48.72 2.57
2 -4 -13 50.12 2.04
2 4 -13 52.02 1.78
2 4 -13 51.62 1.71
2 4 -13 51.58 1.77
2 4 -13 52.22 1.98
2 4 -13 50.63 1.95
-1 -4 13 14.59 1.06
1 -4 -13 13.65 0.94
1 -4 -13 13.09 0.93
-1 -4 13 12.54 1.11
1 -4 -13 14.34 1.3
1 -4 -13 14.41 0.83
1 4 -13 17.46 0.98
1 4 -13 17.1 0.95
-1 4 13 17.71 0.72
1 4 -13 17.9 0.96
1 4 -13 17.4 0.77
1 4 -13 17.43 0.85
-1 4 13 18.81 0.75
1 4 -13 17.81 0.69
1 4 -13 18.12 0.8
0 -4 -13 32.32 1.36
0 -4 13 31.83 1.73
0 -4 -13 31.05 1.51
0 -4 13 31.47 1.48
0 -4 13 31.08 1.52
0 -4 -13 30.56 1.45
0 4 -13 28.85 1.32
0 4 13 28.02 1.15
0 4 -13 26.64 1.36
0 4 -13 28.25 1.28
0 4 -13 28.01 1.13
0 4 -13 29.12 1.15
0 4 13 29.25 1.14
-1 -4 -13 5.18 0.58
1 -4 13 5.2 0.55
1 -4 13 3.8 0.52
-1 -4 -13 4.97 0.53
-1 -4 -13 4.41 0.48
-1 -4 -13 5.37 0.61
1 -4 13 2.88 0.56
-1 4 -13 4.93 0.52
1 4 13 4.85 0.4
-1 4 -13 5.09 0.35
1 4 13 4.98 0.39
-1 4 -13 4.58 0.52
1 4 13 4.9 0.46
-1 4 -13 5.33 0.36
-1 4 -13 4.84 0.52
-2 -4 -13 30.66 1.34
2 -4 13 33.25 1.45
2 -4 13 32.36 1.44
-2 -4 -13 31.37 1.37
2 -4 13 33.16 1.28
2 4 13 35.35 1.22
-2 4 -13 34.77 1.42
2 4 13 34.26 1.21
-2 4 -13 35.03 1.51
-2 4 -13 34.33 1.49
2 4 13 35.14 1.28
3 -4 13 35.31 1.27
-3 -4 -13 36.08 1.3
3 -4 13 34.22 1.32
3 -4 13 34.99 1.37
3 -4 13 33.76 1.25
-3 4 -13 36.17 1.44
3 4 13 35.4 1.18
3 4 13 36.7 1.18
3 -5 -13 15.18 0.73
3 5 -13 16.22 0.77
3 5 -13 15.61 0.64
3 5 -13 16.06 0.71
3 5 -13 16.32 0.66
2 -5 -13 2.4 0.4
2 -5 -13 2.13 0.27
2 5 -13 1.49 0.24
2 5 -13 1.28 0.26
2 5 -13 1.04 0.22
2 5 -13 1.37 0.21
1 -5 -13 5.71 0.44
-1 -5 13 5.9 0.64
1 -5 -13 5.07 0.53
1 -5 -13 5.69 0.53
1 5 -13 4.77 0.46
1 5 -13 4.75 0.37
1 5 -13 4.83 0.37
-1 5 13 4.49 0.33
-1 5 13 4.45 0.32
1 5 -13 5.21 0.46
1 5 -13 4.05 0.48
0 -5 -13 17.26 1
0 -5 13 19.76 1.01
0 -5 -13 17.74 0.88
0 -5 13 18.07 1.02
0 -5 -13 16.14 0.94
0 5 -13 16.69 0.86
0 5 -13 17.01 0.91
0 5 13 15.95 0.73
0 5 -13 16.31 0.73
0 5 -13 17 0.77
0 5 13 17.58 0.73
0 5 -13 15.82 0.72
0 5 -13 18.38 0.96
-1 -5 -13 3.55 0.39
1 -5 13 3.48 0.45
-1 -5 -13 4.17 0.49
-1 -5 -13 3.89 0.47
-1 5 -13 4.12 0.38
1 5 13 4.14 0.32
1 5 13 4.19 0.32
-1 5 -13 4.08 0.28
1 5 13 4.54 0.34
-1 5 -13 3.91 0.42
-1 5 -13 4.32 0.3
2 -5 13 6 0.5
2 -5 13 5.48 0.43
-2 -5 -13 6.08 0.44
2 -5 13 5.79 0.35
2 5 13 6.24 0.35
-2 5 -13 6.12 0.45
2 5 13 6.35 0.36
-2 5 -13 6.28 0.45
-2 5 -13 6.07 0.33
-1 -6 13 16.81 0.91
1 -6 -13 13.54 0.69
1 -6 -13 16.51 0.75
-1 -6 13 17.92 0.88
1 6 -13 16.82 0.74
1 6 -13 17.85 0.78
1 6 -13 17.25 0.66
1 6 -13 16.67 0.65
0 -6 -13 24.15 1.02
0 -6 -13 24.41 0.93
0 -6 13 21.37 1.06
0 -6 -13 23.99 1.04
0 6 -13 25.01 1.01
0 6 -13 24.04 0.97
0 6 -13 25.03 0.85
0 6 13 23.8 0.81
0 6 13 24.06 0.94
0 6 -13 23.78 0.83
0 6 -13 23.49 0.93
-1 -6 -13 13.09 0.59
1 -6 13 13.79 0.64
1 6 13 12.37 0.5
5 0 -14 47.67 1.55
5 0 -14 45.18 1.57
4 0 -14 46.38 1.8
4 0 -14 45.96 1.72
4 0 -14 42.88 1.88
-4 0 14 46.71 1.72
4 0 -14 47.77 1.82
3 0 -14 31.45 1.32
3 0 -14 33.32 1.62
-3 0 14 31.27 1.42
3 0 -14 33.14 1.6
3 0 -14 30.61 1.57
2 0 -14 42.6 1.8
2 0 -14 40.89 1.87
-2 0 14 41.05 1.72
2 0 -14 41.24 1.36
2 0 -14 38.72 1.98
1 0 -14 61.45 2.01
1 0 -14 58.23 2.42
-1 0 14 58.32 2.28
-1 0 14 55.21 2.13
1 0 -14 61.05 2.28
0 0 -14 25.35 1.24
0 0 -14 25.2 1.46
0 0 14 24.36 1.21
0 0 -14 24.11 1.1
0 0 -14 25.82 1.29
1 0 14 9.89 0.8
-1 0 -14 8.96 0.79
-1 0 -14 9.62 0.73
1 0 14 9.75 0.65
-1 0 -14 9.96 0.67
2 0 14 22.93 1.22
-2 0 -14 22.47 1.32
-2 0 -14 21.87 1.13
2 0 14 22.42 0.88
-2 0 -14 23.06 1.07
2 0 14 22.64 0.89
-3 0 -14 10.32 0.63
3 0 14 10.2 0.71
3 0 14 10.74 0.84
4 0 14 6.96 0.47
4 0 14 6.4 0.45
-5 -1 14 5.1 0.34
5 -1 -14 5.36 0.39
5 -1 -14 4.94 0.31
5 1 -14 3.74 0.32
4 -1 -14 12.65 0.89
4 -1 -14 13.12 0.6
-4 -1 14 13.03 0.82
4 -1 -14 14.33 0.91
4 -1 -14 13.61 0.76
4 1 -14 13.56 0.59
4 1 -14 12.97 0.73
4 1 -14 13.72 0.58
4 1 -14 13.55 0.77
4 1 -14 14.12 0.65
3 -1 -14 10.04 0.77
3 -1 -14 10.37 0.4
-3 -1 14 9.77 0.79
3 -1 -14 10.44 0.84
3 -1 -14 9.23 0.91
3 1 -14 10.07 0.54
3 1 -14 11.18 0.75
3 1 -14 11.51 0.78
3 1 -14 11.57 0.81
-3 1 14 10.44 0.64
3 1 -14 10.55 0.56
2 -1 -14 43.01 2
2 -1 -14 44.66 1.58
2 -1 -14 45.46 1.97
-2 -1 14 43.69 1.91
2 1 -14 44.32 1.89
2 1 -14 43.56 1.52
2 1 -14 44.38 2
2 1 -14 42.5 1.5
2 1 -14 42.96 1.69
1 -1 -14 52.38 2.37
1 -1 -14 50.34 1.79
-1 -1 14 48.37 1.97
1 -1 -14 45.79 1.93
1 -1 -14 52.63 2.06
-1 1 14 46.06 1.85
1 1 -14 46.09 1.95
1 1 -14 44.9 2.15
1 1 -14 45.6 1.59
1 1 -14 47.9 1.51
1 1 -14 44.38 1.91
1 1 -14 46.59 1.59
0 -1 14 24.7 1.2
0 -1 -14 25.08 1.28
0 -1 14 22.98 1.3
0 -1 -14 24.86 1.17
0 -1 -14 24.12 1.46
0 -1 14 27.53 1.45
0 1 -14 25.45 1.38
0 1 -14 25.89 1.28
0 1 14 25.6 1.14
0 1 -14 25.22 1.02
-1 -1 -14 2.66 0.56
-1 -1 -14 3.29 0.51
1 -1 14 2.6 0.44
-1 -1 -14 3.51 0.5
1 -1 14 2.45 0.43
-1 1 -14 4.02 0.66
1 1 14 2.85 0.32
-1 1 -14 2.83 0.34
-1 1 -14 1.78 0.36
2 -1 14 42.57 1.6
-2 -1 -14 41.69 1.74
-2 -1 -14 42.72 2.13
2 -1 14 43.26 1.85
2 -1 14 42.73 1.56
2 1 14 47.22 2.05
-2 1 -14 42.71 1.75
-2 1 -14 43.82 2.01
-2 1 -14 44.13 1.6
3 -1 14 11.91 0.77
3 1 14 11.31 0.74
-3 1 -14 11.21 0.6
3 1 14 10.36 0.74
4 -1 14 16.8 0.8
4 -1 14 16.27 0.83
4 1 14 18.03 0.75
-4 -2 14 46.2 1.79
4 -2 -14 43.04 1.61
4 -2 -14 44.32 1.88
4 2 -14 43.14 1.44
4 2 -14 42.89 1.65
4 2 -14 43.89 1.44
4 2 -14 43.61 1.45
4 2 -14 43.14 1.63
3 -2 -14 44.63 1.97
3 -2 -14 45.23 1.54
-3 -2 14 45.2 1.95
3 -2 -14 46.44 1.54
3 -2 -14 43.13 1.93
3 2 -14 44.92 1.57
3 2 -14 47.36 1.63
3 2 -14 45.24 1.77
3 2 -14 44.89 1.71
3 2 -14 44.32 1.55
2 -2 -14 50.31 1.81
2 -2 -14 45.66 2.41
2 -2 -14 50.39 1.88
-2 -2 14 48.68 2.11
2 -2 -14 46.92 1.87
2 2 -14 49.19 1.68
-2 2 14 50.55 1.83
2 2 -14 52.33 1.97
2 2 -14 47.74 1.69
2 2 -14 48.63 1.96
1 -2 -14 18.3 0.99
1 -2 -14 19.34 1.26
-1 -2 14 20.13 1.15
1 -2 -14 18.73 1.07
1 -2 -14 18.79 1.06
1 2 -14 19.08 0.9
1 2 -14 18.81 1.06
1 2 -14 17.63 1.05
1 2 -14 18.13 0.8
1 2 -14 18.11 0.81
1 2 -14 18.53 1.16
-1 2 14 18.09 0.88
0 -2 14 8.62 0.75
0 -2 -14 8.25 0.83
0 -2 -14 8.67 0.72
0 -2 14 8.54 0.71
0 -2 -14 8.63 0.91
0 2 -14 8.86 0.5
0 2 -14 7.98 0.68
0 2 -14 7.1 0.63
0 2 14 8.18 0.46
0 2 -14 8.33 0.83
0 2 -14 8.5 0.47
1 -2 14 1.77 0.44
-1 -2 -14 1.82 0.56
-1 -2 -14 1.87 0.39
1 -2 14 1.59 0.31
-1 -2 -14 1.59 0.3
1 -2 14 1.54 0.41
-1 2 -14 3.05 0.73
-1 2 -14 2.29 0.4
-1 2 -14 3.76 0.58
-2 -2 -14 26.29 1.21
2 -2 14 25.7 1.13
-2 -2 -14 24.55 1.04
2 -2 14 24.94 1.08
2 -2 14 25.89 1.29
-2 2 -14 23.83 0.91
2 2 14 23.07 1.25
2 2 14 25.03 0.92
-2 2 -14 24.83 1.18
-2 2 -14 22.81 1.26
2 2 14 25.18 1.24
-3 -2 -14 2.75 0.28
3 -2 14 3.29 0.25
3 -2 14 3.02 0.24
3 -2 14 3.18 0.43
3 2 14 2.83 0.36
-3 2 -14 2.77 0.22
-3 2 -14 2.26 0.41
3 2 14 3.32 0.34
-4 -3 14 4.02 0.44
4 3 -14 4.04 0.28
4 3 -14 4.42 0.38
4 3 -14 4.11 0.29
4 3 -14 4.29 0.37
3 -3 -14 16.9 1.06
3 -3 -14 18.39 0.83
3 -3 -14 17.55 1.13
-3 -3 14 16.91 1.04
3 -3 -14 16.33 0.78
3 3 -14 18.57 0.94
-3 3 14 18.56 0.68
3 3 -14 19.41 0.96
3 3 -14 19.09 0.79
3 3 -14 19.19 0.78
3 3 -14 18.87 0.75
2 -3 -14 31.29 1.33
2 -3 -14 30.97 1.39
2 -3 -14 30.54 1.53
-2 -3 14 31.18 1.55
2 3 -14 31.94 1.2
2 3 -14 30.79 1.18
2 3 -14 33.33 1.39
2 3 -14 31.64 1.42
2 3 -14 31.25 1.28
-2 3 14 31.45 1.03
2 3 -14 31.32 1.17
1 -3 -14 22.21 1.19
1 -3 -14 21.96 1.45
-1 -3 14 24.58 1.31
1 -3 -14 24.08 1.25
1 -3 -14 19.99 1.35
1 3 -14 23.97 1.19
1 3 -14 23.94 1.15
1 3 -14 23.46 1.14
1 3 -14 23.22 0.94
1 3 -14 23.41 0.96
0 -3 -14 32.73 1.93
0 -3 14 34.18 1.61
0 -3 -14 35.04 1.36
0 -3 14 33.49 1.57
0 -3 -14 33.4 1.55
0 3 -14 34.85 1.53
0 3 -14 33.52 1.57
0 3 -14 34.79 1.24
0 3 -14 37.54 1.59
0 3 -14 33.35 1.1
0 3 14 36.2 1.22
0 3 -14 35.64 1.26
-1 -3 -14 19.59 0.91
-1 -3 -14 18.84 1.44
1 -3 14 20.34 1.11
-1 -3 -14 19.07 1.03
1 -3 14 18.42 0.96
-1 3 -14 15.6 0.94
1 3 14 16.9 0.74
-1 3 -14 16.49 1.03
1 3 14 16.91 1.02
1 3 14 16.59 0.73
-1 3 -14 16.05 0.83
-1 3 -14 16.15 1.09
2 -3 14 7.95 0.6
-2 -3 -14 7.57 0.58
2 -3 14 7.57 0.63
-2 -3 -14 7.52 0.52
2 -3 14 7.57 0.55
2 3 14 8 0.43
-2 3 -14 8.08 0.6
2 3 14 8.09 0.58
-2 3 -14 8.34 0.57
2 3 14 8.28 0.44
-2 3 -14 8.3 0.72
2 3 14 7.7 0.54
3 -3 14 20.51 0.97
3 -3 14 21 0.78
3 -3 14 20.59 0.78
-3 -3 -14 20.69 0.81
3 3 14 20.28 0.8
3 3 14 20.79 0.7
-3 3 -14 20.36 1.07
-3 -4 14 32 1.43
3 -4 -14 32.93 1.2
3 -4 -14 33.63 1.22
3 4 -14 35.19 1.17
3 4 -14 33.5 1.31
3 4 -14 32.33 1.16
3 4 -14 34.25 1.3
-2 -4 14 24.77 1.3
2 -4 -14 24.07 1.19
2 -4 -14 25.12 1.15
2 4 -14 28.21 1.02
2 4 -14 26.81 1.17
2 4 -14 28.59 0.93
2 4 -14 27.27 1.03
2 4 -14 28.16 1.19
1 -4 -14 19.63 1.02
-1 -4 14 18.65 1.08
1 4 -14 18.39 0.8
1 4 -14 17.95 0.93
1 4 -14 18.3 0.96
1 4 -14 18.05 0.97
1 4 -14 18 0.78
1 4 -14 18.07 0.85
0 -4 -14 31.91 1.44
0 -4 14 32.28 1.49
0 -4 -14 32.56 1.29
0 -4 14 32.46 1.49
0 4 14 34.29 1.16
0 4 -14 31.98 1.27
0 4 -14 35.01 1.45
0 4 -14 32.16 1.17
0 4 -14 33.51 1.17
0 4 14 32.78 1.14
0 4 -14 31.95 1.34
-1 -4 -14 5.95 0.53
-1 -4 -14 6.94 0.49
1 -4 14 6.75 0.59
1 4 14 6.35 0.44
1 4 14 5.67 0.38
-1 4 -14 6.64 0.55
-1 4 -14 5.98 0.53
1 4 14 5.98 0.38
-1 4 -14 6.12 0.51
-2 -4 -14 16.61 0.81
2 -4 14 16.98 0.89
2 -4 14 16.85 0.85
-2 -4 -14 16.63 0.78
2 -4 14 17.54 0.83
2 4 14 17.76 0.71
-2 4 -14 17.16 0.83
-2 4 -14 17.74 0.9
2 4 14 18.05 0.68
-2 4 -14 18.06 0.9
2 4 14 17.03 0.66
-2 -5 14 16.71 0.89
2 -5 -14 16.9 0.81
2 5 -14 16.5 0.77
2 5 -14 16.54 0.76
2 5 -14 17.87 0.69
2 5 -14 17.05 0.68
-1 -5 14 12.48 0.72
-1 -5 14 12.3 0.75
1 -5 -14 11.83 0.68
1 5 -14 9.83 0.6
1 5 -14 9.67 0.6
1 5 -14 10.18 0.5
1 5 -14 10.18 0.6
1 5 -14 10.03 0.5
0 -5 -14 25.52 1.13
0 -5 14 26.3 1.18
0 -5 14 26.54 1.17
0 -5 -14 24.55 0.97
0 5 -14 27.1 0.92
0 5 -14 24.89 0.9
0 5 -14 25.59 0.91
0 5 -14 25.07 1.1
0 5 14 25.61 0.87
1 -5 14 15.3 0.76
-1 -5 -14 16.06 0.78
-1 -5 -14 16.12 0.7
1 -5 14 16.07 0.74
-1 5 -14 15.25 0.76
1 5 14 15.43 0.55
1 5 14 15.18 0.59
1 5 14 14.36 0.58
-1 5 -14 16.31 0.68
4 0 -15 0.59 0.26
4 0 -15 0.57 0.2
4 0 -15 0.54 0.19
3 0 -15 0.16 0.14
3 0 -15 0.27 0.23
3 0 -15 0.15 0.2
3 0 -15 0.11 0.21
-3 0 15 0.23 0.17
-2 0 15 7.95 0.57
2 0 -15 7.62 0.83
-2 0 15 8.11 0.71
2 0 -15 7.82 0.64
1 0 -15 20.04 1.1
1 0 -15 19.76 0.84
1 0 -15 21.15 1.21
-1 0 15 20.69 1.09
0 0 -15 26.06 1.44
0 0 -15 25.45 1.08
0 0 15 25.68 1.19
0 0 -15 25.06 1.26
-1 0 -15 17.43 0.97
1 0 15 16.79 0.82
-1 0 -15 16.55 0.9
-1 0 -15 17.3 0.85
2 0 15 12.31 0.46
-2 0 -15 11.87 0.67
-2 0 -15 11.7 0.74
2 0 15 13.4 0.82
3 0 15 19.36 0.9
-3 0 -15 17.63 0.79
3 0 15 19.32 1
-4 -1 15 39.65 1.46
4 -1 -15 39.34 1.57
4 1 -15 39.76 1.4
4 1 -15 37.57 1.41
-3 -1 15 76.89 2.65
3 -1 -15 76.06 2.87
3 -1 -15 71.71 2.74
3 -1 -15 75.28 2.59
3 1 -15 72.59 2.26
3 1 -15 73.49 2.28
3 1 -15 77.98 2.63
3 1 -15 79.3 2.63
2 -1 -15 49.83 2.09
-2 -1 15 47.67 1.95
2 -1 -15 49.29 1.67
2 1 -15 49.74 1.61
2 1 -15 54.16 2.05
2 1 -15 50.68 1.74
-2 1 15 50.88 1.9
2 1 -15 49.73 2.08
2 1 -15 50.6 1.62
1 -1 -15 74.26 2.65
-1 -1 15 70.03 2.66
-1 -1 15 68.81 2.54
1 -1 -15 71.82 2.86
1 -1 -15 71.49 2.42
1 1 -15 78.8 2.67
1 1 -15 74.68 2.88
1 1 -15 74.02 2.62
-1 1 15 73.34 2.5
0 -1 15 50.8 1.96
0 -1 15 47.47 1.73
0 -1 -15 48.81 1.97
0 -1 -15 52.6 1.84
0 -1 -15 48.14 2.05
0 -1 15 50.64 2.04
0 1 -15 50.31 2.05
0 1 -15 47.56 1.95
0 1 -15 48.69 1.6
0 1 15 48.24 1.74
-1 -1 -15 43.12 1.65
-1 -1 -15 41.08 1.92
1 -1 15 42.06 1.63
1 -1 15 45.73 1.84
-1 -1 -15 45.9 1.79
-1 1 -15 41.81 1.87
-1 1 -15 41.11 1.45
1 1 15 40.38 1.28
1 1 15 39.96 1.34
-1 1 -15 39.97 1.71
-2 -1 -15 16.02 0.86
2 -1 15 15.87 0.93
2 -1 15 15.66 0.71
2 -1 15 14.67 0.68
-2 -1 -15 15.59 0.83
-2 1 -15 15.74 1.02
2 1 15 17.03 1.03
-2 1 -15 16.28 0.87
-2 1 -15 16.39 0.72
3 -1 15 12.05 0.69
-3 -1 -15 11.49 0.62
3 -1 15 11.61 0.8
-3 1 -15 10.9 0.5
3 1 15 11.33 0.66
3 1 15 10.76 0.66
-4 -2 15 0.83 0.21
4 -2 -15 1.28 0.3
-4 2 15 1.24 0.18
4 2 -15 1.25 0.12
4 2 -15 1.09 0.21
4 2 -15 1.11 0.15
-3 -2 15 1.05 0.3
3 -2 -15 0.77 0.29
3 -2 -15 0.97 0.12
3 2 -15 0.98 0.24
3 2 -15 0.98 0.19
3 2 -15 1 0.18
-3 2 15 0.98 0.22
3 2 -15 1.14 0.16
3 2 -15 0.64 0.19
2 -2 -15 5.06 0.76
-2 -2 15 4.02 0.51
2 -2 -15 3.98 0.37
-2 2 15 3.82 0.37
2 2 -15 4.69 0.47
2 2 -15 4.16 0.33
2 2 -15 4.45 0.33
2 2 -15 4.21 0.46
1 -2 -15 7.79 0.55
1 -2 -15 7.18 0.67
-1 -2 15 6.83 0.61
1 -2 -15 6.98 0.62
1 2 -15 6.16 0.63
1 2 -15 7.29 0.43
-1 2 15 6.31 0.43
1 2 -15 6.62 0.63
1 2 -15 6.34 0.58
1 2 -15 6.79 0.41
1 2 -15 7.18 0.42
0 -2 15 1.77 0.39
0 -2 -15 2.64 0.46
0 -2 -15 2.37 0.38
0 -2 15 1.87 0.36
0 -2 -15 1.73 0.45
0 2 -15 1.9 0.35
0 2 -15 2.91 0.49
0 2 -15 2.92 0.42
1 -2 15 18.16 1.04
-1 -2 -15 18.07 1.7
-1 -2 -15 19.45 1.01
1 -2 15 20.82 1.01
-1 2 -15 19.28 1
-1 2 -15 18.18 1.17
1 2 15 18.13 1.15
-1 2 -15 17.82 0.98
2 -2 15 9.03 0.66
2 -2 15 8.78 0.54
2 -2 15 8.62 0.51
-2 -2 -15 8.19 0.58
-2 2 -15 8.63 0.6
2 2 15 8.48 0.64
2 2 15 7.24 0.59
-2 2 -15 7.98 0.61
3 -2 15 8.45 0.56
3 2 15 10.11 0.54
3 2 15 9.44 0.39
3 -3 -15 48.11 2.39
-3 -3 15 45.66 1.74
3 -3 -15 42.93 1.38
3 3 -15 44.76 1.59
3 3 -15 42.11 1.33
3 3 -15 42.98 1.43
3 3 -15 42.2 1.61
3 3 -15 42.78 1.42
2 -3 -15 58.46 2.01
2 -3 -15 59.81 1.96
-2 -3 15 57.38 2.19
2 3 -15 54.41 1.82
2 3 -15 58.63 1.96
2 3 -15 54.73 1.83
1 -3 -15 45.43 1.76
1 -3 -15 46.73 1.84
1 -3 -15 48.34 1.87
-1 -3 15 46.6 1.91
1 3 -15 48.25 1.59
1 3 -15 50.62 1.78
1 3 -15 49.54 1.82
1 3 -15 48.08 1.58
1 3 -15 46.4 1.82
0 -3 15 34.16 1.43
0 -3 -15 33.2 1.45
0 -3 15 34.01 1.51
0 3 -15 29.46 1.22
0 3 -15 34.04 1.43
0 3 -15 33.82 1.43
0 3 -15 32.86 1.11
0 3 -15 31.52 1.43
1 -3 15 37.29 1.28
-1 -3 -15 36.03 1.47
1 -3 15 34.66 1.51
1 -3 15 33.53 1.45
-1 -3 -15 35.66 1.23
-1 3 -15 34.26 1.49
-1 3 -15 33.33 1.08
1 3 15 35.57 1.48
-1 3 -15 34.56 1.45
-1 3 -15 34.67 1.55
2 -3 15 8.56 0.51
2 -3 15 9.2 0.55
2 -3 15 8.2 0.6
-2 -3 -15 8.25 0.55
-2 3 -15 9.36 0.67
2 3 15 9.75 0.47
-2 3 -15 9.37 0.47
-2 3 -15 9.51 0.59
2 3 15 9.36 0.55
-3 -4 15 1.77 0.29
3 4 -15 1.59 0.22
3 4 -15 1.75 0.18
3 4 -15 1.69 0.24
3 4 -15 1.68 0.17
2 -4 -15 2.02 0.31
-2 -4 15 1.42 0.29
2 -4 -15 1.67 0.25
2 4 -15 1.84 0.26
2 4 -15 1.97 0.31
2 4 -15 1.53 0.2
2 4 -15 1.76 0.21
-1 -4 15 23.63 1.12
1 -4 -15 22.46 1.01
-1 -4 15 22.9 1.09
1 -4 -15 22.85 1.06
1 -4 -15 23 1.06
1 4 -15 22.13 0.89
1 4 -15 21.89 1
1 4 -15 22.2 0.85
1 4 -15 22.69 0.84
0 -4 15 5.15 0.47
0 -4 -15 5.35 0.48
0 -4 15 6 0.54
0 4 -15 5.82 0.47
0 4 -15 5.08 0.3
0 4 -15 6.06 0.44
0 4 -15 5.41 0.31
0 4 -15 5.58 0.32
-1 -4 -15 19.05 0.9
1 -4 15 19.1 0.76
-1 -4 -15 19.1 0.73
1 -4 15 19.01 0.92
1 -4 15 17.92 0.93
1 4 15 19.26 0.83
-1 4 -15 17.94 0.8
-1 4 -15 18.91 0.88
-1 4 -15 18.69 0.88
2 -4 15 15.01 0.72
2 -4 15 14.85 0.65
-2 4 -15 13.41 0.62
-1 -5 15 32.15 1.26
-1 -5 15 33.88 1.28
1 -5 -15 32.17 1.22
1 5 -15 32.95 1.05
1 5 -15 31.91 1.19
0 -5 15 23.38 0.98
-4 0 16 34.39 1.26
4 0 -16 34.72 1.28
4 0 -16 35.72 1.12
3 0 -16 42.71 1.68
-3 0 16 44.67 1.64
3 0 -16 42.23 1.71
-2 0 16 30.48 1.31
2 0 -16 29.41 1.26
2 0 -16 30.59 1.51
1 0 -16 49.81 1.89
1 0 -16 47.47 1.5
1 0 -16 49.89 1.97
-1 0 16 46.18 1.79
0 0 -16 62.33 2.01
0 0 -16 61.5 2.43
0 0 -16 61.79 2.27
0 0 16 62.54 2.13
-1 0 -16 26.18 1.05
1 0 16 27.75 0.99
-1 0 -16 26.62 1.22
1 0 16 27.08 0.99
-1 0 -16 26.58 1.38
-2 0 -16 44.46 1.5
2 0 16 44.05 1.86
-2 0 -16 44.35 1.63
3 0 16 18.64 0.85
4 -1 -16 11.96 0.6
4 1 -16 11.25 0.49
-4 1 16 11.42 0.51
3 -1 -16 4.75 0.38
3 -1 -16 4.82 0.55
-3 -1 16 5 0.39
-3 1 16 3.98 0.37
3 1 -16 3.96 0.4
3 1 -16 4.09 0.38
-2 -1 16 5.62 0.45
2 -1 -16 5.53 0.27
2 -1 -16 5.93 0.57
-2 -1 16 6.64 1.08
-2 1 16 4.88 0.43
2 1 -16 5.16 0.55
2 1 -16 4.58 0.52
-1 -1 16 0.79 0.21
-1 -1 16 1.06 0.35
1 -1 -16 1.32 0.4
1 -1 -16 0.66 0.25
1 -1 -16 0.79 0.18
1 1 -16 0.84 0.35
1 1 -16 0.76 0.23
-1 1 16 0.51 0.2
1 1 -16 0.64 0.24
0 -1 -16 0.06 0.15
0 -1 -16 0.08 0.17
0 -1 16 0.19 0.21
0 -1 16 0.11 0.2
0 1 -16 0.68 0.32
0 1 -16 0.23 0.21
0 1 16 0.33 0.15
0 1 -16 0.31 0.2
1 -1 16 1.71 0.29
1 -1 16 1.36 0.24
-1 -1 -16 1.39 0.25
-1 -1 -16 1.46 0.29
1 -1 16 1.32 0.29
-1 1 -16 1.35 0.3
-1 1 -16 1.32 0.34
-1 1 -16 1.14 0.15
1 1 16 1.55 0.41
-2 -1 -16 5.59 0.41
2 -1 16 5.8 0.49
2 -1 16 5.23 0.27
-2 -1 -16 5.74 0.45
-2 1 -16 5.15 0.43
-2 1 -16 5.94 0.54
-2 1 -16 5.44 0.29
2 1 16 5.65 0.54
3 -2 -16 43.16 1.83
-3 -2 16 40.31 1.48
-3 2 16 38.49 1.23
3 2 -16 39.31 1.36
3 2 -16 36.73 1.34
2 -2 -16 45.89 1.5
2 -2 -16 44.64 1.87
-2 -2 16 46.21 1.73
2 2 -16 45.75 1.43
2 2 -16 43.91 1.63
2 2 -16 48.27 1.71
-2 2 16 45.94 1.45
-1 -2 16 71.82 2.55
1 -2 -16 70.59 2.48
1 -2 -16 73.15 2.33
-1 -2 16 68.67 2.41
1 2 -16 71.34 2.46
1 2 -16 70.38 2.52
1 2 -16 71.41 2.5
0 -2 16 72.84 2.27
0 -2 16 75.71 2.53
0 -2 -16 70.02 2.38
0 -2 -16 71.56 2.52
0 -2 16 70.24 2.56
0 2 -16 73.34 2.65
0 2 -16 71.89 2.5
0 2 -16 71.14 2.29
1 -2 16 32.18 1.38
1 -2 16 31.84 1.25
1 -2 16 32.34 1.3
-1 -2 -16 33.59 1.31
-1 -2 -16 30.39 1.34
-1 2 -16 34.5 1.3
1 2 16 33.03 1.48
-1 2 -16 34.07 1.37
-1 2 -16 34.91 1.55
-2 -2 -16 40.06 1.51
2 -2 16 41.36 1.34
2 -2 16 42.61 1.59
2 -2 16 42.59 1.34
-2 2 -16 40.73 1.67
-2 2 -16 41.91 1.51
2 2 16 40.45 1.52
2 2 16 42.38 1.53
-2 2 -16 43.12 1.9
-3 -3 16 4.48 0.37
3 3 -16 4.69 0.24
-2 -3 16 4.27 0.44
2 -3 -16 4.02 0.32
-2 -3 16 4.22 0.42
2 3 -16 4.51 0.27
2 3 -16 4.44 0.33
2 3 -16 4.2 0.27
-1 -3 16 3.04 0.41
1 -3 -16 3.73 0.36
1 -3 -16 4.14 0.42
-1 -3 16 3.79 0.39
1 3 -16 3.57 0.32
1 3 -16 3.72 0.39
1 3 -16 3.5 0.36
1 3 -16 3.47 0.24
0 -3 -16 0.88 0.24
0 -3 16 0.93 0.34
0 -3 -16 1.04 0.25
0 -3 16 1.01 0.21
0 -3 16 0.89 0.25
0 3 -16 0.96 0.24
0 3 -16 0.7 0.2
0 3 -16 1.01 0.26
1 -3 16 0.27 0.17
1 -3 16 0.54 0.2
-1 -3 -16 0.78 0.21
1 -3 16 0.47 0.17
-1 3 -16 0.52 0.2
1 3 16 0.41 0.17
1 3 16 0.7 0.21
-1 3 -16 0.38 0.19
-1 3 -16 0.27 0.16
2 -3 16 0.88 0.16
2 -3 16 0.62 0.17
-2 3 -16 0.88 0.22
2 3 16 0.76 0.14
-2 -4 16 24.13 0.99
-2 -4 16 24.54 1.01
2 4 -16 24.55 0.79
-1 -4 16 13.66 0.69
1 -4 -16 14.65 1.07
-1 -4 16 13.53 0.73
1 4 -16 13.11 0.48
1 4 -16 13.45 0.51
0 -4 -16 38.67 1.4
0 -4 16 38.57 1.43
0 4 -16 37.05 1.28
0 4 16 35.88 1.23
0 4 -16 37.14 1.37
1 -4 16 29.81 1.12
1 -4 16 29.97 1.15
1 4 16 29.3 1.02
-1 4 -16 30.88 1.16
3 0 -17 34.71 1.33
3 0 -17 34.94 1.31
-3 0 17 35.07 1.26
2 0 -17 39.83 1.66
-2 0 17 43.03 1.5
2 0 -17 39.25 1.33
1 0 -17 10.86 0.68
-1 0 17 10.86 0.61
1 0 -17 11.12 0.85
1 0 -17 11.74 0.69
0 0 -17 3.2 0.2
0 0 17 3.36 0.3
0 0 -17 3.46 0.45
0 0 -17 2.01 0.35
-1 0 -17 7.09 0.6
-1 0 -17 7.62 0.53
-1 0 -17 7.33 0.36
2 0 17 18.68 0.93
3 1 -17 11.04 0.4
-3 1 17 13.93 0.54
3 1 -17 14.1 0.63
2 -1 -17 37.92 1.44
2 -1 -17 37.6 1.64
2 1 -17 36.8 1.45
2 1 -17 37.91 1.47
-2 1 17 37.24 1.28
-1 -1 17 21.95 0.99
1 -1 -17 21.9 0.76
1 -1 -17 22.34 1.01
1 -1 -17 20.41 1.08
1 1 -17 21.64 0.81
-1 1 17 21.27 0.8
1 1 -17 22.61 1.01
1 1 -17 21.08 1.1
0 -1 17 38.56 1.46
0 -1 -17 38.83 1.71
0 -1 -17 39.59 1.38
0 -1 -17 39.59 1.55
0 1 -17 43.97 1.77
0 1 -17 43.64 1.6
0 1 -17 41.81 1.52
1 -1 17 26.19 0.9
1 -1 17 25.92 0.9
1 -1 17 26.13 1.09
-1 -1 -17 24.57 0.95
-1 -1 -17 25.25 1.09
-1 1 -17 23.89 1.07
1 1 17 25.11 1.23
-1 1 -17 25.44 1.07
2 1 17 15.76 0.76
-2 -2 17 17.95 0.89
-2 -2 17 18.5 0.87
-2 -2 17 17.98 0.7
2 2 -17 16.72 0.77
2 2 -17 16.94 0.63
-1 -2 17 2.41 0.33
-1 -2 17 3.65 0.4
1 -2 -17 3.05 0.27
1 -2 -17 2.57 0.33
1 2 -17 4.17 0.38
1 2 -17 3.86 0.39
1 2 -17 3.76 0.38
0 -2 -17 2.18 0.32
0 -2 -17 2.13 0.25
0 -2 17 1.96 0.32
0 -2 17 2.36 0.33
0 2 -17 2.3 0.37
0 2 -17 1.53 0.27
0 2 -17 1.99 0.3
0 2 17 1.57 0.34
1 -2 17 11.71 0.54
1 -2 17 11.19 0.52
1 -2 17 11.71 0.65
-1 -2 -17 10.93 0.56
-1 -2 -17 11.08 0.61
1 2 17 10.03 0.64
-1 2 -17 10.24 0.67
1 2 17 10.46 0.65
-1 2 -17 10.43 0.6
-2 -3 17 24.31 0.87
-2 -3 17 23.28 1.18
-1 -3 17 33.78 1.33
-1 -3 17 35.96 1.36
-1 -3 17 34.78 1.14
1 3 -17 34.54 1.22
0 -3 -17 13.62 0.69
0 -3 17 13.2 0.69
0 -3 17 13.62 0.68
0 3 -17 13.69 0.57
0 3 -17 13.79 0.67
0 3 -17 13.54 0.66
0 3 17 13.53 0.69
-2 0 18 3.14 0.24
2 0 -18 2.58 0.31
-1 0 18 18 0.66
1 0 -18 17.52 0.92
1 0 -18 14.5 0.98
0 0 -18 15.58 0.75
-2 -1 18 30.99 1.1
2 -1 -18 28.97 1.25
2 1 -18 32.06 1.08
-1 -1 18 43.4 1.43
1 1 -18 40.53 1.54
0 -1 -18 12.9 0.65
0 -1 18 13.99 0.56
0 1 -18 13.37 0.75
0 1 18 14.13 1.08
0 1 -18 13.7 0.67
-1 -2 18 7.02 0.43
1 2 -18 8.76 0.39
0 -2 18 20.87 0.78
0 2 18 19.57 0.91
0 2 -18 21.17 0.85
