#------------------------------------------------------------------------------
#$Date: 2019-11-24 17:45:52 +0200 (Sun, 24 Nov 2019) $
#$Revision: 238895 $
#$URL: file:///home/coder/svn-repositories/cod/cif/1/55/55/1555560.cif $
#------------------------------------------------------------------------------
#
# This file is available in the Crystallography Open Database (COD),
# http://www.crystallography.net/
#
# All data on this site have been placed in the public domain by the
# contributors.
#
data_1555560
loop_
_publ_author_name
'Castanheiro, Thomas'
'Suffert, Jean'
'Gulea, Mihaela'
'Donnard, Morgan'
_publ_section_title
;
 Aerobic Copper-Mediated Domino Three-Component Approach to
 2-Aminobenzothiazole Derivatives.
;
_journal_issue                   11
_journal_name_full               'Organic letters'
_journal_page_first              2588
_journal_page_last               2591
_journal_paper_doi               10.1021/acs.orglett.6b00967
_journal_volume                  18
_journal_year                    2016
_chemical_formula_moiety         'C14 H8 F2 N2 O S'
_chemical_formula_sum            'C14 H8 F2 N2 O S'
_chemical_formula_weight         290.28
_space_group_crystal_system      triclinic
_space_group_IT_number           2
_space_group_name_Hall           '-P 1'
_space_group_name_H-M_alt        'P -1'
_atom_sites_solution_hydrogens   mixed
_atom_sites_solution_primary     direct
_atom_sites_solution_secondary   difmap
_audit_creation_method           SHELXL-2013
_cell_angle_alpha                88.575(2)
_cell_angle_beta                 86.523(2)
_cell_angle_gamma                88.004(2)
_cell_formula_units_Z            2
_cell_length_a                   5.7370(5)
_cell_length_b                   7.6865(7)
_cell_length_c                   13.5874(12)
_cell_measurement_reflns_used    4604
_cell_measurement_temperature    173(2)
_cell_measurement_theta_max      29.02
_cell_measurement_theta_min      2.65
_cell_volume                     597.55(9)
_computing_cell_refinement       'Bruker SAINT'
_computing_data_collection       'Bruker APEX2'
_computing_data_reduction        'Bruker SAINT'
_computing_molecular_graphics    'Bruker SHELXTL'
_computing_publication_material  'Bruker SHELXTL'
_computing_structure_refinement  'SHELXL-2013 (Sheldrick, 2013)'
_computing_structure_solution    'Superflip (Palatinus and Chapuis,2007)'
_diffrn_ambient_temperature      173(2)
_diffrn_measured_fraction_theta_full 0.990
_diffrn_measured_fraction_theta_max 0.987
_diffrn_measurement_device_type  'Bruker APEX-II CCD'
_diffrn_measurement_method       '\f and \w scans'
_diffrn_radiation_type           MoK\a
_diffrn_radiation_wavelength     0.71073
_diffrn_reflns_av_R_equivalents  0.0225
_diffrn_reflns_av_unetI/netI     0.0284
_diffrn_reflns_Laue_measured_fraction_full 0.990
_diffrn_reflns_Laue_measured_fraction_max 0.987
_diffrn_reflns_limit_h_max       7
_diffrn_reflns_limit_h_min       -7
_diffrn_reflns_limit_k_max       10
_diffrn_reflns_limit_k_min       -10
_diffrn_reflns_limit_l_max       18
_diffrn_reflns_limit_l_min       -18
_diffrn_reflns_number            8751
_diffrn_reflns_point_group_measured_fraction_full 0.990
_diffrn_reflns_point_group_measured_fraction_max 0.987
_diffrn_reflns_theta_full        25.242
_diffrn_reflns_theta_max         29.024
_diffrn_reflns_theta_min         2.652
_diffrn_source                   'fine focus sealed tube'
_exptl_absorpt_coefficient_mu    0.292
_exptl_absorpt_correction_T_max  0.7458
_exptl_absorpt_correction_T_min  0.6283
_exptl_absorpt_correction_type   multi-scan
_exptl_absorpt_process_details   sadabs
_exptl_crystal_colour            colourless
_exptl_crystal_density_diffrn    1.613
_exptl_crystal_description       prism
_exptl_crystal_F_000             296
_exptl_crystal_size_max          0.40
_exptl_crystal_size_mid          0.30
_exptl_crystal_size_min          0.15
_refine_diff_density_max         0.667
_refine_diff_density_min         -0.335
_refine_diff_density_rms         0.067
_refine_ls_extinction_method     none
_refine_ls_goodness_of_fit_ref   1.071
_refine_ls_hydrogen_treatment    mixed
_refine_ls_matrix_type           full
_refine_ls_number_parameters     185
_refine_ls_number_reflns         3143
_refine_ls_number_restraints     0
_refine_ls_restrained_S_all      1.071
_refine_ls_R_factor_all          0.0563
_refine_ls_R_factor_gt           0.0443
_refine_ls_shift/su_max          0.000
_refine_ls_shift/su_mean         0.000
_refine_ls_structure_factor_coef Fsqd
_refine_ls_weighting_details
'w=1/[\s^2^(Fo^2^)+(0.0532P)^2^+0.3829P] where P=(Fo^2^+2Fc^2^)/3'
_refine_ls_weighting_scheme      calc
_refine_ls_wR_factor_gt          0.1068
_refine_ls_wR_factor_ref         0.1143
_reflns_Friedel_coverage         0.000
_reflns_number_gt                2668
_reflns_number_total             3143
_reflns_threshold_expression     'I > 2\s(I)'
_cod_data_source_file            ol6b00967_si_001.cif
_cod_data_source_block           jstc151001
_cod_database_code               1555560
_shelx_space_group_comment
;
The symmetry employed for this shelxl refinement is uniquely defined
by the following loop, which should always be used as a source of
symmetry information in preference to the above space-group names.
They are only intended as comments.
;
_shelxl_version_number           2013-4
_shelx_res_file
;
TITL mo_jstc151001_0m in P-1
CELL  0.71073   5.7370   7.6865  13.5874   88.575   86.523   88.004
ZERR     2.00   0.0005   0.0007   0.0012    0.002    0.002    0.002
LATT   1
SFAC  C    H    N    O    F    S
UNIT  28   16   4    2    4    2
MERG   2
FMAP   2
PLAN   10
ACTA
BOND   $H
CONF
L.S.   12
TEMP  -100.00
WGHT    0.053200    0.382900
FVAR       0.29070
C1    1    0.383082    0.284298    0.235347    11.00000    0.01741    0.01897 =
         0.02051   -0.00113   -0.00067    0.00060
C2    1    0.414708    0.271237    0.336569    11.00000    0.02120    0.02885 =
         0.02088   -0.00187   -0.00232    0.00351
AFIX  43
H2    2    0.554786    0.220667    0.360114    11.00000   -1.20000
AFIX   0
C3    1    0.238673    0.333164    0.401707    11.00000    0.02744    0.03231 =
         0.01895   -0.00352   -0.00019    0.00172
AFIX  43
H3    2    0.258757    0.325474    0.470586    11.00000   -1.20000
AFIX   0
C4    1    0.030152    0.407432    0.367563    11.00000    0.02281    0.02894 =
         0.02732   -0.00747    0.00463    0.00187
AFIX  43
H4    2   -0.089510    0.447443    0.413761    11.00000   -1.20000
AFIX   0
C5    1   -0.003261    0.423075    0.267666    11.00000    0.01791    0.02304 =
         0.03104   -0.00467   -0.00196    0.00229
AFIX  43
H5    2   -0.143306    0.474416    0.244524    11.00000   -1.20000
AFIX   0
C6    1    0.174870    0.361190    0.202091    11.00000    0.01771    0.01843 =
         0.02020   -0.00310   -0.00241   -0.00111
C7    1    0.460466    0.260075    0.075827    11.00000    0.01719    0.01870 =
         0.01886   -0.00037   -0.00026    0.00109
C8    1    0.528629    0.252478   -0.103512    11.00000    0.02041    0.02029 =
         0.01800   -0.00040   -0.00094   -0.00209
C9    1    0.690848    0.191222   -0.187235    11.00000    0.02018    0.01754 =
         0.01658    0.00006   -0.00077   -0.00308
C10   1    0.617825    0.225510   -0.282630    11.00000    0.02282    0.02761 =
         0.02092    0.00146   -0.00440    0.00001
AFIX  43
H10   2    0.473414    0.286127   -0.291970    11.00000   -1.20000
AFIX   0
C11   1    0.756979    0.170661   -0.362369    11.00000    0.03231    0.03315 =
         0.01629    0.00100   -0.00644   -0.00224
C12   1    0.970004    0.083522   -0.354111    11.00000    0.02978    0.03142 =
         0.02014   -0.00356    0.00244   -0.00071
AFIX  43
H12   2    1.062473    0.048579   -0.411038    11.00000   -1.20000
AFIX   0
C13   1    1.044545    0.048713   -0.260508    11.00000    0.02335    0.02492 =
         0.02390   -0.00149   -0.00185    0.00197
AFIX  43
H13   2    1.189570   -0.011474   -0.251840    11.00000   -1.20000
AFIX   0
C14   1    0.905280    0.102648   -0.179946    11.00000    0.02364    0.01964 =
         0.01721    0.00149   -0.00374   -0.00153
N1    3    0.542745    0.225819    0.161200    11.00000    0.01870    0.02476 =
         0.01785   -0.00093   -0.00088    0.00408
N2    3    0.589440    0.211786   -0.009648    11.00000    0.02032    0.02413 =
         0.01710    0.00040   -0.00095    0.00413
O1    4    0.347241    0.334226   -0.118743    11.00000    0.02278    0.03700 =
         0.02224    0.00004   -0.00285    0.00673
F1    5    0.680923    0.202350   -0.454286    11.00000    0.04460    0.07230 =
         0.01630    0.00150   -0.00773    0.01068
F2    5    0.985473    0.063616   -0.089519    11.00000    0.02785    0.03682 =
         0.01685    0.00211   -0.00344    0.00926
S1    6    0.184119    0.363383    0.073548    11.00000    0.01781    0.02478 =
         0.01957   -0.00191   -0.00428    0.00317
H2N   2    0.714885    0.162684    0.000750    11.00000    0.03935
HKLF    4

REM  mo_jstc151001_0m in P-1
REM R1 =  0.0443 for    2668 Fo > 4sig(Fo)  and  0.0563 for all    3143 data
REM    185 parameters refined using      0 restraints

END

WGHT      0.0531      0.3843

REM Highest difference peak  0.667,  deepest hole -0.335,  1-sigma level  0.067
Q1    1   0.1791  0.3693  0.1395  11.00000  0.05    0.67
Q2    1   0.6091  0.2093 -0.1456  11.00000  0.05    0.51
Q3    1   0.5293  0.2429  0.0332  11.00000  0.05    0.44
Q4    1   0.4664  0.2533  0.1987  11.00000  0.05    0.44
Q5    1   0.1717  0.3183  0.0207  11.00000  0.05    0.43
Q6    1   0.9641  0.0682 -0.2220  11.00000  0.05    0.41
Q7    1   0.0306  0.4039  0.3153  11.00000  0.05    0.40
Q8    1   0.0820  0.3736  0.2436  11.00000  0.05    0.37
Q9    1   0.6651  0.2181 -0.2358  11.00000  0.05    0.37
Q10   1   0.3098  0.2992  0.0637  11.00000  0.05    0.37
;
_shelx_res_checksum              27397
_shelx_hkl_file
;
  -1   0   0    0.37    0.05
  -1   0   0    0.37    0.07
  -1   0   0    0.31    0.07
   1   0   0    0.35    0.06
   1   0   0    0.29    0.08
  -2   0   0   45.02    0.81
  -2   0   0   44.54    0.83
  -2   0   0   44.32    0.84
   2   0   0   44.37    0.85
  -3   0   0   22.10    0.55
  -3   0   0   22.73    0.50
   3   0   0   23.32    0.59
  -4   0   0    5.40    0.33
  -4   0   0    5.61    0.31
  -4   0   0    5.75    0.27
   4   0   0    5.90    0.41
  -5   0   0   38.23    0.86
  -5   0   0   39.26    0.94
   5   0   0   40.20    1.01
  -6   0   0   11.34    0.52
   6   0   0   11.39    0.65
  -7   0   0    0.21    0.23
   7   0   0   -0.18    0.37
  -7   1   0    3.70    0.46
   6  -1   0    0.85    0.33
  -6   1   0    1.25    0.22
  -6   1   0    0.87    0.24
   5  -1   0   30.06    0.85
  -5   1   0   29.32    0.79
  -5   1   0   28.21    0.70
   4  -1   0    9.10    0.45
  -4   1   0    9.14    0.34
  -4   1   0    9.34    0.39
   3  -1   0   17.67    0.49
  -3   1   0   17.65    0.46
  -3   1   0   17.44    0.46
  -3   1   0   16.89    0.42
   2  -1   0  216.12    3.79
  -2   1   0  219.33    3.84
  -2   1   0  218.27    3.88
  -2   1   0  216.68    3.65
   1  -1   0   25.31    0.48
  -1   1   0   25.21    0.46
  -1   1   0   25.19    0.47
  -1   1   0   25.42    0.47
   0  -1   0    0.03    0.06
  -1  -1   0    1.16    0.11
  -1  -1   0    1.32    0.13
   1   1   0    0.90    0.14
   1   1   0    1.16    0.12
  -2  -1   0    0.01    0.08
  -2  -1   0   -0.11    0.10
  -2  -1   0    0.00    0.06
   2   1   0    0.14    0.10
   2   1   0   -0.02    0.12
  -3  -1   0   66.01    1.20
  -3  -1   0   65.70    1.25
  -3  -1   0   67.11    1.25
   3   1   0   67.21    1.28
   3   1   0   68.48    1.24
  -4  -1   0   41.94    0.91
  -4  -1   0   43.07    0.94
  -4  -1   0   42.37    0.86
   4   1   0   42.90    0.98
  -5  -1   0    0.06    0.14
  -5  -1   0    0.05    0.17
   5   1   0    0.06    0.29
  -6  -1   0   29.47    0.83
   6   1   0   30.37    0.95
  -7  -1   0    1.12    0.28
   7   1   0    0.41    0.39
  -7   2   0    5.89    0.54
  -6   2   0    2.28    0.33
  -6   2   0    2.71    0.28
   5  -2   0    2.16    0.32
  -5   2   0    2.29    0.23
  -5   2   0    2.27    0.34
   4  -2   0   32.97    0.80
  -4   2   0   32.97    0.73
  -4   2   0   32.27    0.78
   3  -2   0    5.84    0.31
  -3   2   0    5.50    0.24
  -3   2   0    5.99    0.28
   2  -2   0   19.45    0.44
  -2   2   0   19.55    0.41
  -2   2   0   19.48    0.44
   1  -2   0   16.08    0.35
  -1   2   0   16.08    0.32
  -1   2   0   16.31    0.30
  -1   2   0   15.76    0.33
   0  -2   0  436.82    7.52
  -2  -2   0   26.54    0.52
  -2  -2   0   25.84    0.55
   2   2   0   25.97    0.56
   2   2   0   26.96    0.53
  -3  -2   0   10.72    0.33
  -3  -2   0   11.18    0.38
   3   2   0   11.38    0.36
   3   2   0   10.45    0.41
  -4  -2   0    0.27    0.14
  -4  -2   0    0.51    0.19
  -4  -2   0    0.70    0.19
   4   2   0    0.51    0.19
   4   2   0    0.35    0.25
  -5  -2   0    0.56    0.18
   5   2   0    0.51    0.32
  -6  -2   0   12.77    0.54
   6   2   0   12.94    0.71
   7   2   0    6.65    0.71
  -7   3   0    1.12    0.27
  -7   3   0    1.28    0.34
  -6   3   0    9.45    0.55
  -6   3   0    9.05    0.45
  -5   3   0   12.26    0.46
  -5   3   0   12.32    0.52
   4  -3   0    7.23    0.38
  -4   3   0    7.24    0.34
  -4   3   0    7.39    0.39
   3  -3   0   25.48    0.57
  -3   3   0   26.14    0.61
  -3   3   0   26.36    0.57
  -2   3   0    7.77    0.26
  -2   3   0    8.12    0.24
   1  -3   0  138.98    2.23
  -1   3   0  133.13    2.26
  -1   3   0  134.37    2.23
  -1   3   0  132.74    2.26
   0  -3   0   42.33    0.82
  -1  -3   0   -0.31    0.07
  -1  -3   0   -0.33    0.09
  -2  -3   0    0.03    0.11
  -2  -3   0   -0.09    0.11
   2   3   0   -0.03    0.06
   2   3   0    0.00    0.10
   2   3   0   -0.15    0.13
  -3  -3   0    4.66    0.27
  -3  -3   0    4.47    0.20
   3   3   0    4.21    0.30
   3   3   0    4.71    0.27
  -4  -3   0    5.04    0.36
  -4  -3   0    4.70    0.26
   4   3   0    4.26    0.43
   4   3   0    5.40    0.37
   5   3   0   25.78    0.82
   6   3   0    4.63    0.61
   7   3   0   11.46    0.81
  -7   4   0    1.31    0.30
  -7   4   0    1.33    0.36
  -6   4   0    7.63    0.53
  -6   4   0    7.38    0.45
  -5   4   0   12.05    0.53
  -5   4   0   11.63    0.47
  -4   4   0    5.27    0.32
  -4   4   0    5.13    0.35
  -3   4   0    3.56    0.26
  -3   4   0    3.52    0.23
  -3   4   0    2.51    0.26
  -2   4   0   -0.03    0.08
  -2   4   0   -0.04    0.10
   1  -4   0    1.23    0.12
   0  -4   0    1.02    0.15
  -1  -4   0  557.55    9.91
  -1  -4   0  588.05    9.44
  -2  -4   0  191.08    3.19
  -2  -4   0  194.69    3.28
   2   4   0  196.52    3.16
   2   4   0  189.72    3.15
   2   4   0  189.02    3.18
   2   4   0  182.79    3.17
  -3  -4   0    4.67    0.29
  -3  -4   0    4.17    0.34
   3   4   0    4.07    0.20
   3   4   0    4.81    0.29
   3   4   0    3.99    0.32
  -4  -4   0    1.71    0.25
   4   4   0    1.48    0.29
   4   4   0    1.62    0.24
   5   4   0    2.77    0.39
   6   4   0    8.37    0.70
   7   4   0    0.05    0.43
  -6   5   0    0.15    0.22
  -6   5   0    0.25    0.27
  -5   5   0    8.93    0.45
  -5   5   0    9.01    0.49
  -4   5   0   18.19    0.52
  -4   5   0   17.92    0.58
  -3   5   0   -0.04    0.15
  -3   5   0    0.06    0.13
   2  -5   0   18.17    0.43
  -2   5   0   19.29    0.41
  -2   5   0   18.40    0.44
  -2   5   0   17.79    0.45
   1  -5   0   48.28    0.85
   0  -5   0   16.11    0.50
  -1  -5   0   17.30    0.50
  -2  -5   0    0.27    0.16
  -2  -5   0    0.18    0.13
   2   5   0    0.17    0.08
   2   5   0   -0.02    0.11
   2   5   0    0.04    0.13
   2   5   0    0.17    0.07
  -3  -5   0    1.29    0.24
  -3  -5   0    1.02    0.19
   3   5   0    1.03    0.22
   3   5   0    1.11    0.18
   3   5   0    1.24    0.16
  -4  -5   0    6.12    0.45
   4   5   0    6.91    0.46
   4   5   0    6.38    0.39
  -5  -5   0    0.81    0.28
   5   5   0    0.51    0.33
   6   5   0    8.03    0.71
  -6   6   0    4.25    0.54
  -6   6   0    4.07    0.46
  -5   6   0    3.14    0.41
  -5   6   0    3.13    0.37
  -4   6   0   10.68    0.42
  -4   6   0   10.44    0.47
  -3   6   0   18.88    0.49
  -3   6   0   18.39    0.53
  -2   6   0    1.71    0.18
  -2   6   0    1.38    0.20
   1  -6   0    0.03    0.09
   0  -6   0    8.18    0.43
  -1  -6   0    1.19    0.23
  -2  -6   0  285.08    4.84
   2   6   0  284.88    4.62
   2   6   0  273.00    4.61
   2   6   0  283.66    4.68
   3   6   0    2.57    0.29
  -4  -6   0   -0.04    0.22
   4   6   0   -0.01    0.25
   4   6   0    0.02    0.21
  -5  -6   0    0.83    0.29
   5   6   0    0.80    0.34
  -6  -6   0    0.79    0.31
   6   6   0    1.07    0.43
  -5   7   0    2.44    0.35
  -5   7   0    2.00    0.27
  -4   7   0    2.05    0.28
  -4   7   0    1.93    0.23
  -3   7   0    9.68    0.36
  -3   7   0    8.95    0.39
  -2   7   0    3.72    0.25
  -2   7   0    4.15    0.22
   1  -7   0    4.18    0.16
   0  -7   0   42.19    1.03
  -1  -7   0    0.37    0.22
  -2  -7   0    3.12    0.38
   2   7   0    3.52    0.28
   2   7   0    3.61    0.19
   2   7   0    3.13    0.23
  -3  -7   0    0.39    0.22
   3   7   0    0.09    0.17
   3   7   0    0.21    0.21
  -4  -7   0    0.28    0.25
   4   7   0    0.15    0.21
   4   7   0    0.46    0.28
  -5  -7   0    3.78    0.51
   5   7   0    3.64    0.45
  -4   8   0    0.07    0.17
  -4   8   0    0.46    0.23
  -3   8   0    2.10    0.30
  -3   8   0    1.74    0.20
  -2   8   0   10.96    0.34
  -2   8   0   11.00    0.37
   0  -8   0    0.62    0.29
  -1  -8   0    1.36    0.29
  -2  -8   0    3.79    0.48
   2   8   0    4.28    0.22
   2   8   0    4.22    0.30
   2   8   0    3.04    0.25
  -3  -8   0   81.66    1.72
   3   8   0   77.23    1.46
   3   8   0   79.56    1.52
  -4  -8   0    4.71    0.53
   4   8   0    5.38    0.54
  -5  -8   0    0.58    0.30
   5   8   0    0.59    0.39
  -3   9   0    0.68    0.21
  -3   9   0    0.47    0.17
  -2   9   0    1.24    0.18
  -2   9   0    1.29    0.16
   0  -9   0   -0.01    0.30
  -1  -9   0   16.48    0.72
  -2  -9   0    3.26    0.40
   2   9   0    4.81    0.33
  -3  -9   0    0.29    0.29
   3   9   0    0.64    0.26
  -4  -9   0    0.62    0.31
   4   9   0    0.39    0.32
  -2  10   0    0.66    0.17
  -2  10   0    0.56    0.16
  -1 -10   0    1.10    0.36
  -2 -10   0   -0.13    0.30
   2  10  -1    0.96    0.24
  -2 -10   1    0.92    0.35
  -1 -10   1    3.38    0.44
   0 -10   1    3.78    0.49
  -2  10  -1    0.17    0.16
  -2  10  -1    0.07    0.15
   4   9  -1    1.13    0.36
  -4  -9   1    1.14    0.34
   3   9  -1    0.78    0.27
  -3  -9   1    0.51    0.30
   2   9  -1    1.65    0.22
  -2  -9   1    1.50    0.35
  -1  -9   1    7.91    0.60
   0  -9   1    3.50    0.42
  -2   9  -1    1.83    0.24
  -2   9  -1    1.84    0.21
  -3   9  -1    1.54    0.21
  -3   9  -1    1.78    0.25
   5   8  -1    0.23    0.38
  -5  -8   1    0.11    0.28
   4   8  -1    4.15    0.53
  -4  -8   1    4.17    0.51
   2   8  -1    6.37    0.30
   2   8  -1    7.73    0.36
   2   8  -1    8.00    0.39
  -2  -8   1    7.67    0.53
  -1  -8   1    1.20    0.28
   0  -8   1   16.09    0.67
  -2   8  -1    2.26    0.22
  -2   8  -1    2.04    0.24
  -3   8  -1    0.90    0.21
  -3   8  -1    0.92    0.17
  -4   8  -1    0.53    0.19
  -4   8  -1    0.66    0.24
   5   7  -1    2.52    0.42
  -5  -7   1    2.49    0.37
   4   7  -1    0.31    0.28
  -4  -7   1    0.01    0.24
   3   7  -1    1.32    0.20
   3   7  -1    1.40    0.25
  -3  -7   1    1.68    0.29
   2   7  -1    1.28    0.17
   2   7  -1    1.06    0.18
   2   7  -1    0.60    0.14
  -2  -7   1    0.82    0.24
  -1  -7   1    4.95    0.42
   0  -7   1   46.14    1.10
   1  -7   1   -0.13    0.22
   1  -7   1    0.28    0.08
  -2   7  -1    2.45    0.20
  -2   7  -1    2.39    0.22
  -2   7  -1    2.54    0.20
  -3   7  -1    0.16    0.17
  -3   7  -1    0.08    0.14
  -4   7  -1    0.08    0.19
  -4   7  -1    0.05    0.16
  -5   7  -1   22.28    0.68
  -5   7  -1   21.29    0.76
   6   6  -1    0.26    0.40
  -6  -6   1    0.18    0.30
   5   6  -1    5.94    0.59
  -5  -6   1    4.58    0.53
   4   6  -1    0.69    0.28
  -4  -6   1    0.53    0.25
   3   6  -1   20.06    0.53
   3   6  -1   19.96    0.58
  -3  -6   1   20.05    0.66
   2   6  -1   16.00    0.37
   2   6  -1   16.00    0.41
   2   6  -1   16.81    0.45
  -2  -6   1   18.35    0.60
  -1  -6   1    0.58    0.20
   0  -6   1    3.16    0.36
   1  -6   1   28.33    0.77
   1  -6   1   27.42    0.53
  -2   6  -1    3.74    0.23
  -2   6  -1    3.45    0.25
  -2   6  -1    4.11    0.20
  -3   6  -1    6.23    0.34
  -3   6  -1    6.59    0.30
  -4   6  -1    4.68    0.33
  -4   6  -1    4.48    0.36
  -5   6  -1    0.57    0.21
  -5   6  -1    0.52    0.24
  -6   6  -1   12.55    0.60
  -6   6  -1   11.95    0.67
   6   5  -1    0.12    0.38
   5   5  -1    4.05    0.55
   4   5  -1    7.99    0.51
  -4  -5   1    7.33    0.47
   3   5  -1    7.46    0.41
   3   5  -1    8.75    0.35
  -3  -5   1    8.18    0.45
   2   5  -1    0.52    0.15
   2   5  -1    0.45    0.12
   2   5  -1    0.77    0.11
   2   5  -1    0.60    0.09
  -2  -5   1    0.48    0.17
  -1  -5   1    0.09    0.14
   0  -5   1    2.02    0.28
   1  -5   1  125.60    2.10
   1  -5   1  126.22    2.29
  -2   5  -1    1.10    0.14
  -2   5  -1    1.06    0.18
  -2   5  -1    1.23    0.16
   2  -5   1    1.22    0.15
  -3   5  -1   -0.06    0.15
  -3   5  -1    0.17    0.13
  -4   5  -1    1.18    0.19
  -4   5  -1    1.26    0.23
  -5   5  -1    8.05    0.42
  -5   5  -1    8.64    0.48
  -6   5  -1   12.51    0.58
  -6   5  -1   12.29    0.64
   7   4  -1    4.60    0.59
   6   4  -1   11.48    0.72
   5   4  -1    2.31    0.38
   4   4  -1    7.03    0.50
   3   4  -1    1.99    0.24
   3   4  -1    2.69    0.27
   3   4  -1    1.90    0.17
  -3  -4   1    2.22    0.30
   2   4  -1   77.06    1.42
   2   4  -1   69.98    1.29
   2   4  -1   69.53    1.25
   2   4  -1   71.93    1.27
  -2  -4   1   73.94    1.39
  -1  -4   1  163.75    2.83
   0  -4   1    8.96    0.34
  -1   4  -1   74.44    1.24
  -1   4  -1   71.10    1.24
   1  -4   1   73.50    1.26
   1  -4   1   76.58    1.41
  -2   4  -1   19.14    0.41
  -2   4  -1   19.11    0.43
  -2   4  -1   19.01    0.44
  -3   4  -1    1.05    0.15
  -3   4  -1    0.97    0.18
  -3   4  -1    0.65    0.18
  -4   4  -1    7.13    0.38
  -4   4  -1    6.96    0.34
  -5   4  -1    7.19    0.39
  -5   4  -1    7.37    0.44
  -6   4  -1    6.06    0.49
  -6   4  -1    6.15    0.45
  -7   4  -1   10.42    0.69
  -7   4  -1    9.64    0.54
   7   3  -1    0.20    0.43
   6   3  -1   27.36    0.94
   5   3  -1    6.99    0.54
   4   3  -1    0.32    0.27
  -4  -3   1    0.79    0.15
   3   3  -1    2.23    0.25
   3   3  -1    2.75    0.26
  -3  -3   1    2.40    0.18
   2   3  -1   28.46    0.55
   2   3  -1   28.71    0.60
   2   3  -1   28.57    0.57
   1   3  -1    0.10    0.06
   1   3  -1    0.08    0.05
   1   3  -1    0.05    0.05
   1   3  -1    0.02    0.07
  -1  -3   1    0.12    0.11
   0  -3   1   22.03    0.38
   0  -3   1   21.84    0.50
  -1   3  -1   23.82    0.42
  -1   3  -1   23.06    0.44
  -1   3  -1   23.68    0.45
   1  -3   1   23.96    0.55
   1  -3   1   23.69    0.45
  -2   3  -1  167.26    2.87
  -2   3  -1  166.43    2.82
  -2   3  -1  169.04    2.80
  -3   3  -1    1.52    0.15
  -3   3  -1    1.37    0.18
   3  -3   1    1.55    0.18
  -4   3  -1    0.19    0.15
  -4   3  -1   -0.09    0.16
   4  -3   1    0.17    0.20
  -5   3  -1    3.01    0.36
  -5   3  -1    3.13    0.32
  -6   3  -1   27.03    0.85
  -6   3  -1   27.45    0.77
  -7   3  -1    1.17    0.26
  -7   3  -1    1.21    0.34
   7   2  -1    4.72    0.71
   6   2  -1    2.34    0.41
  -6  -2   1    3.14    0.37
   5   2  -1   29.91    0.90
  -5  -2   1   28.81    0.74
   4   2  -1   21.26    0.68
  -4  -2   1   21.60    0.56
  -4  -2   1   22.27    0.62
   3   2  -1   11.44    0.43
  -3  -2   1   11.44    0.34
   2   2  -1    0.49    0.11
   2   2  -1    0.45    0.14
  -2  -2   1    0.43    0.10
   1   2  -1   79.03    1.33
   1   2  -1   78.56    1.34
   1   2  -1   82.42    1.37
   1   2  -1   78.02    1.35
  -1  -2   1   81.97    1.40
   0  -2   1  691.99   11.72
  -1   2  -1    7.87    0.18
  -1   2  -1    7.95    0.21
  -1   2  -1    8.00    0.20
  -2   2  -1  174.35    2.95
  -2   2  -1  179.61    3.08
  -2   2  -1  175.47    3.05
   2  -2   1  177.12    2.95
  -3   2  -1    4.02    0.22
  -3   2  -1    3.90    0.25
  -3   2  -1    4.06    0.24
   3  -2   1    3.91    0.28
  -4   2  -1    1.72    0.19
  -4   2  -1    1.62    0.22
   4  -2   1    2.12    0.27
  -5   2  -1    0.63    0.22
  -5   2  -1    0.65    0.18
   5  -2   1    0.76    0.27
  -6   2  -1    3.66    0.42
  -6   2  -1    4.21    0.35
   6  -2   1    4.31    0.69
  -7   2  -1   10.95    0.63
   7   1  -1    1.57    0.45
  -7  -1   1    2.18    0.35
   6   1  -1   12.60    0.70
  -6  -1   1   13.37    0.55
   5   1  -1   37.72    1.00
  -5  -1   1   37.70    0.91
  -5  -1   1   38.43    0.92
   4   1  -1   29.29    0.78
  -4  -1   1   29.05    0.70
  -4  -1   1   28.57    0.64
   3   1  -1    2.97    0.31
  -3  -1   1    2.66    0.21
  -3  -1   1    2.75    0.18
   2   1  -1   16.86    0.42
  -2  -1   1   17.07    0.39
  -2  -1   1   16.90    0.36
   1   1  -1   31.16    0.59
  -1  -1   1   32.17    0.57
   0   1  -1    0.01    0.02
   0   1  -1    0.00    0.03
   0   1  -1    0.02    0.03
   0  -1   1   -0.03    0.03
   0  -1   1   -0.02    0.04
  -1   1  -1   94.97    1.59
  -1   1  -1   94.57    1.64
  -1   1  -1   95.42    1.68
   1  -1   1   94.49    1.63
  -2   1  -1  195.07    3.35
  -2   1  -1  201.35    3.45
  -2   1  -1  194.73    3.45
   2  -1   1  202.72    3.55
  -3   1  -1   59.48    1.14
  -3   1  -1   60.91    1.16
  -3   1  -1   59.97    1.11
   3  -1   1   60.70    1.17
  -4   1  -1    0.29    0.17
  -4   1  -1    0.19    0.12
  -4   1  -1    0.27    0.17
   4  -1   1    0.32    0.22
  -5   1  -1    0.97    0.18
  -5   1  -1    0.54    0.21
   5  -1   1    1.03    0.30
  -6   1  -1    1.21    0.21
  -6   1  -1    0.94    0.25
   6  -1   1    1.13    0.33
  -7   1  -1   25.00    0.85
   7  -1   1   23.50    1.21
   7   0  -1   -0.30    0.38
  -7   0   1    0.13    0.24
   6   0  -1   20.42    0.80
  -6   0   1   21.63    0.70
   5   0  -1    6.79    0.53
  -5   0   1    6.72    0.40
  -5   0   1    7.00    0.35
   4   0  -1   10.93    0.49
  -4   0   1   10.62    0.40
  -4   0   1   10.42    0.35
   3   0  -1   37.05    0.81
  -3   0   1   37.05    0.73
  -3   0   1   36.08    0.77
   2   0  -1   24.16    0.53
  -2   0   1   23.99    0.51
  -2   0   1   24.26    0.48
   1   0  -1  157.90    2.78
  -1   0   1  160.67    2.85
  -1   0   1  161.25    2.75
  -1   0  -1  524.92    8.97
  -1   0  -1  531.75    8.87
  -1   0  -1  541.97    8.97
   1   0   1  537.10    8.91
  -2   0  -1   25.88    0.54
  -2   0  -1   25.54    0.54
  -2   0  -1   26.03    0.51
   2   0   1   26.62    0.53
   2   0   1   25.65    0.56
  -3   0  -1   60.94    1.13
  -3   0  -1   60.80    1.17
   3   0   1   61.56    1.19
   3   0   1   63.86    1.15
  -4   0  -1    0.72    0.13
  -4   0  -1    1.08    0.20
  -4   0  -1    0.87    0.18
   4   0   1    0.86    0.25
  -5   0  -1    8.21    0.45
  -5   0  -1    7.89    0.35
  -5   0  -1    7.82    0.42
   5   0   1    7.96    0.54
  -6   0  -1    1.59    0.27
   6   0   1    1.85    0.37
  -7   0  -1    0.37    0.24
   7   0   1   -0.29    0.35
  -7   1   1    1.18    0.30
   6  -1  -1    1.96    0.38
  -6   1   1    1.88    0.24
  -6   1   1    2.01    0.29
   5  -1  -1   63.05    1.36
  -5   1   1   61.06    1.32
  -5   1   1   61.78    1.24
   4  -1  -1   22.30    0.65
  -4   1   1   21.16    0.54
  -4   1   1   21.53    0.59
   3  -1  -1   52.76    1.04
  -3   1   1   51.26    1.02
  -3   1   1   50.67    0.97
   2  -1  -1   15.47    0.40
  -2   1   1   14.75    0.37
  -2   1   1   14.85    0.34
   1  -1  -1   96.59    1.64
  -1   1   1   97.18    1.62
  -1   1   1   96.71    1.64
   0  -1  -1    6.18    0.15
  -1  -1  -1    3.03    0.15
  -1  -1  -1    3.08    0.13
   1   1   1    2.78    0.13
   1   1   1    2.67    0.16
  -2  -1  -1   32.01    0.64
  -2  -1  -1   32.02    0.60
  -2  -1  -1   31.98    0.63
   2   1   1   31.54    0.65
   2   1   1   32.88    0.62
  -3  -1  -1  192.81    3.29
  -3  -1  -1  194.08    3.24
  -3  -1  -1  192.25    3.28
   3   1   1  193.16    3.41
   3   1   1  194.80    3.26
  -4  -1  -1    1.59    0.23
  -4  -1  -1    1.88    0.23
  -4  -1  -1    2.22    0.20
   4   1   1    1.98    0.22
   4   1   1    2.01    0.28
  -5  -1  -1    0.36    0.16
  -5  -1  -1    0.08    0.22
  -5  -1  -1    0.08    0.17
   5   1   1    0.15    0.29
  -6  -1  -1    4.09    0.37
   6   1   1    4.25    0.47
  -7  -1  -1    0.53    0.24
   7   1   1    0.47    0.38
  -7   2   1    0.66    0.29
  -6   2   1    1.68    0.25
  -6   2   1    1.16    0.28
   5  -2  -1   35.48    0.92
  -5   2   1   36.86    0.84
   4  -2  -1   52.96    1.11
  -4   2   1   53.25    1.05
  -4   2   1   51.93    1.11
   3  -2  -1    5.55    0.31
  -3   2   1    5.72    0.24
  -3   2   1    5.70    0.28
   2  -2  -1    8.46    0.27
  -2   2   1    8.39    0.27
  -2   2   1    8.39    0.24
  -1   2   1   21.97    0.43
  -1   2   1   22.52    0.42
  -1   2   1   22.81    0.41
   0  -2  -1  310.02    5.40
  -1  -2  -1 1000.00   16.20
   1   2   1  969.28   16.11
  -2  -2  -1   31.66    0.64
  -2  -2  -1   32.84    0.61
   2   2   1   32.25    0.65
   2   2   1   32.01    0.62
  -3  -2  -1   63.30    1.16
  -3  -2  -1   61.92    1.18
   3   2   1   63.50    1.16
   3   2   1   60.95    1.20
  -4  -2  -1    5.61    0.36
  -4  -2  -1    5.17    0.28
   4   2   1    5.23    0.41
   4   2   1    6.07    0.36
  -5  -2  -1    0.12    0.16
  -5  -2  -1   -0.08    0.21
   5   2   1   -0.02    0.29
  -6  -2  -1    6.63    0.40
   6   2   1    6.48    0.61
   7   2   1    4.42    0.56
  -7   3   1    0.10    0.22
  -7   3   1    0.25    0.30
  -6   3   1    3.57    0.39
  -6   3   1    3.69    0.44
  -5   3   1    0.03    0.19
  -5   3   1    0.21    0.16
   4  -3  -1   99.05    1.83
  -4   3   1  100.65    1.82
  -4   3   1  100.00    1.88
   3  -3  -1    0.51    0.14
   3  -3  -1    0.03    0.14
  -3   3   1    0.13    0.13
  -3   3   1    0.27    0.11
  -2   3   1   24.54    0.52
  -2   3   1   24.32    0.49
  -1   3   1   10.91    0.24
  -1   3   1   11.79    0.23
  -1   3   1   11.43    0.24
   0  -3  -1   75.48    1.35
  -1  -3  -1    0.03    0.07
  -1  -3  -1    0.02    0.09
  -2  -3  -1    4.99    0.25
  -2  -3  -1    4.86    0.22
   2   3   1    4.93    0.17
   2   3   1    4.82    0.20
   2   3   1    4.37    0.24
  -3  -3  -1    0.33    0.10
  -3  -3  -1    0.33    0.15
   3   3   1    0.34    0.14
   3   3   1    0.04    0.17
  -4  -3  -1   64.96    1.30
  -4  -3  -1   62.91    1.23
   4   3   1   67.26    1.28
   4   3   1   65.15    1.34
  -5  -3  -1    1.80    0.28
   5   3   1    1.88    0.35
   5   3   1    2.42    0.31
   6   3   1   -0.06    0.36
   7   3   1    5.48    0.75
  -7   4   1    0.38    0.26
  -7   4   1    0.41    0.32
  -6   4   1    0.42    0.26
  -6   4   1    0.80    0.24
  -5   4   1    9.81    0.50
  -5   4   1    9.43    0.43
  -4   4   1   18.15    0.56
  -4   4   1   17.56    0.51
  -3   4   1   58.28    1.10
  -3   4   1   58.33    1.15
  -2   4   1   30.96    0.59
  -2   4   1   28.92    0.61
  -1   4   1    0.45    0.07
   0  -4  -1    0.08    0.12
  -1  -4  -1   23.73    0.50
  -1  -4  -1   29.23    0.61
  -2  -4  -1  491.69    8.12
  -2  -4  -1  491.80    8.46
   2   4   1  479.25    7.98
   2   4   1  463.35    8.14
   2   4   1  473.66    7.99
   2   4   1  494.10    8.10
  -3  -4  -1    0.06    0.16
  -3  -4  -1    0.08    0.15
   3   4   1    0.17    0.15
   3   4   1    0.16    0.09
   3   4   1   -0.18    0.18
  -4  -4  -1   31.85    0.78
   4   4   1   32.02    0.76
   4   4   1   30.62    0.81
  -5  -4  -1    0.35    0.25
   5   4   1    0.44    0.29
   5   4   1    0.24    0.26
   6   4   1    0.05    0.36
   7   4   1    1.37    0.49
  -6   5   1    0.22    0.23
  -6   5   1    0.55    0.29
  -5   5   1    6.38    0.40
  -5   5   1    6.04    0.45
  -4   5   1   11.28    0.41
  -4   5   1   11.21    0.46
  -3   5   1   57.80    1.16
  -3   5   1   60.18    1.12
   2  -5  -1    8.73    0.29
  -2   5   1    9.40    0.27
  -2   5   1    8.70    0.29
  -2   5   1    8.31    0.32
   0  -5  -1    3.68    0.31
  -1  -5  -1   27.64    0.51
  -1  -5  -1   28.26    0.67
  -2  -5  -1    0.12    0.14
  -2  -5  -1    0.13    0.12
   2   5   1   -0.04    0.10
   2   5   1   -0.01    0.12
   2   5   1    0.17    0.08
   2   5   1    0.12    0.07
  -3  -5  -1    1.88    0.24
  -3  -5  -1    2.25    0.26
   3   5   1    2.05    0.19
   3   5   1    1.94    0.25
   3   5   1    2.33    0.28
  -4  -5  -1    8.99    0.47
  -4  -5  -1    9.31    0.44
   4   5   1    9.08    0.48
   4   5   1    9.27    0.43
  -5  -5  -1    9.56    0.54
   5   5   1   10.55    0.60
   5   5   1    9.66    0.54
  -6  -5  -1    2.99    0.38
   6   5   1    3.51    0.48
   7   5   1   -0.12    0.45
  -6   6   1    0.81    0.27
  -6   6   1    0.72    0.32
  -5   6   1    0.27    0.20
  -5   6   1    0.42    0.25
  -4   6   1   23.34    0.68
  -4   6   1   23.55    0.62
  -3   6   1   -0.07    0.13
  -3   6   1   -0.08    0.15
  -2   6   1   14.03    0.35
  -2   6   1   13.92    0.38
   1  -6  -1   13.64    0.31
   0  -6  -1    0.62    0.21
  -1  -6  -1    9.28    0.45
  -2  -6  -1   16.91    0.41
  -2  -6  -1   15.76    0.53
   2   6   1   14.66    0.40
   2   6   1   15.02    0.35
   2   6   1   14.98    0.37
  -3  -6  -1  110.17    1.96
  -3  -6  -1  107.22    2.07
   3   6   1  110.82    1.92
   3   6   1  108.40    1.97
  -4  -6  -1    0.07    0.21
   4   6   1    0.09    0.20
   4   6   1    0.43    0.25
  -5  -6  -1   10.27    0.56
   5   6   1    9.93    0.56
   5   6   1   10.41    0.62
  -6  -6  -1    0.04    0.27
   6   6   1    0.11    0.40
  -5   7   1    1.11    0.30
  -5   7   1    0.72    0.23
  -4   7   1    5.54    0.35
  -4   7   1    5.48    0.40
  -3   7   1   26.48    0.68
  -3   7   1   26.66    0.62
  -2   7   1    7.89    0.27
  -2   7   1    8.01    0.31
   0  -7  -1    4.26    0.42
  -1  -7  -1    0.26    0.22
  -2  -7  -1   10.76    0.50
   2   7   1   10.69    0.34
   2   7   1   10.40    0.30
   2   7   1   11.03    0.29
  -3  -7  -1    0.14    0.20
   3   7   1    0.66    0.22
   3   7   1    0.19    0.17
  -4  -7  -1    0.16    0.23
   4   7   1   -0.09    0.20
   4   7   1    0.31    0.27
  -5  -7  -1    7.72    0.54
   5   7   1    6.87    0.53
   5   7   1    8.85    0.66
  -6  -7  -1    0.31    0.29
   6   7   1    0.56    0.42
  -4   8   1    0.35    0.22
  -4   8   1    0.15    0.18
  -3   8   1   20.39    0.60
  -3   8   1   20.08    0.54
  -2   8   1    6.49    0.31
  -2   8   1    6.78    0.28
   0  -8  -1    1.46    0.30
  -1  -8  -1   -0.02    0.22
  -2  -8  -1    8.06    0.52
   2   8   1    7.06    0.28
   2   8   1    7.89    0.26
   2   8   1    8.34    0.31
  -3  -8  -1   48.06    1.20
   3   8   1   49.39    1.04
   3   8   1   47.00    0.97
  -4  -8  -1   10.91    0.61
   4   8   1   10.05    0.50
   4   8   1   11.81    0.60
  -5  -8  -1    0.37    0.28
   5   8   1    0.44    0.36
  -3   9   1    1.30    0.20
  -3   9   1    1.43    0.24
  -2   9   1   19.91    0.49
  -2   9   1   20.03    0.52
  -1  -9  -1    5.81    0.55
  -2  -9  -1    0.28    0.28
   2   9   1    2.22    0.30
  -3  -9  -1    2.88    0.39
   3   9   1    2.05    0.25
  -4  -9  -1    0.28    0.29
   4   9   1   -0.45    0.24
   4   9   1    0.53    0.34
  -2  10   1    6.77    0.32
  -2  10   1    7.02    0.34
  -1 -10  -1   -0.23    0.31
  -2 -10  -1   -0.32    0.30
   2  10  -2    1.44    0.28
  -2 -10   2    1.58    0.40
  -1 -10   2    1.70    0.41
   0 -10   2    5.38    0.67
   4   9  -2    1.11    0.37
  -4  -9   2    1.08    0.34
   3   9  -2    0.20    0.27
  -3  -9   2    0.19    0.30
   2   9  -2    0.22    0.21
  -2  -9   2    0.15    0.28
  -1  -9   2    0.31    0.30
   0  -9   2    7.11    0.60
  -1   9  -2    3.16    0.21
  -2   9  -2    4.95    0.31
  -2   9  -2    5.25    0.28
  -3   9  -2    0.46    0.20
  -3   9  -2    0.11    0.16
   5   8  -2    1.14    0.41
  -5  -8   2    1.19    0.35
   4   8  -2    1.81    0.36
  -4  -8   2    1.63    0.33
   3   8  -2    0.70    0.26
  -3  -8   2    0.59    0.27
   2   8  -2    0.29    0.20
  -2  -8   2    0.39    0.25
  -1  -8   2   11.22    0.61
   0  -8   2    0.25    0.25
  -1   8  -2   10.69    0.31
   1  -8   2   12.38    0.63
  -2   8  -2    6.96    0.32
  -2   8  -2    7.09    0.28
  -3   8  -2   -0.06    0.17
  -3   8  -2    0.00    0.14
  -4   8  -2    6.00    0.45
  -4   8  -2    5.95    0.38
   5   7  -2    1.43    0.40
  -5  -7   2    1.02    0.32
   4   7  -2    2.57    0.36
  -4  -7   2    2.51    0.38
   3   7  -2    2.77    0.39
  -3  -7   2    2.82    0.34
   2   7  -2    0.29    0.10
   2   7  -2    0.33    0.18
  -2  -7   2    0.36    0.23
  -1  -7   2    1.34    0.27
   0  -7   2   14.17    0.59
  -1   7  -2    2.71    0.18
   1  -7   2    3.41    0.43
  -2   7  -2   10.76    0.36
  -2   7  -2   11.02    0.32
  -3   7  -2    6.60    0.32
  -3   7  -2    6.46    0.36
  -4   7  -2    2.32    0.29
  -4   7  -2    2.56    0.31
  -5   7  -2   17.44    0.70
  -5   7  -2   17.73    0.62
   6   6  -2    0.57    0.43
  -6  -6   2   -0.07    0.30
   5   6  -2    7.80    0.63
  -5  -6   2    7.07    0.58
   4   6  -2    0.16    0.27
  -4  -6   2   -0.07    0.24
   3   6  -2    1.80    0.27
  -3  -6   2    1.78    0.28
   2   6  -2    0.24    0.09
   2   6  -2    0.21    0.17
  -2  -6   2    0.19    0.18
   1   6  -2    0.53    0.12
  -1  -6   2    0.66    0.21
   0  -6   2   32.38    0.83
  -1   6  -2    7.87    0.25
  -1   6  -2    7.86    0.24
  -1   6  -2    8.17    0.22
   1  -6   2    8.77    0.48
   1  -6   2    7.48    0.23
  -2   6  -2   13.92    0.38
  -2   6  -2   14.25    0.36
  -2   6  -2   13.23    0.39
  -3   6  -2   16.86    0.51
  -3   6  -2   16.66    0.46
  -4   6  -2    5.65    0.39
  -4   6  -2    5.78    0.34
  -5   6  -2    3.95    0.43
  -5   6  -2    3.73    0.38
  -6   6  -2    0.45    0.29
  -6   6  -2    0.54    0.25
   6   5  -2    0.31    0.39
   5   5  -2    7.98    0.60
   4   5  -2   13.61    0.59
  -4  -5   2   14.07    0.60
   3   5  -2    0.10    0.23
  -3  -5   2    0.16    0.20
   2   5  -2    0.68    0.17
   2   5  -2    0.80    0.10
   2   5  -2    0.96    0.16
  -2  -5   2    0.69    0.19
   1   5  -2    2.16    0.13
   1   5  -2    2.22    0.13
   1   5  -2    1.95    0.16
   1   5  -2    2.06    0.11
  -1  -5   2    1.91    0.27
   0  -5   2    1.38    0.21
  -1   5  -2   76.42    1.32
  -1   5  -2   74.32    1.31
  -1   5  -2   77.64    1.29
  -1   5  -2   77.42    1.29
   1  -5   2   75.13    1.32
   1  -5   2   79.88    1.51
  -2   5  -2    1.81    0.17
  -2   5  -2    1.86    0.19
  -2   5  -2    1.81    0.16
   2  -5   2    2.09    0.18
  -3   5  -2   11.66    0.37
  -3   5  -2   11.16    0.41
  -4   5  -2    2.24    0.32
  -4   5  -2    2.46    0.28
  -5   5  -2    1.23    0.22
  -5   5  -2    1.48    0.28
  -6   5  -2   23.03    0.83
  -6   5  -2   22.99    0.75
   7   4  -2    0.66    0.47
   6   4  -2    0.53    0.38
   5   4  -2    0.74    0.33
   4   4  -2   20.88    0.69
   3   4  -2    0.61    0.22
   3   4  -2    0.50    0.11
   2   4  -2    0.18    0.15
   2   4  -2    0.22    0.07
  -2  -4   2    0.38    0.16
   1   4  -2    0.14    0.09
   1   4  -2    0.21    0.06
   1   4  -2    0.18    0.08
   1   4  -2    0.26    0.07
  -1  -4   2    0.06    0.13
   0  -4   2   31.76    0.57
   0  -4   2   32.61    0.72
  -1   4  -2   44.13    0.79
  -1   4  -2   44.65    0.77
  -1   4  -2   43.47    0.79
  -1   4  -2   44.36    0.77
   1  -4   2   44.42    0.80
   1  -4   2   44.94    0.93
  -2   4  -2   43.68    0.81
  -2   4  -2   42.63    0.79
  -2   4  -2   41.74    0.83
  -3   4  -2    6.17    0.32
  -3   4  -2    6.44    0.28
  -4   4  -2   12.04    0.43
  -4   4  -2   12.15    0.47
  -5   4  -2   18.87    0.59
  -5   4  -2   18.89    0.66
  -6   4  -2    0.89    0.24
  -6   4  -2    0.90    0.27
  -7   4  -2    2.48    0.33
  -7   4  -2    2.81    0.42
   7   3  -2    2.59    0.51
   6   3  -2    3.76    0.48
   5   3  -2    3.85    0.53
   4   3  -2    6.49    0.50
  -4  -3   2    6.66    0.31
   3   3  -2   50.19    1.04
  -3  -3   2   49.84    0.95
   2   3  -2    1.42    0.18
   2   3  -2    1.36    0.13
   1   3  -2    0.43    0.08
   1   3  -2    0.30    0.06
   1   3  -2    0.26    0.10
  -1  -3   2    0.37    0.13
   0  -3   2    6.36    0.16
  -1   3  -2    1.43    0.13
  -1   3  -2    1.43    0.13
  -1   3  -2    1.25    0.14
  -1   3  -2    1.47    0.11
   1  -3   2    1.24    0.15
   1  -3   2    1.22    0.12
  -2   3  -2  152.32    2.55
  -2   3  -2  151.13    2.58
  -2   3  -2  149.50    2.56
  -2   3  -2  155.89    2.56
  -3   3  -2   20.33    0.53
  -3   3  -2   20.02    0.50
  -3   3  -2   21.03    0.49
   3  -3   2   19.88    0.50
  -4   3  -2    4.76    0.30
  -4   3  -2    4.29    0.33
   4  -3   2    4.37    0.35
  -5   3  -2    0.14    0.20
  -5   3  -2    0.17    0.16
  -6   3  -2    1.51    0.30
  -6   3  -2    1.51    0.25
  -7   3  -2   10.58    0.53
  -7   3  -2   11.39    0.68
   7   2  -2    0.09    0.42
   6   2  -2    0.07    0.36
  -6  -2   2    0.56    0.26
   5   2  -2    0.33    0.31
  -5  -2   2    0.49    0.20
   4   2  -2    0.22    0.26
  -4  -2   2    0.29    0.15
   3   2  -2   27.93    0.69
  -3  -2   2   27.30    0.61
   2   2  -2    0.81    0.17
  -2  -2   2    1.00    0.12
   1   2  -2    0.60    0.11
   1   2  -2    0.54    0.07
  -1  -2   2    0.66    0.07
   0   2  -2    1.84    0.09
   0   2  -2    1.89    0.12
   0   2  -2    1.62    0.10
   0  -2   2    1.88    0.15
   0  -2   2    1.97    0.10
  -1   2  -2  222.73    3.85
  -1   2  -2  225.83    3.72
  -1   2  -2  218.19    3.86
  -1   2  -2  229.91    3.78
   1  -2   2  215.54    3.91
   1  -2   2  226.41    3.73
  -2   2  -2    7.10    0.25
  -2   2  -2    7.40    0.23
  -2   2  -2    7.14    0.26
   2  -2   2    7.00    0.26
  -3   2  -2   66.08    1.22
  -3   2  -2   67.11    1.27
  -3   2  -2   66.26    1.25
   3  -2   2   66.74    1.25
  -4   2  -2   -0.15    0.15
  -4   2  -2   -0.10    0.16
  -4   2  -2   -0.07    0.13
   4  -2   2   -0.15    0.21
  -5   2  -2    0.84    0.22
  -5   2  -2    1.30    0.19
  -5   2  -2    1.26    0.26
   5  -2   2    1.44    0.29
  -6   2  -2   17.53    0.59
  -6   2  -2   16.72    0.65
  -7   2  -2    0.74    0.30
   7   1  -2    1.57    0.46
  -7  -1   2    2.11    0.42
   6   1  -2    2.69    0.42
  -6  -1   2    3.00    0.39
   5   1  -2   10.10    0.59
  -5  -1   2   10.18    0.46
   4   1  -2   38.56    0.93
  -4  -1   2   38.59    0.85
  -4  -1   2   37.70    0.79
   3   1  -2    2.85    0.32
  -3  -1   2    2.58    0.17
  -3  -1   2    2.66    0.21
   2   1  -2   64.92    1.19
  -2  -1   2   65.04    1.14
  -2  -1   2   64.49    1.16
   1   1  -2    8.54    0.28
  -1  -1   2    8.62    0.23
   0   1  -2    0.24    0.06
   0   1  -2    0.40    0.08
   0  -1   2    0.21    0.06
   0  -1   2    0.17    0.07
  -1   1  -2    0.35    0.09
  -1   1  -2    0.22    0.09
  -1   1  -2    0.38    0.07
   1  -1   2    0.18    0.11
  -2   1  -2   46.71    0.85
  -2   1  -2   45.92    0.88
  -2   1  -2   47.07    0.88
   2  -1   2   46.25    0.88
   2  -1   2   46.86    0.85
  -3   1  -2   78.73    1.46
  -3   1  -2   78.72    1.46
  -3   1  -2   78.25    1.42
   3  -1   2   78.66    1.47
   3  -1   2   81.56    1.43
  -4   1  -2   18.21    0.48
  -4   1  -2   17.99    0.54
  -4   1  -2   18.19    0.53
   4  -1   2   18.28    0.58
  -5   1  -2    0.98    0.18
  -5   1  -2    1.09    0.24
  -5   1  -2    0.75    0.24
   5  -1   2    1.03    0.30
  -6   1  -2    3.14    0.39
  -6   1  -2    3.41    0.33
   6  -1   2    2.57    0.38
  -7   1  -2   11.48    0.60
   7  -1   2    9.83    0.97
   7   0  -2    4.71    0.67
  -7   0   2    5.25    0.51
   6   0  -2   -0.32    0.33
  -6   0   2    0.20    0.21
   5   0  -2    2.73    0.38
  -5   0   2    2.83    0.34
  -5   0   2    2.93    0.27
   4   0  -2    9.68    0.49
  -4   0   2    9.29    0.33
  -4   0   2    9.19    0.38
   3   0  -2    8.14    0.38
  -3   0   2    7.74    0.31
  -3   0   2    7.78    0.27
   2   0  -2   20.52    0.50
  -2   0   2   20.34    0.43
  -2   0   2   20.69    0.47
   1   0  -2   42.45    0.79
  -1   0   2   43.23    0.78
  -1   0   2   44.00    0.76
   0   0  -2   21.42    0.39
   0   0  -2   21.37    0.40
   0   0   2   22.97    0.41
  -1   0  -2    5.01    0.16
  -1   0  -2    4.97    0.19
  -1   0  -2    5.18    0.19
  -2   0  -2  292.44    5.07
  -2   0  -2  279.29    5.12
  -2   0  -2  286.36    4.87
   2   0   2  281.48    5.05
   2   0   2  286.28    4.86
  -3   0  -2   15.89    0.44
  -3   0  -2   15.89    0.40
  -3   0  -2   15.83    0.44
   3   0   2   16.29    0.43
   3   0   2   16.15    0.48
  -4   0  -2   32.59    0.77
  -4   0  -2   32.02    0.70
  -4   0  -2   31.76    0.76
   4   0   2   31.78    0.80
   4   0   2   32.56    0.75
  -5   0  -2    2.92    0.32
  -5   0  -2    2.82    0.28
  -5   0  -2    2.71    0.30
   5   0   2    2.95    0.36
  -6   0  -2    1.98    0.28
  -6   0  -2    2.36    0.34
   6   0   2    2.04    0.38
  -7   0  -2    6.87    0.50
   7   0   2    6.18    0.64
  -7   1   2    3.08    0.46
   6  -1  -2    1.86    0.40
  -6   1   2    1.80    0.30
  -6   1   2    1.75    0.23
   5  -1  -2    0.24    0.28
  -5   1   2    0.21    0.16
  -5   1   2    0.17    0.19
   4  -1  -2    9.33    0.48
  -4   1   2    9.40    0.40
  -4   1   2    9.94    0.36
   3  -1  -2   86.25    1.58
  -3   1   2   84.46    1.57
  -3   1   2   85.87    1.52
   2  -1  -2   75.57    1.34
  -2   1   2   73.42    1.33
  -2   1   2   73.63    1.29
   1  -1  -2    7.12    0.22
  -1   1   2    6.52    0.18
  -1   1   2    6.45    0.20
   0  -1  -2    5.36    0.14
   0   1   2    5.54    0.13
   0   1   2    5.51    0.15
   0   1   2    5.29    0.14
   0   1   2    5.23    0.17
  -1  -1  -2    0.07    0.07
  -1  -1  -2    0.08    0.09
   1   1   2   -0.12    0.10
   1   1   2   -0.04    0.07
  -2  -1  -2   13.92    0.32
  -2  -1  -2   14.37    0.37
  -2  -1  -2   14.12    0.35
   2   1   2   14.28    0.34
   2   1   2   13.76    0.37
  -3  -1  -2   86.44    1.53
  -3  -1  -2   87.00    1.59
  -3  -1  -2   85.63    1.57
   3   1   2   87.13    1.60
   3   1   2   89.20    1.56
  -4  -1  -2    7.60    0.39
  -4  -1  -2    7.56    0.34
  -4  -1  -2    7.66    0.29
   4   1   2    7.43    0.38
   4   1   2    7.40    0.43
  -5  -1  -2    4.30    0.34
  -5  -1  -2    4.70    0.34
  -5  -1  -2    4.48    0.39
   5   1   2    4.35    0.45
   5   1   2    4.79    0.49
  -6  -1  -2   -0.12    0.24
  -6  -1  -2    0.00    0.18
   6   1   2   -0.06    0.32
  -7  -1  -2    2.17    0.33
   7   1   2    1.74    0.44
  -7   2   2    6.77    0.59
  -6   2   2    0.84    0.26
  -6   2   2    0.71    0.21
   5  -2  -2    3.70    0.42
  -5   2   2    3.93    0.37
  -5   2   2    3.58    0.32
   4  -2  -2    0.83    0.25
  -4   2   2    0.65    0.18
  -4   2   2    0.56    0.15
   3  -2  -2   18.02    0.49
  -3   2   2   17.51    0.43
  -3   2   2   17.56    0.47
   2  -2  -2   26.59    0.55
  -2   2   2   25.89    0.55
  -2   2   2   26.11    0.52
   1  -2  -2    7.19    0.18
  -1   2   2    7.20    0.18
  -1   2   2    7.13    0.20
   0   2   2   30.73    0.53
   0   2   2   32.02    0.54
  -1  -2  -2    1.24    0.11
  -1  -2  -2    1.14    0.10
   1   2   2    1.07    0.08
   1   2   2    0.86    0.09
   1   2   2    0.82    0.10
   1   2   2    1.19    0.10
  -2  -2  -2    1.45    0.14
  -2  -2  -2    1.47    0.18
   2   2   2    1.29    0.16
   2   2   2    1.49    0.20
  -3  -2  -2   64.62    1.23
  -3  -2  -2   64.09    1.20
   3   2   2   66.10    1.20
   3   2   2   65.08    1.25
  -4  -2  -2   34.56    0.77
  -4  -2  -2   34.58    0.82
   4   2   2   35.50    0.79
   4   2   2   33.60    0.84
  -5  -2  -2    4.40    0.41
  -5  -2  -2    4.67    0.32
   5   2   2    3.93    0.46
   5   2   2    4.43    0.49
  -6  -2  -2    3.32    0.44
  -6  -2  -2    3.89    0.36
   6   2   2    3.79    0.56
   7   2   2    6.78    0.72
  -7   3   2    0.54    0.25
  -7   3   2    0.64    0.33
  -6   3   2    3.89    0.40
  -6   3   2    3.60    0.43
  -5   3   2    3.91    0.37
  -5   3   2    3.91    0.33
   4  -3  -2    4.67    0.37
   4  -3  -2    5.34    0.35
  -4   3   2    5.11    0.30
  -4   3   2    5.03    0.34
   3  -3  -2    0.37    0.16
  -3   3   2    0.53    0.12
  -3   3   2    0.54    0.15
  -2   3   2   41.56    0.80
  -2   3   2   41.54    0.77
  -1   3   2   82.66    1.41
  -1   3   2   83.25    1.40
  -1   3   2   85.01    1.40
  -1   3   2   83.16    1.41
   0  -3  -2    9.11    0.28
  -1  -3  -2    0.70    0.09
  -1  -3  -2    0.83    0.11
   1   3   2    0.62    0.07
   1   3   2    0.76    0.06
   1   3   2    0.87    0.08
   1   3   2    0.68    0.08
  -2  -3  -2    0.80    0.12
  -2  -3  -2    0.79    0.13
   2   3   2    0.52    0.14
   2   3   2    0.63    0.08
   2   3   2    0.55    0.10
  -3  -3  -2    5.24    0.21
  -3  -3  -2    5.40    0.28
   3   3   2    5.18    0.33
   3   3   2    5.55    0.28
  -4  -3  -2   55.39    1.09
  -4  -3  -2   56.11    1.16
   4   3   2   54.44    1.20
   4   3   2   58.07    1.14
  -5  -3  -2   -0.02    0.23
   5   3   2    0.17    0.27
   5   3   2   -0.25    0.23
  -6  -3  -2    0.64    0.29
   6   3   2    1.13    0.38
   7   3   2    0.77    0.43
  -7   4   2    0.52    0.33
  -7   4   2    0.51    0.26
  -6   4   2    8.03    0.49
  -6   4   2    7.93    0.55
  -5   4   2    0.35    0.18
  -5   4   2    0.33    0.22
  -4   4   2   14.48    0.51
  -4   4   2   14.47    0.46
  -3   4   2    2.70    0.25
  -3   4   2    2.90    0.23
  -2   4   2    2.85    0.17
  -2   4   2    2.84    0.19
  -1   4   2   15.24    0.30
  -1   4   2   15.01    0.32
  -1   4   2   15.20    0.31
  -1   4   2   15.45    0.30
   0  -4  -2    4.97    0.27
  -1  -4  -2   -0.07    0.08
  -1  -4  -2    0.22    0.11
  -2  -4  -2   11.35    0.36
  -2  -4  -2   13.65    0.39
   2   4   2   12.42    0.32
   2   4   2   12.09    0.35
   2   4   2   12.43    0.33
   2   4   2   12.69    0.30
  -3  -4  -2    8.82    0.35
  -3  -4  -2    8.69    0.36
   3   4   2    8.13    0.39
   3   4   2    8.91    0.34
   3   4   2    8.65    0.28
  -4  -4  -2    1.15    0.23
   4   4   2    1.62    0.24
   4   4   2    1.14    0.28
  -5  -4  -2   19.23    0.66
   5   4   2   18.56    0.71
   5   4   2   19.06    0.66
  -6  -4  -2   -0.31    0.27
   6   4   2   -0.15    0.34
   7   4   2    0.82    0.46
  -6   5   2    0.26    0.28
  -6   5   2    0.19    0.23
  -5   5   2    2.50    0.33
  -5   5   2    2.86    0.40
  -4   5   2    4.85    0.31
  -4   5   2    4.55    0.35
  -3   5   2   21.76    0.53
  -3   5   2   21.29    0.57
   2  -5  -2    4.96    0.25
  -2   5   2    5.13    0.24
  -2   5   2    5.36    0.22
  -1   5   2    1.02    0.13
  -1   5   2    1.25    0.11
   0  -5  -2   21.79    0.59
  -1  -5  -2   12.97    0.43
  -1  -5  -2   12.48    0.29
  -2  -5  -2    0.06    0.12
  -2  -5  -2    0.13    0.13
   2   5   2   -0.16    0.10
   2   5   2   -0.07    0.12
   2   5   2    0.12    0.07
   2   5   2    0.15    0.09
  -3  -5  -2    4.74    0.33
  -3  -5  -2    4.83    0.31
   3   5   2    3.75    0.34
   3   5   2    4.73    0.30
  -4  -5  -2    0.28    0.21
  -4  -5  -2    0.40    0.20
   4   5   2    0.09    0.25
   4   5   2    0.32    0.20
  -5  -5  -2   19.23    0.66
  -5  -5  -2   19.84    0.67
   5   5   2   18.87    0.67
   5   5   2   19.80    0.74
  -6  -5  -2    0.59    0.29
   6   5   2   -0.04    0.33
   6   5   2    0.82    0.39
   7   5   2   -0.16    0.45
  -6   6   2    1.17    0.35
  -6   6   2    0.77    0.27
  -5   6   2    3.65    0.36
  -5   6   2    3.99    0.44
  -4   6   2    3.61    0.34
  -4   6   2    3.12    0.30
  -3   6   2   14.86    0.42
  -3   6   2   14.26    0.46
  -2   6   2    9.37    0.29
  -2   6   2    8.93    0.31
  -1   6   2    1.98    0.15
   0  -6  -2    1.09    0.22
  -1  -6  -2    0.82    0.11
  -1  -6  -2    0.78    0.20
  -2  -6  -2    2.30    0.22
  -2  -6  -2    3.01    0.33
   2   6   2    2.03    0.15
   2   6   2    1.82    0.16
   2   6   2    2.41    0.19
  -3  -6  -2   19.86    0.62
  -3  -6  -2   19.17    0.54
   3   6   2   20.79    0.52
   3   6   2   19.98    0.57
  -4  -6  -2    6.41    0.43
  -4  -6  -2    6.74    0.41
   4   6   2    6.96    0.47
   4   6   2    6.63    0.42
  -5  -6  -2    4.35    0.45
  -5  -6  -2    3.95    0.44
   5   6   2    4.99    0.54
   5   6   2    3.61    0.46
  -6  -6  -2    4.17    0.49
   6   6   2    4.71    0.69
   6   6   2    3.42    0.44
  -5   7   2    2.18    0.29
  -5   7   2    2.35    0.36
  -4   7   2    3.05    0.37
  -4   7   2    2.93    0.31
  -3   7   2    0.52    0.15
  -3   7   2    0.63    0.19
  -2   7   2   17.88    0.43
  -2   7   2   17.47    0.46
   1  -7  -2   10.04    0.31
   0  -7  -2    2.16    0.28
  -1  -7  -2    1.94    0.27
  -2  -7  -2    6.58    0.28
  -2  -7  -2    6.03    0.42
   2   7   2    6.19    0.25
   2   7   2    6.70    0.23
   2   7   2    6.76    0.28
  -3  -7  -2    0.42    0.19
  -3  -7  -2    0.18    0.21
   3   7   2    0.24    0.17
   3   7   2    0.56    0.20
  -4  -7  -2    2.24    0.30
  -4  -7  -2    2.32    0.30
   4   7   2    2.98    0.45
   4   7   2    1.99    0.26
  -5  -7  -2    4.17    0.46
   5   7   2    3.12    0.35
   5   7   2    4.72    0.59
   6   7   2    3.88    0.53
  -4   8   2    0.88    0.25
  -4   8   2    0.56    0.19
  -3   8   2    7.13    0.39
  -3   8   2    7.21    0.34
  -2   8   2    5.23    0.26
  -2   8   2    5.29    0.29
  -1  -8  -2    0.26    0.24
  -2  -8  -2   -0.10    0.23
   2   8   2    0.19    0.12
   2   8   2    0.32    0.10
   3   8   2    0.62    0.24
   3   8   2    0.12    0.18
  -4  -8  -2    9.95    0.59
   4   8   2   11.24    0.60
   4   8   2    8.81    0.48
  -5  -8  -2    1.50    0.33
   5   8   2    0.65    0.31
   5   8   2    2.21    0.42
  -3   9   2    3.33    0.36
  -3   9   2    3.17    0.31
  -2   9   2    2.35    0.26
  -2   9   2    2.20    0.25
  -1  -9  -2    2.43    0.38
  -2  -9  -2   -0.23    0.24
   2   9   2   -0.14    0.13
  -3  -9  -2    1.84    0.34
   3   9   2    1.63    0.24
  -4  -9  -2    0.77    0.32
   4   9   2    0.99    0.33
  -2 -10  -2    0.12    0.31
   2  10  -3   -0.13    0.26
  -2 -10   3   -0.03    0.33
  -1 -10   3    1.18    0.36
   0 -10   3    0.12    0.36
  -1  10  -3   -0.15    0.15
   3   9  -3    1.46    0.34
  -3  -9   3    1.07    0.33
   2   9  -3    0.45    0.25
  -2  -9   3    0.31    0.31
   1   9  -3    0.71    0.20
  -1  -9   3    0.07    0.29
   0   9  -3    0.95    0.16
   0  -9   3    1.16    0.33
  -1   9  -3    0.69    0.15
  -1   9  -3    0.59    0.14
  -2   9  -3    0.46    0.15
  -2   9  -3    0.44    0.18
  -3   9  -3    1.30    0.25
  -3   9  -3    1.19    0.20
   4   8  -3    3.66    0.44
  -4  -8   3    2.80    0.38
   3   8  -3    0.13    0.27
  -3  -8   3    0.14    0.28
   2   8  -3    2.32    0.27
  -2  -8   3    1.96    0.33
   1   8  -3    0.24    0.18
  -1  -8   3    0.37    0.26
   0   8  -3    1.54    0.20
   0  -8   3    2.61    0.35
  -1   8  -3    3.45    0.23
  -1   8  -3    3.32    0.22
   1  -8   3    4.07    0.50
  -2   8  -3    0.54    0.14
  -2   8  -3    0.47    0.16
  -3   8  -3   10.47    0.40
  -3   8  -3   10.67    0.46
  -4   8  -3    3.68    0.35
  -4   8  -3    3.58    0.41
   5   7  -3   -0.01    0.37
  -5  -7   3    0.07    0.30
   4   7  -3    3.20    0.39
  -4  -7   3    3.25    0.41
   3   7  -3    2.79    0.41
  -3  -7   3    2.73    0.34
   2   7  -3    1.32    0.23
  -2  -7   3    0.94    0.26
   1   7  -3    3.20    0.19
   1   7  -3    2.42    0.26
  -1  -7   3    2.59    0.32
   0   7  -3   -0.10    0.11
   0  -7   3    0.12    0.23
  -1   7  -3    2.60    0.20
  -1   7  -3    2.46    0.21
  -1   7  -3    3.36    0.19
   1  -7   3    3.41    0.45
  -2   7  -3    4.09    0.24
  -2   7  -3    3.98    0.26
  -3   7  -3    2.95    0.27
  -3   7  -3    3.22    0.31
  -4   7  -3    0.76    0.19
  -4   7  -3    0.51    0.23
  -5   7  -3    7.88    0.47
  -5   7  -3    8.18    0.54
   6   6  -3    1.30    0.46
  -6  -6   3    0.71    0.35
   5   6  -3    0.10    0.35
  -5  -6   3    0.06    0.28
   4   6  -3    6.82    0.53
  -4  -6   3    6.47    0.51
   3   6  -3   18.46    0.60
  -3  -6   3   19.62    0.69
   2   6  -3    0.55    0.11
   2   6  -3    0.44    0.20
  -2  -6   3    0.36    0.22
   1   6  -3    2.30    0.16
   1   6  -3    2.19    0.25
  -1  -6   3    2.00    0.27
   0   6  -3    2.48    0.15
   0  -6   3    1.53    0.24
  -1   6  -3    1.29    0.18
  -1   6  -3    1.45    0.17
  -1   6  -3    1.09    0.12
   1  -6   3    1.01    0.25
   1  -6   3    1.13    0.14
  -2   6  -3   13.67    0.40
  -2   6  -3   13.67    0.38
  -2   6  -3   13.95    0.37
  -3   6  -3   13.54    0.47
  -3   6  -3   14.17    0.42
  -4   6  -3    4.59    0.37
  -4   6  -3    4.61    0.33
  -5   6  -3    4.62    0.44
  -5   6  -3    5.02    0.40
  -6   6  -3    3.58    0.52
  -6   6  -3    3.87    0.46
   6   5  -3    0.90    0.43
   5   5  -3    7.28    0.61
   4   5  -3    4.32    0.48
  -4  -5   3    4.25    0.45
   3   5  -3    1.95    0.29
  -3  -5   3    1.86    0.27
   2   5  -3    5.83    0.34
   2   5  -3    5.60    0.22
  -2  -5   3    6.18    0.40
   1   5  -3    0.36    0.08
   1   5  -3    0.50    0.10
   1   5  -3    0.30    0.14
  -1  -5   3    0.33    0.17
   0   5  -3    9.19    0.23
   0   5  -3    8.97    0.22
   0   5  -3    8.97    0.26
   0  -5   3    9.25    0.40
  -1   5  -3    9.17    0.27
  -1   5  -3    9.41    0.25
  -1   5  -3    9.16    0.27
  -1   5  -3    8.91    0.25
   1  -5   3    9.37    0.42
   1  -5   3    8.91    0.25
  -2   5  -3    0.91    0.15
  -2   5  -3    0.81    0.12
  -2   5  -3    0.68    0.13
  -3   5  -3    6.93    0.30
  -3   5  -3    6.49    0.34
  -4   5  -3   10.19    0.46
  -4   5  -3    9.76    0.40
  -5   5  -3    0.01    0.21
  -5   5  -3   -0.02    0.18
  -6   5  -3   20.42    0.79
  -6   5  -3   21.49    0.72
   7   4  -3    3.49    0.58
   6   4  -3   22.10    0.91
   5   4  -3    0.81    0.35
   4   4  -3    7.38    0.52
   3   4  -3    2.07    0.28
   2   4  -3   44.83    0.85
   2   4  -3   46.04    0.92
  -2  -4   3   46.42    1.00
   1   4  -3    7.19    0.20
   1   4  -3    7.04    0.26
   1   4  -3    7.52    0.23
  -1  -4   3    7.17    0.33
   0   4  -3    0.24    0.08
   0   4  -3    0.13    0.06
   0   4  -3    0.18    0.10
   0  -4   3   -0.02    0.12
  -1   4  -3    3.17    0.17
  -1   4  -3    3.60    0.16
  -1   4  -3    3.20    0.16
  -1   4  -3    3.29    0.18
   1  -4   3    3.09    0.27
   1  -4   3    3.20    0.16
  -2   4  -3    0.39    0.12
  -2   4  -3    0.27    0.11
  -2   4  -3    0.44    0.10
  -3   4  -3   16.21    0.48
  -3   4  -3   16.18    0.44
  -3   4  -3   16.07    0.56
  -4   4  -3   40.57    0.89
  -4   4  -3   42.16    0.96
  -5   4  -3    0.40    0.19
  -5   4  -3    0.35    0.22
  -6   4  -3    3.35    0.45
  -6   4  -3    3.67    0.41
  -7   4  -3    5.15    0.57
  -7   4  -3    5.09    0.50
   7   3  -3    3.38    0.56
   6   3  -3   -0.23    0.36
   5   3  -3   -0.17    0.31
   4   3  -3   20.56    0.70
  -4  -3   3   20.94    0.55
   3   3  -3   22.62    0.64
  -3  -3   3   23.12    0.52
   2   3  -3    0.22    0.17
   2   3  -3    0.12    0.08
  -2  -3   3    0.16    0.08
   1   3  -3    1.21    0.12
   1   3  -3    1.19    0.15
  -1  -3   3    1.43    0.17
   0   3  -3    0.17    0.06
   0   3  -3    0.25    0.09
   0   3  -3    0.22    0.08
   0  -3   3    0.19    0.12
   0  -3   3    0.28    0.07
  -1   3  -3   14.13    0.44
  -1   3  -3   14.13    0.34
  -1   3  -3   14.28    0.31
  -1   3  -3   13.75    0.31
   1  -3   3   14.53    0.40
  -2   3  -3   58.65    1.09
  -2   3  -3   60.70    1.12
  -2   3  -3   62.29    1.11
  -2   3  -3   59.55    1.08
   2  -3   3   60.56    1.07
  -3   3  -3    1.69    0.20
  -3   3  -3    1.62    0.23
  -3   3  -3    1.59    0.21
   3  -3   3    1.60    0.24
  -4   3  -3    5.89    0.35
  -4   3  -3    6.49    0.37
  -4   3  -3    6.55    0.33
   4  -3   3    6.51    0.38
  -5   3  -3   13.83    0.49
  -5   3  -3   13.59    0.54
  -6   3  -3    0.43    0.21
  -6   3  -3    0.16    0.23
  -7   3  -3   20.35    0.83
  -7   3  -3   19.92    0.71
   7   2  -3    0.84    0.45
   6   2  -3   29.04    0.99
   5   2  -3   14.80    0.68
  -5  -2   3   14.33    0.52
   4   2  -3    0.00    0.27
  -4  -2   3   -0.01    0.15
   3   2  -3   60.02    1.20
  -3  -2   3   58.82    1.13
   2   2  -3   17.95    0.49
  -2  -2   3   18.00    0.42
   1   2  -3   35.62    0.69
  -1  -2   3   35.23    0.64
   0   2  -3   22.62    0.42
   0   2  -3   22.05    0.43
   0   2  -3   22.38    0.45
   0  -2   3   22.45    0.41
   0  -2   3   22.60    0.48
  -1   2  -3    1.90    0.14
  -1   2  -3    1.74    0.13
  -1   2  -3    1.90    0.15
  -1   2  -3    1.99    0.12
   1  -2   3    1.71    0.16
   1  -2   3    1.84    0.15
  -2   2  -3   10.42    0.31
  -2   2  -3   10.34    0.28
  -2   2  -3   10.09    0.32
   2  -2   3   10.19    0.31
  -3   2  -3   12.69    0.39
  -3   2  -3   12.99    0.41
  -3   2  -3   12.63    0.36
   3  -2   3   12.62    0.40
  -4   2  -3    2.45    0.26
  -4   2  -3    2.53    0.29
  -4   2  -3    2.70    0.30
   4  -2   3    2.78    0.29
  -5   2  -3   36.08    0.84
  -5   2  -3   36.87    0.91
  -5   2  -3   36.08    0.92
   5  -2   3   35.55    0.91
  -6   2  -3    8.36    0.45
  -6   2  -3    8.47    0.51
  -7   2  -3    1.49    0.33
   7   1  -3    5.33    0.70
   6   1  -3    4.20    0.48
  -6  -1   3    3.85    0.42
   5   1  -3    2.64    0.38
  -5  -1   3    2.79    0.33
   4   1  -3   11.20    0.54
  -4  -1   3   10.70    0.35
  -4  -1   3   10.94    0.42
   3   1  -3   26.95    0.68
  -3  -1   3   26.82    0.62
  -3  -1   3   26.87    0.58
   2   1  -3   45.32    0.90
  -2  -1   3   44.62    0.86
  -2  -1   3   45.71    0.83
   1   1  -3    2.05    0.20
  -1  -1   3    2.17    0.15
   0   1  -3    3.07    0.16
   0   1  -3    2.59    0.14
   0   1  -3    3.14    0.18
   0  -1   3    2.76    0.15
  -1   1  -3    6.61    0.22
  -1   1  -3    6.52    0.19
  -1   1  -3    6.55    0.21
   1  -1   3    6.67    0.19
   1  -1   3    6.49    0.23
  -2   1  -3    0.80    0.10
  -2   1  -3    0.77    0.13
  -2   1  -3    0.53    0.13
   2  -1   3    0.72    0.12
   2  -1   3    0.60    0.15
  -3   1  -3   85.73    1.57
  -3   1  -3   84.43    1.57
  -3   1  -3   85.16    1.52
   3  -1   3   86.86    1.53
   3  -1   3   85.97    1.58
  -4   1  -3    9.78    0.41
  -4   1  -3    9.81    0.35
  -4   1  -3    9.62    0.40
   4  -1   3    9.88    0.46
   4  -1   3    9.11    0.41
  -5   1  -3    6.00    0.43
  -5   1  -3    6.68    0.35
  -5   1  -3    6.97    0.41
   5  -1   3    6.38    0.47
  -6   1  -3    6.05    0.47
  -6   1  -3    6.37    0.46
  -6   1  -3    6.43    0.39
   6  -1   3    5.64    0.54
  -7   1  -3    2.14    0.34
   7   0  -3   20.91    0.91
  -7   0   3   22.05    0.82
   6   0  -3    0.91    0.36
  -6   0   3    1.36    0.28
   5   0  -3   73.61    1.57
  -5   0   3   73.86    1.43
  -5   0   3   73.74    1.51
   4   0  -3    2.06    0.31
  -4   0   3    1.85    0.18
  -4   0   3    1.94    0.23
   3   0  -3    2.86    0.31
  -3   0   3    2.48    0.19
  -3   0   3    2.46    0.22
   2   0  -3  154.65    2.63
  -2   0   3  154.93    2.57
  -2   0   3  150.81    2.61
   1   0  -3  155.78    2.72
  -1   0   3  159.09    2.83
  -1   0   3  159.79    2.77
   0   0  -3    1.15    0.13
   0   0   3    0.71    0.08
   0   0   3    0.61    0.11
  -1   0  -3   23.49    0.45
  -1   0  -3   23.29    0.47
  -1   0  -3   24.08    0.47
   1   0   3   23.10    0.45
   1   0   3   22.41    0.48
  -2   0  -3   14.75    0.38
  -2   0  -3   14.56    0.35
   2   0   3   14.33    0.39
   2   0   3   15.46    0.36
  -3   0  -3   10.15    0.31
  -3   0  -3    9.60    0.35
  -3   0  -3    9.50    0.34
   3   0   3   10.23    0.35
   3   0   3   10.13    0.39
  -4   0  -3   25.30    0.60
  -4   0  -3   25.74    0.66
  -4   0  -3   25.59    0.66
   4   0   3   26.07    0.64
   4   0   3   25.30    0.70
  -5   0  -3    1.46    0.19
  -5   0  -3    1.26    0.23
  -5   0  -3    1.35    0.27
   5   0   3    0.89    0.27
   5   0   3    1.41    0.32
  -6   0  -3    8.67    0.48
  -6   0  -3    8.91    0.52
   6   0   3    8.09    0.60
  -7   0  -3   10.09    0.56
   7   0   3    9.22    0.70
  -7   1   3    1.86    0.35
   6  -1  -3    3.68    0.54
  -6   1   3    4.08    0.36
  -6   1   3    4.05    0.43
   5  -1  -3    3.27    0.46
  -5   1   3    2.74    0.35
  -5   1   3    3.12    0.29
   4  -1  -3   11.53    0.51
  -4   1   3   11.03    0.44
  -4   1   3   11.34    0.39
   3  -1  -3   97.75    1.78
  -3   1   3   97.18    1.76
  -3   1   3   96.10    1.71
   2  -1  -3    2.55    0.24
   2  -1  -3    2.25    0.23
  -2   1   3    2.51    0.20
  -2   1   3    2.43    0.16
   1  -1  -3   24.31    0.49
  -1   1   3   24.57    0.49
  -1   1   3   24.52    0.47
   0  -1  -3    0.46    0.09
   0   1   3    0.25    0.07
   0   1   3    0.35    0.10
  -1  -1  -3   12.25    0.28
  -1  -1  -3   11.39    0.21
  -1  -1  -3   11.78    0.29
   1   1   3   11.94    0.27
   1   1   3   11.30    0.30
  -2  -1  -3   17.28    0.41
  -2  -1  -3   16.71    0.37
  -2  -1  -3   17.36    0.41
   2   1   3   16.82    0.42
   2   1   3   16.61    0.39
  -3  -1  -3   12.64    0.41
  -3  -1  -3   12.97    0.39
  -3  -1  -3   12.43    0.34
   3   1   3   12.61    0.38
   3   1   3   12.71    0.44
  -4  -1  -3   28.83    0.70
  -4  -1  -3   28.62    0.65
  -4  -1  -3   29.29    0.73
   4   1   3   30.55    0.71
  -5  -1  -3    9.41    0.49
  -5  -1  -3    9.35    0.43
   5   1   3    9.28    0.54
   5   1   3    9.25    0.51
  -6  -1  -3    5.07    0.48
  -6  -1  -3    6.31    0.42
   6   1   3    5.62    0.57
  -7  -1  -3    1.02    0.34
   7   1   3    1.01    0.41
  -7   2   3    0.38    0.30
  -6   2   3   22.01    0.67
  -6   2   3   21.46    0.76
   5  -2  -3    5.74    0.46
  -5   2   3    5.96    0.40
  -5   2   3    6.24    0.37
   4  -2  -3   79.30    1.53
  -4   2   3   77.04    1.52
  -4   2   3   76.94    1.46
   3  -2  -3    0.64    0.18
   3  -2  -3    0.76    0.18
  -3   2   3    0.68    0.13
  -3   2   3    0.62    0.14
   2  -2  -3   17.83    0.43
  -2   2   3   18.12    0.40
  -2   2   3   17.68    0.43
   1  -2  -3   64.16    1.10
  -1   2   3   65.14    1.13
  -1   2   3   63.99    1.11
   0   2   3   98.69    1.62
   0   2   3   97.91    1.72
   0   2   3   96.50    1.63
   0   2   3   97.99    1.62
  -1  -2  -3   21.25    0.41
  -1  -2  -3   22.10    0.41
  -1  -2  -3   21.59    0.44
   1   2   3   21.59    0.41
   1   2   3   21.30    0.41
   1   2   3   21.52    0.44
  -2  -2  -3    4.63    0.19
  -2  -2  -3    4.27    0.22
   2   2   3    3.98    0.24
   2   2   3    4.34    0.20
  -3  -2  -3   27.37    0.60
  -3  -2  -3   27.77    0.64
   3   2   3   27.24    0.61
   3   2   3   27.31    0.66
  -4  -2  -3    0.16    0.14
  -4  -2  -3    0.26    0.19
   4   2   3   -0.01    0.23
   4   2   3    0.29    0.19
  -5  -2  -3   15.61    0.51
  -5  -2  -3   15.19    0.58
   5   2   3   16.55    0.60
   5   2   3   14.85    0.64
  -6  -2  -3    5.18    0.47
  -6  -2  -3    5.95    0.45
   6   2   3    6.23    0.48
   6   2   3    5.32    0.58
  -7  -2  -3   -0.07    0.31
   7   2   3   -0.16    0.39
  -7   3   3    3.20    0.43
  -7   3   3    3.67    0.48
  -6   3   3   10.35    0.51
  -6   3   3   10.54    0.57
  -5   3   3    0.44    0.18
  -5   3   3    0.56    0.23
   4  -3  -3    0.10    0.21
  -4   3   3    0.48    0.19
  -4   3   3    0.46    0.16
   3  -3  -3    5.91    0.29
  -3   3   3    6.26    0.31
  -3   3   3    6.45    0.27
   2  -3  -3  153.46    2.75
  -2   3   3  167.81    2.78
  -2   3   3  169.16    2.74
  -1   3   3   13.79    0.32
  -1   3   3   14.16    0.31
  -1   3   3   13.54    0.32
  -1   3   3   13.79    0.30
   0   3   3    0.42    0.05
   0   3   3    0.51    0.06
   0   3   3    0.46    0.07
   0   3   3    0.46    0.07
  -1  -3  -3    1.04    0.15
  -1  -3  -3    0.94    0.13
   1   3   3    1.00    0.10
   1   3   3    1.12    0.11
   1   3   3    0.89    0.08
   1   3   3    0.94    0.11
  -2  -3  -3    7.31    0.24
  -2  -3  -3    7.58    0.27
   2   3   3    7.06    0.28
   2   3   3    7.15    0.24
   2   3   3    7.25    0.22
  -3  -3  -3   11.84    0.39
  -3  -3  -3   11.50    0.32
   3   3   3   11.85    0.37
   3   3   3   11.33    0.42
  -4  -3  -3   22.18    0.55
  -4  -3  -3   22.86    0.64
   4   3   3   21.30    0.67
   4   3   3   23.73    0.63
  -5  -3  -3    1.96    0.30
   5   3   3    1.46    0.30
   5   3   3    1.74    0.28
  -6  -3  -3    3.74    0.49
   6   3   3    3.98    0.56
   6   3   3    4.04    0.43
  -7  -3  -3    2.62    0.45
   7   3   3    2.75    0.50
  -6   4   3    8.74    0.50
  -6   4   3    8.81    0.57
  -5   4   3    8.46    0.48
  -5   4   3    8.84    0.43
  -4   4   3   19.25    0.53
  -4   4   3   18.54    0.58
  -3   4   3   29.18    0.64
  -3   4   3   28.57    0.68
  -2   4   3    0.70    0.13
  -2   4   3    0.61    0.10
  -1   4   3   31.64    0.57
  -1   4   3   30.53    0.59
  -1   4   3   30.56    0.59
  -1   4   3   31.86    0.57
  -1  -4  -3    6.24    0.20
  -1  -4  -3    6.27    0.27
   1   4   3    6.12    0.16
   1   4   3    6.43    0.17
   1   4   3    6.26    0.18
   1   4   3    6.04    0.19
  -2  -4  -3   14.76    0.40
  -2  -4  -3   14.90    0.38
   2   4   3   14.52    0.33
   2   4   3   14.27    0.35
   2   4   3   13.56    0.38
  -3  -4  -3    0.06    0.16
  -3  -4  -3    0.02    0.13
   3   4   3   -0.16    0.18
   3   4   3    0.01    0.14
   3   4   3    0.07    0.09
  -4  -4  -3   20.34    0.57
  -4  -4  -3   19.33    0.59
   4   4   3   19.85    0.59
   4   4   3   19.13    0.65
  -5  -4  -3    3.92    0.41
   5   4   3    4.00    0.44
   5   4   3    3.75    0.47
  -6  -4  -3    3.84    0.43
   6   4   3    2.68    0.40
   6   4   3    3.65    0.48
   7   4   3    4.44    0.58
  -6   5   3    1.56    0.34
  -6   5   3    1.10    0.27
  -5   5   3   11.26    0.48
  -5   5   3   11.24    0.55
  -4   5   3    0.06    0.18
  -4   5   3   -0.13    0.14
  -3   5   3    1.29    0.16
  -3   5   3    1.20    0.19
  -2   5   3    0.98    0.15
  -2   5   3    0.97    0.12
  -1   5   3   70.50    1.17
  -1   5   3   67.79    1.20
  -1   5   3   67.83    1.19
  -1   5   3   68.92    1.18
  -1  -5  -3    1.36    0.18
  -1  -5  -3    1.32    0.14
   1   5   3    1.42    0.11
   1   5   3    1.32    0.13
  -2  -5  -3    0.15    0.13
  -2  -5  -3    0.17    0.14
   2   5   3    0.08    0.13
   2   5   3    0.19    0.11
   2   5   3    0.26    0.08
   2   5   3    0.29    0.10
  -3  -5  -3    6.20    0.32
  -3  -5  -3    6.03    0.33
   3   5   3    5.47    0.36
   3   5   3    6.13    0.33
  -4  -5  -3    2.20    0.31
  -4  -5  -3    2.61    0.33
   4   5   3    2.36    0.26
   4   5   3    2.65    0.32
  -5  -5  -3   13.29    0.58
  -5  -5  -3   12.41    0.53
   5   5   3   12.49    0.56
   5   5   3   12.48    0.62
  -6  -5  -3   -0.23    0.29
  -6  -5  -3   -0.24    0.24
   6   5   3    0.05    0.36
  -6   6   3    2.19    0.32
  -6   6   3    2.76    0.42
  -5   6   3   16.98    0.59
  -5   6   3   17.03    0.68
  -4   6   3    1.31    0.24
  -4   6   3    1.35    0.20
  -3   6   3   21.29    0.59
  -3   6   3   22.13    0.54
  -2   6   3    3.50    0.22
  -2   6   3    3.27    0.24
  -1   6   3    0.23    0.10
  -1   6   3    0.27    0.09
  -1   6   3    0.05    0.07
  -1  -6  -3    5.84    0.21
  -1  -6  -3    6.31    0.39
  -2  -6  -3    0.56    0.19
  -2  -6  -3    0.08    0.14
   2   6   3    0.22    0.10
   2   6   3    0.03    0.12
   2   6   3   -0.02    0.14
  -3  -6  -3    5.61    0.36
  -3  -6  -3    4.95    0.33
   3   6   3    4.91    0.36
   3   6   3    5.05    0.32
  -4  -6  -3    1.83    0.25
  -4  -6  -3    2.32    0.28
   4   6   3    2.44    0.33
   4   6   3    1.87    0.26
  -5  -6  -3    4.45    0.47
  -5  -6  -3    4.43    0.43
   5   6   3    4.17    0.47
   5   6   3    4.74    0.53
  -6  -6  -3    5.48    0.50
  -6  -6  -3    5.58    0.58
   6   6   3    5.46    0.70
   6   6   3    4.65    0.48
  -5   7   3    0.50    0.22
  -5   7   3    0.75    0.29
  -4   7   3    3.48    0.38
  -4   7   3    3.38    0.33
  -3   7   3    0.53    0.18
  -3   7   3    0.36    0.14
  -2   7   3    4.94    0.24
  -2   7   3    5.17    0.28
  -1   7   3   12.24    0.31
  -1  -7  -3    6.67    0.45
  -1  -7  -3    6.62    0.22
  -2  -7  -3    2.63    0.30
  -2  -7  -3    2.22    0.22
   2   7   3    2.27    0.21
   2   7   3    2.54    0.18
   2   7   3    2.66    0.24
  -3  -7  -3   -0.09    0.18
  -3  -7  -3    0.14    0.20
   3   7   3    0.36    0.20
   3   7   3    0.03    0.16
  -4  -7  -3    4.60    0.41
  -4  -7  -3    4.90    0.42
   4   7   3    4.35    0.41
   4   7   3    5.39    0.49
  -5  -7  -3   -0.25    0.27
  -5  -7  -3    0.11    0.24
   5   7   3   -0.44    0.26
   5   7   3    0.13    0.32
  -4   8   3   11.09    0.55
  -4   8   3   10.50    0.46
  -3   8   3    0.18    0.19
  -3   8   3    0.10    0.15
  -2   8   3    9.86    0.33
  -2   8   3   10.04    0.37
  -1   8   3    0.48    0.12
  -1  -8  -3    4.18    0.47
  -2  -8  -3    2.00    0.24
  -2  -8  -3    2.31    0.31
   2   8   3    2.42    0.23
  -3  -8  -3    0.73    0.26
  -3  -8  -3    0.96    0.22
   3   8   3    1.17    0.24
   3   8   3    0.57    0.19
  -4  -8  -3    1.90    0.32
  -4  -8  -3    1.74    0.30
   4   8   3    2.73    0.37
   4   8   3    1.80    0.28
  -5  -8  -3    2.54    0.35
   5   8   3    3.47    0.47
  -3   9   3    0.53    0.18
  -3   9   3    0.67    0.23
  -2   9   3    0.53    0.15
  -2   9   3    0.67    0.18
  -1   9   3    4.34    0.24
  -1  -9  -3   -0.03    0.28
  -2  -9  -3    0.32    0.27
   2   9   3    0.45    0.15
  -3  -9  -3    1.23    0.32
   3   9   3    0.89    0.22
  -4  -9  -3    0.40    0.29
   4   9   3    1.34    0.35
   4   9   3   -0.19    0.25
  -2 -10  -3   -0.24    0.29
   2  10   3    0.21    0.16
   1  10  -4   -0.12    0.20
  -1 -10   4    0.59    0.38
   0  10  -4   -0.30    0.16
   0 -10   4    0.05    0.34
  -1  10  -4   -0.16    0.15
   3   9  -4    3.14    0.40
  -3  -9   4    2.18    0.38
   2   9  -4    0.37    0.27
  -2  -9   4    0.21    0.31
  -1  -9   4    0.18    0.31
   0   9  -4    0.61    0.16
   0   9  -4    0.42    0.17
   0  -9   4    0.91    0.35
  -1   9  -4    0.37    0.15
  -1   9  -4    0.36    0.16
   1  -9   4    0.09    0.30
  -2   9  -4    0.21    0.16
  -2   9  -4    0.18    0.18
  -3   9  -4    1.69    0.22
  -3   9  -4    1.92    0.28
   4   8  -4    0.00    0.34
  -4  -8   4    0.32    0.29
   3   8  -4    0.96    0.31
  -3  -8   4    1.14    0.32
   2   8  -4    1.28    0.27
  -2  -8   4    0.65    0.26
   1   8  -4    0.15    0.19
  -1  -8   4   -0.12    0.23
   0   8  -4    0.39    0.14
   0   8  -4    0.46    0.16
   0  -8   4    0.58    0.28
  -1   8  -4    1.47    0.18
  -1   8  -4    1.47    0.16
   1  -8   4    1.61    0.34
  -2   8  -4   -0.01    0.15
  -2   8  -4   -0.05    0.13
  -3   8  -4    3.39    0.30
  -3   8  -4    3.30    0.35
  -4   8  -4    3.90    0.43
  -4   8  -4    3.90    0.37
   5   7  -4   -0.02    0.38
  -5  -7   4   -0.16    0.30
   4   7  -4    4.31    0.57
  -4  -7   4    4.36    0.53
   3   7  -4    1.42    0.31
  -3  -7   4    1.37    0.31
   2   7  -4    4.25    0.39
  -2  -7   4    4.15    0.44
   1   7  -4    1.22    0.21
  -1  -7   4    0.78    0.24
   0   7  -4    0.41    0.10
   0   7  -4   -0.09    0.13
   0  -7   4    0.16    0.22
  -1   7  -4    0.49    0.15
  -1   7  -4    0.63    0.13
   1  -7   4    0.86    0.28
  -2   7  -4    4.91    0.26
  -2   7  -4    4.70    0.29
  -3   7  -4    2.76    0.31
  -3   7  -4    2.94    0.26
  -4   7  -4    1.71    0.29
  -4   7  -4    1.50    0.23
  -5   7  -4   -0.10    0.25
  -5   7  -4   -0.05    0.20
   6   6  -4    9.46    0.83
  -6  -6   4    8.19    0.70
   5   6  -4    6.34    0.64
  -5  -6   4    6.37    0.58
   4   6  -4    0.15    0.30
  -4  -6   4    0.25    0.27
   3   6  -4    4.71    0.44
  -3  -6   4    5.31    0.47
   2   6  -4    0.46    0.22
  -2  -6   4    0.31    0.23
   1   6  -4    2.86    0.19
   1   6  -4    2.56    0.29
  -1  -6   4    1.92    0.26
   0   6  -4    0.18    0.09
   0   6  -4    0.18    0.13
   0  -6   4    0.04    0.18
  -1   6  -4    0.08    0.11
  -1   6  -4   -0.08    0.13
  -1   6  -4    0.16    0.11
   1  -6   4   -0.09    0.21
  -2   6  -4    4.44    0.24
  -2   6  -4    4.15    0.27
  -3   6  -4    1.38    0.22
  -3   6  -4    1.13    0.17
  -4   6  -4    2.35    0.30
  -4   6  -4    2.61    0.35
  -5   6  -4    6.37    0.43
  -5   6  -4    6.58    0.49
  -6   6  -4    0.71    0.26
  -6   6  -4    0.60    0.31
   6   5  -4    0.88    0.43
   5   5  -4    0.91    0.37
   4   5  -4    7.31    0.55
  -4  -5   4    6.40    0.50
   3   5  -4    6.71    0.46
  -3  -5   4    7.02    0.48
   2   5  -4    5.56    0.38
   2   5  -4    5.64    0.24
  -2  -5   4    6.10    0.41
   1   5  -4    7.74    0.33
   1   5  -4    7.98    0.27
   1   5  -4    7.79    0.24
  -1  -5   4    7.56    0.40
   0   5  -4    1.36    0.19
   0   5  -4    1.41    0.14
   0   5  -4    1.92    0.15
   0  -5   4    1.30    0.21
  -1   5  -4    1.62    0.16
  -1   5  -4    1.96    0.18
  -1   5  -4    1.58    0.20
  -1   5  -4    2.02    0.18
   1  -5   4    1.30    0.21
   1  -5   4    1.39    0.14
  -2   5  -4    1.30    0.18
  -2   5  -4    1.30    0.14
  -2   5  -4    1.31    0.14
  -3   5  -4    7.12    0.36
  -3   5  -4    7.01    0.31
  -4   5  -4    5.28    0.33
  -4   5  -4    5.63    0.39
  -5   5  -4    1.03    0.27
  -5   5  -4    1.30    0.23
  -6   5  -4    3.63    0.51
  -6   5  -4    4.26    0.45
   7   4  -4    5.68    0.81
   6   4  -4   22.72    0.95
   5   4  -4   11.24    0.66
   4   4  -4   19.83    0.70
   3   4  -4    3.83    0.42
   2   4  -4   26.59    0.65
   2   4  -4   25.99    0.56
  -2  -4   4   27.92    0.71
   1   4  -4    0.75    0.10
   1   4  -4    0.65    0.16
  -1  -4   4    0.66    0.17
   0   4  -4    0.45    0.12
   0   4  -4    0.67    0.10
   0   4  -4    0.46    0.08
   0  -4   4    0.32    0.14
  -1   4  -4    0.15    0.11
  -1   4  -4    0.05    0.08
  -1   4  -4    0.16    0.09
   1  -4   4    0.04    0.14
  -2   4  -4    1.37    0.17
  -2   4  -4    1.31    0.14
  -2   4  -4    1.58    0.21
  -3   4  -4   10.55    0.40
  -3   4  -4   10.18    0.35
  -4   4  -4    5.64    0.38
  -4   4  -4    5.75    0.33
  -5   4  -4    0.60    0.19
  -5   4  -4    0.53    0.24
  -6   4  -4    4.71    0.43
  -6   4  -4    4.29    0.48
  -7   4  -4    0.43    0.31
   7   3  -4    1.55    0.49
   6   3  -4    2.14    0.45
   5   3  -4    3.22    0.42
   4   3  -4    3.68    0.51
  -4  -3   4    3.46    0.28
   3   3  -4   57.69    1.20
  -3  -3   4   56.92    1.09
   2   3  -4    2.76    0.31
  -2  -3   4    2.79    0.17
   1   3  -4   12.94    0.31
   1   3  -4   12.95    0.38
  -1  -3   4   13.10    0.41
   0   3  -4   17.37    0.40
   0   3  -4   17.03    0.36
   0  -3   4   17.74    0.45
  -1   3  -4    2.25    0.19
  -1   3  -4    2.19    0.16
  -1   3  -4    2.39    0.16
  -1   3  -4    2.08    0.15
   1  -3   4    2.08    0.22
  -2   3  -4    4.02    0.24
  -2   3  -4    4.22    0.22
  -2   3  -4    4.10    0.21
   2  -3   4    4.08    0.21
  -3   3  -4   15.04    0.44
  -3   3  -4   14.58    0.46
  -3   3  -4   14.59    0.41
   3  -3   4   14.13    0.43
  -4   3  -4    2.27    0.26
  -4   3  -4    1.66    0.23
  -4   3  -4    1.94    0.21
   4  -3   4    1.90    0.26
  -5   3  -4    3.38    0.37
  -5   3  -4    3.04    0.32
  -6   3  -4    0.91    0.28
  -6   3  -4    0.50    0.21
  -7   3  -4   15.75    0.76
  -7   3  -4   15.30    0.64
   7   2  -4    3.53    0.54
   6   2  -4    4.60    0.61
   5   2  -4   83.99    1.77
  -5  -2   4   84.99    1.67
   4   2  -4   14.34    0.62
  -4  -2   4   14.06    0.47
   3   2  -4   26.52    0.72
  -3  -2   4   26.52    0.62
   2   2  -4   18.16    0.51
  -2  -2   4   17.97    0.43
   1   2  -4   73.72    1.32
  -1  -2   4   72.79    1.28
   0   2  -4    3.30    0.17
   0   2  -4    3.17    0.19
   0   2  -4    2.96    0.15
   0  -2   4    2.91    0.19
   0  -2   4    2.92    0.15
  -1   2  -4    3.48    0.20
  -1   2  -4    3.38    0.17
  -1   2  -4    3.31    0.17
   1  -2   4    3.37    0.20
   1  -2   4    3.33    0.19
  -2   2  -4    1.97    0.20
  -2   2  -4    2.08    0.20
  -2   2  -4    2.06    0.17
   2  -2   4    2.21    0.22
  -3   2  -4    6.41    0.27
  -3   2  -4    6.19    0.31
  -3   2  -4    6.60    0.30
   3  -2   4    6.00    0.31
  -4   2  -4   10.51    0.44
  -4   2  -4   10.45    0.38
  -4   2  -4   10.45    0.43
   4  -2   4   10.47    0.46
  -5   2  -4    9.68    0.47
  -5   2  -4    9.98    0.42
  -5   2  -4   10.14    0.49
   5  -2   4   10.40    0.52
  -6   2  -4    0.54    0.20
  -6   2  -4    0.56    0.24
  -6   2  -4    0.31    0.26
  -7   2  -4    1.17    0.31
   7   1  -4    2.53    0.50
   6   1  -4    3.85    0.47
  -6  -1   4    4.35    0.43
   5   1  -4    2.09    0.36
  -5  -1   4    2.45    0.34
   4   1  -4    3.33    0.44
  -4  -1   4    3.04    0.25
  -4  -1   4    3.11    0.30
   3   1  -4    0.14    0.21
  -3  -1   4    0.18    0.13
  -3  -1   4    0.19    0.10
   2   1  -4  176.72    3.02
  -2  -1   4  176.20    2.95
  -2  -1   4  177.34    2.99
   1   1  -4    1.56    0.21
  -1  -1   4    1.15    0.16
  -1  -1   4    1.13    0.12
   0   1  -4   21.03    0.46
   0   1  -4   21.50    0.44
   0   1  -4   21.43    0.43
   0  -1   4   22.17    0.44
   0  -1   4   21.10    0.45
   0  -1   4   21.15    0.45
  -1   1  -4   14.36    0.35
  -1   1  -4   13.91    0.32
  -1   1  -4   13.89    0.33
   1  -1   4   13.97    0.32
   1  -1   4   14.04    0.31
   1  -1   4   13.73    0.35
  -2   1  -4    1.86    0.17
  -2   1  -4    1.82    0.19
  -2   1  -4    1.86    0.20
   2  -1   4    1.85    0.18
   2  -1   4    1.61    0.22
  -3   1  -4    3.78    0.26
  -3   1  -4    4.01    0.26
  -3   1  -4    3.78    0.22
   3  -1   4    3.47    0.26
   3  -1   4    3.85    0.30
  -4   1  -4   19.75    0.52
  -4   1  -4   20.37    0.59
  -4   1  -4   20.09    0.59
   4  -1   4   19.92    0.56
   4  -1   4   20.63    0.62
  -5   1  -4    0.01    0.19
  -5   1  -4    0.22    0.15
  -5   1  -4    0.06    0.22
   5  -1   4   -0.08    0.25
  -6   1  -4   -0.06    0.25
  -6   1  -4    0.14    0.17
  -6   1  -4   -0.07    0.20
   6  -1   4   -0.05    0.30
  -7   1  -4    0.36    0.25
   7   0  -4    6.12    0.70
  -7   0   4    7.79    0.59
   6   0  -4   -0.11    0.33
  -6   0   4    0.08    0.24
   5   0  -4    5.32    0.52
  -5   0   4    5.58    0.40
  -5   0   4    5.27    0.33
   4   0  -4  132.29    2.42
  -4   0   4  131.12    2.38
  -4   0   4  130.31    2.31
   3   0  -4   33.15    0.78
  -3   0   4   31.90    0.67
  -3   0   4   31.77    0.72
   2   0  -4   -0.04    0.16
  -2   0   4   -0.11    0.11
  -2   0   4   -0.01    0.09
   1   0  -4    3.84    0.19
   1   0  -4    3.64    0.21
  -1   0   4    3.62    0.16
  -1   0   4    3.42    0.19
   0   0  -4   82.12    1.36
   0   0  -4   76.66    1.34
   0   0  -4   77.10    1.36
   0   0   4   78.20    1.37
   0   0   4   79.17    1.34
  -1   0  -4    2.39    0.17
  -1   0  -4    2.46    0.16
  -1   0  -4    2.40    0.14
   1   0   4    2.25    0.18
  -2   0  -4    9.62    0.31
  -2   0  -4    9.72    0.31
  -2   0  -4    9.78    0.28
   2   0   4    9.55    0.33
   2   0   4    9.59    0.29
  -3   0  -4    4.00    0.27
  -3   0  -4    3.99    0.21
  -3   0  -4    4.06    0.25
   3   0   4    3.94    0.26
   3   0   4    3.80    0.31
  -4   0  -4   13.25    0.46
  -4   0  -4   13.41    0.41
  -4   0  -4   13.87    0.49
   4   0   4   13.71    0.47
   4   0   4   13.57    0.53
  -5   0  -4    2.02    0.29
  -5   0  -4    2.13    0.26
  -5   0  -4    2.38    0.28
   5   0   4    2.72    0.35
   5   0   4    2.28    0.30
  -6   0  -4    7.60    0.45
  -6   0  -4    7.23    0.52
   6   0   4    6.55    0.56
  -7   0  -4    2.38    0.40
  -7   0  -4    3.38    0.44
   7   0   4    3.74    0.50
  -7   1   4    3.74    0.56
   6  -1  -4    6.88    0.58
  -6   1   4    8.98    0.51
  -6   1   4    7.74    0.51
   5  -1  -4    8.71    0.53
  -5   1   4    8.75    0.40
  -5   1   4    8.93    0.46
   4  -1  -4    0.30    0.25
  -4   1   4    0.15    0.14
  -4   1   4    0.11    0.17
   3  -1  -4    0.11    0.19
  -3   1   4    0.10    0.13
  -3   1   4    0.11    0.11
   2  -1  -4   13.06    0.40
  -2   1   4   12.11    0.32
  -2   1   4   12.60    0.37
   1  -1  -4  156.58    2.62
   1  -1  -4  156.66    2.70
  -1   1   4  155.83    2.72
  -1   1   4  152.85    2.59
   0  -1  -4    8.39    0.24
   0   1   4    8.26    0.25
   0   1   4    8.23    0.22
  -1  -1  -4   13.44    0.32
  -1  -1  -4   13.59    0.33
  -1  -1  -4   13.45    0.32
   1   1   4   12.90    0.30
   1   1   4   13.46    0.34
  -2  -1  -4    0.24    0.09
  -2  -1  -4    0.26    0.13
  -2  -1  -4    0.30    0.12
   2   1   4    0.28    0.11
   2   1   4    0.09    0.14
  -3  -1  -4    0.02    0.12
  -3  -1  -4   -0.05    0.13
  -3  -1  -4    0.01    0.09
   3   1   4   -0.05    0.13
   3   1   4   -0.25    0.16
  -4  -1  -4    1.96    0.25
  -4  -1  -4    2.44    0.26
  -4  -1  -4    2.01    0.21
   4   1   4    1.92    0.28
   4   1   4    2.38    0.24
  -5  -1  -4    9.86    0.48
  -5  -1  -4    9.71    0.44
   5   1   4   10.05    0.55
   5   1   4    9.68    0.50
  -6  -1  -4    0.62    0.22
  -6  -1  -4    0.47    0.28
   6   1   4   -0.29    0.31
   6   1   4    0.58    0.33
  -7  -1  -4   -0.14    0.30
   7   1   4    0.07    0.38
  -7   2   4    2.17    0.39
  -6   2   4   21.39    0.68
  -6   2   4   20.99    0.75
   5  -2  -4    8.31    0.50
   5  -2  -4    7.29    0.51
  -5   2   4    8.51    0.46
  -5   2   4    8.06    0.40
   4  -2  -4   99.63    1.90
   4  -2  -4  104.12    1.92
  -4   2   4   99.82    1.84
  -4   2   4   99.43    1.91
   3  -2  -4   91.99    1.68
  -3   2   4   89.98    1.63
  -3   2   4   91.91    1.69
   2  -2  -4   48.03    0.91
  -2   2   4   46.69    0.88
  -2   2   4   47.13    0.92
   1  -2  -4   67.62    1.18
  -1   2   4   67.01    1.17
  -1   2   4   67.11    1.20
   0  -2  -4   22.66    0.43
   0   2   4   22.65    0.44
   0   2   4   21.96    0.43
   0   2   4   23.43    0.47
  -1  -2  -4   14.76    0.32
  -1  -2  -4   14.11    0.29
  -1  -2  -4   14.51    0.35
   1   2   4   14.10    0.32
   1   2   4   14.61    0.35
  -2  -2  -4    0.20    0.07
  -2  -2  -4    0.10    0.10
  -2  -2  -4    0.07    0.12
   2   2   4    0.04    0.10
   2   2   4   -0.12    0.14
  -3  -2  -4    3.51    0.26
  -3  -2  -4    3.64    0.22
   3   2   4    3.51    0.26
   3   2   4    3.35    0.31
  -4  -2  -4    2.20    0.26
  -4  -2  -4    1.76    0.23
   4   2   4    1.82    0.29
   4   2   4    2.21    0.24
  -5  -2  -4   11.14    0.52
  -5  -2  -4   10.72    0.44
   5   2   4   10.07    0.51
  -6  -2  -4   -0.26    0.25
   6   2   4   -0.28    0.31
   6   2   4   -0.84    0.30
  -7  -2  -4    1.76    0.39
   7   2   4    1.90    0.46
  -7   3   4    7.17    0.75
  -7   3   4    5.10    0.61
  -6   3   4    0.20    0.20
  -6   3   4    0.21    0.25
  -5   3   4    7.09    0.45
  -5   3   4    7.18    0.39
   4  -3  -4   10.87    0.45
  -4   3   4   11.55    0.46
  -4   3   4   11.86    0.42
   3  -3  -4    7.32    0.33
  -3   3   4    7.79    0.31
  -3   3   4    7.62    0.34
   2  -3  -4    6.65    0.23
  -2   3   4    6.78    0.27
  -2   3   4    6.69    0.24
  -1   3   4   44.31    0.83
  -1   3   4   44.44    0.81
  -1   3   4   44.79    0.80
   0   3   4   23.92    0.48
   0   3   4   24.73    0.46
   0   3   4   23.70    0.48
   0   3   4   24.04    0.45
  -1  -3  -4    4.28    0.18
  -1  -3  -4    4.44    0.19
   1   3   4    4.06    0.20
   1   3   4    4.43    0.16
   1   3   4    4.44    0.17
  -2  -3  -4    1.18    0.15
  -2  -3  -4    1.16    0.13
  -2  -3  -4    1.28    0.17
   2   3   4    1.32    0.13
   2   3   4    1.12    0.14
   2   3   4    1.32    0.17
  -3  -3  -4    2.26    0.26
  -3  -3  -4    2.36    0.18
  -3  -3  -4    2.40    0.20
   3   3   4    2.02    0.23
   3   3   4    1.98    0.25
  -4  -3  -4    1.79    0.22
  -4  -3  -4    1.80    0.26
   4   3   4    1.79    0.24
   4   3   4    1.48    0.29
  -5  -3  -4    0.25    0.23
   5   3   4    0.04    0.27
   5   3   4    0.07    0.23
  -6  -3  -4    2.21    0.35
   6   3   4    2.34    0.40
   6   3   4    1.64    0.37
  -7  -3  -4   -0.47    0.31
   7   3   4    0.17    0.41
  -6   4   4    0.62    0.30
  -6   4   4    0.71    0.25
  -5   4   4   19.34    0.61
  -5   4   4   19.59    0.68
  -4   4   4    5.56    0.36
  -4   4   4    5.79    0.33
  -3   4   4  204.32    3.52
  -3   4   4  203.96    3.46
  -2   4   4   25.90    0.58
  -2   4   4   25.75    0.55
  -1   4   4   10.94    0.30
  -1   4   4   10.47    0.30
  -1   4   4   11.26    0.27
  -1   4   4   11.17    0.28
   0   4   4   55.39    0.98
   0   4   4   57.33    0.96
   0   4   4   54.44    0.98
   0   4   4   56.18    0.96
  -1  -4  -4   38.55    0.77
  -1  -4  -4   37.94    0.72
   1   4   4   38.77    0.69
   1   4   4   37.74    0.72
   1   4   4   37.71    0.71
   1   4   4   38.35    0.69
  -2  -4  -4    0.11    0.12
  -2  -4  -4    0.16    0.10
   2   4   4    0.13    0.14
   2   4   4    0.01    0.10
   2   4   4    0.09    0.08
  -3  -4  -4   -0.06    0.11
  -3  -4  -4   -0.03    0.16
   3   4   4   -0.04    0.14
   3   4   4   -0.19    0.18
  -4  -4  -4    1.82    0.21
  -4  -4  -4    1.50    0.25
   4   4   4    1.38    0.24
   4   4   4    1.19    0.28
  -5  -4  -4    1.63    0.30
  -5  -4  -4    1.67    0.25
   5   4   4    1.73    0.29
   5   4   4    1.40    0.32
  -6  -4  -4    3.03    0.40
   6   4   4    3.22    0.41
   6   4   4    3.56    0.45
  -7  -4  -4    0.03    0.34
   7   4   4    0.29    0.45
  -6   5   4   10.33    0.58
  -6   5   4   10.11    0.64
  -5   5   4    5.56    0.41
  -5   5   4    5.58    0.45
  -4   5   4    2.57    0.32
  -4   5   4    2.53    0.29
  -3   5   4    5.35    0.33
  -3   5   4    5.12    0.28
  -2   5   4   10.27    0.35
  -2   5   4   10.65    0.32
  -1   5   4   16.12    0.37
  -1   5   4   15.24    0.39
  -1   5   4   16.65    0.36
  -1   5   4   16.07    0.38
   0   5   4   35.09    0.66
   0   5   4   36.50    0.64
   0   5   4   35.79    0.66
   0   5   4   36.83    0.64
  -1  -5  -4    0.14    0.14
  -1  -5  -4    0.12    0.10
   1   5   4    0.07    0.07
   1   5   4    0.10    0.10
   1   5   4    0.08    0.08
   1   5   4    0.19    0.08
  -2  -5  -4    1.50    0.17
  -2  -5  -4    1.58    0.19
   2   5   4    1.56    0.18
   2   5   4    1.21    0.15
   2   5   4    1.36    0.14
  -3  -5  -4    0.52    0.19
  -3  -5  -4    0.60    0.16
   3   5   4    0.33    0.21
   3   5   4    0.44    0.17
  -4  -5  -4    1.18    0.24
  -4  -5  -4    1.27    0.20
   4   5   4    1.37    0.28
   4   5   4    1.08    0.23
  -5  -5  -4    2.73    0.35
  -5  -5  -4    2.83    0.34
   5   5   4    3.01    0.38
   5   5   4    2.59    0.32
  -6  -5  -4   -0.22    0.25
  -6  -5  -4   -0.14    0.30
   6   5   4    0.19    0.36
   6   5   4   -0.65    0.30
  -5   6   4    1.12    0.24
  -5   6   4    1.20    0.30
  -4   6   4    4.02    0.33
  -4   6   4    4.15    0.38
  -3   6   4    1.92    0.28
  -3   6   4    1.98    0.24
  -2   6   4  131.73    2.31
  -2   6   4  133.08    2.27
  -1   6   4    4.98    0.23
  -1   6   4    5.32    0.21
  -1   6   4    5.27    0.23
   0   6   4    0.43    0.09
   0   6   4    0.23    0.07
   0   6   4    0.24    0.09
  -1  -6  -4    5.10    0.37
  -1  -6  -4    5.04    0.21
   1   6   4    4.62    0.21
   1   6   4    4.99    0.18
   1   6   4    4.58    0.19
  -2  -6  -4   11.63    0.45
  -2  -6  -4   11.46    0.35
   2   6   4   10.76    0.33
   2   6   4   10.56    0.37
   2   6   4   10.99    0.31
  -3  -6  -4    2.15    0.24
  -3  -6  -4    2.37    0.31
   3   6   4    2.16    0.21
   3   6   4    2.18    0.26
  -4  -6  -4    0.14    0.21
  -4  -6  -4    0.07    0.17
   4   6   4    0.30    0.25
   4   6   4   -0.03    0.21
  -5  -6  -4    1.36    0.31
  -5  -6  -4    1.31    0.24
   5   6   4    1.45    0.35
   5   6   4    0.75    0.28
  -6  -6  -4    1.52    0.38
   6   6   4    1.97    0.45
   6   6   4    1.10    0.36
  -5   7   4    5.70    0.45
  -5   7   4    6.29    0.54
  -4   7   4    9.97    0.44
  -4   7   4   10.16    0.52
  -3   7   4    0.54    0.19
  -3   7   4    0.40    0.15
  -2   7   4    0.20    0.12
  -2   7   4    0.13    0.15
  -1   7   4    1.99    0.20
  -1   7   4    1.67    0.17
  -1   7   4    1.14    0.15
   0  -7  -4    7.13    0.23
  -1  -7  -4   15.89    0.37
  -1  -7  -4   15.15    0.57
   1   7   4   14.93    0.34
   1   7   4   15.28    0.37
  -2  -7  -4    0.98    0.17
  -2  -7  -4    1.06    0.23
   2   7   4    1.14    0.18
   2   7   4    0.70    0.12
   2   7   4    0.88    0.14
  -3  -7  -4    0.21    0.21
  -3  -7  -4    0.06    0.18
   3   7   4    0.35    0.21
   3   7   4    0.21    0.17
  -4  -7  -4    1.67    0.28
  -4  -7  -4    1.74    0.27
   4   7   4    1.49    0.26
   4   7   4    2.19    0.33
  -5  -7  -4   -0.26    0.28
  -5  -7  -4    0.11    0.22
   5   7   4   -0.27    0.26
   5   7   4    0.32    0.32
  -4   8   4    6.11    0.40
  -4   8   4    7.03    0.50
  -3   8   4    0.23    0.20
  -3   8   4    0.07    0.15
  -2   8   4   20.70    0.51
  -2   8   4   21.35    0.56
  -1   8   4   38.50    0.74
  -1   8   4   38.90    0.77
   0   8   4    1.73    0.16
  -1  -8  -4    4.42    0.22
   1   8   4    5.09    0.24
  -2  -8  -4    0.78    0.16
  -2  -8  -4    0.76    0.25
   2   8   4    0.69    0.14
  -3  -8  -4    0.52    0.25
  -3  -8  -4    0.10    0.20
   3   8   4    0.45    0.23
   3   8   4    0.18    0.18
  -4  -8  -4    0.75    0.27
  -4  -8  -4    1.23    0.29
   4   8   4    1.62    0.34
   4   8   4    0.85    0.25
  -5  -8  -4   -0.30    0.30
   5   8   4    0.59    0.37
   5   8   4   -0.64    0.27
  -3   9   4    4.49    0.35
  -3   9   4    5.23    0.43
  -2   9   4    0.33    0.18
  -2   9   4    0.35    0.15
  -1   9   4    1.84    0.23
  -1   9   4    1.84    0.21
   1   9   4    2.18    0.21
  -2  -9  -4    2.98    0.27
  -2  -9  -4    2.83    0.38
  -3  -9  -4    1.14    0.30
  -3  -9  -4    0.51    0.23
   3   9   4    1.41    0.26
   3   9   4    1.15    0.22
  -4  -9  -4    0.07    0.27
   4   9   4    0.75    0.33
  -1  10   4   23.27    0.54
   2  10   4    4.21    0.31
   2  10   4    3.68    0.30
   0  10  -5   -0.29    0.19
   0  10  -5   -0.14    0.18
   0 -10   5    0.36    0.37
   3   9  -5    7.20    0.62
  -3  -9   5    6.06    0.66
  -2  -9   5    0.25    0.32
   1   9  -5    0.24    0.21
  -1  -9   5    0.83    0.35
   0   9  -5    1.94    0.29
   0   9  -5    2.32    0.28
   0  -9   5    2.47    0.41
  -1   9  -5   -0.12    0.15
  -1   9  -5   -0.20    0.16
   1  -9   5   -0.31    0.32
  -2   9  -5   -0.13    0.18
  -2   9  -5   -0.09    0.15
  -3   9  -5    6.26    0.43
  -3   9  -5    5.78    0.38
   4   8  -5    1.34    0.39
  -4  -8   5    1.26    0.35
   3   8  -5    0.21    0.30
  -3  -8   5    0.23    0.29
   2   8  -5    4.66    0.46
  -2  -8   5    4.22    0.52
   1   8  -5   -0.08    0.19
  -1  -8   5    0.06    0.26
   0   8  -5    3.99    0.29
   0   8  -5    4.58    0.28
   0  -8   5    5.00    0.52
  -1   8  -5    1.02    0.17
  -1   8  -5    0.78    0.18
   1  -8   5    1.00    0.33
  -2   8  -5    0.05    0.14
  -2   8  -5   -0.07    0.17
  -3   8  -5   11.31    0.49
  -3   8  -5   11.35    0.43
  -4   8  -5    1.61    0.31
  -4   8  -5    1.56    0.25
   5   7  -5    0.73    0.41
  -5  -7   5    0.75    0.34
   4   7  -5    5.98    0.60
  -4  -7   5    5.64    0.59
   3   7  -5    1.44    0.32
  -3  -7   5    1.03    0.32
   2   7  -5   12.04    0.53
  -2  -7   5   12.31    0.59
   1   7  -5    3.72    0.32
  -1  -7   5    4.12    0.43
   0   7  -5    0.45    0.17
   0   7  -5   -0.05    0.15
   0   7  -5    0.21    0.14
   0  -7   5   -0.08    0.24
  -1   7  -5    6.47    0.32
  -1   7  -5    6.65    0.29
   1  -7   5    6.38    0.50
  -2   7  -5    0.09    0.13
  -2   7  -5    0.08    0.16
  -3   7  -5    0.36    0.15
  -3   7  -5    0.21    0.19
  -4   7  -5   11.21    0.54
  -4   7  -5   11.40    0.47
  -5   7  -5    2.94    0.39
  -5   7  -5    2.44    0.31
   6   6  -5    5.15    0.75
  -6  -6   5    4.08    0.49
   5   6  -5    0.03    0.35
  -5  -6   5    0.01    0.30
   4   6  -5    2.70    0.39
  -4  -6   5    2.13    0.36
   3   6  -5    5.47    0.48
  -3  -6   5    5.69    0.49
   2   6  -5    0.96    0.25
  -2  -6   5    1.00    0.27
   1   6  -5    6.16    0.25
   1   6  -5    5.72    0.37
  -1  -6   5    5.55    0.43
   0   6  -5    0.30    0.13
   0   6  -5    0.22    0.10
   0   6  -5    0.02    0.15
   0  -6   5    0.03    0.22
  -1   6  -5    4.77    0.29
  -1   6  -5    5.43    0.26
  -1   6  -5    5.33    0.24
   1  -6   5    4.44    0.41
  -2   6  -5    7.64    0.34
  -2   6  -5    7.78    0.31
  -3   6  -5    7.11    0.38
  -3   6  -5    7.46    0.33
  -4   6  -5    7.73    0.45
  -4   6  -5    8.44    0.40
  -5   6  -5    4.92    0.48
  -5   6  -5    5.46    0.41
   6   5  -5    1.16    0.46
   5   5  -5    0.31    0.34
   4   5  -5    0.18    0.30
  -4  -5   5   -0.05    0.23
   3   5  -5   11.68    0.55
  -3  -5   5   11.96    0.57
   2   5  -5   10.34    0.47
  -2  -5   5   10.60    0.51
   1   5  -5    8.94    0.28
   1   5  -5    8.84    0.39
  -1  -5   5    8.33    0.43
   0   5  -5   16.87    0.39
   0   5  -5   18.09    0.42
   0   5  -5   17.01    0.45
   0  -5   5   17.01    0.56
  -1   5  -5    3.36    0.23
  -1   5  -5    3.33    0.25
  -1   5  -5    3.29    0.19
   1  -5   5    2.93    0.33
  -2   5  -5    7.76    0.30
  -2   5  -5    7.26    0.33
  -3   5  -5    2.01    0.28
  -3   5  -5    2.17    0.24
  -4   5  -5    4.94    0.39
  -4   5  -5    4.24    0.32
  -5   5  -5   10.92    0.55
  -5   5  -5   10.41    0.48
  -6   5  -5    2.57    0.39
  -6   5  -5    1.82    0.29
   6   4  -5    1.01    0.42
   5   4  -5    6.23    0.59
   4   4  -5    0.11    0.28
   3   4  -5   11.23    0.55
   2   4  -5   21.72    0.51
   2   4  -5   22.53    0.62
  -2  -4   5   23.09    0.66
   1   4  -5   16.96    0.40
   1   4  -5   16.48    0.48
  -1  -4   5   16.58    0.52
   0   4  -5    4.69    0.19
   0   4  -5    4.65    0.25
   0   4  -5    4.98    0.23
   0  -4   5    4.69    0.29
  -1   4  -5    0.32    0.11
  -1   4  -5    0.24    0.09
  -1   4  -5    0.30    0.14
   1  -4   5    0.36    0.17
  -2   4  -5    0.97    0.17
  -2   4  -5    0.92    0.14
  -2   4  -5    0.90    0.14
  -2   4  -5    0.99    0.13
  -3   4  -5    9.52    0.40
  -3   4  -5    9.41    0.35
  -4   4  -5   29.67    0.72
  -4   4  -5   30.05    0.79
  -5   4  -5    1.29    0.27
  -5   4  -5    1.47    0.23
  -6   4  -5    7.45    0.56
  -6   4  -5    7.78    0.49
   7   3  -5   -0.23    0.44
   6   3  -5    0.61    0.40
   5   3  -5    2.26    0.40
   4   3  -5    4.83    0.51
  -4  -3   5    5.28    0.32
   3   3  -5   18.53    0.62
  -3  -3   5   18.79    0.49
   2   3  -5    9.60    0.42
  -2  -3   5    9.23    0.29
   1   3  -5   18.89    0.49
   1   3  -5   17.90    0.48
   1   3  -5   16.96    0.41
   1   3  -5   18.25    0.45
  -1  -3   5   17.02    0.38
  -1  -3   5   18.11    0.50
   0   3  -5    1.13    0.13
   0   3  -5    1.38    0.18
   0   3  -5    1.15    0.15
   0   3  -5    1.28    0.16
   0  -3   5    1.07    0.15
  -1   3  -5   25.23    0.52
  -1   3  -5   24.36    0.52
  -1   3  -5   25.38    0.53
  -1   3  -5   25.51    0.56
   1  -3   5   24.51    0.50
   1  -3   5   24.39    0.58
  -2   3  -5   31.92    0.67
  -2   3  -5   32.19    0.70
  -2   3  -5   31.37    0.65
   2  -3   5   30.59    0.64
  -3   3  -5    1.27    0.19
  -3   3  -5    1.03    0.19
  -3   3  -5    1.14    0.16
   3  -3   5    1.01    0.19
  -4   3  -5    3.93    0.32
  -4   3  -5    4.31    0.35
  -4   3  -5    4.51    0.31
   4  -3   5    3.79    0.34
  -5   3  -5   11.81    0.47
  -5   3  -5   11.70    0.54
  -6   3  -5    7.82    0.54
  -6   3  -5    7.23    0.46
  -7   3  -5    0.61    0.31
  -7   3  -5    0.36    0.29
   7   2  -5    7.53    0.78
   6   2  -5   11.40    0.74
   5   2  -5    3.16    0.41
  -5  -2   5    3.36    0.38
   4   2  -5    0.66    0.31
  -4  -2   5    1.00    0.21
   3   2  -5   20.51    0.63
  -3  -2   5   19.49    0.60
  -3  -2   5   20.60    0.53
   2   2  -5   28.85    0.70
  -2  -2   5   28.56    0.62
   1   2  -5   46.89    0.92
  -1  -2   5   46.02    0.87
   0   2  -5   54.21    0.99
   0   2  -5   55.16    0.98
   0   2  -5   54.70    1.02
   0  -2   5   53.61    0.98
   0  -2   5   55.57    1.02
  -1   2  -5    5.94    0.23
  -1   2  -5    6.22    0.27
  -1   2  -5    5.99    0.22
   1  -2   5    6.17    0.25
   1  -2   5    5.86    0.24
  -2   2  -5    0.75    0.12
  -2   2  -5    0.67    0.13
  -2   2  -5    0.67    0.14
   2  -2   5    0.69    0.16
  -3   2  -5    1.46    0.19
  -3   2  -5    1.68    0.20
  -3   2  -5    1.66    0.21
   3  -2   5    1.43    0.22
  -4   2  -5    1.88    0.20
  -4   2  -5    1.98    0.25
  -4   2  -5    1.61    0.24
   4  -2   5    2.02    0.27
  -5   2  -5   31.78    0.78
  -5   2  -5   32.35    0.85
  -5   2  -5   31.75    0.86
   5  -2   5   31.80    0.86
  -6   2  -5    0.19    0.23
  -6   2  -5    0.07    0.26
  -6   2  -5    0.54    0.20
  -7   2  -5    5.31    0.54
   7   1  -5    1.16    0.46
   6   1  -5   -0.22    0.35
  -6  -1   5    0.53    0.25
   5   1  -5    0.06    0.31
  -5  -1   5    0.33    0.21
   4   1  -5    3.54    0.47
  -4  -1   5    3.28    0.32
  -4  -1   5    3.27    0.27
   3   1  -5    8.87    0.46
  -3  -1   5    9.00    0.36
  -3  -1   5    9.25    0.31
   2   1  -5  139.81    2.44
  -2  -1   5  138.51    2.35
  -2  -1   5  136.89    2.39
   1   1  -5    1.89    0.23
  -1  -1   5    1.84    0.15
  -1  -1   5    1.72    0.19
   0   1  -5    8.58    0.29
   0   1  -5    8.43    0.25
   0   1  -5    8.57    0.26
   0  -1   5    8.29    0.23
   0  -1   5    9.02    0.26
   0  -1   5    8.50    0.27
  -1   1  -5    2.12    0.16
  -1   1  -5    1.99    0.18
  -1   1  -5    2.18    0.19
   1  -1   5    1.96    0.13
   1  -1   5    1.84    0.19
   1  -1   5    2.01    0.16
  -2   1  -5    4.74    0.26
  -2   1  -5    4.75    0.22
  -2   1  -5    4.45    0.25
   2  -1   5    4.50    0.27
   2  -1   5    4.67    0.23
  -3   1  -5   47.82    0.99
  -3   1  -5   47.14    0.98
  -3   1  -5   46.33    0.93
   3  -1   5   47.82    0.93
   3  -1   5   48.26    0.99
  -4   1  -5    2.42    0.29
  -4   1  -5    2.66    0.30
  -4   1  -5    2.38    0.24
   4  -1   5    2.58    0.37
   4  -1   5    2.41    0.24
  -5   1  -5    1.75    0.27
  -5   1  -5    2.00    0.28
  -5   1  -5    1.67    0.21
   5  -1   5    1.31    0.30
  -6   1  -5   11.56    0.57
  -6   1  -5   12.63    0.52
  -6   1  -5   11.65    0.56
   6  -1   5   12.03    0.62
  -7   1  -5    3.62    0.46
  -7   1  -5    2.54    0.42
   7   0  -5    2.85    0.49
  -7   0   5    3.89    0.54
   6   0  -5   11.86    0.69
  -6   0   5   12.31    0.60
   5   0  -5   30.59    0.91
  -5   0   5   30.29    0.83
  -5   0   5   30.29    0.76
   4   0  -5   31.48    0.86
  -4   0   5   30.38    0.72
  -4   0   5   30.34    0.78
   3   0  -5    1.32    0.25
  -3   0   5    0.95    0.18
  -3   0   5    1.05    0.14
   2   0  -5  127.59    2.25
  -2   0   5  128.01    2.23
  -2   0   5  126.89    2.18
   1   0  -5   46.55    0.86
   1   0  -5   45.45    0.89
  -1   0   5   46.90    0.85
  -1   0   5   47.07    0.89
   0   0  -5   16.67    0.39
   0   0  -5   16.18    0.40
   0   0  -5   15.94    0.36
   0   0   5   16.16    0.36
   0   0   5   16.37    0.39
  -1   0  -5   42.06    0.77
  -1   0  -5   43.37    0.81
  -1   0  -5   41.84    0.80
   1   0   5   41.51    0.81
   1   0   5   41.46    0.71
   1   0   5   41.13    0.77
  -2   0  -5    3.36    0.22
  -2   0  -5    3.41    0.19
  -2   0  -5    3.30    0.23
   2   0   5    3.39    0.21
   2   0   5    3.10    0.26
  -3   0  -5    0.38    0.11
  -3   0  -5    0.27    0.14
  -3   0  -5    0.21    0.14
   3   0   5    0.15    0.18
   3   0   5    0.12    0.12
  -4   0  -5    9.84    0.42
  -4   0  -5    9.78    0.41
  -4   0  -5    9.16    0.34
   4   0   5    9.02    0.48
   4   0   5    9.24    0.41
  -5   0  -5    1.10    0.23
  -5   0  -5    1.05    0.25
  -5   0  -5    1.17    0.19
   5   0   5    1.18    0.30
   5   0   5    0.73    0.25
  -6   0  -5   12.69    0.60
  -6   0  -5   12.81    0.56
   6   0   5   12.48    0.66
  -7   0  -5    1.62    0.31
  -7   0  -5    1.00    0.34
   7   0   5    1.37    0.41
  -7   1   5    1.31    0.37
   6  -1  -5    2.95    0.41
  -6   1   5    3.22    0.46
   5  -1  -5    0.94    0.32
  -5   1   5    0.90    0.24
  -5   1   5    0.85    0.19
   4  -1  -5    0.23    0.26
   4  -1  -5    0.07    0.25
  -4   1   5   -0.01    0.18
  -4   1   5   -0.02    0.14
   3  -1  -5    0.39    0.21
  -3   1   5    0.19    0.15
  -3   1   5    0.29    0.12
   2  -1  -5    0.11    0.15
   2  -1  -5    0.11    0.12
  -2   1   5    0.07    0.10
  -2   1   5    0.15    0.13
   1  -1  -5  283.29    4.64
   1  -1  -5  280.10    4.83
  -1   1   5  282.96    4.91
  -1   1   5  282.51    4.85
   0  -1  -5    0.55    0.11
   0  -1  -5    0.27    0.08
   0   1   5    0.32    0.08
   0   1   5    0.51    0.12
  -1  -1  -5    0.72    0.12
  -1  -1  -5    0.50    0.09
  -1  -1  -5    0.47    0.11
   1   1   5    0.39    0.12
   1   1   5    0.34    0.09
  -2  -1  -5    6.41    0.28
  -2  -1  -5    6.03    0.22
  -2  -1  -5    6.23    0.26
   2   1   5    5.59    0.29
   2   1   5    6.08    0.25
  -3  -1  -5    2.38    0.25
  -3  -1  -5    2.48    0.22
  -3  -1  -5    2.33    0.18
   3   1   5    2.32    0.24
   3   1   5    2.12    0.30
  -4  -1  -5   18.33    0.58
  -4  -1  -5   18.84    0.55
  -4  -1  -5   18.26    0.48
   4   1   5   18.67    0.63
   4   1   5   19.33    0.55
  -5  -1  -5    6.89    0.44
  -5  -1  -5    7.42    0.40
   5   1   5    6.85    0.46
   5   1   5    7.48    0.51
  -6  -1  -5    0.34    0.20
  -6  -1  -5   -0.05    0.24
   6   1   5   -0.04    0.31
  -7  -1  -5    5.46    0.58
   7   1   5    6.48    0.66
  -7   2   5    2.32    0.42
  -6   2   5    9.75    0.59
  -6   2   5    9.76    0.51
   5  -2  -5    1.51    0.32
  -5   2   5    2.06    0.24
  -5   2   5    2.17    0.30
   4  -2  -5   16.29    0.59
  -4   2   5   16.47    0.50
  -4   2   5   16.20    0.55
   3  -2  -5   48.66    1.00
  -3   2   5   47.36    0.94
  -3   2   5   47.19    1.00
   2  -2  -5    0.28    0.14
  -2   2   5    0.34    0.10
  -2   2   5    0.38    0.14
   1  -2  -5  132.86    2.21
  -1   2   5  127.09    2.19
  -1   2   5  129.29    2.22
   0  -2  -5   35.25    0.66
   0   2   5   35.41    0.69
   0   2   5   35.36    0.66
  -1  -2  -5    0.03    0.10
  -1  -2  -5   -0.01    0.09
   1   2   5   -0.06    0.12
   1   2   5   -0.06    0.09
  -2  -2  -5   11.49    0.32
  -2  -2  -5   10.67    0.23
  -2  -2  -5   11.12    0.35
   2   2   5   10.73    0.32
   2   2   5   10.48    0.35
  -3  -2  -5    0.06    0.12
  -3  -2  -5   -0.13    0.14
   3   2   5   -0.16    0.13
   3   2   5   -0.13    0.17
  -4  -2  -5    0.11    0.20
  -4  -2  -5    0.30    0.16
   4   2   5    0.19    0.24
   4   2   5    0.25    0.19
  -5  -2  -5   12.01    0.54
  -5  -2  -5   12.28    0.47
   5   2   5   11.92    0.53
   5   2   5   12.06    0.59
  -6  -2  -5    5.31    0.48
   6   2   5    5.75    0.46
   6   2   5    5.30    0.58
  -7  -2  -5    2.27    0.41
   7   2   5    1.78    0.45
  -7   3   5    0.28    0.33
  -6   3   5    0.98    0.31
  -6   3   5    0.90    0.24
  -5   3   5    2.15    0.25
  -5   3   5    2.52    0.32
   4  -3  -5   -0.28    0.29
  -4   3   5    0.08    0.18
  -4   3   5    0.27    0.15
   3  -3  -5    0.03    0.17
  -3   3   5    0.15    0.12
  -3   3   5    0.08    0.16
   2  -3  -5    1.73    0.18
  -2   3   5    1.96    0.18
  -2   3   5    1.72    0.20
  -1   3   5   20.59    0.47
  -1   3   5   21.03    0.44
  -1   3   5   20.24    0.45
   0   3   5  142.81    2.40
   0   3   5  139.22    2.36
   0   3   5  143.15    2.37
  -1  -3  -5    1.05    0.13
   1   3   5    1.04    0.14
   1   3   5    1.04    0.11
   1   3   5    1.18    0.15
  -2  -3  -5    0.02    0.07
  -2  -3  -5    0.05    0.12
  -2  -3  -5    0.08    0.08
   2   3   5   -0.04    0.10
   2   3   5   -0.05    0.14
  -3  -3  -5    5.59    0.22
  -3  -3  -5    5.61    0.24
  -3  -3  -5    5.81    0.31
   3   3   5    5.39    0.30
   3   3   5    5.20    0.36
  -4  -3  -5    8.12    0.33
  -4  -3  -5    7.99    0.42
   4   3   5    8.37    0.42
   4   3   5    7.68    0.48
  -5  -3  -5    2.33    0.31
   5   3   5    2.42    0.30
   5   3   5    2.28    0.36
  -6  -3  -5    4.13    0.49
   6   3   5    4.11    0.41
   6   3   5    4.73    0.59
  -7  -3  -5    2.05    0.43
   7   3   5    0.61    0.45
   7   3   5    1.82    0.47
  -6   4   5    1.30    0.28
  -6   4   5    1.54    0.35
  -5   4   5   21.17    0.72
  -5   4   5   21.41    0.65
  -4   4   5    5.53    0.38
  -4   4   5    5.10    0.33
  -3   4   5    1.78    0.19
  -3   4   5    1.55    0.22
  -2   4   5   22.95    0.56
  -2   4   5   23.99    0.53
  -1   4   5   14.40    0.34
  -1   4   5   13.86    0.35
  -1   4   5   13.82    0.37
   0   4   5   22.26    0.45
   0   4   5   21.87    0.48
   0   4   5   22.95    0.45
   0   4   5   21.79    0.47
  -1  -4  -5   14.10    0.36
   1   4   5   14.57    0.34
   1   4   5   14.04    0.37
   1   4   5   14.54    0.33
  -2  -4  -5    2.43    0.19
  -2  -4  -5    2.51    0.22
   2   4   5    2.47    0.21
   2   4   5    2.32    0.24
   2   4   5    2.39    0.18
  -3  -4  -5    0.80    0.13
  -3  -4  -5    0.62    0.18
   3   4   5    0.36    0.16
   3   4   5    0.56    0.21
  -4  -4  -5    0.65    0.22
  -4  -4  -5    0.66    0.16
   4   4   5    0.52    0.21
   4   4   5    0.59    0.27
  -5  -4  -5    1.46    0.23
  -5  -4  -5    1.13    0.28
   5   4   5    1.81    0.29
   5   4   5    1.68    0.34
  -6  -4  -5    4.13    0.52
   6   4   5    4.58    0.59
   6   4   5    3.32    0.39
  -7  -4  -5    3.46    0.48
   7   4   5    4.14    0.57
   7   4   5    2.13    0.50
  -6   5   5    1.24    0.29
  -6   5   5    1.58    0.37
  -5   5   5    0.15    0.24
  -5   5   5    0.12    0.19
  -4   5   5    0.39    0.21
  -4   5   5    0.35    0.17
  -3   5   5    0.53    0.18
  -3   5   5    0.70    0.16
  -2   5   5   -0.16    0.14
  -2   5   5   -0.02    0.11
  -1   5   5    3.84    0.20
  -1   5   5    3.94    0.22
  -1   5   5    3.78    0.22
   0   5   5   43.22    0.77
   0   5   5   41.59    0.80
   0   5   5   43.12    0.77
   0   5   5   41.39    0.79
  -1  -5  -5   22.85    0.50
   1   5   5   23.35    0.47
   1   5   5   22.92    0.47
   1   5   5   22.28    0.51
   1   5   5   21.96    0.49
  -2  -5  -5    1.23    0.17
  -2  -5  -5    1.43    0.17
   2   5   5    1.14    0.18
   2   5   5    1.15    0.15
   2   5   5    1.00    0.12
  -3  -5  -5    0.94    0.21
  -3  -5  -5    1.04    0.17
   3   5   5    0.56    0.17
   3   5   5    0.83    0.23
  -4  -5  -5    2.15    0.26
  -4  -5  -5    2.00    0.26
   4   5   5    2.00    0.25
   4   5   5    1.88    0.30
  -5  -5  -5    5.56    0.46
  -5  -5  -5    6.43    0.38
   5   5   5    5.95    0.55
   5   5   5    5.49    0.48
  -6  -5  -5   -0.34    0.29
   6   5   5    0.03    0.34
  -5   6   5    0.59    0.28
  -5   6   5    0.71    0.23
  -4   6   5   19.34    0.65
  -4   6   5   19.17    0.58
  -3   6   5   17.18    0.49
  -3   6   5   16.89    0.54
  -2   6   5   34.77    0.77
  -2   6   5   35.29    0.73
  -1   6   5    4.43    0.25
  -1   6   5    5.18    0.22
  -1   6   5    5.24    0.25
   0  -6  -5   13.55    0.35
   0   6   5   13.42    0.32
   0   6   5   14.13    0.33
   0   6   5   13.57    0.35
  -1  -6  -5    1.13    0.15
   1   6   5    1.08    0.16
   1   6   5    0.90    0.13
   1   6   5    0.82    0.11
  -2  -6  -5    4.14    0.32
  -2  -6  -5    4.31    0.27
   2   6   5    3.73    0.22
   2   6   5    4.19    0.29
   2   6   5    3.87    0.25
  -3  -6  -5    1.78    0.23
  -3  -6  -5    1.78    0.22
   3   6   5    2.03    0.26
   3   6   5    1.52    0.20
  -4  -6  -5   -0.19    0.20
  -4  -6  -5    0.09    0.17
   4   6   5    0.23    0.26
   4   6   5    0.22    0.21
  -5  -6  -5    0.35    0.27
   5   6   5    0.12    0.26
   5   6   5    0.96    0.34
  -6  -6  -5    2.80    0.43
   6   6   5    3.11    0.48
   6   6   5    2.34    0.41
  -5   7   5    3.54    0.42
  -5   7   5    3.25    0.43
  -4   7   5    1.24    0.28
  -4   7   5    1.19    0.21
  -3   7   5   -0.03    0.14
  -3   7   5    0.06    0.19
  -2   7   5    1.68    0.21
  -2   7   5    1.86    0.22
  -1   7   5    0.10    0.10
  -1   7   5   -0.29    0.14
  -1   7   5    0.18    0.13
   0  -7  -5    1.30    0.18
   0   7   5    0.99    0.12
   0   7   5    1.30    0.12
   0   7   5    1.39    0.19
  -1  -7  -5   29.85    0.61
   1   7   5   29.80    0.63
   1   7   5   30.09    0.60
   1   7   5   29.15    0.59
  -2  -7  -5    0.75    0.17
  -2  -7  -5    0.72    0.22
   2   7   5    0.94    0.19
   2   7   5    0.62    0.14
  -3  -7  -5    0.71    0.21
  -3  -7  -5    0.62    0.22
   3   7   5    0.79    0.22
   3   7   5    0.63    0.17
  -4  -7  -5    2.88    0.39
  -4  -7  -5    2.47    0.30
   4   7   5    2.40    0.33
   4   7   5    2.27    0.27
  -5  -7  -5   -0.13    0.28
   5   7   5    0.29    0.34
   5   7   5   -0.17    0.27
  -4   8   5    1.42    0.31
  -4   8   5    1.26    0.23
  -3   8   5    5.01    0.33
  -3   8   5    5.40    0.42
  -2   8   5    5.44    0.29
  -2   8   5    5.66    0.34
  -1   8   5   39.81    0.78
  -1   8   5   40.51    0.82
   0  -8  -5    1.16    0.13
   0   8   5    0.57    0.13
   0   8   5    1.01    0.12
   0   8   5    1.69    0.21
  -1  -8  -5    5.04    0.24
   1   8   5    4.86    0.25
   1   8   5    5.75    0.28
  -2  -8  -5    0.08    0.16
  -2  -8  -5   -0.04    0.22
   2   8   5    0.14    0.14
   2   8   5    0.33    0.17
  -3  -8  -5    0.62    0.22
  -3  -8  -5    0.22    0.23
   3   8   5    0.47    0.18
   3   8   5    0.76    0.24
  -4  -8  -5    0.29    0.35
  -4  -8  -5    0.12    0.26
   4   8   5    0.69    0.30
   4   8   5    0.14    0.23
  -3   9   5    2.69    0.32
  -3   9   5    2.96    0.41
  -2   9   5    0.22    0.18
  -2   9   5    0.36    0.15
   1  -9  -5    1.12    0.15
  -1   9   5    1.06    0.16
  -1   9   5    1.10    0.17
   0   9   5    0.44    0.13
   0   9   5    0.69    0.14
   1   9   5    0.46    0.14
  -2  -9  -5   11.22    0.39
   2   9   5   11.73    0.42
   2   9   5   11.07    0.40
  -3  -9  -5    0.18    0.22
  -3  -9  -5    0.02    0.27
   3   9   5    0.87    0.26
   3   9   5    0.46    0.20
   3   9  -6    4.03    0.60
  -3  -9   6    2.76    0.45
   2   9  -6    6.27    0.45
   1   9  -6   -0.17    0.20
   1   9  -6   -0.24    0.21
  -1  -9   6    0.37    0.35
   0   9  -6   13.49    0.45
   0   9  -6   12.68    0.48
   0  -9   6   14.85    0.76
  -1   9  -6   -0.10    0.19
  -1   9  -6   -0.18    0.16
   1  -9   6   -0.23    0.33
  -2   9  -6   -0.15    0.16
  -2   9  -6   -0.04    0.19
   4   8  -6   -0.02    0.38
  -4  -8   6    0.25    0.33
   3   8  -6    3.35    0.43
  -3  -8   6    2.73    0.39
   2   8  -6   13.13    0.55
  -2  -8   6   14.14    0.69
   1   8  -6   -0.29    0.19
  -1  -8   6    0.23    0.27
   0   8  -6    2.49    0.30
   0   8  -6    2.59    0.27
   0  -8   6    3.64    0.43
  -1   8  -6   10.44    0.38
  -1   8  -6    9.96    0.41
   1  -8   6   10.50    0.64
  -2   8  -6    9.10    0.43
  -2   8  -6    9.53    0.38
  -3   8  -6   11.35    0.51
  -3   8  -6   11.13    0.44
  -4   8  -6    0.07    0.19
  -4   8  -6    0.08    0.25
   5   7  -6    2.57    0.49
  -5  -7   6    2.17    0.44
   4   7  -6    1.23    0.40
  -4  -7   6    0.94    0.35
   3   7  -6    0.06    0.31
  -3  -7   6    0.25    0.27
   2   7  -6   20.57    0.68
  -2  -7   6   19.78    0.74
   1   7  -6    5.50    0.36
  -1  -7   6    6.42    0.48
   0   7  -6    0.00    0.17
   0   7  -6    0.14    0.15
   0  -7   6   -0.04    0.25
  -1   7  -6   17.27    0.47
  -1   7  -6   16.30    0.50
   1  -7   6   16.76    0.70
  -2   7  -6    0.48    0.16
  -2   7  -6    0.41    0.18
  -3   7  -6   -0.01    0.19
  -3   7  -6    0.04    0.15
  -4   7  -6    4.50    0.43
  -4   7  -6    4.47    0.36
  -5   7  -6    0.14    0.22
  -5   7  -6    0.32    0.29
   5   6  -6   -0.24    0.36
  -5  -6   6    0.07    0.32
   4   6  -6    3.68    0.55
  -4  -6   6    2.86    0.38
   3   6  -6    0.67    0.31
  -3  -6   6    0.74    0.29
   2   6  -6    0.85    0.28
  -2  -6   6    0.67    0.26
   1   6  -6   36.11    0.82
  -1  -6   6   37.27    0.95
   0   6  -6    3.64    0.29
   0   6  -6    3.91    0.27
   0  -6   6    3.25    0.38
  -1   6  -6   12.51    0.39
  -1   6  -6   12.33    0.43
   1  -6   6   12.31    0.56
  -2   6  -6    1.94    0.24
  -2   6  -6    1.92    0.27
   2  -6   6    1.93    0.32
  -3   6  -6    7.65    0.35
  -3   6  -6    7.42    0.41
  -4   6  -6   22.87    0.64
  -4   6  -6   21.78    0.71
  -5   6  -6    1.59    0.33
  -5   6  -6    1.13    0.24
   6   5  -6    6.42    0.75
   5   5  -6    0.12    0.35
   4   5  -6    3.24    0.40
  -4  -5   6    2.56    0.34
   3   5  -6    8.32    0.52
  -3  -5   6    9.20    0.53
   2   5  -6    3.75    0.43
  -2  -5   6    3.36    0.40
   1   5  -6   73.04    1.36
   1   5  -6   73.00    1.40
  -1  -5   6   72.88    1.49
   0   5  -6    0.34    0.14
   0   5  -6    0.29    0.10
   0   5  -6    0.21    0.16
   0  -5   6    0.07    0.18
  -1   5  -6    0.35    0.12
  -1   5  -6    0.26    0.17
  -1   5  -6    0.16    0.14
   1  -5   6    0.00    0.19
  -2   5  -6    7.66    0.32
  -2   5  -6    7.47    0.36
   2  -5   6    7.93    0.45
  -3   5  -6    0.85    0.16
  -3   5  -6    0.84    0.21
  -4   5  -6    0.52    0.22
  -4   5  -6    0.41    0.18
  -5   5  -6   11.59    0.59
  -5   5  -6   12.26    0.51
  -6   5  -6    0.36    0.25
  -6   5  -6    0.14    0.29
   6   4  -6    2.37    0.47
   5   4  -6   11.83    0.68
   4   4  -6    1.58    0.34
   3   4  -6    4.62    0.49
   2   4  -6    8.82    0.48
  -2  -4   6    9.44    0.46
   1   4  -6   15.67    0.49
   1   4  -6   14.67    0.39
   1   4  -6   16.03    0.40
  -1  -4   6   15.94    0.53
   0   4  -6   24.33    0.52
   0   4  -6   24.65    0.59
   0   4  -6   25.63    0.55
   0  -4   6   25.09    0.64
  -1   4  -6    6.66    0.27
  -1   4  -6    7.10    0.26
  -1   4  -6    7.30    0.28
  -1   4  -6    7.13    0.32
   1  -4   6    6.91    0.36
  -2   4  -6   24.82    0.58
  -2   4  -6   25.85    0.60
  -2   4  -6   25.63    0.63
   2  -4   6   24.78    0.66
  -3   4  -6    8.20    0.34
  -3   4  -6    8.32    0.40
  -4   4  -6    0.70    0.18
  -4   4  -6    0.68    0.22
  -5   4  -6   15.14    0.62
  -5   4  -6   15.16    0.55
  -6   4  -6    1.47    0.34
  -6   4  -6    1.04    0.24
   6   3  -6    4.63    0.67
   5   3  -6   12.23    0.69
   4   3  -6    0.54    0.30
  -4  -3   6    0.90    0.24
   3   3  -6    0.20    0.27
  -3  -3   6    0.19    0.15
   2   3  -6   10.94    0.49
  -2  -3   6   10.66    0.33
   1   3  -6   56.23    1.07
   1   3  -6   58.32    1.13
  -1  -3   6   59.76    1.16
  -1  -3   6   55.40    1.04
   0   3  -6  149.85    2.58
   0   3  -6  152.01    2.55
   0   3  -6  152.03    2.55
   0  -3   6  149.54    2.52
   0  -3   6  148.70    2.61
  -1   3  -6   14.53    0.38
  -1   3  -6   14.89    0.43
  -1   3  -6   14.68    0.38
   1  -3   6   14.44    0.36
   1  -3   6   14.16    0.43
  -2   3  -6    4.18    0.28
  -2   3  -6    4.00    0.24
  -2   3  -6    4.05    0.24
   2  -3   6    3.82    0.26
   2  -3   6    3.75    0.25
  -3   3  -6    0.32    0.16
  -3   3  -6    0.20    0.14
  -3   3  -6    0.33    0.17
   3  -3   6    0.27    0.18
  -4   3  -6   -0.06    0.17
  -4   3  -6    0.12    0.15
  -4   3  -6    0.03    0.18
   4  -3   6    0.10    0.20
  -5   3  -6    4.17    0.34
  -5   3  -6    4.32    0.41
  -6   3  -6   10.03    0.58
  -6   3  -6   10.31    0.51
  -7   3  -6    0.33    0.31
   7   2  -6    2.23    0.51
   6   2  -6    1.99    0.44
   5   2  -6   -0.08    0.33
  -5  -2   6    0.21    0.21
   4   2  -6   16.81    0.71
  -4  -2   6   16.67    0.55
   3   2  -6   10.81    0.53
  -3  -2   6   11.23    0.38
  -3  -2   6   10.33    0.39
   2   2  -6    3.94    0.35
   2   2  -6    3.47    0.35
  -2  -2   6    3.63    0.25
   1   2  -6   44.22    0.90
  -1  -2   6   44.21    0.86
   0   2  -6  150.50    2.51
   0   2  -6  144.57    2.52
   0   2  -6  145.11    2.48
   0  -2   6  146.40    2.49
   0  -2   6  148.93    2.53
  -1   2  -6    0.15    0.11
  -1   2  -6    0.20    0.10
  -1   2  -6    0.21    0.13
   1  -2   6    0.15    0.12
   1  -2   6    0.02    0.10
  -2   2  -6    1.55    0.19
  -2   2  -6    1.60    0.23
  -2   2  -6    1.39    0.17
   2  -2   6    1.46    0.18
  -3   2  -6   20.18    0.51
  -3   2  -6   19.35    0.55
  -3   2  -6   19.65    0.54
   3  -2   6   18.72    0.63
   3  -2   6   19.92    0.56
  -4   2  -6   32.97    0.77
  -4   2  -6   33.57    0.84
  -4   2  -6   33.13    0.82
   4  -2   6   33.25    0.83
  -5   2  -6   23.36    0.71
  -5   2  -6   23.71    0.66
  -5   2  -6   24.41    0.74
   5  -2   6   23.50    0.73
  -6   2  -6    2.01    0.32
  -6   2  -6    2.56    0.29
  -7   2  -6   -0.14    0.26
   7   1  -6    1.77    0.48
   6   1  -6    3.26    0.47
  -6  -1   6    3.43    0.44
   5   1  -6   12.25    0.66
  -5  -1   6   12.36    0.54
   4   1  -6   20.00    0.72
  -4  -1   6   18.92    0.60
  -4  -1   6   18.94    0.53
   3   1  -6    4.40    0.43
  -3  -1   6    4.11    0.24
  -3  -1   6    4.11    0.30
   2   1  -6   19.46    0.56
  -2  -1   6   19.47    0.50
  -2  -1   6   19.44    0.46
   1   1  -6   -0.05    0.11
   1   1  -6    0.12    0.15
  -1  -1   6    0.29    0.10
  -1  -1   6   -0.03    0.13
   0   1  -6  205.10    3.46
   0   1  -6  205.80    3.75
   0   1  -6  210.35    3.44
   0  -1   6  205.51    3.43
   0  -1   6  208.21    3.58
   0  -1   6  205.64    3.57
  -1   1  -6  121.87    2.10
  -1   1  -6  122.56    2.07
  -1   1  -6  121.54    2.11
   1  -1   6  121.89    2.06
   1  -1   6  116.76    2.09
   1  -1   6  121.06    2.04
  -2   1  -6   45.79    0.91
  -2   1  -6   45.06    0.92
  -2   1  -6   46.34    0.88
   2  -1   6   46.18    0.88
   2  -1   6   45.06    0.92
  -3   1  -6   11.73    0.37
  -3   1  -6   12.33    0.41
  -3   1  -6   12.03    0.43
   3  -1   6   12.32    0.45
   3  -1   6   11.95    0.39
  -4   1  -6    1.40    0.18
  -4   1  -6    1.16    0.21
  -4   1  -6    1.33    0.23
   4  -1   6    1.58    0.29
   4  -1   6    1.50    0.23
  -5   1  -6    0.01    0.19
  -5   1  -6    0.11    0.21
  -5   1  -6   -0.01    0.14
   5  -1   6   -0.18    0.24
  -6   1  -6    8.70    0.52
  -6   1  -6    8.91    0.52
   6  -1   6    8.35    0.57
  -7   1  -6    3.28    0.47
  -7   1  -6    1.95    0.39
   7   0  -6    5.63    0.64
   7   0  -6    6.73    0.71
  -7   0   6    7.21    0.63
   6   0  -6    2.42    0.42
  -6   0   6    3.49    0.46
   5   0  -6    6.10    0.55
  -5   0   6    6.76    0.46
  -5   0   6    8.00    0.43
   4   0  -6    9.77    0.56
   4   0  -6   10.05    0.56
  -4   0   6    9.26    0.45
  -4   0   6    9.26    0.39
   3   0  -6    2.33    0.29
  -3   0   6    2.34    0.23
  -3   0   6    1.99    0.26
   2   0  -6   13.99    0.46
  -2   0   6   14.20    0.42
  -2   0   6   14.33    0.38
   1   0  -6    0.28    0.15
   1   0  -6    0.15    0.11
  -1   0   6   -0.02    0.12
  -1   0   6    0.15    0.09
   0   0  -6   63.09    1.14
   0   0  -6   62.78    1.15
   0   0  -6   60.48    1.10
   0   0   6   59.79    1.14
  -1   0  -6  205.14    3.40
  -1   0  -6  199.73    3.35
  -1   0  -6  198.95    3.39
   1   0   6  206.16    3.36
   1   0   6  199.46    3.39
   1   0   6  200.19    3.36
  -2   0  -6   11.19    0.36
  -2   0  -6   10.99    0.32
  -2   0  -6   10.98    0.36
   2   0   6   10.65    0.33
   2   0   6   10.28    0.38
  -3   0  -6    0.10    0.14
  -3   0  -6    0.16    0.14
  -3   0  -6    0.28    0.12
   3   0   6    0.19    0.19
   3   0   6    0.24    0.15
  -4   0  -6    1.21    0.21
  -4   0  -6    1.09    0.17
  -4   0  -6    1.82    0.26
   4   0   6    1.61    0.29
   4   0   6    1.46    0.22
  -5   0  -6   19.11    0.64
  -5   0  -6   18.02    0.54
  -5   0  -6   18.84    0.63
   5   0   6   19.07    0.69
   5   0   6   18.05    0.62
  -6   0  -6   35.58    0.98
  -6   0  -6   34.33    0.94
   6   0   6   33.88    1.01
  -7   0  -6    0.26    0.24
  -7   0  -6   -0.13    0.30
   7   0   6    0.12    0.36
  -7   1   6    2.34    0.41
   6  -1  -6    5.60    0.61
  -6   1   6    7.69    0.56
   5  -1  -6   -0.09    0.29
  -5   1   6   -0.02    0.18
  -5   1   6    0.16    0.23
   4  -1  -6   18.99    0.67
  -4   1   6   18.16    0.60
  -4   1   6   18.32    0.54
   3  -1  -6   18.15    0.57
  -3   1   6   17.67    0.53
  -3   1   6   17.28    0.47
   2  -1  -6    5.11    0.27
   2  -1  -6    5.68    0.32
  -2   1   6    5.59    0.29
  -2   1   6    5.34    0.24
   1  -1  -6   78.76    1.36
   1  -1  -6   76.63    1.40
  -1   1   6   77.05    1.40
  -1   1   6   75.34    1.36
   0  -1  -6   27.33    0.55
   0  -1  -6   27.74    0.59
   0  -1  -6   28.13    0.59
   0   1   6   27.27    0.60
   0   1   6   27.57    0.56
  -1  -1  -6  206.70    3.41
  -1  -1  -6  209.44    3.61
  -1  -1  -6  203.12    3.44
   1   1   6  204.65    3.66
   1   1   6  201.95    3.41
  -2  -1  -6   12.48    0.34
  -2  -1  -6   12.69    0.38
  -2  -1  -6   12.64    0.38
   2   1   6   12.24    0.40
   2   1   6   12.44    0.36
  -3  -1  -6   21.46    0.57
  -3  -1  -6   20.77    0.55
  -3  -1  -6   21.23    0.50
   3   1   6   21.17    0.53
   3   1   6   20.79    0.59
  -4  -1  -6   10.38    0.46
  -4  -1  -6    9.81    0.35
  -4  -1  -6    9.95    0.42
   4   1   6    9.06    0.50
   4   1   6   10.32    0.44
  -5  -1  -6    2.50    0.31
  -5  -1  -6    2.47    0.32
   5   1   6    2.84    0.31
   5   1   6    2.45    0.35
  -6  -1  -6    0.07    0.20
  -6  -1  -6   -0.15    0.24
   6   1   6   -0.91    0.34
   6   1   6    0.10    0.31
  -7  -1  -6    7.97    0.62
   7   1   6    7.82    0.72
  -7   2   6    0.83    0.38
  -6   2   6    8.45    0.60
  -6   2   6    8.62    0.49
   5  -2  -6    2.76    0.37
  -5   2   6    2.99    0.40
  -5   2   6    3.10    0.35
   4  -2  -6    9.18    0.48
  -4   2   6    9.51    0.40
  -4   2   6    8.78    0.45
   3  -2  -6   35.56    0.82
  -3   2   6   35.79    0.77
  -3   2   6   35.25    0.82
   2  -2  -6   10.83    0.37
  -2   2   6   10.88    0.33
  -2   2   6   10.73    0.37
   1  -2  -6    1.76    0.20
  -1   2   6    1.49    0.20
  -1   2   6    1.68    0.16
   0  -2  -6   20.61    0.46
   0   2   6   21.14    0.50
   0   2   6   20.87    0.46
  -1  -2  -6    5.56    0.25
  -1  -2  -6    5.70    0.23
   1   2   6    5.44    0.27
   1   2   6    5.46    0.23
  -2  -2  -6   56.12    1.07
  -2  -2  -6   55.99    1.05
   2   2   6   54.58    1.04
   2   2   6   53.92    1.07
  -3  -2  -6    3.53    0.15
  -3  -2  -6    3.75    0.25
  -3  -2  -6    3.67    0.30
   3   2   6    3.77    0.28
   3   2   6    3.50    0.33
  -4  -2  -6    1.25    0.20
  -4  -2  -6    1.28    0.25
   4   2   6    1.38    0.29
   4   2   6    1.46    0.24
  -5  -2  -6    4.46    0.33
  -5  -2  -6    4.80    0.41
   5   2   6    4.75    0.43
   5   2   6    4.90    0.50
  -6  -2  -6    0.56    0.29
   6   2   6    0.39    0.33
   6   2   6    0.04    0.28
  -7  -2  -6   15.20    0.74
   7   2   6   15.22    0.85
  -6   3   6    0.47    0.23
  -6   3   6    0.85    0.31
  -5   3   6   13.02    0.59
  -5   3   6   13.19    0.52
  -4   3   6    2.26    0.33
  -4   3   6    2.33    0.29
   3  -3  -6   16.56    0.49
  -3   3   6   16.61    0.52
  -3   3   6   16.65    0.47
   2  -3  -6    2.60    0.22
  -2   3   6    2.62    0.22
  -2   3   6    2.72    0.25
   1  -3  -6    0.48    0.11
  -1   3   6    0.47    0.10
  -1   3   6    0.56    0.14
   0  -3  -6   67.95    1.27
   0   3   6   67.10    1.19
   0   3   6   68.33    1.23
   0   3   6   65.54    1.19
  -1  -3  -6   46.27    0.91
  -1  -3  -6   48.96    0.87
   1   3   6   48.75    0.93
   1   3   6   48.02    1.01
   1   3   6   47.29    0.89
  -2  -3  -6   69.22    1.31
  -2  -3  -6   68.47    1.20
  -2  -3  -6   71.56    1.26
   2   3   6   70.74    1.32
   2   3   6   70.63    1.28
  -3  -3  -6    2.89    0.16
  -3  -3  -6    2.51    0.29
  -3  -3  -6    2.95    0.21
   3   3   6    2.56    0.28
   3   3   6    2.84    0.33
  -4  -3  -6    0.47    0.13
  -4  -3  -6    0.40    0.15
  -4  -3  -6    0.49    0.22
   4   3   6    0.49    0.21
   4   3   6    0.28    0.26
  -5  -3  -6    2.66    0.33
   5   3   6    2.95    0.39
   5   3   6    2.31    0.30
  -6  -3  -6    2.74    0.38
   6   3   6    2.26    0.37
   6   3   6    2.31    0.40
  -7  -3  -6    0.63    0.35
   7   3   6    0.78    0.44
  -6   4   6    4.23    0.58
  -6   4   6    5.04    0.49
  -5   4   6    8.59    0.52
  -5   4   6    9.15    0.47
  -4   4   6    0.73    0.19
  -4   4   6    0.78    0.23
  -3   4   6    2.75    0.30
  -3   4   6    2.76    0.27
  -2   4   6   30.20    0.70
  -2   4   6   30.52    0.66
  -1   4   6   21.79    0.50
  -1   4   6   22.74    0.49
  -1   4   6   22.36    0.53
   0   4   6    0.77    0.11
   0   4   6    0.85    0.14
   0   4   6    0.78    0.11
  -1  -4  -6   37.40    0.76
   1   4   6   39.16    0.74
   1   4   6   37.76    0.77
   1   4   6   37.54    0.73
  -2  -4  -6    4.99    0.28
  -2  -4  -6    4.86    0.22
   2   4   6    4.62    0.23
   2   4   6    4.87    0.26
   2   4   6    4.65    0.30
  -3  -4  -6    4.38    0.31
  -3  -4  -6    4.61    0.23
   3   4   6    4.41    0.32
   3   4   6    4.59    0.38
  -4  -4  -6    0.92    0.14
  -4  -4  -6    0.86    0.24
   4   4   6    0.88    0.23
   4   4   6    0.85    0.27
  -5  -4  -6    1.66    0.31
   5   4   6    1.41    0.34
   5   4   6    1.74    0.30
  -6  -4  -6   10.84    0.62
   6   4   6   10.45    0.63
   6   4   6   11.38    0.72
  -7  -4  -6    2.88    0.46
   7   4   6    2.81    0.52
  -6   5   6    3.71    0.46
  -6   5   6    3.48    0.38
  -5   5   6    0.60    0.22
  -5   5   6    0.53    0.27
  -4   5   6    7.70    0.45
  -4   5   6    8.13    0.40
  -3   5   6    7.38    0.38
  -3   5   6    7.48    0.34
  -2   5   6    5.58    0.32
  -2   5   6    5.78    0.28
  -1   5   6    1.07    0.14
  -1   5   6    1.14    0.17
  -1   5   6    0.86    0.15
   0   5   6    2.40    0.19
   0   5   6    2.46    0.18
   0   5   6    2.46    0.22
  -1  -5  -6   22.92    0.53
   1   5   6   23.49    0.50
   1   5   6   23.37    0.51
   1   5   6   23.24    0.55
  -2  -5  -6   28.72    0.64
  -2  -5  -6   28.55    0.65
   2   5   6   28.45    0.63
   2   5   6   27.20    0.67
  -3  -5  -6   11.82    0.39
  -3  -5  -6   12.12    0.44
   3   5   6   11.27    0.48
   3   5   6   11.70    0.42
  -4  -5  -6    6.27    0.32
  -4  -5  -6    6.07    0.40
   4   5   6    6.62    0.41
   4   5   6    6.80    0.49
  -5  -5  -6    1.38    0.30
   5   5   6    1.70    0.30
   5   5   6    1.69    0.36
  -6  -5  -6   -0.18    0.31
   6   5   6   -0.14    0.31
   6   5   6    0.08    0.36
  -5   6   6    7.64    0.57
  -5   6   6    7.44    0.50
  -4   6   6    7.69    0.47
  -4   6   6    7.25    0.40
  -3   6   6    0.35    0.20
  -3   6   6    0.36    0.16
  -2   6   6    0.58    0.14
  -2   6   6    0.56    0.17
  -1   6   6    7.47    0.28
  -1   6   6    7.45    0.32
   0  -6  -6    7.94    0.29
   0   6   6    7.73    0.26
   0   6   6    7.59    0.30
   0   6   6    7.37    0.27
  -1  -6  -6    4.45    0.25
   1   6   6    4.13    0.23
   1   6   6    4.13    0.24
   1   6   6    4.38    0.28
  -2  -6  -6   17.79    0.49
  -2  -6  -6   17.82    0.53
   2   6   6   16.97    0.51
   2   6   6   17.76    0.47
  -3  -6  -6   10.14    0.41
  -3  -6  -6   10.57    0.43
   3   6   6   10.26    0.40
   3   6   6   10.29    0.47
  -4  -6  -6    0.11    0.21
  -4  -6  -6    0.11    0.24
   4   6   6    0.08    0.21
   4   6   6    0.09    0.26
  -5  -6  -6    0.13    0.27
   5   6   6    0.64    0.28
   5   6   6    0.89    0.35
  -6  -6  -6   -0.28    0.32
   6   6   6   -0.36    0.32
   6   6   6    0.35    0.40
  -4   7   6    1.56    0.30
  -4   7   6    1.81    0.25
  -3   7   6    1.14    0.19
  -3   7   6    1.19    0.24
  -2   7   6    5.88    0.30
  -2   7   6    6.34    0.35
  -1   7   6    0.08    0.12
  -1   7   6    0.13    0.15
   0  -7  -6    2.61    0.22
   0   7   6    2.80    0.21
   0   7   6    2.87    0.24
  -1  -7  -6    9.55    0.33
   1   7   6    9.84    0.37
   1   7   6    9.21    0.32
  -2  -7  -6    2.82    0.36
  -2  -7  -6    3.18    0.28
   2   7   6    3.48    0.27
   2   7   6    3.44    0.32
  -3  -7  -6   12.42    0.50
  -3  -7  -6   12.78    0.47
   3   7   6   12.04    0.44
   3   7   6   12.96    0.52
  -4  -7  -6    0.47    0.24
   4   7   6    0.30    0.22
   4   7   6    0.74    0.29
  -5  -7  -6    1.87    0.35
   5   7   6    1.81    0.33
   5   7   6    2.55    0.45
  -4   8   6    4.93    0.50
  -4   8   6    4.86    0.40
  -3   8   6    4.33    0.33
  -3   8   6    4.88    0.43
  -2   8   6    2.37    0.26
  -2   8   6    2.77    0.34
  -1   8   6    7.03    0.34
  -1   8   6    6.86    0.30
   0  -8  -6    0.45    0.13
   0   8   6    0.40    0.12
   0   8   6    0.66    0.16
  -1  -8  -6    0.83    0.16
   1   8   6    1.02    0.18
   1   8   6    0.46    0.14
  -2  -8  -6    5.96    0.34
   2   8   6    6.28    0.37
   2   8   6    5.69    0.31
  -3  -8  -6    1.51    0.28
  -3  -8  -6    2.19    0.27
   3   8   6    1.77    0.22
  -4  -8  -6    4.06    0.44
   4   8   6    5.59    0.54
   4   8   6    4.50    0.44
  -2   9   6    0.40    0.21
  -2   9   6    0.19    0.17
   1  -9  -6    1.46    0.18
  -1   9   6    1.44    0.18
  -1   9   6    2.11    0.30
   0  -9  -6    0.62    0.14
   0   9   6    1.01    0.17
   0   9   6    0.58    0.14
  -1  -9  -6    1.01    0.16
   1   9   6    1.04    0.17
  -2  -9  -6   10.00    0.39
   2   9   6   10.58    0.44
   2   9   6    9.71    0.40
  -3  -9  -6   -0.29    0.21
   3   9   6    0.23    0.19
   3   9   6    0.72    0.26
   2   9  -7    3.40    0.38
  -2  -9   7    3.70    0.49
   1   9  -7    0.37    0.22
   1   9  -7    0.11    0.25
  -1  -9   7    0.62    0.37
   0   9  -7   23.07    0.62
   0   9  -7   22.71    0.67
   0  -9   7   25.29    0.96
  -1   9  -7   14.25    0.49
  -1   9  -7   13.67    0.52
   1  -9   7   14.83    0.85
  -2   9  -7   -0.12    0.20
  -2   9  -7    0.05    0.18
   4   8  -7    1.94    0.46
  -4  -8   7    2.29    0.44
   3   8  -7    3.22    0.41
   3   8  -7    4.80    0.60
  -3  -8   7    4.28    0.58
   2   8  -7   -0.04    0.25
  -2  -8   7    0.36    0.31
   1   8  -7    0.99    0.26
   1   8  -7    1.21    0.22
  -1  -8   7    1.50    0.34
   0   8  -7    2.24    0.33
   0   8  -7    2.58    0.30
   0  -8   7    3.29    0.43
  -1   8  -7    5.89    0.38
  -1   8  -7    6.72    0.35
   1  -8   7    7.19    0.63
  -2   8  -7   -0.17    0.18
  -2   8  -7    0.00    0.16
  -3   8  -7    3.24    0.40
  -3   8  -7    3.14    0.34
   4   7  -7   -0.12    0.37
  -4  -7   7    0.15    0.35
   3   7  -7    2.12    0.39
  -3  -7   7    1.37    0.35
   2   7  -7   -0.14    0.24
  -2  -7   7    0.29    0.25
   1   7  -7   10.36    0.42
   1   7  -7    9.51    0.45
  -1  -7   7   10.19    0.57
   0   7  -7    0.56    0.17
   0   7  -7    0.77    0.22
   0  -7   7    0.96    0.30
  -1   7  -7   94.10    1.78
  -1   7  -7   95.99    1.72
   1  -7   7   92.77    1.95
  -2   7  -7    3.19    0.29
  -2   7  -7    2.65    0.32
  -3   7  -7    0.20    0.17
  -3   7  -7    0.11    0.21
  -4   7  -7    0.36    0.20
  -4   7  -7    0.78    0.27
   5   6  -7    1.91    0.47
  -5  -6   7    1.59    0.41
   4   6  -7    4.14    0.60
  -4  -6   7    2.87    0.39
   3   6  -7    2.55    0.39
  -3  -6   7    2.13    0.35
   2   6  -7   15.10    0.59
  -2  -6   7   15.39    0.65
   1   6  -7   21.20    0.62
  -1  -6   7   22.47    0.73
   0   6  -7    0.73    0.17
   0   6  -7    0.82    0.21
   0  -6   7    0.89    0.25
  -1   6  -7    3.58    0.29
  -1   6  -7    3.49    0.32
   1  -6   7    3.37    0.43
  -2   6  -7   24.58    0.67
  -2   6  -7   25.38    0.62
   2  -6   7   24.80    0.79
  -3   6  -7    2.18    0.33
  -3   6  -7    2.34    0.29
  -4   6  -7   14.68    0.53
  -4   6  -7   15.18    0.61
  -5   6  -7    3.14    0.41
  -5   6  -7    3.41    0.49
   6   5  -7    4.87    0.59
   5   5  -7    1.44    0.43
   4   5  -7    5.47    0.59
  -4  -5   7    5.41    0.53
   3   5  -7    1.89    0.35
  -3  -5   7    1.57    0.33
   2   5  -7    2.40    0.32
  -2  -5   7    2.05    0.31
   1   5  -7    2.99    0.34
  -1  -5   7    2.67    0.38
   0   5  -7   13.06    0.45
   0   5  -7   13.16    0.41
   0  -5   7   12.94    0.50
  -1   5  -7    3.27    0.31
  -1   5  -7    3.49    0.28
   1  -5   7    3.05    0.38
  -2   5  -7  154.15    2.76
  -2   5  -7  156.52    2.70
   2  -5   7  155.59    2.83
  -3   5  -7    1.18    0.19
  -3   5  -7    1.32    0.23
  -4   5  -7    0.33    0.18
  -4   5  -7    0.17    0.22
  -5   5  -7    0.35    0.27
  -5   5  -7    0.37    0.21
  -6   5  -7    0.16    0.23
  -6   5  -7    0.22    0.31
   6   4  -7    8.80    0.81
   5   4  -7    2.81    0.46
   4   4  -7    1.38    0.36
   3   4  -7    6.20    0.54
   2   4  -7    0.37    0.25
  -2  -4   7    0.26    0.22
   1   4  -7   15.32    0.42
   1   4  -7   16.25    0.52
  -1  -4   7   15.64    0.54
   0   4  -7   98.30    1.76
   0   4  -7  102.02    1.78
   0   4  -7  101.08    1.79
   0   4  -7  100.92    1.82
   0  -4   7   99.40    1.87
  -1   4  -7   17.60    0.45
  -1   4  -7   18.42    0.53
  -1   4  -7   18.57    0.47
   1  -4   7   17.34    0.55
  -2   4  -7    8.69    0.39
  -2   4  -7    8.27    0.35
   2  -4   7    8.97    0.42
  -3   4  -7   36.02    0.80
  -3   4  -7   35.94    0.87
  -4   4  -7    3.56    0.37
  -4   4  -7    3.63    0.32
  -5   4  -7   17.03    0.59
  -5   4  -7   18.14    0.69
  -6   4  -7   13.48    0.68
  -6   4  -7   13.58    0.60
   6   3  -7   -0.24    0.40
   5   3  -7   17.62    0.80
   4   3  -7    0.13    0.32
   3   3  -7    6.15    0.53
  -3  -3   7    6.26    0.33
   2   3  -7    9.35    0.47
  -2  -3   7    8.41    0.32
   1   3  -7    2.47    0.31
   1   3  -7    2.21    0.21
   1   3  -7    2.50    0.27
  -1  -3   7    2.39    0.20
  -1  -3   7    2.13    0.28
   0   3  -7   33.13    0.70
   0   3  -7   33.80    0.70
   0   3  -7   34.07    0.74
   0  -3   7   32.70    0.74
   0  -3   7   33.13    0.67
  -1   3  -7    9.14    0.32
  -1   3  -7    9.72    0.38
  -1   3  -7    9.47    0.33
   1  -3   7    9.10    0.35
   1  -3   7    9.58    0.32
  -2   3  -7   54.46    1.05
  -2   3  -7   54.71    1.11
  -2   3  -7   54.44    1.06
   2  -3   7   52.42    1.07
   2  -3   7   53.56    1.05
  -3   3  -7   91.12    1.68
  -3   3  -7   92.01    1.75
  -3   3  -7   89.74    1.70
   3  -3   7   90.79    1.69
  -4   3  -7    7.04    0.42
  -4   3  -7    7.37    0.39
  -4   3  -7    7.56    0.37
  -5   3  -7    0.17    0.22
  -5   3  -7    0.23    0.18
  -6   3  -7    4.37    0.51
  -6   3  -7    4.83    0.42
   6   2  -7    4.29    0.52
   5   2  -7   10.41    0.68
  -5  -2   7   10.56    0.51
   4   2  -7   15.39    0.69
  -4  -2   7   15.57    0.54
   3   2  -7    0.32    0.28
   3   2  -7    0.25    0.27
  -3  -2   7    0.32    0.18
   2   2  -7    6.78    0.41
  -2  -2   7    6.31    0.31
   1   2  -7    8.48    0.37
   1   2  -7    8.24    0.33
  -1  -2   7    7.97    0.31
   0   2  -7    5.90    0.26
   0   2  -7    5.91    0.31
   0   2  -7    6.12    0.27
   0  -2   7    5.58    0.26
   0  -2   7    5.64    0.26
  -1   2  -7  112.65    1.98
  -1   2  -7  114.99    2.01
  -1   2  -7  113.67    1.96
   1  -2   7  110.33    1.97
   1  -2   7  111.15    1.96
  -2   2  -7   31.08    0.67
  -2   2  -7   31.71    0.73
  -2   2  -7   31.29    0.70
   2  -2   7   30.42    0.70
  -3   2  -7   29.42    0.68
  -3   2  -7   29.97    0.75
  -3   2  -7   30.04    0.72
   3  -2   7   28.05    0.79
   3  -2   7   29.72    0.73
  -4   2  -7    9.97    0.47
  -4   2  -7    9.23    0.39
  -4   2  -7    9.67    0.45
   4  -2   7    9.68    0.48
  -5   2  -7    0.13    0.21
  -5   2  -7   -0.29    0.20
  -5   2  -7   -0.02    0.15
   5  -2   7    0.07    0.25
  -6   2  -7    5.56    0.41
  -6   2  -7    5.83    0.50
  -7   2  -7   11.19    0.68
   7   1  -7   -0.75    0.42
   7   1  -7    0.78    0.43
   6   1  -7    3.77    0.49
   6   1  -7    3.07    0.49
  -6  -1   7    4.51    0.48
   5   1  -7    2.29    0.41
  -5  -1   7    2.60    0.32
   4   1  -7   29.31    0.88
   4   1  -7   27.33    0.86
  -4  -1   7   28.75    0.95
  -4  -1   7   27.48    0.76
   3   1  -7    7.65    0.49
  -3  -1   7    7.13    0.37
   2   1  -7    0.18    0.19
  -2  -1   7    0.16    0.10
  -2  -1   7    0.04    0.14
   1   1  -7   15.83    0.43
   1   1  -7   16.12    0.47
  -1  -1   7   15.99    0.40
  -1  -1   7   15.33    0.43
   0   1  -7    0.10    0.11
   0   1  -7    0.03    0.14
   0   1  -7    0.05    0.12
   0  -1   7    0.04    0.10
   0  -1   7    0.10    0.10
   0  -1   7   -0.07    0.13
  -1   1  -7  124.34    2.14
  -1   1  -7  128.13    2.19
  -1   1  -7  124.88    2.17
   1  -1   7  123.41    2.10
   1  -1   7  121.40    2.17
   1  -1   7  123.76    2.13
  -2   1  -7    2.39    0.24
  -2   1  -7    2.58    0.21
  -2   1  -7    2.62    0.25
   2  -1   7    2.90    0.22
   2  -1   7    2.40    0.26
  -3   1  -7  125.83    2.27
  -3   1  -7  122.76    2.25
  -3   1  -7  127.71    2.21
   3  -1   7  125.33    2.26
   3  -1   7  124.25    2.20
  -4   1  -7    9.50    0.44
  -4   1  -7    9.15    0.38
  -4   1  -7    9.20    0.44
   4  -1   7    9.31    0.49
   4  -1   7    8.68    0.41
  -5   1  -7    5.32    0.41
  -5   1  -7    4.90    0.42
  -5   1  -7    5.13    0.34
   5  -1   7    5.30    0.48
  -6   1  -7    0.12    0.23
  -6   1  -7    0.08    0.25
   6  -1   7    0.15    0.29
  -7   1  -7    5.36    0.76
  -7   1  -7    4.67    0.51
   7   0  -7   -0.78    0.51
  -7   0   7    0.34    0.31
   6   0  -7    4.63    0.62
   6   0  -7    6.08    0.60
  -6   0   7    6.73    0.54
   5   0  -7   23.06    0.82
   5   0  -7   23.75    0.84
  -5   0   7   24.45    0.76
   4   0  -7    1.37    0.31
  -4   0   7    1.60    0.20
  -4   0   7    1.37    0.26
   3   0  -7   26.43    0.74
  -3   0   7   25.80    0.62
  -3   0   7   25.90    0.68
   2   0  -7   -0.02    0.13
   2   0  -7    0.13    0.18
  -2   0   7   -0.04    0.14
  -2   0   7    0.00    0.10
   1   0  -7    6.58    0.32
   1   0  -7    6.61    0.28
  -1   0   7    6.18    0.30
  -1   0   7    6.20    0.25
   0   0  -7   56.46    1.09
   0   0  -7   58.62    1.11
   0   0  -7   58.87    1.06
   0   0   7   56.76    1.10
   0   0   7   56.64    1.05
  -1   0  -7  160.13    2.79
  -1   0  -7  164.15    2.79
  -1   0  -7  160.49    2.74
   1   0   7  164.79    2.75
   1   0   7  163.74    2.69
   1   0   7  160.91    2.79
  -2   0  -7   10.45    0.37
  -2   0  -7    9.90    0.32
  -2   0  -7   10.10    0.35
   2   0   7   10.31    0.34
   2   0   7    9.66    0.38
  -3   0  -7   13.77    0.41
  -3   0  -7   14.57    0.47
  -3   0  -7   14.58    0.47
   3   0   7   14.70    0.44
   3   0   7   13.93    0.50
  -4   0  -7   43.66    1.00
  -4   0  -7   42.51    0.91
  -4   0  -7   42.74    0.98
   4   0   7   43.09    0.94
   4   0   7   43.19    1.02
  -5   0  -7    0.79    0.24
  -5   0  -7    0.89    0.27
  -5   0  -7    0.83    0.21
   5   0   7    0.66    0.30
   5   0   7    0.44    0.24
  -6   0  -7    5.87    0.45
  -6   0  -7    6.21    0.49
   6   0   7    5.87    0.57
  -7   0  -7   -0.27    0.28
  -7   0  -7    0.21    0.24
   7   0   7    0.18    0.36
  -7   1   7    4.97    0.62
   6  -1  -7   -0.36    0.34
  -6   1   7    0.73    0.31
   5  -1  -7    4.86    0.52
  -5   1   7    5.93    0.41
  -5   1   7    5.48    0.46
   4  -1  -7   12.47    0.57
  -4   1   7   12.83    0.52
  -4   1   7   13.34    0.47
   3  -1  -7   22.64    0.66
   3  -1  -7   21.32    0.59
  -3   1   7   21.87    0.56
  -3   1   7   20.88    0.61
   2  -1  -7   15.57    0.44
   2  -1  -7   16.21    0.49
  -2   1   7   16.05    0.48
  -2   1   7   15.51    0.42
   1  -1  -7   13.21    0.40
   1  -1  -7   13.42    0.37
  -1   1   7   13.05    0.36
  -1   1   7   12.80    0.40
   0  -1  -7    9.58    0.32
   0  -1  -7    9.83    0.33
   0  -1  -7    9.55    0.29
   0   1   7    9.54    0.34
   0   1   7    9.90    0.30
  -1  -1  -7   21.48    0.52
  -1  -1  -7   21.93    0.52
  -1  -1  -7   21.29    0.47
   1   1   7   21.23    0.49
   1   1   7   20.57    0.53
  -2  -1  -7  113.72    1.98
  -2  -1  -7  114.45    2.03
  -2  -1  -7  114.94    2.03
   2   1   7  116.35    2.00
   2   1   7  110.55    2.03
  -3  -1  -7    1.14    0.19
  -3  -1  -7    0.99    0.14
  -3  -1  -7    1.27    0.22
   3   1   7    1.13    0.19
   3   1   7    1.04    0.23
  -4  -1  -7   95.28    1.81
  -4  -1  -7   92.24    1.73
  -4  -1  -7   96.14    1.84
   4   1   7   96.34    1.86
   4   1   7   95.22    1.78
  -5  -1  -7    1.80    0.27
  -5  -1  -7    1.53    0.29
   5   1   7    1.78    0.34
   5   1   7    2.03    0.29
  -6  -1  -7    1.84    0.29
  -6  -1  -7    1.40    0.31
   6   1   7    1.91    0.38
  -7  -1  -7    1.63    0.40
   7   1   7    1.48    0.43
  -6   2   7    7.22    0.54
  -6   2   7    5.97    0.61
  -5   2   7    1.09    0.23
  -5   2   7    0.91    0.27
   4  -2  -7   41.85    1.00
  -4   2   7   42.32    0.93
  -4   2   7   41.48    1.00
   3  -2  -7    3.39    0.36
  -3   2   7    3.65    0.29
  -3   2   7    3.31    0.32
   2  -2  -7   19.13    0.52
  -2   2   7   18.84    0.53
  -2   2   7   18.83    0.48
   1  -2  -7    0.43    0.15
  -1   2   7    0.22    0.14
  -1   2   7    0.29    0.11
   0  -2  -7    1.24    0.16
   0  -2  -7    1.50    0.16
   0   2   7    1.55    0.18
   0   2   7    0.93    0.12
  -1  -2  -7   54.11    1.02
  -1  -2  -7   54.21    1.05
   1   2   7   54.42    1.01
   1   2   7   53.74    1.05
  -2  -2  -7  193.40    3.26
  -2  -2  -7  193.60    3.29
   2   2   7  192.24    3.25
   2   2   7  187.23    3.29
  -3  -2  -7    7.37    0.32
  -3  -2  -7    7.84    0.37
   3   2   7    7.26    0.41
   3   2   7    7.54    0.35
  -4  -2  -7    4.14    0.36
  -4  -2  -7    4.07    0.31
   4   2   7    3.56    0.44
   4   2   7    3.99    0.38
  -5  -2  -7   21.38    0.64
  -5  -2  -7   21.69    0.70
   5   2   7   21.07    0.77
   5   2   7   21.20    0.68
  -6  -2  -7    4.16    0.47
   6   2   7    4.94    0.59
   6   2   7    4.24    0.51
  -7  -2  -7   10.34    0.69
   7   2   7   11.38    0.81
  -6   3   7    5.15    0.50
  -6   3   7    5.91    0.60
  -5   3   7    3.81    0.41
  -5   3   7    3.20    0.44
  -4   3   7    2.56    0.32
  -4   3   7    2.58    0.37
   3  -3  -7   24.40    0.64
  -3   3   7   23.89    0.67
  -3   3   7   24.74    0.62
   2  -3  -7    5.33    0.29
  -2   3   7    5.43    0.31
  -2   3   7    5.53    0.28
   1  -3  -7    7.01    0.26
  -1   3   7    7.15    0.27
  -1   3   7    7.49    0.32
   0  -3  -7   29.28    0.58
   0   3   7   28.82    0.60
   0   3   7   29.08    0.65
  -1  -3  -7    0.13    0.10
  -1  -3  -7    0.12    0.12
   1   3   7   -0.12    0.14
   1   3   7    0.02    0.11
  -2  -3  -7   51.89    0.97
  -2  -3  -7   50.02    1.02
   2   3   7   50.97    1.04
   2   3   7   51.27    1.00
  -3  -3  -7   28.66    0.64
  -3  -3  -7   27.09    0.51
  -3  -3  -7   29.31    0.71
   3   3   7   27.76    0.74
   3   3   7   28.19    0.68
  -4  -3  -7    4.38    0.36
   4   3   7    4.50    0.39
   4   3   7    4.29    0.45
  -5  -3  -7   30.67    0.87
   5   3   7   31.28    0.95
   5   3   7   32.42    0.85
  -6  -3  -7    5.03    0.52
   6   3   7    5.91    0.61
   6   3   7    4.74    0.54
  -7  -3  -7    0.10    0.34
   7   3   7    0.62    0.44
   7   3   7   -1.10    0.44
  -6   4   7    1.72    0.31
  -6   4   7    1.62    0.39
  -5   4   7   15.01    0.67
  -5   4   7   14.67    0.59
  -4   4   7    2.84    0.33
  -4   4   7    2.33    0.31
  -3   4   7   27.77    0.73
  -3   4   7   26.80    0.66
  -2   4   7   18.89    0.50
  -2   4   7   19.45    0.55
  -1   4   7    1.97    0.24
  -1   4   7    1.67    0.18
  -1   4   7    2.17    0.20
   0  -4  -7    1.22    0.16
   0   4   7    0.95    0.13
   0   4   7    1.13    0.17
   0   4   7    0.92    0.13
  -1  -4  -7    3.86    0.24
   1   4   7    3.74    0.22
   1   4   7    3.76    0.28
   1   4   7    3.48    0.23
  -2  -4  -7    6.87    0.33
   2   4   7    6.61    0.31
   2   4   7    6.87    0.36
  -3  -4  -7   57.15    1.07
  -3  -4  -7   62.62    1.23
   3   4   7   60.04    1.18
   3   4   7   59.61    1.24
  -4  -4  -7   11.74    0.50
   4   4   7   11.36    0.49
   4   4   7   11.88    0.57
  -5  -4  -7    2.26    0.32
   5   4   7    2.42    0.37
   5   4   7    2.70    0.33
  -6  -4  -7    2.37    0.39
   6   4   7    2.52    0.38
   6   4   7    2.18    0.43
  -5   5   7    1.92    0.35
  -5   5   7    1.81    0.28
  -4   5   7    7.86    0.48
  -4   5   7    8.15    0.42
  -3   5   7    0.07    0.20
  -3   5   7    0.11    0.16
  -2   5   7   22.37    0.61
  -2   5   7   22.23    0.55
  -1   5   7   -0.10    0.15
  -1   5   7   -0.20    0.11
   0  -5  -7    0.43    0.15
   0   5   7    0.27    0.13
   0   5   7    0.27    0.12
   0   5   7    0.31    0.15
  -1  -5  -7   19.16    0.50
   1   5   7   20.00    0.53
   1   5   7   19.48    0.52
   1   5   7   20.17    0.48
  -2  -5  -7    3.36    0.27
   2   5   7    3.25    0.32
   2   5   7    2.96    0.28
  -3  -5  -7   33.86    0.72
  -3  -5  -7   35.07    0.82
   3   5   7   35.51    0.86
   3   5   7   34.32    0.79
  -4  -5  -7    1.99    0.28
   4   5   7    2.10    0.33
   4   5   7    2.10    0.27
  -5  -5  -7    8.71    0.52
   5   5   7    9.64    0.64
   5   5   7    9.25    0.56
  -6  -5  -7    4.00    0.54
   6   5   7    5.34    0.70
   6   5   7    3.82    0.43
  -5   6   7    0.34    0.30
  -5   6   7    0.37    0.24
  -4   6   7   12.07    0.49
  -4   6   7   11.95    0.57
  -3   6   7    8.32    0.38
  -3   6   7    8.81    0.46
  -2   6   7    5.34    0.30
  -2   6   7    5.00    0.35
  -1   6   7   18.35    0.46
  -1   6   7   17.50    0.50
   0  -6  -7    1.05    0.17
   0   6   7    0.79    0.13
   0   6   7    1.05    0.18
  -1  -6  -7    0.98    0.17
   1   6   7    0.85    0.18
   1   6   7    0.76    0.15
  -2  -6  -7   16.82    0.49
   2   6   7   16.19    0.47
   2   6   7   16.33    0.52
  -3  -6  -7    1.20    0.22
  -3  -6  -7    1.03    0.18
   3   6   7    1.56    0.27
   3   6   7    1.07    0.20
  -4  -6  -7    6.33    0.44
   4   6   7    7.31    0.53
   4   6   7    6.45    0.45
  -5  -6  -7    4.31    0.48
   5   6   7    4.81    0.61
   5   6   7    4.23    0.51
  -6  -6  -7    1.57    0.40
   6   6   7    1.84    0.47
   6   6   7    1.19    0.36
  -4   7   7    0.22    0.20
  -4   7   7    0.08    0.26
  -3   7   7    7.56    0.38
  -3   7   7    7.51    0.46
  -2   7   7    4.25    0.36
  -2   7   7    3.68    0.29
  -1   7   7    8.31    0.37
  -1   7   7    7.80    0.31
   0  -7  -7    1.32    0.18
   0   7   7    1.30    0.19
   0   7   7    1.33    0.16
  -1  -7  -7    0.51    0.16
   1   7   7    0.59    0.18
   1   7   7    0.40    0.14
  -2  -7  -7    8.07    0.37
   2   7   7    8.08    0.36
   2   7   7    8.32    0.42
  -3  -7  -7    7.33    0.42
   3   7   7    6.98    0.38
   3   7   7    7.47    0.47
  -4  -7  -7   11.73    0.54
   4   7   7   12.44    0.64
   4   7   7   11.04    0.52
  -5  -7  -7    0.06    0.28
   5   7   7    0.11    0.29
   5   7   7    0.51    0.38
  -3   8   7    3.95    0.44
  -3   8   7    3.57    0.35
  -2   8   7    8.06    0.37
  -2   8   7    8.46    0.45
  -1   8   7    0.14    0.13
  -1   8   7    0.22    0.18
   0  -8  -7    6.32    0.30
   0   8   7    6.68    0.34
   0   8   7    5.97    0.29
  -1  -8  -7    2.90    0.26
   1   8   7    2.71    0.27
   1   8   7    3.65    0.33
  -2  -8  -7    0.13    0.18
   2   8   7    0.41    0.21
   2   8   7    0.25    0.16
  -3  -8  -7   11.39    0.50
   3   8   7   12.84    0.57
   3   8   7   10.84    0.46
  -4  -8  -7    5.55    0.47
   4   8   7    5.43    0.45
   4   8   7    6.46    0.58
  -2   9   7    2.59    0.33
  -2   9   7    3.40    0.41
   1  -9  -7    6.25    0.32
  -1   9   7    6.54    0.34
  -1   9   7    6.97    0.40
   0  -9  -7    0.91    0.17
   0   9   7    1.23    0.20
   0   9   7    0.97    0.17
  -1  -9  -7    1.48    0.20
   1   9   7    1.29    0.19
  -2  -9  -7    2.07    0.25
   2   9   7    2.84    0.33
   2   9   7    3.56    0.39
  -3  -9  -7    1.67    0.27
   3   9   7    1.67    0.24
   1   9  -8    1.01    0.25
   1   9  -8    0.75    0.28
  -1  -9   8    1.14    0.41
   0   9  -8    2.14    0.26
   0   9  -8    2.38    0.31
   0  -9   8    2.93    0.45
  -1   9  -8   28.81    0.80
  -1   9  -8   29.87    0.75
   1  -9   8   30.14    1.08
   3   8  -8   -0.13    0.31
  -3  -8   8    0.19    0.33
   2   8  -8    1.57    0.33
  -2  -8   8    1.83    0.39
   1   8  -8    2.08    0.31
   1   8  -8    1.95    0.26
  -1  -8   8    2.44    0.40
   0   8  -8    7.89    0.45
   0   8  -8    8.20    0.40
   0  -8   8    8.48    0.67
  -1   8  -8    1.14    0.25
  -1   8  -8    1.26    0.22
   1  -8   8    1.71    0.37
  -2   8  -8    0.00    0.21
  -2   8  -8    0.05    0.18
  -3   8  -8    1.14    0.23
  -3   8  -8    1.05    0.28
   4   7  -8   -0.59    0.35
   4   7  -8    0.42    0.40
  -4  -7   8    0.06    0.36
   3   7  -8    2.53    0.38
  -3  -7   8    3.84    0.47
   2   7  -8   -0.08    0.26
  -2  -7   8    0.14    0.25
   1   7  -8    0.93    0.26
   1   7  -8    0.99    0.22
  -1  -7   8    1.08    0.28
   0   7  -8   15.55    0.55
   0   7  -8   16.21    0.50
   0  -7   8   17.61    0.72
  -1   7  -8    5.19    0.39
  -1   7  -8    5.48    0.34
   1  -7   8    5.81    0.52
  -2   7  -8   42.76    0.93
  -2   7  -8   40.80    0.99
   2  -7   8   43.36    1.16
  -3   7  -8    0.06    0.18
  -3   7  -8   -0.20    0.21
  -4   7  -8    0.01    0.19
  -4   7  -8   -0.04    0.24
   5   6  -8    3.00    0.53
  -5  -6   8    1.94    0.44
   4   6  -8    6.96    0.68
  -4  -6   8    7.08    0.62
   3   6  -8    5.57    0.53
  -3  -6   8    5.87    0.55
   2   6  -8    3.28    0.44
  -2  -6   8    3.41    0.48
   1   6  -8    0.69    0.20
   1   6  -8    0.77    0.24
  -1  -6   8    0.71    0.25
   0   6  -8    0.52    0.21
   0   6  -8    0.32    0.17
   0  -6   8    0.56    0.24
  -1   6  -8   22.34    0.59
  -1   6  -8   22.49    0.65
   1  -6   8   21.83    0.73
  -2   6  -8    0.61    0.21
  -2   6  -8    0.64    0.18
   2  -6   8    0.52    0.28
  -3   6  -8    0.10    0.17
  -3   6  -8    0.15    0.21
  -4   6  -8    9.99    0.47
  -4   6  -8    9.96    0.54
  -5   6  -8    9.49    0.62
  -5   6  -8    9.81    0.54
   5   5  -8    1.20    0.44
   4   5  -8   10.58    0.70
  -4  -5   8    9.99    0.64
   3   5  -8    2.07    0.38
   3   5  -8    1.72    0.36
  -3  -5   8    1.73    0.32
   2   5  -8    1.52    0.30
  -2  -5   8    1.14    0.28
   1   5  -8    0.24    0.17
   1   5  -8    0.34    0.22
  -1  -5   8    0.08    0.21
   0   5  -8    0.80    0.22
   0   5  -8    0.61    0.17
   0  -5   8    0.55    0.21
  -1   5  -8   52.60    1.05
  -1   5  -8   52.47    1.12
   1  -5   8   52.95    1.18
  -2   5  -8   86.95    1.70
  -2   5  -8   87.82    1.64
   2  -5   8   88.89    1.76
  -3   5  -8   25.01    0.73
  -3   5  -8   25.24    0.66
  -4   5  -8    0.42    0.24
  -4   5  -8    0.30    0.18
  -5   5  -8    0.01    0.20
  -5   5  -8    0.29    0.28
  -6   5  -8    3.99    0.49
   6   4  -8    2.18    0.51
   5   4  -8    0.43    0.39
   4   4  -8    2.38    0.42
   3   4  -8   23.44    0.79
   3   4  -8   23.03    0.79
   2   4  -8    6.47    0.48
  -2  -4   8    6.74    0.45
   1   4  -8   18.14    0.59
   1   4  -8   18.77    0.54
  -1  -4   8   17.84    0.59
   0   4  -8    3.21    0.32
   0   4  -8    3.16    0.37
   0   4  -8    3.37    0.27
   0  -4   8    2.94    0.32
  -1   4  -8    7.72    0.40
  -1   4  -8    8.24    0.35
   1  -4   8    7.51    0.40
  -2   4  -8   16.58    0.54
  -2   4  -8   16.52    0.49
   2  -4   8   16.28    0.55
  -3   4  -8    1.40    0.20
  -3   4  -8    1.21    0.24
  -4   4  -8   -0.12    0.20
  -4   4  -8   -0.01    0.17
  -5   4  -8   29.31    0.81
  -5   4  -8   28.58    0.89
  -6   4  -8    0.25    0.30
  -6   4  -8    0.09    0.23
   6   3  -8    0.99    0.44
   5   3  -8    3.53    0.49
   4   3  -8   -0.41    0.30
   4   3  -8   -0.20    0.32
   3   3  -8   15.71    0.65
  -3  -3   8   14.95    0.48
   2   3  -8    8.50    0.48
  -2  -3   8    7.86    0.34
   1   3  -8    0.34    0.21
   1   3  -8    0.22    0.16
   1   3  -8    0.27    0.14
  -1  -3   8    0.52    0.14
  -1  -3   8   -0.03    0.17
   0   3  -8    1.27    0.17
   0   3  -8    1.29    0.17
   0   3  -8    1.56    0.22
   0  -3   8    1.09    0.17
   0  -3   8    1.75    0.21
  -1   3  -8    4.07    0.32
  -1   3  -8    3.80    0.25
  -1   3  -8    4.00    0.27
   1  -3   8    3.61    0.27
   1  -3   8    3.96    0.26
  -2   3  -8   35.26    0.79
  -2   3  -8   35.72    0.83
  -2   3  -8   35.09    0.77
   2  -3   8   34.83    0.77
   2  -3   8   34.84    0.78
  -3   3  -8  223.99    3.86
  -3   3  -8  223.60    3.82
  -3   3  -8  226.31    3.91
   3  -3   8  218.49    3.82
  -4   3  -8    4.24    0.33
  -4   3  -8    4.55    0.40
  -5   3  -8    1.19    0.29
  -5   3  -8    0.90    0.21
  -6   3  -8    0.38    0.22
  -6   3  -8    0.19    0.28
   6   2  -8    1.20    0.44
   6   2  -8    0.32    0.42
   5   2  -8    8.83    0.68
   5   2  -8    7.51    0.64
  -5  -2   8    9.44    0.79
   4   2  -8    3.72    0.54
   4   2  -8    3.68    0.53
  -4  -2   8    4.04    0.37
   3   2  -8    0.27    0.28
  -3  -2   8    0.39    0.20
   2   2  -8   35.54    0.86
  -2  -2   8   34.55    0.77
  -2  -2   8   32.58    0.74
   1   2  -8    3.86    0.33
   1   2  -8    3.40    0.24
   1   2  -8    4.01    0.29
  -1  -2   8    3.44    0.26
   0   2  -8   46.79    0.97
   0   2  -8   46.18    0.93
   0   2  -8   46.30    0.91
   0  -2   8   45.30    0.92
   0  -2   8   45.62    0.92
  -1   2  -8   27.86    0.67
  -1   2  -8   27.83    0.62
  -1   2  -8   27.31    0.64
   1  -2   8   27.62    0.64
   1  -2   8   27.78    0.61
  -2   2  -8   45.22    0.93
  -2   2  -8   45.27    0.97
  -2   2  -8   44.50    0.90
   2  -2   8   42.66    0.89
   2  -2   8   42.93    0.87
   2  -2   8   44.12    0.93
  -3   2  -8    3.65    0.34
  -3   2  -8    3.55    0.30
  -3   2  -8    3.34    0.29
   3  -2   8    3.55    0.36
  -4   2  -8    5.61    0.39
  -4   2  -8    5.17    0.34
  -4   2  -8    5.09    0.39
   4  -2   8    5.13    0.43
  -5   2  -8    0.24    0.23
  -5   2  -8    0.34    0.22
  -5   2  -8    0.52    0.19
   5  -2   8    0.49    0.27
  -6   2  -8   31.72    0.94
  -7   2  -8    6.15    0.61
   6   1  -8    0.01    0.38
  -6  -1   8    1.61    0.34
   5   1  -8    1.35    0.38
  -5  -1   8    2.18    0.32
   4   1  -8   14.70    0.67
  -4  -1   8   14.90    0.57
   3   1  -8    5.63    0.49
  -3  -1   8    5.69    0.31
  -3  -1   8    5.63    0.38
   2   1  -8    6.81    0.36
   2   1  -8    7.04    0.42
  -2  -1   8    6.84    0.35
  -2  -1   8    6.59    0.29
   1   1  -8    4.16    0.28
   1   1  -8    4.25    0.31
  -1  -1   8    3.96    0.27
  -1  -1   8    4.06    0.23
   0   1  -8    0.63    0.14
   0   1  -8    0.56    0.18
   0   1  -8    0.51    0.14
   0  -1   8    0.55    0.11
   0  -1   8    0.50    0.15
   0  -1   8    0.44    0.12
  -1   1  -8    0.91    0.18
  -1   1  -8    0.86    0.14
  -1   1  -8    1.07    0.17
   1  -1   8    1.00    0.14
   1  -1   8    0.71    0.17
   1  -1   8    0.70    0.12
  -2   1  -8   36.81    0.77
  -2   1  -8   36.11    0.81
  -2   1  -8   37.06    0.83
   2  -1   8   37.23    0.77
   2  -1   8   36.37    0.82
  -3   1  -8    1.65    0.23
  -3   1  -8    0.96    0.16
  -3   1  -8    1.67    0.23
   3  -1   8    1.48    0.20
   3  -1   8    1.50    0.26
  -4   1  -8  188.91    3.38
  -4   1  -8  188.94    3.29
  -4   1  -8  190.29    3.36
   4  -1   8  187.52    3.36
  -5   1  -8   -0.14    0.21
  -5   1  -8   -0.03    0.15
  -5   1  -8   -0.03    0.20
   5  -1   8    0.25    0.28
  -6   1  -8    0.49    0.25
  -6   1  -8    0.30    0.27
   6  -1   8    0.50    0.32
  -7   1  -8    1.32    0.32
   6   0  -8    2.28    0.45
  -6   0   8    3.18    0.41
   5   0  -8    0.34    0.33
  -5   0   8    1.08    0.29
   4   0  -8    7.18    0.53
  -4   0   8    7.06    0.44
  -4   0   8    7.40    0.37
   3   0  -8   10.41    0.46
   3   0  -8   10.54    0.52
  -3   0   8   10.24    0.39
  -3   0   8   10.42    0.46
   2   0  -8   10.86    0.46
   2   0  -8   10.82    0.39
  -2   0   8   10.10    0.41
  -2   0   8   10.34    0.36
   1   0  -8   30.95    0.67
   1   0  -8   30.96    0.72
  -1   0   8   30.33    0.70
  -1   0   8   29.54    0.65
   0   0  -8    1.64    0.21
   0   0  -8    1.82    0.25
   0   0  -8    1.33    0.15
   0   0   8    1.51    0.15
   0   0   8    1.56    0.19
  -1   0  -8   21.78    0.56
  -1   0  -8   21.54    0.51
  -1   0  -8   21.89    0.55
   1   0   8   21.87    0.43
   1   0   8   22.08    0.57
   1   0   8   22.49    0.52
  -2   0  -8   32.28    0.74
  -2   0  -8   32.86    0.69
  -2   0  -8   32.49    0.75
   2   0   8   31.97    0.70
   2   0   8   30.96    0.75
  -3   0  -8   55.82    1.16
  -3   0  -8   56.36    1.16
  -3   0  -8   55.84    1.10
   3   0   8   54.13    1.17
   3   0   8   55.49    1.11
  -4   0  -8    0.87    0.22
  -4   0  -8    0.98    0.17
  -4   0  -8    1.52    0.25
   4   0   8    1.19    0.28
   4   0   8    0.88    0.21
  -5   0  -8    6.30    0.45
  -5   0  -8    6.50    0.44
   5   0   8    6.02    0.52
  -6   0  -8    3.49    0.43
  -6   0  -8    3.16    0.39
   6   0   8    4.35    0.55
  -7   0  -8   12.45    0.63
  -7   0  -8   11.44    0.67
   7   0   8   12.37    0.75
  -6   1   8    1.00    0.34
   5  -1  -8    1.72    0.36
  -5   1   8    3.01    0.40
  -5   1   8    2.74    0.36
   4  -1  -8   -0.11    0.26
  -4   1   8    0.15    0.22
  -4   1   8    0.21    0.17
   3  -1  -8   27.40    0.69
   3  -1  -8   28.83    0.77
  -3   1   8   27.54    0.74
  -3   1   8   28.09    0.68
   2  -1  -8   25.81    0.61
   2  -1  -8   25.22    0.67
  -2   1   8   25.46    0.66
  -2   1   8   25.35    0.60
   1  -1  -8   -0.04    0.12
   1  -1  -8    0.03    0.15
  -1   1   8    0.08    0.12
  -1   1   8   -0.02    0.14
   0  -1  -8    0.11    0.14
   0  -1  -8   -0.15    0.12
   0  -1  -8   -0.10    0.10
   0   1   8   -0.06    0.14
   0   1   8   -0.01    0.11
  -1  -1  -8    0.18    0.13
  -1  -1  -8    0.28    0.14
  -1  -1  -8    0.08    0.10
   1   1   8    0.14    0.15
   1   1   8    0.32    0.12
  -2  -1  -8   -0.01    0.13
  -2  -1  -8    0.05    0.10
  -2  -1  -8   -0.04    0.14
   2   1   8   -0.12    0.17
   2   1   8    0.00    0.12
  -3  -1  -8   47.51    0.94
  -3  -1  -8   47.44    1.00
  -3  -1  -8   47.42    1.02
   3   1   8   46.00    0.97
   3   1   8   45.66    1.03
  -4  -1  -8   64.00    1.35
  -4  -1  -8   63.04    1.32
   4   1   8   63.76    1.38
   4   1   8   64.72    1.30
  -5  -1  -8   57.40    1.28
  -5  -1  -8   58.60    1.32
   5   1   8   59.13    1.26
   5   1   8   57.91    1.35
  -6  -1  -8    0.15    0.21
  -6  -1  -8    0.22    0.27
   6   1   8    0.39    0.35
  -7  -1  -8    0.18    0.32
   7   1   8    0.33    0.39
  -6   2   8    8.66    0.68
  -5   2   8    9.21    0.56
  -5   2   8    9.28    0.50
   4  -2  -8   12.21    0.56
  -4   2   8   13.15    0.56
  -4   2   8   13.67    0.50
   3  -2  -8    0.36    0.23
  -3   2   8    0.43    0.21
  -3   2   8    0.56    0.17
   2  -2  -8    6.21    0.35
  -2   2   8    6.02    0.35
  -2   2   8    6.34    0.30
   1  -2  -8   19.95    0.52
  -1   2   8   18.80    0.48
  -1   2   8   18.89    0.52
   0  -2  -8   10.32    0.36
   0  -2  -8    9.60    0.34
   0   2   8    9.69    0.32
   0   2   8    9.62    0.37
  -1  -2  -8   25.93    0.59
  -1  -2  -8   26.82    0.62
   1   2   8   25.76    0.58
   1   2   8   24.97    0.62
  -2  -2  -8    2.20    0.27
  -2  -2  -8    2.49    0.23
   2   2   8    2.24    0.25
   2   2   8    2.35    0.31
  -3  -2  -8    3.62    0.27
  -3  -2  -8    3.19    0.31
   3   2   8    3.18    0.38
   3   2   8    3.66    0.33
  -4  -2  -8   27.79    0.77
  -4  -2  -8   27.77    0.72
   4   2   8   27.92    0.73
  -5  -2  -8    2.77    0.33
  -5  -2  -8    2.96    0.36
   5   2   8    2.54    0.37
   5   2   8    2.26    0.30
  -6  -2  -8    2.06    0.35
   6   2   8    2.61    0.37
   6   2   8    2.81    0.44
  -7  -2  -8    7.06    0.62
   7   2   8    8.82    0.76
  -6   3   8    2.67    0.34
  -6   3   8    3.16    0.45
  -5   3   8    3.40    0.44
  -5   3   8    3.13    0.47
  -4   3   8    4.25    0.38
  -4   3   8    4.23    0.40
  -3   3   8    4.21    0.37
  -3   3   8    4.45    0.33
   2  -3  -8   13.98    0.45
  -2   3   8   13.50    0.43
  -2   3   8   13.21    0.48
   1  -3  -8   25.40    0.58
  -1   3   8   26.08    0.64
  -1   3   8   25.53    0.59
   0  -3  -8    3.66    0.21
   0  -3  -8    4.06    0.26
   0   3   8    3.43    0.28
   0   3   8    3.55    0.23
  -1  -3  -8    0.28    0.11
  -1  -3  -8    0.19    0.14
   1   3   8    0.12    0.12
   1   3   8    0.14    0.16
  -2  -3  -8   -0.01    0.11
  -2  -3  -8    0.01    0.16
   2   3   8   -0.10    0.14
   2   3   8   -0.26    0.18
  -3  -3  -8    0.10    0.13
  -3  -3  -8   -0.11    0.17
   3   3   8   -0.05    0.18
   3   3   8   -0.31    0.22
  -4  -3  -8   12.83    0.52
   4   3   8   13.56    0.61
   4   3   8   13.44    0.52
  -5  -3  -8   85.15    1.77
   5   3   8   85.90    1.81
   5   3   8   85.75    1.72
  -6  -3  -8    6.02    0.55
   6   3   8    6.03    0.68
   6   3   8    5.77    0.56
  -6   4   8   12.60    0.75
  -6   4   8   12.58    0.67
  -5   4   8    0.58    0.30
  -5   4   8    0.84    0.25
  -4   4   8    5.59    0.44
  -4   4   8    6.09    0.42
  -3   4   8   27.09    0.68
  -3   4   8   26.75    0.74
  -2   4   8    1.52    0.23
  -2   4   8    1.03    0.17
  -1   4   8    0.61    0.14
  -1   4   8    0.68    0.19
   0  -4  -8    9.59    0.36
   0   4   8    9.68    0.38
   0   4   8    9.32    0.33
  -1  -4  -8    0.52    0.16
   1   4   8    0.34    0.14
   1   4   8    0.57    0.19
  -2  -4  -8   28.15    0.69
   2   4   8   27.89    0.72
   2   4   8   29.41    0.67
  -3  -4  -8   24.74    0.68
   3   4   8   24.10    0.64
   3   4   8   24.20    0.71
  -4  -4  -8    3.41    0.38
   4   4   8    3.98    0.46
   4   4   8    3.76    0.41
  -5  -4  -8    7.51    0.50
   5   4   8    7.60    0.51
   5   4   8    8.07    0.64
  -6  -4  -8    4.19    0.54
   6   4   8    5.13    0.70
   6   4   8    3.52    0.40
  -5   5   8    1.10    0.27
  -5   5   8    1.06    0.33
  -4   5   8    5.33    0.47
  -4   5   8    5.01    0.41
  -3   5   8    3.56    0.32
  -3   5   8    3.80    0.37
  -2   5   8   12.25    0.47
  -2   5   8   12.62    0.42
  -1   5   8    0.05    0.17
  -1   5   8    0.07    0.13
   0  -5  -8    6.22    0.31
   0   5   8    5.84    0.33
   0   5   8    5.66    0.28
  -1  -5  -8    4.65    0.29
   1   5   8    4.93    0.28
   1   5   8    4.41    0.33
  -2  -5  -8   -0.11    0.16
   2   5   8   -0.12    0.19
   2   5   8   -0.09    0.15
  -3  -5  -8    1.68    0.25
   3   5   8    1.25    0.21
   3   5   8    1.75    0.29
  -4  -5  -8    1.11    0.26
   4   5   8    0.93    0.25
   4   5   8    1.02    0.30
  -5  -5  -8    0.57    0.27
   5   5   8    0.39    0.27
   5   5   8    0.48    0.34
  -6  -5  -8   41.92    1.16
   6   5   8   41.75    1.14
   6   5   8   41.81    1.26
  -5   6   8   11.02    0.68
  -5   6   8   10.60    0.61
  -4   6   8    3.06    0.40
  -4   6   8    3.36    0.39
  -3   6   8    0.16    0.22
  -3   6   8   -0.01    0.16
  -2   6   8   19.02    0.60
  -2   6   8   19.64    0.54
  -1   6   8    5.22    0.34
  -1   6   8    5.20    0.29
   0  -6  -8    0.55    0.17
   0   6   8    0.60    0.18
   0   6   8    0.44    0.14
  -1  -6  -8    2.36    0.27
   1   6   8    2.45    0.30
   1   6   8    2.22    0.25
  -2  -6  -8    1.22    0.21
   2   6   8    1.36    0.24
   2   6   8    1.03    0.19
  -3  -6  -8    8.16    0.42
   3   6   8    8.49    0.41
   3   6   8    8.35    0.50
  -4  -6  -8   16.78    0.62
   4   6   8   17.86    0.71
   4   6   8   17.11    0.61
  -5  -6  -8   10.54    0.58
   5   6   8   10.86    0.60
   5   6   8   11.60    0.73
  -4   7   8    0.29    0.29
  -4   7   8   -0.09    0.21
  -3   7   8    4.85    0.46
  -3   7   8    5.05    0.37
  -2   7   8    0.85    0.23
  -2   7   8    0.70    0.17
  -1   7   8    9.38    0.42
  -1   7   8    9.15    0.36
   0  -7  -8    1.94    0.26
   0   7   8    1.54    0.18
   0   7   8    2.32    0.30
  -1  -7  -8    0.16    0.16
   1   7   8    0.30    0.19
   1   7   8    0.05    0.15
  -2  -7  -8    3.76    0.31
   2   7   8    3.86    0.39
   2   7   8    3.66    0.32
  -3  -7  -8    0.19    0.20
   3   7   8    0.18    0.19
   3   7   8    0.64    0.26
  -4  -7  -8    2.10    0.31
   4   7   8    1.61    0.28
   4   7   8    3.64    0.54
  -5  -7  -8    0.97    0.32
   5   7   8    1.00    0.31
   5   7   8    1.74    0.41
  -3   8   8    7.92    0.54
  -3   8   8    6.66    0.42
  -2   8   8    3.08    0.31
  -2   8   8    3.92    0.42
   1  -8  -8    5.41    0.34
  -1   8   8    5.58    0.32
  -1   8   8    5.71    0.40
   0  -8  -8    4.82    0.31
   0   8   8    4.86    0.30
   0   8   8    5.46    0.37
  -1  -8  -8    2.12    0.28
   1   8   8    2.79    0.36
   1   8   8    1.79    0.20
  -2  -8  -8    0.49    0.21
   2   8   8    0.31    0.17
   2   8   8    0.76    0.23
  -3  -8  -8    4.06    0.41
   3   8   8    4.76    0.49
   3   8   8    3.61    0.37
  -4  -8  -8    0.61    0.28
   4   8   8    0.87    0.35
   4   8   8    0.12    0.24
  -2   9   8    5.46    0.46
   1  -9  -8    0.26    0.18
  -1   9   8    0.31    0.17
  -1   9   8    0.46    0.22
   0  -9  -8    2.83    0.29
   0   9   8    3.91    0.36
   0   9   8    2.90    0.31
  -1  -9  -8    2.37    0.30
   1   9   8    3.62    0.38
   1   9   8    2.93    0.33
  -2  -9  -8    0.72    0.22
   2   9   8    0.49    0.19
   0   9  -9   10.06    0.49
   0   9  -9    8.93    0.53
   0  -9   9   11.13    0.77
   3   8  -9    0.14    0.33
  -3  -8   9    0.49    0.36
   2   8  -9    0.20    0.25
   2   8  -9    0.29    0.30
  -2  -8   9    0.51    0.34
   1   8  -9    1.50    0.31
   1   8  -9    1.38    0.26
  -1  -8   9    1.64    0.39
   0   8  -9    0.47    0.26
   0   8  -9    0.39    0.21
   0  -8   9    1.04    0.36
  -1   8  -9    4.67    0.37
  -1   8  -9    4.18    0.41
   1  -8   9    4.12    0.46
  -2   8  -9    0.73    0.26
  -2   8  -9    0.59    0.21
  -3   8  -9    0.07    0.26
  -3   8  -9   -0.04    0.20
   4   7  -9    1.93    0.45
  -4  -7   9    2.67    0.47
   3   7  -9    1.96    0.39
  -3  -7   9    2.29    0.43
   2   7  -9    0.20    0.24
   2   7  -9    0.08    0.28
  -2  -7   9    0.31    0.28
   1   7  -9    1.84    0.25
   1   7  -9    2.26    0.32
  -1  -7   9    2.81    0.38
   0   7  -9    0.10    0.23
   0   7  -9   -0.01    0.17
   0  -7   9    0.38    0.29
  -1   7  -9   17.40    0.55
  -1   7  -9   17.17    0.61
   1  -7   9   17.54    0.73
  -2   7  -9    7.42    0.40
  -2   7  -9    7.66    0.47
   2  -7   9    7.61    0.59
  -3   7  -9    5.54    0.39
  -3   7  -9    5.21    0.47
  -4   7  -9   -0.14    0.20
  -4   7  -9    0.16    0.28
   5   6  -9    0.18    0.43
  -5  -6   9    0.77    0.39
   4   6  -9   -0.29    0.36
  -4  -6   9    0.26    0.34
   3   6  -9   17.47    0.74
  -3  -6   9   16.40    0.76
   2   6  -9    4.70    0.48
   2   6  -9    4.30    0.42
  -2  -6   9    4.68    0.50
   1   6  -9   -0.08    0.22
   1   6  -9   -0.01    0.19
  -1  -6   9   -0.23    0.23
   0   6  -9    6.36    0.35
   0   6  -9    6.02    0.42
   0  -6   9    6.16    0.47
  -1   6  -9    1.64    0.22
  -1   6  -9    1.75    0.28
   1  -6   9    1.60    0.30
  -2   6  -9    6.33    0.42
  -2   6  -9    6.31    0.37
   2  -6   9    6.61    0.53
  -3   6  -9    4.17    0.35
  -3   6  -9    4.01    0.41
  -4   6  -9    0.70    0.28
  -4   6  -9    0.39    0.22
  -5   6  -9   11.66    0.67
  -5   6  -9   11.13    0.58
   5   5  -9    6.20    0.75
   5   5  -9    4.43    0.56
   4   5  -9    4.25    0.60
  -4  -5   9    4.54    0.57
   3   5  -9    1.46    0.35
  -3  -5   9    1.48    0.33
   2   5  -9   10.30    0.49
   2   5  -9   10.21    0.55
  -2  -5   9    9.95    0.57
   1   5  -9   -0.03    0.17
   1   5  -9    0.04    0.23
  -1  -5   9   -0.17    0.20
   0   5  -9    7.21    0.36
   0   5  -9    7.23    0.42
   0  -5   9    6.57    0.43
  -1   5  -9   10.71    0.42
  -1   5  -9   10.44    0.48
   1  -5   9   10.41    0.50
  -2   5  -9    6.68    0.41
  -2   5  -9    6.56    0.36
   2  -5   9    6.21    0.44
  -3   5  -9    9.61    0.49
  -3   5  -9    9.99    0.44
  -4   5  -9    8.72    0.52
  -4   5  -9    8.79    0.45
  -5   5  -9    0.31    0.29
  -5   5  -9    0.04    0.21
   5   4  -9   -0.24    0.38
   5   4  -9    0.43    0.40
   4   4  -9    8.21    0.64
   3   4  -9    9.24    0.59
   2   4  -9   12.19    0.57
   2   4  -9   12.00    0.51
  -2  -4   9   12.08    0.55
   1   4  -9    5.70    0.42
   1   4  -9    5.96    0.38
  -1  -4   9    5.42    0.40
   0   4  -9    2.66    0.36
   0   4  -9    2.23    0.29
   0  -4   9    2.25    0.32
  -1   4  -9    5.50    0.39
  -1   4  -9    5.28    0.33
   1  -4   9    5.41    0.37
  -2   4  -9   22.98    0.62
  -2   4  -9   23.35    0.68
   2  -4   9   23.47    0.67
  -3   4  -9    1.87    0.28
  -3   4  -9    1.84    0.22
  -4   4  -9    6.19    0.39
  -4   4  -9    5.85    0.46
  -5   4  -9    5.00    0.50
  -5   4  -9    5.75    0.43
  -6   4  -9    9.20    0.65
  -6   4  -9    8.98    0.53
   6   3  -9   -0.81    0.39
   5   3  -9    0.67    0.39
   4   3  -9    2.79    0.41
   3   3  -9   32.81    0.94
   2   3  -9    2.16    0.26
   2   3  -9    2.16    0.32
  -2  -3   9    2.72    0.28
   1   3  -9   13.32    0.46
   1   3  -9   13.35    0.53
   1   3  -9   13.07    0.43
  -1  -3   9   13.38    0.49
  -1  -3   9   13.38    0.42
   0   3  -9    0.70    0.22
   0   3  -9    0.33    0.15
   0   3  -9    0.41    0.15
   0  -3   9    0.41    0.15
   0  -3   9    0.36    0.16
  -1   3  -9   12.66    0.48
  -1   3  -9   12.70    0.42
  -1   3  -9   11.99    0.41
   1  -3   9   11.67    0.41
   1  -3   9   12.63    0.43
  -2   3  -9   49.98    1.06
  -2   3  -9   51.42    1.04
  -2   3  -9   51.48    1.11
   2  -3   9   50.60    1.04
   2  -3   9   50.37    1.04
  -3   3  -9    2.94    0.36
  -3   3  -9    3.73    0.32
  -3   3  -9    3.19    0.30
   3  -3   9    3.54    0.37
  -4   3  -9    2.04    0.30
  -4   3  -9    1.74    0.24
  -5   3  -9    2.92    0.36
  -5   3  -9    2.91    0.44
  -6   3  -9    0.57    0.31
  -6   3  -9    0.57    0.23
   6   2  -9    0.06    0.42
   5   2  -9   -0.38    0.33
   4   2  -9    0.37    0.32
  -4  -2   9    0.76    0.22
   3   2  -9   18.22    0.69
  -3  -2   9   18.33    0.58
   2   2  -9   43.24    0.94
   2   2  -9   42.84    1.01
  -2  -2   9   41.35    0.92
   1   2  -9    3.07    0.34
   1   2  -9    2.59    0.27
   1   2  -9    2.99    0.31
  -1  -2   9    2.82    0.21
  -1  -2   9    2.84    0.27
   0   2  -9    1.21    0.19
   0   2  -9    1.12    0.16
   0   2  -9    1.40    0.23
   0  -2   9    1.47    0.20
   0  -2   9    1.04    0.16
   0  -2   9    1.81    0.21
  -1   2  -9   11.43    0.40
  -1   2  -9   11.45    0.39
  -1   2  -9   11.47    0.44
   1  -2   9   11.03    0.41
   1  -2   9   10.93    0.35
   1  -2   9   11.16    0.36
  -2   2  -9    0.14    0.15
  -2   2  -9    0.28    0.16
  -2   2  -9    0.15    0.18
   2  -2   9    0.09    0.19
   2  -2   9    0.21    0.13
   2  -2   9    0.25    0.18
  -3   2  -9   45.29    0.97
  -3   2  -9   44.33    1.00
  -3   2  -9   46.62    1.05
   3  -2   9   44.56    1.01
  -4   2  -9    0.43    0.18
  -4   2  -9    0.39    0.22
  -4   2  -9    0.89    0.23
   4  -2   9    0.62    0.26
  -5   2  -9    2.50    0.32
  -5   2  -9    2.66    0.35
  -5   2  -9    2.43    0.27
   5  -2   9    2.54    0.49
  -6   2  -9   12.20    0.65
   6   1  -9   -0.39    0.38
   5   1  -9   -0.35    0.32
  -5  -1   9    0.16    0.24
   4   1  -9    4.23    0.53
  -4  -1   9    4.13    0.42
   3   1  -9    1.72    0.32
   3   1  -9    1.57    0.27
  -3  -1   9    1.53    0.25
  -3  -1   9    2.20    0.27
   2   1  -9   50.12    1.11
   2   1  -9   49.67    1.03
  -2  -1   9   48.12    0.98
  -2  -1   9   47.73    1.04
   1   1  -9   26.91    0.63
   1   1  -9   25.90    0.68
  -1  -1   9   25.24    0.64
  -1  -1   9   25.40    0.58
   0   1  -9    4.12    0.32
   0   1  -9    3.62    0.28
   0   1  -9    3.90    0.27
   0  -1   9    3.66    0.29
   0  -1   9    3.77    0.23
   0  -1   9    3.82    0.23
  -1   1  -9    3.58    0.28
  -1   1  -9    3.68    0.26
  -1   1  -9    3.60    0.31
   1  -1   9    3.62    0.24
   1  -1   9    3.53    0.30
   1  -1   9    3.64    0.19
  -2   1  -9    1.99    0.20
  -2   1  -9    2.05    0.23
  -2   1  -9    1.79    0.24
   2  -1   9    1.86    0.25
   2  -1   9    1.95    0.26
  -3   1  -9   72.70    1.45
  -3   1  -9   70.61    1.37
  -3   1  -9   71.27    1.43
   3  -1   9   70.07    1.43
   3  -1   9   69.51    1.36
  -4   1  -9   30.61    0.75
  -4   1  -9   30.64    0.83
  -4   1  -9   30.63    0.83
   4  -1   9   30.77    0.85
  -5   1  -9    0.38    0.23
  -5   1  -9    0.40    0.18
  -5   1  -9    0.35    0.24
   5  -1   9    0.59    0.30
  -6   1  -9    0.05    0.25
  -6   1  -9   -0.06    0.26
   6  -1   9    0.34    0.31
   6   0  -9   -0.79    0.35
  -6   0   9    0.51    0.31
   5   0  -9   -0.10    0.32
  -5   0   9    0.23    0.25
   4   0  -9    0.65    0.29
  -4   0   9    0.98    0.26
  -4   0   9    0.86    0.19
   3   0  -9   11.71    0.56
   3   0  -9   11.72    0.48
  -3   0   9   11.40    0.49
  -3   0   9   11.91    0.42
   2   0  -9   10.73    0.48
   2   0  -9   10.87    0.43
  -2   0   9   10.38    0.44
  -2   0   9   10.45    0.38
   1   0  -9   71.94    1.40
   1   0  -9   72.49    1.34
  -1   0   9   70.28    1.38
  -1   0   9   69.29    1.32
   0   0  -9    0.20    0.17
   0   0  -9    0.10    0.13
   0   0  -9    0.20    0.14
   0   0   9    0.15    0.16
   0   0   9    0.16    0.12
  -1   0  -9    0.12    0.15
  -1   0  -9    0.06    0.12
  -1   0  -9    0.04    0.16
   1   0   9    0.03    0.07
   1   0   9    0.03    0.16
   1   0   9    0.12    0.12
  -2   0  -9   15.80    0.45
  -2   0  -9   16.45    0.51
  -2   0  -9   16.34    0.50
   2   0   9   16.18    0.47
   2   0   9   15.66    0.53
  -3   0  -9   14.94    0.52
  -3   0  -9   14.68    0.46
  -3   0  -9   15.04    0.52
   3   0   9   14.19    0.56
   3   0   9   14.69    0.49
  -4   0  -9   26.48    0.74
  -4   0  -9   26.33    0.74
  -4   0  -9   25.48    0.66
   4   0   9   25.99    0.78
   4   0   9   25.46    0.70
  -5   0  -9    2.49    0.33
  -5   0  -9    2.53    0.38
   5   0   9    2.08    0.36
  -6   0  -9    0.05    0.23
  -6   0  -9    0.11    0.26
   6   0   9    0.22    0.33
  -7   0  -9   12.11    0.70
  -7   0  -9   13.04    0.74
   7   0   9   12.04    0.76
  -6   1   9    5.49    0.63
   5  -1  -9    0.54    0.33
  -5   1   9    1.59    0.32
   4  -1  -9    0.01    0.26
  -4   1   9    0.31    0.24
  -4   1   9    0.37    0.18
   3  -1  -9    9.20    0.50
  -3   1   9    8.18    0.45
  -3   1   9    8.82    0.39
   2  -1  -9   32.06    0.79
   2  -1  -9   31.28    0.73
  -2   1   9   31.27    0.72
  -2   1   9   31.23    0.78
   1  -1  -9   16.17    0.51
   1  -1  -9   15.45    0.44
  -1   1   9   15.47    0.50
  -1   1   9   15.14    0.44
   0  -1  -9   31.13    0.72
   0  -1  -9   31.46    0.72
   0  -1  -9   31.26    0.67
   0   1   9   30.03    0.67
   0   1   9   30.05    0.72
  -1  -1  -9   -0.03    0.11
  -1  -1  -9    0.02    0.15
  -1  -1  -9   -0.03    0.14
   1   1   9   -0.09    0.12
   1   1   9    0.09    0.05
   1   1   9   -0.09    0.16
  -2  -1  -9    7.35    0.35
  -2  -1  -9    7.31    0.37
  -2  -1  -9    7.25    0.30
   2   1   9    6.96    0.33
   2   1   9    6.76    0.39
  -3  -1  -9   11.62    0.45
  -3  -1  -9   11.33    0.47
  -3  -1  -9   11.35    0.39
   3   1   9   11.22    0.52
   3   1   9   11.86    0.46
  -4  -1  -9   22.73    0.71
  -4  -1  -9   22.89    0.67
   4   1   9   24.49    0.76
   4   1   9   23.80    0.68
  -5  -1  -9   35.98    0.94
  -5  -1  -9   35.50    0.98
   5   1   9   35.72    1.02
   5   1   9   36.44    0.93
  -6  -1  -9    1.18    0.32
  -6  -1  -9    1.35    0.29
   6   1   9    1.67    0.40
  -7  -1  -9    0.54    0.33
   7   1   9    0.88    0.41
  -6   2   9    9.61    0.72
  -5   2   9    0.37    0.29
  -5   2   9    0.46    0.23
   4  -2  -9   -0.17    0.25
  -4   2   9    0.37    0.25
  -4   2   9    0.42    0.20
   3  -2  -9   -0.09    0.20
  -3   2   9    0.15    0.17
  -3   2   9    0.03    0.21
   2  -2  -9   37.16    0.85
  -2   2   9   36.81    0.81
  -2   2   9   35.96    0.87
   1  -2  -9    0.57    0.18
  -1   2   9    0.32    0.18
  -1   2   9    0.59    0.16
   0  -2  -9   40.90    0.88
   0  -2  -9   41.27    0.86
   0   2   9   39.40    0.88
   0   2   9   40.55    0.83
  -1  -2  -9   -0.01    0.14
  -1  -2  -9    0.14    0.14
   1   2   9    0.02    0.16
   1   2   9   -0.04    0.13
  -2  -2  -9    0.57    0.19
  -2  -2  -9    0.54    0.16
   2   2   9    0.35    0.21
   2   2   9    0.55    0.17
  -3  -2  -9   13.44    0.46
  -3  -2  -9   13.24    0.50
   3   2   9   13.59    0.50
   3   2   9   13.21    0.56
  -4  -2  -9   31.67    0.80
  -4  -2  -9   30.17    0.84
   4   2   9   31.30    0.89
   4   2   9   32.65    0.81
  -5  -2  -9    4.23    0.46
   5   2   9    3.77    0.47
   5   2   9    4.30    0.54
  -6  -2  -9    0.56    0.30
   6   2   9    0.26    0.30
   6   2   9    0.85    0.39
  -6   3   9    6.44    0.69
  -6   3   9    7.54    0.58
  -5   3   9    0.26    0.24
  -5   3   9    0.15    0.28
  -4   3   9    1.08    0.23
  -4   3   9    0.86    0.27
  -3   3   9    0.14    0.17
  -3   3   9   -0.03    0.20
   2  -3  -9    7.96    0.38
  -2   3   9    8.03    0.36
  -2   3   9    8.10    0.41
   1  -3  -9   64.65    1.21
  -1   3   9   62.45    1.21
  -1   3   9   62.76    1.27
   0  -3  -9    0.19    0.12
   0  -3  -9    0.05    0.15
   0   3   9    0.02    0.13
   0   3   9    0.09    0.18
  -1  -3  -9    8.53    0.36
  -1  -3  -9    8.48    0.32
   1   3   9    7.93    0.39
   1   3   9    8.67    0.35
  -2  -3  -9    1.56    0.23
  -2  -3  -9    1.44    0.18
   2   3   9    1.42    0.25
   2   3   9    1.11    0.19
  -3  -3  -9    2.76    0.30
  -3  -3  -9    2.49    0.32
   3   3   9    2.83    0.33
   3   3   9    2.67    0.34
  -4  -3  -9   34.95    0.91
   4   3   9   36.05    0.89
   4   3   9   36.10    0.97
  -5  -3  -9   -0.04    0.25
   5   3   9    0.12    0.33
   5   3   9   -0.05    0.24
  -6  -3  -9   14.68    0.71
   6   3   9   14.97    0.71
   6   3   9   15.34    0.84
  -5   4   9    7.28    0.61
  -5   4   9    7.57    0.55
  -4   4   9    1.00    0.24
  -4   4   9    0.69    0.27
  -3   4   9    2.32    0.30
  -3   4   9    2.34    0.24
  -2   4   9    1.09    0.18
  -2   4   9    1.18    0.24
  -1   4   9   30.47    0.70
  -1   4   9   31.94    0.77
   0  -4  -9   15.97    0.49
   0   4   9   15.53    0.51
   0   4   9   15.74    0.45
  -1  -4  -9    4.81    0.31
   1   4   9    4.41    0.35
   1   4   9    4.83    0.30
  -2  -4  -9    0.49    0.19
   2   4   9    0.61    0.19
   2   4   9    0.50    0.23
  -3  -4  -9    1.89    0.26
   3   4   9    1.53    0.23
   3   4   9    2.39    0.32
  -4  -4  -9    4.93    0.41
   4   4   9    4.99    0.43
   4   4   9    4.93    0.49
  -5  -4  -9   24.51    0.82
   5   4   9   25.97    0.92
   5   4   9   24.72    0.79
  -6  -4  -9    0.17    0.30
   6   4   9    0.30    0.31
   6   4   9    0.34    0.40
  -5   5   9    9.19    0.59
  -5   5   9    8.93    0.64
  -4   5   9    3.59    0.47
  -4   5   9    3.03    0.31
  -3   5   9    0.59    0.19
  -3   5   9    0.65    0.25
  -2   5   9    1.08    0.19
  -2   5   9    0.89    0.23
  -1   5   9    0.51    0.19
  -1   5   9    0.45    0.16
   0  -5  -9   40.86    0.89
   0   5   9   39.87    0.84
   0   5   9   40.81    0.91
  -1  -5  -9    3.72    0.29
   1   5   9    4.05    0.29
   1   5   9    3.75    0.34
  -2  -5  -9    0.84    0.21
   2   5   9    0.71    0.19
   2   5   9    0.86    0.23
  -3  -5  -9    1.68    0.25
   3   5   9    2.00    0.31
   3   5   9    1.85    0.24
  -4  -5  -9    0.16    0.23
   4   5   9   -0.08    0.28
   4   5   9    0.27    0.23
  -5  -5  -9   22.07    0.78
   5   5   9   24.05    0.90
   5   5   9   22.95    0.79
  -6  -5  -9    9.20    0.65
   6   5   9    8.45    0.66
   6   5   9   10.07    0.82
  -4   6   9    2.82    0.31
  -4   6   9    3.31    0.40
  -3   6   9    0.97    0.27
  -3   6   9    0.90    0.21
  -2   6   9    3.52    0.38
  -2   6   9    3.65    0.31
  -1   6   9    3.83    0.35
  -1   6   9    3.81    0.29
   0  -6  -9    9.06    0.39
   0   6   9    8.63    0.42
   0   6   9    8.85    0.35
  -1  -6  -9   17.31    0.52
   1   6   9   16.63    0.55
   1   6   9   16.59    0.48
  -2  -6  -9    0.21    0.19
   2   6   9    0.03    0.17
   2   6   9    0.27    0.22
  -3  -6  -9    0.90    0.24
   3   6   9    1.18    0.29
   3   6   9    0.79    0.22
  -4  -6  -9    4.48    0.44
   4   6   9    4.67    0.44
   4   6   9    5.06    0.56
  -5  -6  -9    0.13    0.28
   5   6   9    0.62    0.38
   5   6   9    0.13    0.29
  -4   7   9    4.24    0.47
  -4   7   9    4.11    0.55
  -3   7   9    4.32    0.50
  -3   7   9    4.04    0.38
  -2   7   9    0.41    0.24
  -2   7   9    0.35    0.16
  -1   7   9    4.20    0.38
  -1   7   9    4.21    0.30
   0  -7  -9    3.13    0.31
   0   7   9    3.77    0.36
   0   7   9    3.09    0.27
  -1  -7  -9   11.01    0.43
   1   7   9   10.49    0.40
   1   7   9   11.02    0.48
  -2  -7  -9    3.80    0.35
   2   7   9    3.59    0.33
   2   7   9    3.99    0.41
  -3  -7  -9    0.00    0.21
   3   7   9    0.30    0.20
   3   7   9    0.54    0.28
  -4  -7  -9    1.49    0.31
   4   7   9    1.05    0.26
   4   7   9    1.60    0.38
  -3   8   9    0.20    0.28
  -3   8   9    0.38    0.21
  -2   8   9    0.30    0.18
  -2   8   9    0.42    0.25
   1  -8  -9    2.84    0.33
  -1   8   9    2.49    0.29
  -1   8   9    3.76    0.41
   0  -8  -9    6.60    0.37
   0   8   9    5.80    0.33
   0   8   9    6.57    0.42
  -1  -8  -9    0.18    0.19
   1   8   9    0.36    0.17
   1   8   9    0.51    0.23
  -2  -8  -9    5.30    0.39
   2   8   9    4.08    0.36
   2   8   9    6.16    0.47
  -3  -8  -9    1.22    0.27
   3   8   9    1.25    0.24
   3   8   9    1.85    0.34
   1  -9  -9    0.22    0.20
  -1   9   9    0.13    0.18
  -1   9   9    0.36    0.23
   0  -9  -9    3.66    0.34
   0   9   9    4.66    0.41
   0   9   9    3.50    0.34
  -1  -9  -9    7.82    0.41
   1   9   9    8.74    0.48
   1   9   9    7.48    0.41
  -2  -9  -9    0.98    0.24
   2   9   9    0.67    0.21
   2   8 -10    2.33    0.33
   2   8 -10    2.15    0.39
  -2  -8  10    2.89    0.46
   1   8 -10    0.32    0.24
   1   8 -10    0.72    0.30
  -1  -8  10    1.46    0.39
   0   8 -10    1.28    0.25
   0   8 -10    1.30    0.30
   0  -8  10    1.91    0.43
  -1   8 -10    0.01    0.21
  -1   8 -10    0.03    0.25
   1  -8  10    0.01    0.34
  -2   8 -10    0.39    0.26
  -2   8 -10    0.29    0.22
   3   7 -10    0.56    0.37
   3   7 -10    0.39    0.30
  -3  -7  10    1.25    0.38
   2   7 -10    0.76    0.33
   2   7 -10    0.50    0.26
  -2  -7  10    1.09    0.33
   1   7 -10    2.76    0.30
   1   7 -10    3.53    0.38
  -1  -7  10    3.44    0.41
   0   7 -10   -0.04    0.25
   0   7 -10   -0.26    0.19
   0  -7  10    0.12    0.30
  -1   7 -10    2.39    0.27
  -1   7 -10    2.60    0.33
   1  -7  10    2.26    0.38
  -2   7 -10    0.46    0.20
  -2   7 -10    0.46    0.26
   2  -7  10    0.05    0.31
  -3   7 -10    1.29    0.26
  -3   7 -10    1.67    0.33
   4   6 -10    5.03    0.67
  -4  -6  10    5.09    0.65
   3   6 -10   17.34    0.77
  -3  -6  10   17.73    0.83
   2   6 -10    1.10    0.27
   2   6 -10    1.60    0.34
  -2  -6  10    1.83    0.36
   1   6 -10    2.01    0.26
   1   6 -10    2.07    0.32
  -1  -6  10    1.86    0.33
   0   6 -10    1.76    0.30
   0   6 -10    1.39    0.22
   0  -6  10    1.64    0.31
  -1   6 -10    6.21    0.44
  -1   6 -10    6.20    0.38
   1  -6  10    5.63    0.49
  -2   6 -10    0.01    0.22
  -2   6 -10    0.07    0.18
   2  -6  10   -0.19    0.26
  -3   6 -10    3.84    0.37
  -3   6 -10    3.85    0.43
  -4   6 -10    0.16    0.22
  -4   6 -10    0.15    0.28
   5   5 -10   11.38    0.80
  -5  -5  10   12.21    0.80
   4   5 -10    8.11    0.67
  -4  -5  10    7.54    0.68
   3   5 -10    2.75    0.41
  -3  -5  10    3.00    0.38
   2   5 -10    0.96    0.26
   2   5 -10    1.25    0.32
  -2  -5  10    1.33    0.32
   1   5 -10    0.70    0.26
   1   5 -10    0.61    0.22
  -1  -5  10    0.39    0.25
   0   5 -10    5.05    0.34
   0   5 -10    5.57    0.44
   0  -5  10    4.78    0.42
  -1   5 -10    0.32    0.23
  -1   5 -10    0.28    0.18
   1  -5  10    0.36    0.23
  -2   5 -10    1.89    0.24
  -2   5 -10    2.02    0.29
   2  -5  10    2.00    0.29
  -3   5 -10    3.96    0.42
  -3   5 -10    4.00    0.36
  -4   5 -10   11.41    0.52
  -4   5 -10   11.46    0.61
  -5   5 -10    3.85    0.44
  -5   5 -10    3.86    0.54
   5   4 -10    0.00    0.40
   4   4 -10   -0.07    0.33
   3   4 -10    4.27    0.52
  -3  -4  10    4.49    0.50
   2   4 -10   49.84    1.19
   2   4 -10   51.15    1.11
  -2  -4  10   47.84    1.18
   1   4 -10   30.97    0.83
   1   4 -10   31.72    0.77
  -1  -4  10   29.58    0.83
   0   4 -10   -0.04    0.16
   0   4 -10    0.13    0.23
   0  -4  10   -0.15    0.17
  -1   4 -10    2.61    0.36
  -1   4 -10    3.03    0.31
   1  -4  10    2.70    0.33
  -2   4 -10   11.09    0.44
  -2   4 -10   10.68    0.49
   2  -4  10   10.47    0.47
  -3   4 -10    0.09    0.21
  -3   4 -10    0.05    0.18
  -4   4 -10   10.84    0.50
  -4   4 -10   11.50    0.57
  -5   4 -10    1.80    0.28
  -5   4 -10    1.78    0.35
   5   3 -10    0.53    0.40
   4   3 -10   31.24    0.99
   3   3 -10    3.28    0.49
   3   3 -10    3.43    0.35
   2   3 -10    1.03    0.23
   2   3 -10    1.70    0.32
  -2  -3  10    2.31    0.30
   1   3 -10    2.88    0.39
   1   3 -10    3.02    0.35
   1   3 -10    2.52    0.28
  -1  -3  10    3.16    0.29
  -1  -3  10    2.55    0.35
   0   3 -10    0.96    0.19
   0   3 -10    1.32    0.27
   0   3 -10    0.91    0.19
   0  -3  10    1.02    0.20
   0  -3  10    1.23    0.20
  -1   3 -10    3.56    0.30
  -1   3 -10    3.98    0.32
  -1   3 -10    3.77    0.37
   1  -3  10    4.33    0.32
   1  -3  10    3.94    0.30
  -2   3 -10    2.09    0.24
  -2   3 -10    2.36    0.24
  -2   3 -10    2.31    0.29
   2  -3  10    2.08    0.29
   2  -3  10    2.19    0.32
  -3   3 -10    0.10    0.23
  -3   3 -10   -0.09    0.15
  -3   3 -10    0.11    0.21
  -4   3 -10    2.91    0.34
  -4   3 -10    3.46    0.42
  -5   3 -10   19.90    0.67
  -5   3 -10   19.85    0.76
  -6   3 -10    0.54    0.32
  -6   3 -10    0.66    0.23
   6   2 -10    1.87    0.50
   5   2 -10   -0.22    0.35
   4   2 -10    0.45    0.33
  -4  -2  10    1.08    0.25
   3   2 -10    1.21    0.25
   3   2 -10    1.15    0.31
  -3  -2  10    1.62    0.25
   2   2 -10    1.17    0.24
   2   2 -10    1.59    0.30
  -2  -2  10    1.44    0.23
   1   2 -10   32.63    0.78
   1   2 -10   32.33    0.83
   1   2 -10   33.01    0.77
  -1  -2  10   31.87    0.77
   0   2 -10   67.95    1.37
   0   2 -10   70.52    1.34
   0   2 -10   68.50    1.30
   0  -2  10   66.07    1.29
   0  -2  10   62.91    1.32
   0  -2  10   66.94    1.32
  -1   2 -10    3.20    0.30
  -1   2 -10    3.71    0.31
  -1   2 -10    3.94    0.36
   1  -2  10    3.45    0.26
   1  -2  10    3.57    0.33
  -2   2 -10    6.63    0.41
  -2   2 -10    6.55    0.38
  -2   2 -10    6.82    0.36
   2  -2  10    6.28    0.40
   2  -2  10    6.33    0.29
  -3   2 -10    4.79    0.36
  -3   2 -10    4.74    0.34
  -3   2 -10    5.21    0.40
   3  -2  10    4.94    0.40
  -4   2 -10    0.13    0.17
  -4   2 -10    0.11    0.19
  -4   2 -10    0.16    0.22
   4  -2  10    0.25    0.25
  -5   2 -10    9.72    0.47
  -5   2 -10   10.18    0.57
  -5   2 -10    9.45    0.66
  -6   2 -10    5.36    0.56
   6   1 -10   -0.33    0.39
   5   1 -10    1.26    0.40
   4   1 -10    8.55    0.60
   4   1 -10    7.58    0.52
  -4  -1  10    9.78    0.52
   3   1 -10   40.03    1.03
   3   1 -10   38.81    0.94
  -3  -1  10   39.41    0.97
   2   1 -10    0.93    0.21
   2   1 -10    0.77    0.27
  -2  -1  10    1.42    0.18
  -2  -1  10    1.05    0.23
   1   1 -10    1.11    0.25
   1   1 -10    1.13    0.20
   1   1 -10    1.38    0.21
  -1  -1  10    1.07    0.16
  -1  -1  10    1.18    0.22
   0   1 -10    5.96    0.34
   0   1 -10    6.21    0.39
   0   1 -10    5.91    0.33
   0  -1  10    5.92    0.29
   0  -1  10    6.09    0.36
   0  -1  10    6.48    0.29
  -1   1 -10    1.20    0.18
  -1   1 -10    1.34    0.22
  -1   1 -10    1.82    0.25
   1  -1  10    1.32    0.18
   1  -1  10    1.31    0.17
   1  -1  10    1.16    0.22
  -2   1 -10    2.31    0.27
  -2   1 -10    2.60    0.33
  -2   1 -10    2.29    0.25
   2  -1  10    2.35    0.35
   2  -1  10    2.81    0.29
  -3   1 -10    4.78    0.39
  -3   1 -10    4.48    0.32
  -3   1 -10    4.75    0.38
   3  -1  10    4.97    0.37
   3  -1  10    4.53    0.43
  -4   1 -10    3.40    0.32
  -4   1 -10    3.77    0.39
  -4   1 -10    3.69    0.38
   4  -1  10    3.61    0.45
  -5   1 -10    0.17    0.24
  -5   1 -10    0.08    0.23
   5  -1  10    0.38    0.30
  -6   1 -10   13.97    0.67
  -6   1 -10   14.01    0.66
   6   0 -10   -0.18    0.38
  -6   0  10    0.98    0.33
   5   0 -10    0.39    0.36
  -5   0  10    1.38    0.32
   4   0 -10   -0.14    0.28
  -4   0  10    0.31    0.24
   3   0 -10   -0.22    0.18
   3   0 -10    0.14    0.26
  -3   0  10    0.21    0.16
  -3   0  10    0.15    0.21
   2   0 -10   10.73    0.46
   2   0 -10   10.76    0.50
  -2   0  10   10.72    0.49
  -2   0  10   11.16    0.42
   1   0 -10   41.37    0.94
   1   0 -10   42.02    0.88
  -1   0  10   39.27    0.91
  -1   0  10   39.58    0.85
   0   0 -10    0.15    0.16
   0   0 -10   -0.08    0.17
   0   0 -10    0.10    0.14
   0   0  10   -0.06    0.12
   0   0  10    0.00    0.17
  -1   0 -10   38.48    0.81
  -1   0 -10   37.91    0.86
  -1   0 -10   38.05    0.87
   1   0  10   37.76    0.81
   1   0  10   36.79    0.87
   1   0  10   36.07    0.70
  -2   0 -10    8.40    0.41
  -2   0 -10    8.18    0.35
  -2   0 -10    8.13    0.41
   2   0  10    8.54    0.38
   2   0  10    7.22    0.43
  -3   0 -10    9.47    0.46
  -3   0 -10    9.33    0.39
  -3   0 -10    9.61    0.45
   3   0  10    9.64    0.52
   3   0  10    9.64    0.44
  -4   0 -10    0.33    0.22
  -4   0 -10    0.01    0.20
  -4   0 -10    0.12    0.16
   4   0  10    0.14    0.27
   4   0  10    0.28    0.21
  -5   0 -10    2.45    0.34
  -5   0 -10    2.52    0.33
   5   0  10    2.56    0.38
  -6   0 -10    2.85    0.37
  -6   0 -10    3.11    0.41
   6   0  10    2.65    0.43
  -6   1  10   10.70    0.73
   5  -1 -10   -0.08    0.32
  -5   1  10    1.01    0.32
   4  -1 -10   -0.46    0.26
  -4   1  10    0.38    0.19
  -4   1  10    0.07    0.24
   3  -1 -10   29.03    0.82
  -3   1  10   28.55    0.80
  -3   1  10   27.73    0.71
   2  -1 -10   16.28    0.57
   2  -1 -10   15.25    0.50
  -2   1  10   15.09    0.49
  -2   1  10   14.83    0.55
   1  -1 -10   12.17    0.49
   1  -1 -10   11.45    0.41
  -1   1  10   11.38    0.46
   0  -1 -10    2.04    0.19
   0  -1 -10    2.08    0.27
   0  -1 -10    2.38    0.30
   0   1  10    2.19    0.25
   0   1  10    2.17    0.25
  -1  -1 -10    7.91    0.37
  -1  -1 -10    8.46    0.38
  -1  -1 -10    7.92    0.32
   1   1  10    7.52    0.19
   1   1  10    7.55    0.35
   1   1  10    7.86    0.41
  -2  -1 -10   -0.04    0.16
  -2  -1 -10   -0.02    0.17
  -2  -1 -10    0.03    0.13
   2   1  10   -0.21    0.21
   2   1  10    0.04    0.16
  -3  -1 -10    0.43    0.20
  -3  -1 -10    0.29    0.19
   3   1  10    0.30    0.25
   3   1  10    0.39    0.21
  -4  -1 -10    4.70    0.42
  -4  -1 -10    5.06    0.38
   4   1  10    5.42    0.41
   4   1  10    5.47    0.50
  -5  -1 -10    7.99    0.52
  -5  -1 -10    7.79    0.48
   5   1  10    7.89    0.61
   5   1  10    7.21    0.53
  -6  -1 -10    2.89    0.39
   6   1  10    4.45    0.66
  -6   2  10    7.97    0.72
  -5   2  10    4.43    0.56
  -5   2  10    5.23    0.47
  -4   2  10    0.25    0.25
  -4   2  10    0.30    0.20
   3  -2 -10    0.99    0.26
  -3   2  10    1.18    0.26
  -3   2  10    0.90    0.20
   2  -2 -10   -0.07    0.20
  -2   2  10   -0.13    0.19
  -2   2  10    0.01    0.16
   1  -2 -10   16.99    0.53
  -1   2  10   16.85    0.49
  -1   2  10   15.91    0.55
   0  -2 -10   74.53    1.44
   0  -2 -10   76.04    1.42
   0   2  10   73.25    1.38
   0   2  10   71.35    1.44
  -1  -2 -10   26.28    0.64
  -1  -2 -10   25.37    0.67
   1   2  10   25.06    0.68
   1   2  10   25.69    0.62
  -2  -2 -10    2.21    0.27
  -2  -2 -10    2.10    0.26
   2   2  10    2.67    0.31
   2   2  10    2.11    0.23
  -3  -2 -10    6.00    0.40
  -3  -2 -10    6.09    0.36
   3   2  10    6.16    0.46
   3   2  10    6.60    0.42
  -4  -2 -10    4.29    0.35
  -4  -2 -10    4.70    0.42
   4   2  10    5.30    0.43
   4   2  10    4.07    0.49
  -5  -2 -10    2.32    0.35
   5   2  10    2.56    0.41
   5   2  10    2.40    0.31
  -6  -2 -10    6.26    0.58
   6   2  10    6.24    0.70
  -5   3  10    8.39    0.55
  -5   3  10    8.72    0.66
  -4   3  10    1.96    0.27
  -4   3  10    2.15    0.34
  -3   3  10    1.36    0.22
  -3   3  10    1.38    0.27
  -2   3  10   42.56    0.92
  -2   3  10   42.10    0.99
   1  -3 -10   -0.04    0.17
  -1   3  10    0.23    0.15
  -1   3  10    0.06    0.20
   0  -3 -10    9.33    0.41
   0  -3 -10    9.25    0.36
   0   3  10    8.70    0.43
   0   3  10    8.88    0.37
  -1  -3 -10    3.33    0.31
  -1  -3 -10    3.36    0.26
   1   3  10    2.50    0.33
   1   3  10    3.07    0.30
  -2  -3 -10    3.12    0.33
  -2  -3 -10    2.75    0.26
   2   3  10    3.03    0.32
   2   3  10    2.71    0.33
  -3  -3 -10    0.86    0.22
   3   3  10    0.59    0.28
   3   3  10    0.64    0.21
  -4  -3 -10    0.56    0.24
   4   3  10    0.90    0.26
   4   3  10    0.57    0.31
  -5  -3 -10    2.24    0.36
   5   3  10    2.56    0.35
   5   3  10    2.23    0.41
  -6  -3 -10    5.47    0.58
   6   3  10    4.62    0.58
   6   3  10    6.45    0.72
  -5   4  10    4.62    0.60
  -5   4  10    5.51    0.54
  -4   4  10    4.48    0.45
  -4   4  10    4.12    0.51
  -3   4  10    0.68    0.25
  -3   4  10    1.00    0.21
  -2   4  10    0.89    0.19
  -2   4  10    0.86    0.23
  -1   4  10    3.36    0.34
  -1   4  10    3.37    0.29
   0  -4 -10    2.14    0.28
   0   4  10    2.28    0.22
   0   4  10    2.39    0.27
  -1  -4 -10   34.80    0.82
   1   4  10   34.58    0.78
   1   4  10   33.61    0.84
  -2  -4 -10   28.43    0.74
   2   4  10   27.84    0.76
   2   4  10   26.64    0.69
  -3  -4 -10    1.02    0.24
   3   4  10    1.04    0.28
   3   4  10    0.74    0.22
  -4  -4 -10    4.63    0.43
   4   4  10    4.62    0.55
   4   4  10    4.85    0.44
  -5  -4 -10    0.00    0.27
   5   4  10    0.09    0.27
   5   4  10    0.31    0.36
  -6  -4 -10    0.79    0.34
   6   4  10    0.47    0.35
   6   4  10    0.85    0.46
  -5   5  10    2.12    0.34
  -5   5  10    2.07    0.42
  -4   5  10    1.51    0.27
  -4   5  10    1.54    0.35
  -3   5  10    0.75    0.27
  -3   5  10    0.63    0.20
  -2   5  10    4.70    0.40
  -2   5  10    4.70    0.34
  -1   5  10   30.67    0.72
  -1   5  10   30.97    0.80
   0  -5 -10    9.87    0.41
   0   5  10    9.36    0.37
   0   5  10    9.64    0.44
  -1  -5 -10    1.42    0.22
   1   5  10    1.84    0.26
   1   5  10    1.56    0.20
  -2  -5 -10    2.18    0.26
   2   5  10    1.94    0.24
   2   5  10    2.10    0.29
  -3  -5 -10    0.18    0.21
   3   5  10    0.07    0.26
   3   5  10    0.03    0.20
  -4  -5 -10    0.75    0.26
   4   5  10    0.62    0.25
   4   5  10    1.09    0.33
  -5  -5 -10    2.80    0.39
   5   5  10    3.41    0.39
   5   5  10    3.38    0.48
  -4   6  10    1.01    0.34
  -4   6  10    1.35    0.28
  -3   6  10    0.74    0.28
  -3   6  10    0.47    0.21
  -2   6  10    0.29    0.17
  -2   6  10    0.45    0.23
  -1   6  10    0.27    0.17
  -1   6  10    0.47    0.22
   0  -6 -10   11.83    0.46
   0   6  10   11.44    0.41
   0   6  10   11.67    0.49
  -1  -6 -10    3.98    0.35
   1   6  10    3.69    0.31
   1   6  10    3.76    0.38
  -2  -6 -10    3.05    0.35
   2   6  10    2.79    0.33
   2   6  10    2.86    0.40
  -3  -6 -10    7.70    0.46
   3   6  10    7.99    0.54
   3   6  10    8.13    0.45
  -4  -6 -10    1.14    0.30
   4   6  10    1.12    0.36
   4   6  10    1.10    0.27
  -5  -6 -10    2.89    0.39
   5   6  10    3.12    0.39
   5   6  10    4.76    0.69
  -3   7  10    0.61    0.30
  -3   7  10    0.60    0.22
  -2   7  10    0.23    0.18
  -2   7  10    0.17    0.25
   1  -7 -10    7.60    0.41
  -1   7  10    7.99    0.38
  -1   7  10    8.11    0.47
   0  -7 -10    9.91    0.44
   0   7  10    9.51    0.48
   0   7  10    8.98    0.38
  -1  -7 -10   11.43    0.47
   1   7  10   10.71    0.43
   1   7  10   11.74    0.52
  -2  -7 -10    0.34    0.21
   2   7  10    0.23    0.19
   2   7  10    0.73    0.26
  -3  -7 -10    0.23    0.24
   3   7  10    0.62    0.30
   3   7  10    0.56    0.22
  -4  -7 -10    0.48    0.29
   4   7  10    0.12    0.25
   4   7  10    0.68    0.36
  -2   8  10    0.22    0.19
  -2   8  10    0.59    0.28
   1  -8 -10    0.12    0.21
  -1   8  10    0.12    0.18
  -1   8  10    0.34    0.25
   0  -8 -10    0.47    0.20
   0   8  10    0.44    0.18
   0   8  10    0.78    0.25
  -1  -8 -10    9.63    0.46
   1   8  10    9.66    0.52
   1   8  10    8.83    0.42
  -2  -8 -10    9.74    0.48
   2   8  10    9.48    0.46
   2   8  10   10.82    0.58
  -3  -8 -10    1.27    0.29
   3   8  10    2.10    0.36
   3   8  10    1.08    0.25
   1   8 -11    4.53    0.44
   1   8 -11    4.00    0.50
  -1  -8  11    5.42    0.65
   0   8 -11   -0.20    0.22
   0   8 -11   -0.17    0.28
   0  -8  11    0.11    0.35
  -1   8 -11   -0.04    0.22
  -1   8 -11   -0.17    0.27
   1  -8  11    0.02    0.34
   3   7 -11   18.35    0.85
   3   7 -11   17.42    0.74
  -3  -7  11   19.44    0.89
   2   7 -11    3.47    0.44
   2   7 -11    3.69    0.37
  -2  -7  11    5.01    0.59
   1   7 -11    0.04    0.23
   1   7 -11    0.20    0.29
  -1  -7  11    0.35    0.31
   0   7 -11    0.99    0.25
   0   7 -11    1.11    0.31
   0  -7  11    1.74    0.37
  -1   7 -11    3.58    0.45
  -1   7 -11    3.65    0.38
   1  -7  11    4.19    0.46
  -2   7 -11    0.34    0.22
  -2   7 -11    0.36    0.27
   2  -7  11    0.26    0.32
  -3   7 -11    1.13    0.27
  -3   7 -11    1.36    0.35
   4   6 -11   -0.12    0.39
   4   6 -11   -0.55    0.31
  -4  -6  11    0.42    0.37
   3   6 -11   -0.63    0.26
   3   6 -11   -0.46    0.34
  -3  -6  11    0.41    0.34
   2   6 -11   10.43    0.62
   2   6 -11   10.43    0.56
  -2  -6  11   10.70    0.67
   1   6 -11    2.31    0.35
   1   6 -11    2.06    0.28
  -1  -6  11    1.66    0.31
   0   6 -11   13.09    0.60
   0   6 -11   12.56    0.51
   0  -6  11   12.73    0.62
  -1   6 -11    0.19    0.24
  -1   6 -11    0.13    0.20
   1  -6  11    0.35    0.28
  -2   6 -11    0.01    0.20
  -2   6 -11   -0.21    0.23
   2  -6  11   -0.29    0.26
  -3   6 -11    0.55    0.23
  -3   6 -11    0.70    0.29
  -4   6 -11    3.42    0.35
  -4   6 -11    3.63    0.44
   4   5 -11    1.35    0.43
  -4  -5  11    1.21    0.38
   3   5 -11   21.78    0.76
   3   5 -11   20.94    0.85
  -3  -5  11   21.68    0.84
   2   5 -11   30.95    0.85
   2   5 -11   30.68    0.93
  -2  -5  11   30.09    0.93
   1   5 -11    3.56    0.38
   1   5 -11    3.67    0.43
  -1  -5  11    3.65    0.44
   0   5 -11    9.61    0.45
   0   5 -11    9.89    0.54
   0  -5  11    9.59    0.52
  -1   5 -11   -0.02    0.18
  -1   5 -11   -0.01    0.23
   1  -5  11    0.01    0.22
  -2   5 -11    2.61    0.39
  -2   5 -11    2.49    0.27
   2  -5  11    2.23    0.31
  -3   5 -11    2.51    0.34
  -3   5 -11    2.71    0.30
  -4   5 -11   -0.07    0.20
  -4   5 -11    0.10    0.27
  -5   5 -11    3.85    0.46
  -5   5 -11    3.69    0.56
   5   4 -11    0.32    0.43
   4   4 -11   -0.49    0.27
   4   4 -11   -0.19    0.35
   3   4 -11    1.39    0.29
   3   4 -11    2.45    0.42
  -3  -4  11    2.53    0.38
   2   4 -11   15.10    0.67
   2   4 -11   14.62    0.59
  -2  -4  11   14.48    0.65
   1   4 -11    2.15    0.27
   1   4 -11    1.92    0.31
  -1  -4  11    1.62    0.27
   0   4 -11   -0.08    0.17
   0   4 -11    0.02    0.24
   0  -4  11    0.08    0.19
  -1   4 -11    7.87    0.47
  -1   4 -11    7.57    0.40
   1  -4  11    7.56    0.43
  -2   4 -11    0.87    0.25
  -2   4 -11    0.89    0.21
   2  -4  11    0.74    0.22
  -3   4 -11   -0.25    0.17
  -3   4 -11   -0.11    0.22
  -4   4 -11    5.62    0.49
  -4   4 -11    5.37    0.42
  -5   4 -11    0.90    0.25
  -5   4 -11    0.95    0.34
   5   3 -11    3.15    0.52
   4   3 -11    7.82    0.65
   4   3 -11    6.54    0.56
   3   3 -11    3.56    0.46
   3   3 -11    4.14    0.53
   2   3 -11   78.62    1.86
   2   3 -11   80.00    1.59
   2   3 -11   80.57    1.68
   1   3 -11   26.34    0.70
   1   3 -11   26.38    0.70
   1   3 -11   26.68    0.79
  -1  -3  11   27.07    0.75
  -1  -3  11   26.44    0.72
   0   3 -11    0.65    0.19
   0   3 -11    0.49    0.24
   0   3 -11    0.62    0.19
   0  -3  11    0.98    0.19
   0  -3  11    0.37    0.18
  -1   3 -11   23.07    0.63
  -1   3 -11   23.63    0.65
  -1   3 -11   23.23    0.70
   1  -3  11   22.85    0.62
   1  -3  11   22.83    0.63
  -2   3 -11    4.69    0.35
  -2   3 -11    3.88    0.40
  -2   3 -11    4.26    0.35
   2  -3  11    4.13    0.32
  -3   3 -11    0.17    0.23
  -3   3 -11    0.20    0.19
  -4   3 -11    5.00    0.47
  -4   3 -11    5.28    0.40
  -5   3 -11    1.55    0.27
  -5   3 -11    1.85    0.36
  -6   3 -11    1.78    0.39
   5   2 -11    5.21    0.64
   4   2 -11   -0.16    0.26
   4   2 -11    1.15    0.38
   3   2 -11    2.61    0.39
   3   2 -11    1.83    0.30
   2   2 -11    8.37    0.53
   2   2 -11    8.15    0.46
  -2  -2  11    8.80    0.43
   1   2 -11   83.43    1.61
   1   2 -11   84.07    1.59
   1   2 -11   82.23    1.67
  -1  -2  11   81.46    1.61
  -1  -2  11   81.91    1.60
   0   2 -11    6.19    0.43
   0   2 -11    6.20    0.36
   0   2 -11    6.02    0.37
   0  -2  11    6.25    0.33
   0  -2  11    5.99    0.38
  -1   2 -11    5.32    0.36
  -1   2 -11    5.31    0.41
  -1   2 -11    5.23    0.35
   1  -2  11    5.45    0.38
   1  -2  11    5.09    0.29
  -2   2 -11   -0.12    0.16
  -2   2 -11    0.01    0.20
  -2   2 -11    0.02    0.17
   2  -2  11   -0.11    0.12
   2  -2  11   -0.04    0.20
  -3   2 -11    0.12    0.18
  -3   2 -11   -0.08    0.16
  -3   2 -11    0.08    0.21
   3  -2  11    0.29    0.23
  -4   2 -11   -0.12    0.17
  -4   2 -11    0.08    0.20
  -4   2 -11    0.18    0.25
   4  -2  11    0.32    0.27
  -5   2 -11   13.02    0.55
  -5   2 -11   13.41    0.65
  -6   2 -11    0.36    0.30
   5   1 -11    3.96    0.52
  -5  -1  11    5.49    0.52
   4   1 -11    1.11    0.35
  -4  -1  11    2.14    0.31
   3   1 -11   18.30    0.64
   3   1 -11   18.50    0.72
  -3  -1  11   18.92    0.65
   2   1 -11   17.33    0.64
   2   1 -11   16.86    0.57
  -2  -1  11   16.06    0.58
   1   1 -11  142.74    2.53
   1   1 -11  140.61    2.48
   1   1 -11  143.46    2.57
  -1  -1  11  138.26    2.52
  -1  -1  11  129.86    2.43
   0   1 -11   10.24    0.49
   0   1 -11   10.71    0.44
   0   1 -11   10.19    0.42
   0  -1  11    9.99    0.45
   0  -1  11   10.09    0.38
   0  -1  11    9.92    0.37
  -1   1 -11    1.43    0.23
  -1   1 -11    1.70    0.27
  -1   1 -11    1.21    0.19
   1  -1  11    1.40    0.25
   1  -1  11    1.31    0.18
   1  -1  11    1.36    0.19
  -2   1 -11   14.78    0.54
  -2   1 -11   14.86    0.49
  -2   1 -11   15.35    0.57
   2  -1  11   15.80    0.50
   2  -1  11   15.01    0.57
  -3   1 -11    8.94    0.45
  -3   1 -11    8.80    0.47
  -3   1 -11    8.33    0.40
   3  -1  11    8.77    0.51
  -4   1 -11    1.22    0.28
  -4   1 -11    1.19    0.25
  -4   1 -11    1.23    0.21
   4  -1  11    1.34    0.31
  -5   1 -11    3.91    0.46
  -5   1 -11    4.17    0.47
   5  -1  11    4.67    0.53
  -6   1 -11    5.67    0.53
  -6   1 -11    5.80    0.57
  -6   0  11    1.03    0.36
   5   0 -11    4.85    0.59
  -5   0  11    7.60    0.61
   4   0 -11   10.29    0.64
  -4   0  11   11.59    0.59
   3   0 -11    7.05    0.51
  -3   0  11    8.18    0.41
  -3   0  11    7.43    0.47
   2   0 -11    2.90    0.34
   2   0 -11    3.38    0.41
  -2   0  11    3.97    0.31
  -2   0  11    3.72    0.39
   1   0 -11    0.91    0.25
   1   0 -11    0.38    0.18
   1   0 -11    0.65    0.21
  -1   0  11    0.69    0.22
  -1   0  11    0.67    0.18
   0   0 -11  114.80    2.08
   0   0 -11  110.63    2.00
   0   0 -11  116.81    2.10
   0   0  11  106.88    1.99
   0   0  11  106.95    2.06
  -1   0 -11   26.16    0.64
  -1   0 -11   26.79    0.71
  -1   0 -11   26.65    0.71
   1   0  11   25.38    0.52
   1   0  11   25.70    0.72
   1   0  11   25.65    0.65
  -2   0 -11   11.75    0.49
  -2   0 -11   11.46    0.43
  -2   0 -11   11.99    0.50
   2   0  11   11.55    0.52
   2   0  11   11.97    0.46
  -3   0 -11    2.97    0.36
  -3   0 -11    2.42    0.28
  -3   0 -11    2.39    0.36
   3   0  11    3.22    0.35
   3   0  11    2.84    0.42
  -4   0 -11    0.29    0.22
  -4   0 -11    0.57    0.23
   4   0  11    0.62    0.29
  -5   0 -11    1.11    0.27
  -5   0 -11    1.51    0.32
   5   0  11    1.41    0.35
  -6   0 -11   10.10    0.63
  -6   0 -11   10.66    0.61
   6   0  11   10.67    0.71
  -5   1  11    0.62    0.32
   4  -1 -11    8.57    0.57
  -4   1  11    9.80    0.48
  -4   1  11    9.24    0.57
   3  -1 -11    0.19    0.25
  -3   1  11    0.40    0.19
  -3   1  11    0.32    0.25
   2  -1 -11   26.76    0.76
  -2   1  11   27.22    0.69
  -2   1  11   25.91    0.76
   1  -1 -11   41.46    0.89
   1  -1 -11   43.30    0.98
  -1   1  11   39.75    0.96
  -1   1  11   40.60    0.90
   0  -1 -11  112.56    2.02
   0  -1 -11  107.32    2.01
   0  -1 -11  108.57    1.94
   0   1  11  103.18    1.93
   0   1  11  104.70    2.01
  -1  -1 -11    1.45    0.23
  -1  -1 -11    1.72    0.25
  -1  -1 -11    1.29    0.18
   1   1  11    1.79    0.21
   1   1  11    1.56    0.17
   1   1  11    1.47    0.27
  -2  -1 -11    5.51    0.38
  -2  -1 -11    5.67    0.37
  -2  -1 -11    5.20    0.39
   2   1  11    5.17    0.44
   2   1  11    5.67    0.37
  -3  -1 -11    1.59    0.26
  -3  -1 -11    1.80    0.29
   3   1  11    1.43    0.30
   3   1  11    1.69    0.25
  -4  -1 -11    3.60    0.38
  -4  -1 -11    4.26    0.42
   4   1  11    4.57    0.52
   4   1  11    4.51    0.42
  -5  -1 -11    4.68    0.48
  -5  -1 -11    4.51    0.44
   5   1  11    5.37    0.60
  -6  -1 -11    1.20    0.35
   6   1  11    0.94    0.41
  -5   2  11    0.83    0.35
  -4   2  11    1.42    0.25
  -4   2  11    1.07    0.31
   3  -2 -11    2.20    0.32
  -3   2  11    2.32    0.31
  -3   2  11    2.71    0.28
   2  -2 -11    3.06    0.37
  -2   2  11    3.37    0.35
  -2   2  11    3.53    0.38
   1  -2 -11   -0.07    0.20
  -1   2  11    0.10    0.21
  -1   2  11    0.03    0.16
   0  -2 -11   20.27    0.58
   0  -2 -11   19.31    0.60
   0   2  11   18.17    0.60
   0   2  11   19.25    0.54
  -1  -2 -11   33.83    0.78
  -1  -2 -11   31.90    0.79
   1   2  11   31.41    0.82
   1   2  11   30.91    0.75
  -2  -2 -11   15.93    0.53
  -2  -2 -11   16.20    0.56
   2   2  11   16.30    0.53
   2   2  11   16.06    0.60
  -3  -2 -11    6.10    0.42
  -3  -2 -11    6.03    0.37
   3   2  11    5.62    0.50
   3   2  11    6.28    0.43
  -4  -2 -11    1.72    0.27
  -4  -2 -11    1.90    0.31
   4   2  11    1.69    0.35
   4   2  11    1.69    0.28
  -5  -2 -11    0.23    0.26
   5   2  11    0.26    0.26
   5   2  11    0.56    0.36
  -6  -2 -11    4.31    0.57
   6   2  11    4.83    0.69
  -5   3  11    1.87    0.31
  -5   3  11    1.78    0.39
  -4   3  11    1.09    0.31
  -4   3  11    1.14    0.25
  -3   3  11    8.20    0.46
  -3   3  11    7.84    0.51
  -2   3  11    7.16    0.45
  -2   3  11    7.81    0.41
  -1   3  11   22.14    0.68
  -1   3  11   21.78    0.60
   0  -3 -11   44.75    1.09
   0  -3 -11   46.58    1.02
   0   3  11   44.85    1.03
   0   3  11   45.72    0.96
  -1  -3 -11   37.23    0.87
  -1  -3 -11   34.90    0.94
   1   3  11   35.83    0.82
   1   3  11   36.08    0.89
  -2  -3 -11    0.21    0.20
   2   3  11    0.16    0.23
   2   3  11    0.04    0.19
  -3  -3 -11    4.80    0.39
   3   3  11    5.40    0.42
   3   3  11    5.46    0.50
  -4  -3 -11    0.63    0.25
   4   3  11    0.75    0.26
   4   3  11    0.56    0.32
  -5  -3 -11    0.38    0.28
   5   3  11    0.83    0.29
   5   3  11    0.87    0.39
  -6  -3 -11    5.09    0.59
   6   3  11    4.09    0.44
  -5   4  11    3.92    0.49
  -5   4  11    3.11    0.36
  -4   4  11    5.47    0.49
  -4   4  11    5.00    0.54
  -3   4  11    1.89    0.25
  -3   4  11    2.22    0.33
  -2   4  11    1.38    0.23
  -2   4  11    1.61    0.27
  -1   4  11    0.02    0.21
  -1   4  11    0.29    0.18
   0  -4 -11    2.46    0.28
   0   4  11    2.40    0.29
   0   4  11    2.37    0.30
  -1  -4 -11   57.23    1.20
   1   4  11   55.17    1.21
   1   4  11   56.16    1.14
  -2  -4 -11    0.33    0.21
   2   4  11    0.34    0.20
   2   4  11    0.26    0.24
  -3  -4 -11    0.62    0.23
   3   4  11    0.77    0.24
   3   4  11    0.63    0.29
  -4  -4 -11    0.31    0.25
   4   4  11    0.46    0.26
   4   4  11    0.65    0.32
  -5  -4 -11    0.07    0.28
   5   4  11    0.09    0.37
   5   4  11    0.04    0.28
  -4   5  11    3.83    0.49
  -4   5  11    3.07    0.42
  -3   5  11    3.82    0.41
  -3   5  11    3.79    0.48
  -2   5  11    1.37    0.23
  -2   5  11    1.60    0.28
  -1   5  11   16.21    0.60
  -1   5  11   16.44    0.53
   0  -5 -11   11.25    0.47
   0   5  11   10.59    0.43
   0   5  11   10.95    0.50
  -1  -5 -11   27.43    0.73
   1   5  11   26.71    0.75
   1   5  11   27.20    0.69
  -2  -5 -11    7.35    0.44
   2   5  11    7.48    0.48
   2   5  11    7.43    0.42
  -3  -5 -11    0.11    0.22
   3   5  11    0.21    0.22
   3   5  11    0.47    0.29
  -4  -5 -11    2.10    0.34
   4   5  11    1.99    0.39
   4   5  11    1.36    0.29
  -5  -5 -11    0.76    0.33
   5   5  11    1.62    0.44
   5   5  11    0.87    0.31
  -4   6  11    4.46    0.58
  -4   6  11    3.93    0.51
  -3   6  11    5.92    0.55
  -3   6  11    5.71    0.46
  -2   6  11    5.36    0.48
  -2   6  11    5.45    0.39
   1  -6 -11    4.56    0.37
  -1   6  11    4.91    0.44
  -1   6  11    4.78    0.35
   0  -6 -11    1.21    0.24
   0   6  11    1.25    0.26
   0   6  11    1.06    0.20
  -1  -6 -11    1.08    0.24
   1   6  11    1.06    0.21
   1   6  11    1.38    0.27
  -2  -6 -11   39.20    0.95
   2   6  11   37.97    0.91
   2   6  11   39.28    1.00
  -3  -6 -11    7.67    0.48
   3   6  11    8.77    0.58
   3   6  11    7.93    0.48
  -4  -6 -11    1.14    0.30
   4   6  11    1.01    0.28
   4   6  11    1.59    0.39
  -3   7  11    1.06    0.33
  -3   7  11    1.28    0.27
  -2   7  11    2.92    0.37
  -2   7  11    3.13    0.38
   1  -7 -11    0.32    0.22
  -1   7  11    0.59    0.27
  -1   7  11    0.33    0.19
   0  -7 -11   14.54    0.55
   0   7  11   14.91    0.60
   0   7  11   14.27    0.50
  -1  -7 -11    3.88    0.39
   1   7  11    4.73    0.46
   1   7  11    4.12    0.36
  -2  -7 -11   11.85    0.52
   2   7  11   10.94    0.49
   2   7  11   12.19    0.61
  -3  -7 -11    1.00    0.28
   3   7  11    1.55    0.35
   3   7  11    1.20    0.26
  -4  -7 -11    0.15    0.29
   4   7  11    0.33    0.27
   4   7  11    0.62    0.36
   1  -8 -11    2.45    0.31
  -1   8  11    1.91    0.25
  -1   8  11    2.58    0.35
   0  -8 -11    1.51    0.26
   0   8  11    1.84    0.31
   0   8  11    1.35    0.22
  -1  -8 -11    0.10    0.22
   1   8  11    0.52    0.26
   1   8  11    0.18    0.19
  -2  -8 -11    0.90    0.26
   2   8  11    1.57    0.33
   2   8  11    0.66    0.22
   2   7 -12    2.23    0.42
   2   7 -12    1.92    0.34
  -2  -7  12    2.66    0.42
   1   7 -12    2.01    0.31
   1   7 -12    2.00    0.39
  -1  -7  12    2.37    0.41
   0   7 -12    0.87    0.26
   0   7 -12    0.75    0.33
   0  -7  12    1.15    0.35
  -1   7 -12    4.44    0.44
  -1   7 -12    4.48    0.50
   1  -7  12    4.47    0.59
  -2   7 -12   -0.10    0.28
  -2   7 -12   -0.45    0.21
   2  -7  12   -0.54    0.31
   3   6 -12   -0.46    0.31
   3   6 -12   -0.56    0.36
  -3  -6  12    0.08    0.35
   2   6 -12    5.39    0.51
   2   6 -12    5.67    0.57
  -2  -6  12    5.93    0.58
   1   6 -12    0.52    0.25
   1   6 -12    0.74    0.32
  -1  -6  12    1.03    0.32
   0   6 -12   14.74    0.65
   0   6 -12   14.66    0.58
   0  -6  12   15.38    0.70
  -1   6 -12    5.86    0.43
  -1   6 -12    5.42    0.49
   1  -6  12    5.71    0.54
  -2   6 -12    2.11    0.35
  -2   6 -12    1.59    0.27
   2  -6  12    1.79    0.35
  -3   6 -12    1.03    0.33
  -3   6 -12    0.65    0.26
   4   5 -12    0.28    0.43
   4   5 -12   -0.32    0.31
  -4  -5  12    0.36    0.37
   3   5 -12    8.87    0.69
   3   5 -12    8.70    0.60
  -3  -5  12    9.23    0.68
   2   5 -12   15.91    0.73
   2   5 -12   14.89    0.63
  -2  -5  12   15.08    0.72
   1   5 -12    4.30    0.48
   1   5 -12    4.70    0.42
  -1  -5  12    4.90    0.46
   0   5 -12    0.83    0.24
   0   5 -12    0.85    0.29
   0  -5  12    0.71    0.25
  -1   5 -12    1.16    0.24
  -1   5 -12    1.34    0.30
   1  -5  12    0.93    0.27
  -2   5 -12    7.04    0.51
  -2   5 -12    7.20    0.44
   2  -5  12    6.78    0.49
  -3   5 -12    0.14    0.27
  -3   5 -12    0.25    0.23
  -4   5 -12    0.58    0.32
  -4   5 -12    0.85    0.27
   4   4 -12    0.22    0.39
   4   4 -12    0.25    0.32
   3   4 -12    1.99    0.34
   3   4 -12    2.31    0.42
  -3  -4  12    2.43    0.39
   2   4 -12   -0.18    0.23
   2   4 -12   -0.25    0.28
  -2  -4  12   -0.04    0.25
   1   4 -12    8.03    0.53
   1   4 -12    7.37    0.44
  -1  -4  12    7.09    0.48
   0   4 -12    1.63    0.31
   0   4 -12    1.56    0.24
   0  -4  12    1.46    0.26
  -1   4 -12   46.75    1.05
  -1   4 -12   47.10    1.14
   1  -4  12   47.04    1.08
  -2   4 -12    2.03    0.32
  -2   4 -12    1.64    0.25
   2  -4  12    1.96    0.26
  -3   4 -12    3.20    0.39
  -3   4 -12    2.86    0.37
  -4   4 -12    0.11    0.28
  -4   4 -12    0.08    0.20
  -5   4 -12    0.13    0.22
  -5   4 -12   -0.19    0.30
   5   3 -12   -0.13    0.42
   4   3 -12    4.54    0.62
   4   3 -12    5.27    0.47
   3   3 -12    1.86    0.39
   3   3 -12    1.37    0.32
   2   3 -12    1.31    0.28
   2   3 -12    1.33    0.34
  -2  -3  12    0.95    0.28
   1   3 -12   38.20    1.00
   1   3 -12   37.42    0.91
  -1  -3  12   37.93    0.94
   0   3 -12    9.86    0.49
   0   3 -12    9.85    0.52
   0   3 -12   10.08    0.46
   0  -3  12    9.33    0.43
  -1   3 -12    1.75    0.36
  -1   3 -12    1.04    0.22
  -1   3 -12    1.23    0.27
   1  -3  12    1.10    0.20
  -2   3 -12    0.17    0.23
  -2   3 -12    0.07    0.18
   2  -3  12   -0.22    0.16
  -3   3 -12    2.93    0.36
  -3   3 -12    3.17    0.42
  -4   3 -12    1.32    0.33
  -4   3 -12    0.90    0.24
  -5   3 -12    0.27    0.23
  -5   3 -12    0.26    0.30
   5   2 -12   -0.83    0.36
   4   2 -12    6.54    0.55
   4   2 -12    7.56    0.65
   3   2 -12    0.15    0.31
   3   2 -12   -0.07    0.24
   2   2 -12    1.14    0.26
   2   2 -12    1.67    0.26
   2   2 -12    1.34    0.32
  -2  -2  12    2.38    0.34
   1   2 -12    1.11    0.23
   1   2 -12    1.01    0.29
   1   2 -12    1.13    0.23
  -1  -2  12    1.22    0.24
  -1  -2  12    0.87    0.22
   0   2 -12    1.03    0.22
   0   2 -12    1.00    0.22
   0   2 -12    0.98    0.26
   0  -2  12    1.05    0.19
   0  -2  12    1.10    0.24
  -1   2 -12    1.12    0.21
  -1   2 -12    1.53    0.24
  -1   2 -12    1.80    0.29
   1  -2  12    1.57    0.25
   1  -2  12    1.40    0.18
  -2   2 -12   54.88    1.16
  -2   2 -12   55.60    1.25
  -2   2 -12   56.44    1.21
   2  -2  12   52.07    1.06
   2  -2  12   55.23    1.20
  -3   2 -12    0.09    0.20
  -3   2 -12    0.06    0.23
  -3   2 -12   -0.04    0.18
   3  -2  12    0.56    0.25
  -4   2 -12    2.72    0.36
  -4   2 -12    3.17    0.38
  -4   2 -12    3.19    0.39
  -5   2 -12    0.35    0.29
   5   1 -12   -0.19    0.38
   4   1 -12    0.54    0.35
  -4  -1  12    1.56    0.31
   3   1 -12    8.48    0.51
   3   1 -12   10.27    0.60
  -3  -1  12   11.23    0.54
   2   1 -12   19.58    0.70
   2   1 -12   18.42    0.61
  -2  -1  12   18.64    0.62
   1   1 -12   15.42    0.55
   1   1 -12   15.47    0.53
   1   1 -12   16.23    0.62
  -1  -1  12   15.38    0.56
   0   1 -12   48.24    1.02
   0   1 -12   48.75    1.08
   0   1 -12   48.03    1.10
   0  -1  12   46.78    1.07
   0  -1  12   46.99    0.97
   0  -1  12   45.09    1.02
  -1   1 -12   10.27    0.47
  -1   1 -12   10.04    0.43
  -1   1 -12   10.23    0.49
   1  -1  12    9.79    0.59
   1  -1  12    9.52    0.32
   1  -1  12    9.95    0.49
  -2   1 -12   10.36    0.48
  -2   1 -12   10.64    0.51
  -2   1 -12   10.61    0.44
   2  -1  12   10.79    0.52
  -3   1 -12    3.17    0.40
  -3   1 -12    3.36    0.37
  -3   1 -12    2.87    0.32
   3  -1  12    3.45    0.45
  -4   1 -12    0.13    0.21
  -4   1 -12   -0.08    0.23
   4  -1  12    0.37    0.28
  -5   1 -12    1.52    0.33
  -5   1 -12    1.27    0.32
   5  -1  12    1.76    0.36
  -6   1 -12   -0.11    0.28
   5   0 -12    6.40    0.67
  -5   0  12    9.90    0.66
   4   0 -12    4.95    0.57
  -4   0  12    6.87    0.53
   3   0 -12    1.11    0.32
  -3   0  12    1.58    0.31
   2   0 -12    2.27    0.33
   2   0 -12    1.53    0.26
  -2   0  12    2.48    0.31
  -2   0  12    2.23    0.30
   1   0 -12    0.66    0.25
   1   0 -12    0.53    0.19
   1   0 -12    0.90    0.23
  -1   0  12    0.86    0.24
  -1   0  12    0.87    0.18
   0   0 -12   14.30    0.54
   0   0 -12   14.32    0.49
   0   0 -12   15.13    0.56
   0   0  12   14.43    0.55
   0   0  12   14.67    0.47
  -1   0 -12    3.08    0.32
  -1   0 -12    1.94    0.22
  -1   0 -12    2.22    0.28
   1   0  12    2.28    0.31
   1   0  12    2.67    0.32
   1   0  12    2.06    0.22
  -2   0 -12   22.30    0.69
  -2   0 -12   21.93    0.69
  -2   0 -12   22.04    0.61
   2   0  12   22.78    0.63
   2   0  12   21.42    0.70
  -3   0 -12   25.25    0.76
  -3   0 -12   24.26    0.75
   3   0  12   24.37    0.78
   3   0  12   24.50    0.71
  -4   0 -12    0.76    0.25
  -4   0 -12    0.80    0.26
   4   0  12    1.20    0.32
  -5   0 -12    0.75    0.28
  -5   0 -12    0.90    0.28
   5   0  12    0.77    0.35
  -6   0 -12    1.34    0.33
  -6   0 -12    0.75    0.31
   6   0  12    1.89    0.43
  -5   1  12    0.74    0.34
   4  -1 -12    0.81    0.33
  -4   1  12    1.46    0.34
   3  -1 -12   -0.10    0.26
  -3   1  12    0.17    0.25
  -3   1  12    0.50    0.20
   2  -1 -12    4.12    0.43
  -2   1  12    4.54    0.36
  -2   1  12    4.36    0.44
   1  -1 -12   23.38    0.68
   1  -1 -12   23.04    0.70
  -1   1  12   22.33    0.69
  -1   1  12   22.52    0.62
   0  -1 -12   80.21    1.60
   0  -1 -12   83.19    1.60
   0   1  12   77.34    1.59
   0   1  12   79.27    1.52
  -1  -1 -12   35.05    0.87
  -1  -1 -12   34.91    0.86
   1   1  12   34.28    0.81
   1   1  12   33.38    0.88
  -2  -1 -12    2.47    0.34
  -2  -1 -12    2.93    0.32
   2   1  12    3.06    0.35
   2   1  12    2.69    0.34
  -3  -1 -12   10.00    0.51
  -3  -1 -12   10.46    0.50
   3   1  12   10.45    0.57
   3   1  12   10.91    0.50
  -4  -1 -12    5.28    0.47
  -4  -1 -12    4.83    0.41
   4   1  12    5.43    0.45
   4   1  12    6.07    0.56
  -5  -1 -12    0.73    0.29
  -5  -1 -12    0.43    0.26
   5   1  12    1.30    0.38
  -6  -1 -12    0.84    0.34
   6   1  12    1.93    0.46
  -5   2  12    3.68    0.47
  -4   2  12   12.34    0.57
  -4   2  12   12.17    0.68
  -3   2  12   25.06    0.73
  -3   2  12   23.61    0.80
   2  -2 -12    2.19    0.31
  -2   2  12    2.51    0.27
  -2   2  12    2.09    0.31
   1  -2 -12    9.77    0.46
   1  -2 -12    9.50    0.46
  -1   2  12    9.99    0.49
  -1   2  12   10.54    0.45
   0  -2 -12    2.58    0.33
   0  -2 -12    2.63    0.35
   0   2  12    3.00    0.32
   0   2  12    2.64    0.37
  -1  -2 -12   30.60    0.76
  -1  -2 -12   29.10    0.78
   1   2  12   28.37    0.79
   1   2  12   29.65    0.74
  -2  -2 -12    5.11    0.39
  -2  -2 -12    4.94    0.37
   2   2  12    5.18    0.39
   2   2  12    4.50    0.45
  -3  -2 -12   40.16    0.97
  -3  -2 -12   39.26    1.01
   3   2  12   41.20    0.98
   3   2  12   40.22    1.06
  -4  -2 -12    2.30    0.33
   4   2  12    2.62    0.40
   4   2  12    2.48    0.31
  -5  -2 -12    1.06    0.31
   5   2  12    1.25    0.41
   5   2  12    0.80    0.28
  -6  -2 -12   -0.06    0.30
   6   2  12    0.49    0.43
  -5   3  12    0.67    0.37
  -5   3  12    1.12    0.30
  -4   3  12    0.30    0.23
  -4   3  12    0.55    0.32
  -3   3  12    3.46    0.41
  -3   3  12    3.12    0.38
  -2   3  12    0.84    0.26
  -2   3  12    0.70    0.21
  -1   3  12    0.14    0.18
  -1   3  12    0.04    0.22
   0  -3 -12    2.13    0.28
   0   3  12    1.97    0.29
   0   3  12    1.69    0.22
  -1  -3 -12   96.03    1.84
   1   3  12   94.81    1.78
   1   3  12   92.89    1.85
  -2  -3 -12   15.44    0.59
   2   3  12   15.47    0.63
   2   3  12   16.49    0.57
  -3  -3 -12    0.30    0.23
   3   3  12    0.49    0.30
   3   3  12    0.29    0.22
  -4  -3 -12    1.47    0.30
   4   3  12    1.88    0.38
   4   3  12    1.66    0.31
  -5  -3 -12    2.82    0.40
   5   3  12    1.99    0.33
   5   3  12    2.73    0.48
  -4   4  12    5.60    0.52
  -4   4  12    4.41    0.60
  -3   4  12    4.13    0.44
  -3   4  12    4.03    0.48
  -2   4  12   19.32    0.63
  -2   4  12   17.96    0.68
   1  -4 -12    3.94    0.37
  -1   4  12    3.97    0.36
  -1   4  12    4.24    0.43
   0  -4 -12    6.71    0.42
   0   4  12    7.04    0.45
   0   4  12    6.61    0.40
  -1  -4 -12    0.08    0.20
   1   4  12    0.17    0.18
   1   4  12    0.08    0.22
  -2  -4 -12   17.99    0.63
   2   4  12   17.95    0.60
   2   4  12   16.32    0.65
  -3  -4 -12    1.20    0.27
   3   4  12    1.50    0.33
   3   4  12    1.49    0.27
  -4  -4 -12   24.04    0.82
   4   4  12   24.98    0.91
   4   4  12   24.89    0.80
  -5  -4 -12    0.01    0.29
   5   4  12    0.54    0.40
   5   4  12    0.75    0.31
  -4   5  12    0.94    0.29
  -4   5  12    0.53    0.35
  -3   5  12    0.82    0.25
  -3   5  12    0.81    0.31
  -2   5  12    2.35    0.28
  -2   5  12    2.44    0.34
   1  -5 -12    1.23    0.25
  -1   5  12    1.60    0.30
  -1   5  12    1.78    0.25
   0  -5 -12    2.51    0.30
   0   5  12    2.24    0.26
   0   5  12    2.53    0.32
  -1  -5 -12    5.67    0.40
   1   5  12    5.66    0.39
   1   5  12    4.97    0.43
  -2  -5 -12   52.51    1.19
   2   5  12   51.94    1.14
   2   5  12   51.83    1.23
  -3  -5 -12    3.94    0.44
   3   5  12    4.64    0.53
   3   5  12    4.00    0.44
  -4  -5 -12    1.64    0.33
   4   5  12    2.18    0.42
   4   5  12    1.96    0.32
  -5  -5 -12    0.17    0.32
   5   5  12    0.53    0.31
   5   5  12    0.43    0.41
  -3   6  12    6.69    0.53
  -3   6  12    5.41    0.58
  -2   6  12    0.59    0.30
  -2   6  12    0.75    0.24
   1  -6 -12    2.04    0.29
  -1   6  12    1.79    0.32
  -1   6  12    1.56    0.24
   0  -6 -12    0.13    0.21
   0   6  12    0.48    0.26
   0   6  12    0.32    0.20
  -1  -6 -12    1.23    0.27
   1   6  12    1.10    0.22
   1   6  12    1.16    0.27
  -2  -6 -12    8.01    0.48
   2   6  12    7.69    0.46
   2   6  12    8.01    0.55
  -3  -6 -12    2.34    0.33
   3   6  12    2.20    0.37
   3   6  12    3.32    0.44
  -4  -6 -12    0.09    0.28
   4   6  12    0.74    0.29
   4   6  12    0.88    0.38
  -2   7  12    1.36    0.26
  -2   7  12    1.29    0.33
   1  -7 -12    0.39    0.24
  -1   7  12    0.54    0.29
  -1   7  12    0.56    0.22
   0  -7 -12    1.15    0.26
   0   7  12    1.31    0.30
   0   7  12    0.89    0.22
  -1  -7 -12    1.12    0.27
   1   7  12    0.99    0.23
   1   7  12    1.32    0.29
  -2  -7 -12   15.68    0.63
   2   7  12   16.20    0.70
   2   7  12   15.55    0.59
  -3  -7 -12   16.13    0.68
   3   7  12   18.12    0.78
   3   7  12   15.88    0.63
   0  -8 -12    1.06    0.27
   0   8  12    0.97    0.23
   0   8  12    1.57    0.32
  -1  -8 -12    0.93    0.28
   1   8  12    1.22    0.31
   1   8  12    1.04    0.23
   1   7 -13    0.51    0.36
   1   7 -13   -0.14    0.26
  -1  -7  13    0.26    0.33
   0   7 -13   -0.25    0.31
   0   7 -13   -0.15    0.25
   0  -7  13    0.28    0.34
  -1   7 -13    2.40    0.40
  -1   7 -13    2.21    0.32
   1  -7  13    2.15    0.39
   2   6 -13    1.65    0.33
   2   6 -13    2.16    0.44
  -2  -6  13    2.23    0.40
   1   6 -13   -0.06    0.33
   1   6 -13   -0.35    0.24
  -1  -6  13    0.19    0.30
   0   6 -13    0.61    0.32
   0   6 -13    0.58    0.27
   0  -6  13    1.02    0.32
  -1   6 -13    1.71    0.29
  -1   6 -13    2.45    0.39
   1  -6  13    2.30    0.36
  -2   6 -13    3.29    0.43
  -2   6 -13    2.60    0.32
   2  -6  13    2.30    0.37
  -3   6 -13    5.32    0.49
  -3   6 -13    5.14    0.59
   3   5 -13    5.38    0.68
   3   5 -13    4.67    0.56
  -3  -5  13    6.36    0.66
   2   5 -13    0.23    0.28
   2   5 -13    0.32    0.35
  -2  -5  13    0.66    0.31
   1   5 -13    0.45    0.33
   1   5 -13    0.06    0.22
  -1  -5  13    0.54    0.28
   0   5 -13    0.39    0.30
   0   5 -13    0.17    0.22
   0  -5  13    0.68    0.26
  -1   5 -13   -0.06    0.26
  -1   5 -13   -0.21    0.21
   1  -5  13    0.17    0.24
  -2   5 -13    6.35    0.46
  -2   5 -13    6.12    0.53
   2  -5  13    5.02    0.49
  -3   5 -13    0.27    0.30
  -3   5 -13    0.57    0.26
  -4   5 -13    0.74    0.36
  -4   5 -13    0.63    0.26
   4   4 -13   -0.53    0.39
   4   4 -13   -0.60    0.32
  -4  -4  13   -0.27    0.37
   3   4 -13    0.25    0.30
   3   4 -13    1.18    0.41
  -3  -4  13    0.63    0.34
   2   4 -13    1.37    0.29
   2   4 -13    1.81    0.38
  -2  -4  13    2.46    0.36
   1   4 -13    4.43    0.41
   1   4 -13    3.80    0.51
  -1  -4  13    3.81    0.44
   0   4 -13    1.57    0.33
   0   4 -13    1.41    0.27
   0  -4  13    1.50    0.26
  -1   4 -13    6.61    0.51
  -1   4 -13    6.17    0.43
   1  -4  13    7.04    0.45
  -2   4 -13    0.64    0.22
  -2   4 -13    0.82    0.29
   2  -4  13    0.47    0.23
  -3   4 -13    5.52    0.44
  -3   4 -13    5.48    0.52
  -4   4 -13    0.39    0.25
  -4   4 -13    0.37    0.32
   4   3 -13    2.01    0.46
   4   3 -13    1.39    0.38
   3   3 -13    7.11    0.63
   3   3 -13    6.19    0.54
   2   3 -13   16.11    0.63
   2   3 -13   16.92    0.73
  -2  -3  13   16.79    0.68
   1   3 -13    0.22    0.29
   1   3 -13    0.32    0.22
  -1  -3  13    0.38    0.22
   0   3 -13    3.39    0.44
   0   3 -13    3.02    0.37
   0  -3  13    3.45    0.35
  -1   3 -13    0.60    0.27
  -1   3 -13    0.57    0.21
   1  -3  13    0.81    0.19
  -2   3 -13    0.13    0.20
  -2   3 -13    0.13    0.25
   2  -3  13    0.26    0.21
  -3   3 -13    5.64    0.50
  -3   3 -13    5.13    0.41
  -4   3 -13    0.11    0.21
  -4   3 -13   -0.01    0.28
  -5   3 -13    0.72    0.34
   5   2 -13   -0.85    0.39
   4   2 -13    2.97    0.48
   3   2 -13    1.99    0.32
   3   2 -13    3.02    0.43
   2   2 -13   -0.34    0.20
   2   2 -13    0.11    0.28
   2   2 -13    0.41    0.22
  -2  -2  13    0.59    0.22
   1   2 -13    3.75    0.47
   1   2 -13    3.15    0.37
   1   2 -13    3.89    0.38
  -1  -2  13    4.64    0.39
  -1  -2  13    3.13    0.37
   0   2 -13    3.16    0.36
   0   2 -13    2.41    0.26
   0   2 -13    3.46    0.35
   0  -2  13    2.42    0.30
  -1   2 -13    3.12    0.36
  -1   2 -13    2.99    0.41
  -1   2 -13    2.69    0.28
   1  -2  13    2.58    0.27
   1  -2  13    3.10    0.38
  -2   2 -13   14.32    0.61
  -2   2 -13   14.63    0.54
  -2   2 -13   15.33    0.58
   2  -2  13   15.58    0.59
  -3   2 -13    0.32    0.22
  -3   2 -13    0.00    0.19
  -3   2 -13    0.02    0.24
   3  -2  13    0.75    0.35
  -4   2 -13    5.84    0.53
  -4   2 -13    5.43    0.42
  -5   2 -13    0.99    0.34
   5   1 -13   -0.88    0.37
   4   1 -13    0.33    0.36
  -4  -1  13    1.25    0.31
   3   1 -13   13.64    0.69
  -3  -1  13   15.26    0.62
   2   1 -13    1.08    0.24
   2   1 -13    1.39    0.33
   2   1 -13    1.86    0.29
   1   1 -13   15.20    0.55
   1   1 -13   16.06    0.64
   1   1 -13   16.48    0.59
  -1  -1  13   15.99    0.59
   0   1 -13    0.52    0.20
   0   1 -13    1.07    0.24
   0   1 -13    0.83    0.26
   0  -1  13    0.99    0.18
   0  -1  13    1.34    0.26
  -1   1 -13    3.15    0.34
  -1   1 -13    4.26    0.39
  -1   1 -13    3.65    0.41
   1  -1  13    4.63    0.43
  -2   1 -13    0.90    0.26
  -2   1 -13    1.05    0.26
  -2   1 -13    0.76    0.21
   2  -1  13    0.96    0.27
  -3   1 -13    3.84    0.41
  -3   1 -13    3.18    0.44
  -3   1 -13    3.31    0.35
   3  -1  13    4.39    0.47
  -4   1 -13    1.77    0.31
  -4   1 -13    1.48    0.32
   4  -1  13    1.85    0.34
  -5   1 -13   -0.02    0.27
  -5   1 -13   -0.03    0.29
  -5   0  13    4.72    0.56
   4   0 -13   -0.51    0.31
  -4   0  13    0.39    0.29
   3   0 -13    4.20    0.53
  -3   0  13    5.61    0.51
   2   0 -13    7.01    0.51
  -2   0  13    7.81    0.49
   1   0 -13    4.60    0.41
   1   0 -13    4.71    0.44
   1   0 -13    4.40    0.46
  -1   0  13    4.77    0.43
  -1   0  13    5.44    0.34
   0   0 -13    3.72    0.34
   0   0 -13    4.65    0.41
   0   0 -13    4.32    0.38
   0   0  13    4.78    0.34
   0   0  13    4.52    0.42
   0   0  13    3.91    0.27
  -1   0 -13   -0.13    0.21
  -1   0 -13   -0.09    0.20
  -1   0 -13   -0.41    0.15
   1   0  13    0.17    0.18
   1   0  13    0.14    0.24
  -2   0 -13    0.19    0.22
  -2   0 -13    0.13    0.22
   2   0  13    0.34    0.26
   2   0  13    0.52    0.19
  -3   0 -13   17.05    0.65
  -3   0 -13   18.13    0.65
   3   0  13   17.48    0.69
  -4   0 -13    0.41    0.26
  -4   0 -13   -0.18    0.23
   4   0  13    0.46    0.31
  -5   0 -13    2.23    0.36
  -5   0 -13    2.50    0.39
   5   0  13    2.58    0.43
  -5   1  13    2.24    0.42
  -4   1  13    1.68    0.36
   3  -1 -13   -0.33    0.27
  -3   1  13    0.81    0.31
  -3   1  13    0.79    0.27
   2  -1 -13   32.72    0.91
  -2   1  13   32.41    0.82
  -2   1  13   30.95    0.90
   1  -1 -13    3.59    0.40
   1  -1 -13    4.10    0.40
  -1   1  13    4.20    0.36
  -1   1  13    4.07    0.42
   0  -1 -13    3.16    0.38
   0  -1 -13    2.69    0.38
   0   1  13    3.18    0.38
   0   1  13    3.49    0.32
  -1  -1 -13    0.31    0.22
  -1  -1 -13    0.82    0.24
   1   1  13    0.70    0.21
   1   1  13    0.45    0.25
  -2  -1 -13    0.89    0.25
  -2  -1 -13    0.98    0.26
   2   1  13    0.65    0.29
   2   1  13    0.96    0.22
  -3  -1 -13    0.62    0.25
  -3  -1 -13    0.72    0.25
   3   1  13    1.13    0.25
   3   1  13    0.60    0.31
  -4  -1 -13    5.51    0.50
  -4  -1 -13    5.70    0.45
   4   1  13    7.35    0.64
  -5  -1 -13    0.08    0.26
   5   1  13    0.57    0.37
  -5   2  13    5.17    0.65
  -4   2  13    2.88    0.43
  -4   2  13    3.27    0.51
  -3   2  13    1.37    0.26
  -3   2  13    0.98    0.31
  -2   2  13    1.45    0.30
  -2   2  13    1.60    0.25
   1  -2 -13    2.25    0.30
   1  -2 -13    2.12    0.30
  -1   2  13    2.05    0.24
  -1   2  13    2.82    0.34
   0  -2 -13    6.02    0.42
   0  -2 -13    5.68    0.40
   0   2  13    6.24    0.39
   0   2  13    5.59    0.43
  -1  -2 -13    3.67    0.37
  -1  -2 -13    3.25    0.35
   1   2  13    3.46    0.44
   1   2  13    3.81    0.38
  -2  -2 -13    2.50    0.29
  -2  -2 -13    2.64    0.33
   2   2  13    2.60    0.35
   2   2  13    2.42    0.28
  -3  -2 -13    2.63    0.34
   3   2  13    3.88    0.47
   3   2  13    3.79    0.54
  -4  -2 -13   10.56    0.59
   4   2  13   10.31    0.70
   4   2  13   11.25    0.59
  -5  -2 -13    0.69    0.32
   5   2  13    0.85    0.42
  -4   3  13    0.66    0.26
  -4   3  13    0.64    0.35
  -3   3  13    2.70    0.31
  -3   3  13    3.04    0.40
  -2   3  13    1.61    0.26
  -2   3  13    1.32    0.32
   1  -3 -13   21.15    0.70
  -1   3  13   22.17    0.74
  -1   3  13   23.28    0.69
   0  -3 -13   17.91    0.61
   0   3  13   16.89    0.63
   0   3  13   17.84    0.58
  -1  -3 -13    1.26    0.25
   1   3  13    1.39    0.24
   1   3  13    1.03    0.26
  -2  -3 -13    0.20    0.23
   2   3  13    0.48    0.23
   2   3  13    0.30    0.27
  -3  -3 -13   -0.08    0.23
   3   3  13   -0.05    0.30
   3   3  13    0.38    0.24
  -4  -3 -13    0.42    0.27
   4   3  13    0.37    0.27
   4   3  13    0.62    0.35
  -5  -3 -13    2.78    0.43
   5   3  13    2.39    0.36
   5   3  13    3.46    0.52
  -4   4  13    6.94    0.56
  -4   4  13    5.58    0.66
  -3   4  13    3.91    0.54
  -3   4  13    3.80    0.48
  -2   4  13    6.40    0.49
  -2   4  13    5.54    0.53
   1  -4 -13    0.63    0.24
  -1   4  13    0.84    0.22
  -1   4  13    0.70    0.27
   0  -4 -13    0.53    0.23
   0   4  13    0.50    0.21
   0   4  13    0.52    0.25
  -1  -4 -13    1.82    0.29
   1   4  13    1.71    0.29
   1   4  13    2.04    0.26
  -2  -4 -13    2.37    0.32
   2   4  13    3.24    0.41
   2   4  13    2.95    0.37
  -3  -4 -13    2.67    0.36
   3   4  13    2.17    0.37
   3   4  13    2.36    0.31
  -4  -4 -13    9.73    0.61
   4   4  13   10.39    0.72
   4   4  13   11.25    0.63
  -5  -4 -13    2.27    0.41
   5   4  13    2.65    0.49
   5   4  13    2.32    0.38
  -3   5  13    0.45    0.26
  -3   5  13    0.37    0.32
  -2   5  13    2.46    0.30
  -2   5  13    2.53    0.37
   1  -5 -13    5.35    0.44
  -1   5  13    5.53    0.43
  -1   5  13    5.62    0.49
   0  -5 -13    2.71    0.32
   0   5  13    3.22    0.44
   0   5  13    2.86    0.29
  -1  -5 -13   12.37    0.55
   1   5  13   11.99    0.56
   1   5  13   12.06    0.50
  -2  -5 -13    7.89    0.49
   2   5  13    8.09    0.49
   2   5  13    8.61    0.57
  -3  -5 -13    0.29    0.26
   3   5  13    0.69    0.26
   3   5  13    0.76    0.33
  -4  -5 -13    0.15    0.29
   4   5  13    0.41    0.29
   4   5  13    0.51    0.38
  -3   6  13    5.05    0.53
  -3   6  13    4.11    0.58
  -2   6  13    2.37    0.38
  -2   6  13    2.21    0.31
   1  -6 -13    7.28    0.49
  -1   6  13    7.27    0.56
  -1   6  13    7.88    0.49
   0  -6 -13    3.70    0.41
   0   6  13    4.08    0.48
   0   6  13    3.52    0.40
  -1  -6 -13    3.59    0.43
   1   6  13    3.43    0.47
   1   6  13    3.04    0.37
  -2  -6 -13    0.20    0.25
   2   6  13    0.46    0.24
   2   6  13    0.80    0.31
  -3  -6 -13    1.53    0.32
   3   6  13    2.00    0.39
   3   6  13    1.77    0.31
   1  -7 -13    0.68    0.27
  -1   7  13    0.73    0.24
  -1   7  13    1.03    0.31
   0  -7 -13    5.10    0.45
   0   7  13    5.74    0.44
   0   7  13    5.69    0.53
  -1  -7 -13    0.71    0.28
   1   7  13    0.80    0.23
   1   7  13    0.95    0.31
  -2  -7 -13    1.80    0.33
   2   7  13    1.89    0.29
   2   7  13    2.40    0.38
   2   6 -14    2.41    0.48
  -2  -6  14    2.85    0.43
   1   6 -14   -0.13    0.36
   1   6 -14    0.18    0.29
  -1  -6  14    0.56    0.32
   0   6 -14   -0.53    0.31
   0   6 -14   -0.44    0.24
   0  -6  14   -0.18    0.27
  -1   6 -14    3.46    0.44
  -1   6 -14    3.38    0.37
   1  -6  14    3.31    0.40
  -2   6 -14    1.68    0.31
  -2   6 -14    1.68    0.40
   2  -6  14    1.38    0.35
   3   5 -14    2.56    0.42
   3   5 -14    3.29    0.53
  -3  -5  14    2.89    0.45
   2   5 -14    0.49    0.38
   2   5 -14    0.54    0.29
  -2  -5  14    1.39    0.36
   1   5 -14    1.36    0.30
   1   5 -14    1.98    0.41
  -1  -5  14    2.03    0.35
   0   5 -14    1.63    0.30
   0   5 -14    1.97    0.39
   0  -5  14    1.97    0.32
  -1   5 -14    2.40    0.32
  -1   5 -14    2.83    0.40
   1  -5  14    2.11    0.32
  -2   5 -14    8.09    0.52
  -2   5 -14    8.62    0.61
   2  -5  14    7.67    0.56
  -3   5 -14    5.82    0.60
  -3   5 -14    5.47    0.49
   3   4 -14    1.54    0.35
   3   4 -14    3.05    0.50
  -3  -4  14    2.43    0.43
   2   4 -14   -0.44    0.33
   2   4 -14   -0.25    0.27
  -2  -4  14    0.26    0.29
   1   4 -14    3.53    0.37
   1   4 -14    3.64    0.45
  -1  -4  14    3.37    0.44
   0   4 -14    2.13    0.29
   0   4 -14    2.85    0.40
   0  -4  14    2.09    0.29
  -1   4 -14    3.16    0.47
  -1   4 -14    3.07    0.40
   1  -4  14    3.53    0.41
  -2   4 -14    1.78    0.35
  -2   4 -14    1.36    0.26
  -3   4 -14    8.70    0.52
  -3   4 -14    8.94    0.62
  -4   4 -14   20.64    0.75
  -4   4 -14   20.79    0.87
   4   3 -14    0.15    0.42
   3   3 -14   -0.02    0.28
   3   3 -14    0.66    0.39
   2   3 -14    8.40    0.63
   2   3 -14    7.76    0.52
  -2  -3  14    8.63    0.57
   1   3 -14    0.15    0.31
   1   3 -14   -0.13    0.22
  -1  -3  14    0.32    0.23
   0   3 -14    0.13    0.27
   0   3 -14    0.16    0.22
   0  -3  14    0.46    0.20
  -1   3 -14    5.50    0.50
  -1   3 -14    5.02    0.42
   1  -3  14    5.31    0.38
  -2   3 -14    0.17    0.27
  -2   3 -14    0.17    0.21
  -3   3 -14    8.89    0.50
  -3   3 -14    9.09    0.60
  -4   3 -14   10.66    0.67
  -4   3 -14   10.25    0.55
   4   2 -14    0.52    0.41
   3   2 -14   -0.42    0.32
   2   2 -14    6.02    0.57
   2   2 -14    6.20    0.47
   2   2 -14    5.38    0.46
   1   2 -14    2.16    0.29
   1   2 -14    2.01    0.29
   1   2 -14    1.89    0.35
  -1  -2  14    2.25    0.28
   0   2 -14    1.61    0.32
   0   2 -14    0.98    0.23
   0   2 -14    1.48    0.26
   0  -2  14    1.47    0.21
  -1   2 -14    2.21    0.34
  -1   2 -14    2.13    0.29
  -1   2 -14    1.27    0.24
   1  -2  14    3.26    0.42
  -2   2 -14   14.18    0.58
  -2   2 -14   13.48    0.55
  -2   2 -14   13.61    0.64
   2  -2  14   13.98    0.87
  -3   2 -14   -0.05    0.27
  -3   2 -14    0.03    0.20
  -4   2 -14   19.60    0.80
  -5   2 -14    8.56    0.65
   4   1 -14    0.07    0.38
   3   1 -14    3.17    0.46
  -3  -1  14    4.66    0.44
   2   1 -14    0.15    0.24
   2   1 -14   -0.23    0.27
  -2  -1  14    0.68    0.25
   1   1 -14    8.38    0.47
   1   1 -14    9.65    0.57
   1   1 -14   10.39    0.53
  -1  -1  14   10.65    0.54
   0   1 -14    4.01    0.38
   0   1 -14    5.18    0.42
   0   1 -14    4.65    0.46
   0  -1  14    4.56    0.31
   0  -1  14    6.04    0.46
  -1   1 -14    0.66    0.26
  -1   1 -14    1.27    0.27
  -1   1 -14    0.65    0.21
   1  -1  14    1.26    0.29
  -2   1 -14    8.13    0.44
  -2   1 -14    8.36    0.53
  -2   1 -14    9.33    0.50
   2  -1  14    9.51    0.55
  -3   1 -14    1.45    0.32
  -3   1 -14    2.00    0.31
   3  -1  14    2.27    0.35
  -4   1 -14    2.46    0.38
  -4   1 -14    2.03    0.33
  -5   1 -14    5.33    0.56
  -5   1 -14    5.06    0.70
   4   0 -14    2.58    0.46
  -4   0  14    4.11    0.57
   3   0 -14    0.86    0.34
   2   0 -14    0.89    0.31
   2   0 -14    1.64    0.30
  -2   0  14    1.68    0.30
   1   0 -14    4.59    0.45
   1   0 -14    4.91    0.43
  -1   0  14    5.88    0.47
   0   0 -14    4.09    0.43
   0   0 -14    4.72    0.41
   0   0  14    5.05    0.47
  -1   0 -14   -0.23    0.22
  -1   0 -14    0.21    0.22
   1   0  14    0.24    0.27
  -2   0 -14    0.09    0.22
  -2   0 -14   -0.31    0.21
   2   0  14    0.45    0.27
  -3   0 -14   14.83    0.64
  -3   0 -14   14.68    0.64
   3   0  14   15.13    0.68
  -4   0 -14    2.42    0.36
  -4   0 -14    2.29    0.35
   4   0  14    2.87    0.41
  -5   0 -14   18.16    0.76
  -5   0 -14   18.40    0.78
   5   0  14   19.53    0.87
  -4   1  14    0.51    0.34
   3  -1 -14   -0.50    0.28
  -3   1  14    0.89    0.32
   2  -1 -14    5.19    0.50
  -2   1  14    7.76    0.46
  -2   1  14    7.36    0.54
   1  -1 -14    0.60    0.27
   1  -1 -14    0.54    0.25
  -1   1  14    1.09    0.29
  -1   1  14    1.11    0.22
   0  -1 -14    2.92    0.34
   0  -1 -14    2.22    0.32
   0   1  14    3.02    0.35
   0   1  14    3.63    0.36
  -1  -1 -14    5.75    0.45
  -1  -1 -14    5.56    0.45
   1   1  14    5.98    0.50
   1   1  14    6.63    0.42
  -2  -1 -14    5.06    0.43
  -2  -1 -14    5.56    0.45
   2   1  14    5.32    0.53
   2   1  14    6.67    0.44
  -3  -1 -14    5.63    0.46
  -3  -1 -14    5.90    0.48
   3   1  14    6.07    0.57
   3   1  14    6.76    0.58
  -4  -1 -14    7.96    0.56
  -4  -1 -14    7.29    0.68
   4   1  14    8.21    0.67
  -5  -1 -14    0.40    0.30
   5   1  14    0.83    0.40
  -4   2  14    7.34    0.66
  -3   2  14    7.64    0.65
  -3   2  14    9.31    0.56
  -2   2  14    1.97    0.35
  -2   2  14    1.77    0.26
   1  -2 -14    5.33    0.44
  -1   2  14    6.17    0.43
  -1   2  14    5.76    0.48
   0  -2 -14    0.06    0.27
   0  -2 -14    0.53    0.25
   0   2  14    0.39    0.25
   0   2  14    0.43    0.20
  -1  -2 -14    3.55    0.50
  -1  -2 -14    3.43    0.40
   1   2  14    3.41    0.46
   1   2  14    4.58    0.44
  -2  -2 -14    0.77    0.26
   2   2  14    0.97    0.23
   2   2  14    1.26    0.33
  -3  -2 -14    1.48    0.31
   3   2  14    1.84    0.38
   3   2  14    1.53    0.29
  -4  -2 -14    7.84    0.56
   4   2  14    8.63    0.69
   4   2  14    8.15    0.56
  -5  -2 -14    4.53    0.55
   5   2  14    5.90    0.75
  -4   3  14    0.49    0.36
  -3   3  14    0.96    0.26
  -3   3  14    0.61    0.34
  -2   3  14    0.32    0.23
  -2   3  14    0.40    0.29
   1  -3 -14    6.61    0.48
  -1   3  14    7.30    0.48
  -1   3  14    7.72    0.54
   0  -3 -14    2.83    0.34
   0   3  14    3.09    0.38
   0   3  14    3.13    0.45
  -1  -3 -14    0.04    0.22
   1   3  14    0.16    0.26
   1   3  14    0.32    0.22
  -2  -3 -14    1.63    0.32
   2   3  14    1.65    0.28
   2   3  14    1.32    0.33
  -3  -3 -14    7.17    0.54
   3   3  14    7.88    0.64
   3   3  14    8.15    0.53
  -4  -3 -14    0.62    0.31
   4   3  14    1.00    0.39
   4   3  14    0.98    0.30
  -5  -3 -14    6.86    0.60
   5   3  14    8.43    0.80
   5   3  14    8.65    0.91
  -3   4  14    1.17    0.29
  -3   4  14    1.05    0.36
  -2   4  14    6.51    0.52
  -2   4  14    5.12    0.56
   1  -4 -14    0.66    0.26
  -1   4  14    1.20    0.27
  -1   4  14    1.23    0.31
   0  -4 -14    5.92    0.46
   0   4  14    6.42    0.50
   0   4  14    7.03    0.47
  -1  -4 -14    1.33    0.28
   1   4  14    1.32    0.30
   1   4  14    1.69    0.26
  -2  -4 -14    0.60    0.27
   2   4  14    0.55    0.31
   2   4  14    0.79    0.25
  -3  -4 -14    1.29    0.32
   3   4  14    2.17    0.39
   3   4  14    1.97    0.31
  -4  -4 -14    3.70    0.45
   4   4  14    5.25    0.58
   4   4  14    5.91    0.71
  -3   5  14    0.89    0.30
  -3   5  14    0.92    0.36
  -2   5  14    1.18    0.36
  -2   5  14    1.25    0.29
   1  -5 -14    0.36    0.26
  -1   5  14    0.73    0.31
  -1   5  14    1.08    0.27
   0  -5 -14    3.73    0.42
   0   5  14    4.12    0.44
   0   5  14    4.12    0.49
  -1  -5 -14    3.13    0.36
   1   5  14    4.11    0.43
   1   5  14    4.10    0.47
  -2  -5 -14    1.60    0.32
   2   5  14    1.53    0.28
   2   5  14    1.71    0.35
  -3  -5 -14    0.16    0.28
   3   5  14    0.34    0.34
   3   5  14    0.59    0.27
  -4  -5 -14    3.26    0.43
   4   5  14    5.70    0.70
   4   5  14    4.84    0.58
   2  -6 -14    0.56    0.28
  -2   6  14    1.31    0.30
  -2   6  14    1.17    0.36
   1  -6 -14    2.54    0.35
  -1   6  14    3.70    0.53
  -1   6  14    3.12    0.34
   0  -6 -14    0.08    0.24
   0   6  14    0.53    0.30
   0   6  14    0.71    0.23
  -1  -6 -14    1.40    0.30
   1   6  14    1.60    0.34
   1   6  14    1.34    0.25
  -2  -6 -14    2.36    0.36
   2   6  14    2.50    0.40
   2   6  14    2.44    0.31
  -3  -6 -14    0.06    0.28
   3   6  14    0.67    0.28
   3   6  14    0.49    0.35
   0  -7 -14    1.99    0.33
   0   7  14    2.66    0.38
   0   7  14    2.19    0.30
  -1  -7 -14    0.36    0.28
   1   7  14    0.72    0.24
   1   7  14    0.95    0.32
   2   5 -15    6.65    0.71
   2   5 -15    6.24    0.57
  -2  -5  15    6.92    0.63
   1   5 -15    1.46    0.41
   1   5 -15    0.98    0.30
  -1  -5  15    1.69    0.34
   0   5 -15    0.04    0.33
   0   5 -15    0.15    0.26
   0  -5  15    0.27    0.27
  -1   5 -15    4.96    0.50
  -1   5 -15    5.17    0.57
   1  -5  15    5.39    0.50
  -2   5 -15    3.06    0.44
  -2   5 -15    2.91    0.36
   3   4 -15    1.25    0.37
   3   4 -15    1.75    0.48
  -3  -4  15    2.05    0.41
   2   4 -15   -0.48    0.26
   2   4 -15   -0.30    0.36
  -2  -4  15    0.50    0.31
   1   4 -15    6.79    0.52
   1   4 -15    7.22    0.64
  -1  -4  15    7.50    0.52
   0   4 -15    1.71    0.38
   0   4 -15    1.63    0.31
   0  -4  15    2.03    0.30
  -1   4 -15    1.72    0.37
  -1   4 -15    1.77    0.31
  -2   4 -15    4.48    0.46
  -2   4 -15    4.53    0.55
  -3   4 -15   -0.25    0.22
  -3   4 -15   -0.37    0.30
   3   3 -15    7.04    0.62
   3   3 -15    6.66    0.70
  -3  -3  15    6.66    0.67
   2   3 -15   11.54    0.61
   2   3 -15   13.01    0.74
  -2  -3  15   12.28    0.65
   1   3 -15    3.87    0.38
   1   3 -15    4.09    0.56
  -1  -3  15    4.02    0.42
   0   3 -15    3.53    0.51
   0   3 -15    3.22    0.42
   0  -3  15    3.74    0.39
  -1   3 -15   -0.07    0.22
  -1   3 -15   -0.09    0.28
  -2   3 -15    4.38    0.52
  -2   3 -15    3.81    0.43
  -3   3 -15   16.88    0.66
  -3   3 -15   17.70    0.80
  -4   3 -15    1.47    0.38
   3   2 -15    2.82    0.49
   2   2 -15    3.96    0.47
   2   2 -15    3.86    0.47
  -2  -2  15    3.45    0.38
   1   2 -15    0.43    0.26
   1   2 -15    0.87    0.35
   1   2 -15    0.53    0.32
  -1  -2  15    1.15    0.25
   0   2 -15    6.35    0.45
   0   2 -15    6.99    0.55
   0   2 -15    7.54    0.47
   0  -2  15    6.52    0.40
  -1   2 -15    8.92    0.57
  -1   2 -15    8.73    0.49
  -1   2 -15    9.21    0.51
  -2   2 -15   -0.21    0.26
  -2   2 -15   -0.25    0.20
  -3   2 -15    5.48    0.54
  -4   2 -15    0.99    0.35
   4   1 -15    5.28    0.68
   3   1 -15    0.77    0.38
  -3  -1  15    2.12    0.46
   2   1 -15    4.26    0.48
   2   1 -15    4.83    0.48
  -2  -1  15    5.75    0.47
   1   1 -15   31.56    0.90
   1   1 -15   29.76    0.92
  -1  -1  15   27.82    0.79
  -1  -1  15   31.25    0.89
   0   1 -15    0.18    0.27
   0   1 -15    0.46    0.24
   0  -1  15    1.00    0.29
  -1   1 -15    3.02    0.45
  -1   1 -15    3.90    0.42
  -2   1 -15    2.01    0.30
  -2   1 -15    1.43    0.32
  -3   1 -15    0.52    0.24
  -3   1 -15    0.30    0.28
   3  -1  15    0.90    0.31
  -4   1 -15   20.59    0.79
  -4   1 -15   19.96    0.82
  -4   0  15    9.71    0.68
   3   0 -15   -0.72    0.29
  -3   0  15    0.78    0.30
   2   0 -15    5.22    0.48
   2   0 -15    3.69    0.51
  -2   0  15    6.01    0.50
   1   0 -15    3.77    0.46
   1   0 -15    5.00    0.45
  -1   0  15    5.41    0.48
   0   0 -15    5.98    0.48
   0   0 -15    5.58    0.49
   0   0  15    6.92    0.55
  -1   0 -15    0.88    0.28
  -1   0 -15    1.32    0.29
   1   0  15    1.59    0.33
  -2   0 -15    9.94    0.56
  -2   0 -15   11.32    0.57
   2   0  15   10.90    0.62
  -3   0 -15    5.30    0.51
  -3   0 -15    6.57    0.52
   3   0  15    7.43    0.59
  -4   0 -15    2.48    0.38
  -4   0 -15    2.31    0.36
  -4   1  15    9.90    0.70
  -3   1  15    7.78    0.62
   2  -1 -15   12.94    0.64
   2  -1 -15   13.13    0.64
  -2   1  15   14.42    0.69
   1  -1 -15    0.07    0.26
   1  -1 -15    0.46    0.26
  -1   1  15    1.25    0.33
  -1   1  15    0.88    0.30
   0  -1 -15   28.27    0.85
   0  -1 -15   28.57    0.85
   0   1  15   27.57    0.77
   0   1  15   28.00    0.88
  -1  -1 -15    1.55    0.30
  -1  -1 -15    2.36    0.35
   1   1  15    3.53    0.40
   1   1  15    2.30    0.36
  -2  -1 -15    0.93    0.29
  -2  -1 -15    0.58    0.26
   2   1  15    1.63    0.35
  -3  -1 -15    4.36    0.47
  -3  -1 -15    5.18    0.49
   3   1  15    6.53    0.61
  -4  -1 -15    2.74    0.40
   4   1  15    4.64    0.66
  -3   2  15    0.86    0.35
   2  -2 -15    0.14    0.26
  -2   2  15    0.58    0.32
  -2   2  15    0.94    0.23
   1  -2 -15    3.89    0.46
  -1   2  15    5.49    0.44
  -1   2  15    4.92    0.52
   0  -2 -15    2.85    0.36
   0   2  15    3.42    0.49
   0   2  15    3.50    0.37
  -1  -2 -15    8.05    0.52
   1   2  15    8.46    0.61
   1   2  15    9.44    0.53
  -2  -2 -15    0.98    0.29
   2   2  15    1.16    0.35
   2   2  15    1.17    0.24
  -3  -2 -15    3.82    0.50
   3   2  15    5.14    0.53
   3   2  15    5.14    0.66
  -4  -2 -15   11.19    0.68
   4   2  15   13.66    0.81
  -3   3  15    8.77    0.59
  -3   3  15    7.59    0.67
   2  -3 -15    1.17    0.31
  -2   3  15    1.77    0.29
  -2   3  15    1.78    0.37
   1  -3 -15   18.23    0.71
  -1   3  15   18.35    0.75
  -1   3  15   19.83    0.68
   0  -3 -15    9.08    0.54
   0   3  15   10.83    0.52
   0   3  15    9.26    0.57
  -1  -3 -15    8.64    0.53
   1   3  15   10.17    0.61
   1   3  15   10.80    0.56
  -2  -3 -15    4.85    0.50
   2   3  15    6.46    0.49
   2   3  15    5.13    0.59
  -3  -3 -15    0.22    0.28
   3   3  15    0.68    0.27
   3   3  15    0.86    0.37
  -4  -3 -15    4.15    0.56
   4   3  15    5.72    0.58
   4   3  15    5.73    0.70
  -3   4  15   26.94    0.88
  -3   4  15   27.22    1.02
  -2   4  15    5.48    0.52
  -2   4  15    4.40    0.60
   1  -4 -15    1.00    0.29
  -1   4  15    1.25    0.34
  -1   4  15    1.26    0.27
   0  -4 -15    3.52    0.44
   0   4  15    4.87    0.46
   0   4  15    4.52    0.54
  -1  -4 -15    0.12    0.26
   1   4  15    0.81    0.25
   1   4  15    0.64    0.30
  -2  -4 -15    4.28    0.50
   2   4  15    5.02    0.50
   2   4  15    4.97    0.61
  -3  -4 -15    2.81    0.39
   3   4  15    4.63    0.52
   3   4  15    4.17    0.63
  -4  -4 -15    0.24    0.31
   4   4  15    0.52    0.31
   4   4  15    0.97    0.42
   2  -5 -15    3.76    0.50
  -2   5  15    5.37    0.60
  -2   5  15    5.70    0.55
   1  -5 -15    0.19    0.26
  -1   5  15    0.52    0.33
  -1   5  15    0.51    0.25
   0  -5 -15    7.24    0.52
   0   5  15    8.42    0.62
   0   5  15    8.95    0.54
  -1  -5 -15   12.79    0.63
   1   5  15   12.32    0.66
   1   5  15   13.66    0.61
  -2  -5 -15    0.41    0.28
   2   5  15    1.08    0.29
   2   5  15    0.73    0.35
  -3  -5 -15    3.49    0.45
   3   5  15    4.22    0.52
   3   5  15    5.03    0.63
   1  -6 -15    3.84    0.48
  -1   6  15    4.54    0.58
  -1   6  15    4.43    0.51
   0  -6 -15    1.05    0.31
   0   6  15    1.43    0.27
   0   6  15    1.62    0.35
  -1  -6 -15    2.78    0.39
   1   6  15    4.63    0.49
   1   6  15    4.39    0.56
  -2  -6 -15    1.05    0.33
   2   6  15    1.30    0.30
   2   6  15    1.50    0.38
   0   5 -16    1.30    0.33
   0   5 -16    1.38    0.41
   0  -5  16    1.52    0.33
   2   4 -16    2.03    0.51
  -2  -4  16    2.50    0.39
   1   4 -16    3.54    0.41
   1   4 -16    3.87    0.51
  -1  -4  16    4.75    0.50
   0   4 -16    0.51    0.36
   0   4 -16   -0.14    0.25
   0  -4  16    0.72    0.30
  -1   4 -16    1.53    0.32
  -1   4 -16    1.66    0.40
  -2   4 -16   -0.05    0.33
  -2   4 -16    0.01    0.26
   2   3 -16   -0.66    0.36
  -2  -3  16    0.01    0.28
   1   3 -16    4.41    0.59
   1   3 -16    4.22    0.42
  -1  -3  16    4.83    0.44
   0   3 -16    2.45    0.42
   0   3 -16    2.16    0.32
  -1   3 -16   -0.11    0.30
  -1   3 -16   -0.04    0.24
  -2   3 -16    7.15    0.61
  -2   3 -16    7.13    0.51
  -3   3 -16   -0.22    0.31
   3   2 -16   -0.61    0.38
   2   2 -16    4.84    0.61
  -2  -2  16    4.50    0.53
   1   2 -16    0.77    0.35
  -1  -2  16    1.21    0.25
   0   2 -16    5.55    0.55
  -1   2 -16    2.27    0.39
  -2   2 -16    0.90    0.33
  -3   2 -16    2.05    0.41
   3   1 -16   10.64    0.74
   3   1 -16   13.16    0.96
   2   1 -16    9.20    0.68
   2   1 -16   10.27    0.61
  -2  -1  16   12.19    0.90
   1   1 -16    3.09    0.41
   1   1 -16    4.23    0.47
   0   1 -16    2.02    0.32
   0   1 -16    1.79    0.36
  -1   1 -16    4.97    0.51
  -1   1 -16    6.15    0.48
   1  -1  16    7.77    0.55
  -2   1 -16    0.41    0.25
  -2   1 -16   -0.33    0.26
  -3   1 -16    7.22    0.60
  -3   1 -16    8.84    0.57
  -4   1 -16    1.11    0.36
   3   0 -16   -0.33    0.33
   3   0 -16    1.14    0.32
   2   0 -16    3.64    0.54
   2   0 -16    5.11    0.52
   1   0 -16   12.22    0.63
   1   0 -16   10.85    0.64
  -1   0  16   13.08    0.65
   0   0 -16   -0.23    0.27
   0   0 -16    0.53    0.25
   0   0  16    0.94    0.30
  -1   0 -16    3.62    0.41
  -1   0 -16    4.19    0.48
   1   0  16    5.40    0.56
  -2   0 -16    3.15    0.40
  -2   0 -16    4.05    0.48
   2   0  16    5.07    0.55
  -3   0 -16   -0.30    0.26
  -3   0 -16    0.32    0.27
   3   0  16    1.17    0.34
  -4   0 -16    3.25    0.44
  -4   0 -16    4.10    0.54
  -3   1  16   13.20    0.75
   2  -1 -16    2.97    0.40
   1  -1 -16   12.89    0.63
   1  -1 -16   10.81    0.69
  -1   1  16   13.11    0.66
   0  -1 -16   11.67    0.61
   0  -1 -16   10.78    0.60
   0   1  16   13.01    0.67
  -1  -1 -16    0.17    0.25
  -1  -1 -16   -0.22    0.24
   1   1  16    0.67    0.32
  -2  -1 -16    4.86    0.52
  -2  -1 -16    4.40    0.59
   2   1  16    6.25    0.62
  -3  -1 -16    2.50    0.39
  -4  -1 -16    3.44    0.46
   4   1  16    5.55    0.70
  -3   2  16   13.15    0.78
   2  -2 -16    0.59    0.29
  -2   2  16    1.61    0.37
   1  -2 -16   11.49    0.61
  -1   2  16   12.29    0.68
  -1   2  16   13.83    0.59
   0  -2 -16   11.27    0.61
   0   2  16   12.10    0.67
   0   2  16   12.64    0.56
  -1  -2 -16    3.32    0.40
   1   2  16    5.34    0.48
   1   2  16    4.32    0.57
  -2  -2 -16    0.33    0.28
   2   2  16    1.19    0.37
  -3  -2 -16    2.69    0.40
  -4  -2 -16    0.90    0.34
   4   2  16    1.32    0.43
   2  -3 -16   16.30    0.73
  -2   3  16   17.42    0.82
  -2   3  16   18.62    0.70
   1  -3 -16    2.01    0.34
  -1   3  16    2.07    0.38
   0  -3 -16    2.43    0.37
   0   3  16    3.78    0.56
  -1  -3 -16   11.86    0.64
   1   3  16   14.22    0.64
  -2  -3 -16    1.34    0.34
   2   3  16    1.73    0.29
   2   3  16    1.47    0.39
  -3  -3 -16    1.28    0.36
   3   3  16    2.05    0.44
  -2   4  16    5.22    0.55
  -2   4  16    4.21    0.60
   1  -4 -16    0.20    0.27
  -1   4  16    0.76    0.26
  -1   4  16    0.44    0.33
   0  -4 -16   11.94    0.63
   0   4  16   13.46    0.60
   0   4  16   12.50    0.68
  -1  -4 -16    4.51    0.52
   1   4  16    6.47    0.63
   1   4  16    6.51    0.54
  -2  -4 -16    4.05    0.52
   2   4  16    5.48    0.53
   2   4  16    4.73    0.62
  -3  -4 -16    0.47    0.31
   3   4  16    1.07    0.30
   3   4  16    1.51    0.42
   1  -5 -16    9.49    0.61
  -1   5  16   11.37    0.61
  -1   5  16   10.71    0.69
   0  -5 -16   10.35    0.63
   0   5  16   11.50    0.59
   0   5  16   11.18    0.66
  -1  -5 -16    0.80    0.31
   1   5  16    1.27    0.36
   1   5  16    1.62    0.30
  -2  -5 -16    5.79    0.56
   2   5  16    7.09    0.57
   2   5  16    6.32    0.64
   1   3 -17   -0.25    0.36
   0   3 -17   -0.31    0.32
  -1   3 -17    1.43    0.40
  -2   3 -17    9.56    0.69
   2   2 -17   -0.73    0.36
  -2  -2  17   -0.10    0.27
   1   2 -17   -0.23    0.32
   0   2 -17   21.31    0.86
  -1   2 -17    4.31    0.57
  -2   2 -17    2.20    0.42
  -3   2 -17   -0.33    0.32
   2   1 -17   -0.68    0.33
   2   1 -17    0.49    0.49
   1   1 -17    0.54    0.28
   1   1 -17   -0.68    0.30
   0   1 -17    1.99    0.35
   0   1 -17    1.00    0.35
  -1   1 -17    2.20    0.36
  -1   1 -17    1.38    0.36
   1  -1  17    3.41    0.60
  -2   1 -17    0.56    0.28
  -2   1 -17    0.07    0.29
  -3   1 -17    4.92    0.58
   2   0 -17    0.63    0.31
   2   0 -17   -0.24    0.32
   1   0 -17    0.44    0.29
  -1   0  17    1.09    0.32
   0   0 -17    0.63    0.32
   0   0 -17    1.49    0.32
  -1   0 -17   11.92    0.66
  -1   0 -17   13.47    0.67
   1   0  17   15.53    0.76
  -2   0 -17   13.58    0.69
  -2   0 -17   12.63    0.69
   2   0  17   14.44    0.74
  -3   0 -17    0.61    0.33
  -3   0 -17    1.34    0.35
   2  -1 -17    4.76    0.55
  -2   1  17    6.34    0.64
   1  -1 -17    2.26    0.37
  -1   1  17    4.14    0.59
   0  -1 -17    0.67    0.29
   0   1  17    1.76    0.36
  -1  -1 -17    1.11    0.32
   1   1  17    2.35    0.39
  -2  -1 -17    6.06    0.56
   2   1  17    8.04    0.69
  -3  -1 -17    1.01    0.34
   2  -2 -17    0.89    0.34
  -2   2  17    2.06    0.40
   1  -2 -17    0.14    0.28
  -1   2  17    0.99    0.34
   0  -2 -17    0.53    0.30
   0   2  17    1.53    0.36
  -1  -2 -17    6.59    0.58
   1   2  17    8.26    0.66
  -2  -2 -17    1.52    0.36
   2   2  17    2.18    0.41
  -3  -2 -17    9.25    0.67
   3   2  17   11.14    0.79
   1  -3 -17    2.88    0.42
  -1   3  17    4.16    0.61
   0   3  17    4.34    0.59
   0   3  17    5.16    0.50
   1   3  17    6.37    0.54
   1   3  17    4.72    0.61
  -2  -3 -17    0.12    0.29
   2   3  17    1.36    0.40
   0  -4 -17    0.46    0.29
   0   4  17    1.13    0.35
   0   4  17    1.02    0.25
  -1  -4 -17    1.87    0.38
   1   4  17    2.47    0.42
   0   2 -18   15.02    0.81
  -1   2 -18   12.75    0.74
   0   1 -18   -0.66    0.31
  -1   1 -18    0.01    0.32
  -2   1 -18    0.36    0.34
   1   0 -18    0.54    0.29
   0   0 -18   -0.20    0.32
   0   0 -18    0.87    0.31
  -1   0 -18   46.40    1.27
  -1   0 -18   45.30    1.30
   1   0  18   47.21    1.25
  -2   0 -18    1.74    0.35
  -2   0 -18    1.43    0.51
  -1   1  18    5.39    0.60
   0  -1 -18    0.47    0.29
   0   1  18    1.36    0.36
  -1  -1 -18    0.92    0.32
  -2  -1 -18    0.60    0.32
   0  -2 -18    0.24    0.29
   0   2  18    1.13    0.36
  -1  -2 -18    1.08    0.35
   1   2  18    1.55    0.40
   0   0   0    0.00    0.00
;
_shelx_hkl_checksum              82545
loop_
_space_group_symop_operation_xyz
'x, y, z'
'-x, -y, -z'
loop_
_atom_site_label
_atom_site_type_symbol
_atom_site_fract_x
_atom_site_fract_y
_atom_site_fract_z
_atom_site_U_iso_or_equiv
_atom_site_adp_type
_atom_site_occupancy
_atom_site_site_symmetry_order
_atom_site_calc_flag
_atom_site_refinement_flags_posn
_atom_site_refinement_flags_adp
C1 C 0.3831(3) 0.2843(2) 0.23535(12) 0.0190(3) Uani 1 1 d . .
C2 C 0.4147(3) 0.2712(2) 0.33657(13) 0.0237(4) Uani 1 1 d . .
H2 H 0.5548 0.2207 0.3601 0.028 Uiso 1 1 calc R U
C3 C 0.2387(3) 0.3332(2) 0.40171(13) 0.0263(4) Uani 1 1 d . .
H3 H 0.2588 0.3255 0.4706 0.032 Uiso 1 1 calc R U
C4 C 0.0302(3) 0.4074(2) 0.36756(14) 0.0266(4) Uani 1 1 d . .
H4 H -0.0895 0.4474 0.4138 0.032 Uiso 1 1 calc R U
C5 C -0.0033(3) 0.4231(2) 0.26767(14) 0.0240(4) Uani 1 1 d . .
H5 H -0.1433 0.4744 0.2445 0.029 Uiso 1 1 calc R U
C6 C 0.1749(3) 0.3612(2) 0.20209(12) 0.0187(3) Uani 1 1 d . .
C7 C 0.4605(3) 0.2601(2) 0.07583(12) 0.0183(3) Uani 1 1 d . .
C8 C 0.5286(3) 0.2525(2) -0.10351(12) 0.0195(3) Uani 1 1 d . .
C9 C 0.6908(3) 0.1912(2) -0.18723(12) 0.0181(3) Uani 1 1 d . .
C10 C 0.6178(3) 0.2255(2) -0.28263(13) 0.0237(4) Uani 1 1 d . .
H10 H 0.4734 0.2861 -0.2920 0.028 Uiso 1 1 calc R U
C11 C 0.7570(3) 0.1707(3) -0.36237(13) 0.0270(4) Uani 1 1 d . .
C12 C 0.9700(3) 0.0835(2) -0.35411(14) 0.0272(4) Uani 1 1 d . .
H12 H 1.0625 0.0486 -0.4110 0.033 Uiso 1 1 calc R U
C13 C 1.0445(3) 0.0487(2) -0.26051(13) 0.0241(4) Uani 1 1 d . .
H13 H 1.1896 -0.0115 -0.2518 0.029 Uiso 1 1 calc R U
C14 C 0.9053(3) 0.1026(2) -0.17995(12) 0.0201(3) Uani 1 1 d . .
N1 N 0.5427(3) 0.22582(19) 0.16120(11) 0.0205(3) Uani 1 1 d . .
N2 N 0.5894(3) 0.21179(19) -0.00965(11) 0.0207(3) Uani 1 1 d . .
O1 O 0.3472(2) 0.33423(18) -0.11874(9) 0.0275(3) Uani 1 1 d . .
F1 F 0.6809(2) 0.20235(19) -0.45429(9) 0.0445(4) Uani 1 1 d . .
F2 F 0.98547(19) 0.06362(15) -0.08952(8) 0.0274(3) Uani 1 1 d . .
S1 S 0.18412(7) 0.36338(6) 0.07355(3) 0.02066(13) Uani 1 1 d . .
H2N H 0.715(4) 0.163(3) 0.0007(18) 0.039(7) Uiso 1 1 d . .
loop_
_atom_site_aniso_label
_atom_site_aniso_U_11
_atom_site_aniso_U_22
_atom_site_aniso_U_33
_atom_site_aniso_U_23
_atom_site_aniso_U_13
_atom_site_aniso_U_12
C1 0.0174(8) 0.0190(8) 0.0205(8) -0.0011(6) -0.0007(6) 0.0006(6)
C2 0.0212(8) 0.0288(9) 0.0209(8) -0.0019(6) -0.0023(7) 0.0035(7)
C3 0.0274(9) 0.0323(9) 0.0189(8) -0.0035(7) -0.0002(7) 0.0017(7)
C4 0.0228(9) 0.0289(9) 0.0273(9) -0.0075(7) 0.0046(7) 0.0019(7)
C5 0.0179(8) 0.0230(8) 0.0310(9) -0.0047(7) -0.0020(7) 0.0023(6)
C6 0.0177(8) 0.0184(7) 0.0202(8) -0.0031(6) -0.0024(6) -0.0011(6)
C7 0.0172(8) 0.0187(7) 0.0189(8) -0.0004(6) -0.0003(6) 0.0011(6)
C8 0.0204(8) 0.0203(8) 0.0180(8) -0.0004(6) -0.0009(6) -0.0021(6)
C9 0.0202(8) 0.0175(7) 0.0166(8) 0.0001(5) -0.0008(6) -0.0031(6)
C10 0.0228(9) 0.0276(9) 0.0209(8) 0.0015(6) -0.0044(7) 0.0000(7)
C11 0.0323(10) 0.0332(10) 0.0163(8) 0.0010(7) -0.0064(7) -0.0022(8)
C12 0.0298(10) 0.0314(10) 0.0201(9) -0.0036(7) 0.0024(7) -0.0007(7)
C13 0.0233(9) 0.0249(9) 0.0239(9) -0.0015(6) -0.0019(7) 0.0020(7)
C14 0.0236(9) 0.0196(8) 0.0172(8) 0.0015(6) -0.0037(6) -0.0015(6)
N1 0.0187(7) 0.0248(7) 0.0179(7) -0.0009(5) -0.0009(5) 0.0041(5)
N2 0.0203(7) 0.0241(7) 0.0171(7) 0.0004(5) -0.0009(6) 0.0041(6)
O1 0.0228(7) 0.0370(7) 0.0222(6) 0.0000(5) -0.0028(5) 0.0067(5)
F1 0.0446(8) 0.0723(9) 0.0163(6) 0.0015(5) -0.0077(5) 0.0107(7)
F2 0.0278(6) 0.0368(6) 0.0169(5) 0.0021(4) -0.0034(4) 0.0093(4)
S1 0.0178(2) 0.0248(2) 0.0196(2) -0.00191(14) -0.00428(15) 0.00317(15)
loop_
_atom_type_symbol
_atom_type_description
_atom_type_scat_dispersion_real
_atom_type_scat_dispersion_imag
_atom_type_scat_source
C C 0.0033 0.0016 'International Tables Vol C Tables 4.2.6.8 and 6.1.1.4'
H H 0.0000 0.0000 'International Tables Vol C Tables 4.2.6.8 and 6.1.1.4'
N N 0.0061 0.0033 'International Tables Vol C Tables 4.2.6.8 and 6.1.1.4'
O O 0.0106 0.0060 'International Tables Vol C Tables 4.2.6.8 and 6.1.1.4'
F F 0.0171 0.0103 'International Tables Vol C Tables 4.2.6.8 and 6.1.1.4'
S S 0.1246 0.1234 'International Tables Vol C Tables 4.2.6.8 and 6.1.1.4'
loop_
_geom_angle_atom_site_label_1
_geom_angle_atom_site_label_2
_geom_angle_atom_site_label_3
_geom_angle
N1 C1 C2 125.39(15)
N1 C1 C6 115.01(15)
C2 C1 C6 119.59(15)
C3 C2 C1 118.84(16)
C3 C2 H2 120.6
C1 C2 H2 120.6
C2 C3 C4 120.99(17)
C2 C3 H3 119.5
C4 C3 H3 119.5
C5 C4 C3 120.98(17)
C5 C4 H4 119.5
C3 C4 H4 119.5
C4 C5 C6 117.94(16)
C4 C5 H5 121.0
C6 C5 H5 121.0
C5 C6 C1 121.65(16)
C5 C6 S1 128.46(13)
C1 C6 S1 109.89(12)
N1 C7 N2 119.87(15)
N1 C7 S1 117.72(13)
N2 C7 S1 122.40(12)
O1 C8 N2 121.25(16)
O1 C8 C9 121.08(15)
N2 C8 C9 117.66(14)
C14 C9 C10 116.74(15)
C14 C9 C8 126.73(15)
C10 C9 C8 116.53(15)
C11 C10 C9 119.36(16)
C11 C10 H10 120.3
C9 C10 H10 120.3
F1 C11 C10 118.45(17)
F1 C11 C12 118.23(17)
C10 C11 C12 123.32(16)
C11 C12 C13 118.03(17)
C11 C12 H12 121.0
C13 C12 H12 121.0
C14 C13 C12 119.04(17)
C14 C13 H13 120.5
C12 C13 H13 120.5
F2 C14 C13 116.71(15)
F2 C14 C9 119.77(15)
C13 C14 C9 123.52(15)
C7 N1 C1 109.57(14)
C8 N2 C7 124.95(15)
C8 N2 H2N 121.3(18)
C7 N2 H2N 113.5(18)
C6 S1 C7 87.80(8)
loop_
_geom_bond_atom_site_label_1
_geom_bond_atom_site_label_2
_geom_bond_distance
C1 N1 1.392(2)
C1 C2 1.399(2)
C1 C6 1.408(2)
C2 C3 1.382(3)
C2 H2 0.9500
C3 C4 1.407(3)
C3 H3 0.9500
C4 C5 1.384(3)
C4 H4 0.9500
C5 C6 1.393(2)
C5 H5 0.9500
C6 S1 1.7438(17)
C7 N1 1.296(2)
C7 N2 1.390(2)
C7 S1 1.7499(16)
C8 O1 1.223(2)
C8 N2 1.368(2)
C8 C9 1.500(2)
C9 C14 1.393(2)
C9 C10 1.402(2)
C10 C11 1.372(3)
C10 H10 0.9500
C11 F1 1.361(2)
C11 C12 1.382(3)
C12 C13 1.383(2)
C12 H12 0.9500
C13 C14 1.379(2)
C13 H13 0.9500
C14 F2 1.3609(18)
N2 H2N 0.82(3)
loop_
_geom_torsion_atom_site_label_1
_geom_torsion_atom_site_label_2
_geom_torsion_atom_site_label_3
_geom_torsion_atom_site_label_4
_geom_torsion
N1 C1 C2 C3 -179.09(17)
C6 C1 C2 C3 0.6(3)
C1 C2 C3 C4 0.3(3)
C2 C3 C4 C5 -1.0(3)
C3 C4 C5 C6 0.7(3)
C4 C5 C6 C1 0.2(3)
C4 C5 C6 S1 -179.73(13)
N1 C1 C6 C5 178.84(15)
C2 C1 C6 C5 -0.9(3)
N1 C1 C6 S1 -1.21(19)
C2 C1 C6 S1 179.09(13)
O1 C8 C9 C14 177.67(17)
N2 C8 C9 C14 -3.1(3)
O1 C8 C9 C10 -2.9(2)
N2 C8 C9 C10 176.30(15)
C14 C9 C10 C11 0.4(3)
C8 C9 C10 C11 -179.11(16)
C9 C10 C11 F1 178.79(15)
C9 C10 C11 C12 -0.7(3)
F1 C11 C12 C13 -178.80(16)
C10 C11 C12 C13 0.7(3)
C11 C12 C13 C14 -0.3(3)
C12 C13 C14 F2 179.35(15)
C12 C13 C14 C9 0.1(3)
C10 C9 C14 F2 -179.33(14)
C8 C9 C14 F2 0.1(3)
C10 C9 C14 C13 -0.1(3)
C8 C9 C14 C13 179.35(16)
N2 C7 N1 C1 -179.37(15)
S1 C7 N1 C1 -0.58(19)
C2 C1 N1 C7 -179.17(16)
C6 C1 N1 C7 1.2(2)
O1 C8 N2 C7 -1.5(3)
C9 C8 N2 C7 179.24(15)
N1 C7 N2 C8 -174.84(15)
S1 C7 N2 C8 6.4(2)
C5 C6 S1 C7 -179.36(17)
C1 C6 S1 C7 0.70(13)
N1 C7 S1 C6 -0.08(14)
N2 C7 S1 C6 178.68(15)
