#------------------------------------------------------------------------------
#$Date: 2019-11-24 15:09:54 +0200 (Sun, 24 Nov 2019) $
#$Revision: 238290 $
#$URL: file:///home/coder/svn-repositories/cod/cif/1/55/50/1555042.cif $
#------------------------------------------------------------------------------
#
# This file is available in the Crystallography Open Database (COD),
# http://www.crystallography.net/
#
# All data on this site have been placed in the public domain by the
# contributors.
#
data_1555042
loop_
_publ_author_name
'Freeman, Jared L.'
'Brimble, Margaret A.'
'Furkert, Daniel P.'
_publ_section_title
;
 A chiral auxiliary-based synthesis of the C5--C17 trans-decalin framework
 of anthracimycin
;
_journal_issue                   16
_journal_name_full               'Organic Chemistry Frontiers'
_journal_page_first              2954
_journal_paper_doi               10.1039/C9QO00769E
_journal_volume                  6
_journal_year                    2019
_chemical_formula_sum            'C33 H38 N O5'
_chemical_formula_weight         528.64
_space_group_crystal_system      triclinic
_space_group_IT_number           1
_space_group_name_Hall           'P 1'
_space_group_name_H-M_alt        'P 1'
_atom_sites_solution_hydrogens   geom
_audit_creation_method           SHELXL-2016/6
_audit_update_record
;
2019-06-13 deposited with the CCDC.	2019-07-08 downloaded from the CCDC.
;
_cell_angle_alpha                108.986(4)
_cell_angle_beta                 98.417(3)
_cell_angle_gamma                114.037(4)
_cell_formula_units_Z            1
_cell_length_a                   9.1302(3)
_cell_length_b                   9.1578(5)
_cell_length_c                   10.2260(4)
_cell_measurement_reflns_used    4896
_cell_measurement_temperature    373(2)
_cell_measurement_theta_max      68.241
_cell_measurement_theta_min      5.606
_cell_volume                     698.83(7)
_computing_structure_refinement  'SHELXL-2016/6 (Sheldrick, 2016)'
_computing_structure_solution    'SHELXT 2014/5 (Sheldrick, 2014)'
_diffrn_ambient_temperature      373(2)
_diffrn_measured_fraction_theta_full 0.998
_diffrn_measured_fraction_theta_max 0.998
_diffrn_measurement_device_type  'XtaLAB Synergy, Dualflex, Pilatus 200K'
_diffrn_radiation_type           CuK\a
_diffrn_radiation_wavelength     1.54184
_diffrn_reflns_av_R_equivalents  0.0595
_diffrn_reflns_av_unetI/netI     0.0474
_diffrn_reflns_Laue_measured_fraction_full 0.998
_diffrn_reflns_Laue_measured_fraction_max 0.998
_diffrn_reflns_limit_h_max       10
_diffrn_reflns_limit_h_min       -10
_diffrn_reflns_limit_k_max       11
_diffrn_reflns_limit_k_min       -11
_diffrn_reflns_limit_l_max       12
_diffrn_reflns_limit_l_min       -12
_diffrn_reflns_number            16713
_diffrn_reflns_point_group_measured_fraction_full 0.963
_diffrn_reflns_point_group_measured_fraction_max 0.961
_diffrn_reflns_theta_full        67.684
_diffrn_reflns_theta_max         68.241
_diffrn_reflns_theta_min         5.606
_exptl_absorpt_coefficient_mu    0.670
_exptl_crystal_colour            white
_exptl_crystal_density_diffrn    1.256
_exptl_crystal_description       needle
_exptl_crystal_F_000             283
_exptl_crystal_size_max          0.240
_exptl_crystal_size_mid          0.220
_exptl_crystal_size_min          0.120
_refine_diff_density_max         0.408
_refine_diff_density_min         -0.310
_refine_diff_density_rms         0.052
_refine_ls_abs_structure_details
;
 Flack x determined using 2167 quotients [(I+)-(I-)]/[(I+)+(I-)]
 (Parsons, Flack and Wagner, Acta Cryst. B69 (2013) 249-259).
;
_refine_ls_abs_structure_Flack   -0.18(12)
_refine_ls_extinction_coef       0.007(2)
_refine_ls_extinction_expression Fc^*^=kFc[1+0.001xFc^2^\l^3^/sin(2\q)]^-1/4^
_refine_ls_extinction_method     'SHELXL-2016/6 (Sheldrick 2016)'
_refine_ls_goodness_of_fit_ref   1.054
_refine_ls_hydrogen_treatment    constr
_refine_ls_matrix_type           full
_refine_ls_number_parameters     356
_refine_ls_number_reflns         4896
_refine_ls_number_restraints     3
_refine_ls_restrained_S_all      1.054
_refine_ls_R_factor_all          0.0448
_refine_ls_R_factor_gt           0.0436
_refine_ls_shift/su_max          0.000
_refine_ls_shift/su_mean         0.000
_refine_ls_structure_factor_coef Fsqd
_refine_ls_weighting_details
'w=1/[\s^2^(Fo^2^)+(0.0880P)^2^] where P=(Fo^2^+2Fc^2^)/3'
_refine_ls_weighting_scheme      calc
_refine_ls_wR_factor_gt          0.1154
_refine_ls_wR_factor_ref         0.1169
_reflns_Friedel_coverage         0.926
_reflns_Friedel_fraction_full    0.928
_reflns_Friedel_fraction_max     0.924
_reflns_number_gt                4695
_reflns_number_total             4896
_reflns_threshold_expression     'I > 2\s(I)'
_cod_data_source_file            c9qo00769e2.cif
_cod_data_source_block           shelx
_cod_original_cell_volume        698.83(6)
_cod_database_code               1555042
_publcif_datablock.id            {15b6339e-7bab-4b86-966b-bdb23dc316d1}
_shelx_shelxl_version_number     2016/6
_shelx_space_group_comment
;
The symmetry employed for this shelxl refinement is uniquely defined
by the following loop, which should always be used as a source of
symmetry information in preference to the above space-group names.
They are only intended as comments.
;
_shelx_estimated_absorpt_t_min   0.856
_shelx_estimated_absorpt_t_max   0.924
_shelx_res_file
;
TITL shelxt_a.res in P1
    shelx.res
    created by SHELXL-2016/6 at 10:59:04 on 13-Jun-2019
CELL  1.54184   9.1302   9.1578  10.2260  108.986   98.417  114.037
ZERR     1.00   0.0003   0.0005   0.0004    0.004    0.003    0.004
LATT  -1
SFAC  C    H    N    O
UNIT  33 38 1 5

OMIT     0  -1   1
FMAP   2
PLAN    5
SIZE     0.120   0.220   0.240
SHEL 8 0.83
ACTA
BOND   $H
LIST   6
L.S.  20
TEMP   100.00
WGHT    0.088000
EXTI    0.007355
FVAR       1.28217
C1    1    0.909369    0.288743    0.975585    11.00000    0.03652    0.03671 =
         0.03188    0.01953    0.00392    0.01698
AFIX 137
H1A   2    0.813673    0.176617    0.908960    11.00000   -1.50000
H1B   2    0.918348    0.302616    1.074090    11.00000   -1.50000
H1C   2    1.010747    0.293871    0.956343    11.00000   -1.50000
AFIX   0
C2    1    0.877875    0.429599    0.823092    11.00000    0.01880    0.03024 =
         0.02661    0.01490    0.00161    0.00974
C3    1    0.877020    0.302420    0.703173    11.00000    0.02053    0.03056 =
         0.03545    0.01776    0.00792    0.01600
AFIX  43
H3    2    0.887227    0.208324    0.710879    11.00000   -1.20000
AFIX   0
C4    1    0.860725    0.316883    0.570977    11.00000    0.02266    0.03364 =
         0.03238    0.01555    0.01060    0.01796
AFIX  43
H4    2    0.857106    0.229532    0.490108    11.00000   -1.20000
AFIX   0
C5    1    0.861542    0.569813    0.809509    11.00000    0.02525    0.02476 =
         0.03033    0.01019    0.00381    0.01166
AFIX  43
H5    2    0.858609    0.653529    0.888832    11.00000   -1.20000
AFIX   0
C6    1    0.849733    0.584190    0.678173    11.00000    0.02066    0.02672 =
         0.03421    0.01683    0.00504    0.01071
AFIX  43
H6    2    0.841672    0.679448    0.670895    11.00000   -1.20000
AFIX   0
C7    1    0.849737    0.457978    0.556542    11.00000    0.01738    0.03616 =
         0.03416    0.02015    0.00990    0.01491
C8    1    0.841722    0.474038    0.414538    11.00000    0.02596    0.04392 =
         0.03801    0.02639    0.01696    0.02379
AFIX  23
H8A   2    0.944890    0.575172    0.426648    11.00000   -1.20000
H8B   2    0.831934    0.368971    0.340755    11.00000   -1.20000
AFIX   0
C9    1    0.675085    0.490900    0.227274    11.00000    0.02577    0.03926 =
         0.03138    0.02156    0.01484    0.02217
AFIX  23
H9A   2    0.652907    0.377503    0.156372    11.00000   -1.20000
H9B   2    0.776073    0.582659    0.225423    11.00000   -1.20000
AFIX   0
C10   1    0.524740    0.520654    0.189784    11.00000    0.02173    0.03313 =
         0.02864    0.01703    0.00922    0.01703
AFIX  13
H10   2    0.435891    0.448576    0.220098    11.00000   -1.20000
AFIX   0
C11   1    0.453826    0.454048    0.024683    11.00000    0.03562    0.04576 =
         0.02787    0.01646    0.01132    0.02624
AFIX 137
H11A  2    0.542913    0.509006   -0.011050    11.00000   -1.50000
H11B  2    0.366136    0.483077    0.002752    11.00000   -1.50000
H11C  2    0.407830    0.328168   -0.021490    11.00000   -1.50000
AFIX   0
C12   1    0.576743    0.718175    0.281543    11.00000    0.01656    0.03126 =
         0.03190    0.01825    0.00937    0.01384
AFIX  13
H12   2    0.670018    0.761329    0.369475    11.00000   -1.20000
AFIX   0
C13   1    0.646525    0.830222    0.203045    11.00000    0.02082    0.04320 =
         0.04366    0.02747    0.01699    0.01832
AFIX  43
H13   2    0.739505    0.831066    0.175649    11.00000   -1.20000
AFIX   0
C14   1    0.587175    0.927715    0.169553    11.00000    0.02603    0.04215 =
         0.04556    0.03206    0.01941    0.01888
AFIX  43
H14   2    0.642034    0.994143    0.122523    11.00000   -1.20000
AFIX   0
C15   1    0.435372    0.936755    0.203614    11.00000    0.02156    0.03242 =
         0.03051    0.01968    0.00897    0.01454
AFIX  13
H15   2    0.476543    1.040387    0.296324    11.00000   -1.20000
AFIX   0
C16   1    0.330917    0.958351    0.086720    11.00000    0.02912    0.03798 =
         0.03685    0.02582    0.01492    0.02178
AFIX  23
H16A  2    0.399683    1.069578    0.083372    11.00000   -1.20000
H16B  2    0.298992    0.863759   -0.008125    11.00000   -1.20000
AFIX   0
C17   1    0.173539    0.954846    0.117808    11.00000    0.02181    0.02641 =
         0.02959    0.01296    0.00474    0.01358
C18   1    0.094517    1.039146    0.049663    11.00000    0.02915    0.03323 =
         0.03188    0.01730    0.00705    0.01791
AFIX 137
H18A  2   -0.006246    1.025291    0.074538    11.00000   -1.50000
H18B  2    0.065970    0.983330   -0.054607    11.00000   -1.50000
H18C  2    0.173351    1.162664    0.085530    11.00000   -1.50000
AFIX   0
C19   1    0.110888    0.881669    0.203558    11.00000    0.01811    0.02958 =
         0.02783    0.01120    0.00427    0.01346
AFIX  43
H19   2    0.015877    0.886651    0.222035    11.00000   -1.20000
AFIX   0
C20   1    0.179342    0.791548    0.273498    11.00000    0.01854    0.02755 =
         0.02609    0.01321    0.00780    0.01258
AFIX  23
H20A  2    0.088218    0.674951    0.250005    11.00000   -1.20000
H20B  2    0.220146    0.858525    0.378783    11.00000   -1.20000
AFIX   0
C21   1    0.323772    0.773139    0.223631    11.00000    0.01875    0.02758 =
         0.02457    0.01447    0.00762    0.01231
AFIX  13
H21   2    0.275401    0.668738    0.130174    11.00000   -1.20000
AFIX   0
C22   1    0.437917    0.753817    0.335787    11.00000    0.01797    0.02694 =
         0.02470    0.01335    0.00718    0.01271
AFIX  13
H22   2    0.496976    0.866571    0.423166    11.00000   -1.20000
AFIX   0
C23   1    0.337624    0.613505    0.381744    11.00000    0.01969    0.02617 =
         0.02364    0.01203    0.00815    0.01433
C24   1    0.556805    0.763959    0.630290    11.00000    0.02877    0.02720 =
         0.02421    0.01168    0.00451    0.01666
C25   1    0.399054    0.591903    0.731591    11.00000    0.05367    0.03505 =
         0.02759    0.01704    0.01777    0.01924
AFIX  43
H25   2    0.354724    0.566733    0.802698    11.00000   -1.20000
AFIX   0
C26   1    0.319751    0.489976    0.567061    11.00000    0.02607    0.02955 =
         0.02875    0.01800    0.01215    0.01633
AFIX  13
H26   2    0.197320    0.446800    0.538093    11.00000   -1.20000
AFIX   0
C27   1    0.357415    0.337642    0.501754    11.00000    0.02426    0.02888 =
         0.03107    0.01670    0.01345    0.01430
AFIX  23
H27A  2    0.298451    0.276047    0.397316    11.00000   -1.20000
H27B  2    0.477941    0.386529    0.516300    11.00000   -1.20000
AFIX   0
C28   1    0.305566    0.206872    0.567368    11.00000    0.02263    0.02500 =
         0.02565    0.01078    0.00988    0.01264
C29   1    0.136293    0.108844    0.556659    11.00000    0.02285    0.03405 =
         0.03647    0.02075    0.01439    0.01917
AFIX  43
H29   2    0.053723    0.125464    0.508807    11.00000   -1.20000
AFIX   0
C30   1    0.090269   -0.012076    0.616106    11.00000    0.02669    0.03520 =
         0.04242    0.02135    0.01858    0.01873
AFIX  43
H30   2   -0.022603   -0.075159    0.608649    11.00000   -1.20000
AFIX   0
C31   1    0.211536   -0.040420    0.687210    11.00000    0.03951    0.03382 =
         0.03174    0.02003    0.01779    0.02161
AFIX  43
H31   2    0.180441   -0.122628    0.726502    11.00000   -1.20000
AFIX   0
C32   1    0.379573    0.056282    0.698318    11.00000    0.02870    0.03041 =
         0.02767    0.01183    0.00467    0.01736
AFIX  43
H32   2    0.461816    0.038950    0.745754    11.00000   -1.20000
AFIX   0
C33   1    0.425795    0.178148    0.639496    11.00000    0.02191    0.02739 =
         0.02826    0.01014    0.00766    0.01247
AFIX  43
H33   2    0.539000    0.242001    0.648216    11.00000   -1.20000
AFIX   0
N     3    0.404798    0.630262    0.521050    11.00000    0.02320    0.02612 =
         0.02388    0.01354    0.00768    0.01259
O1    4    0.887668    0.426570    0.956884    11.00000    0.03809    0.03356 =
         0.02754    0.01475    0.00482    0.01891
O2    4    0.699337    0.494956    0.368776    11.00000    0.02491    0.04456 =
         0.03293    0.02459    0.01438    0.02391
O3    4    0.201202    0.483604    0.303966    11.00000    0.01983    0.02824 =
         0.03133    0.01460    0.00749    0.01110
O4    4    0.561224    0.738916    0.753114    11.00000    0.04315    0.03113 =
         0.02626    0.01381    0.00435    0.01655
O5    4    0.671099    0.884660    0.624305    11.00000    0.02507    0.02943 =
         0.03069    0.01197    0.00208    0.01063
HKLF    4




REM  shelxt_a.res in P1
REM R1 =  0.0436 for    4695 Fo > 4sig(Fo)  and  0.0448 for all    4896 data
REM    356 parameters refined using      3 restraints

END

WGHT      0.0868      0.0000

REM Highest difference peak  0.408,  deepest hole -0.310,  1-sigma level  0.052
Q1    1   0.4247  0.5214  0.7781  11.00000  0.05    0.41
Q2    1   0.3416  0.6586  0.7941  11.00000  0.05    0.29
Q3    1   0.3830  0.6018  0.6476  11.00000  0.05    0.19
Q4    1   0.8822  0.3169  0.8569  11.00000  0.05    0.18
Q5    1   0.4318  0.7532  0.4667  11.00000  0.05    0.18
;
_shelx_res_checksum              11128
_shelx_hkl_file
;
   0   0   1 1607.83   73.29
   0   0   1 1473.33   72.96
   0   0  -2 4463.78  185.92
   0   0  -2 3717.37  186.11
   0   0   2 3398.88  185.76
   0   0   2 4098.93  186.59
   0   0  -3  956.70   53.76
   0   0   3 1016.13   54.43
   0   0  -3 1178.68   53.43
   0   0  -3 1201.34   54.30
   0   0  -4   99.93    7.53
   0   0  -4  106.31    7.05
   0   0  -4   92.77    7.31
   0   0  -4  117.51    7.55
   0   0   4   88.53    7.45
   0   0  -5  485.58   23.84
   0   0   5  413.54   22.43
   0   0  -5  456.11   24.17
   0   0   5  412.25   22.33
   0   0   5  399.07   24.85
   0   0  -5  459.94   24.98
   0   0   6  158.99    9.55
   0   0   6  124.81   11.63
   0   0   6  127.61    9.52
   0   0   6  162.44   10.10
   0   0   6  156.31    9.69
   0   0   6  150.47    9.02
   0   0   6  153.01   10.29
   0   0  -6  176.58   12.50
   0   0   6  156.96    9.36
   0   0  -6  156.52   11.35
   0   0   7  100.33    8.19
   0   0  -7  111.26   10.58
   0   0   7   97.36    6.94
   0   0   7  110.82    7.33
   0   0   7  104.17    7.71
   0   0   7   95.79    6.81
   0   0   7   83.28    7.39
   0   0  -7  120.78   11.81
   0   0   7   99.97    7.93
   0   0  -8   79.52   10.48
   0   0   8   62.66    5.47
   0   0   8   63.65    6.51
   0   0   8   62.89    5.54
   0   0  -8   53.97    5.78
   0   0   8   80.24    6.55
   0   0   8   55.92    5.97
   0   0  -8   73.40    9.15
   0   0   9   44.09    4.45
   0   0   9   37.62    4.93
   0   0   9   39.19    4.84
   0   0  -9   31.82    4.34
   0   0  10   14.41    2.97
   0   0  10   11.26    2.69
   0   0 -10   13.23    2.74
   0   0  10   11.69    2.47
   0   0 -11   20.23    2.61
   0   0  11   33.58    2.77
   0   1 -11    2.37    1.25
   0  -1  11    2.19    1.59
   0  -1  10   11.35    2.68
   0   1 -10    6.70    2.37
   0   1 -10    5.94    3.73
   0  -1  10    7.95    2.35
   0  -1  10   10.62    2.76
   0  -1   9   78.52    7.04
   0  -1   9   86.08    6.60
   0   1  -9   86.74   10.97
   0   1  -9   67.40    6.69
   0  -1   9  102.20    7.55
   0  -1   9   90.87    6.72
   0   1  -9   81.74    9.97
   0  -1   9   89.88    7.67
   0  -1   8   46.63    4.32
   0  -1   8   37.76    4.63
   0   1  -8   49.21    8.50
   0  -1   8   35.40    4.40
   0  -1   8   45.72    4.75
   0   1  -8   51.16    7.64
   0  -1   8   38.44    4.78
   0  -1   8   41.73    4.24
   0  -1   8   41.54    4.27
   0   1  -8   31.59    4.24
   0   1  -8   45.73    7.66
   0  -1   7  194.52   12.07
   0  -1   7  193.25   11.71
   0   1  -7  204.29   14.49
   0  -1   7  190.55   11.14
   0  -1   7  180.70   11.25
   0  -1   7  188.42   11.84
   0   1  -7  171.70   11.87
   0  -1   7  199.53   11.86
   0   1  -6   85.50    6.86
   0   1  -6  116.10    9.13
   0  -1   6   89.20    6.50
   0  -1   6  101.19    6.72
   0  -1   6  106.97    6.76
   0  -1   6  100.80    6.49
   0  -1   5  772.95   43.33
   0   1  -5  918.80   43.92
   0   1  -4  350.67   17.25
   0   1  -4  317.52   17.28
   0  -1   3   27.40    2.72
   0  -1   3   24.72    2.35
   0   1  -3   28.85    3.00
   0   1  -3   23.93    1.88
   0  -1   2   73.48    4.46
   0   1  -2   84.19    4.73
   0  -1   2   54.37    3.92
   0  -1   2   59.68    3.75
   0  -1   1  243.99   11.70
   0   1  -1  231.08   11.39
   0   1  -1  243.76   11.55
   0   1   0 1845.92   78.16
   0   1   0 1380.63   78.30
   0  -1   0 2045.02   78.82
   0  -1   0 1450.34   78.15
   0  -1  -1 2714.48  134.23
   0   1   1 2902.01  134.64
   0   1   2 9999.00  463.45
   0  -1  -2 8828.83  463.54
   0  -1  -3   23.99    3.02
   0   1   3   24.02    3.43
   0  -1  -3   25.97    2.96
   0  -1  -4  637.79   32.67
   0   1   4  611.74   31.81
   0  -1  -4  617.66   31.91
   0   1   4  549.33   34.18
   0   1   4  613.20   31.79
   0  -1  -4  666.07   33.49
   0   1   5  134.20    9.30
   0   1   5  121.41    8.73
   0   1   5  127.10    8.23
   0  -1  -5  145.75    9.94
   0   1   5  144.93    8.78
   0  -1  -5  133.51    9.51
   0   1   5  140.41    8.33
   0   1   5  133.43    8.54
   0   1   5  128.39    8.44
   0   1   5  115.59   10.78
   0  -1  -5  135.92   10.18
   0   1   6   31.54    3.99
   0   1   6   26.87    3.66
   0   1   6   29.84    4.10
   0   1   6   34.33    3.68
   0   1   6   33.22    3.56
   0   1   6   33.12    3.53
   0  -1  -6   30.94    5.86
   0   1   6   25.18    5.29
   0  -1  -6   28.47    5.01
   0   1   7  338.39   18.78
   0   1   7  310.73   23.63
   0   1   7  323.79   20.50
   0   1   7  313.78   19.85
   0  -1  -7  356.47   22.91
   0   1   8  143.55   10.94
   0  -1  -8  126.21    9.93
   0   1   8  141.42    9.29
   0  -1  -8  146.62   14.56
   0   1   9   12.89    3.16
   0  -1  -9   12.63    4.36
   0  -1  -9   20.14    5.63
   0   1   9   13.26    2.80
   0   1  10   23.23    2.73
   0  -1 -10   21.87    3.10
   0   1  10   23.54    3.19
   0  -2  12   23.65    2.25
   0   2 -11    3.73    1.63
   0   2 -11    4.74    3.25
   0  -2  11    2.16    1.84
   0  -2  11    2.34    1.49
   0   2 -11    3.48    1.79
   0   2 -10   43.28    5.19
   0  -2  10   50.87    4.72
   0  -2  10   52.88    4.67
   0   2 -10   43.97    8.23
   0  -2  10   47.00    5.16
   0  -2  10   57.24    4.70
   0  -2   9   17.44    3.03
   0  -2   9   18.45    3.41
   0  -2   9   20.86    3.16
   0  -2   9   19.28    3.30
   0   2  -9   18.06    3.54
   0   2  -9   19.28    5.91
   0  -2   9   18.15    3.74
   0  -2   9   22.51    3.62
   0   2  -9   19.74    6.16
   0  -2   8   21.04    3.32
   0   2  -8   22.74    6.18
   0   2  -8   19.58    6.00
   0  -2   8   20.54    3.29
   0   2  -8   15.79    3.11
   0   2  -8   19.76    3.51
   0  -2   8   21.96    3.76
   0  -2   8   21.15    3.31
   0  -2   8   20.76    2.91
   0  -2   8   18.86    2.94
   0   2  -8   22.35    5.47
   0   2  -8   24.02    3.47
   0  -2   7  113.93    7.55
   0   2  -7   96.93    7.83
   0   2  -7   97.63    7.75
   0  -2   7  109.76    8.20
   0  -2   7  117.82    7.49
   0   2  -7  122.87   10.90
   0  -2   7  110.25    7.39
   0  -2   7  110.86    7.77
   0   2  -7  134.06   11.13
   0  -2   7  119.54    8.37
   0   2  -6  324.74   19.98
   0  -2   6  369.45   19.51
   0   2  -6  341.02   20.18
   0  -2   6  369.74   19.62
   0  -2   6  392.89   19.95
   0  -2   6  383.20   20.07
   0   2  -6  429.23   23.15
   0  -2   6  406.68   20.57
   0  -2   5  380.25   20.63
   0  -2   5  336.59   18.54
   0   2  -5  396.89   21.11
   0   2  -5  328.56   18.94
   0  -2   5  388.75   19.00
   0   2  -4    0.09    0.86
   0  -2   4    1.62    1.40
   0  -2   4    1.32    1.74
   0   2  -4    0.81    2.75
   0   2  -4    0.13    1.09
   0  -2   4    0.79    2.00
   0   2  -4    1.14    1.88
   0   2  -3  420.14   22.78
   0   2  -3  401.87   22.25
   0   2  -3  421.13   22.62
   0  -2   3  468.56   22.75
   0  -2   3  410.50   22.52
   0   2  -3  467.52   22.95
   0  -2   3  435.87   22.72
   0  -2   2  149.83    8.65
   0  -2   2  185.07    9.22
   0   2  -2  164.05    8.65
   0   2  -2  155.49    8.89
   0   2  -2  170.54    8.91
   0  -2   1 1172.22   56.59
   0   2  -1 1144.52   56.73
   0  -2   0 2797.48  114.73
   0   2   0 2047.77  113.76
   0  -2   0 2820.47  115.08
   0  -2   0 2427.40  115.06
   0  -2   0 2167.77  114.06
   0  -2  -1 1508.16   58.81
   0  -2  -1 1480.61   58.50
   0   2   1 1410.78   58.98
   0   2   2  259.42   14.45
   0  -2  -2  254.64   14.01
   0   2   2  250.92   15.58
   0  -2  -2  282.08   15.04
   0  -2  -3  503.15   25.71
   0   2   3  498.75   28.60
   0   2   3  508.60   25.63
   0  -2  -3  548.37   26.67
   0   2   3  481.52   25.58
   0   2   3  495.06   25.62
   0   2   4  353.98   18.38
   0   2   4  302.06   21.33
   0   2   4  329.39   18.17
   0  -2  -4  296.99   19.90
   0  -2  -4  380.74   19.88
   0   2   4  335.94   19.38
   0   2   4  346.16   18.31
   0   2   5  162.47    9.85
   0   2   5  148.14   10.84
   0   2   5  139.82   10.63
   0  -2  -5  183.96   13.28
   0   2   5  124.29   12.65
   0   2   5  148.76    9.77
   0   2   5  159.70   10.00
   0  -2  -6   26.50    5.29
   0  -2  -6   44.78    6.81
   0   2   6   35.22    4.88
   0   2   6   27.22    6.01
   0   2   6   40.52    5.04
   0   2   6   32.99    4.20
   0   2   7   12.52    4.39
   0   2   7   20.52    3.80
   0  -2  -7   14.81    4.76
   0  -2  -7   13.03    3.88
   0   2   7   12.24    3.50
   0  -2  -7   13.59    4.69
   0  -2  -8  231.44   15.34
   0  -2  -8  220.48   18.17
   0  -2  -8  232.61   18.94
   0   2   9   18.64    2.71
   0   2   9   15.51    2.93
   0   2  10   29.06    3.00
   0  -3  12   21.05    2.17
   0   3 -12   16.19    2.32
   0   3 -12   13.73    2.16
   0  -3  11   39.10    3.93
   0   3 -11   35.57    4.13
   0   3 -11   33.97    4.84
   0  -3  11   35.63    3.73
   0  -3  11   40.26    3.75
   0  -3  10  107.37    7.23
   0  -3  10  104.28    7.23
   0  -3  10  101.18    8.54
   0   3 -10   89.12    7.96
   0   3 -10   78.94   10.84
   0   3 -10   77.56    9.94
   0  -3  10   97.90    7.75
   0   3 -10  102.65    8.41
   0  -3  10   84.33    7.19
   0   3  -9   41.91    6.74
   0  -3   9   42.76    4.88
   0   3  -9   41.22    7.77
   0  -3   9   32.15    4.44
   0   3  -9   49.69    5.64
   0  -3   9   53.28    4.74
   0  -3   9   46.39    4.77
   0   3  -9   62.97    9.17
   0   3  -9   40.12    7.26
   0   3  -9   46.39    7.64
   0  -3   9   50.28    5.83
   0   3  -8   86.51   10.12
   0  -3   8   81.19    6.72
   0   3  -8   80.72    9.48
   0   3  -8   64.25    6.27
   0  -3   8   85.50    7.42
   0   3  -8   71.47    9.05
   0   3  -8   70.15    6.39
   0   3  -8   85.74    7.52
   0  -3   8   87.12    6.35
   0  -3   8   81.04    6.15
   0   3  -7  138.79   11.38
   0   3  -7  105.07    8.39
   0   3  -7  115.38    8.48
   0  -3   7  135.50    8.45
   0  -3   7  123.82    8.12
   0  -3   7  136.89    9.27
   0   3  -7  148.88   12.00
   0   3  -7  120.01    9.19
   0  -3   7  120.64    8.04
   0  -3   7  125.75    8.61
   0   3  -6   20.56    4.05
   0  -3   6   14.10    2.46
   0   3  -6   15.85    2.55
   0  -3   6   16.96    2.35
   0   3  -6   20.22    4.32
   0  -3   6   17.96    3.97
   0   3  -6   18.83    2.88
   0   3  -6   17.18    2.57
   0  -3   6   22.46    2.55
   0   3  -6   18.13    5.14
   0  -3   5  777.00   50.58
   0   3  -5  977.83   50.26
   0   3  -5 1035.47   51.78
   0   3  -5  995.40   51.23
   0   3  -5  898.84   49.61
   0  -3   5 1062.01   49.77
   0   3  -5 1100.05   51.64
   0  -3   5 1115.13   51.91
   0   3  -5 1159.76   52.67
   0   3  -5 1069.79   52.17
   0  -3   4 1359.67   65.46
   0   3  -4 1327.87   65.50
   0  -3   4 1401.79   65.88
   0   3  -4 1184.52   64.48
   0   3  -4 1284.89   64.44
   0   3  -4 1282.84   63.52
   0   3  -4 1366.34   65.78
   0   3  -3  269.19   13.36
   0   3  -3  217.52   13.41
   0  -3   3  319.93   15.78
   0   3  -3  271.85   14.58
   0   3  -3  291.19   15.02
   0  -3   3  202.07   13.34
   0  -3   3  256.91   13.23
   0   3  -2  194.47   11.80
   0   3  -2  202.02   11.61
   0  -3   2  200.78   11.71
   0  -3   2  186.42   11.26
   0  -3   2  170.94   11.40
   0  -3   2  171.44   11.68
   0  -3   1 1046.38   49.03
   0  -3   1  938.07   47.02
   0   3  -1  963.46   48.17
   0  -3   0  193.29   12.80
   0   3   0  216.26   13.52
   0  -3   0  234.35   14.27
   0  -3   0  210.95   11.77
   0   3   0  207.98   13.48
   0   3   0  244.70   14.15
   0  -3   0  287.92   14.69
   0  -3   0  270.92   14.30
   0  -3   0  288.78   14.02
   0   3   0  216.03   12.63
   0  -3  -1  313.03   16.09
   0  -3  -1  296.17   16.35
   0  -3  -1  327.27   16.84
   0  -3  -1  301.12   17.06
   0   3   1  252.39   16.12
   0  -3  -1  239.96   15.39
   0   3   1  295.71   16.68
   0  -3  -1  240.94   13.65
   0   3   2  762.72   44.31
   0  -3  -2 1044.70   46.25
   0  -3  -2  655.15   43.71
   0  -3  -2  923.13   45.41
   0  -3  -2 1010.98   46.11
   0   3   2  885.68   42.96
   0   3   2  875.08   43.00
   0  -3  -2 1001.96   45.53
   0   3   3  676.76   32.61
   0  -3  -3  670.07   35.49
   0  -3  -3  707.54   35.27
   0   3   3  672.36   32.56
   0   3   3  629.70   32.54
   0   3   3  644.33   34.04
   0   3   3  643.56   32.52
   0   3   3  536.84   35.85
   0  -3  -3  512.87   33.79
   0  -3  -4  152.66   11.98
   0   3   4  162.23   11.16
   0   3   4  168.15    9.93
   0   3   4  170.96    9.96
   0  -3  -4  138.72   11.76
   0   3   4  153.20   11.24
   0  -3  -4  149.59   12.35
   0   3   4  155.98    9.97
   0  -3  -4  131.85   11.98
   0   3   4  145.20   13.48
   0   3   4  154.24    9.80
   0  -3  -5  291.03   20.01
   0  -3  -5  247.53   18.98
   0  -3  -5  264.62   19.12
   0   3   5  300.15   16.91
   0   3   5  288.21   17.85
   0   3   5  304.92   16.56
   0   3   5  219.26   20.42
   0  -3  -5  327.78   20.82
   0   3   5  296.89   18.42
   0   3   5  278.50   16.55
   0   3   6   56.58    5.46
   0   3   6   45.17    5.81
   0  -3  -6   44.65    7.23
   0  -3  -6   32.11    6.41
   0   3   6   39.32    7.62
   0   3   7    1.33    2.35
   0   3   7    1.77    2.05
   0  -3  -7    0.59    2.60
   0  -3  -7    2.39    3.15
   0  -3  -8    3.63    1.81
   0   3   8    3.98    2.13
   0   3   9   17.36    2.58
   0   4 -12    1.20    1.22
   0   4 -12    3.44    1.86
   0  -4  12    1.05    1.07
   0   4 -12    0.27    1.14
   0  -4  12    0.91    1.18
   0  -4  11   93.14    6.12
   0   4 -11   71.56    6.33
   0   4 -11   87.21    7.07
   0  -4  11   62.84    5.84
   0  -4  11   75.71    5.66
   0  -4  11   84.30    5.90
   0   4 -11   66.23    6.18
   0  -4  10   56.41    5.16
   0   4 -10   54.26    5.76
   0  -4  10   51.20    5.35
   0  -4  10   57.02    6.29
   0  -4  10   35.22    4.73
   0   4 -10   66.76    6.71
   0   4 -10   50.89    5.54
   0  -4  10   53.88    4.87
   0   4  -9  104.19   12.12
   0  -4   9  149.61   10.83
   0   4  -9  159.72   13.85
   0   4  -9  126.23   10.19
   0  -4   9  140.51    9.18
   0   4  -9  139.54   10.11
   0   4  -9  140.64   13.37
   0  -4   9  139.70    9.81
   0  -4   9  145.03    9.24
   0  -4   9  132.27    9.85
   0   4  -8   30.08    6.06
   0   4  -8   59.63    8.50
   0   4  -8   42.12    5.20
   0  -4   8   50.21    4.92
   0   4  -8   39.21    6.68
   0  -4   8   42.79    4.44
   0  -4   8   52.84    5.24
   0   4  -8   51.77    6.33
   0   4  -8   62.84    9.22
   0   4  -8   47.78    7.26
   0  -4   7   65.53    5.18
   0  -4   7   55.61    5.65
   0  -4   7   67.01    7.66
   0   4  -7   60.23    6.24
   0   4  -7   59.48    8.57
   0   4  -7   58.97    5.95
   0  -4   7   62.91    5.52
   0   4  -7   47.69    6.69
   0   4  -7   72.30    8.36
   0  -4   6   37.57    5.54
   0   4  -6   43.98    6.86
   0  -4   6   34.69    3.97
   0   4  -6   38.71    4.85
   0   4  -6   27.38    4.69
   0   4  -6   45.73    6.16
   0  -4   6   28.80    3.24
   0   4  -6   26.68    4.57
   0   4  -6   37.47    4.03
   0  -4   5   49.75    6.07
   0   4  -5   40.83    4.51
   0   4  -5   37.45    4.57
   0   4  -5   40.92    5.44
   0   4  -5   43.97    4.71
   0   4  -5   49.86    6.63
   0   4  -5   44.47    4.04
   0  -4   5   54.04    5.99
   0  -4   5   38.95    4.05
   0   4  -5   46.91    4.16
   0   4  -4   34.55    3.99
   0   4  -4   63.45    4.42
   0  -4   4   39.36    4.14
   0   4  -4   54.39    4.30
   0  -4   4   58.69    6.14
   0  -4   4   49.98    4.31
   0   4  -4   57.90    6.24
   0   4  -4   52.73    4.22
   0   4  -4   50.24    5.14
   0  -4   4   63.65    6.42
   0   4  -3 1081.96   50.26
   0  -4   3  927.91   52.05
   0   4  -3 1012.90   52.24
   0   4  -3 1016.39   52.01
   0  -4   3  998.03   50.46
   0   4  -3  903.43   50.41
   0  -4   2  350.54   21.54
   0   4  -2  355.40   20.39
   0   4  -2  422.82   22.47
   0  -4   2  376.47   19.60
   0   4  -2  376.30   21.17
   0  -4   2  431.63   22.04
   0  -4   2  367.66   22.11
   0   4  -1  382.23   19.47
   0   4  -1  362.61   19.15
   0   4  -1  331.02   19.47
   0  -4   1  342.23   18.29
   0  -4   1  337.19   18.21
   0   4  -1  314.12   19.78
   0   4   0  516.01   30.21
   0   4   0  503.70   30.30
   0   4   0  614.75   31.57
   0   4   0  602.78   28.08
   0  -4   0  498.83   27.57
   0  -4   0  516.56   27.65
   0  -4   0  770.56   32.93
   0  -4   0  665.83   32.28
   0   4   1  137.95    8.07
   0  -4  -1  168.99   11.73
   0  -4  -1  118.56    9.38
   0  -4  -1  132.33   10.34
   0  -4  -1  144.77   10.13
   0   4   1  122.22    7.67
   0   4   1  107.02    9.57
   0   4   1  109.31   10.06
   0  -4  -1  138.22   11.07
   0  -4  -2  132.01   10.20
   0  -4  -2  136.37   10.89
   0   4   2  131.05    7.90
   0   4   2  129.38    7.84
   0   4   2  120.44    9.02
   0   4   2   91.81   10.24
   0  -4  -2  117.28    9.92
   0  -4  -2  120.58   11.14
   0   4   2  124.44    8.06
   0   4   3   49.84    4.40
   0  -4  -3   38.13    6.07
   0  -4  -3   59.48    7.35
   0   4   3   52.98    5.62
   0  -4  -3   47.87    7.13
   0   4   3   50.98    4.41
   0   4   3   48.89    5.71
   0  -4  -3   45.65    6.24
   0  -4  -3   39.71    6.49
   0   4   3   55.75    4.85
   0  -4  -4  183.01   16.23
   0  -4  -4  174.94   14.86
   0   4   4  166.29   16.53
   0  -4  -4  194.93   15.03
   0  -4  -4  172.77   15.45
   0   4   4  225.94   14.65
   0   4   4  201.83   12.17
   0   4   4  185.00   12.16
   0   4   4  211.96   14.14
   0   4   4  217.76   12.56
   0  -4  -4  209.40   16.27
   0  -4  -5   12.91    4.62
   0   4   5    9.39    2.86
   0  -4  -5   11.18    4.43
   0   4   5   12.00    3.60
   0   4   5    4.91    3.58
   0   4   5    7.69    2.81
   0   4   5    7.64    2.62
   0  -4  -5    5.16    3.66
   0   4   6  107.96    9.09
   0  -4  -6   79.31    9.52
   0   4   6   85.94    7.24
   0  -4  -6   71.94   10.02
   0   4   6  111.95    7.50
   0   4   7   13.63    2.79
   0   4   7   17.00    3.26
   0   4   8    4.96    1.79
   0   5 -12   31.66    3.23
   0  -5  12   37.62    2.88
   0   5 -12   26.18    3.17
   0   5 -12   25.60    3.04
   0  -5  12   46.98    3.46
   0  -5  12   40.45    3.12
   0  -5  11    0.56    1.76
   0  -5  11   -0.68    2.29
   0   5 -11    0.39    1.63
   0   5 -11    0.98    2.43
   0  -5  11   -0.15    1.48
   0  -5  11    0.56    1.48
   0  -5  10   36.91    4.84
   0   5 -10   36.95    4.74
   0  -5  10   44.04    4.36
   0  -5  10   45.91    4.87
   0  -5  10   38.07    4.73
   0  -5   9   58.25    5.66
   0  -5   9   59.52    5.90
   0   5  -9   50.38    8.18
   0  -5   9   52.65    5.10
   0   5  -9   57.58    9.66
   0  -5   9   52.34    6.24
   0   5  -9   55.07    6.69
   0   5  -9   48.35    5.76
   0   5  -8  126.14    9.71
   0  -5   8  108.66    9.33
   0  -5   8  104.86    8.22
   0  -5   8  130.06    9.32
   0   5  -8  114.36    9.18
   0   5  -8  126.65    9.60
   0   5  -8  137.73   13.05
   0   5  -8  138.67   13.52
   0  -5   7  407.22   24.78
   0  -5   7  364.41   21.76
   0   5  -7  374.81   21.70
   0   5  -7  435.36   25.97
   0  -5   7  352.89   20.79
   0   5  -7  394.17   22.00
   0   5  -6  145.09    9.42
   0  -5   6  110.39    9.03
   0  -5   6  117.87    9.13
   0  -5   6  131.89    8.80
   0  -5   6  146.28    9.26
   0  -5   6  142.30   11.77
   0   5  -6  148.42    9.61
   0   5  -6  135.90   11.91
   0   5  -6  125.40    9.85
   0   5  -6  103.09   10.96
   0   5  -6  153.63    9.33
   0   5  -5   43.06    6.26
   0  -5   5   52.34    7.11
   0  -5   5   41.79    6.48
   0   5  -5   52.08    4.67
   0   5  -5   44.57    4.30
   0   5  -5   33.86    5.00
   0   5  -5   41.22    4.46
   0  -5   5   38.91    3.87
   0  -5   5   38.95    4.51
   0  -5   5   38.81    4.19
   0   5  -5   44.07    4.94
   0   5  -5   43.37    4.22
   0   5  -5   46.32    6.15
   0   5  -4   54.86    4.59
   0   5  -4   56.51    5.07
   0  -5   4   42.79    4.17
   0   5  -4   52.10    5.43
   0  -5   4   54.61    5.08
   0   5  -4   58.00    6.40
   0  -5   4   38.05    5.17
   0   5  -4   56.55    6.28
   0   5  -4   52.80    4.53
   0  -5   4   73.56    7.97
   0  -5   3   28.16    4.43
   0  -5   3   37.21    5.84
   0  -5   3   30.95    3.30
   0  -5   3   29.19    4.68
   0   5  -3   33.96    5.08
   0   5  -3   34.09    3.60
   0  -5   3   22.45    4.35
   0  -5   3   34.99    3.98
   0  -5   3   32.19    3.71
   0   5  -3   31.93    3.65
   0   5  -3   30.88    3.30
   0   5  -3   30.46    4.54
   0   5  -2  436.77   24.41
   0  -5   2  351.91   19.46
   0   5  -2  325.17   21.38
   0   5  -2  428.04   21.24
   0  -5   2  384.82   20.16
   0   5  -2  442.55   20.28
   0   5  -2  327.05   21.37
   0   5  -2  373.69   21.11
   0  -5   2  342.57   22.60
   0  -5   2  407.34   23.06
   0   5  -2  397.23   21.92
   0  -5   2  351.77   23.18
   0   5  -1  218.74   14.15
   0   5  -1  228.73   13.80
   0  -5   1  214.89   12.44
   0   5  -1  230.92   12.52
   0   5  -1  214.51   13.46
   0   5  -1  226.71   13.51
   0   5  -1  192.14   15.00
   0   5  -1  186.54   14.41
   0  -5   0   72.39    8.20
   0   5   0   45.76    6.32
   0   5   0   68.74    4.96
   0   5   0   49.82    5.47
   0   5   0   53.29    5.50
   0   5   0   67.34    5.90
   0  -5   0   59.66    4.68
   0   5   0   47.17    6.66
   0  -5  -1   84.01    9.18
   0   5   1   85.35    7.26
   0   5   1   81.88    7.08
   0   5   1   66.64    8.38
   0   5   1   61.77    7.72
   0  -5  -2  176.99   15.44
   0  -5  -2  199.11   14.51
   0   5   2  194.72   13.69
   0   5   2  200.41   11.55
   0   5   2  164.58   15.63
   0   5   2  200.33   13.42
   0  -5  -2  177.26   15.67
   0   5   3   57.90    6.46
   0   5   3   43.39    4.41
   0  -5  -3   36.92    7.02
   0  -5  -3   33.30    6.89
   0   5   3   48.60    8.08
   0   5   4   19.88    4.10
   0   5   4   18.85    4.16
   0  -5  -4   14.23    4.67
   0  -5  -4   16.09    5.08
   0   5   4   14.08    4.87
   0   5   5   70.91    7.13
   0   5   5   62.96    6.90
   0   5   5   63.17    6.39
   0   5   6   23.65    3.85
   0  -5  -6   22.81    3.34
   0  -6  12    0.24    0.82
   0   6 -12    1.18    1.48
   0  -6  12    1.35    1.47
   0   6 -11   10.18    2.75
   0  -6  11   11.88    2.74
   0  -6  11    8.35    2.27
   0   6 -11    5.92    1.95
   0  -6  11    8.26    1.93
   0  -6  11    6.82    2.19
   0   6 -10   27.12    4.27
   0  -6  10   22.21    3.86
   0  -6  10   25.48    3.34
   0   6 -10   22.08    3.59
   0  -6  10   22.13    3.61
   0   6 -10   21.94    3.70
   0   6  -9   30.44    4.42
   0  -6   9   27.81    3.84
   0   6  -9   27.76    4.31
   0   6  -9   27.23    4.14
   0  -6   9   30.06    4.74
   0   6  -9   26.75    4.59
   0  -6   8   17.94    5.87
   0   6  -8   19.57    3.92
   0  -6   8   15.62    3.61
   0   6  -8   20.85    4.32
   0   6  -8   19.70    5.52
   0  -6   8   26.21    3.97
   0   6  -8   21.45    3.74
   0  -6   8   19.45    3.23
   0   6  -8   18.07    3.72
   0   6  -7  339.65   19.27
   0   6  -7  333.47   17.91
   0  -6   7  359.79   22.24
   0  -6   7  272.34   17.31
   0   6  -7  296.96   18.08
   0  -6   7  239.33   17.62
   0   6  -7  303.62   19.27
   0  -6   7  270.99   18.05
   0  -6   7  332.39   18.21
   0   6  -7  379.58   23.45
   0  -6   6   82.15    6.60
   0   6  -6   82.13    6.64
   0   6  -6   58.33    8.76
   0   6  -6   75.37    7.06
   0  -6   6   77.07    7.26
   0  -6   6   82.71    6.57
   0  -6   6   83.77    9.36
   0   6  -6   85.87    8.05
   0   6  -6   83.54    6.85
   0   6  -6   76.54    9.20
   0  -6   5   34.20    4.70
   0  -6   5   50.69    4.62
   0   6  -5   43.46    4.58
   0  -6   5   50.17    4.68
   0  -6   5   51.16    7.34
   0   6  -5   51.94    4.80
   0   6  -5   46.31    5.76
   0   6  -5   33.58    6.50
   0   6  -5   43.89    6.55
   0  -6   5   39.27    5.07
   0  -6   5   54.56    8.45
   0   6  -5   43.03    4.94
   0   6  -4   65.93    8.72
   0  -6   4   80.73    6.82
   0   6  -4   75.81    7.34
   0   6  -4   58.63    7.47
   0  -6   4  102.69   11.03
   0  -6   4   72.09    5.79
   0   6  -4   80.82    5.84
   0   6  -4   53.85    7.50
   0   6  -4   60.06    5.97
   0   6  -4   66.09    5.86
   0  -6   4   67.33    5.35
   0  -6   4   55.72    7.20
   0  -6   3   20.87    4.44
   0  -6   3   28.06    5.33
   0   6  -3   30.23    4.95
   0  -6   3   27.73    5.24
   0   6  -3   32.63    3.99
   0   6  -3   21.20    5.41
   0  -6   3   38.23    4.44
   0   6  -3   34.86    4.22
   0   6  -3   35.31    4.97
   0   6  -3   35.25    3.81
   0   6  -2  133.71   12.85
   0   6  -2  156.94   10.98
   0  -6   2  163.54   13.03
   0   6  -2  158.24   11.36
   0  -6   2  180.38   11.62
   0   6  -2  177.42   11.59
   0   6  -2  129.78   13.49
   0  -6   2  168.09   13.75
   0  -6   2  146.49   13.27
   0   6  -2  154.75   11.95
   0   6  -2  178.32   10.27
   0  -6   2  149.99   12.97
   0  -6   2  169.30   10.46
   0   6  -1  235.94   15.97
   0   6  -1  268.07   15.82
   0   6  -1  262.74   14.15
   0   6  -1  212.99   14.87
   0  -6   1  361.44   22.34
   0  -6   1  250.69   13.98
   0   6  -1  188.37   16.43
   0  -6   1  277.28   15.49
   0  -6   1  247.71   18.33
   0   6  -1  188.65   17.48
   0   6  -1  249.52   15.67
   0  -6   1  182.51   16.55
   0   6   0  260.59   16.36
   0   6   0  247.68   16.02
   0   6   0  212.79   17.91
   0  -6   0  264.41   15.38
   0   6   0  243.00   15.76
   0   6   0  205.29   17.82
   0   6   1  110.37    9.01
   0  -6  -1   83.27   10.51
   0   6   1   79.97   10.26
   0   6   1  107.98    9.35
   0   6   1  107.50    8.86
   0  -6  -1   82.06    7.36
   0   6   2   49.29    5.99
   0   6   2   55.70    6.73
   0   6   2   37.53    7.34
   0  -6  -2   47.29    7.83
   0   6   3   26.46    4.70
   0  -6  -3   27.63    4.05
   0  -6  -3   27.93    5.94
   0  -6  -3   27.28    5.87
   0   6   3   30.06    4.74
   0   6   4   -0.54    1.95
   0  -6  -4    2.35    1.92
   0   6   4    3.79    2.56
   0   6   4    0.64    2.06
   0  -6  -4   -0.87    2.46
   0  -6  -5   20.93    3.23
   0   6   5   28.39    3.80
   0   6   5   28.09    4.00
   0   6   6    3.66    1.24
   0   6   6    5.99    1.58
   0  -7  12   53.46    3.67
   0  -7  11    3.36    1.68
   0   7 -11    5.00    2.12
   0  -7  11    6.43    1.66
   0  -7  10   57.23    4.71
   0  -7  10   51.38    5.32
   0   7 -10   37.26    4.51
   0   7 -10   54.37    5.12
   0   7 -10   55.77    5.05
   0   7  -9   24.19    3.89
   0  -7   9   30.42    3.75
   0   7  -9   35.09    4.37
   0  -7   9   26.77    4.05
   0   7  -9   26.63    3.92
   0  -7   9   22.33    3.71
   0   7  -8   46.39    5.36
   0  -7   8   37.25    7.34
   0   7  -8   52.75    5.71
   0  -7   8   50.88    5.33
   0  -7   8   52.41    5.02
   0  -7   7   66.55    7.13
   0   7  -7   83.23    7.67
   0   7  -7   74.05    9.82
   0  -7   7   98.32   10.61
   0  -7   7   85.74    7.01
   0   7  -7   87.81    7.03
   0   7  -7   71.71    9.98
   0  -7   7   80.60    6.77
   0   7  -6   91.90   12.05
   0  -7   6  126.31    9.08
   0   7  -6  112.55    8.99
   0   7  -6   95.37   11.31
   0   7  -6  155.62    9.33
   0   7  -6  135.90   11.24
   0  -7   6  128.94    8.97
   0  -7   6  148.79   12.91
   0  -7   6  116.19   10.00
   0   7  -6  138.71   10.19
   0  -7   5    2.86    4.22
   0   7  -5    4.76    3.45
   0   7  -5    4.90    2.86
   0  -7   5    5.77    2.79
   0   7  -5    3.53    2.86
   0   7  -5    1.78    2.71
   0  -7   5    3.02    3.04
   0  -7   5    2.72    2.06
   0   7  -5    3.59    2.40
   0  -7   5    2.75    1.63
   0   7  -5    2.61    1.86
   0   7  -4   52.03    8.64
   0  -7   4   66.20    8.60
   0  -7   4   73.97    7.26
   0   7  -4   84.66    6.94
   0   7  -4   71.55    6.90
   0  -7   4   72.76    6.28
   0  -7   4   88.94    7.88
   0   7  -4   80.50    7.34
   0   7  -3   90.85    8.85
   0   7  -3   61.69    8.86
   0   7  -3   79.50    7.28
   0   7  -3   95.96    6.52
   0   7  -3   80.17    7.54
   0   7  -3   61.54    9.80
   0  -7   3   71.77    9.36
   0  -7   3   60.43    8.40
   0   7  -2   14.40    3.33
   0  -7   2   14.35    3.68
   0  -7   2    8.50    4.21
   0  -7   2    4.75    3.03
   0   7  -2    8.73    3.29
   0   7  -2    2.66    2.95
   0   7  -2   10.06    2.68
   0   7  -2   12.10    2.97
   0   7  -2   16.69    3.80
   0  -7   1   14.02    4.53
   0   7  -1   15.94    4.93
   0   7  -1   20.56    3.31
   0  -7   1   17.15    5.10
   0  -7   1   22.26    4.10
   0  -7   1   17.77    4.53
   0   7  -1   19.34    3.89
   0   7  -1   19.52    4.14
   0   7   0  328.23   19.43
   0  -7   0  253.89   21.71
   0  -7   0  245.88   21.28
   0  -7   0  299.66   18.50
   0   7   0  348.04   20.43
   0   7   0  359.69   20.42
   0  -7  -1  519.47   35.51
   0  -7  -1  557.72   31.69
   0  -7  -1  492.37   35.17
   0   7   1  593.19   32.08
   0   7   2   14.47    3.32
   0  -7  -2   11.78    3.06
   0  -7  -2   10.33    4.30
   0  -7  -2   19.26    4.68
   0   7   2   16.18    3.87
   0   7   2   16.19    3.57
   0   7   3  125.32    8.76
   0   7   3  118.69    8.77
   0   7   4    2.86    1.85
   0   7   4    2.09    1.45
   0  -7  -4   -0.16    1.29
   0   7   4    0.16    1.37
   0   8 -11   67.32    5.07
   0  -8  11   72.00    4.80
   0  -8  10   64.23    5.40
   0  -8  10   81.68    5.38
   0  -8  10   74.49    5.16
   0   8 -10   57.57    5.23
   0  -8   9    1.73    1.69
   0  -8   9    2.30    2.45
   0  -8   9    2.30    1.73
   0   8  -9    2.13    2.20
   0   8  -9    1.56    1.54
   0  -8   8   68.07    9.12
   0   8  -8   91.31    7.84
   0  -8   8   83.74    7.18
   0   8  -8   81.29    6.85
   0  -8   8  113.26    7.44
   0  -8   8   98.98    7.29
   0   8  -8  118.02    8.20
   0  -8   7  201.38   16.46
   0   8  -7  262.88   13.28
   0  -8   7  194.94   12.85
   0   8  -7  162.76   17.28
   0  -8   7  200.01   14.11
   0   8  -7  212.49   14.05
   0  -8   7  228.04   13.44
   0   8  -6   68.35    6.15
   0   8  -6   49.46    8.77
   0  -8   6   55.55    8.46
   0   8  -6   73.30    6.55
   0  -8   6   80.45    6.34
   0  -8   6   69.28    7.21
   0   8  -6   74.36    6.82
   0   8  -5  169.29   13.57
   0  -8   5  153.59   11.58
   0   8  -5  168.58   11.73
   0   8  -5  161.26   11.53
   0  -8   5  171.54   14.35
   0   8  -5  117.20   13.89
   0  -8   5  160.71   10.72
   0  -8   5  175.62   12.39
   0   8  -4   70.92   11.04
   0  -8   4  104.78    7.82
   0   8  -4  110.82    7.47
   0   8  -4  116.62   10.51
   0  -8   4   99.44    8.83
   0  -8   4   74.74    9.97
   0   8  -4  111.08    9.01
   0  -8   4   87.01   10.32
   0   8  -4  104.51    8.63
   0  -8   3   10.90    4.23
   0   8  -3   18.93    3.81
   0  -8   3   14.78    3.98
   0  -8   3   12.78    3.71
   0   8  -3   15.17    2.92
   0   8  -3   13.87    3.37
   0  -8   2   13.54    4.94
   0   8  -2   16.33    3.75
   0  -8   2   12.74    4.09
   0  -8   2   15.20    3.86
   0  -8   2   13.32    3.78
   0  -8   1   46.89    7.86
   0  -8   1   45.60    7.25
   0   8  -1   71.38    6.76
   0  -8   1   60.25    6.17
   0   8   0   41.10    5.12
   0  -8   0   41.41    5.05
   0  -8   0   30.44    4.17
   0   8   1  228.73   14.07
   0  -8  -1  191.48   12.81
   0   8   1  190.73   12.36
   0   8   1  226.42   13.96
   0   8   2   13.07    2.65
   0   8   2   12.31    2.68
   0  -8  -2   10.78    2.29
   0   8   3   14.07    2.22
   0  -9  10   65.51    4.06
   0  -9  10   51.70    3.77
   0  -9   9   37.68    3.33
   0  -9   9   31.45    3.58
   0   9  -8   71.15    5.92
   0  -9   8   80.97    5.34
   0   9  -8   66.81    5.43
   0   9  -8   64.96    4.86
   0   9  -7   12.87    2.41
   0   9  -7   18.61    3.51
   0   9  -7   14.90    2.70
   0  -9   7   12.95    2.43
   0   9  -6   24.22    3.09
   0  -9   6   18.64    3.67
   0  -9   6   25.72    3.25
   0   9  -6   25.54    3.59
   0  -9   5   92.18    8.00
   0   9  -5   97.24    7.61
   0   9  -5   99.61    7.74
   0  -9   5  103.43    7.08
   0   9  -5   95.17    6.57
   0  -9   5   81.94    7.39
   0   9  -4    8.80    2.68
   0   9  -4    9.98    2.24
   0  -9   4    6.20    2.72
   0  -9   4    8.67    2.29
   0  -9   3   48.14    5.39
   0   9  -3   56.16    5.99
   0  -9   3   58.98    4.80
   0  -9   3   40.98    4.76
   0  -9   3   43.90    5.19
   0   9  -3   63.47    6.02
   0  -9   2    8.81    2.15
   0  -9   2    7.45    2.30
   0   9  -2    9.39    2.61
   0  -9   2    8.09    2.57
   0  -9   2   10.22    2.55
   0  -9   1   24.62    3.18
   0   9  -1   31.92    3.76
   0  -9   1   31.89    3.99
   0  -9   1   32.46    3.81
   0  -9   0   21.76    2.90
   0   9   0   25.71    3.32
   0   9   0   16.89    2.36
   0   9   0   22.55    2.82
   0   9   1   32.52    3.18
   0  -9  -1   32.14    2.62
   0 -10   8    8.29    1.29
   0  10  -7   55.60    4.60
   0 -10   7   43.59    3.43
   0 -10   6    1.60    1.47
   0 -10   6    1.79    1.08
   0  10  -6    2.20    1.64
   0 -10   5    8.14    1.59
   0  10  -5    8.79    2.34
   0  10  -4   16.11    2.34
   0 -10   4   14.20    1.97
   0  10  -4   18.10    2.89
   0  10  -3   16.10    2.35
   0  10  -3   17.15    2.45
   0 -10   3   11.88    1.74
   0  10  -3   15.65    2.39
   0 -10   2   26.22    2.25
   1 -10   1   87.51    5.36
  -1  10  -1   79.52    5.77
  -1  10  -1   92.42    6.26
  -1  10  -2   41.83    4.10
   1 -10   2   32.26    3.67
  -1  10  -2   47.51    4.35
   1 -10   2   37.91    3.99
   1 -10   2   41.82    3.38
   1 -10   2   33.92    3.59
  -1  10  -2   45.84    4.02
   1 -10   3   52.28    4.71
   1 -10   3   69.47    4.73
   1 -10   3   59.14    5.31
  -1  10  -3   69.99    5.52
   1 -10   3   52.65    5.17
  -1  10  -3   65.34    5.71
   1 -10   4   11.70    2.55
  -1  10  -4   15.09    3.08
  -1  10  -4   14.24    2.42
   1 -10   5   56.42    5.39
   1 -10   6   12.88    2.68
  -1  10  -6   19.21    3.24
  -1  10  -6   10.96    2.37
  -1  10  -7   79.01    6.15
   1 -10   7   84.86    5.19
  -1  10  -7   70.15    5.53
   1 -10   8   13.62    1.85
  -1  10  -8   11.57    1.97
   1 -10   9   44.62    3.25
   1 -10   9   51.16    3.36
  -1   9   2   32.66    3.19
  -1   9   1   36.31    3.86
   1  -9  -1   30.04    3.55
  -1   9   1   31.87    3.30
   1  -9  -1   30.82    3.56
  -1   9   1   40.04    4.18
  -1   9   0   48.69    4.74
   1  -9   0   42.20    4.76
  -1   9   0   43.01    4.55
  -1   9   0   57.81    5.47
   1  -9   0   29.49    3.89
   1  -9   1   29.12    4.07
  -1   9  -1   34.11    4.30
   1  -9   2   27.20    3.45
   1  -9   2   27.76    4.46
  -1   9  -2   27.15    4.34
   1  -9   2   21.45    5.37
   1  -9   2   26.34    4.33
   1  -9   3   68.78    9.54
  -1   9  -3   98.87    8.18
   1  -9   3  111.09    7.57
  -1   9  -3  110.06    8.60
   1  -9   3  109.52    8.85
  -1   9  -3  100.37    8.85
   1  -9   3   79.94    9.72
   1  -9   4  248.62   16.03
   1  -9   4  255.99   18.22
  -1   9  -4  257.37   17.07
   1  -9   4  280.42   16.73
  -1   9  -4  276.07   16.34
  -1   9  -4  263.41   15.89
  -1   9  -4  225.68   13.98
   1  -9   5   19.16    3.53
  -1   9  -5   17.60    2.60
   1  -9   5   17.88    4.90
  -1   9  -5   19.64    3.66
   1  -9   5   16.11    3.84
  -1   9  -6   76.67    7.32
   1  -9   6   54.49    6.24
  -1   9  -6   60.73    6.12
   1  -9   6   61.54    8.07
  -1   9  -6   66.61    5.09
   1  -9   7   32.15    4.34
   1  -9   7   43.05    4.09
  -1   9  -7   34.88    4.47
  -1   9  -7   38.33    4.96
  -1   9  -7   27.13    3.70
  -1   9  -8    3.95    1.88
   1  -9   8    4.85    1.77
  -1   9  -8    5.58    2.08
   1  -9   8    4.41    1.95
   1  -9   9  120.11    8.40
  -1   9  -9  146.11    9.10
   1  -9   9  177.32    8.77
   1  -9   9  151.13    8.58
  -1   9  -9  105.29    8.01
   1  -9  10    9.14    1.63
  -1   9 -10   10.01    1.81
   1  -9  10   12.59    2.06
  -1   8   3   53.70    5.05
  -1   8   3   50.34    4.69
  -1   8   2   14.84    2.64
  -1   8   2   16.65    3.28
   1  -8  -2   11.87    2.75
  -1   8   2   13.57    3.23
   1  -8  -1  123.68   13.02
  -1   8   1  168.69   11.67
  -1   8   1  170.62   11.58
   1  -8  -1  151.00   12.42
  -1   8   1  138.55   10.22
   1  -8  -1  123.18    9.46
   1  -8   0   90.04    7.65
   1  -8   0   95.32    9.73
   1  -8   0   74.84    9.89
   1  -8   0   68.67    9.83
  -1   8   0   81.88    7.52
   1  -8   1   25.56    4.07
   1  -8   1   13.64    4.27
  -1   8  -1   28.13    4.33
   1  -8   1   24.22    5.14
  -1   8  -1   28.57    4.46
   1  -8   1   23.02    5.54
   1  -8   1   28.16    4.56
  -1   8  -1   35.90    5.01
   1  -8   1   28.79    6.65
   1  -8   2   50.45    6.23
   1  -8   2   64.16    6.02
   1  -8   2   39.56    7.29
  -1   8  -2   51.09    4.66
  -1   8  -2   43.67    8.10
  -1   8  -2   63.59    6.52
   1  -8   2   45.87    7.56
  -1   8  -3   54.32    8.77
  -1   8  -3   88.69    7.89
   1  -8   3   90.39    7.00
  -1   8  -3   86.53    6.29
   1  -8   3   95.37   12.27
   1  -8   3   95.27    7.69
   1  -8   3   63.14    9.38
  -1   8  -3   53.93    9.39
  -1   8  -3   83.97    7.71
  -1   8  -4  175.64   12.68
   1  -8   4  160.05   12.41
   1  -8   4  209.35   19.04
  -1   8  -4  157.16   11.92
  -1   8  -4  184.74   12.42
   1  -8   4  177.90   14.87
  -1   8  -4  132.07   14.80
   1  -8   4  211.07   13.63
  -1   8  -4  185.36   10.91
  -1   8  -5  271.62   23.77
   1  -8   5  354.90   21.09
  -1   8  -5  360.94   20.93
   1  -8   5  381.40   23.78
  -1   8  -5  354.20   20.29
  -1   8  -5  272.74   24.45
   1  -8   5  309.45   19.89
   1  -8   5  363.65   27.50
  -1   8  -6  186.19   12.56
  -1   8  -6  126.94   14.67
   1  -8   6  179.51   12.36
   1  -8   6  155.26   10.67
  -1   8  -6  126.18   14.88
  -1   8  -6  174.96   11.68
  -1   8  -7   53.16    5.56
  -1   8  -7   62.09    6.79
  -1   8  -7   71.29    6.40
  -1   8  -7   84.38    7.34
   1  -8   7   53.77    6.10
  -1   8  -7   46.14    8.59
   1  -8   7   69.21    6.11
   1  -8   7   77.86    6.25
   1  -8   8   93.08    6.58
   1  -8   8   71.87    6.44
  -1   8  -8   84.16    7.29
  -1   8  -9   26.22    3.92
   1  -8   9   31.82    4.02
  -1   8  -9   26.84    4.02
   1  -8   9   32.13    3.73
  -1   8 -10    4.66    1.76
   1  -8  10    4.46    1.70
  -1   8 -10    6.23    2.34
   1  -8  10    6.55    2.14
   1  -8  10    5.04    1.92
  -1   8 -11    2.53    1.58
   1  -8  11    3.57    1.63
   1  -8  11    2.43    1.10
  -1   7   5   21.91    2.94
  -1   7   5   27.80    3.39
  -1   7   4    2.54    1.92
   1  -7  -4   -0.34    1.69
  -1   7   4    3.31    2.11
  -1   7   4    1.33    2.04
   1  -7  -3   73.66    8.59
  -1   7   3   98.35    8.08
   1  -7  -3   65.87    6.45
  -1   7   3   82.76    7.85
  -1   7   3   90.69    7.85
   1  -7  -3   46.68    7.81
  -1   7   3   67.47    6.27
  -1   7   2   10.06    3.35
   1  -7  -2    3.50    3.47
  -1   7   2    3.25    2.64
   1  -7  -2    7.30    3.57
  -1   7   2    4.01    2.63
  -1   7   2    3.36    2.60
   1  -7  -1   55.47    5.81
   1  -7  -1   48.17    8.35
   1  -7  -1   71.72    8.54
  -1   7   1   74.22    7.48
  -1   7   1   64.05    6.85
   1  -7  -1   55.21    8.49
   1  -7  -1   42.73    7.88
  -1   7   0  141.20   14.28
   1  -7   0  126.36   13.53
   1  -7   0  144.41   14.18
  -1   7   0  152.14   11.65
  -1   7   0  166.78   12.11
   1  -7   0  172.96   10.30
  -1   7   0  161.35   12.05
   1  -7   0  181.75   14.04
   1  -7   0  132.79   14.03
   1  -7   1   27.34    5.66
   1  -7   1   17.83    4.81
  -1   7  -1   21.92    5.65
   1  -7   1   24.37    4.16
  -1   7  -1   29.45    3.46
   1  -7   1   26.40    6.33
  -1   7  -1   30.86    4.39
  -1   7  -1   25.85    4.34
   1  -7   1   28.94    6.14
  -1   7  -2   14.97    4.50
  -1   7  -2   15.52    2.82
   1  -7   2   15.40    5.38
   1  -7   2   14.49    3.80
   1  -7   2   14.10    4.45
  -1   7  -2   12.99    4.62
   1  -7   2   14.54    4.53
  -1   7  -2   18.19    4.17
   1  -7   2   12.15    4.01
  -1   7  -2   17.47    3.44
  -1   7  -2   13.18    3.03
  -1   7  -3  196.07   13.22
  -1   7  -3  160.46   15.57
  -1   7  -3  161.51   16.03
   1  -7   3  211.00   12.70
  -1   7  -3  186.84   12.80
   1  -7   3  202.62   13.45
  -1   7  -3  187.74   12.87
   1  -7   3  175.71   15.48
  -1   7  -3  214.68   14.62
   1  -7   4  337.72   19.39
  -1   7  -4  286.72   22.77
  -1   7  -4  288.26   18.11
   1  -7   4  244.07   20.02
  -1   7  -4  259.87   21.91
  -1   7  -4  312.42   18.63
  -1   7  -4  348.13   19.46
  -1   7  -5  152.20   11.97
  -1   7  -5  141.40   10.84
  -1   7  -5  119.67   11.95
   1  -7   5  166.06   15.72
   1  -7   5  145.97   10.95
  -1   7  -5  124.64   13.75
  -1   7  -5  149.71   10.54
   1  -7   6  309.58   20.37
  -1   7  -6  394.81   21.75
   1  -7   6  379.70   26.67
   1  -7   6  366.55   20.05
  -1   7  -6  315.87   23.24
  -1   7  -6  283.50   24.02
   1  -7   7  568.43   28.37
   1  -7   7  533.68   27.77
  -1   7  -7  564.92   29.68
  -1   7  -7  495.68   27.67
  -1   7  -7  557.17   33.08
  -1   7  -7  470.03   28.52
   1  -7   8  315.35   18.93
  -1   7  -8  363.42   20.56
  -1   7  -8  312.24   23.15
   1  -7   8  339.07   18.65
   1  -7   9   53.04    4.91
  -1   7  -9   36.64    4.51
  -1   7  -9   46.67    5.59
  -1   7 -10   54.70    5.52
   1  -7  10   64.13    5.81
   1  -7  10   68.46    5.52
  -1   7 -10   46.14    4.95
  -1   7 -10   69.76    6.17
   1  -7  10   72.29    5.44
   1  -7  11    3.12    1.59
   1  -7  11    2.89    1.46
  -1   7 -11    2.43    1.33
   1  -7  11    3.70    1.65
   1  -7  11    2.95    1.94
   1  -7  12   17.24    1.75
  -1   7 -12   14.46    1.95
  -1   6   6  265.80   15.91
  -1   6   5    2.37    2.32
  -1   6   5    1.78    2.01
  -1   6   4   13.57    3.60
   1  -6  -4   15.71    4.66
   1  -6  -4   14.59    4.40
  -1   6   4   16.41    3.74
  -1   6   3    4.70    3.51
  -1   6   3    9.17    3.38
  -1   6   3    8.26    3.18
   1  -6  -3    3.45    3.18
   1  -6  -3    1.15    2.91
  -1   6   3    4.03    2.44
   1  -6  -3    6.27    3.77
  -1   6   2    0.61    2.33
  -1   6   2    1.68    2.52
   1  -6  -2   -0.54    2.75
   1  -6  -2   -0.46    2.96
  -1   6   2   -0.68    2.10
   1  -6  -1  376.60   22.30
   1  -6  -1  340.18   23.33
  -1   6   1  334.60   20.01
  -1   6   1  313.58   19.73
  -1   6   1  255.63   21.41
  -1   6   1  304.51   19.43
   1  -6   0  118.10    7.74
   1  -6   0   85.63   10.19
  -1   6   0  121.84    7.58
   1  -6   0  126.93   10.60
  -1   6   0  109.62    8.83
   1  -6   0  133.18   12.35
   1  -6   0  117.59    7.77
  -1   6   0  100.42    8.83
  -1   6   0  118.02    9.13
  -1   6   0  111.99    8.93
  -1   6   0   82.56    9.70
  -1   6   0  110.91    8.84
  -1   6   0   92.39   10.29
   1  -6   1  359.88   25.66
   1  -6   1  438.00   21.90
  -1   6  -1  334.15   23.87
  -1   6  -1  411.23   23.20
   1  -6   1  442.02   21.99
  -1   6  -1  374.10   22.86
  -1   6  -1  395.50   22.83
  -1   6  -1  401.06   22.93
  -1   6  -1  428.08   21.49
  -1   6  -1  399.23   23.57
   1  -6   1  462.77   25.45
  -1   6  -1  347.18   25.08
  -1   6  -1  343.94   25.44
   1  -6   1  356.66   25.24
  -1   6  -1  375.88   22.69
  -1   6  -2   24.67    5.19
   1  -6   2   28.98    5.13
   1  -6   2   27.37    5.44
  -1   6  -2   28.94    5.46
  -1   6  -2   29.20    3.87
  -1   6  -2   28.77    3.77
   1  -6   2   31.52    3.63
   1  -6   2   24.10    4.71
  -1   6  -2   26.98    4.13
   1  -6   2   31.80    4.18
  -1   6  -3  404.31   24.08
   1  -6   3  464.14   23.20
   1  -6   3  454.66   23.44
  -1   6  -3  367.52   25.05
  -1   6  -3  474.00   25.07
  -1   6  -3  406.52   27.75
   1  -6   3  425.58   27.57
  -1   6  -3  460.25   24.71
   1  -6   4   70.05    8.61
  -1   6  -4   50.25    5.81
  -1   6  -4   60.60    5.66
  -1   6  -4   46.33    7.17
   1  -6   4   58.55    5.07
   1  -6   4   50.96    4.83
  -1   6  -4   50.28    6.31
   1  -6   4   44.82    5.16
  -1   6  -5  303.55   17.69
   1  -6   5  324.30   18.06
  -1   6  -5  266.31   21.26
  -1   6  -5  318.27   20.97
   1  -6   5  363.94   23.32
  -1   6  -5  311.11   19.45
  -1   6  -5  328.61   19.08
   1  -6   5  280.44   18.27
  -1   6  -5  324.80   17.31
  -1   6  -6  618.39   35.33
  -1   6  -6  760.27   40.45
   1  -6   6  571.44   35.57
   1  -6   6  667.29   40.63
  -1   6  -6  702.73   37.07
  -1   6  -6  746.51   36.39
  -1   6  -6  615.62   39.75
  -1   6  -6  754.25   35.24
  -1   6  -7  871.38   49.12
  -1   6  -7  935.71   49.76
  -1   6  -7 1012.67   48.85
  -1   6  -7  965.80   50.81
  -1   6  -7 1045.21   54.84
   1  -6   7  952.97   48.95
  -1   6  -8  125.64    9.08
  -1   6  -8  116.05    9.50
  -1   6  -8  114.35    9.14
   1  -6   8  126.57    8.97
  -1   6  -8  127.45   13.01
   1  -6   9   51.93    5.52
  -1   6  -9   53.63    5.94
   1  -6   9   58.37    5.37
  -1   6  -9   51.44    5.65
  -1   6  -9   50.51    5.44
   1  -6   9   60.04    5.99
  -1   6 -10    3.51    2.79
   1  -6  10    2.39    2.47
  -1   6 -10    1.73    1.92
   1  -6  10    3.35    2.19
   1  -6  10    4.52    2.52
  -1   6 -10    2.89    2.16
   1  -6  10    4.16    2.08
  -1   6 -10    4.38    2.31
  -1   6 -11    8.80    2.19
  -1   6 -11    5.26    1.80
  -1   6 -11    6.16    2.04
  -1   6 -11    6.53    2.44
   1  -6  11    8.52    2.35
   1  -6  11    6.95    2.11
   1  -6  11    3.07    1.62
   1  -6  11    7.48    1.85
   1  -6  12    8.36    1.45
  -1   6 -12    7.64    1.70
  -1   5   7   13.87    2.82
  -1   5   7   14.46    2.80
  -1   5   6   60.39    6.54
  -1   5   6   63.49    6.64
  -1   5   5   15.54    4.17
  -1   5   5   14.88    3.76
  -1   5   5   12.57    2.91
  -1   5   5   17.77    3.93
   1  -5  -5    7.62    4.12
   1  -5  -4   57.02    8.47
   1  -5  -4   49.88    7.82
  -1   5   4   55.09    6.65
   1  -5  -4   62.46    8.84
  -1   5   4   64.95    5.64
  -1   5   4   41.80    7.74
  -1   5   4   61.30    6.84
   1  -5  -3   17.62    4.91
  -1   5   3   21.70    3.98
  -1   5   3   28.24    4.49
  -1   5   3   20.87    5.25
  -1   5   3   29.26    3.79
   1  -5  -3   22.29    5.59
  -1   5   2   70.41    8.68
   1  -5  -2   57.91    7.81
   1  -5  -2   92.72    9.06
  -1   5   2   76.57    6.87
  -1   5   2   71.48    6.96
  -1   5   2   67.80    6.71
   1  -5  -1  146.71   10.90
  -1   5   1  116.85   10.67
  -1   5   1  110.88    8.89
   1  -5  -1  123.14    7.64
   1  -5  -1  115.78   10.60
  -1   5   1  108.66    8.91
  -1   5   1  102.49    9.96
  -1   5   1  129.91    9.27
  -1   5   0   19.53    2.44
  -1   5   0   13.93    3.64
  -1   5   0   15.37    2.77
   1  -5   0   23.02    4.52
  -1   5   0   17.09    3.04
  -1   5   0   13.72    3.24
   1  -5   0   23.00    4.27
  -1   5   0   18.08    4.01
  -1   5   0   19.44    3.11
   1  -5   0   22.04    2.95
  -1   5  -1  315.59   21.38
   1  -5   1  362.48   18.54
  -1   5  -1  334.36   19.38
   1  -5   1  320.18   21.47
   1  -5   1  393.78   21.31
   1  -5   1  329.68   18.37
  -1   5  -1  302.90   19.95
  -1   5  -1  351.33   21.80
   1  -5   2  263.45   14.81
  -1   5  -2  294.56   16.05
   1  -5   2  295.67   16.71
   1  -5   2  282.94   15.36
   1  -5   2  274.72   15.26
  -1   5  -2  286.21   18.54
   1  -5   2  254.40   17.84
  -1   5  -2  243.65   16.16
   1  -5   2  258.33   18.05
  -1   5  -2  297.93   16.07
   1  -5   2  312.59   17.76
  -1   5  -3  209.06   13.49
  -1   5  -3  218.17   11.73
   1  -5   3  194.40   11.43
   1  -5   3  199.75   14.52
   1  -5   3  209.68   13.50
   1  -5   3  163.76   12.96
  -1   5  -3  213.74   14.91
   1  -5   3  192.94   11.30
  -1   5  -4   14.32    2.51
   1  -5   4   12.65    2.68
   1  -5   4   11.99    2.65
  -1   5  -4   11.31    2.56
  -1   5  -4   12.83    2.23
  -1   5  -4   16.51    3.97
   1  -5   4   13.88    3.17
   1  -5   4   10.78    2.98
  -1   5  -4   15.03    2.46
   1  -5   4   20.38    4.45
   1  -5   4   14.46    4.21
   1  -5   4   15.30    3.61
   1  -5   5   17.55    3.00
  -1   5  -5   21.14    2.97
  -1   5  -5   21.23    3.17
  -1   5  -5   17.94    3.16
   1  -5   5   15.84    2.92
   1  -5   5   26.50    3.74
   1  -5   5   24.76    4.72
  -1   5  -5   23.42    5.30
  -1   5  -5   24.15    4.56
  -1   5  -5   21.01    2.94
  -1   5  -6  216.04   12.92
   1  -5   6  189.14   12.01
   1  -5   6  187.38   15.06
  -1   5  -6  225.74   15.83
   1  -5   6  209.57   13.05
  -1   5  -6  196.98   12.50
  -1   5  -7  411.66   21.70
   1  -5   7  400.22   22.59
  -1   5  -7  385.96   22.29
  -1   5  -7  367.60   21.81
  -1   5  -7  424.25   25.98
   1  -5   7  388.09   21.38
   1  -5   7  432.74   22.33
   1  -5   7  341.70   20.66
   1  -5   8  678.18   34.64
   1  -5   8  649.06   33.75
  -1   5  -8  691.05   39.16
  -1   5  -8  657.98   33.91
   1  -5   8  667.79   35.32
  -1   5  -8  637.77   34.84
  -1   5  -8  536.00   33.91
  -1   5  -9  436.22   26.97
  -1   5  -9  504.56   31.63
  -1   5  -9  408.03   26.40
  -1   5  -9  521.57   26.56
   1  -5   9  471.10   26.81
   1  -5   9  508.93   25.99
  -1   5  -9  516.37   31.99
   1  -5   9  497.00   26.22
   1  -5  10    8.94    2.61
  -1   5 -10    9.51    4.16
   1  -5  10    8.77    2.99
  -1   5 -10    9.82    2.90
   1  -5  10    8.03    2.40
   1  -5  10   11.98    2.73
  -1   5 -10    6.54    2.46
   1  -5  11   19.14    2.97
  -1   5 -11   21.28    3.36
  -1   5 -11   18.77    3.29
  -1   5 -11   18.93    3.02
  -1   5 -11   22.39    3.43
   1  -5  11   23.07    3.03
  -1   5 -12    5.82    1.79
   1  -5  12    9.62    1.60
  -1   4   8   58.97    5.53
  -1   4   7   18.62    3.43
  -1   4   7   21.39    3.33
  -1   4   7   21.93    3.88
  -1   4   6   75.01    6.64
  -1   4   6   65.11    9.79
  -1   4   6   87.69    6.54
  -1   4   6   87.22    8.16
   1  -4  -6   59.41    9.04
   1  -4  -6   54.31    7.97
  -1   4   5   51.21    8.52
   1  -4  -5   62.61    8.98
   1  -4  -5   49.83    7.44
  -1   4   5   77.34    6.31
  -1   4   5   70.89    6.05
  -1   4   5   68.67    7.23
  -1   4   5   74.84    7.50
  -1   4   4   17.41    3.10
  -1   4   4   15.70    3.00
  -1   4   4   20.68    3.86
   1  -4  -4   16.10    4.26
  -1   4   4   21.18    3.11
  -1   4   4   16.69    3.57
   1  -4  -4   23.51    5.39
  -1   4   3   70.69    6.47
  -1   4   3   76.29    5.46
  -1   4   3   78.34    5.46
   1  -4  -3   63.35    6.47
  -1   4   3   53.49    7.39
   1  -4  -3   50.45    6.41
   1  -4  -3   91.44    8.29
  -1   4   3   57.42    4.67
  -1   4   3   56.38    4.99
  -1   4   3   60.64    5.81
   1  -4  -2  301.15   20.37
   1  -4  -2  422.37   21.31
  -1   4   2  366.24   23.01
   1  -4  -2  440.53   22.71
  -1   4   2  349.57   20.39
  -1   4   2  310.46   21.06
   1  -4  -2  444.77   22.84
   1  -4  -2  347.82   22.31
  -1   4   1  145.92   11.18
   1  -4  -1  180.05   11.57
  -1   4   1  136.85   10.65
   1  -4  -1  140.57    8.67
  -1   4   1  172.30    8.89
  -1   4   1  151.09    9.89
   1  -4  -1  158.99   10.16
   1  -4  -1  128.71    9.51
   1  -4  -1  192.14   11.89
   1  -4  -1  138.91   10.94
  -1   4   0  176.08   13.07
  -1   4   0  215.69   13.09
   1  -4   0  192.31   13.02
   1  -4   0  254.78   14.15
   1  -4   0  237.16   13.29
   1  -4   0  184.09   11.02
   1  -4   0  189.03   10.90
  -1   4   0  199.13   13.22
  -1   4   0  193.49   11.68
  -1   4   0  196.79   11.81
   1  -4   1    3.03    2.30
  -1   4  -1    1.81    2.03
   1  -4   1    3.83    2.18
  -1   4  -1    4.61    1.65
   1  -4   1    4.37    1.71
   1  -4   1    5.24    1.97
  -1   4  -1    5.22    2.19
  -1   4  -1    4.24    1.73
  -1   4  -1    4.74    2.22
  -1   4  -2  871.39   47.53
   1  -4   2  905.12   49.64
   1  -4   2 1076.87   49.47
   1  -4   2 1141.25   50.72
   1  -4   2  981.96   48.69
   1  -4   2  927.30   49.93
   1  -4   3  285.13   15.63
   1  -4   3  228.31   12.66
   1  -4   3  233.09   14.23
   1  -4   3  219.54   12.58
   1  -4   3  194.93   13.59
  -1   4  -3  265.17   14.24
   1  -4   3  221.88   13.91
  -1   4  -3  244.83   15.17
  -1   4  -4  221.28   14.03
   1  -4   4  179.99   12.31
  -1   4  -4  217.33   11.83
  -1   4  -4  189.27   11.49
  -1   4  -4  216.57   13.50
   1  -4   4  228.31   14.17
  -1   4  -4  205.04   11.47
   1  -4   4  206.88   11.59
   1  -4   5  177.27   12.15
   1  -4   5  157.34    9.13
  -1   4  -5  173.53    9.93
  -1   4  -5  157.16   10.53
  -1   4  -5  119.43   10.42
  -1   4  -5  154.87    9.79
  -1   4  -5  162.39   11.76
  -1   4  -5  178.94   12.11
   1  -4   5  174.41   11.87
  -1   4  -5  146.05   10.02
  -1   4  -5  172.83   12.20
  -1   4  -5  171.22   10.06
   1  -4   6  313.61   16.45
  -1   4  -6  284.70   18.49
  -1   4  -6  311.40   15.74
  -1   4  -6  239.16   15.27
  -1   4  -6  213.58   16.91
  -1   4  -6  258.57   15.97
  -1   4  -6  243.25   17.36
   1  -4   6  277.97   15.02
  -1   4  -6  321.72   19.09
  -1   4  -6  261.81   16.02
  -1   4  -6  299.37   16.90
   1  -4   6  259.38   15.06
  -1   4  -7    0.41    2.57
  -1   4  -7   -0.84    4.56
  -1   4  -7   -0.47    1.57
   1  -4   7    0.81    1.42
   1  -4   7    0.40    1.88
  -1   4  -7    0.24    1.53
   1  -4   7   -0.49    1.62
  -1   4  -7    0.28    1.72
  -1   4  -7    0.41    2.72
  -1   4  -7    1.31    3.45
   1  -4   8  322.99   18.75
   1  -4   8  314.14   17.42
  -1   4  -8  283.21   18.64
   1  -4   8  280.61   17.46
  -1   4  -8  316.54   17.69
  -1   4  -8  283.62   21.11
  -1   4  -8  258.34   17.65
  -1   4  -8  305.30   21.71
   1  -4   8  310.50   16.88
  -1   4  -8  269.91   17.85
   1  -4   8  314.22   17.17
  -1   4  -8  264.32   20.78
   1  -4   9  279.23   17.98
  -1   4  -9  345.97   23.50
   1  -4   9  250.76   17.70
   1  -4   9  337.74   18.04
  -1   4  -9  350.39   18.64
   1  -4   9  344.96   17.67
  -1   4  -9  269.72   21.52
  -1   4  -9  303.26   19.54
  -1   4  -9  284.15   18.46
  -1   4  -9  279.98   22.49
   1  -4   9  356.54   19.97
   1  -4  10  138.03    9.29
  -1   4 -10  111.05    9.21
   1  -4  10  112.42    7.47
  -1   4 -10   93.21    8.39
  -1   4 -10   90.24   11.36
   1  -4  10  126.18    7.90
  -1   4 -10   82.98   10.56
  -1   4 -10  114.69    8.83
   1  -4  10   98.13    8.01
   1  -4  10  126.75    8.25
   1  -4  11  194.63   10.70
   1  -4  11  187.30    9.95
   1  -4  11  173.26    9.21
   1  -4  11  177.28    9.20
  -1   4 -12    1.46    1.58
  -1   3   9   36.47    3.49
  -1   3   9   44.12    4.43
  -1   3   8  111.85    7.68
  -1   3   8  105.69    8.16
  -1   3   7  270.22   15.44
  -1   3   7  209.71   20.09
   1  -3  -7  216.96   18.39
  -1   3   7  252.66   14.88
  -1   3   7  294.68   16.42
  -1   3   7  285.12   17.51
  -1   3   6   53.93    4.99
  -1   3   6   51.01    5.26
  -1   3   6   36.72    7.12
  -1   3   6   53.20    6.17
   1  -3  -6   47.13    7.16
  -1   3   6   48.12    4.86
  -1   3   6   47.75    5.72
  -1   3   6   42.48    4.73
  -1   3   5  319.12   24.61
   1  -3  -5  386.68   23.66
  -1   3   5  380.24   20.19
  -1   3   5  359.39   21.89
  -1   3   5  374.41   21.98
   1  -3  -5  303.34   21.72
  -1   3   5  389.02   20.18
  -1   3   5  356.39   21.69
  -1   3   5  384.40   20.60
  -1   3   4  255.99   13.49
  -1   3   4  232.15   14.65
   1  -3  -4  210.85   14.63
  -1   3   4  209.64   14.36
  -1   3   4  249.51   13.29
  -1   3   4  219.76   12.96
  -1   3   4  227.92   14.54
  -1   3   4  247.88   13.52
  -1   3   4  184.44   16.17
   1  -3  -3 1469.96   73.21
  -1   3   3 1410.17   72.45
   1  -3  -3 1604.74   74.30
  -1   3   3 1467.97   72.20
  -1   3   3 1507.68   72.26
   1  -3  -2 1057.65   52.37
   1  -3  -2 1170.49   53.32
  -1   3   1   27.23    3.48
   1  -3  -1   30.55    3.71
  -1   3   1   28.43    3.65
   1  -3  -1   34.03    3.79
   1  -3  -1   21.36    1.95
   1  -3  -1   30.62    3.05
  -1   3   0  345.68   20.15
  -1   3   0  438.54   22.24
   1  -3   0  397.02   21.62
  -1   3   0  398.79   22.23
   1  -3   0  474.11   22.35
  -1   3   0  447.92   21.79
   1  -3   0  371.28   20.39
   1  -3   0  490.25   22.32
  -1   3  -1  186.04   10.00
   1  -3   1  157.26    9.87
   1  -3   1  189.29   10.59
   1  -3   1  154.93   10.66
  -1   3  -1  174.70   10.91
   1  -3   2  181.75    9.65
  -1   3  -2  193.58   10.42
  -1   3  -2  191.40   10.65
   1  -3   2  189.60   10.84
  -1   3  -2  213.44   11.62
   1  -3   2  218.60   11.64
   1  -3   2  169.81   11.14
  -1   3  -2  152.27    9.09
   1  -3   3  102.85    6.95
  -1   3  -3  104.19    6.09
  -1   3  -3   94.87    6.73
  -1   3  -3  105.88    7.42
   1  -3   3   84.63    6.71
  -1   3  -3   68.05    6.17
   1  -3   3  119.88    7.60
   1  -3   3  112.23    6.22
  -1   3  -3  115.90    7.39
  -1   3  -3   98.98    6.37
   1  -3   3  126.31    7.97
  -1   3  -3  131.73    8.03
  -1   3  -4  166.16   10.54
  -1   3  -4  159.50    9.50
   1  -3   4  155.40   10.56
  -1   3  -4  132.45    9.89
  -1   3  -4  172.87   10.78
  -1   3  -4  148.42   10.23
   1  -3   4  170.77   10.48
   1  -3   4  162.38    8.95
  -1   3  -5  402.64   22.33
  -1   3  -5  367.63   21.82
   1  -3   5  420.10   21.60
  -1   3  -5  479.87   24.58
  -1   3  -5  410.81   22.75
   1  -3   5  448.42   24.22
  -1   3  -5  457.04   24.14
  -1   3  -5  395.84   22.35
  -1   3  -5  487.13   24.51
   1  -3   6   35.65    3.92
   1  -3   6   31.22    3.32
  -1   3  -6   35.99    5.12
  -1   3  -6   30.68    3.65
   1  -3   6   32.57    3.19
  -1   3  -6   31.88    3.81
   1  -3   6   32.01    3.57
  -1   3  -6   25.44    3.22
  -1   3  -6   39.05    4.34
  -1   3  -6   39.60    5.55
  -1   3  -6   37.81    5.45
   1  -3   7   19.73    2.91
   1  -3   7   27.22    3.74
   1  -3   7   15.48    2.81
  -1   3  -7   19.03    3.18
  -1   3  -7   15.83    2.68
  -1   3  -7   19.09    3.20
  -1   3  -7   21.69    3.56
   1  -3   7   15.44    2.82
   1  -3   7   22.46    2.95
   1  -3   7   18.56    2.68
  -1   3  -7   11.20    4.20
  -1   3  -7   19.29    4.76
  -1   3  -7   25.66    5.39
   1  -3   8  154.65    9.19
   1  -3   8  125.72    9.32
   1  -3   8  146.72    9.70
   1  -3   8  145.02    9.36
  -1   3  -8  136.80   12.69
  -1   3  -8  122.75   12.58
   1  -3   8  143.11    9.79
   1  -3   8  141.31   10.41
  -1   3  -8  147.92   10.96
  -1   3  -8  180.72   14.87
  -1   3  -8  117.94    9.85
  -1   3  -8  120.83    9.82
   1  -3   9   83.48    7.13
  -1   3  -9  108.45   12.34
  -1   3  -9   94.94    8.36
  -1   3  -9   81.40    7.43
   1  -3   9   74.97    6.75
   1  -3   9  110.00    6.96
  -1   3  -9   82.30    7.40
  -1   3  -9   87.42   10.24
   1  -3   9   97.82    7.11
   1  -3  10  104.67    7.28
   1  -3  10  104.61    8.23
  -1   3 -10   82.62    7.26
  -1   3 -10   84.63   11.30
   1  -3  10  108.85    6.95
   1  -3  10   98.70    6.73
  -1   3 -10  100.62    8.43
   1  -3  11   94.05    6.95
  -1   3 -11   84.79    6.96
   1  -3  11   83.65    5.76
   1  -3  11   91.77    6.27
  -1   2  10   76.53    5.79
  -1   2   9   72.38    5.68
  -1   2   8   15.32    3.20
  -1   2   8   17.42    3.59
   1  -2  -8   21.18    5.51
  -1   2   8    9.64    2.59
  -1   2   7   75.74    7.34
   1  -2  -7   83.98   10.09
  -1   2   7   81.78    6.96
  -1   2   7   85.47    7.07
  -1   2   7   54.97    8.88
  -1   2   7   74.24    6.27
   1  -2  -6  133.44   10.58
  -1   2   6   87.27   10.68
  -1   2   6  110.36    8.13
  -1   2   6  108.97    7.61
  -1   2   6  121.25    8.25
  -1   2   6  102.13    8.69
  -1   2   6  102.14    8.77
   1  -2  -5  128.48    9.93
  -1   2   5  110.07    7.42
   1  -2  -5  131.99    9.85
  -1   2   5  111.47    8.63
  -1   2   5  122.07    7.94
  -1   2   5  110.62    8.50
   1  -2  -5  111.33    8.96
  -1   2   5  106.74   10.64
  -1   2   5  112.90    8.56
  -1   2   5  115.03    7.84
  -1   2   4  183.53   10.14
  -1   2   4  165.59   12.77
  -1   2   4  162.54    9.80
   1  -2  -3  859.23   43.47
  -1   2   3  909.29   46.12
  -1   2   2  596.98   31.95
   1  -2  -2  619.41   30.46
   1  -2  -2  696.66   32.08
  -1   2   1 5005.39  232.55
   1  -2  -1 4997.82  231.64
   1  -2  -1 4643.94  231.29
  -1   2   1 4840.31  232.84
  -1   2   0 1776.20   97.54
   1  -2   0 2107.78   97.43
  -1   2   0 2261.86   97.00
   1  -2   0 1715.28   96.84
  -1   2   0 2073.71   97.29
  -1   2   0 2173.86   97.69
  -1   2  -1  617.44   31.96
   1  -2   1  706.54   32.49
   1  -2   2   61.77    4.53
  -1   2  -2   67.93    4.72
   1  -2   2   53.88    4.25
  -1   2  -2   53.62    4.15
   1  -2   2   54.38    4.23
   1  -2   2   61.39    4.37
  -1   2  -2   45.81    3.92
  -1   2  -2   63.86    4.23
  -1   2  -3  210.44   10.31
   1  -2   3  214.18   10.48
   1  -2   3  229.24   10.37
  -1   2  -3  209.28   10.23
  -1   2  -4 1016.67   53.65
  -1   2  -4 1221.71   55.58
  -1   2  -4 1143.77   54.31
   1  -2   4 1244.87   55.48
   1  -2   4 1015.27   53.89
   1  -2   5 1728.57   75.86
  -1   2  -5 1668.35   76.25
   1  -2   5 1618.12   73.67
  -1   2  -5 1552.75   74.36
   1  -2   6  280.12   15.47
  -1   2  -6  285.67   16.05
  -1   2  -6  231.26   14.82
  -1   2  -6  368.84   20.08
   1  -2   6  245.64   14.99
  -1   2  -6  243.32   15.27
   1  -2   6  295.45   15.19
  -1   2  -6  297.69   18.32
   1  -2   6  271.05   14.91
   1  -2   6  304.21   15.92
   1  -2   7  232.86   12.86
  -1   2  -7  192.56   13.38
   1  -2   7  244.50   13.62
   1  -2   7  239.26   13.31
  -1   2  -7  219.40   14.15
   1  -2   7  254.98   14.41
  -1   2  -7  216.14   14.28
   1  -2   7  219.37   13.69
   1  -2   7  204.53   13.14
  -1   2  -8   22.01    3.50
   1  -2   8   32.20    3.66
   1  -2   8   27.40    3.92
  -1   2  -8   29.93    4.34
   1  -2   8   40.35    3.99
   1  -2   8   40.74    4.43
  -1   2  -8   33.23    4.32
   1  -2   8   32.37    3.73
   1  -2   8   32.97    4.47
   1  -2   9   89.43    6.45
   1  -2   9   85.91    7.20
   1  -2   9   99.54    6.79
   1  -2   9   98.45    8.17
  -1   2  -9   85.66    7.57
   1  -2   9   76.58    7.16
  -1   2  -9  111.62   12.56
  -1   2  -9  100.74   11.12
  -1   2  -9   96.70    8.45
  -1   2  -9   82.67    7.53
  -1   2  -9   71.98    9.56
   1  -2   9   93.88    6.99
   1  -2  10  123.17   10.03
   1  -2  10  185.02   10.63
  -1   2 -10  161.04   10.85
  -1   2 -10  166.45   11.71
  -1   2 -10  153.47   15.54
   1  -2  10  188.52   10.20
   1  -2  10  196.02   12.01
  -1   2 -10  122.92   12.88
   1  -2  11    2.35    1.44
  -1   2 -11    4.04    1.67
   1  -2  11    2.35    1.45
  -1   1  10   13.42    2.80
  -1   1   9  146.01    9.54
   1  -1  -9  131.34   13.61
  -1   1   9  110.13    9.20
  -1   1   9  113.15    8.02
   1  -1  -8  298.63   21.44
  -1   1   8  241.66   15.72
   1  -1  -8  282.06   19.65
  -1   1   8  221.35   15.67
  -1   1   7  663.49   35.91
  -1   1   7  713.10   37.28
  -1   1   7  596.29   40.78
  -1   1   7  705.89   36.20
   1  -1  -7  839.85   41.56
   1  -1  -7  793.51   39.71
  -1   1   7  666.71   37.53
  -1   1   6   77.94    5.86
  -1   1   6   85.64    6.04
   1  -1  -6   97.67    8.52
  -1   1   6   78.41    6.74
  -1   1   6   84.43    5.93
   1  -1  -6   91.27    8.00
  -1   1   6   68.27    6.16
   1  -1  -6   98.18    8.86
  -1   1   6   66.61    8.32
   1  -1  -6   92.44    8.55
  -1   1   6   85.85    6.57
   1  -1  -5  437.89   24.45
   1  -1  -5  436.16   23.48
   1  -1  -5  473.38   25.06
  -1   1   4  761.61   40.73
   1  -1  -3   36.86    2.53
  -1   1   3   40.43    4.24
  -1   1   2 1221.34   54.78
   1  -1  -2 1071.82   54.43
  -1   1   1  679.30   33.36
  -1   1   0   36.38    2.67
   1  -1   0   38.13    2.76
   1  -1   0   39.53    2.43
  -1   1   0   37.31    2.71
  -1   1  -1  230.22   10.76
   1  -1   1  238.76   11.03
   1  -1   2  661.53   32.87
  -1   1  -2  691.09   33.09
   1  -1   2  652.03   33.56
   1  -1   2  691.34   33.62
   1  -1   3  281.49   14.55
   1  -1   3  251.68   14.41
   1  -1   4  206.66   11.92
   1  -1   4  206.51   11.54
  -1   1  -4  176.43   10.73
   1  -1   5  212.28   13.62
   1  -1   5  207.79   11.88
  -1   1  -5  198.41   12.00
   1  -1   5  218.59   11.94
   1  -1   5  216.97   12.01
   1  -1   6  107.75    7.62
   1  -1   6  112.72    7.43
   1  -1   6  111.08    7.13
   1  -1   6  111.45    7.38
   1  -1   6  101.96    7.43
  -1   1  -6   89.73    7.04
   1  -1   7  323.23   18.11
  -1   1  -7  382.05   22.70
   1  -1   7  318.38   17.64
  -1   1  -7  292.08   18.67
   1  -1   7  291.41   17.94
   1  -1   7  307.37   18.90
   1  -1   7  315.02   18.47
   1  -1   7  318.99   17.27
   1  -1   7  302.51   16.90
   1  -1   7  349.19   18.41
   1  -1   8  129.55    9.56
  -1   1  -8   93.21    8.42
   1  -1   8  129.11    8.37
   1  -1   8  126.59    9.88
  -1   1  -8  105.72    9.11
   1  -1   8  149.34    9.67
   1  -1   8  135.70    9.38
   1  -1   8  143.84    9.02
  -1   1  -9  153.08   11.53
   1  -1   9  180.18   11.64
  -1   1  -9  152.18   11.37
   1  -1   9  154.61   11.46
   1  -1   9  188.25   10.72
   1  -1   9  179.49   12.41
   1  -1   9  176.27   11.01
   1  -1  10   12.94    2.84
  -1   1 -10   14.04    3.02
   1  -1  10   20.07    3.39
  -1   1 -10   10.58    2.46
   1  -1  10   18.23    2.67
  -1   1 -10    8.80    3.58
   1  -1  11    3.74    1.30
  -1   1 -11    2.60    1.76
   1   0 -11    1.12    1.17
  -1   0  11   -0.41    1.51
  -1   0  10   54.48    5.21
   1   0 -10   49.88    5.05
  -1   0  10   49.72    5.09
   1   0 -10   40.87    6.65
   1   0 -10   60.98    9.10
   1   0  -9   23.19    6.50
  -1   0   9   11.19    2.88
  -1   0   9   16.44    3.34
   1   0  -9   20.91    5.50
  -1   0   8  138.33   10.36
   1   0  -8  131.18   12.34
   1   0  -8  170.69   13.77
   1   0  -8  184.10   14.83
  -1   0   8  141.42    9.42
  -1   0   8  147.23   10.16
  -1   0   8  150.86   10.78
  -1   0   8  137.42    9.38
   1   0  -7  596.57   31.82
  -1   0   7  464.86   28.04
  -1   0   7  551.87   27.81
   1   0  -7  554.48   31.06
  -1   0   7  513.76   28.27
  -1   0   7  565.61   27.79
  -1   0   7  507.39   28.75
  -1   0   7  555.05   28.36
   1   0  -7  591.22   30.90
  -1   0   7  576.22   29.16
   1   0  -7  654.52   33.38
   1   0  -7  425.50   27.78
  -1   0   6   41.58    3.69
  -1   0   6   35.78    3.64
  -1   0   6   39.12    3.98
  -1   0   6   36.05    3.70
  -1   0   6   35.59    3.88
  -1   0   6   35.10    5.19
   1   0  -6   41.12    5.42
  -1   0   6   44.89    3.93
   1   0  -6   38.72    5.82
  -1   0   6   31.04    3.48
   1   0  -6   41.46    5.70
  -1   0   6   38.14    3.45
   1   0  -5  939.55   42.49
  -1   0   5  759.65   42.49
  -1   0   5  753.65   39.85
   1   0  -5  971.58   43.12
  -1   0   5  734.78   39.79
   1   0  -5  868.97   42.35
   1   0  -4  310.24   16.91
   1   0  -4  306.63   16.16
   1   0  -3   57.50    3.39
  -1   0   3   58.63    4.69
   1   0  -3   69.00    4.64
   1   0  -3   66.52    5.00
  -1   0   2 3197.48  163.79
   1   0  -2 2989.63  163.11
   1   0  -2 3914.64  163.78
   1   0  -2 3660.61  163.31
  -1   0   1 1985.73   95.65
  -1   0   0 1517.97   73.57
   1   0   0 1521.11   73.82
   1   0   0 1727.15   74.27
  -1   0   0 1470.39   73.65
  -1   0   0 1550.25   73.98
   1   0   0 1532.45   73.55
  -1   0  -1 1025.86   51.43
  -1   0  -1 1042.84   51.24
   1   0   1 1089.05   51.25
  -1   0  -2  144.18    6.64
  -1   0  -2   98.57    6.45
  -1   0  -2  137.93    7.60
   1   0   2  119.14    6.83
   1   0   2  114.23    6.60
  -1   0  -3   26.72    3.09
  -1   0  -3   22.89    2.86
  -1   0  -3   33.42    3.44
   1   0   3   29.94    2.58
   1   0   4  737.55   38.31
   1   0   4  717.28   40.40
  -1   0  -4  820.63   40.27
   1   0   4  744.74   38.40
   1   0   5  268.87   15.40
   1   0   5  312.79   16.15
   1   0   5  268.78   15.35
  -1   0  -5  296.00   17.92
   1   0   5  259.73   15.91
   1   0   5  272.77   18.33
   1   0   6  229.17   13.32
  -1   0  -6  192.26   13.27
  -1   0  -6  248.92   16.43
   1   0   6  243.54   13.30
   1   0   6  234.77   14.52
   1   0   6  223.67   12.82
   1   0   6  197.43   16.10
   1   0   6  208.77   13.74
   1   0   7  165.01   11.59
  -1   0  -7  139.27   10.58
   1   0   7  180.29   12.31
   1   0   7  181.22   11.14
   1   0   7  167.81   10.77
   1   0   7  169.30   10.43
   1   0   8  178.09   10.78
   1   0   8  192.69   12.09
   1   0   8  171.05   12.55
  -1   0  -8  148.39   11.63
  -1   0  -8  148.30   11.22
   1   0   8  167.49   11.96
   1   0   9   96.05    6.55
   1   0   9   96.60    7.49
  -1   0  -9   74.38    7.03
  -1   0  -9   92.89   10.24
  -1   0  -9   93.26   11.30
  -1   0  -9   72.57    6.89
   1   0   9   94.97    7.95
   1   0  10    0.82    1.46
   1   0  10    0.21    1.49
  -1   0 -10    0.32    1.12
   1   0  10   -0.16    1.70
  -1   0 -10   -1.04    1.41
  -1  -1  12   27.58    2.45
  -1  -1  11   10.54    2.39
   1   1 -11    6.50    2.01
  -1  -1  10   24.48    3.53
   1   1 -10   22.34    3.53
   1   1 -10   21.52    6.36
  -1  -1  10   19.71    3.45
  -1  -1  10   24.90    3.75
  -1  -1  10   27.78    3.68
   1   1 -10   21.76    5.38
  -1  -1  10   25.55    3.21
  -1  -1   9    1.26    2.01
  -1  -1   9    1.21    1.45
   1   1  -9    1.17    3.41
   1   1  -9    2.09    1.87
  -1  -1   9   -0.66    2.43
   1   1  -9    4.50    3.85
  -1  -1   9    1.90    2.02
   1   1  -9    2.30    4.39
  -1  -1   9    1.73    1.65
  -1  -1   8   15.81    2.61
  -1  -1   8   12.16    3.14
   1   1  -8   22.97    5.74
   1   1  -8   18.43    5.44
  -1  -1   8   15.26    2.88
  -1  -1   8   16.52    3.09
  -1  -1   8   12.85    3.05
  -1  -1   8   18.19    3.19
  -1  -1   8   14.70    2.86
  -1  -1   8   16.73    3.00
  -1  -1   7  259.60   15.04
  -1  -1   7  258.20   14.16
   1   1  -7  281.93   18.09
   1   1  -7  258.81   17.50
  -1  -1   7  263.03   14.47
  -1  -1   7  231.60   14.58
   1   1  -7  282.91   16.87
  -1  -1   7  247.85   14.04
  -1  -1   7  243.49   14.74
  -1  -1   7  216.12   14.23
  -1  -1   7  244.82   14.97
  -1  -1   6  723.90   35.25
   1   1  -6  731.03   38.21
  -1  -1   6  650.15   35.76
   1   1  -6  845.09   38.84
  -1  -1   6  761.66   36.17
   1   1  -6  589.49   35.22
   1   1  -6  801.91   38.80
  -1  -1   6  690.31   35.61
  -1  -1   6  697.82   35.34
  -1  -1   5  432.59   22.18
   1   1  -5  371.11   21.83
   1   1  -5  553.63   25.09
   1   1  -5  480.28   24.37
  -1  -1   4  123.59    7.93
   1   1  -4  138.38    9.42
   1   1  -4  136.09    8.76
   1   1  -4  168.37   10.05
  -1  -1   4  161.98    9.29
   1   1  -3  140.28    8.82
  -1  -1   3  149.43    8.70
   1   1  -3  158.16    8.62
   1   1  -3  135.69    8.88
   1   1  -2  275.75   14.94
   1   1  -2  281.12   14.84
  -1  -1   1  531.17   26.92
   1   1  -1  508.41   26.88
   1   1   0 7899.98  393.96
   1   1   0 8322.12  394.03
  -1  -1   0 8454.39  393.89
   1   1   1 1166.53   58.85
   1   1   1 1252.10   59.73
  -1  -1  -1 1200.85   60.15
  -1  -1  -1 1368.52   60.54
  -1  -1  -2  205.07   11.77
  -1  -1  -2  241.35   12.84
   1   1   2  198.50   11.91
  -1  -1  -2  214.79   11.45
   1   1   2  196.04   11.17
  -1  -1  -2  207.08   12.38
  -1  -1  -3  209.12   12.35
  -1  -1  -3  170.54   11.40
   1   1   3  163.35   11.97
   1   1   3  179.29   10.19
   1   1   3  178.02   10.18
  -1  -1  -3  186.93   11.21
   1   1   4  268.74   18.34
  -1  -1  -4  363.12   19.19
   1   1   4  294.79   15.79
   1   1   4  233.36   15.06
   1   1   4  297.84   15.75
   1   1   4  285.59   15.64
  -1  -1  -4  323.41   17.55
   1   1   4  309.56   15.93
   1   1   5   48.44    4.67
   1   1   5   54.66    4.78
  -1  -1  -5   65.50    7.40
  -1  -1  -5   49.66    6.01
   1   1   5   54.85    4.55
   1   1   5   46.19    6.50
   1   1   5   43.54    4.19
   1   1   5   50.79    4.30
   1   1   6  160.22    9.74
   1   1   6  156.70   10.21
   1   1   6  152.03    9.43
   1   1   6  126.39   12.89
  -1  -1  -6  179.95   14.45
   1   1   6  145.27   10.50
  -1  -1  -6  116.92    9.76
   1   1   6  152.05   10.16
   1   1   6  141.61   10.90
   1   1   7  114.48    8.14
   1   1   7   84.60    7.78
  -1  -1  -7   72.97    6.92
   1   1   7   91.72    8.38
  -1  -1  -7   74.03    9.21
  -1  -1  -7   98.59   11.27
   1   1   7   92.67    6.83
   1   1   8  277.84   15.41
  -1  -1  -8  273.00   21.19
   1   1   8  273.91   17.42
  -1  -1  -8  241.44   16.57
   1   1   9   20.35    3.51
   1   1   9   18.30    2.77
  -1  -1  -9   16.28    2.88
   1   2 -12   25.93    2.97
  -1  -2  12   33.73    2.94
   1   2 -11   25.17    4.66
  -1  -2  11   27.82    3.33
  -1  -2  11   22.98    2.87
   1   2 -11   24.87    3.48
   1   2 -10    1.32    4.02
  -1  -2  10    1.34    2.36
  -1  -2  10    3.40    2.43
   1   2 -10    7.10    4.31
  -1  -2  10    3.28    1.71
   1   2  -9   42.91    7.72
  -1  -2   9   33.02    4.20
  -1  -2   9   41.79    5.28
  -1  -2   9   32.22    4.45
   1   2  -9   52.29    8.05
   1   2  -9   35.82    6.80
  -1  -2   9   36.46    4.44
   1   2  -9   40.19    4.78
  -1  -2   9   43.98    4.17
  -1  -2   9   42.26    4.58
   1   2  -8  184.07   14.78
  -1  -2   8  156.86   11.01
   1   2  -8  189.75   14.85
   1   2  -8  194.87   13.91
  -1  -2   8  155.04   10.19
  -1  -2   8  168.19   10.29
   1   2  -8  148.40   11.06
   1   2  -8  195.65   14.95
  -1  -2   8  157.70   11.21
  -1  -2   8  161.64   10.06
   1   2  -8  162.28   13.80
  -1  -2   8  139.07   10.58
  -1  -2   8  160.12   10.68
   1   2  -7   98.71    9.63
  -1  -2   7   70.79    5.69
   1   2  -7   98.50    8.68
  -1  -2   7   81.98    6.68
   1   2  -7   70.20    6.35
  -1  -2   7   81.45    5.79
   1   2  -7   96.61    9.19
  -1  -2   7   75.65    6.38
  -1  -2   7   73.89    6.36
  -1  -2   7   89.85    6.09
   1   2  -7  100.39    9.44
  -1  -2   7   79.43    6.23
   1   2  -6  602.74   32.30
  -1  -2   6  573.89   29.83
   1   2  -6  509.19   29.65
  -1  -2   6  610.52   29.62
   1   2  -5 1056.30   49.00
  -1  -2   5 1048.79   46.74
  -1  -2   5 1086.93   48.55
  -1  -2   4  251.29   14.16
   1   2  -4  229.82   14.34
  -1  -2   3  252.52   14.17
   1   2  -3  244.47   13.84
   1   2  -3  252.82   13.28
   1   2  -3  224.64   12.12
  -1  -2   3  247.20   13.24
   1   2  -3  238.86   13.37
   1   2  -2  618.66   30.18
  -1  -2   2  838.20   32.74
  -1  -2   2  622.26   30.91
  -1  -2   2  486.50   29.88
   1   2  -2  729.28   31.56
  -1  -2   2  544.02   30.34
  -1  -2   2  630.33   30.81
  -1  -2   1  304.28   16.35
  -1  -2   1  294.95   16.41
   1   2  -1  325.90   16.62
   1   2  -1  264.57   16.29
  -1  -2   0   48.29    4.59
   1   2   0   44.00    4.01
  -1  -2   0   49.53    4.62
  -1  -2   0   46.65    4.52
   1   2   0   42.60    4.15
  -1  -2  -1  131.11    8.48
  -1  -2  -1  133.04    8.59
  -1  -2  -1  130.24    8.33
   1   2   1  133.94    8.57
  -1  -2  -1  120.55    8.41
   1   2   2 1163.17   56.92
   1   2   2 1207.32   59.04
   1   2   2 1133.08   56.90
  -1  -2  -2 1269.98   59.23
  -1  -2  -2 1250.48   59.36
  -1  -2  -2 1271.18   59.55
   1   2   3   59.70    4.69
   1   2   3   63.16    5.00
  -1  -2  -3   68.59    6.75
   1   2   3   83.61    5.37
  -1  -2  -3   82.35    7.40
   1   2   3   49.78    6.39
  -1  -2  -3   77.30    6.97
  -1  -2  -3   66.40    6.72
   1   2   3   69.00    5.04
   1   2   4   43.25    3.96
   1   2   4   25.52    5.27
   1   2   4   44.65    4.22
   1   2   4   45.66    4.24
  -1  -2  -4   46.70    5.77
   1   2   4   39.78    4.63
   1   2   4   40.01    4.43
  -1  -2  -4   34.53    5.48
  -1  -2  -4   32.02    5.26
  -1  -2  -4   47.14    6.07
   1   2   4   43.26    4.19
   1   2   5  200.81   11.77
   1   2   5  182.75   13.19
   1   2   5  156.48   15.32
  -1  -2  -5  199.91   14.91
   1   2   5  187.51   12.10
   1   2   5  194.41   13.29
   1   2   5  171.44   12.48
  -1  -2  -5  211.44   15.74
   1   2   5  200.10   12.21
  -1  -2  -5  220.75   15.74
   1   2   6  115.89    9.46
  -1  -2  -6  116.19   11.60
   1   2   6  114.23    8.07
   1   2   6   80.96   11.09
  -1  -2  -6   91.73   10.63
   1   2   6  123.08    8.74
  -1  -2  -6  120.70   11.99
   1   2   7  241.87   14.70
  -1  -2  -7  213.20   17.59
  -1  -2  -7  206.92   14.35
   1   2   7  242.83   13.78
   1   2   8    1.01    2.04
   1   2   8   -0.14    1.94
  -1  -2  -8   -0.24    1.74
   1   2   9    5.07    1.79
  -1  -2  -9    4.68    1.63
  -1  -3  12    3.72    1.60
   1   3 -12    2.92    1.38
  -1  -3  11   10.66    2.62
   1   3 -11    7.32    2.43
  -1  -3  11    9.54    2.89
  -1  -3  11   11.94    2.81
   1   3 -11   12.73    4.03
  -1  -3  11    8.74    2.00
  -1  -3  10    0.67    2.05
  -1  -3  10   -1.02    2.72
   1   3 -10    0.61    3.44
  -1  -3  10   -0.17    1.54
  -1  -3  10   -0.29    2.39
   1   3 -10   -0.75    2.09
   1   3 -10   -0.43    4.46
  -1  -3  10   -0.23    1.71
   1   3 -10   -0.53    3.86
   1   3  -9   98.03   10.64
  -1  -3   9  107.00    8.38
  -1  -3   9  113.20    8.02
   1   3  -9  117.21    9.46
  -1  -3   9  103.41    8.51
  -1  -3   9  107.72    9.11
   1   3  -9  107.04    8.68
  -1  -3   9  109.29    7.71
   1   3  -9  119.96    8.99
   1   3  -9  105.88   11.58
   1   3  -9  108.44   12.12
  -1  -3   8  142.34    9.43
   1   3  -8  155.26   10.93
   1   3  -8  159.76   13.47
  -1  -3   8  167.90   10.53
  -1  -3   8  135.45   10.31
   1   3  -8  167.94   13.50
   1   3  -8  132.41   10.33
  -1  -3   8  153.15   10.84
  -1  -3   7  517.13   32.58
   1   3  -7  748.39   37.38
  -1  -3   7  593.02   32.30
   1   3  -7  699.08   36.80
   1   3  -7  672.58   33.31
   1   3  -7  719.08   36.77
   1   3  -7  582.85   33.37
  -1  -3   7  741.84   33.57
   1   3  -6   14.84    2.54
   1   3  -6   16.80    4.01
  -1  -3   6   12.62    2.12
  -1  -3   6   17.70    3.99
   1   3  -6   16.56    3.65
   1   3  -6   16.75    3.99
  -1  -3   6   17.08    2.73
   1   3  -6   19.83    4.81
   1   3  -6   17.32    2.72
  -1  -3   5  473.41   28.70
  -1  -3   5  567.94   28.67
   1   3  -5  550.88   28.74
   1   3  -5  628.01   29.17
   1   3  -5  532.25   29.97
   1   3  -5  583.75   30.82
  -1  -3   5  584.52   30.68
   1   3  -5  616.09   31.69
   1   3  -4 1157.73   56.79
   1   3  -4 1173.86   54.71
   1   3  -4 1091.10   55.77
   1   3  -4 1035.45   54.26
  -1  -3   4 1098.47   56.09
   1   3  -3 1207.70   54.24
   1   3  -3 1105.53   52.71
  -1  -3   3  862.06   52.56
  -1  -3   3  949.38   53.00
   1   3  -2  188.63   11.43
  -1  -3   2  151.83    9.39
  -1  -3   2  180.86   11.30
  -1  -3   2  182.88   11.23
  -1  -3   1  359.01   19.46
  -1  -3   1  334.72   19.47
   1   3   0  174.06   12.04
   1   3   0  162.30   10.83
   1   3   0  183.26    9.82
  -1  -3   0  201.95   12.17
  -1  -3  -1   18.62    3.57
   1   3   1   17.59    2.32
  -1  -3  -1   16.85    3.59
   1   3   1   14.20    2.14
  -1  -3  -1   17.19    3.78
   1   3   1   17.94    3.69
   1   3   1   16.73    2.38
  -1  -3  -1   18.95    3.75
   1   3   2  593.80   30.50
   1   3   2  586.41   30.41
  -1  -3  -2  612.09   33.24
  -1  -3  -2  644.13   34.09
  -1  -3  -2  611.74   33.22
  -1  -3  -2  541.03   32.94
  -1  -3  -3  162.43   11.80
   1   3   3  129.29    9.40
   1   3   3  122.13    9.50
   1   3   3  122.40    8.39
   1   3   3   94.56   10.97
   1   3   3  136.25    8.72
  -1  -3  -3  136.13   11.51
  -1  -3  -3  130.39   11.23
   1   3   3  137.96    8.68
  -1  -3  -3  147.44   11.35
   1   3   4  161.93   10.17
   1   3   4  154.22   11.45
   1   3   4  115.74   12.96
  -1  -3  -4  135.33   12.77
   1   3   4  163.20   10.17
  -1  -3  -4  155.85   12.84
  -1  -3  -4  149.65   12.94
   1   3   4  148.37    9.99
  -1  -3  -4  159.09   13.01
  -1  -3  -5   88.66   10.13
   1   3   5  102.86    7.68
   1   3   5   98.83    8.79
   1   3   5   96.31    8.81
   1   3   5   90.02    7.40
   1   3   5   95.47    7.23
  -1  -3  -5   76.35    9.35
   1   3   5   75.36   10.63
  -1  -3  -5   92.30   10.24
  -1  -3  -6   70.09    8.98
   1   3   6   76.12    6.55
   1   3   6   66.47    7.07
   1   3   6   70.66    6.06
  -1  -3  -7   40.30    4.87
  -1  -3  -7   54.61    5.50
   1   3   7   53.02    5.14
   1   3   8    4.93    1.91
  -1  -3  -8    3.76    1.51
  -1  -4  12    2.20    1.51
  -1  -4  12    4.20    1.19
   1   4 -12    3.47    2.12
   1   4 -12    1.60    1.36
  -1  -4  11   14.78    3.12
   1   4 -11   11.26    2.64
  -1  -4  11    7.55    2.40
  -1  -4  11    8.52    1.95
   1   4 -11   10.54    4.02
  -1  -4  11    7.82    2.96
  -1  -4  11    9.68    2.36
  -1  -4  10   31.53    4.77
   1   4 -10   19.80    3.81
  -1  -4  10   29.49    4.21
  -1  -4  10   29.53    4.23
  -1  -4  10   26.71    3.42
   1   4 -10   23.69    5.44
  -1  -4  10   29.58    4.10
   1   4  -9   46.82    7.16
   1   4  -9   45.50    5.30
  -1  -4   9   33.84    4.86
   1   4  -9   49.87    6.72
  -1  -4   9   34.92    4.05
  -1  -4   9   43.81    5.01
   1   4  -9   22.45    5.43
   1   4  -9   49.35    5.41
   1   4  -8  188.59   15.05
  -1  -4   8  162.46   11.13
   1   4  -8  179.55   11.73
  -1  -4   8  162.05   11.53
  -1  -4   8  156.04   10.31
  -1  -4   8  156.93   10.49
   1   4  -8  142.84   13.19
   1   4  -8  169.15   11.84
   1   4  -8  168.00   11.50
   1   4  -7  367.04   23.04
   1   4  -7  319.00   21.13
   1   4  -7  373.58   23.34
   1   4  -7  360.94   19.65
  -1  -4   7  313.80   19.27
   1   4  -7  351.66   19.57
  -1  -4   7  294.16   18.23
  -1  -4   7  355.74   21.91
   1   4  -7  347.88   19.33
  -1  -4   6   65.91    5.71
   1   4  -6   52.36    6.25
  -1  -4   6   64.61    5.12
   1   4  -6   77.00    5.94
  -1  -4   6   54.69    5.52
   1   4  -6   70.41    6.41
  -1  -4   6   78.45    7.73
   1   4  -6   75.76    5.94
  -1  -4   6   73.98    5.61
   1   4  -5  136.85    8.39
   1   4  -5  125.96    8.17
   1   4  -5  111.18    8.12
   1   4  -5  150.37   10.95
  -1  -4   5  126.92    7.91
  -1  -4   5  106.88    7.56
  -1  -4   5  116.14    8.41
  -1  -4   5  136.61   10.27
   1   4  -4   39.95    4.05
   1   4  -4   54.61    4.33
  -1  -4   4   48.96    3.85
   1   4  -4   49.63    4.34
   1   4  -4   56.95    6.11
  -1  -4   4   45.24    4.31
  -1  -4   4   36.82    4.83
  -1  -4   4   61.24    7.17
   1   4  -4   44.69    3.97
  -1  -4   4   48.42    4.48
  -1  -4   3  276.22   14.51
  -1  -4   3  213.70   15.08
  -1  -4   3  185.63   14.25
   1   4  -3  262.59   13.96
   1   4  -3  249.19   14.16
   1   4  -3  250.73   13.71
  -1  -4   3  246.36   15.67
   1   4  -3  272.04   16.79
   1   4  -3  229.92   13.48
  -1  -4   3  257.45   15.76
   1   4  -3  268.49   16.13
   1   4  -2 1695.79   79.26
   1   4  -2 1451.31   81.02
   1   4  -2 1629.36   79.95
  -1  -4   2 1839.61   80.13
  -1  -4   2 1475.29   78.79
   1   4  -2 1600.95   79.13
  -1  -4   2 1783.66   82.44
   1   4  -2 1587.44   79.56
  -1  -4   2 1707.94   81.86
   1   4  -1  216.97   14.93
   1   4  -1  251.19   13.57
  -1  -4   1  275.40   14.27
  -1  -4   1  213.11   13.06
  -1  -4   1  262.22   16.11
  -1  -4   1  263.69   16.52
   1   4  -1  256.38   16.90
   1   4  -1  247.70   14.46
   1   4   0   61.12    4.71
  -1  -4   0   70.99    5.28
  -1  -4   0   82.55    8.33
   1   4   0   69.86    4.99
  -1  -4   0   65.88    7.05
   1   4   0   54.21    5.33
   1   4   0   61.97    7.12
   1   4   0   61.62    4.77
  -1  -4   0   65.19    6.77
   1   4   1    4.14    2.42
  -1  -4  -1    5.51    1.69
   1   4   1    6.30    2.17
  -1  -4  -1    8.11    3.75
  -1  -4  -1    7.14    2.84
   1   4   1    5.50    1.79
  -1  -4  -1    6.71    3.17
   1   4   1    5.73    1.70
  -1  -4  -2   83.71    9.62
   1   4   2   82.55    6.09
   1   4   2   63.88    8.61
   1   4   2   80.19    6.08
   1   4   2   76.16    7.01
  -1  -4  -2   94.58    8.93
  -1  -4  -2   76.85    9.00
  -1  -4  -2   79.77    8.75
  -1  -4  -3  151.99   13.88
   1   4   3  202.51   11.57
  -1  -4  -3  164.97   15.31
   1   4   3  190.13   11.49
   1   4   3  167.53   12.33
  -1  -4  -3  145.59   14.34
  -1  -4  -3  186.77   14.58
  -1  -4  -3  197.02   15.24
  -1  -4  -4  178.73   16.76
   1   4   4  223.29   15.03
   1   4   4  222.18   12.92
  -1  -4  -4  225.74   16.94
   1   4   4  191.86   12.45
   1   4   4  210.22   12.75
   1   4   4  151.90   16.58
  -1  -4  -4  181.67   15.70
  -1  -4  -4  192.25   15.90
   1   4   4  206.38   14.06
  -1  -4  -4  183.05   16.26
  -1  -4  -5   77.78   10.72
   1   4   5   95.57    7.52
   1   4   6   40.83    4.55
   1   4   6   54.75    5.83
  -1  -4  -6   56.03    5.63
  -1  -4  -7    3.03    1.52
   1   4   7    3.30    1.86
  -1  -5  12   21.50    2.28
  -1  -5  12   24.06    2.61
   1   5 -12   23.01    3.01
   1   5 -12   21.96    2.74
  -1  -5  12   32.29    3.08
  -1  -5  11   28.92    3.09
   1   5 -11   20.18    3.21
   1   5 -11   25.41    4.01
  -1  -5  11   23.47    3.58
  -1  -5  11   23.52    3.43
   1   5 -11   26.83    3.65
  -1  -5  10   28.58    4.63
   1   5 -10   26.59    4.83
  -1  -5  10   30.35    3.55
   1   5 -10   29.02    4.19
  -1  -5  10   29.21    4.19
  -1  -5  10   29.23    4.26
   1   5 -10   27.79    4.31
   1   5  -9  185.03   12.17
   1   5  -9  185.90   12.32
  -1  -5   9  160.74   11.96
   1   5  -9  167.35   11.72
   1   5  -9  166.83   15.17
  -1  -5   9  151.35   10.58
  -1  -5   9  167.98   11.04
   1   5  -9  175.83   12.05
  -1  -5   8  232.59   16.58
  -1  -5   8  294.44   16.90
   1   5  -8  303.12   21.44
   1   5  -8  293.67   17.01
   1   5  -8  308.20   17.55
  -1  -5   8  283.80   19.86
   1   5  -8  256.69   16.81
  -1  -5   8  259.11   15.86
  -1  -5   7   27.71    4.06
   1   5  -7   36.59    4.79
  -1  -5   7   32.39    4.06
   1   5  -7   28.49    4.10
  -1  -5   7   27.41    3.47
   1   5  -7   32.76    4.29
   1   5  -7   33.16    4.31
  -1  -5   7   29.95    6.20
  -1  -5   6    6.22    2.43
  -1  -5   6    1.88    1.65
   1   5  -6    8.49    3.59
   1   5  -6    3.23    1.98
   1   5  -6    5.50    2.06
   1   5  -6    4.05    2.39
   1   5  -6    6.23    2.23
   1   5  -6    5.88    3.03
   1   5  -6    5.18    2.09
  -1  -5   6    6.13    2.07
  -1  -5   6    7.44    4.30
  -1  -5   6    5.01    2.01
   1   5  -5    5.19    2.23
  -1  -5   5    3.22    1.64
  -1  -5   5    3.64    2.36
   1   5  -5    1.21    1.54
   1   5  -5    4.79    1.94
  -1  -5   5    3.48    1.91
   1   5  -5    2.99    2.46
   1   5  -5    3.03    1.65
   1   5  -5    3.94    2.65
   1   5  -5    4.36    2.41
  -1  -5   5    4.78    3.76
  -1  -5   5    5.60    1.70
   1   5  -4  127.12    8.18
  -1  -5   4   98.30    9.62
   1   5  -4  119.03    7.78
   1   5  -4  112.67   10.65
  -1  -5   4  142.63    9.24
  -1  -5   4  111.13    8.60
   1   5  -4  122.30    8.51
   1   5  -4  112.22    7.96
   1   5  -4  120.32   10.28
  -1  -5   4  121.42    7.61
   1   5  -3  134.95    8.41
   1   5  -3  141.22   11.84
   1   5  -3   99.16    9.70
  -1  -5   3  128.59   10.89
   1   5  -3  141.04    9.06
  -1  -5   3  105.87    9.96
   1   5  -3  118.23    8.35
   1   5  -3  131.56    8.12
  -1  -5   3  129.88   10.49
   1   5  -2   84.44    6.65
  -1  -5   2   66.79    7.43
   1   5  -2   96.06    6.38
  -1  -5   2   99.15    7.01
   1   5  -2   64.89    7.18
  -1  -5   2   88.88    8.36
   1   5  -2   64.20    7.10
  -1  -5   2   76.28    5.87
  -1  -5   2   78.40    8.37
   1   5  -2   85.65    5.87
   1   5  -1  289.50   20.16
   1   5  -1  305.06   15.63
   1   5  -1  302.23   17.01
  -1  -5   1  258.01   15.06
   1   5  -1  223.81   15.89
   1   5  -1  229.54   17.96
  -1  -5   1  309.59   16.61
   1   5  -1  260.77   17.26
  -1  -5   1  299.21   18.90
  -1  -5   1  323.52   20.21
   1   5  -1  302.26   15.77
  -1  -5   0  442.67   27.76
   1   5   0  499.24   24.53
   1   5   0  426.69   25.97
   1   5   0  510.09   24.88
   1   5   0  365.17   27.66
  -1  -5   0  498.55   25.25
   1   5   0  454.69   26.05
   1   5   0  402.28   25.33
   1   5   1    2.23    2.64
  -1  -5  -1    0.43    3.03
   1   5   1    2.59    2.37
   1   5   1   -0.15    1.47
   1   5   1    0.32    1.52
  -1  -5  -1    0.52    3.04
   1   5   1    1.12    1.80
  -1  -5  -2   14.93    5.18
   1   5   2   15.48    4.85
   1   5   2   23.17    3.19
  -1  -5  -2   18.79    3.67
  -1  -5  -2   22.12    5.77
  -1  -5  -2   16.81    4.96
   1   5   2   20.07    3.10
   1   5   2   15.49    3.75
   1   5   2   16.20    3.66
   1   5   3    4.35    2.72
  -1  -5  -3   -0.64    3.05
   1   5   3    7.64    4.03
   1   5   3    5.52    2.84
   1   5   3    2.96    1.93
  -1  -5  -3    3.41    3.27
  -1  -5  -3    8.07    4.00
   1   5   3    4.44    2.09
   1   5   4   12.08    3.49
  -1  -5  -4    9.14    2.67
   1   5   4   10.04    3.25
   1   5   4    9.83    2.90
  -1  -5  -4    9.83    3.78
  -1  -5  -4    3.67    3.50
   1   5   5   64.90    6.29
  -1  -5  -5   53.78    5.66
   1   5   5   67.72    6.61
   1   5   6   66.43    5.51
   1   5   6   76.58    5.85
  -1  -5  -6   59.58    5.38
  -1  -6  12    0.45    1.03
   1   6 -11    6.44    2.65
  -1  -6  11    3.75    1.46
  -1  -6  11    5.84    2.13
   1   6 -11    3.11    1.74
  -1  -6  11    5.98    2.08
  -1  -6  10   60.76    5.13
  -1  -6  10   62.74    5.51
   1   6 -10   68.25    6.03
   1   6 -10   67.97    6.17
  -1  -6  10   55.39    5.92
   1   6  -9   22.78    4.44
   1   6  -9   23.06    3.89
  -1  -6   9   26.12    3.98
  -1  -6   9   20.49    3.20
   1   6  -9   16.01    3.19
  -1  -6   9   20.45    3.80
  -1  -6   9   25.54    4.13
  -1  -6   8  242.65   17.30
   1   6  -8  250.44   16.60
   1   6  -8  319.71   22.37
  -1  -6   8  313.55   17.66
  -1  -6   8  332.05   21.27
   1   6  -8  305.45   17.86
   1   6  -8  338.66   17.91
  -1  -6   8  264.39   17.01
  -1  -6   8  287.97   16.91
   1   6  -8  321.38   18.14
   1   6  -7  293.31   25.54
   1   6  -7  382.42   22.66
   1   6  -7  432.57   27.32
   1   6  -7  457.81   23.24
   1   6  -7  373.74   23.87
   1   6  -7  423.39   22.47
  -1  -6   7  397.43   22.05
  -1  -6   7  461.55   26.77
   1   6  -7  360.25   21.64
  -1  -6   7  445.54   22.53
  -1  -6   7  349.58   22.18
   1   6  -6  315.75   23.94
   1   6  -6  409.81   21.48
  -1  -6   6  414.43   22.81
  -1  -6   6  371.95   21.11
   1   6  -6  400.99   25.60
   1   6  -6  378.73   23.52
  -1  -6   6  370.39   20.94
   1   6  -6  299.86   25.22
   1   6  -6  378.97   21.82
  -1  -6   6  424.04   25.45
  -1  -6   5   13.39    2.71
   1   6  -5    9.40    2.51
   1   6  -5    8.58    3.60
  -1  -6   5   10.79    3.03
   1   6  -5   13.69    3.66
  -1  -6   5   16.01    3.66
   1   6  -5   12.46    4.06
  -1  -6   5   10.11    2.13
   1   6  -5   13.79    3.23
  -1  -6   5    6.57    4.33
  -1  -6   4   43.67    5.21
  -1  -6   4   32.37    4.68
   1   6  -4   32.35    4.26
   1   6  -4   39.00    4.36
   1   6  -4   32.19    3.93
  -1  -6   4   32.29    5.77
   1   6  -4   34.23    6.35
  -1  -6   3  128.98   12.66
   1   6  -3  143.44   11.64
   1   6  -3  112.09   11.94
  -1  -6   3  140.86   10.78
  -1  -6   3  146.63   12.29
   1   6  -3  149.59   13.90
   1   6  -3  163.62   10.73
  -1  -6   3  116.37   11.67
  -1  -6   2  148.03    9.94
  -1  -6   2  108.64   11.13
  -1  -6   2  122.85   11.17
   1   6  -2  138.45   10.91
  -1  -6   2  126.44   12.24
   1   6  -2  120.43    8.42
   1   6  -2  114.94    9.20
  -1  -6   2  116.32    9.65
   1   6  -1   39.64    5.55
   1   6  -1   26.32    5.34
   1   6  -1   33.24    4.34
  -1  -6   1   22.45    4.94
  -1  -6   1   36.51    6.88
   1   6  -1   37.40    5.15
   1   6  -1   41.34    4.35
   1   6  -1   23.99    5.91
  -1  -6   1   39.80    4.87
  -1  -6   1   40.79    6.31
  -1  -6   0   59.39    8.06
   1   6   0   58.25    6.54
  -1  -6   0   57.36    5.79
   1   6   0   66.50    6.88
   1   6   0   52.22    8.14
  -1  -6   0   65.95    6.56
   1   6   0   62.80    6.25
   1   6   1   60.87    9.18
  -1  -6  -1   57.47    6.63
  -1  -6  -1   72.11    8.86
   1   6   1   64.24    6.71
  -1  -6  -1   64.19    9.30
   1   6   1   68.03    5.61
   1   6   1   87.61    7.81
   1   6   2  106.65    8.70
  -1  -6  -2   90.31    7.89
  -1  -6  -2   76.97   10.39
  -1  -6  -2  100.26   10.47
  -1  -6  -3   16.38    3.22
   1   6   3   15.70    3.69
   1   6   3   20.75    3.65
  -1  -6  -3   13.68    4.29
  -1  -6  -3    9.58    3.80
   1   6   3   16.33    3.44
   1   6   4   43.67    5.11
  -1  -6  -4   37.77    4.43
   1   6   4   35.83    4.31
   1   6   5   41.28    3.85
   1   6   5   53.40    4.52
   1   7 -11   35.48    3.50
  -1  -7  11   32.80    2.96
  -1  -7  11   31.18    3.44
   1   7 -11   29.98    3.55
  -1  -7  11   34.58    3.68
  -1  -7  10   13.79    2.95
  -1  -7  10   15.23    2.80
  -1  -7  10   11.85    2.26
   1   7 -10   16.42    3.18
  -1  -7   9    5.75    2.69
  -1  -7   9    7.91    2.31
  -1  -7   9    6.39    2.23
   1   7  -9    5.32    3.03
  -1  -7   8   43.91    4.73
  -1  -7   8   44.97    7.36
  -1  -7   8   40.20    4.37
   1   7  -8   54.67    5.43
  -1  -7   8   37.16    4.91
   1   7  -8   42.27    4.81
   1   7  -7   82.94    8.51
  -1  -7   7   75.81    9.40
   1   7  -7   76.73    6.88
  -1  -7   7   76.77    6.48
   1   7  -7   66.39    9.13
  -1  -7   7   85.06    6.68
   1   7  -7   98.70    7.26
  -1  -7   6  149.64   13.00
   1   7  -6  140.87   10.04
   1   7  -6  101.20   12.99
  -1  -7   6  149.55   11.04
   1   7  -6  149.93    9.63
  -1  -7   6  114.31    9.61
   1   7  -6  130.81   11.51
  -1  -7   6  130.07    9.26
  -1  -7   5  161.24   12.41
   1   7  -5  203.07   11.84
  -1  -7   5  174.76   11.48
  -1  -7   5  172.59   14.94
   1   7  -5  212.06   14.97
   1   7  -5  140.77   15.90
  -1  -7   5  194.30   13.31
   1   7  -5  162.92   11.91
   1   7  -4  228.51   16.19
  -1  -7   4  222.64   14.76
   1   7  -4  179.23   18.05
  -1  -7   4  218.39   13.21
   1   7  -4  216.33   13.95
  -1  -7   4  168.90   16.11
   1   7  -3   11.46    3.77
   1   7  -3   11.64    2.94
   1   7  -3    7.21    4.01
  -1  -7   3    9.71    3.58
  -1  -7   3    8.36    3.26
   1   7  -3   11.98    2.75
   1   7  -3    9.41    3.30
  -1  -7   3    9.75    4.38
   1   7  -2   55.94    9.25
   1   7  -2   80.48    6.31
  -1  -7   2   62.01    8.22
  -1  -7   2   81.39    7.83
  -1  -7   2   70.58    6.94
   1   7  -2   82.05    8.31
  -1  -7   2   65.02    9.44
  -1  -7   1  254.40   16.21
   1   7  -1  290.75   18.14
   1   7  -1  279.61   17.76
   1   7  -1  306.40   18.01
  -1  -7   1  259.13   18.80
  -1  -7   1  264.01   20.76
  -1  -7   1  257.28   17.04
  -1  -7   0  480.02   28.09
   1   7   0  526.45   27.30
  -1  -7   0  450.17   25.53
  -1  -7   0  356.79   27.48
  -1  -7   0  379.47   23.87
   1   7   0  512.02   26.60
  -1  -7  -1   63.81    6.42
  -1  -7  -1   54.13    8.42
  -1  -7  -1   76.09    8.56
  -1  -7  -1   68.57    6.57
   1   7   2  107.10    8.30
   1   7   2  104.01    7.75
  -1  -7  -2   73.99    6.64
  -1  -7  -2   75.67    6.47
   1   7   3   62.42    4.90
  -1  -7  -3   59.22    5.02
   1   7   4   17.93    2.24
  -1  -8  11   35.20    2.79
   1   8 -10    7.33    1.82
  -1  -8  10    7.65    1.95
  -1  -8  10    8.48    1.60
  -1  -8  10   10.94    2.08
  -1  -8  10    6.29    1.63
  -1  -8   9    3.50    1.57
  -1  -8   9    3.71    2.03
  -1  -8   9    6.91    2.08
   1   8  -9    5.19    2.37
  -1  -8   9    2.32    1.44
  -1  -8   8   31.65    3.49
   1   8  -8   36.81    4.12
  -1  -8   7    3.64    2.05
   1   8  -7    4.62    1.90
  -1  -8   7    4.05    3.29
  -1  -8   6   26.11    3.47
  -1  -8   6   26.26    4.45
  -1  -8   6   21.66    3.70
   1   8  -6   25.74    4.96
   1   8  -6   21.86    3.89
   1   8  -6   27.29    3.73
  -1  -8   6   21.65    5.29
  -1  -8   5   73.20    5.91
   1   8  -5   74.29    7.07
  -1  -8   5   66.22    8.73
   1   8  -5   62.71    6.06
  -1  -8   5   61.58    6.50
   1   8  -5   68.58    5.57
  -1  -8   4  119.27    9.62
   1   8  -4  164.51    9.61
  -1  -8   4  134.13   10.67
  -1  -8   4  116.51   12.22
   1   8  -4  158.46   12.54
  -1  -8   4  152.60   10.99
   1   8  -4  139.78   10.10
   1   8  -4  163.06   11.40
  -1  -8   4  136.87    9.45
  -1  -8   3    4.82    2.33
  -1  -8   3    2.86    2.56
  -1  -8   3    1.10    1.75
   1   8  -3    6.98    2.88
   1   8  -3    3.19    2.10
  -1  -8   3    7.05    3.57
  -1  -8   3    4.60    2.87
   1   8  -3    7.98    3.13
  -1  -8   2   18.12    3.49
   1   8  -2   20.17    3.61
  -1  -8   2   24.18    3.92
  -1  -8   2   26.45    5.89
  -1  -8   1   11.13    2.84
   1   8  -1   12.33    3.17
  -1  -8   1   11.92    3.17
  -1  -8   1    8.89    2.39
  -1  -8   1   10.14    3.84
   1   8  -1   13.54    3.00
   1   8   0   20.91    3.49
   1   8   0   14.07    2.59
  -1  -8   0   19.68    3.23
  -1  -8  -1    6.64    1.94
   1   8   1   11.56    2.41
  -1  -8  -1    5.64    1.84
   1   8   1    8.85    2.29
   1   8   2   95.45    6.53
  -1  -9   9   19.74    1.99
  -1  -9   9   16.59    1.88
   1   9  -8    6.66    1.89
   1   9  -8    8.18    1.71
  -1  -9   8    5.96    1.50
  -1  -9   8    4.61    1.83
   1   9  -7    1.09    1.75
  -1  -9   7    1.26    1.85
  -1  -9   7    0.94    1.21
   1   9  -7    0.22    1.36
   1   9  -6   40.12    3.67
  -1  -9   6   40.54    4.38
  -1  -9   6   42.57    3.76
   1   9  -6   37.11    4.10
  -1  -9   5   50.51    4.12
   1   9  -5   54.46    5.13
  -1  -9   5   41.71    4.59
   1   9  -5   42.22    3.83
  -1  -9   4   49.39    4.19
  -1  -9   4   43.43    4.83
  -1  -9   3   69.46    4.80
   1   9  -3   52.96    5.48
   1   9  -3   74.69    6.04
  -1  -9   3   56.24    5.43
  -1  -9   3   52.32    4.92
  -1  -9   2   49.60    3.87
  -1  -9   2   43.16    4.21
   1   9  -2   50.84    4.50
  -1  -9   1   15.42    1.96
   1   9  -1   17.29    2.62
  -2  11  -4   12.59    2.04
  -2  11  -4   10.15    1.78
  -2  11  -5    4.75    1.58
   2 -11   5    3.47    0.96
  -2  11  -6    4.17    1.48
   2 -11   6    3.48    0.94
  -2  10   0   29.51    3.21
  -2  10   0   25.50    2.88
   2 -10   0   26.28    2.41
  -2  10  -1   28.68    3.59
  -2  10  -1   35.96    3.81
   2 -10   1   32.43    2.95
   2 -10   1   26.00    3.33
   2 -10   1   27.10    3.54
   2 -10   2   29.39    3.98
  -2  10  -2   42.52    4.37
   2 -10   2   35.87    4.29
   2 -10   2   43.19    3.64
  -2  10  -2   41.52    4.47
   2 -10   3   37.76    3.57
  -2  10  -3   36.14    4.03
   2 -10   3   32.56    4.19
  -2  10  -3   38.22    4.70
  -2  10  -4   51.83    5.53
   2 -10   4   44.57    3.92
   2 -10   4   32.46    4.26
   2 -10   4   34.32    4.56
   2 -10   5   37.37    4.67
   2 -10   5   48.07    4.06
  -2  10  -5   35.31    4.42
  -2  10  -6    9.93    2.52
   2 -10   6   11.76    2.76
  -2  10  -6   13.25    3.18
   2 -10   6    8.61    2.02
  -2  10  -7   67.42    6.07
   2 -10   7   75.78    5.22
  -2  10  -7   67.34    5.86
   2 -10   8   43.13    3.48
  -2  10  -8   39.18    4.02
   2 -10   9   13.60    1.74
  -2   9   2   23.72    3.32
  -2   9   2   27.59    3.30
  -2   9   2   21.25    2.67
   2  -9  -1  115.47    8.58
  -2   9   1  131.81    8.89
  -2   9   1  119.99    8.39
  -2   9   1  141.93    9.32
   2  -9   0   15.65    3.12
  -2   9   0   14.32    3.26
  -2   9   0   12.45    3.22
  -2   9   0   10.38    2.60
  -2   9  -1   38.91    4.91
   2  -9   1   24.44    5.66
   2  -9   1   36.74    4.84
  -2   9  -1   35.29    4.84
   2  -9   2   37.15    5.17
   2  -9   2   41.54    4.97
  -2   9  -2   34.30    4.76
  -2   9  -2   41.13    5.42
   2  -9   2   35.58    4.03
   2  -9   2   21.50    5.54
   2  -9   3  125.86    9.97
   2  -9   3  137.98    8.62
  -2   9  -3  122.64   10.15
   2  -9   3   92.24   10.64
  -2   9  -3  121.83    9.52
   2  -9   3   74.43   10.30
  -2   9  -4    1.36    1.86
   2  -9   4    1.51    1.86
   2  -9   4    0.42    3.38
   2  -9   4    0.30    2.71
   2  -9   4   -0.27    2.23
  -2   9  -5   10.79    3.60
  -2   9  -5   12.17    4.33
   2  -9   5   12.68    4.48
  -2   9  -5    8.88    2.75
   2  -9   5   11.51    3.35
   2  -9   5   19.11    3.16
   2  -9   6   25.07    3.50
  -2   9  -6   27.95    4.65
   2  -9   6   24.18    4.27
   2  -9   6   26.55    5.59
  -2   9  -6   21.76    5.74
  -2   9  -6   32.48    4.57
   2  -9   6   41.68    4.18
  -2   9  -6   37.44    4.60
   2  -9   7   53.75    4.71
  -2   9  -7   49.40    5.57
  -2   9  -7   56.43    5.75
  -2   9  -7   35.79    4.15
  -2   9  -7   44.93    4.98
   2  -9   7   42.47    4.54
  -2   9  -8    8.18    2.14
  -2   9  -8    6.38    2.37
   2  -9   8    7.53    2.20
  -2   9  -8    6.92    2.49
   2  -9   8   11.34    2.35
  -2   9  -9   68.49    5.65
  -2   9  -9   56.14    4.87
   2  -9   9   55.23    4.92
   2  -9  10    2.00    1.27
  -2   9 -10    2.12    1.52
   2  -9  10    2.26    1.59
   2  -9  10    1.76    1.29
  -2   8   4    1.29    1.48
  -2   8   3   31.87    3.71
   2  -8  -3   30.07    3.82
  -2   8   3   38.70    4.58
  -2   8   3   36.60    4.65
   2  -8  -2   82.15    7.08
  -2   8   2  100.72    7.99
  -2   8   2  128.70    9.31
   2  -8  -2   69.86    9.49
  -2   8   2  109.31    8.89
   2  -8  -1  168.82   16.67
   2  -8  -1  225.27   16.15
   2  -8  -1  185.06   13.27
   2  -8  -1  170.70   16.40
  -2   8   1  232.37   15.00
  -2   8   1  214.73   14.17
  -2   8   1  259.67   15.34
   2  -8   0   49.64    5.17
   2  -8   0   25.78    5.93
   2  -8   0   43.86    7.67
  -2   8   0   46.18    5.52
   2  -8   0   39.10    6.38
  -2   8   0   44.65    5.42
   2  -8   0   44.53    7.53
   2  -8   1   57.32    8.95
   2  -8   1   63.91    9.99
   2  -8   1   54.61    8.52
   2  -8   1   78.27    6.73
   2  -8   1   68.59    8.27
  -2   8  -1   74.27    7.25
  -2   8  -1   80.23    7.51
   2  -8   2    5.66    4.30
  -2   8  -2    6.63    2.89
  -2   8  -2    5.52    2.46
   2  -8   2    5.29    3.72
   2  -8   2    3.57    3.30
  -2   8  -2    1.00    2.24
  -2   8  -2    5.45    3.57
   2  -8   2    4.75    2.92
   2  -8   2    7.68    2.85
   2  -8   3  142.35   10.94
  -2   8  -3  151.08   10.79
  -2   8  -3  112.82   13.03
  -2   8  -3  144.21   10.92
   2  -8   3  142.92    9.34
   2  -8   3  101.97   11.59
  -2   8  -3  137.98   10.15
   2  -8   3  137.66    9.51
  -2   8  -3  108.60   13.33
   2  -8   3  151.46   10.37
   2  -8   4   79.37    7.72
  -2   8  -4   51.44    9.08
  -2   8  -4   68.92   10.14
   2  -8   4   77.23   11.11
  -2   8  -4   81.91    7.42
   2  -8   4   93.73    6.92
   2  -8   4   76.53    9.50
  -2   8  -5  123.58   10.50
  -2   8  -5  112.71   13.21
  -2   8  -5   98.40   12.79
   2  -8   5  120.12   14.13
   2  -8   5  143.44    9.37
   2  -8   5  109.84    9.81
   2  -8   5  141.57   12.49
  -2   8  -5  138.55   10.24
   2  -8   6    6.35    2.56
  -2   8  -6    9.19    2.97
   2  -8   6    6.21    2.81
  -2   8  -6    0.20    2.80
  -2   8  -6    7.01    3.12
   2  -8   6    4.31    3.65
  -2   8  -6    9.89    3.27
   2  -8   6    5.30    2.46
   2  -8   6    4.70    4.00
  -2   8  -7    3.19    2.48
  -2   8  -7    0.68    2.97
  -2   8  -7    2.13    2.19
  -2   8  -7    2.31    2.58
  -2   8  -7    3.73    2.28
   2  -8   7    4.18    2.34
   2  -8   7    2.33    3.97
   2  -8   7    3.11    2.27
  -2   8  -8   51.00    8.35
   2  -8   8   79.73    6.22
  -2   8  -8   55.57    5.81
   2  -8   8   65.99    6.30
  -2   8  -8   74.42    7.18
  -2   8  -8   68.42    6.49
  -2   8  -9   15.09    3.33
  -2   8  -9   14.62    2.75
  -2   8  -9   13.82    3.18
   2  -8  10   45.18    3.99
  -2   8 -10   37.52    4.29
   2  -8  10   34.30    3.96
  -2   8 -10   36.10    4.03
   2  -8  11    6.48    1.57
  -2   7   6    2.90    1.39
  -2   7   5    1.16    1.77
  -2   7   5    1.23    1.82
  -2   7   4   23.26    4.08
  -2   7   4   20.42    3.31
  -2   7   3   62.98    6.78
   2  -7  -3   37.50    7.03
  -2   7   3   64.87    6.83
   2  -7  -3   37.32    7.44
  -2   7   3   53.12    5.78
   2  -7  -3   49.15    7.11
  -2   7   2   92.33    8.23
  -2   7   2   73.24   10.05
   2  -7  -2   70.15   10.15
  -2   7   2  104.19    9.05
   2  -7  -2  104.87   10.30
   2  -7  -1  557.50   27.26
  -2   7   1  570.21   30.07
  -2   7   1  513.10   29.40
   2  -7  -1  578.77   31.71
  -2   7   1  437.41   26.79
   2  -7  -1  452.86   32.49
  -2   7   0   58.62    6.45
   2  -7   0   67.06    6.01
   2  -7   0   49.55    8.02
  -2   7   0   63.41    6.46
  -2   7   0   57.09    6.21
   2  -7   0   61.26    5.63
  -2   7   0   56.91    6.31
   2  -7   0   56.55    8.64
   2  -7   0   52.28    8.11
  -2   7   0   56.00    6.11
   2  -7   0   63.45    7.69
   2  -7   1   86.08    6.93
  -2   7  -1   83.45    7.51
   2  -7   1   73.15    5.99
   2  -7   1   63.86    8.75
   2  -7   1   99.48   11.10
  -2   7  -1   74.28    6.99
  -2   7  -1   69.61    9.46
  -2   7  -1   66.38    6.66
   2  -7   1   76.13    9.53
   2  -7   1   83.27    6.73
   2  -7   1   83.66    8.56
   2  -7   2   72.79    6.56
   2  -7   2   80.21   10.07
  -2   7  -2   69.38    6.36
   2  -7   2   58.24    8.20
   2  -7   2   69.38    8.94
  -2   7  -2   55.53    8.48
  -2   7  -2   76.20    6.99
   2  -7   2   82.57    6.69
   2  -7   2   69.59    5.90
  -2   7  -2   56.82    8.44
  -2   7  -3  420.12   23.97
   2  -7   3  441.97   22.74
   2  -7   3  344.05   25.41
  -2   7  -3  439.04   23.93
   2  -7   3  384.39   26.97
   2  -7   3  419.87   22.06
   2  -7   3  372.28   25.63
  -2   7  -3  391.56   27.51
  -2   7  -3  362.93   22.59
   2  -7   3  418.04   22.34
   2  -7   4   54.56    6.16
   2  -7   4   64.59    5.48
   2  -7   4   71.64    5.98
   2  -7   4   59.14    5.94
   2  -7   4   64.10    9.17
  -2   7  -4   75.26    6.72
  -2   7  -4   57.76    8.71
   2  -7   4   69.84    6.60
  -2   7  -4   52.92    5.26
   2  -7   4   79.72    8.67
  -2   7  -4   57.21    8.59
  -2   7  -5   87.78    9.78
   2  -7   5  106.13    7.65
   2  -7   5  116.43   12.39
  -2   7  -5   90.26    7.30
   2  -7   5  115.78    8.60
  -2   7  -5   78.58   10.58
   2  -7   5   90.14    8.16
   2  -7   5  116.50   10.90
  -2   7  -5   90.40    9.26
   2  -7   6  679.38   33.54
  -2   7  -6  728.57   38.81
   2  -7   6  631.66   39.44
   2  -7   6  511.88   33.35
  -2   7  -6  696.50   35.69
  -2   7  -6  637.07   34.86
   2  -7   6  785.40   38.74
  -2   7  -6  555.61   32.94
  -2   7  -7  106.48    8.48
   2  -7   7  135.73    9.14
  -2   7  -7  111.96   12.20
  -2   7  -7   90.35    8.51
  -2   7  -7  145.40   11.03
   2  -7   7  152.53   10.09
   2  -7   7  156.99   12.94
  -2   7  -8   25.79    4.14
  -2   7  -8   24.99    6.12
  -2   7  -8   32.94    5.12
  -2   7  -8   15.84    3.10
  -2   7  -9   -0.63    2.19
  -2   7  -9    1.37    1.74
   2  -7   9    0.97    2.10
  -2   7 -10   15.63    2.68
  -2   7 -10   25.47    3.85
   2  -7  10   28.21    3.56
   2  -7  10   24.06    3.48
   2  -7  11   17.04    2.54
  -2   7 -11   14.59    2.52
  -2   7 -11   14.43    2.52
   2  -7  11   17.92    2.34
  -2   6   7   14.80    2.24
  -2   6   7   16.38    2.44
  -2   6   6   -2.06    2.16
  -2   6   6    0.70    1.74
  -2   6   5   39.28    5.47
  -2   6   5   38.34    5.21
   2  -6  -5   34.24    5.98
  -2   6   5   36.04    5.14
  -2   6   4   21.23    4.15
  -2   6   4   13.46    4.49
   2  -6  -4   24.34    5.29
  -2   6   4   17.99    4.23
  -2   6   4   19.08    4.25
  -2   6   4   12.66    3.23
   2  -6  -4   11.97    4.67
   2  -6  -4   11.35    4.00
  -2   6   3   29.92    4.75
  -2   6   3   18.49    5.40
  -2   6   3   25.88    4.32
   2  -6  -3   18.81    4.97
  -2   6   3   16.95    4.15
  -2   6   3   25.96    4.66
  -2   6   2   22.95    3.35
   2  -6  -2   16.37    4.38
  -2   6   2   24.30    4.18
   2  -6  -2   30.52    5.60
  -2   6   2   31.83    4.58
  -2   6   2   22.57    5.23
  -2   6   1  123.86    9.37
  -2   6   1  102.54    8.47
  -2   6   1  119.65    9.29
  -2   6   1  115.43    9.02
   2  -6  -1  125.62    8.05
   2  -6  -1  113.61   11.29
  -2   6   1   89.25   10.35
   2  -6  -1  134.19   10.96
   2  -6  -1  108.61   11.43
  -2   6   0    3.98    1.80
  -2   6   0    6.00    3.16
   2  -6   0    2.94    2.78
   2  -6   0    7.02    3.66
   2  -6   0    3.86    2.75
  -2   6   0    4.17    2.05
  -2   6   0    7.53    2.76
   2  -6   0    4.08    2.93
   2  -6   0    8.17    2.58
  -2   6   0    5.77    2.21
  -2   6   0    6.63    1.87
  -2   6   0    4.50    2.24
  -2   6  -1  145.48   10.44
   2  -6   1  198.90   14.43
  -2   6  -1  148.30   12.99
   2  -6   1  162.04   13.31
   2  -6   1  164.71   10.00
   2  -6   1  129.65   12.28
  -2   6  -1  127.30   12.32
   2  -6   1  168.48   11.98
  -2   6  -1  141.02   10.03
  -2   6  -1  152.30   10.54
  -2   6  -2  389.88   25.99
   2  -6   2  464.95   24.93
  -2   6  -2  371.73   22.16
  -2   6  -2  385.62   25.91
   2  -6   2  414.66   21.62
   2  -6   2  424.04   26.37
   2  -6   2  377.79   25.51
  -2   6  -2  429.78   23.32
   2  -6   2  441.28   24.01
  -2   6  -3   33.54    5.90
   2  -6   3   40.21    4.24
   2  -6   3   45.00    6.65
   2  -6   3   37.44    4.48
  -2   6  -3   34.10    4.97
   2  -6   3   35.76    3.71
   2  -6   3   34.51    5.49
   2  -6   3   38.18    3.72
  -2   6  -3   31.47    3.62
   2  -6   3   37.47    4.27
  -2   6  -3   46.14    4.81
   2  -6   3   41.83    5.51
  -2   6  -3   42.20    5.25
   2  -6   3   38.49    5.60
   2  -6   3   62.18    7.73
   2  -6   4  147.99    9.33
   2  -6   4  173.10   10.09
   2  -6   4  151.47   11.90
  -2   6  -4  118.65    8.92
  -2   6  -4  144.22   12.89
  -2   6  -4  131.36    9.28
  -2   6  -4  133.46   10.20
   2  -6   4  193.49   14.31
   2  -6   4  135.62   11.39
   2  -6   4  172.64   12.47
   2  -6   4  151.07    9.50
  -2   6  -5  351.31   21.64
   2  -6   5  436.65   22.24
   2  -6   5  476.82   26.05
   2  -6   5  419.31   22.16
   2  -6   5  428.92   22.46
  -2   6  -5  376.24   26.27
   2  -6   5  440.76   26.10
  -2   6  -5  425.95   22.58
   2  -6   5  338.70   22.22
   2  -6   5  449.78   27.26
   2  -6   6  290.12   22.09
  -2   6  -6  338.46   19.17
  -2   6  -6  299.69   19.21
   2  -6   6  383.63   22.60
  -2   6  -6  363.18   22.32
   2  -6   6  338.17   18.61
  -2   6  -6  305.33   18.42
  -2   6  -7  186.94   12.89
   2  -6   7  205.72   12.45
  -2   6  -7  176.39   12.30
   2  -6   7  214.21   16.07
  -2   6  -7  215.99   16.78
  -2   6  -8  138.60   13.56
  -2   6  -8  101.99    8.71
   2  -6   8  154.81   10.22
  -2   6  -8  120.02    9.48
   2  -6   9  129.59    8.20
  -2   6  -9  130.33    8.96
  -2   6  -9   99.62    8.54
  -2   6  -9   80.07    7.62
   2  -6   9  110.15    8.63
  -2   6 -10   30.16    4.15
  -2   6 -10   28.62    3.85
   2  -6  10   48.53    4.36
   2  -6  10   41.16    4.57
   2  -6  10   28.85    3.93
  -2   6 -10   39.58    4.51
  -2   6 -10   57.35    5.19
   2  -6  11   22.39    2.89
  -2   6 -11   17.56    2.89
   2  -6  11   19.88    2.68
  -2   6 -11   14.48    2.29
  -2   6 -11   19.74    3.04
   2  -6  11   21.96    2.55
  -2   6 -11   17.37    2.66
  -2   6 -11   16.79    2.69
   2  -6  12   12.86    1.60
  -2   5   8    9.97    1.97
  -2   5   7   11.24    2.87
  -2   5   7   10.58    2.92
  -2   5   6    3.66    2.50
  -2   5   6    2.20    2.26
  -2   5   6    1.64    2.22
  -2   5   5   15.57    3.87
  -2   5   5   14.81    3.35
   2  -5  -5   14.36    4.54
  -2   5   5   18.23    3.37
  -2   5   5   15.34    4.05
  -2   5   5   20.29    4.20
  -2   5   5   14.26    3.20
  -2   5   4   89.08    7.98
  -2   5   4   94.58    8.80
  -2   5   4  101.26    8.97
   2  -5  -4   76.00    9.63
  -2   5   4  119.04    9.42
  -2   5   4   76.69    6.96
  -2   5   4  102.52   11.54
   2  -5  -4   98.20   10.73
  -2   5   4  107.47    7.36
   2  -5  -3   10.00    3.51
  -2   5   3   14.56    3.38
  -2   5   3   14.17    4.20
  -2   5   3   15.51    2.81
  -2   5   3   16.53    3.52
  -2   5   3   16.66    3.37
   2  -5  -3   26.61    5.37
  -2   5   3   14.14    2.72
  -2   5   2    6.34    1.98
   2  -5  -2    7.70    2.91
   2  -5  -2    3.60    2.43
   2  -5  -2    4.03    3.13
  -2   5   2    6.64    2.32
  -2   5   2    8.14    3.15
  -2   5   2    6.25    2.32
  -2   5   2    3.65    1.79
  -2   5   1  176.67   13.93
  -2   5   1  184.57   13.99
   2  -5  -1  222.32   13.88
  -2   5   1  197.21   12.66
  -2   5   1  185.64   12.25
   2  -5  -1  162.50   12.92
  -2   5   1  183.74   12.07
  -2   5   1  196.50   12.39
   2  -5   0  148.01   10.53
  -2   5   0  147.09   11.90
  -2   5   0  148.68    9.34
   2  -5   0  136.08   11.41
  -2   5   0  141.96    9.53
  -2   5   0  113.55   10.15
  -2   5   0  137.45    9.38
   2  -5   0  166.09   12.00
  -2   5   0  138.17   11.28
   2  -5   1   91.32    8.61
  -2   5  -1   99.61    6.77
   2  -5   1  104.03    8.96
   2  -5   1   86.77    6.82
   2  -5   1   84.10    8.20
  -2   5  -1   79.57    6.49
  -2   5  -1   83.51    8.23
  -2   5  -1   79.77    6.16
  -2   5  -1   84.85    8.33
  -2   5  -1   79.12    7.00
   2  -5   1   84.91    6.17
  -2   5  -1   87.76    6.56
   2  -5   1   90.90    7.58
   2  -5   2   35.92    3.90
  -2   5  -2   44.29    5.62
  -2   5  -2   45.16    5.02
   2  -5   2   39.33    5.44
  -2   5  -2   45.55    3.94
   2  -5   2   41.14    5.60
  -2   5  -2   42.14    4.17
   2  -5   2   42.70    4.85
   2  -5   2   40.29    4.78
   2  -5   2   42.75    5.87
   2  -5   2   41.03    3.57
   2  -5   3  132.50    7.71
   2  -5   3  122.23    9.61
   2  -5   3  138.26   10.93
   2  -5   3  110.28    9.56
  -2   5  -3  118.68    8.48
   2  -5   3  121.13    7.95
  -2   5  -3  113.45    7.84
  -2   5  -3  128.89   10.57
   2  -5   3  124.93    8.08
   2  -5   3  119.11    7.83
  -2   5  -3  135.88    8.65
   2  -5   3  114.64    9.66
   2  -5   4  103.46    9.28
   2  -5   4  156.44   11.42
  -2   5  -4  133.37    9.66
  -2   5  -4  143.04    8.70
  -2   5  -4   96.19    7.25
   2  -5   4  134.18    8.11
   2  -5   4  119.71    7.63
   2  -5   4  111.72    7.68
  -2   5  -4  124.62   10.55
  -2   5  -4  101.53    7.45
  -2   5  -4  118.18    7.78
   2  -5   4  129.20    8.15
   2  -5   4  102.59    9.21
   2  -5   4  138.04   10.05
   2  -5   4  137.71   10.35
  -2   5  -5  394.45   22.30
   2  -5   5  352.95   19.37
   2  -5   5  349.56   19.49
  -2   5  -5  308.95   19.26
  -2   5  -5  372.46   19.98
   2  -5   5  382.98   23.04
   2  -5   5  393.32   19.74
  -2   5  -5  350.00   20.19
   2  -5   5  395.00   22.37
  -2   5  -6   65.65    5.72
   2  -5   6   67.62    5.20
  -2   5  -6   52.29    5.08
   2  -5   6   59.13    7.58
  -2   5  -6   56.44    5.49
   2  -5   6   61.90    4.91
  -2   5  -6   58.04    7.83
   2  -5   6   69.13    7.64
   2  -5   7 1236.43   61.85
  -2   5  -7 1293.63   65.78
  -2   5  -7 1239.99   63.44
  -2   5  -7 1116.82   61.64
  -2   5  -7 1144.08   61.75
   2  -5   7 1229.32   60.99
  -2   5  -7 1220.87   65.39
   2  -5   7 1277.89   60.97
  -2   5  -8   47.29    8.27
  -2   5  -8   42.39    4.86
  -2   5  -8   41.72    7.27
  -2   5  -8   50.78    6.11
  -2   5  -8   43.15    5.26
   2  -5   8   43.17    4.71
   2  -5   8   49.54    5.29
   2  -5   9   40.88    4.50
  -2   5  -9   34.85    4.50
  -2   5  -9   35.78    4.67
   2  -5   9   39.45    4.81
   2  -5  10   77.25    6.48
  -2   5 -10   64.01    6.20
  -2   5 -10   89.78    6.86
  -2   5 -10   76.99    6.85
   2  -5  10   88.57    6.03
  -2   5 -11    2.03    1.39
   2  -5  11    3.57    1.54
   2  -5  11    3.43    1.61
  -2   5 -11    0.25    1.61
  -2   5 -11    2.90    1.59
  -2   5 -11    4.30    2.21
  -2   4   9    8.14    1.65
  -2   4   8   79.48    6.70
  -2   4   8   87.11    6.98
  -2   4   8   67.29    5.44
  -2   4   7  224.61   14.43
  -2   4   7  188.26   12.49
  -2   4   7  208.72   12.11
   2  -4  -6   63.85    9.13
  -2   4   6   72.95    6.22
  -2   4   6   84.05    6.34
  -2   4   6   75.19    7.74
  -2   4   6   68.34    6.45
  -2   4   6   52.88    8.98
  -2   4   5  266.06   17.58
  -2   4   5  294.51   18.84
  -2   4   5  284.91   17.04
  -2   4   5  240.16   21.11
  -2   4   5  286.57   18.71
   2  -4  -5  326.80   21.31
  -2   4   5  302.51   16.76
  -2   4   5  314.21   17.16
  -2   4   4   41.21    4.16
  -2   4   4   40.62    5.11
  -2   4   4   30.86    4.38
  -2   4   4   45.84    4.46
  -2   4   4   42.95    4.13
  -2   4   4   36.11    4.86
   2  -4  -4   47.36    6.75
  -2   4   4   45.90    4.57
  -2   4   3   97.10    8.12
  -2   4   3  100.95   10.06
  -2   4   3  113.62    7.38
  -2   4   3  110.22    8.19
  -2   4   3   93.65    7.10
   2  -4  -3  126.02    9.84
  -2   4   3  112.33    7.47
  -2   4   3  118.49    8.62
  -2   4   3  110.55    7.05
   2  -4  -2  237.58   14.03
  -2   4   2  190.95   12.13
  -2   4   2  163.38   13.58
   2  -4  -2  209.55   13.47
   2  -4  -1  322.27   17.62
  -2   4   1  300.69   17.53
   2  -4  -1  225.76   15.84
  -2   4   1  269.69   15.53
   2  -4  -1  320.31   17.11
  -2   4   1  256.90   15.45
  -2   4   1  288.98   17.49
   2  -4   0  134.89   10.14
   2  -4   0  115.73    8.68
   2  -4   0  133.55    8.54
  -2   4   0  140.19    9.59
  -2   4   0  153.70   10.36
  -2   4   0  134.05   10.22
   2  -4   0  134.47    9.14
  -2   4  -1  243.62   16.12
   2  -4   1  261.51   15.02
   2  -4   1  255.26   16.22
  -2   4  -1  228.50   14.68
  -2   4  -1  285.29   16.49
  -2   4  -1  282.56   15.13
   2  -4   1  263.42   15.11
  -2   4  -2 1371.56   64.21
   2  -4   2 1242.78   65.91
   2  -4   2 1317.48   66.60
   2  -4   2 1288.14   65.47
   2  -4   2 1263.39   63.72
   2  -4   2 1338.71   65.93
  -2   4  -3   15.04    3.40
   2  -4   3   17.66    2.69
   2  -4   3   21.05    3.35
   2  -4   3   17.57    3.16
   2  -4   3   20.28    3.47
  -2   4  -3   18.30    3.47
   2  -4   3   19.64    2.75
   2  -4   4  294.10   14.95
  -2   4  -4  305.22   17.84
   2  -4   4  285.75   14.92
   2  -4   4  293.95   17.49
   2  -4   4  268.11   14.96
  -2   4  -4  265.04   15.86
   2  -4   4  322.27   17.83
  -2   4  -4  268.66   15.46
  -2   4  -4  270.76   15.74
  -2   4  -4  307.08   16.98
   2  -4   4  281.59   16.69
   2  -4   4  299.98   15.10
   2  -4   4  268.51   14.87
  -2   4  -5  213.33   13.43
   2  -4   5  225.85   14.60
   2  -4   5  234.33   15.37
  -2   4  -5  190.90   14.27
   2  -4   5  205.22   12.23
  -2   4  -5  215.71   13.45
  -2   4  -5  221.08   13.13
  -2   4  -5  237.70   14.98
   2  -4   5  245.86   13.53
   2  -4   5  211.17   12.57
   2  -4   5  244.36   14.83
   2  -4   6    2.67    1.39
  -2   4  -6    4.07    2.77
  -2   4  -6    0.60    1.24
  -2   4  -6    1.37    1.83
   2  -4   6    1.50    2.46
  -2   4  -6    0.23    1.46
   2  -4   6    1.32    1.44
  -2   4  -6    0.36    2.68
  -2   4  -7  172.06   13.60
   2  -4   7  142.99    9.22
  -2   4  -7  143.43   10.94
   2  -4   7  159.39   10.03
  -2   4  -7  126.60   10.14
  -2   4  -7  127.34    9.69
  -2   4  -7  136.10   10.48
   2  -4   7  148.26    9.60
  -2   4  -7  142.89   12.53
   2  -4   7  135.40    9.63
   2  -4   8  444.56   21.93
  -2   4  -8  399.85   24.47
  -2   4  -8  376.71   23.57
  -2   4  -8  421.65   27.04
  -2   4  -8  459.88   28.38
  -2   4  -8  368.41   23.38
   2  -4   8  366.48   22.45
  -2   4  -8  370.27   22.70
   2  -4   8  447.00   23.09
  -2   4  -8  384.95   26.29
   2  -4   8  425.25   22.96
  -2   4  -9  528.01   32.84
  -2   4  -9  550.22   30.16
  -2   4  -9  477.66   28.73
  -2   4  -9  483.36   28.89
   2  -4   9  542.82   26.95
  -2   4  -9  561.25   27.95
   2  -4   9  573.87   28.73
  -2   4  -9  437.19   31.20
  -2   4  -9  490.77   33.37
   2  -4   9  536.52   28.30
   2  -4   9  444.65   27.48
  -2   4 -10   61.31    8.36
   2  -4  10   88.32    6.60
  -2   4 -10   60.69    5.78
  -2   4 -10   81.31    6.79
  -2   4 -10   82.73    7.49
  -2   4 -10   72.58    6.64
   2  -4  10   92.38    7.35
   2  -4  11   20.77    2.58
  -2   4 -11   12.99    2.50
  -2   4 -11   14.21    2.47
  -2   4 -11   14.70    3.00
   2  -4  11   18.59    2.91
  -2   4 -12   18.96    2.21
  -2   3   9   18.39    2.95
  -2   3   9   13.96    2.56
  -2   3   8   86.59    8.06
  -2   3   8  100.96    7.18
  -2   3   8  117.80    8.18
  -2   3   8  101.13    7.12
  -2   3   7   59.58    5.45
  -2   3   7   54.30    5.62
  -2   3   7   69.80    6.27
  -2   3   7   43.44    7.98
  -2   3   7   60.32    5.63
   2  -3  -7   51.94    7.77
  -2   3   7   55.52    6.57
  -2   3   6  279.67   15.65
  -2   3   6  275.29   17.67
   2  -3  -6  255.11   18.98
  -2   3   6  247.19   15.80
  -2   3   6  309.96   16.53
  -2   3   6  280.06   16.04
  -2   3   5  158.06    9.95
  -2   3   5  169.00   11.64
  -2   3   5  149.03    9.99
  -2   3   5  166.82   10.29
  -2   3   5  173.28    9.96
  -2   3   5  136.49   13.37
  -2   3   5  150.40   11.27
  -2   3   5  140.21   10.47
   2  -3  -5  161.27   11.93
  -2   3   4  470.36   30.42
  -2   3   4  488.30   27.93
  -2   3   4  475.00   27.34
  -2   3   4  561.68   26.89
  -2   3   4  517.14   28.17
  -2   3   4  534.25   26.44
   2  -3  -4  446.05   27.28
  -2   3   4  551.31   26.94
   2  -3  -3   62.17    5.26
   2  -3  -3   52.25    4.44
  -2   3   3   48.39    4.11
   2  -3  -2  309.56   16.40
  -2   3   2  339.68   19.27
   2  -3  -2  306.44   16.41
   2  -3  -1  687.43   35.87
  -2   3   1  717.28   37.47
   2  -3  -1  746.86   36.60
   2  -3   0 2239.86  111.24
  -2   3   0 2562.08  112.95
  -2   3   0 2542.60  112.68
  -2   3   0 2444.42  111.34
  -2   3   0 2435.00  111.96
   2  -3   0 2323.36  111.08
   2  -3   1  761.43   45.48
   2  -3   1  867.91   46.13
   2  -3   1  918.47   44.82
  -2   3  -1  898.77   43.98
  -2   3  -2   55.89    3.89
  -2   3  -2   50.85    4.01
   2  -3   2   45.25    4.51
  -2   3  -2   58.06    5.10
   2  -3   2   43.28    4.12
   2  -3   2   42.17    4.48
   2  -3   3  628.45   32.43
  -2   3  -3  592.79   31.02
   2  -3   3  636.88   30.35
  -2   3  -3  673.98   31.78
   2  -3   3  661.44   31.75
  -2   3  -4  806.75   41.60
   2  -3   4  895.78   43.19
   2  -3   4  849.61   40.83
  -2   3  -4  872.68   43.14
   2  -3   4  819.52   40.64
  -2   3  -4  804.26   41.21
  -2   3  -4  741.87   41.33
   2  -3   4  781.09   40.48
   2  -3   4  878.71   42.41
  -2   3  -5  128.75    8.73
   2  -3   5  148.33   10.35
  -2   3  -5  132.95    8.51
  -2   3  -5  123.10    8.66
   2  -3   5  133.26    8.01
   2  -3   6   84.08    6.44
  -2   3  -6   60.09    5.61
   2  -3   6   67.78    5.32
  -2   3  -6   64.35    6.11
   2  -3   6   70.11    5.25
   2  -3   6   73.22    7.49
  -2   3  -6   79.71    6.55
  -2   3  -6   79.07    8.38
  -2   3  -7   66.87    8.51
   2  -3   7   54.32    5.20
   2  -3   7   62.09    4.93
   2  -3   7   65.26    5.44
   2  -3   7   64.39    5.74
  -2   3  -7   67.26    6.43
  -2   3  -7   56.15    5.59
  -2   3  -7   57.42    6.12
   2  -3   7   67.13    5.76
   2  -3   7   66.50    5.21
  -2   3  -8    2.91    2.22
  -2   3  -8    2.86    3.37
   2  -3   8    5.44    1.91
  -2   3  -8    7.29    4.62
  -2   3  -8    2.89    2.24
  -2   3  -8    1.68    1.93
  -2   3  -8    4.20    1.99
   2  -3   8    7.42    2.30
   2  -3   8    6.72    2.32
   2  -3   9   17.50    3.21
  -2   3  -9   13.58    3.54
   2  -3   9   16.19    2.62
  -2   3  -9   17.99    3.47
   2  -3   9   11.92    2.74
   2  -3   9   21.23    3.85
  -2   3  -9   12.29    3.02
  -2   3  -9   12.03    2.63
  -2   3  -9   21.15    6.13
  -2   3  -9   11.77    4.53
   2  -3  10  170.31   11.10
  -2   3 -10  151.89   10.37
   2  -3  10  158.25   10.20
  -2   3 -10  158.61   11.13
  -2   3 -10  134.38    9.96
  -2   3 -11   14.45    2.57
   2  -3  11   16.13    2.59
  -2   3 -11    9.99    2.20
  -2   2  10   10.69    2.09
  -2   2   9   12.43    2.85
  -2   2   9   14.67    2.83
   2  -2  -9    9.11    3.55
   2  -2  -8  183.68   16.86
  -2   2   8  204.00   12.19
  -2   2   8  188.37   12.99
  -2   2   7  110.15    7.75
  -2   2   7  114.43    8.56
  -2   2   7  102.38    8.55
  -2   2   7   83.90   10.93
   2  -2  -7  121.48   11.16
  -2   2   7  102.91    9.01
  -2   2   6   12.51    2.66
   2  -2  -6   12.13    3.74
  -2   2   6   14.30    2.81
  -2   2   6   12.77    4.14
  -2   2   6   13.50    2.61
  -2   2   6   12.21    2.66
   2  -2  -6    9.78    4.21
   2  -2  -6   11.38    3.76
  -2   2   6   12.55    2.99
  -2   2   5   28.28    3.85
  -2   2   5   32.23    4.04
  -2   2   5   32.16    3.42
  -2   2   5   33.76    3.55
  -2   2   5   22.64    3.32
  -2   2   5   22.29    4.60
  -2   2   5   30.42    3.33
  -2   2   5   31.89    3.22
   2  -2  -5   31.54    4.38
  -2   2   4  393.90   20.64
  -2   2   4  387.24   23.85
   2  -2  -3  911.76   47.23
  -2   2   3 1167.26   51.05
   2  -2  -2 1823.43   90.21
  -2   2   2 2011.89   91.48
  -2   2   1 2803.18  142.90
   2  -2  -1 2936.26  142.80
  -2   2   1 3219.37  143.91
   2  -2   0 1530.73   72.79
   2  -2   0 1497.84   72.92
  -2   2   0 1425.28   72.82
  -2   2  -1  430.31   22.01
   2  -2   1  371.65   20.88
   2  -2   2 1491.20   72.13
  -2   2  -2 1637.65   72.76
   2  -2   3  303.19   14.89
  -2   2  -3  319.23   16.67
   2  -2   3  281.42   16.07
  -2   2  -3  279.29   15.14
   2  -2   4  717.65   39.85
   2  -2   4  789.27   39.65
   2  -2   4  850.39   41.38
  -2   2  -4  760.25   39.94
   2  -2   5  264.84   14.52
  -2   2  -5  213.96   14.33
  -2   2  -5  289.25   15.66
   2  -2   5  275.19   16.23
  -2   2  -5  253.22   14.88
  -2   2  -5  258.01   15.12
   2  -2   5  258.20   14.31
   2  -2   5  276.23   14.70
   2  -2   6  411.28   21.10
  -2   2  -6  357.90   21.33
   2  -2   6  381.63   20.39
  -2   2  -6  353.90   20.85
  -2   2  -6  325.87   20.35
   2  -2   6  375.52   20.88
   2  -2   6  376.03   20.02
  -2   2  -7   19.69    5.52
   2  -2   7   19.79    2.77
   2  -2   7   16.40    2.47
   2  -2   7   18.59    3.14
   2  -2   7   13.30    2.94
  -2   2  -7   17.87    3.18
   2  -2   7   19.02    3.27
  -2   2  -7   17.58    3.44
   2  -2   8   18.32    3.42
   2  -2   8   18.39    3.62
  -2   2  -8   19.81    3.92
  -2   2  -8   13.64    2.98
   2  -2   8   18.18    2.76
  -2   2  -8   20.24    3.66
   2  -2   8   16.08    3.38
   2  -2   8   16.38    3.45
  -2   2  -8   20.02    6.12
   2  -2   9  102.47    8.31
  -2   2  -9  102.27    8.47
   2  -2   9  120.41    9.24
  -2   2  -9  106.29    8.64
  -2   2  -9  106.44    9.12
   2  -2   9   95.69    7.83
   2  -2   9  113.82    7.15
  -2   2  -9   90.67    7.58
  -2   2  -9   83.93   10.05
  -2   2  -9  100.65   10.95
  -2   2 -10    8.27    2.29
   2  -2  10    8.29    2.59
  -2   2 -10    9.60    2.26
   2  -2  10    7.43    2.29
   2  -2  10   12.46    2.66
  -2   2 -10    9.41    2.66
   2  -2  10   11.63    2.03
  -2   2 -11   15.96    2.49
   2  -2  11   18.02    2.56
  -2   2 -11   14.52    2.27
  -2   1  11    1.40    1.34
  -2   1  10   37.47    3.79
  -2   1  10   30.73    3.67
  -2   1   9   42.96    4.47
  -2   1   9   48.03    5.15
  -2   1   9   50.81    5.65
   2  -1  -9   44.96    8.17
   2  -1  -9   26.09    5.46
  -2   1   8   44.36    4.52
  -2   1   8   36.62    4.99
  -2   1   8   46.55    5.07
   2  -1  -8   32.60    6.59
  -2   1   8   37.15    4.67
   2  -1  -8   45.47    7.25
  -2   1   7   84.72    6.29
  -2   1   7   73.43    5.85
   2  -1  -7   91.85    9.45
  -2   1   7   71.64    6.60
  -2   1   7   87.88    7.19
   2  -1  -7   97.26    9.84
   2  -1  -7   88.18    9.39
   2  -1  -7   93.32    9.94
  -2   1   7   66.59    8.97
  -2   1   7   89.84    6.85
  -2   1   6  189.84   10.82
  -2   1   6  158.08   10.97
   2  -1  -6  214.10   14.26
  -2   1   6  152.93   13.65
  -2   1   6  174.23   10.33
  -2   1   6  177.44   11.31
   2  -1  -6  209.86   14.23
   2  -1  -6  176.13   12.34
   2  -1  -5  494.58   28.57
  -2   1   5  454.43   30.41
   2  -1  -5  606.45   29.88
   2  -1  -5  632.84   31.12
   2  -1  -4  120.35    8.00
  -2   1   4  154.50   10.68
   2  -1  -4  129.15    8.74
   2  -1  -4  164.56    9.85
   2  -1  -4  144.11    8.22
   2  -1  -3  624.08   34.46
  -2   1   3  748.64   34.89
   2  -1  -3  660.47   34.80
  -2   1   3  721.15   36.90
   2  -1  -3  771.52   35.10
  -2   1   2 3334.52  151.08
   2  -1  -2 3225.29  150.46
   2  -1  -2 3318.59  150.97
   2  -1  -2 2781.11  150.38
   2  -1  -1 6415.55  299.16
   2  -1  -1 6238.92  298.52
   2  -1  -1 5919.01  298.77
   2  -1  -1 6409.35  298.80
  -2   1   1 6473.14  299.36
   2  -1  -1 6073.71  298.93
   2  -1   0 7926.06  372.32
  -2   1   0 7695.61  371.45
   2  -1   1  299.08   16.19
   2  -1   1  283.54   15.86
   2  -1   1  276.90   15.73
  -2   1  -1  339.49   15.69
  -2   1  -1  299.18   16.07
  -2   1  -1  296.92   15.85
  -2   1  -2  367.13   19.36
  -2   1  -2  361.12   18.77
   2  -1   2  363.63   19.85
  -2   1  -2  413.22   20.68
  -2   1  -3   38.63    3.13
   2  -1   3   36.38    3.70
  -2   1  -3   40.72    3.45
   2  -1   4  735.95   36.55
   2  -1   4  722.50   35.57
   2  -1   4  705.96   37.34
   2  -1   4  704.40   35.47
  -2   1  -4  666.95   35.94
   2  -1   5  301.06   15.86
   2  -1   5  280.91   16.05
   2  -1   5  250.20   17.36
  -2   1  -5  256.28   15.83
  -2   1  -5  266.55   15.97
   2  -1   5  272.30   15.65
   2  -1   5  312.98   15.49
   2  -1   6   98.76    6.65
  -2   1  -6   83.33    6.96
   2  -1   6   90.30    7.22
   2  -1   6   90.54    6.23
   2  -1   6   98.14    7.01
   2  -1   6  108.52    7.35
   2  -1   6  100.52    7.09
  -2   1  -6   76.19    6.76
   2  -1   7   48.19    5.29
   2  -1   7   48.61    5.55
  -2   1  -7   46.76    5.52
   2  -1   7   58.94    5.54
  -2   1  -7   41.77    4.75
   2  -1   7   55.19    5.24
   2  -1   7   49.13    4.40
   2  -1   8   43.50    5.49
  -2   1  -8   58.23    8.12
   2  -1   8   49.20    5.39
   2  -1   8   47.72    5.49
   2  -1   8   50.28    4.52
  -2   1  -8   51.82    5.83
   2  -1   8   57.77    5.49
  -2   1  -8   38.37    5.01
   2  -1   9   26.33    3.19
   2  -1   9   22.37    3.86
   2  -1   9   26.34    3.87
  -2   1  -9   28.57    5.94
  -2   1  -9   25.17    3.93
  -2   1  -9   20.12    3.29
   2  -1   9   28.67    4.21
  -2   1  -9   29.73    4.21
   2  -1  10   12.29    2.60
   2  -1  10   11.40    1.95
  -2   1 -10   17.57    2.74
  -2   1 -10   17.46    2.85
   2  -1  10   14.65    2.80
  -2   1 -10   20.26    3.08
  -2   0  11   37.26    3.61
  -2   0  10   49.71    4.71
   2   0 -10   42.32    6.56
  -2   0   9  118.91    8.23
   2   0  -9   96.06   11.64
  -2   0   9  126.82    8.92
  -2   0   9  104.99    8.58
  -2   0   9  115.00    7.78
   2   0  -9  134.84   13.20
   2   0  -9  109.28   11.10
  -2   0   8  171.33   10.90
   2   0  -8  169.12   14.08
  -2   0   8  190.57   11.60
  -2   0   8  165.61   10.46
   2   0  -8  178.83   15.07
  -2   0   8  154.07   11.33
  -2   0   7  607.90   32.57
   2   0  -7  757.85   37.53
  -2   0   7  674.26   33.08
  -2   0   7  658.14   33.41
  -2   0   7  676.25   33.95
   2   0  -7  684.65   36.22
  -2   0   7  584.20   33.51
   2   0  -7  769.16   38.03
  -2   0   7  548.87   33.06
   2   0  -6   14.05    4.10
  -2   0   6   18.13    2.74
  -2   0   6   13.21    2.34
   2   0  -6   16.86    5.17
  -2   0   6   17.28    2.65
  -2   0   6   15.24    2.50
   2   0  -6   20.41    4.23
   2   0  -6   18.13    4.79
  -2   0   6   14.79    2.55
  -2   0   5  387.92   20.48
   2   0  -5  463.18   21.88
   2   0  -5  472.17   23.74
  -2   0   5  355.11   20.09
   2   0  -5  345.23   21.79
   2   0  -5  387.61   21.83
  -2   0   5  379.39   20.68
   2   0  -4  293.44   17.83
   2   0  -4  351.77   17.48
   2   0  -4  290.08   17.27
  -2   0   4  274.87   16.38
   2   0  -4  337.98   18.11
   2   0  -4  325.62   16.72
   2   0  -3  291.89   13.72
   2   0  -3  281.94   14.36
  -2   0   3  274.12   13.52
   2   0  -3  245.97   13.49
   2   0  -3  290.20   14.70
   2   0  -3  281.69   14.52
  -2   0   2 2335.05  115.61
   2   0  -2 2253.42  115.94
   2   0  -2 2562.14  115.80
   2   0  -1 6941.88  335.28
  -2   0   1 7077.75  335.35
   2   0  -1 6963.56  334.96
  -2   0   0 1747.84   77.33
  -2   0   0 1539.98   77.03
  -2   0   0 1565.46   77.21
  -2   0   0 1478.83   76.15
   2   0   0 1669.90   77.51
   2   0   0 1656.47   77.66
  -2   0  -1  529.74   28.63
  -2   0  -1  600.59   29.52
  -2   0  -1  619.95   30.38
  -2   0  -1  578.41   29.90
   2   0   1  619.23   29.46
   2   0   2  799.24   39.14
  -2   0  -2  675.19   39.72
  -2   0  -2  757.72   39.07
  -2   0  -2  776.89   40.00
   2   0   2  799.37   39.28
  -2   0  -3   55.59    4.18
   2   0   3   61.52    4.42
   2   0   4  413.20   22.45
   2   0   4  447.85   22.63
  -2   0  -4  383.18   22.42
   2   0   4  433.58   22.51
   2   0   4  375.39   24.60
   2   0   4  436.43   22.58
  -2   0  -5   46.48    6.65
   2   0   5   33.43    3.88
   2   0   5   32.48    4.08
  -2   0  -5   29.27    3.79
   2   0   5   31.08    3.27
   2   0   5   39.91    5.76
   2   0   5   37.01    3.53
   2   0   5   36.82    3.87
   2   0   5   30.37    3.50
   2   0   6  282.59   15.58
   2   0   6  267.16   14.94
   2   0   6  244.46   16.12
  -2   0  -6  309.66   19.69
  -2   0  -6  244.98   16.12
   2   0   6  236.11   18.99
   2   0   6  279.81   15.65
  -2   0  -6  237.20   15.96
   2   0   7  513.27   26.83
  -2   0  -7  436.59   26.75
  -2   0  -7  444.37   26.95
   2   0   7  496.19   25.90
   2   0   7  454.02   27.38
   2   0   8  106.83    9.06
   2   0   8  124.44    8.01
   2   0   8  122.15    9.84
  -2   0  -8  118.36    9.56
  -2   0  -8  112.39    9.00
  -2   0  -8  133.42   12.56
  -2   0  -9   55.93    5.26
  -2   0  -9   72.29    6.28
   2   0   9   62.40    4.79
   2   0   9   71.27    6.42
  -2   0  -9   65.14    5.97
   2   0   9   69.47    5.85
  -2   0  -9   53.70    5.01
  -2   0 -10    8.85    1.97
   2   0  10    6.77    1.83
  -2  -1  12   12.37    1.81
   2   1 -11   10.54    2.23
   2   1 -11   15.26    3.85
  -2  -1  11   11.68    2.55
  -2  -1  10   24.75    3.04
   2   1 -10   27.46    6.62
  -2  -1  10   24.56    4.13
   2   1 -10   22.99    5.44
  -2  -1   9   15.92    3.51
   2   1  -9   18.17    6.15
  -2  -1   9   17.04    3.62
  -2  -1   9   16.67    3.28
  -2  -1   9   17.08    3.43
  -2  -1   9   16.59    2.67
   2   1  -9   19.64    5.45
   2   1  -9   22.00    5.86
  -2  -1   8   19.12    3.31
  -2  -1   8   15.52    3.04
  -2  -1   8   11.15    2.19
   2   1  -8   16.02    5.65
   2   1  -8   18.27    5.88
  -2  -1   8   18.67    3.45
  -2  -1   8   13.05    2.80
  -2  -1   8   18.34    3.31
   2   1  -8   16.16    5.12
   2   1  -8   15.63    4.72
  -2  -1   8   11.75    2.93
   2   1  -7  153.42   11.08
  -2  -1   7  129.42    9.02
  -2  -1   7  124.11    8.16
   2   1  -7  145.81   12.01
  -2  -1   7  132.60    8.72
   2   1  -7  127.74   11.47
  -2  -1   7  142.59    9.56
  -2  -1   7  136.82    9.37
   2   1  -7  143.11   11.61
  -2  -1   7  139.76    9.44
   2   1  -6  205.17   14.38
  -2  -1   6  211.01   12.26
   2   1  -6  210.69   14.27
  -2  -1   6  207.34   12.56
  -2  -1   6  186.38   11.70
   2   1  -6  226.63   15.09
   2   1  -6  237.35   14.22
  -2  -1   6  207.52   12.51
  -2  -1   6  216.75   11.85
   2   1  -5  552.80   30.62
   2   1  -5  574.33   30.93
   2   1  -5  584.06   29.55
   2   1  -5  548.66   30.92
   2   1  -5  595.24   31.63
   2   1  -5  601.69   30.78
  -2  -1   5  549.12   28.87
  -2  -1   5  549.23   29.16
  -2  -1   4   69.91    5.41
   2   1  -4   73.14    6.06
   2   1  -4   65.81    5.38
   2   1  -4   63.38    6.42
   2   1  -4   68.56    6.22
   2   1  -4   63.95    5.62
  -2  -1   4   70.69    5.30
   2   1  -3  534.61   25.43
   2   1  -3  512.45   25.55
  -2  -1   3  464.12   24.03
   2   1  -3  456.69   24.62
   2   1  -3  506.75   25.20
   2   1  -3  425.70   23.38
  -2  -1   3  480.64   24.89
  -2  -1   2  617.99   32.01
   2   1  -2  608.19   31.91
   2   1  -2  644.98   32.48
   2   1  -1 2575.36  119.98
   2   1  -1 2922.09  120.28
   2   1  -1 2223.35  118.50
  -2  -1   1 2687.37  120.09
  -2  -1   1 2515.12  119.74
  -2  -1   1 2276.71  118.60
   2   1   0 5857.70  269.57
  -2  -1   0 6261.02  270.16
  -2  -1   0 5352.18  269.10
   2   1   0 5552.83  269.49
  -2  -1   0 5519.41  269.33
  -2  -1   0 5322.60  268.53
  -2  -1  -1   53.65    5.12
   2   1   1   50.40    4.53
  -2  -1  -1   50.93    4.56
   2   1   1   46.10    3.73
  -2  -1  -1   54.07    4.92
   2   1   2  966.73   49.68
   2   1   2  972.28   50.36
  -2  -1  -2 1032.54   51.98
  -2  -1  -2 1121.62   50.69
   2   1   2  970.91   51.01
  -2  -1  -3  348.06   19.97
  -2  -1  -3  419.91   23.20
   2   1   3  385.09   20.04
  -2  -1  -3  369.33   22.17
   2   1   3  386.17   20.07
   2   1   4   16.53    2.74
   2   1   4   17.02    2.74
   2   1   4   10.95    2.65
  -2  -1  -4   17.57    4.56
   2   1   4   12.39    3.53
   2   1   4   12.38    2.21
   2   1   4   13.64    2.40
  -2  -1  -5  113.18   10.66
   2   1   5   92.01    7.52
   2   1   5   78.31    6.74
   2   1   5   63.31    8.50
  -2  -1  -5   81.26    6.76
   2   1   5   59.29    5.58
   2   1   5   79.86    5.92
  -2  -1  -5   96.43    9.17
   2   1   5   84.77    6.63
  -2  -1  -6    7.41    3.48
  -2  -1  -6    6.86    2.52
   2   1   6    8.56    2.85
   2   1   6    3.43    2.15
   2   1   6    4.93    2.52
   2   1   6    7.31    3.38
   2   1   6    5.81    2.10
   2   1   6    3.94    2.16
   2   1   7  156.24    9.68
   2   1   7  176.65   11.14
  -2  -1  -7  141.98   10.61
  -2  -1  -7  146.57   10.73
   2   1   8    4.97    1.94
   2   1   8    8.43    2.89
  -2  -1  -8    5.02    2.34
  -2  -1  -8    5.58    2.24
  -2  -1  -9   78.64    6.04
   2   1   9   59.76    5.25
  -2  -2  12   62.16    4.41
   2   2 -12   55.01    4.54
  -2  -2  11    9.37    2.86
   2   2 -11   11.64    2.33
   2   2 -11    8.18    2.44
   2   2 -10   94.36   11.04
  -2  -2  10  123.01    9.52
   2   2 -10   95.56    8.15
  -2  -2  10  130.57    8.45
  -2  -2  10  112.30    7.46
  -2  -2   9   21.49    4.14
   2   2  -9   34.14    7.22
  -2  -2   9   23.27    3.08
   2   2  -9   24.90    3.82
   2   2  -9   26.96    6.15
  -2  -2   9   26.69    4.08
   2   2  -9   19.56    5.58
  -2  -2   9   25.20    3.83
  -2  -2   9   28.67    4.02
  -2  -2   8    3.71    1.58
  -2  -2   8    6.45    2.51
  -2  -2   8    6.08    2.25
   2   2  -8    4.76    2.90
   2   2  -8   10.21    5.00
  -2  -2   8    6.06    2.22
   2   2  -8    0.98    3.53
   2   2  -8    6.06    4.22
  -2  -2   8    4.92    2.40
  -2  -2   7  276.90   15.48
   2   2  -7  341.65   19.45
  -2  -2   7  246.98   15.76
   2   2  -7  308.40   19.74
   2   2  -7  313.32   19.53
  -2  -2   7  303.71   16.28
  -2  -2   7  294.38   16.61
   2   2  -7  309.00   19.49
  -2  -2   7  238.66   14.97
  -2  -2   7  280.57   16.55
  -2  -2   6   54.17    4.36
  -2  -2   6   59.58    4.70
   2   2  -6   54.45    6.34
   2   2  -6   55.65    7.03
   2   2  -6   50.89    6.78
   2   2  -6   54.81    6.38
   2   2  -5  646.18   33.39
   2   2  -5  663.50   36.24
  -2  -2   5  672.18   33.46
   2   2  -5  741.50   36.13
   2   2  -5  670.64   35.56
  -2  -2   5  646.23   34.61
  -2  -2   5  655.51   33.47
   2   2  -5  643.47   34.91
   2   2  -5  642.26   35.50
  -2  -2   5  636.85   34.46
   2   2  -4  240.51   14.76
   2   2  -4  207.46   13.66
   2   2  -4  236.41   14.20
  -2  -2   4  224.47   13.36
   2   2  -3  821.79   41.46
  -2  -2   3  779.77   42.14
   2   2  -3  864.25   42.84
   2   2  -2  447.24   24.00
  -2  -2   2  484.89   25.84
  -2  -2   2  443.81   24.79
  -2  -2   1  536.65   28.95
  -2  -2   1  564.28   29.90
   2   2  -1  589.61   29.92
   2   2  -1  529.22   29.76
  -2  -2   1  549.74   29.91
   2   2   0  114.80    8.44
   2   2   0  103.17    8.34
   2   2   1  169.55   11.63
   2   2   1  156.03    9.58
  -2  -2  -1  187.92   12.54
   2   2   1  158.44    9.40
  -2  -2  -1  183.96   11.28
   2   2   1  143.07   10.61
  -2  -2  -1  184.73   12.12
  -2  -2  -1  183.99   12.10
  -2  -2  -1  167.10   11.29
   2   2   1  160.37    9.62
  -2  -2  -2  880.78   41.25
   2   2   2  747.78   41.80
  -2  -2  -2  944.88   44.28
   2   2   2  744.06   39.36
  -2  -2  -2  792.85   41.66
   2   2   2  798.26   39.81
  -2  -2  -2  831.90   43.02
   2   2   2  799.35   39.79
   2   2   2  694.57   39.27
  -2  -2  -2  821.70   42.53
  -2  -2  -2  855.22   43.02
   2   2   3   26.20    3.47
   2   2   3   20.11    3.29
  -2  -2  -3   40.99    5.87
   2   2   3   32.39    3.43
   2   2   3   30.25    3.53
   2   2   3   22.11    2.97
  -2  -2  -3   30.70    4.99
   2   2   3   32.09    3.58
   2   2   3   18.99    4.42
  -2  -2  -3   33.64    5.39
  -2  -2  -3   26.55    4.64
   2   2   3   27.99    3.16
   2   2   4  289.31   18.11
   2   2   4  328.69   17.77
  -2  -2  -4  315.60   20.27
   2   2   4  336.49   18.03
   2   2   4  297.16   18.77
   2   2   4  243.77   20.87
   2   2   4  323.41   17.92
  -2  -2  -4  257.25   19.96
   2   2   4  308.14   17.43
  -2  -2  -4  338.30   21.17
  -2  -2  -4  340.20   21.62
   2   2   4  301.78   17.12
  -2  -2  -5   35.22    4.68
   2   2   5   31.66    3.99
   2   2   5   39.46    5.16
   2   2   5   38.58    4.69
   2   2   5   35.55    4.39
  -2  -2  -5   32.81    5.83
   2   2   5   28.06    4.33
   2   2   5   36.82    5.06
   2   2   5   32.20    6.58
  -2  -2  -5   34.74    5.87
  -2  -2  -5   35.21    6.55
  -2  -2  -6   75.48    7.22
  -2  -2  -6   54.84    8.16
  -2  -2  -6   62.40    9.09
   2   2   6   77.85    7.48
   2   2   6   77.08    6.88
   2   2   6   83.37    6.91
   2   2   6   72.37    5.98
   2   2   6   62.95    9.48
  -2  -2  -6   75.92    9.54
   2   2   7   37.95    4.00
   2   2   7   50.39    5.08
  -2  -2  -7   36.96    6.59
  -2  -2  -7   47.61    5.08
  -2  -2  -7   35.55    4.74
  -2  -2  -8   51.77    4.85
   2   2   8   49.14    4.68
  -2  -2  -8   56.60    5.34
   2   2   9    9.24    1.65
   2   3 -12   18.07    2.55
  -2  -3  12   18.93    2.57
   2   3 -11    8.14    2.25
  -2  -3  11   15.50    3.19
   2   3 -11   12.30    2.85
  -2  -3  11   13.63    3.29
   2   3 -10  192.70   12.76
  -2  -3  10  189.90   11.51
  -2  -3  10  180.54   12.78
   2   3 -10  214.82   13.33
  -2  -3  10  197.39   13.59
  -2  -3  10  196.68   12.72
  -2  -3   9   55.17    5.28
  -2  -3   9   49.84    5.42
  -2  -3   9   50.94    5.69
   2   3  -9   51.68    7.37
   2   3  -9   54.84    5.57
  -2  -3   9   48.41    4.50
   2   3  -9   45.72    7.39
   2   3  -9   60.17    5.99
  -2  -3   8   82.87    6.21
   2   3  -8  106.37    7.82
   2   3  -8   99.94    9.96
  -2  -3   8   70.46    6.53
  -2  -3   8   96.45    7.34
   2   3  -8   94.47   10.34
  -2  -3   8   82.95    6.61
   2   3  -8   94.74    7.39
   2   3  -8   78.88    9.27
  -2  -3   8   80.98    7.25
  -2  -3   7   56.92    4.83
  -2  -3   7   62.23    5.19
   2   3  -7   64.25    5.55
   2   3  -7   55.75    7.19
  -2  -3   7   52.39    5.35
  -2  -3   7   47.71    4.33
   2   3  -7   54.92    7.73
   2   3  -7   59.15    5.28
   2   3  -7   52.42    6.96
  -2  -3   6  284.84   14.97
   2   3  -6  270.02   17.35
   2   3  -6  280.95   15.10
  -2  -3   6  217.87   13.81
   2   3  -6  276.59   15.00
  -2  -3   6  243.35   15.81
  -2  -3   6  258.32   16.47
  -2  -3   6  262.50   14.66
  -2  -3   6  230.20   14.67
   2   3  -6  278.81   17.76
   2   3  -5  363.07   18.32
  -2  -3   5  283.20   17.78
  -2  -3   5  344.92   17.85
   2   3  -5  334.95   19.85
   2   3  -5  345.94   18.15
  -2  -3   5  314.24   19.41
   2   3  -4  320.29   18.48
  -2  -3   4  286.45   16.21
  -2  -3   4  262.07   15.88
   2   3  -4  319.06   15.99
   2   3  -4  300.88   16.98
   2   3  -4  277.79   18.05
   2   3  -4  294.29   15.78
  -2  -3   4  301.76   15.45
  -2  -3   4  297.75   17.40
   2   3  -3 1741.99   78.67
   2   3  -3 1539.86   75.86
   2   3  -3 1704.50   75.80
  -2  -3   3 1511.74   76.09
  -2  -3   3 1558.75   77.84
   2   3  -3 1577.48   75.63
   2   3  -3 1348.86   75.26
  -2  -3   2  277.06   16.77
  -2  -3   2  327.44   18.82
   2   3  -2  283.88   16.09
   2   3  -2  282.67   18.59
  -2  -3   2  330.24   16.71
   2   3  -2  306.00   16.24
  -2  -3   2  302.80   17.76
   2   3  -2  326.20   18.80
   2   3  -1  585.91   29.93
  -2  -3   1  619.41   30.22
   2   3  -1  570.02   29.91
  -2  -3   1  556.02   30.56
  -2  -3   1  618.74   32.94
  -2  -3   1  600.26   31.91
   2   3  -1  624.63   32.48
   2   3  -1  545.77   32.41
   2   3   0   71.93    5.35
  -2  -3   0   81.17    7.62
  -2  -3   0   68.27    5.26
   2   3   0   78.16    5.44
  -2  -3   0   91.97    8.57
   2   3   0   78.01    5.32
  -2  -3   0   70.11    5.67
   2   3   0   65.50    6.45
   2   3   0   67.12    7.27
  -2  -3  -1  745.66   37.36
   2   3   1  615.64   32.01
   2   3   1  598.13   31.85
  -2  -3  -1  568.81   32.27
  -2  -3  -1  710.58   34.73
  -2  -3  -1  697.94   36.17
   2   3   1  578.65   34.96
  -2  -3  -1  647.57   35.30
   2   3   1  613.41   32.06
   2   3   2    8.35    2.13
   2   3   2    6.34    2.10
  -2  -3  -2    6.41    3.63
   2   3   2    4.40    1.80
  -2  -3  -2    4.52    1.93
  -2  -3  -2    4.29    3.26
  -2  -3  -2    6.17    3.14
  -2  -3  -2    5.13    2.98
   2   3   2    4.23    1.95
  -2  -3  -2    1.75    2.98
   2   3   3   45.58    7.83
   2   3   3   77.65    6.15
   2   3   3   66.76    6.64
  -2  -3  -3   95.89   10.18
   2   3   3   67.75    5.75
  -2  -3  -3   61.86    8.42
  -2  -3  -3   69.12    8.29
  -2  -3  -3   72.64    8.26
  -2  -3  -3   87.00    9.23
   2   3   3   74.17    6.23
   2   3   3   69.70    5.75
   2   3   4  135.99   15.00
   2   3   4  193.86   11.97
  -2  -3  -4  171.88   11.84
  -2  -3  -4  166.17   15.54
   2   3   4  182.86   11.61
  -2  -3  -4  190.47   15.43
  -2  -3  -4  180.36   14.87
  -2  -3  -4  172.02   14.39
   2   3   4  182.56   11.87
   2   3   5    3.03    2.37
  -2  -3  -5    2.50    2.25
   2   3   5    1.49    2.04
  -2  -3  -5   -0.61    3.27
   2   3   5    0.21    2.17
  -2  -3  -5    3.62    3.77
   2   3   5    4.89    3.31
  -2  -3  -5    3.99    3.03
   2   3   6   79.99    7.00
   2   3   6   55.61    5.65
  -2  -3  -6   68.07    6.60
   2   3   7    6.03    1.98
  -2  -3  -7    8.36    2.20
  -2  -3  -7    8.67    2.45
   2   3   8   35.62    3.26
   2   4 -12   20.77    2.72
   2   4 -12   24.86    3.17
  -2  -4  12   25.94    2.78
   2   4 -12   22.18    2.81
   2   4 -11   32.57    4.04
   2   4 -11   32.92    4.56
   2   4 -11   27.71    3.72
  -2  -4  11   35.13    4.17
  -2  -4  10   13.23    3.40
  -2  -4  10   15.09    3.38
  -2  -4  10   12.80    2.34
   2   4 -10   16.42    4.35
   2   4 -10   12.93    3.05
   2   4 -10   13.83    3.30
  -2  -4  10   18.43    3.56
  -2  -4   9  133.40    9.45
  -2  -4   9  129.75    9.00
   2   4  -9  164.49   11.00
  -2  -4   9  143.41   10.76
   2   4  -9  150.05   13.58
  -2  -4   9  131.33   10.43
   2   4  -9  162.80   10.80
  -2  -4   8  185.00   11.89
   2   4  -8  196.33   12.96
  -2  -4   8  182.12   12.92
  -2  -4   8  216.76   12.95
   2   4  -8  206.26   13.13
   2   4  -8  220.94   16.81
  -2  -4   8  194.18   12.29
   2   4  -8  235.77   13.70
  -2  -4   8  171.84   11.55
  -2  -4   7  121.79    8.91
   2   4  -7  159.04   13.26
   2   4  -7  164.47   10.51
  -2  -4   7  146.57    9.88
  -2  -4   7  144.59    9.78
   2   4  -7  155.00   10.32
   2   4  -7  143.08   10.05
  -2  -4   7  137.39    9.96
  -2  -4   7  167.98   12.39
  -2  -4   6   66.79    5.23
  -2  -4   6   45.73    4.97
  -2  -4   6   48.72    4.56
   2   4  -6   72.56    5.76
   2   4  -6   63.57    5.68
  -2  -4   6   65.63    7.16
   2   4  -6   67.62    5.61
   2   4  -5  329.29   19.97
  -2  -4   5  345.08   17.69
   2   4  -5  252.36   16.08
  -2  -4   5  249.09   15.76
  -2  -4   5  286.66   16.82
   2   4  -5  302.08   16.53
  -2  -4   5  303.10   16.17
  -2  -4   5  306.69   18.83
   2   4  -5  308.53   16.69
   2   4  -5  307.20   16.74
  -2  -4   4  117.89    7.61
   2   4  -4  107.44    9.14
  -2  -4   4  100.42    6.18
   2   4  -4   90.40    6.55
   2   4  -4   86.20    6.33
  -2  -4   4   74.93    7.96
  -2  -4   4   78.91    6.06
   2   4  -4   85.05    6.40
   2   4  -4   85.62    6.38
  -2  -4   4   99.35    7.31
   2   4  -3  477.27   24.98
   2   4  -3  423.32   24.61
   2   4  -3  469.93   25.20
   2   4  -3  425.30   27.38
  -2  -4   3  521.59   28.48
   2   4  -3  496.06   25.02
  -2  -4   3  459.90   25.89
  -2  -4   3  461.88   27.01
   2   4  -2  440.20   24.27
  -2  -4   2  458.51   25.49
   2   4  -2  421.41   26.76
   2   4  -2  480.12   25.05
   2   4  -2  460.47   24.46
   2   4  -2  461.01   24.51
  -2  -4   2  536.22   25.46
  -2  -4   2  503.85   28.22
  -2  -4   2  450.91   26.72
   2   4  -1  144.00   12.02
  -2  -4   1  196.13   11.18
   2   4  -1  177.09   11.24
   2   4  -1  162.71   13.75
  -2  -4   1  186.06   13.94
  -2  -4   1  174.77   11.42
   2   4  -1  180.86   10.72
  -2  -4   1  170.18   12.73
   2   4  -1  177.41   10.56
   2   4   0   80.95    8.80
  -2  -4   0   73.41    5.89
  -2  -4   0   67.03    6.23
   2   4   0   78.63    5.95
  -2  -4   0   71.89    7.82
   2   4   0   85.31    5.98
   2   4   1  191.68   15.93
   2   4   1  238.19   13.05
   2   4   1  236.36   12.90
  -2  -4  -1  234.55   15.53
   2   4   1  192.72   13.58
  -2  -4  -1  195.78   13.22
  -2  -4  -1  253.28   17.53
  -2  -4  -1  206.13   15.88
  -2  -4  -2   48.51    5.56
   2   4   2   67.06    5.58
   2   4   2   39.77    7.37
   2   4   2   72.85    5.81
  -2  -4  -2   66.14    8.74
  -2  -4  -2   50.16    7.62
   2   4   2   57.86    6.17
   2   4   3  145.32    9.42
   2   4   3  138.00    9.28
  -2  -4  -3  105.81   12.20
  -2  -4  -3  116.45   12.26
  -2  -4  -3  115.20    9.45
  -2  -4  -4   40.61    5.00
   2   4   4   52.66    5.20
   2   4   4   46.45    4.93
   2   4   4   54.22    6.40
  -2  -4  -5   72.97    6.96
   2   4   5   75.43    7.14
  -2  -4  -5   63.33    6.31
   2   4   6   35.20    4.13
  -2  -4  -6   35.61    4.26
   2   4   6   41.01    4.35
   2   5 -12    4.79    1.46
  -2  -5  12    9.25    2.01
   2   5 -12    8.08    2.05
  -2  -5  11   49.33    4.35
  -2  -5  11   47.00    4.97
   2   5 -11   38.76    4.21
   2   5 -11   41.78    4.78
  -2  -5  11   39.66    4.42
   2   5 -11   27.54    3.78
  -2  -5  11   39.78    4.33
  -2  -5  10   66.18    5.21
   2   5 -10   77.38    6.94
  -2  -5  10   64.33    6.48
  -2  -5  10   76.86    6.07
  -2  -5  10   68.49    6.50
   2   5 -10   60.62    5.93
  -2  -5   9   26.16    3.35
  -2  -5   9   31.18    4.26
  -2  -5   9   29.10    3.95
   2   5  -9   31.81    5.29
  -2  -5   9   29.56    4.42
   2   5  -9   25.57    4.25
   2   5  -8  106.13    8.29
  -2  -5   8  104.83    7.73
  -2  -5   8   86.95    6.72
  -2  -5   8   82.95    7.60
  -2  -5   8   90.92    7.09
  -2  -5   8   82.07    9.51
  -2  -5   8   83.65    7.32
   2   5  -8   98.94    7.78
  -2  -5   7  220.89   15.05
   2   5  -7  282.84   19.77
  -2  -5   7  287.94   18.57
  -2  -5   7  268.35   15.74
   2   5  -7  274.84   15.73
   2   5  -7  238.21   16.46
  -2  -5   7  214.36   14.31
  -2  -5   7  263.32   15.16
   2   5  -7  268.79   15.48
   2   5  -6   10.96    3.89
  -2  -5   6    7.12    2.08
   2   5  -6    8.98    3.51
  -2  -5   6    9.75    2.21
   2   5  -6    6.29    3.24
   2   5  -6    7.65    2.53
  -2  -5   6   13.42    4.40
  -2  -5   6    8.25    2.56
  -2  -5   5   49.89    5.32
  -2  -5   5   36.20    4.03
  -2  -5   5   42.67    4.91
   2   5  -5   39.76    4.26
   2   5  -5   47.18    4.95
   2   5  -5   44.33    6.68
   2   5  -5   46.07    4.47
  -2  -5   5   39.03    3.88
   2   5  -5   47.58    6.95
  -2  -5   5   35.11    6.19
  -2  -5   4   42.31    5.00
   2   5  -4   45.40    4.62
  -2  -5   4   36.03    4.19
   2   5  -4   28.56    5.43
   2   5  -4   43.22    4.37
  -2  -5   4   41.19    6.28
   2   5  -4   47.03    4.37
   2   5  -4   34.22    6.32
   2   5  -3  197.08   16.29
  -2  -5   3  194.22   12.93
   2   5  -3  152.13   13.64
   2   5  -3  203.19   11.94
   2   5  -3  187.02   12.17
   2   5  -3  186.15   11.94
  -2  -5   3  204.51   15.53
  -2  -5   3  189.31   14.27
  -2  -5   2  617.38   30.39
   2   5  -2  577.07   29.30
   2   5  -2  569.57   29.05
   2   5  -2  573.58   30.15
  -2  -5   2  579.94   34.10
  -2  -5   2  515.13   31.97
   2   5  -2  549.01   34.61
  -2  -5   1  494.76   30.09
   2   5  -1  454.63   31.56
  -2  -5   1  552.93   27.70
   2   5  -1  552.25   27.03
   2   5  -1  549.47   26.79
   2   5  -1  467.12   26.66
  -2  -5   1  476.31   27.96
  -2  -5   1  551.26   32.35
   2   5   0  250.62   16.19
   2   5   0  278.43   14.90
   2   5   0  247.42   19.35
  -2  -5   0  222.87   14.59
   2   5   0  277.48   14.70
  -2  -5   0  222.76   15.46
  -2  -5   0  296.08   18.62
   2   5   0  175.96   17.43
  -2  -5   0  272.86   18.35
   2   5   0  216.50   15.81
   2   5   1   16.68    3.42
   2   5   1   21.86    3.38
   2   5   1   17.08    2.99
  -2  -5  -1   18.44    3.75
   2   5   1   13.41    4.59
  -2  -5  -1   21.53    5.68
   2   5   1   16.79    3.65
  -2  -5  -1   23.79    5.47
  -2  -5  -2   97.21    8.12
   2   5   2   95.80    7.16
  -2  -5  -2   77.88    7.41
   2   5   2   68.73   10.26
   2   5   2   82.41    7.87
  -2  -5  -2   94.23   11.02
  -2  -5  -2   95.01   10.10
   2   5   2  100.39    8.45
   2   5   2  106.19    7.38
   2   5   3    0.34    1.51
   2   5   3   -0.28    1.99
  -2  -5  -3    0.45    2.53
   2   5   3    0.71    1.75
   2   5   3    0.82    1.96
  -2  -5  -3    1.71    2.19
   2   5   3    1.05    2.38
   2   5   4   30.42    4.43
   2   5   4   18.69    3.42
  -2  -5  -4   25.71    3.83
   2   5   5   79.72    6.12
  -2  -5  -5   74.71    6.34
  -2  -6  12   65.92    4.38
  -2  -6  11   20.20    2.82
   2   6 -11   20.63    3.14
  -2  -6  11   14.89    2.71
  -2  -6  10   30.54    3.87
   2   6 -10   33.94    4.51
  -2  -6  10   26.62    3.84
  -2  -6  10   25.40    3.01
   2   6 -10   21.49    3.27
  -2  -6  10   39.06    3.99
  -2  -6   9   55.57    5.37
  -2  -6   9   40.34    5.08
  -2  -6   9   49.90    5.16
  -2  -6   9   46.11    4.46
  -2  -6   9   62.38    5.18
   2   6  -9   67.68    6.12
  -2  -6   9   55.44    5.68
   2   6  -9   48.94    4.99
  -2  -6   8  136.83   10.85
  -2  -6   8  165.30   11.08
   2   6  -8  169.21   12.50
   2   6  -8  173.09   11.12
  -2  -6   8  168.16   11.49
  -2  -6   8  181.26   10.75
   2   6  -8  192.14   11.87
  -2  -6   8  181.28   14.16
  -2  -6   8  159.23   10.53
  -2  -6   7   44.91    4.51
   2   6  -7   44.99    6.03
  -2  -6   7   57.94    5.91
  -2  -6   7   31.78    4.04
   2   6  -7   50.85    5.65
   2   6  -7   25.89    6.16
   2   6  -7   43.66    4.83
  -2  -6   7   50.35    7.25
   2   6  -6  123.81   10.84
   2   6  -6  123.10   12.43
  -2  -6   6  119.65    8.52
  -2  -6   6  111.55    9.22
   2   6  -6  136.57    9.33
   2   6  -6  135.06    8.87
  -2  -6   6  120.34   11.58
   2   6  -6   98.01   11.22
  -2  -6   5   84.83    7.76
   2   6  -5   82.94    8.80
   2   6  -5   99.60    7.49
   2   6  -5   90.83    6.82
   2   6  -5   90.02    7.08
  -2  -6   5   76.36    6.56
   2   6  -5   69.95    9.72
  -2  -6   5   84.94    9.63
  -2  -6   5  119.51    8.80
   2   6  -5   68.13    8.84
  -2  -6   4  121.43    9.03
  -2  -6   4   82.63    7.45
   2   6  -4   90.63   11.23
   2   6  -4   77.08    9.09
  -2  -6   4  100.27    8.57
   2   6  -4  102.79    7.26
   2   6  -4  102.25    7.71
   2   6  -4  105.00    7.72
  -2  -6   4   93.49    7.20
  -2  -6   4   81.64    9.97
  -2  -6   3   31.23    4.44
  -2  -6   3   37.81    4.96
   2   6  -3   31.94    4.03
  -2  -6   3   37.40    5.21
   2   6  -3   26.85    6.67
   2   6  -3   37.81    3.94
   2   6  -3   35.61    5.64
  -2  -6   3   29.54    6.28
   2   6  -3   26.90    3.96
  -2  -6   2  464.33   25.92
   2   6  -2  474.01   24.92
   2   6  -2  393.76   30.07
   2   6  -2  455.85   27.77
   2   6  -2  485.71   24.87
  -2  -6   2  430.33   29.80
   2   6  -2  431.92   26.67
  -2  -6   2  454.80   28.29
   2   6  -1  254.08   13.91
  -2  -6   1  214.36   14.24
   2   6  -1  256.61   14.20
  -2  -6   1  224.18   15.18
   2   6  -1  229.74   16.01
  -2  -6   1  232.82   17.57
   2   6  -1  232.62   15.73
  -2  -6   1  216.32   18.51
  -2  -6   1  245.79   17.42
  -2  -6   0  333.05   20.64
   2   6   0  354.89   21.32
   2   6   0  376.04   19.40
  -2  -6   0  357.86   23.16
  -2  -6  -1   45.44    5.42
  -2  -6  -1   48.74    5.56
  -2  -6  -1   43.78    7.46
   2   6   1   60.02    6.32
  -2  -6  -1   51.09    7.26
   2   6   1   48.91    4.66
  -2  -6  -2   91.23    7.59
   2   6   2   94.27    7.40
  -2  -6  -2  103.52    9.89
   2   6   2   93.88    6.69
  -2  -6  -3   18.29    2.84
   2   6   3   22.05    3.77
   2   6   3   17.30    2.64
  -2  -6  -3   18.94    3.27
   2   6   4    2.02    1.51
   2   7 -11   39.16    3.70
  -2  -7  11   43.50    3.98
  -2  -7  10   32.66    3.18
  -2  -7  10   23.47    2.51
   2   7 -10   30.84    3.67
  -2  -7  10   21.77    3.18
  -2  -7  10   24.46    3.04
  -2  -7   9    6.88    2.31
  -2  -7   9    8.82    2.12
  -2  -7   9    7.24    2.38
   2   7  -9    9.96    3.08
  -2  -7   9    5.76    1.74
  -2  -7   9    5.63    2.14
  -2  -7   8   45.06    4.19
  -2  -7   8   32.35    3.81
  -2  -7   8   33.81    3.77
   2   7  -8   38.58    5.20
  -2  -7   8   40.16    4.81
   2   7  -8   49.03    5.12
  -2  -7   8   37.60    4.37
  -2  -7   8   32.55    5.78
  -2  -7   7  280.27   18.01
  -2  -7   7  337.21   19.12
  -2  -7   7  300.78   17.79
   2   7  -7  376.96   18.75
   2   7  -7  340.55   20.89
  -2  -7   7  291.27   20.99
  -2  -7   6   97.53    7.52
   2   7  -6  125.68   10.63
  -2  -7   6  102.01    8.58
   2   7  -6  119.24    8.32
  -2  -7   6   94.11   10.39
  -2  -7   5    0.57    2.67
   2   7  -5    5.52    1.99
  -2  -7   5    6.01    2.19
  -2  -7   5    3.95    3.56
  -2  -7   4   27.37    3.57
   2   7  -4   33.39    3.90
  -2  -7   4   30.10    4.79
   2   7  -4   28.09    4.82
   2   7  -4   22.55    5.00
  -2  -7   4   21.59    5.44
  -2  -7   4   18.11    5.06
  -2  -7   4   23.12    4.42
  -2  -7   4   24.08    3.87
   2   7  -3   38.24    5.87
   2   7  -3   34.74    4.02
  -2  -7   3   32.10    4.91
  -2  -7   3   19.38    3.82
  -2  -7   3   32.71    4.67
  -2  -7   3   25.05    6.07
  -2  -7   2   70.02    6.69
  -2  -7   2   67.11    6.70
  -2  -7   2   77.76    9.94
   2   7  -2   85.48    8.03
   2   7  -2   81.14    8.22
  -2  -7   1   85.93    7.67
   2   7  -1  100.64    8.58
   2   7  -1  117.85    9.28
  -2  -7   1   95.90    8.12
  -2  -7   1   78.25    7.04
  -2  -7   1   83.89   10.47
   2   7  -1  116.00    8.94
  -2  -7   1   84.42    9.16
   2   7   0  214.19   13.93
  -2  -7   0  173.64   12.24
   2   7   0  194.69   12.98
  -2  -7  -1   63.46    5.58
   2   7   1   84.19    7.15
  -2  -7  -1   72.42    6.16
  -2  -7  -1   67.46    5.91
  -2  -7  -2    9.56    1.96
   2   7   2   10.04    1.92
  -2  -8   9   19.13    2.60
  -2  -8   9   21.46    2.20
  -2  -8   9   18.86    2.43
  -2  -8   8   52.92    4.15
  -2  -8   8   53.77    4.97
  -2  -8   7    8.32    1.89
  -2  -8   7    9.79    2.86
   2   8  -7   10.72    2.56
   2   8  -7    9.44    2.23
   2   8  -6   63.68    4.88
  -2  -8   6   49.79    5.36
  -2  -8   6   55.28    4.68
   2   8  -6   63.78    6.91
  -2  -8   6   47.14    5.17
   2   8  -6   57.92    5.73
   2   8  -5   76.75    7.89
  -2  -8   5   67.27    5.38
   2   8  -5   79.49    5.68
  -2  -8   5   56.72    6.13
   2   8  -5   79.08    7.05
  -2  -8   4    5.98    2.14
  -2  -8   4    7.48    2.07
   2   8  -4    9.00    3.27
   2   8  -4    5.85    2.07
   2   8  -4    6.19    2.77
  -2  -8   4    8.39    2.72
  -2  -8   3   29.15    3.88
  -2  -8   3   42.86    4.77
  -2  -8   3   32.28    3.47
   2   8  -3   37.99    5.20
   2   8  -2    6.57    2.44
  -2  -8   2    5.49    1.85
   2   8  -2    8.01    2.26
  -2  -8   2    7.97    2.04
  -2  -8   2   10.32    2.69
  -2  -8   2    6.25    2.09
  -2  -8   2    6.90    1.86
   2   8  -1   25.36    3.42
  -2  -8   1   19.48    2.92
  -2  -8   1   14.97    2.62
  -2  -8   1   19.80    2.98
   2   8   0  167.24    9.98
   2   8   0  171.50    9.93
  -2  -9   7    4.24    1.03
   2   9  -7    4.36    1.68
  -2  -9   7    3.06    1.60
  -2  -9   6   13.76    1.74
   2   9  -6   15.16    2.35
  -2  -9   5    4.11    1.64
  -2  -9   5    6.30    1.77
  -2  -9   5    6.27    1.32
   2   9  -5    8.83    2.01
   2   9  -4   55.65    4.97
  -2  -9   4   53.12    3.87
  -2  -9   4   57.89    4.68
   2   9  -4   67.62    5.11
   2   9  -3    9.14    1.76
  -2  -9   3    6.82    1.23
  -3  11  -2    9.05    1.72
  -3  11  -3   11.94    2.10
  -3  11  -3    9.86    1.91
   3 -11   4   31.16    2.50
  -3  11  -4   34.49    3.19
   3 -11   5   23.86    2.16
   3 -11   5   20.36    2.13
   3 -11   6   51.89    3.53
  -3  11  -6   53.43    4.56
  -3  10   1   26.39    2.79
   3 -10   0    4.46    1.21
  -3  10   0    5.23    1.99
  -3  10   0    5.07    1.90
   3 -10   0    4.26    1.80
   3 -10   1    4.43    1.45
   3 -10   1    3.66    2.12
   3 -10   1    2.09    2.13
  -3  10  -1    4.19    1.87
  -3  10  -1    5.49    2.00
   3 -10   2   11.72    2.09
  -3  10  -2    9.75    2.67
  -3  10  -2    6.17    1.89
  -3  10  -2   12.39    2.44
  -3  10  -2   10.85    2.83
   3 -10   3    7.08    2.64
  -3  10  -3    8.62    2.67
  -3  10  -3    4.13    2.10
   3 -10   3    3.78    2.20
   3 -10   3    7.41    1.85
  -3  10  -3    8.33    2.88
   3 -10   4    9.07    2.00
   3 -10   4    7.98    2.44
   3 -10   4    5.87    2.46
  -3  10  -4    7.36    2.37
  -3  10  -4    4.77    2.56
   3 -10   5   57.24    4.54
   3 -10   5   47.28    5.26
  -3  10  -5   57.13    6.08
  -3  10  -5   47.50    5.26
  -3  10  -6    8.25    2.69
   3 -10   6    8.93    2.11
   3 -10   6   11.19    2.15
  -3  10  -6   10.77    2.54
   3 -10   6   12.40    2.72
   3 -10   7   80.81    5.15
  -3  10  -7   65.32    5.91
  -3  10  -7   77.66    5.93
   3 -10   8  132.79    7.56
  -3  10  -8  135.06    8.68
   3 -10   8  111.09    7.67
   3 -10   9   67.93    4.30
   3 -10   9   61.10    4.11
  -3   9   3    5.25    1.67
  -3   9   3    1.75    1.12
   3  -9  -2   12.57    1.88
  -3   9   2   12.40    2.57
  -3   9   2   13.81    2.65
  -3   9   2   15.42    2.97
  -3   9   1  122.44    8.73
   3  -9  -1   99.45    8.04
  -3   9   1  111.22    8.50
  -3   9   1  109.59    8.66
   3  -9   0    1.02    2.67
  -3   9   0    2.07    1.70
  -3   9   0    0.78    2.11
   3  -9   0    3.81    2.65
  -3   9   0    0.72    1.60
   3  -9   0    2.68    3.11
   3  -9   0    3.74    2.53
  -3   9   0    3.48    2.37
   3  -9   1   33.38    4.93
   3  -9   1   33.62    3.74
   3  -9   1   30.66    5.96
  -3   9  -1   34.58    4.83
   3  -9   1   41.61    4.99
   3  -9   1   20.85    5.19
  -3   9  -1   39.49    4.96
   3  -9   2   21.14    3.12
   3  -9   2   21.72    4.37
   3  -9   2   18.52    3.37
   3  -9   2   24.15    4.52
  -3   9  -2   15.35    3.46
   3  -9   2   15.35    4.44
  -3   9  -2   25.97    4.36
   3  -9   2   12.69    4.55
  -3   9  -2   19.07    3.42
   3  -9   3   40.20    5.62
   3  -9   3   49.28    4.63
  -3   9  -3   49.75    6.15
   3  -9   3   50.15    5.79
  -3   9  -3   58.14    5.98
   3  -9   3   35.88    6.58
   3  -9   4   14.30    3.61
   3  -9   4   13.63    2.70
   3  -9   4   10.00    4.19
  -3   9  -4    9.95    3.09
  -3   9  -4   13.47    3.37
   3  -9   5   35.27    4.98
   3  -9   5   40.61    4.27
  -3   9  -5   32.99    6.92
  -3   9  -5   43.36    5.90
  -3   9  -5   44.15    5.44
  -3   9  -5   43.10    5.22
   3  -9   5   34.06    6.25
  -3   9  -6   48.36    5.89
   3  -9   6   50.26    4.57
   3  -9   6   38.34    4.90
  -3   9  -6   48.55    5.64
  -3   9  -6   36.47    4.26
  -3   9  -6   45.34    5.39
   3  -9   6   33.86    6.07
   3  -9   6   36.96    4.55
  -3   9  -7  101.92    7.82
   3  -9   7  124.06    8.02
   3  -9   7  100.41    8.16
  -3   9  -7  108.18    8.89
  -3   9  -7  123.69    9.12
   3  -9   8   53.15    4.41
  -3   9  -8   38.78    4.34
  -3   9  -8   45.14    4.81
   3  -9   8   42.82    4.62
   3  -9   9    3.17    1.74
  -3   9  -9    3.17    1.95
   3  -9   9    4.13    2.15
   3  -9   9    3.61    1.48
  -3   9  -9    4.95    1.87
  -3   9  -9    4.19    1.62
   3  -9  10   57.86    4.09
   3  -9  10   61.12    4.15
  -3   9 -10   66.60    4.60
  -3   8   4   11.98    2.28
  -3   8   4   15.46    2.95
  -3   8   3   21.24    3.70
  -3   8   3   13.63    3.06
  -3   8   2   45.94    5.43
   3  -8  -2   30.07    6.26
  -3   8   2   47.12    5.61
   3  -8  -2   32.31    6.39
  -3   8   2   43.71    5.56
  -3   8   1   -0.36    1.82
   3  -8  -1   -1.22    2.88
  -3   8   1   -0.58    2.47
  -3   8   1    0.92    2.16
   3  -8  -1    0.37    2.50
   3  -8  -1    1.24    2.36
   3  -8  -1   -0.17    2.83
  -3   8   1    1.56    2.27
  -3   8   0  107.87    9.07
   3  -8   0   85.32   11.00
  -3   8   0  105.01    8.96
   3  -8   0  115.83    8.55
  -3   8   0  110.35    9.09
   3  -8   0   85.21   11.39
   3  -8   0  126.25    8.56
   3  -8   0  114.99   10.46
   3  -8   0   83.10   11.02
  -3   8   0  112.08    9.26
   3  -8   1   54.32    8.44
  -3   8  -1   68.26    6.83
   3  -8   1   83.71    6.93
   3  -8   1   64.34    9.68
   3  -8   1   61.15    9.18
   3  -8   1   58.52    8.55
   3  -8   1   74.89    6.79
   3  -8   1   66.66    5.92
  -3   8  -1   64.54    6.95
   3  -8   2   27.11    6.02
   3  -8   2   33.23    3.84
  -3   8  -2   29.19    4.56
   3  -8   2   17.96    5.21
  -3   8  -2   30.77    4.64
   3  -8   2   26.74    6.64
   3  -8   2   28.02    4.91
  -3   8  -2   30.65    4.72
   3  -8   2   30.44    4.74
   3  -8   2   25.17    4.25
   3  -8   3  104.20   11.46
   3  -8   3  124.72    8.53
  -3   8  -3  114.55   12.79
  -3   8  -3  122.85    9.85
  -3   8  -3  116.59   10.10
   3  -8   3  124.72    8.54
   3  -8   3   92.96   11.00
   3  -8   3  123.16   11.39
   3  -8   3  127.08    8.96
  -3   8  -4   58.97    5.56
   3  -8   4   67.66    6.52
  -3   8  -4   69.19    7.30
   3  -8   4   61.13    6.74
   3  -8   4   68.93    5.84
  -3   8  -4   58.81    9.12
   3  -8   4   73.12    7.22
   3  -8   4   60.41    9.90
  -3   8  -4   76.20    7.29
   3  -8   4   72.90    8.77
   3  -8   4   71.97    6.49
  -3   8  -5  139.50   11.01
   3  -8   5  121.35   13.84
   3  -8   5   97.69    9.60
   3  -8   5  145.97    9.48
  -3   8  -5  135.47    9.39
   3  -8   5  144.48   10.23
  -3   8  -5  142.11   11.06
  -3   8  -5  140.46   10.83
   3  -8   5  137.91   12.19
  -3   8  -6   79.15   10.69
   3  -8   6   98.85    7.28
  -3   8  -6   83.37    7.25
  -3   8  -6   97.93    8.68
  -3   8  -6  116.36    9.42
   3  -8   6   76.79   10.81
   3  -8   6   76.29    9.34
  -3   8  -7  167.28   16.97
  -3   8  -7  200.66   13.46
   3  -8   7  247.30   13.68
  -3   8  -7  207.70   14.40
   3  -8   7  241.84   14.47
   3  -8   7  200.03   16.27
   3  -8   8   46.98    4.53
  -3   8  -8   35.58    4.63
   3  -8   9    3.30    1.99
   3  -8   9   -0.56    2.51
   3  -8   9    2.81    1.73
  -3   8  -9    1.80    2.37
  -3   8  -9    4.60    2.33
   3  -8  10   23.30    2.76
  -3   8 -10   19.84    3.18
   3  -8  10   24.00    3.06
   3  -8  10   26.13    2.83
  -3   8 -11  100.54    5.84
   3  -8  11   86.42    5.43
  -3   7   6    9.84    2.25
  -3   7   5    6.46    2.06
  -3   7   5   12.42    3.13
  -3   7   5   11.42    2.73
  -3   7   4    2.46    2.23
   3  -7  -4    4.44    3.12
  -3   7   4    1.46    2.22
  -3   7   4    1.52    2.21
  -3   7   3   11.53    3.43
  -3   7   3   18.63    4.01
  -3   7   3   17.29    3.82
   3  -7  -3   12.23    4.56
   3  -7  -3   10.54    3.66
  -3   7   3   13.75    2.73
   3  -7  -3   10.16    3.91
  -3   7   2   13.12    3.44
  -3   7   2   12.98    3.49
   3  -7  -2   11.10    4.38
  -3   7   2    8.90    3.17
  -3   7   2    9.49    3.64
   3  -7  -2   15.65    4.12
  -3   7   2   10.94    2.66
  -3   7   2   13.02    3.47
  -3   7   1  149.04   11.31
  -3   7   1  140.26   10.91
  -3   7   1  155.90   11.83
  -3   7   1  165.41   11.81
   3  -7  -1  154.78   12.50
   3  -7  -1  129.65   13.47
   3  -7  -1  169.59   10.48
   3  -7  -1  168.06   14.99
  -3   7   1  154.13   11.63
   3  -7   0  128.36    8.83
   3  -7   0  122.50   12.68
  -3   7   0  102.41    9.03
  -3   7   0  116.18    9.30
   3  -7   0  115.47   12.01
  -3   7   0  118.55    9.46
   3  -7   0  130.57   10.67
  -3   7  -1  151.56   11.72
  -3   7  -1  174.37   11.96
  -3   7  -1  161.91   11.71
   3  -7   1  205.21   16.27
   3  -7   1  185.41   11.41
   3  -7   1  177.50   13.00
   3  -7   1  161.68   14.66
   3  -7   1  132.19   13.57
   3  -7   2   57.14    5.55
  -3   7  -2   55.77    5.33
  -3   7  -2   51.41    8.04
   3  -7   2   58.73    7.95
   3  -7   2   59.66    8.38
  -3   7  -2   52.99    5.97
  -3   7  -2   71.32    6.40
   3  -7   2   54.72    7.82
  -3   7  -2   63.42    6.08
   3  -7   3   43.09    5.08
   3  -7   3   38.09    6.58
   3  -7   3   44.34    4.27
  -3   7  -3   44.10    7.17
   3  -7   3   44.26    4.41
  -3   7  -3   39.75    4.24
  -3   7  -3   44.21    5.18
   3  -7   3   42.71    6.16
   3  -7   3   49.32    5.50
   3  -7   3   48.82    7.88
  -3   7  -3   42.05    5.79
   3  -7   3   44.35    5.31
   3  -7   3   52.04    5.28
   3  -7   3   47.78    6.75
   3  -7   3   36.20    6.38
   3  -7   4  154.50   13.62
  -3   7  -4  158.72   11.74
   3  -7   4  171.93   10.49
   3  -7   4  181.20   13.95
   3  -7   4  187.16   15.87
   3  -7   4  144.47   13.53
   3  -7   4  155.38   10.98
  -3   7  -4  157.85   10.84
  -3   7  -4  169.36   12.05
  -3   7  -4  149.19   10.33
  -3   7  -4  160.14   12.71
   3  -7   4  166.00   13.13
   3  -7   4  162.70   10.79
  -3   7  -5  219.14   15.43
   3  -7   5  190.56   14.41
   3  -7   5  238.14   14.15
  -3   7  -5  216.05   18.45
  -3   7  -5  230.07   14.31
   3  -7   5  222.87   18.94
   3  -7   5  269.14   15.07
  -3   7  -5  251.17   16.22
   3  -7   5  264.75   18.61
  -3   7  -5  252.42   17.17
   3  -7   5  269.07   17.64
   3  -7   5  246.10   14.76
  -3   7  -6  179.97   14.44
  -3   7  -6  167.81   12.41
   3  -7   6  199.19   11.55
   3  -7   6  153.83   11.35
  -3   7  -6  150.18   15.01
  -3   7  -6  155.54   11.30
  -3   7  -6  189.66   13.38
   3  -7   6  191.64   15.64
   3  -7   6  190.50   14.48
  -3   7  -7  511.85   36.47
  -3   7  -7  569.68   32.27
  -3   7  -7  584.97   35.52
   3  -7   8    6.98    2.83
   3  -7   8    6.44    2.24
  -3   7  -8    2.75    2.62
  -3   7  -8    7.59    2.62
   3  -7   9    4.29    2.77
   3  -7   9    7.03    2.28
   3  -7   9    5.75    2.56
  -3   7  -9    7.78    3.12
   3  -7  10   10.34    2.53
   3  -7  10   11.09    2.33
   3  -7  10   14.88    2.35
  -3   7 -10   15.18    3.06
  -3   7 -10   12.65    2.79
   3  -7  11    4.65    1.28
  -3   7 -11    4.81    1.63
   3  -7  11    4.55    1.38
  -3   6   7   68.61    5.39
  -3   6   7   64.49    5.75
  -3   6   6    2.87    2.30
  -3   6   6    2.18    1.99
  -3   6   5   47.09    5.46
  -3   6   5   45.59    5.71
   3  -6  -5   46.00    7.34
  -3   6   5   48.50    6.07
  -3   6   4   21.45    3.29
   3  -6  -4   23.70    5.09
  -3   6   4   16.67    3.87
  -3   6   4   25.01    4.42
  -3   6   4   21.69    5.61
   3  -6  -4   21.81    5.39
  -3   6   4   17.73    4.13
  -3   6   3   52.03    6.25
  -3   6   3   58.23    6.46
   3  -6  -3   54.07    8.30
  -3   6   3   57.81    6.31
  -3   6   3   42.52    7.49
  -3   6   3   67.24    5.58
   3  -6  -3   44.80    6.72
   3  -6  -2   62.62    8.69
  -3   6   2   77.41    7.06
  -3   6   2   83.05    7.49
  -3   6   2   75.21    6.24
  -3   6   2   74.26    7.14
  -3   6   2   54.25    8.15
   3  -6  -2   75.53    6.10
   3  -6  -2   68.09    7.71
  -3   6   2   84.46    7.53
   3  -6  -1  197.62   15.01
  -3   6   1  165.18   11.70
   3  -6  -1  196.57   13.38
   3  -6  -1  203.41   15.57
  -3   6   1  188.09   12.61
  -3   6   1  157.38   13.91
  -3   6   1  166.09   11.77
  -3   6   1  169.87   12.02
  -3   6   0  192.67   12.83
  -3   6   0  191.93   12.75
   3  -6   0  240.48   16.65
  -3   6   0  193.24   13.20
   3  -6   0  167.56   14.94
  -3   6   0  178.60   14.33
   3  -6   0  208.53   12.32
  -3   6   0  195.84   12.91
   3  -6   0  232.53   16.38
   3  -6   0  207.30   13.85
  -3   6   0  200.94   12.96
  -3   6   0  209.97   13.00
  -3   6  -1   62.14    5.79
  -3   6  -1   52.14    5.45
   3  -6   1   58.65    4.70
   3  -6   1   56.34    7.27
  -3   6  -1   61.02    7.74
  -3   6  -1   66.44    5.51
   3  -6   1   59.34    6.06
  -3   6  -1   59.90    5.55
  -3   6  -1   54.60    5.38
   3  -6   1   56.28    6.03
  -3   6  -1   49.16    4.88
   3  -6   1   66.92    8.02
  -3   6  -2   71.56    6.66
   3  -6   2   74.92    6.19
  -3   6  -2   84.43    6.02
  -3   6  -2   96.05    9.55
   3  -6   2   82.17    7.79
   3  -6   2   61.81    8.09
  -3   6  -2   77.66    6.45
  -3   6  -2   87.86    7.00
   3  -6   2   85.07    5.99
  -3   6  -2   95.14    7.92
   3  -6   2   74.98    8.42
  -3   6  -2   98.99    7.37
   3  -6   2   81.92    9.17
   3  -6   3   62.64    7.57
   3  -6   3   63.15    5.69
  -3   6  -3   60.08    5.85
  -3   6  -3   57.62    5.81
   3  -6   3   65.69    5.00
  -3   6  -3   66.13    5.25
   3  -6   3   65.28    5.25
   3  -6   3   64.83    5.72
  -3   6  -3   58.16    5.44
  -3   6  -3   64.93    5.99
   3  -6   3   65.99    7.29
   3  -6   3   55.23    7.03
   3  -6   3   65.89    8.32
   3  -6   3   62.31    5.72
   3  -6   3   57.64    6.75
  -3   6  -3   70.97    7.08
   3  -6   4   82.39    9.06
  -3   6  -4   89.49    7.70
  -3   6  -4  106.52    8.02
   3  -6   4  101.63    6.84
  -3   6  -4   87.76    6.86
   3  -6   4   98.57    7.11
   3  -6   4   98.26    7.40
  -3   6  -4   86.99    9.51
   3  -6   4  102.01    7.37
  -3   6  -4   98.34    8.08
   3  -6   4   99.24    9.55
  -3   6  -4   94.69    7.25
  -3   6  -4  105.28    9.11
   3  -6   4  100.85    8.93
   3  -6   4  109.04   10.60
   3  -6   4   97.09    7.32
  -3   6  -5  125.07    9.77
   3  -6   5  153.03    9.59
   3  -6   5  138.30    8.89
   3  -6   5  135.03    9.46
   3  -6   5  146.29   12.95
  -3   6  -5  137.97   12.45
  -3   6  -5  133.99    9.11
  -3   6  -5  115.45    8.82
   3  -6   5  156.77   11.66
  -3   6  -6  156.06   11.10
   3  -6   6  176.69   10.88
  -3   6  -6  170.56   11.20
  -3   6  -6  158.06   14.22
   3  -6   6  183.62   15.08
   3  -6   6  152.33   10.98
   3  -6   6  187.52   11.77
   3  -6   6  212.84   14.43
  -3   6  -7  790.70   46.63
   3  -6   7 1055.54   47.44
  -3   6  -7  725.10   50.34
   3  -6   7 1091.00   53.97
   3  -6   7  980.49   46.85
  -3   6  -7  928.63   47.87
   3  -6   8   65.93    5.74
  -3   6  -8   44.12    5.05
   3  -6   8   55.35    5.10
   3  -6   8   56.83    5.82
  -3   6  -8   58.54    5.69
  -3   6  -8   51.97    8.52
  -3   6  -8   36.27    4.97
   3  -6   8   41.42    4.63
   3  -6   9   62.02    5.98
   3  -6   9   74.83    5.48
  -3   6  -9   50.62    5.64
  -3   6  -9   73.36    6.22
  -3   6  -9   55.04    5.67
   3  -6   9   80.11    5.85
   3  -6   9   47.29    5.17
  -3   6 -10   50.46    4.71
  -3   6 -10   36.54    4.26
  -3   6 -10   40.57    4.53
   3  -6  10   55.20    4.45
   3  -6  10   39.94    4.36
  -3   6 -11    0.33    1.56
   3  -6  11    0.52    1.12
   3  -6  11    1.37    1.19
  -3   6 -11    2.67    1.54
  -3   6 -11    0.69    1.22
  -3   6 -11    0.97    1.18
  -3   5   8    4.60    1.55
  -3   5   8    5.38    1.85
  -3   5   7   63.45    5.24
  -3   5   7   76.20    6.57
  -3   5   7   79.95    7.20
  -3   5   6  197.14   12.51
  -3   5   6  232.61   14.67
  -3   5   6  201.30   13.64
  -3   5   6  231.59   15.37
  -3   5   5    5.29    2.46
   3  -5  -5    3.02    3.00
  -3   5   5    6.67    2.90
  -3   5   5    9.81    3.22
   3  -5  -5    8.69    3.61
  -3   5   5    8.84    3.19
  -3   5   5    6.49    2.35
  -3   5   5    5.83    2.96
  -3   5   4  169.76   12.87
  -3   5   4  171.48   12.43
  -3   5   4  186.74   12.95
  -3   5   4  203.15   11.76
  -3   5   4  148.06   15.04
  -3   5   4  169.79   10.83
  -3   5   4  167.38   12.80
   3  -5  -4  199.10   15.06
  -3   5   3   58.17    5.97
  -3   5   3   57.48    5.99
  -3   5   3   55.73    5.90
  -3   5   3   51.14    7.34
   3  -5  -3   48.16    6.66
  -3   5   3   55.63    5.06
   3  -5  -2   57.40    6.88
  -3   5   2   56.11    5.64
  -3   5   2   65.80    5.99
  -3   5   2   53.05    5.39
   3  -5  -2   62.42    7.48
  -3   5   2   55.05    7.13
  -3   5   2   52.70    5.52
   3  -5  -2   60.17    6.39
  -3   5   1   17.92    2.79
   3  -5  -1   25.63    4.70
  -3   5   1   16.14    2.83
  -3   5   1   19.39    3.15
  -3   5   1   18.60    2.93
  -3   5   1   14.82    3.54
   3  -5  -1   18.05    3.38
  -3   5   1   18.11    2.89
   3  -5  -1   21.53    4.46
   3  -5   0   68.07    6.10
   3  -5   0   62.72    7.12
  -3   5   0   71.32    5.63
   3  -5   0   63.73    5.94
  -3   5   0   71.52    6.89
  -3   5   0   60.62    5.35
  -3   5   0   67.53    5.60
  -3   5  -1   54.86    4.67
  -3   5  -1   43.22    4.15
   3  -5   1   34.18    5.22
  -3   5  -1   42.89    5.78
   3  -5   1   41.45    4.94
  -3   5  -1   41.09    4.19
  -3   5  -1   45.02    5.22
   3  -5   1   40.86    5.72
   3  -5   1   46.56    4.82
   3  -5   2  623.72   36.98
   3  -5   2  652.95   37.47
   3  -5   2  696.98   34.15
   3  -5   2  702.91   36.83
  -3   5  -2  609.61   34.84
  -3   5  -2  690.66   34.76
  -3   5  -2  740.54   36.36
   3  -5   2  669.81   34.34
  -3   5  -3  456.32   25.47
  -3   5  -3  494.52   23.09
   3  -5   3  348.03   24.25
   3  -5   3  423.09   21.76
   3  -5   3  392.00   24.52
   3  -5   3  404.10   21.39
  -3   5  -3  389.84   22.02
   3  -5   3  408.01   24.41
   3  -5   3  408.25   21.80
  -3   5  -3  387.62   23.36
   3  -5   3  400.44   23.23
   3  -5   4  134.81    8.46
   3  -5   4  120.03    7.95
  -3   5  -4  115.95    8.19
  -3   5  -4  147.75   11.32
   3  -5   4  136.13    8.63
  -3   5  -4  126.55    8.65
   3  -5   4  130.39    8.54
  -3   5  -4  120.96    9.67
   3  -5   4  134.80    8.36
   3  -5   4  151.44   11.63
  -3   5  -4  123.14    8.24
  -3   5  -4  129.17    9.14
   3  -5   4  143.63    8.71
   3  -5   4  148.27   10.21
  -3   5  -4  142.68    9.14
   3  -5   5  188.15   11.58
   3  -5   5  188.82   11.35
   3  -5   5  204.58   14.43
  -3   5  -5  168.40   11.36
  -3   5  -5  193.13   13.67
   3  -5   5  180.07   10.86
   3  -5   5  163.84   11.18
  -3   5  -5  192.30   12.72
  -3   5  -5  177.74   11.28
   3  -5   5  203.50   14.77
  -3   5  -5  186.64   11.39
  -3   5  -5  180.36   12.05
   3  -5   5  210.42   13.53
   3  -5   6  207.56   12.43
   3  -5   6  178.02   12.54
  -3   5  -6  230.43   14.83
   3  -5   6  226.52   13.21
  -3   5  -6  196.83   15.08
  -3   5  -6  214.17   15.77
  -3   5  -6  213.54   14.23
   3  -5   6  236.33   16.89
  -3   5  -6  203.66   13.08
  -3   5  -6  229.04   14.01
  -3   5  -6  220.72   14.38
  -3   5  -7  252.54   17.03
   3  -5   7  278.47   15.09
  -3   5  -7  263.96   19.02
  -3   5  -7  260.14   15.36
  -3   5  -7  251.10   16.61
  -3   5  -7  212.96   15.60
  -3   5  -7  250.41   16.75
   3  -5   7  270.54   15.31
  -3   5  -7  232.91   17.87
   3  -5   7  254.94   19.14
   3  -5   8  189.97   13.26
   3  -5   8  246.27   14.12
   3  -5   8  224.70   12.46
   3  -5   8  220.91   12.99
  -3   5  -8  171.01   16.36
  -3   5  -8  232.11   13.52
  -3   5  -8  186.53   13.42
  -3   5  -8  185.68   13.55
  -3   5  -8  225.15   14.98
   3  -5   8  224.55   13.51
  -3   5  -8  165.39   15.46
   3  -5   9  217.00   12.26
   3  -5   9  164.52   11.28
   3  -5   9  210.88   11.54
  -3   5  -9  131.00   10.72
  -3   5  -9  182.98   11.44
  -3   5  -9  150.21   11.47
  -3   5  -9  165.99   11.56
   3  -5   9  205.22   11.96
   3  -5  10   12.16    2.40
  -3   5 -10   12.56    2.62
   3  -5  10   14.05    2.51
  -3   5 -10   11.99    3.13
  -3   5 -10   11.67    2.60
   3  -5  11   14.27    2.10
  -3   5 -11   13.45    2.57
  -3   5 -11    8.49    1.83
   3  -5  11   15.12    2.46
  -3   4   8   77.63    6.44
  -3   4   8   82.08    7.14
  -3   4   8   68.28    5.46
  -3   4   7   78.16    6.45
  -3   4   7   77.88    7.74
  -3   4   7   81.49    7.12
  -3   4   7   71.35    5.94
  -3   4   7   57.83    5.83
  -3   4   6  115.02    9.11
  -3   4   6  151.17    9.92
  -3   4   6  140.99   10.39
  -3   4   6  152.61   10.03
  -3   4   6  141.17    9.13
  -3   4   6  100.75   12.76
   3  -4  -6  115.80   12.52
  -3   4   6  140.27   11.24
   3  -4  -6  140.27   13.13
  -3   4   5  166.93   12.14
  -3   4   5  168.15   12.68
  -3   4   5  198.45   11.80
  -3   4   5  165.92   10.67
  -3   4   5  186.80   11.42
  -3   4   5  147.51   14.88
  -3   4   5  176.53   11.39
  -3   4   5  170.11   11.11
  -3   4   5  162.98   12.56
   3  -4  -5  198.89   14.74
  -3   4   4  533.68   28.14
  -3   4   4  527.80   30.33
  -3   4   4  610.05   29.22
  -3   4   4  551.45   28.92
  -3   4   4  494.99   30.09
  -3   4   4  530.11   28.62
   3  -4  -4  606.95   32.14
  -3   4   4  593.23   29.24
  -3   4   4  482.62   29.54
  -3   4   3   97.54    6.54
   3  -4  -3   83.13    7.75
  -3   4   3   90.54    7.05
  -3   4   3   87.37    6.98
  -3   4   3   71.96    6.00
  -3   4   3   79.20    8.58
   3  -4  -3   97.91    8.01
  -3   4   2   56.88    6.36
  -3   4   2   48.39    4.48
   3  -4  -2   64.17    5.87
  -3   4   1   84.66    6.29
  -3   4   1   93.75    8.10
   3  -4  -1   98.91    8.28
   3  -4  -1   97.60    6.93
   3  -4   0  772.15   37.17
  -3   4   0  690.32   34.58
  -3   4   0  725.62   36.66
   3  -4   0  661.71   36.74
  -3   4   0  657.57   34.28
   3  -4   0  640.33   34.72
   3  -4   1  132.88    9.94
   3  -4   1  130.06    9.94
  -3   4  -1  136.81    9.46
  -3   4  -1  155.27   10.73
   3  -4   1  123.58    9.89
   3  -4   2   60.91    6.31
   3  -4   2   63.77    4.47
   3  -4   2   66.91    4.79
   3  -4   2   58.32    6.06
  -3   4  -2   52.20    4.62
  -3   4  -2   64.84    5.90
  -3   4  -2   72.23    4.88
   3  -4   2   57.70    5.10
  -3   4  -2   82.70    6.89
   3  -4   3  307.12   17.39
  -3   4  -3  382.10   20.29
  -3   4  -3  307.51   18.12
   3  -4   3  352.39   17.59
  -3   4  -3  321.59   17.76
  -3   4  -3  341.88   18.25
  -3   4  -3  330.38   18.25
   3  -4   3  294.13   18.85
   3  -4   3  324.04   17.36
   3  -4   3  335.54   18.49
   3  -4   4  244.08   14.07
   3  -4   4  258.36   14.45
   3  -4   4  241.87   14.31
   3  -4   4  263.01   14.45
  -3   4  -4  298.63   14.91
  -3   4  -4  243.38   15.20
   3  -4   4  255.34   15.03
  -3   4  -4  224.32   14.35
   3  -4   4  283.97   17.28
  -3   4  -4  280.92   15.47
  -3   4  -4  269.12   15.14
  -3   4  -4  232.33   15.03
   3  -4   4  264.28   14.14
  -3   4  -4  264.62   15.74
   3  -4   4  270.43   15.75
   3  -4   5  183.41   10.73
   3  -4   5  176.61   10.47
   3  -4   5  192.39   11.16
  -3   4  -5  196.16   12.36
   3  -4   5  185.19   11.22
  -3   4  -5  164.22   10.92
   3  -4   5  203.45   14.08
  -3   4  -5  201.49   11.99
  -3   4  -5  189.87   12.92
   3  -4   5  153.91   10.71
   3  -4   6  126.56    7.81
  -3   4  -6  123.14    9.52
   3  -4   6  101.26    7.80
   3  -4   6  135.03   11.30
  -3   4  -6  123.37    8.94
  -3   4  -6  119.97    9.31
  -3   4  -6   94.36    9.71
   3  -4   7  168.69   10.77
   3  -4   7  150.64    9.48
  -3   4  -7  148.69    9.72
  -3   4  -7  157.52   11.25
  -3   4  -7  146.83   11.35
   3  -4   7  140.51   12.64
  -3   4  -7  143.42   10.48
  -3   4  -7  126.51   10.72
   3  -4   7  150.31   10.09
  -3   4  -7  130.77   12.16
   3  -4   7  124.59    9.56
  -3   4  -8  169.37   11.81
   3  -4   8  162.90   10.71
  -3   4  -8  160.06   12.70
  -3   4  -8  152.71   10.69
  -3   4  -8  165.53   12.27
  -3   4  -8  169.15   12.47
   3  -4   8  194.48   11.90
  -3   4  -8  142.02   13.64
   3  -4   8  200.29   12.23
  -3   4  -9  172.66   11.67
   3  -4   9  190.46   12.11
   3  -4   9  194.73   11.28
  -3   4  -9  157.22   12.05
  -3   4  -9  188.70   12.76
   3  -4   9  203.16   12.21
   3  -4  10   96.69    7.37
   3  -4  10  107.00    7.02
   3  -4  10  120.42    8.51
  -3   4 -10  115.06    7.93
  -3   4 -10   73.29    6.89
  -3   4 -10   88.61    7.54
   3  -4  11   13.09    2.30
  -3   4 -11   10.12    1.89
  -3   3  10   16.17    2.02
  -3   3   9  174.49   10.20
  -3   3   9  157.78    9.88
  -3   3   8   46.05    4.86
  -3   3   8   42.17    5.41
  -3   3   8   48.27    4.56
   3  -3  -8   30.50    6.28
  -3   3   8   39.03    4.73
  -3   3   7  105.30    8.06
  -3   3   7   99.31    9.00
   3  -3  -7   85.99   10.47
  -3   3   7   99.59    8.03
  -3   3   7   99.61    7.94
  -3   3   7   99.80    7.30
  -3   3   6   95.86    6.76
  -3   3   6   81.98    7.46
  -3   3   6   88.25    7.01
  -3   3   6  101.92    7.47
   3  -3  -6   95.59    9.86
  -3   3   6   91.60    7.27
  -3   3   6   84.22    8.15
   3  -3  -6   99.39   10.21
  -3   3   5  224.82   13.12
  -3   3   5  219.68   14.97
  -3   3   5  195.47   14.08
  -3   3   5  251.68   13.99
  -3   3   5  255.75   14.00
  -3   3   5  248.71   14.08
  -3   3   5  206.77   17.27
  -3   3   4  349.30   21.35
  -3   3   4  347.48   20.94
   3  -3  -4  390.92   21.50
  -3   3   4  394.30   20.47
  -3   3   4  326.68   23.47
  -3   3   4  397.40   20.61
  -3   3   4  411.71   20.58
  -3   3   4  353.15   21.35
   3  -3  -3  355.71   19.86
  -3   3   3  371.60   19.48
   3  -3  -2  984.91   52.54
   3  -3  -2 1169.66   54.15
  -3   3   2  970.55   52.87
  -3   3   2 1162.71   55.10
   3  -3  -1  861.10   43.73
   3  -3  -1  960.69   43.81
  -3   3   1  765.52   43.17
  -3   3   1  930.73   44.53
   3  -3  -1  882.98   42.37
   3  -3  -1  766.62   41.75
   3  -3  -1  850.42   43.03
   3  -3   0  470.08   23.93
   3  -3   0  438.30   23.70
   3  -3   0  434.56   23.92
  -3   3   0  398.44   23.67
   3  -3   1   82.10    6.68
   3  -3   1   83.32    6.90
  -3   3  -1   84.04    6.41
   3  -3   1   73.57    5.26
  -3   3  -2 1065.06   54.75
  -3   3  -2 1130.03   53.47
   3  -3   2  945.49   54.32
   3  -3   2 1000.36   53.24
  -3   3  -3 1075.77   47.46
   3  -3   3  935.11   47.25
   3  -3   3  894.17   45.33
   3  -3   3  949.06   46.29
  -3   3  -3  831.83   45.85
   3  -3   3  932.81   45.60
  -3   3  -3  913.93   46.13
   3  -3   3  896.16   44.91
   3  -3   4  898.79   47.20
   3  -3   4  939.14   47.46
   3  -3   4  977.97   50.26
  -3   3  -4  907.56   47.90
  -3   3  -4 1046.36   48.61
  -3   3  -4 1012.15   48.81
  -3   3  -4 1014.12   48.67
   3  -3   4  938.97   47.35
   3  -3   5  102.12    6.44
  -3   3  -5  112.90    9.93
   3  -3   5   91.31    7.01
  -3   3  -5   94.57    7.01
   3  -3   5   99.61    8.91
   3  -3   5   85.75    6.69
  -3   3  -5   99.30    7.47
   3  -3   5  100.66    6.78
   3  -3   5   99.07    6.86
   3  -3   6  432.42   22.31
   3  -3   6  396.96   22.55
  -3   3  -6  378.45   22.31
   3  -3   6  463.90   22.98
  -3   3  -6  366.64   22.57
  -3   3  -6  445.78   23.86
   3  -3   6  439.20   25.67
   3  -3   7    0.74    1.83
  -3   3  -7    1.57    2.26
   3  -3   7    4.60    1.76
   3  -3   7    2.54    1.97
  -3   3  -7    1.73    1.97
  -3   3  -7    1.03    1.75
  -3   3  -7    2.67    2.35
  -3   3  -7    4.42    2.99
   3  -3   8  295.06   17.69
   3  -3   8  304.57   16.65
  -3   3  -8  304.84   18.93
  -3   3  -8  286.45   18.20
  -3   3  -8  283.93   17.59
  -3   3  -8  264.70   18.24
   3  -3   8  304.27   17.11
   3  -3   9   79.27    6.86
   3  -3   9   83.60    6.11
   3  -3   9   93.87    7.68
   3  -3   9   60.82    5.87
  -3   3  -9   79.25    7.09
  -3   3  -9   70.04    6.34
  -3   3  -9   83.76    7.43
   3  -3   9   72.59    6.59
  -3   3  -9   48.38    7.62
   3  -3  10   64.74    5.69
  -3   3 -10   76.56    6.06
   3  -3  10   67.46    6.03
  -3   3 -10   53.59    5.45
  -3   3 -10   61.64    5.72
  -3   3 -11    7.17    1.96
   3  -3  11   10.20    1.90
  -3   2  10   54.97    4.49
  -3   2  10   60.13    4.70
  -3   2   9   59.48    5.22
  -3   2   9   71.40    5.94
  -3   2   9   65.59    6.31
  -3   2   8  171.79   11.11
  -3   2   8  175.81   12.27
   3  -2  -8  198.20   15.97
   3  -2  -7   99.48   10.62
  -3   2   7   99.65    7.11
  -3   2   7   81.48    7.51
   3  -2  -7   94.04   10.61
  -3   2   7   98.74    8.70
   3  -2  -7  103.91   10.83
  -3   2   7  103.56    8.12
  -3   2   6   91.53    6.56
   3  -2  -6   72.85    8.38
  -3   2   6   86.00    7.37
  -3   2   6   94.79    8.11
  -3   2   6   81.34    9.81
   3  -2  -6  102.96    9.22
   3  -2  -6  108.90   10.19
  -3   2   6  118.13    7.89
  -3   2   5  224.79   14.51
  -3   2   5  210.64   13.84
  -3   2   5  232.09   13.41
  -3   2   5  220.34   13.18
  -3   2   5  216.39   16.75
   3  -2  -5  274.46   16.14
  -3   2   5  257.05   13.99
  -3   2   4   29.23    3.08
   3  -2  -4   27.72    3.81
  -3   2   4   29.40    3.08
  -3   2   4   31.76    4.81
  -3   2   3  296.94   17.36
  -3   2   3  331.09   19.59
   3  -2  -3  321.52   17.74
  -3   2   2 1129.73   57.14
   3  -2  -2 1191.99   57.03
   3  -2  -2 1096.42   56.96
   3  -2  -1 1383.44   69.35
   3  -2  -1 1426.57   69.22
  -3   2   1 1361.91   69.60
   3  -2  -1 1474.09   69.73
   3  -2  -1 1418.68   68.82
   3  -2  -1 1370.88   69.33
   3  -2  -1 1385.57   67.72
   3  -2   0  639.68   34.03
   3  -2   0  697.99   34.62
  -3   2   0  663.80   32.48
  -3   2  -1  463.54   24.61
   3  -2   1  448.52   24.05
   3  -2   1  486.45   24.88
  -3   2  -1  441.39   23.20
   3  -2   1  465.90   24.66
  -3   2  -1  446.41   23.96
  -3   2  -2  456.76   24.63
   3  -2   2  408.86   24.25
  -3   2  -2  572.95   25.09
  -3   2  -2  475.22   25.25
   3  -2   2  438.85   24.77
   3  -2   2  446.83   25.82
  -3   2  -2  544.64   24.54
  -3   2  -2  453.18   24.31
   3  -2   2  458.95   25.65
  -3   2  -3  576.96   32.31
   3  -2   3  656.72   32.31
  -3   2  -3  662.56   33.23
  -3   2  -3  636.20   32.76
  -3   2  -3  667.05   32.86
  -3   2  -3  642.55   33.27
   3  -2   4   85.52    6.40
  -3   2  -4   89.50    6.79
   3  -2   4  106.20    8.16
  -3   2  -4  116.27    7.58
  -3   2  -4  101.23    7.09
   3  -2   4   86.17    6.08
   3  -2   4   98.03    6.54
  -3   2  -4  105.00    7.85
  -3   2  -4  118.78    9.42
   3  -2   5  505.36   24.97
   3  -2   5  420.96   25.15
   3  -2   5  447.66   25.09
   3  -2   5  506.01   25.67
  -3   2  -5  432.37   25.60
  -3   2  -5  523.68   26.89
   3  -2   5  518.37   27.54
  -3   2  -5  444.94   25.88
  -3   2  -5  486.05   26.34
   3  -2   5  510.02   25.71
   3  -2   6   98.25    7.44
  -3   2  -6   89.56    8.77
   3  -2   6   98.09    7.19
  -3   2  -6   85.08    6.94
   3  -2   6   97.68    6.50
  -3   2  -6   71.05    6.75
  -3   2  -6   84.04    7.30
   3  -2   6   77.45    6.54
   3  -2   7  224.63   14.32
   3  -2   7  230.99   13.24
   3  -2   7  243.03   14.15
  -3   2  -7  189.17   13.28
  -3   2  -7  215.41   14.79
  -3   2  -7  185.39   13.53
  -3   2  -7  226.41   15.11
   3  -2   7  240.03   14.08
  -3   2  -7  210.29   14.30
  -3   2  -7  256.67   17.25
   3  -2   8   88.99    6.80
  -3   2  -8   99.27   10.36
   3  -2   8   83.79    7.30
  -3   2  -8   91.93    8.13
  -3   2  -8   89.24    8.28
   3  -2   8   99.69    7.98
  -3   2  -8   77.05    7.27
   3  -2   8   86.27    7.42
   3  -2   9   10.91    2.85
   3  -2   9   15.22    3.26
  -3   2  -9   19.54    3.63
   3  -2   9   13.68    2.90
  -3   2  -9    7.51    2.50
  -3   2  -9   11.83    2.62
  -3   2  -9    9.92    2.97
   3  -2   9   10.45    2.77
  -3   2  -9   12.21    3.88
  -3   2 -10   71.85    5.24
   3  -2  10   76.60    5.74
  -3   2 -10   71.85    5.52
  -3   1  11   14.65    2.25
  -3   1  11   11.70    2.02
  -3   1  10   19.70    2.97
  -3   1   9  116.40    8.07
  -3   1   9  131.19    9.58
  -3   1   8  569.82   32.59
   3  -1  -8  723.82   38.77
  -3   1   8  681.58   33.89
   3  -1  -8  746.15   38.45
  -3   1   8  666.73   34.67
   3  -1  -8  694.31   39.51
   3  -1  -8  588.49   35.91
  -3   1   8  563.26   33.29
  -3   1   7   90.19    8.06
  -3   1   7  115.82    8.75
  -3   1   7  118.25    8.31
   3  -1  -7  111.95   11.40
   3  -1  -7  121.76   11.52
   3  -1  -7  131.84   11.65
  -3   1   7  120.03    8.03
  -3   1   7  115.13    8.44
  -3   1   6  130.67    8.62
   3  -1  -6   97.70    9.65
  -3   1   6  118.38    9.09
  -3   1   6  119.33    7.95
  -3   1   6  102.41    8.31
  -3   1   6  128.79    8.29
   3  -1  -6  144.49   10.80
   3  -1  -6  139.65   11.36
  -3   1   6  119.82    7.93
  -3   1   5   31.13    3.44
   3  -1  -5   31.67    4.64
   3  -1  -5   32.29    4.79
  -3   1   5   32.73    3.38
   3  -1  -5   44.05    5.35
   3  -1  -5   43.72    5.63
   3  -1  -4   63.23    5.36
  -3   1   4   88.16    5.50
  -3   1   4   75.51    5.21
   3  -1  -4   67.47    5.55
   3  -1  -4   89.15    7.29
  -3   1   4   72.55    5.66
   3  -1  -3  232.37   12.26
   3  -1  -3  200.30   11.77
   3  -1  -3  208.53   11.42
  -3   1   3  223.80   12.67
   3  -1  -3  187.59   11.95
   3  -1  -3  190.72   11.30
   3  -1  -2  129.88    8.35
  -3   1   2  135.47    8.96
   3  -1  -2  133.24    8.65
   3  -1  -2  133.18    8.91
   3  -1  -2  137.58    8.51
   3  -1  -1  667.73   33.97
  -3   1   1  648.08   33.47
   3  -1  -1  619.89   33.25
   3  -1   0 1654.41   77.42
   3  -1   0 1719.04   77.80
   3  -1   0 1446.39   76.47
  -3   1   0 1537.23   76.36
   3  -1   1  310.77   17.00
  -3   1  -1  315.15   16.10
  -3   1  -1  316.43   16.94
  -3   1  -1  337.49   15.93
   3  -1   1  262.32   15.43
  -3   1  -1  270.67   15.93
  -3   1  -1  299.04   16.66
   3  -1   1  310.24   16.70
  -3   1  -1  271.15   16.09
  -3   1  -2  707.98   36.71
   3  -1   2  728.85   37.26
  -3   1  -2  732.11   36.12
  -3   1  -2  676.99   36.87
  -3   1  -3  548.64   28.13
  -3   1  -3  526.43   29.15
   3  -1   3  531.88   27.40
  -3   1  -3  561.83   28.25
   3  -1   3  522.65   27.19
   3  -1   3  531.67   27.32
   3  -1   4    5.62    1.81
  -3   1  -4    5.54    2.52
  -3   1  -4    4.99    1.69
   3  -1   4    6.34    1.60
  -3   1  -4    6.18    2.06
  -3   1  -4    5.89    1.98
   3  -1   4    6.17    1.80
   3  -1   4    4.78    1.59
  -3   1  -5  870.78   43.74
   3  -1   5  829.24   39.96
   3  -1   5  757.98   40.44
  -3   1  -5  775.70   41.07
  -3   1  -5  799.59   41.26
   3  -1   5  677.15   42.76
   3  -1   6  264.76   14.66
   3  -1   6  256.36   16.06
   3  -1   6  238.15   13.81
   3  -1   6  223.39   15.11
   3  -1   6  278.27   15.66
  -3   1  -6  243.03   15.48
  -3   1  -6  269.80   18.32
  -3   1  -6  234.77   15.53
   3  -1   6  268.90   15.25
   3  -1   7   20.79    3.82
   3  -1   7   20.78    3.26
   3  -1   7   15.95    3.62
   3  -1   7   22.47    3.95
   3  -1   7   18.60    2.73
  -3   1  -7   13.93    3.13
  -3   1  -7   26.95    4.49
  -3   1  -7   24.36    3.74
  -3   1  -7   24.72    4.09
  -3   1  -7   17.77    5.03
   3  -1   7   21.75    3.56
   3  -1   8    6.11    2.59
  -3   1  -8    6.99    2.70
   3  -1   8    7.59    2.00
   3  -1   8   10.86    2.98
  -3   1  -8    6.14    2.65
  -3   1  -8    8.80    2.81
  -3   1  -8   12.74    3.35
  -3   1  -8   10.21    3.91
   3  -1   8    6.41    2.37
   3  -1   9   24.39    3.58
  -3   1  -9   32.20    4.32
   3  -1   9   21.55    3.30
  -3   1  -9   24.83    3.70
  -3   1  -9   22.11    3.25
  -3   1  -9   20.20    3.12
  -3   1  -9   24.59    3.81
  -3   0  12    4.22    1.14
  -3   0  11    8.76    2.15
   3   0 -11    6.77    1.79
  -3   0  10   79.74    6.90
  -3   0  10   89.30    6.52
   3   0 -10   94.79    7.67
   3   0  -9    3.04    4.72
  -3   0   9    0.50    2.10
   3   0  -9    1.78    3.00
   3   0  -9    2.63    3.19
  -3   0   9    3.84    2.58
   3   0  -8  576.21   32.64
  -3   0   8  511.71   28.89
  -3   0   8  508.18   27.51
  -3   0   8  511.28   28.75
   3   0  -8  557.91   32.90
   3   0  -8  510.85   31.05
  -3   0   7  293.58   16.93
   3   0  -7  356.08   21.56
  -3   0   7  294.50   16.95
   3   0  -7  308.76   19.71
  -3   0   7  318.47   18.09
  -3   0   7  309.71   17.32
   3   0  -7  344.79   21.63
   3   0  -7  304.79   19.74
  -3   0   7  278.58   17.71
  -3   0   7  304.89   17.89
  -3   0   6  189.87   11.27
   3   0  -6  204.67   13.13
  -3   0   6  178.11   12.07
  -3   0   6  211.24   12.35
   3   0  -6  157.16   13.27
  -3   0   6  213.42   11.75
   3   0  -6  212.59   13.79
  -3   0   6  200.44   11.49
   3   0  -6  199.26   14.59
  -3   0   6  191.14   11.53
  -3   0   6  186.50   11.91
   3   0  -6  225.01   15.32
   3   0  -6  190.04   13.29
  -3   0   6  191.33   11.84
  -3   0   6  195.78   12.18
   3   0  -5  300.81   18.73
  -3   0   5  302.41   15.96
   3   0  -5  322.23   17.53
   3   0  -5  295.13   16.76
  -3   0   5  277.23   15.92
   3   0  -5  275.97   17.04
  -3   0   5  269.63   16.12
   3   0  -4   19.67    3.99
  -3   0   4   19.38    3.16
   3   0  -4   22.35    4.09
   3   0  -4   21.78    3.15
   3   0  -4   27.49    4.20
   3   0  -4   19.97    2.99
   3   0  -3    6.09    1.84
   3   0  -3    7.02    2.48
   3   0  -3    3.84    2.23
  -3   0   3    5.58    2.16
   3   0  -3    4.15    2.29
   3   0  -2  471.88   26.81
   3   0  -2  503.89   26.74
  -3   0   2  495.76   26.69
   3   0  -2  468.04   26.40
   3   0  -2  576.15   27.19
   3   0  -1  878.80   43.90
  -3   0   1  816.96   42.56
  -3   0   0  623.50   30.22
   3   0   0  574.90   28.67
  -3   0   0  528.91   29.69
  -3   0   0  559.08   30.02
   3   0   1  302.53   16.64
  -3   0  -1  336.12   17.34
  -3   0  -1  300.73   16.99
  -3   0  -1  297.21   17.30
  -3   0  -1  286.49   16.82
  -3   0  -1  261.76   15.42
   3   0   2  186.41   10.87
   3   0   2  190.42   10.97
  -3   0  -2  198.69   12.05
  -3   0  -2  199.74   11.57
   3   0   2  201.63   12.25
   3   0   2  207.22   12.04
  -3   0  -2  182.47   10.77
   3   0   2  184.96   11.12
  -3   0  -2  189.93   12.60
  -3   0  -2  209.23   13.13
   3   0   3   61.61    4.91
  -3   0  -3   59.89    5.17
   3   0   3   56.36    4.46
   3   0   3   65.29    4.90
  -3   0  -3   59.80    4.79
  -3   0  -3   72.29    6.86
   3   0   4   88.78    6.70
   3   0   4   70.85    5.53
   3   0   4   87.25    6.06
   3   0   4   83.49    6.87
  -3   0  -4   86.37    8.67
  -3   0  -4   82.32    6.61
   3   0   4   97.89    6.75
   3   0   4   90.09    6.65
  -3   0  -4   95.20    7.35
   3   0   4   85.18    6.46
   3   0   4   81.18    6.36
   3   0   5    0.19    1.75
   3   0   5    0.20    1.89
   3   0   5    0.75    1.43
  -3   0  -5    1.62    1.50
  -3   0  -5    1.68    3.06
   3   0   5    1.21    2.00
  -3   0  -5   -1.00    1.96
   3   0   5    2.08    1.71
  -3   0  -5    2.53    2.27
   3   0   5    0.23    1.51
   3   0   5    0.98    2.24
   3   0   5   -0.20    1.53
  -3   0  -5    0.81    2.61
   3   0   6  387.42   22.61
   3   0   6  370.82   22.38
  -3   0  -6  368.26   22.58
   3   0   6  404.13   23.25
  -3   0  -6  394.52   22.97
   3   0   6  378.91   20.72
   3   0   6  395.26   21.61
  -3   0  -6  377.28   25.12
  -3   0  -6  445.54   26.45
  -3   0  -7  301.96   17.99
   3   0   7  320.23   17.50
  -3   0  -7  299.49   19.03
   3   0   7  327.30   20.00
  -3   0  -7  310.61   19.25
   3   0   7  344.34   18.54
  -3   0  -7  379.65   23.71
  -3   0  -8  103.76    7.74
   3   0   8   88.33    5.92
  -3   0  -8   70.33    6.04
  -3   0  -8  103.69    8.01
   3   0   8   90.29    7.56
  -3   0  -8   74.01    6.72
   3   0   9    6.20    1.94
  -3   0  -9   10.04    2.41
  -3   0  -9    6.92    1.74
  -3   0  -9    7.35    2.08
  -3  -1  12    7.47    1.63
  -3  -1  12    5.17    1.64
  -3  -1  11   12.93    2.62
   3   1 -11   14.12    2.57
   3   1 -11   13.86    3.89
  -3  -1  11   11.26    2.72
  -3  -1  10    6.48    2.91
   3   1 -10   11.29    4.46
  -3  -1  10    8.64    2.96
  -3  -1   9   19.97    3.94
   3   1  -9   31.16    7.18
   3   1  -9   18.42    3.17
   3   1  -9   25.16    5.56
   3   1  -9   23.26    5.82
   3   1  -9   13.55    4.68
  -3  -1   9   16.77    3.65
  -3  -1   8  375.47   21.29
  -3  -1   8  379.33   21.70
   3   1  -8  353.90   20.53
   3   1  -8  374.46   24.11
  -3  -1   8  375.60   21.53
  -3  -1   8  364.49   21.22
  -3  -1   8  370.42   20.34
  -3  -1   7   70.54    6.06
  -3  -1   7   76.91    5.77
  -3  -1   7   78.98    6.56
  -3  -1   7   79.67    5.96
   3   1  -7   84.16    7.97
  -3  -1   7   73.66    5.74
  -3  -1   7   65.91    6.04
   3   1  -7   68.57    8.71
   3   1  -7   76.14    9.03
   3   1  -7   69.78    5.73
   3   1  -7   71.04    7.97
  -3  -1   7   82.11    6.63
  -3  -1   6   72.14    5.19
   3   1  -6   70.81    6.79
  -3  -1   6   50.61    4.40
  -3  -1   6   50.52    4.74
   3   1  -6   70.67    7.51
  -3  -1   6   48.73    4.49
   3   1  -6   57.01    4.59
   3   1  -6   53.64    6.25
  -3  -1   6   56.58    5.06
  -3  -1   6   64.92    5.08
   3   1  -5   75.25    7.47
  -3  -1   5   65.68    5.06
  -3  -1   5   74.62    5.38
   3   1  -5   85.07    7.20
   3   1  -5   70.73    6.29
   3   1  -5   63.01    4.76
   3   1  -5   65.31    5.44
   3   1  -5   66.79    6.34
  -3  -1   4   74.80    5.20
   3   1  -4   74.00    7.25
  -3  -1   4   75.99    5.45
   3   1  -4   76.21    6.73
   3   1  -4   65.98    5.35
  -3  -1   4   74.82    6.40
  -3  -1   4   70.92    5.52
  -3  -1   4   86.11    5.60
   3   1  -4   84.65    6.99
   3   1  -3  233.64   13.89
  -3  -1   3  228.13   13.62
   3   1  -3  232.24   14.17
   3   1  -3  260.94   14.52
  -3  -1   2  125.00    8.91
   3   1  -2  118.77    8.31
   3   1  -1  173.84    9.55
   3   1  -1  176.27   11.74
  -3  -1   1  150.36    9.86
  -3  -1   1  164.37   11.29
  -3  -1   0  377.34   20.08
  -3  -1   0  328.15   18.95
   3   1   0  308.17   16.97
   3   1   0  334.29   19.44
  -3  -1   0  327.36   19.18
   3   1   1  147.57    9.28
  -3  -1  -1  148.56    8.96
  -3  -1  -1  161.84   11.07
   3   1   1  139.16   10.07
  -3  -1  -1  144.01   10.84
  -3  -1  -1  140.79   10.45
  -3  -1  -1  141.26    9.91
   3   1   1  136.85    8.58
  -3  -1  -1  128.36    9.14
   3   1   1  136.01    8.52
  -3  -1  -2  145.49    9.02
   3   1   2  139.18   10.05
   3   1   2  146.38    8.82
  -3  -1  -2  168.47   11.70
  -3  -1  -2  138.95    9.86
   3   1   2  117.23    9.37
  -3  -1  -2  136.08   10.75
  -3  -1  -2  123.66    9.44
   3   1   3   72.84    5.67
   3   1   3   78.18    5.95
  -3  -1  -3   81.81    8.27
   3   1   3   65.18    5.65
  -3  -1  -3   71.82    5.79
   3   1   3   65.56    5.94
   3   1   3   60.07    4.91
  -3  -1  -3   73.44    6.79
   3   1   3   74.54    5.70
  -3  -1  -3   82.78    7.92
  -3  -1  -3   72.49    6.18
   3   1   4   12.48    2.57
  -3  -1  -4   12.15    4.36
   3   1   4    9.00    2.20
   3   1   4   12.71    2.82
  -3  -1  -4   12.18    2.88
   3   1   4   10.81    2.66
   3   1   4   13.37    4.00
   3   1   4   10.83    2.44
  -3  -1  -4   11.01    3.21
   3   1   5   16.54    3.36
   3   1   5   18.22    2.84
  -3  -1  -5   19.31    4.88
  -3  -1  -5   15.13    3.33
  -3  -1  -5   27.10    5.98
   3   1   5   15.31    3.30
  -3  -1  -5   17.70    3.77
   3   1   5   19.95    3.72
   3   1   5   14.55    4.55
   3   1   6  148.61   11.00
   3   1   6  148.04    9.56
   3   1   6  161.01   11.69
  -3  -1  -6  128.95   13.43
   3   1   6  172.88   11.15
  -3  -1  -6  148.98   11.30
  -3  -1  -6  156.60   11.50
  -3  -1  -6  132.24   13.07
  -3  -1  -6  178.86   14.84
   3   1   7    7.50    2.65
  -3  -1  -7    7.30    3.66
   3   1   7    8.42    2.68
  -3  -1  -7    4.63    2.27
  -3  -1  -7    7.34    2.44
  -3  -1  -8  257.21   15.65
   3   1   8  263.28   15.37
  -3  -1  -8  285.56   16.38
  -3  -2  12   96.70    6.69
  -3  -2  12   89.49    5.89
   3   2 -12   91.32    6.27
   3   2 -11   69.65    5.94
   3   2 -11   80.39    6.91
  -3  -2  11   74.22    6.75
  -3  -2  10   33.92    4.95
   3   2 -10   32.19    4.22
   3   2 -10   25.29    3.66
   3   2 -10   32.04    5.70
  -3  -2  10   36.74    4.37
  -3  -2  10   27.03    4.06
  -3  -2   9  156.13   10.32
  -3  -2   9  173.46   11.17
  -3  -2   9  165.42   11.72
   3   2  -9  175.38   11.31
   3   2  -9  148.84   14.46
   3   2  -9  139.17   10.31
   3   2  -9  181.97   11.87
   3   2  -9  163.24   14.83
  -3  -2   9  131.45   10.46
  -3  -2   9  155.43   11.19
  -3  -2   8  262.55   15.66
  -3  -2   8  250.77   14.77
   3   2  -8  285.96   18.78
   3   2  -8  278.71   15.93
   3   2  -8  265.39   19.27
   3   2  -8  253.17   15.33
   3   2  -8  278.90   16.18
  -3  -2   8  263.76   16.10
  -3  -2   8  213.44   15.06
  -3  -2   7   70.38    5.52
   3   2  -7   67.67    7.61
   3   2  -7   67.15    5.55
   3   2  -7   63.01    8.00
   3   2  -7   57.53    5.08
   3   2  -7   54.43    6.27
  -3  -2   7   42.81    4.74
  -3  -2   7   68.16    5.82
  -3  -2   7   54.10    4.77
  -3  -2   6  323.56   18.03
  -3  -2   6  287.57   17.15
   3   2  -6  316.75   19.83
   3   2  -6  378.01   21.42
   3   2  -6  323.52   18.05
  -3  -2   6  304.40   18.25
   3   2  -6  331.20   20.77
   3   2  -6  333.68   17.93
   3   2  -6  310.49   18.05
  -3  -2   6  357.84   18.61
  -3  -2   6  365.98   18.39
  -3  -2   5   34.25    3.40
   3   2  -5   42.74    5.50
  -3  -2   5   35.67    4.70
   3   2  -5   32.96    3.41
  -3  -2   5   39.21    3.91
   3   2  -5   31.00    5.30
   3   2  -5   35.80    4.86
   3   2  -5   35.49    3.39
   3   2  -5   30.54    4.30
  -3  -2   5   33.39    4.22
  -3  -2   5   42.74    3.82
   3   2  -5   35.09    5.68
  -3  -2   5   32.64    3.64
  -3  -2   4   82.71    5.44
   3   2  -4   77.40    5.42
   3   2  -4   81.33    7.48
   3   2  -4   76.89    6.91
  -3  -2   4   76.02    5.78
   3   2  -4   66.50    5.45
  -3  -2   4   79.70    5.87
  -3  -2   4   63.84    5.91
  -3  -2   4   94.90    5.87
   3   2  -4   76.94    5.67
  -3  -2   4   81.38    7.09
   3   2  -3  392.92   21.11
  -3  -2   3  417.21   21.56
   3   2  -3  377.67   21.53
   3   2  -3  422.46   23.92
   3   2  -3  404.52   20.83
   3   2  -3  375.84   20.75
  -3  -2   3  399.72   22.97
   3   2  -3  398.67   21.06
   3   2  -3  450.55   24.16
  -3  -2   2  109.86    7.14
  -3  -2   2  115.06    7.21
   3   2  -2  110.42    7.02
   3   2  -2  109.55    9.13
   3   2  -2   98.64    6.82
   3   2  -2  121.63    9.21
  -3  -2   2  111.13    8.98
  -3  -2   2   91.03    7.29
   3   2  -2  106.84    6.88
  -3  -2   1   57.73    4.85
  -3  -2   1   57.91    4.73
   3   2  -1   48.22    5.91
   3   2  -1   55.57    4.52
  -3  -2   1   47.26    4.98
   3   2  -1   61.87    6.26
  -3  -2   1   63.64    6.46
  -3  -2   1   63.49    6.23
  -3  -2   1   58.80    6.22
   3   2  -1   58.44    4.50
   3   2  -1   57.12    4.54
  -3  -2   0  834.54   42.66
   3   2   0  750.24   39.79
  -3  -2   0  829.63   40.80
   3   2   0  785.40   40.33
   3   2   0  786.64   42.97
   3   2   0  808.32   40.36
  -3  -2   0  807.66   43.24
   3   2   0  774.42   40.10
   3   2   1   20.01    4.03
  -3  -2  -1   23.38    3.30
   3   2   1   25.70    3.12
  -3  -2  -1   25.58    4.82
  -3  -2  -1   21.29    3.13
  -3  -2  -1   24.36    4.24
  -3  -2  -1   27.64    4.98
   3   2   1   25.75    3.15
   3   2   1   20.24    3.83
  -3  -2  -1   23.70    4.37
   3   2   2   42.26    4.44
  -3  -2  -2   57.93    5.17
   3   2   2   46.44    6.00
   3   2   2   50.85    4.75
  -3  -2  -2   64.23    7.56
   3   2   2   41.21    4.66
   3   2   2   48.28    4.44
  -3  -2  -2   51.91    6.99
   3   2   2   47.79    4.40
  -3  -2  -2   56.84    6.23
   3   2   2   57.85    4.94
   3   2   3   82.51    7.16
  -3  -2  -3  107.28    7.72
  -3  -2  -3  125.34   11.33
   3   2   3   81.80    7.43
   3   2   3  101.81    7.45
   3   2   3   84.88    6.86
   3   2   3   63.03    9.09
  -3  -2  -3  113.24   10.73
   3   2   3   92.85    6.96
  -3  -2  -3   90.27    8.80
   3   2   3  101.83    7.50
   3   2   4   54.36    5.94
   3   2   4   63.52    5.91
   3   2   4   67.97    6.66
  -3  -2  -4   75.13    9.36
   3   2   4   74.36    6.41
  -3  -2  -4   61.08    6.51
   3   2   4   51.35    8.25
   3   2   4   73.80    6.34
   3   2   4   73.12    5.95
  -3  -2  -4   45.63    7.48
  -3  -2  -4   69.95    8.98
  -3  -2  -5   47.68    7.71
  -3  -2  -5   40.91    7.14
   3   2   5   48.94    5.79
   3   2   5   42.75    5.30
   3   2   5   38.72    5.09
  -3  -2  -5   34.32    4.77
   3   2   5   40.62    4.80
  -3  -2  -5   35.69    5.26
   3   2   5   42.41    7.72
  -3  -2  -5   33.28    6.25
  -3  -2  -6  127.76   13.53
   3   2   6  167.22   11.27
   3   2   6  165.69   10.96
  -3  -2  -6  171.76   12.16
  -3  -2  -6  170.24   11.84
   3   2   7   87.33    6.81
  -3  -2  -7   99.49    7.28
  -3  -2  -7   90.78    7.23
  -3  -3  12    5.91    2.03
   3   3 -12    5.74    1.76
   3   3 -12    6.42    1.58
   3   3 -12    5.99    1.78
   3   3 -12    8.17    2.21
  -3  -3  11  141.96    9.01
   3   3 -11  130.99    9.35
   3   3 -11  162.22    9.99
  -3  -3  11  132.86   10.09
  -3  -3  10   75.29    6.20
   3   3 -10   95.29    7.19
   3   3 -10   91.01    7.59
   3   3 -10   61.48    5.99
  -3  -3  10   63.93    6.53
  -3  -3   9  542.50   30.15
   3   3  -9  556.83   34.58
   3   3  -9  635.30   31.88
   3   3  -9  633.38   35.96
   3   3  -9  548.84   30.95
   3   3  -9  582.39   35.12
  -3  -3   9  590.71   31.86
  -3  -3   8  227.55   14.23
  -3  -3   8  225.47   15.46
  -3  -3   8  265.12   15.13
   3   3  -8  266.28   18.78
   3   3  -8  280.20   15.86
   3   3  -8  241.97   18.65
   3   3  -8  248.92   15.21
   3   3  -8  270.00   18.69
  -3  -3   7   55.95    5.07
  -3  -3   7   45.37    4.35
  -3  -3   7   53.86    5.14
   3   3  -7   62.76    5.41
   3   3  -7   46.53    7.42
   3   3  -7   52.56    7.12
   3   3  -7   48.01    5.42
   3   3  -7   43.48    4.69
  -3  -3   7   50.31    5.08
  -3  -3   7   40.49    4.86
  -3  -3   6  541.08   27.23
  -3  -3   6  445.43   26.14
  -3  -3   6  487.58   27.36
   3   3  -6  615.32   31.74
  -3  -3   6  463.87   28.82
   3   3  -6  558.11   27.63
  -3  -3   6  532.25   27.59
   3   3  -6  510.52   29.78
   3   3  -6  494.30   27.29
  -3  -3   6  512.20   27.35
  -3  -3   6  529.61   28.90
  -3  -3   6  577.00   27.84
   3   3  -5   47.18    4.66
  -3  -3   5   50.84    4.83
  -3  -3   5   52.24    4.39
   3   3  -5   41.88    6.02
   3   3  -5   50.99    4.81
  -3  -3   5   55.03    4.98
   3   3  -5   55.43    5.03
   3   3  -5   59.21    4.74
  -3  -3   5   41.21    4.31
   3   3  -5   46.26    6.13
  -3  -3   5   50.74    5.68
  -3  -3   5   56.76    6.41
   3   3  -5   54.93    4.85
   3   3  -4   50.31    4.60
   3   3  -4   50.18    4.71
  -3  -3   4   49.23    4.01
   3   3  -4   44.25    6.18
  -3  -3   4   54.53    4.93
   3   3  -4   54.00    4.64
   3   3  -4   56.12    4.51
  -3  -3   4   46.58    5.98
  -3  -3   4   38.61    4.04
  -3  -3   4   46.89    5.35
   3   3  -4   52.88    4.64
   3   3  -4   55.00    6.50
  -3  -3   3  315.90   16.61
  -3  -3   3  291.81   16.54
  -3  -3   3  299.00   16.14
  -3  -3   3  284.08   18.12
   3   3  -3  289.91   18.73
   3   3  -3  257.74   15.64
  -3  -3   3  304.38   18.86
   3   3  -3  263.89   15.77
   3   3  -3  288.49   15.97
   3   3  -2   40.73    4.20
  -3  -3   2   43.21    4.16
   3   3  -2   37.99    3.81
   3   3  -2   35.80    5.57
  -3  -3   2   35.42    3.99
   3   3  -2   42.38    4.03
  -3  -3   2   48.26    6.11
   3   3  -2   40.48    5.54
  -3  -3   2   35.01    4.60
   3   3  -2   41.66    3.91
   3   3  -1   10.26    3.01
  -3  -3   1   10.65    3.49
   3   3  -1   12.26    2.39
  -3  -3   1   12.67    2.36
   3   3  -1    9.36    2.23
  -3  -3   1   10.36    2.48
   3   3  -1    9.15    2.07
  -3  -3   1    9.24    2.59
   3   3  -1    9.06    2.18
  -3  -3   1   12.19    3.64
   3   3  -1    7.43    3.16
  -3  -3   1   10.31    2.98
   3   3   0   59.03    4.95
   3   3   0   47.97    6.77
   3   3   0   51.26    6.58
   3   3   0   44.50    4.64
  -3  -3   0   56.10    5.28
   3   3   0   60.71    4.85
  -3  -3   0   58.23    6.75
   3   3   0   61.41    5.04
  -3  -3   0   52.27    6.24
  -3  -3  -1   35.54    4.32
  -3  -3  -1   26.79    3.90
   3   3   1   28.28    5.30
   3   3   1   40.08    4.15
  -3  -3  -1   49.41    7.33
  -3  -3  -1   28.02    4.99
  -3  -3  -1   36.49    6.22
   3   3   1   26.85    3.97
   3   3   1   42.59    4.26
  -3  -3  -2  236.30   15.41
   3   3   2  259.88   15.19
   3   3   2  250.69   15.18
  -3  -3  -2  278.38   20.14
  -3  -3  -2  231.52   18.72
  -3  -3  -2  251.88   18.60
  -3  -3  -3  124.73   12.81
   3   3   3  127.45    8.97
  -3  -3  -3  121.67    9.07
  -3  -3  -3  102.89    9.33
   3   3   3  114.10    8.25
  -3  -3  -3  120.23   12.11
   3   3   3  129.06    9.03
   3   3   4  138.23    9.82
  -3  -3  -4  143.20   10.54
  -3  -3  -4  112.32    9.09
   3   3   4  129.27    9.08
   3   3   4   98.20   12.60
  -3  -3  -4  140.53   13.14
  -3  -3  -4  109.54   12.50
   3   3   4  148.44    9.81
   3   3   5   12.65    3.05
   3   3   5   14.04    3.25
  -3  -3  -5    9.45    3.91
  -3  -3  -5   12.34    2.97
   3   3   5   15.85    2.90
  -3  -3  -5   17.97    3.67
   3   3   6   14.21    2.53
  -3  -3  -6   18.54    3.27
  -3  -3  -6   18.15    3.07
   3   3   7    3.08    1.13
   3   4 -12    1.27    1.27
   3   4 -12    0.11    0.99
   3   4 -11   61.67    5.59
   3   4 -11   69.05    5.82
  -3  -4  11   71.25    6.49
   3   4 -11   68.23    5.93
  -3  -4  10   36.93    4.13
   3   4 -10   30.62    4.24
   3   4 -10   33.14    4.28
  -3  -4  10   32.04    4.53
  -3  -4  10   29.81    4.42
   3   4 -10   35.98    4.59
  -3  -4   9  510.60   26.57
  -3  -4   9  441.63   25.07
  -3  -4   9  418.12   26.40
  -3  -4   9  461.24   25.67
   3   4  -9  513.11   26.84
   3   4  -9  529.89   26.98
  -3  -4   8  166.06   10.86
  -3  -4   8  155.06    9.88
   3   4  -8  151.04   14.07
  -3  -4   8  175.21   11.03
   3   4  -8  174.66   11.30
   3   4  -8  135.90   10.59
  -3  -4   8  136.04   10.68
  -3  -4   8  156.79   11.06
   3   4  -8  161.06   11.22
  -3  -4   7   52.76    5.10
  -3  -4   7   47.41    4.58
   3   4  -7   54.88    5.47
  -3  -4   7   46.59    5.17
   3   4  -7   58.64    8.11
  -3  -4   7   57.25    5.70
   3   4  -7   57.57    5.58
  -3  -4   7   65.57    5.84
  -3  -4   7   47.43    6.77
   3   4  -7   61.35    5.88
  -3  -4   6   22.33    3.28
  -3  -4   6   22.66    3.86
  -3  -4   6   21.17    3.41
   3   4  -6   19.14    3.23
   3   4  -6   25.48    3.65
  -3  -4   6   20.04    4.48
  -3  -4   6   17.92    4.32
   3   4  -6   23.85    3.65
  -3  -4   6   23.53    3.07
   3   4  -5  202.32   12.82
  -3  -4   5  213.27   13.56
  -3  -4   5  202.34   12.26
   3   4  -5  201.54   16.01
  -3  -4   5  233.11   15.74
  -3  -4   5  231.86   15.06
   3   4  -5  221.00   13.08
  -3  -4   4  105.30    8.09
   3   4  -4  127.45    8.39
   3   4  -4  119.90    8.19
  -3  -4   4  138.19    9.23
   3   4  -4  111.02   10.73
  -3  -4   4  120.98   10.62
  -3  -4   3  146.77    9.38
   3   4  -3  119.12    8.31
  -3  -4   3  125.61    9.19
  -3  -4   3  125.89    8.78
   3   4  -3  108.15   10.65
  -3  -4   3  139.21   11.76
   3   4  -3  120.21    8.40
  -3  -4   2   90.32    6.54
   3   4  -2   78.48    9.37
   3   4  -2   65.02    5.37
   3   4  -2   65.34    5.52
  -3  -4   2   69.85    6.04
  -3  -4   2   72.10    8.11
  -3  -4   2   66.90    8.22
  -3  -4   2   58.96    6.88
   3   4  -2   74.44    5.87
   3   4  -2   56.94    7.14
   3   4  -1  141.23   13.13
  -3  -4   1  145.88    9.58
   3   4  -1  127.16    8.98
  -3  -4   1  129.40    9.93
   3   4  -1  163.30    9.73
  -3  -4   1  151.27   10.14
  -3  -4   1  119.24   10.88
  -3  -4   1  137.29   12.71
  -3  -4   1  145.20   12.08
   3   4  -1  140.91    9.28
   3   4   0  128.91   12.50
   3   4   0  142.63    9.17
  -3  -4   0  116.39    9.41
  -3  -4   0  135.87   11.75
   3   4   0  143.03    9.27
  -3  -4   0  105.13   10.66
   3   4   1   55.26    8.25
   3   4   1   86.27    6.52
  -3  -4  -1   67.05    6.57
  -3  -4  -1   69.08    6.71
   3   4   1   82.35    6.61
  -3  -4  -1   82.53    8.89
   3   4   1   51.98    8.54
  -3  -4  -1   73.41    9.66
   3   4   1   67.66    6.84
   3   4   2  104.78    7.83
  -3  -4  -2   87.19    9.80
  -3  -4  -2  101.64    8.39
  -3  -4  -2  109.09   11.57
   3   4   2   91.93    8.17
   3   4   2  112.84    8.08
  -3  -4  -3   70.51    6.70
   3   4   3   77.13    6.57
   3   4   3   70.30    6.88
  -3  -4  -3   74.11    7.35
  -3  -4  -3   70.84    8.73
   3   4   3   81.68    6.72
   3   4   4   46.83    5.65
   3   4   4   36.55    4.65
  -3  -4  -4   41.29    5.00
   3   4   4   44.82    4.63
   3   4   5   41.85    4.39
   3   4   5   31.56    3.66
  -3  -4  -5   30.19    3.62
  -3  -4  -5   36.94    4.21
  -3  -4  -5   32.00    3.97
  -3  -5  12   22.34    2.40
  -3  -5  11   12.83    2.47
  -3  -5  11   11.27    2.63
   3   5 -11   11.81    2.86
  -3  -5  11   11.67    2.49
   3   5 -11   12.21    2.35
  -3  -5  10    6.95    2.41
  -3  -5  10    6.69    2.44
   3   5 -10    4.30    2.15
   3   5 -10    6.28    3.01
   3   5 -10    4.48    2.18
  -3  -5  10    4.59    2.28
  -3  -5   9   53.33    4.82
  -3  -5   9   48.99    5.24
   3   5  -9   47.11    5.09
  -3  -5   9   46.31    5.02
  -3  -5   9   39.12    5.08
   3   5  -9   67.38    6.21
   3   5  -9   57.68    5.61
  -3  -5   9   56.73    5.65
   3   5  -9   61.24    5.71
  -3  -5   8  134.32    9.50
   3   5  -8  142.27    9.70
   3   5  -8  158.51   10.35
  -3  -5   8  135.77    8.86
   3   5  -8  154.56   10.44
  -3  -5   8  110.01    9.37
  -3  -5   8  143.86   10.09
   3   5  -8  139.90    9.88
  -3  -5   8  142.71   10.03
   3   5  -8  108.74   12.32
  -3  -5   7  127.44    9.45
  -3  -5   7  134.06    8.99
   3   5  -7  153.06   10.09
   3   5  -7  152.88   10.64
   3   5  -7  142.46   11.58
  -3  -5   7  147.90   12.22
  -3  -5   7  151.65   10.28
  -3  -5   7  165.57   10.88
   3   5  -7  170.09   10.61
   3   5  -7  119.71   12.84
  -3  -5   6   37.79    4.01
   3   5  -6   37.07    6.52
  -3  -5   6   54.22    5.73
  -3  -5   6   36.58    6.29
   3   5  -6   47.12    7.58
   3   5  -6   46.73    4.83
   3   5  -6   43.51    5.32
   3   5  -6   57.87    5.22
  -3  -5   6   39.91    5.01
  -3  -5   6   39.43    4.38
  -3  -5   6   42.81    6.62
  -3  -5   5   64.25    6.28
  -3  -5   5   49.00    4.70
   3   5  -5   54.63    8.56
   3   5  -5   71.68    5.76
   3   5  -5   39.33    6.75
   3   5  -5   60.34    5.38
   3   5  -5   60.38    5.84
  -3  -5   5   74.65    8.61
  -3  -5   5   48.16    7.10
   3   5  -4   11.79    3.72
  -3  -5   4   17.72    4.66
  -3  -5   4   17.25    3.07
  -3  -5   4   13.49    2.57
   3   5  -4   12.34    4.82
  -3  -5   4   22.20    3.97
   3   5  -4   14.45    2.89
  -3  -5   4   15.25    3.70
   3   5  -4   21.29    3.75
   3   5  -4   21.25    3.22
   3   5  -3  164.74   10.44
  -3  -5   3  164.07   11.70
  -3  -5   3  185.75   11.68
   3   5  -3  150.45   10.13
  -3  -5   3  146.04   10.81
  -3  -5   3  160.58   14.36
   3   5  -3  138.92   12.80
   3   5  -3  170.93   10.65
  -3  -5   2  169.49   11.81
   3   5  -2  170.09   15.83
  -3  -5   2  181.79   11.83
   3   5  -2  176.89   11.07
   3   5  -2  176.11   11.03
  -3  -5   2  167.01   15.03
  -3  -5   2  175.46   14.46
  -3  -5   2  158.02   13.19
   3   5  -2  168.89   11.09
  -3  -5   1  171.92   12.30
   3   5  -1  140.28   15.05
   3   5  -1  200.39   11.73
   3   5  -1  192.97   11.70
  -3  -5   1  172.91   12.50
  -3  -5   1  186.27   14.97
   3   5  -1  140.49   14.65
  -3  -5   1  197.59   16.38
  -3  -5   1  186.58   14.30
   3   5  -1  170.18   12.79
   3   5  -1  193.47   11.80
   3   5   0   68.20    5.78
  -3  -5   0   55.22    6.18
   3   5   0   75.60    6.03
   3   5   0   45.32    7.97
   3   5   0   60.84    6.60
  -3  -5   0   57.23    7.68
  -3  -5  -1   10.55    3.04
   3   5   1   11.40    2.76
  -3  -5  -1    9.82    2.85
   3   5   1   15.67    3.53
  -3  -5  -1   10.98    3.86
   3   5   1   13.72    2.96
  -3  -5  -2  111.13    8.77
   3   5   2  119.06    8.16
  -3  -5  -2  107.55   10.60
   3   5   2  119.01    8.31
  -3  -5  -3    9.95    2.39
   3   5   3   12.09    3.04
  -3  -5  -3   14.77    3.08
   3   5   3    7.50    2.09
  -3  -5  -3   13.29    2.83
  -3  -5  -4    2.94    1.61
   3   5   4    2.92    1.77
  -3  -5  -4    2.39    1.58
  -3  -6  11   13.03    2.11
   3   6 -11   14.92    2.57
  -3  -6  10   33.02    3.32
   3   6 -10   34.53    4.18
  -3  -6  10   27.94    3.61
   3   6 -10   31.44    3.46
  -3  -6   9   79.41    5.76
  -3  -6   9   70.58    6.12
  -3  -6   9   77.00    6.45
   3   6  -9   86.44    6.48
  -3  -6   9   73.54    6.49
  -3  -6   8  115.72    9.14
  -3  -6   8  144.42    8.94
  -3  -6   8  165.05   10.58
   3   6  -8  145.85   11.18
   3   6  -8  174.68   10.65
  -3  -6   8  138.39    9.92
   3   6  -8  164.76   10.11
  -3  -6   7  224.10   13.30
  -3  -6   7  159.84   12.11
   3   6  -7  181.65   14.03
   3   6  -7  213.89   12.70
  -3  -6   7  173.01   11.91
   3   6  -7  219.35   12.54
  -3  -6   6  128.00    8.91
   3   6  -6  101.18    9.67
   3   6  -6   83.74   10.69
  -3  -6   6   81.38    6.65
  -3  -6   6   97.85    8.22
   3   6  -6  108.23    8.07
   3   6  -6   75.11    9.71
   3   6  -6  115.00    7.73
  -3  -6   6   87.74    9.58
  -3  -6   6   90.11   10.16
  -3  -6   5   38.63    4.41
   3   6  -5   50.38    8.33
  -3  -6   5   61.47    6.30
   3   6  -5   68.25    6.09
   3   6  -5   38.46    6.54
  -3  -6   5   40.92    6.75
  -3  -6   5   56.43    7.86
   3   6  -5   60.27    5.24
  -3  -6   4  147.26   11.20
  -3  -6   4  147.16   10.49
   3   6  -4  148.93   15.04
  -3  -6   4  131.55    9.44
   3   6  -4  162.36   13.05
   3   6  -4  158.61   10.08
  -3  -6   4  123.11   12.28
   3   6  -4  172.96   10.28
  -3  -6   3  255.89   15.94
   3   6  -3  230.11   16.83
  -3  -6   3  258.13   18.57
  -3  -6   3  228.73   14.87
   3   6  -3  275.03   14.54
   3   6  -2   78.92   11.06
   3   6  -2  106.54    9.71
  -3  -6   2  100.48    8.67
  -3  -6   2   98.65    8.36
   3   6  -2  102.45    8.99
   3   6  -2  103.64    7.53
   3   6  -1  193.52   13.89
  -3  -6   1  188.42   13.20
  -3  -6   1  176.33   12.86
  -3  -6   1  190.37   13.08
   3   6  -1  226.47   12.44
  -3  -6   1  191.08   14.84
   3   6  -1  193.35   13.58
  -3  -6   0   85.49    7.48
  -3  -6   0   90.77    7.85
  -3  -6   0   76.54    8.74
   3   6   0   99.53    8.19
   3   6   0  107.03    7.12
  -3  -6  -1   46.04    5.02
  -3  -6  -1   52.34    5.38
  -3  -6  -1   43.02    4.59
   3   6   1   59.31    4.72
  -3  -6  -2    7.73    2.09
  -3  -6  -2    6.47    1.89
   3   6   2   10.85    2.65
   3   6   3    7.44    1.85
   3   7 -10    1.50    1.76
  -3  -7  10    2.66    1.29
  -3  -7   9   36.62    3.88
  -3  -7   9   27.26    3.28
  -3  -7   8   15.38    3.04
   3   7  -8   18.18    3.38
   3   7  -8   14.06    3.15
   3   7  -7  189.21   13.39
  -3  -7   7  206.26   12.14
   3   7  -7  194.77   11.01
  -3  -7   6   99.24    7.98
   3   7  -6  106.10    9.56
   3   7  -6  119.15    7.34
  -3  -7   5    9.19    2.95
  -3  -7   5    6.03    1.85
  -3  -7   5    6.56    2.80
   3   7  -5    6.01    2.02
  -3  -7   4   52.85    4.80
   3   7  -4   66.97    7.47
  -3  -7   4   62.80    6.29
  -3  -7   4   65.88    5.96
  -3  -7   4   51.63    5.39
   3   7  -4   73.50    5.39
  -3  -7   3    5.02    2.23
  -3  -7   3    6.76    2.40
  -3  -7   3    6.08    1.93
   3   7  -3    5.76    1.87
   3   7  -3    9.39    3.09
   3   7  -3    4.27    2.49
  -3  -7   2   13.00    2.89
  -3  -7   2   11.97    2.44
   3   7  -2   18.72    3.68
  -3  -7   2   16.32    2.92
  -3  -7   2   16.83    3.31
   3   7  -2   16.17    3.33
  -3  -7   1   28.77    3.81
  -3  -7   1   32.00    3.83
   3   7  -1   31.14    4.35
  -3  -7   1   25.85    3.60
   3   7  -1   36.80    4.31
  -3  -7   0   61.61    5.29
  -3  -7   0   70.65    5.74
   3   7   1    0.49    1.22
  -3  -8   8   36.90    3.57
   3   8  -8   35.85    3.39
  -3  -8   7  141.06    9.19
   3   8  -7  155.36    9.68
  -3  -8   6    6.74    2.21
  -3  -8   6    7.44    2.07
   3   8  -6    7.88    2.23
  -3  -8   5    8.74    2.17
  -3  -8   5    7.63    1.53
  -3  -8   5    9.61    2.33
   3   8  -5    7.63    2.66
   3   8  -5    8.52    2.47
   3   8  -4    0.25    1.88
  -3  -8   4   -0.12    1.56
  -3  -8   4    0.27    0.94
  -3  -8   4   -0.34    1.64
  -3  -8   3    1.71    0.93
   3   8  -3    2.00    1.65
  -3  -8   2    0.92    0.79
   3   8  -2    0.44    1.27
  -4  11  -2    5.40    1.58
  -4  11  -2    6.12    1.52
  -4  11  -3   12.58    2.07
  -4  11  -3    7.78    1.67
  -4  11  -3   15.30    2.50
  -4  11  -4    4.78    1.86
  -4  11  -4    2.76    1.32
   4 -11   4    3.87    1.35
   4 -11   5    9.21    1.67
  -4  11  -5   12.00    2.36
  -4  11  -6   58.62    4.86
  -4  10   1   25.40    3.10
   4 -10   0    2.34    1.94
  -4  10   0    3.40    1.46
  -4  10  -1    2.63    1.73
  -4  10  -1    4.82    2.11
  -4  10  -1    5.10    2.22
   4 -10   1    5.57    2.66
  -4  10  -1    2.85    1.61
   4 -10   2    9.78    2.90
   4 -10   2    9.33    1.77
  -4  10  -2    8.92    2.58
   4 -10   2   11.08    3.27
  -4  10  -2   10.58    2.87
  -4  10  -3   12.87    3.21
   4 -10   3   15.43    2.22
   4 -10   3   11.61    3.13
  -4  10  -3   13.85    2.91
  -4  10  -3   12.85    2.82
   4 -10   4   25.31    2.92
   4 -10   4   20.70    3.65
  -4  10  -4   20.43    3.16
  -4  10  -4   25.00    3.73
   4 -10   5   10.75    2.24
   4 -10   5   10.66    1.99
   4 -10   5   11.53    2.75
  -4  10  -5   12.12    3.25
  -4  10  -5   12.90    2.92
   4 -10   6   -0.93    1.53
  -4  10  -6    0.24    1.94
   4 -10   6    0.23    1.17
   4 -10   6    0.31    1.52
  -4  10  -6    0.23    1.59
  -4  10  -6    1.57    1.70
   4 -10   7   48.53    4.79
  -4  10  -7   63.65    5.52
   4 -10   7   69.48    4.60
  -4  10  -7   60.11    4.79
  -4  10  -7   67.58    5.78
  -4  10  -7   65.13    5.60
   4 -10   8    4.25    1.13
  -4  10  -8    4.89    1.60
  -4  10  -8    2.52    1.43
   4 -10   8    4.30    1.52
  -4  10  -8    4.17    1.49
  -4   9   3   79.82    5.92
  -4   9   3   82.84    6.34
  -4   9   2   64.88    5.62
  -4   9   2   58.50    5.38
  -4   9   1   13.47    2.44
   4  -9  -1   15.58    3.22
  -4   9   1   12.01    3.07
  -4   9   1   16.38    3.07
  -4   9   1   16.06    3.17
  -4   9   0   11.18    2.75
   4  -9   0   13.83    4.48
  -4   9   0   20.67    3.59
   4  -9   0   16.40    3.64
  -4   9   0   21.30    3.60
   4  -9   1    8.07    2.99
   4  -9   1    3.81    3.39
  -4   9  -1    6.85    2.82
   4  -9   1    6.72    1.87
  -4   9  -1    8.75    3.00
   4  -9   1    8.23    3.63
  -4   9  -1    6.57    2.51
   4  -9   1    4.58    2.91
  -4   9  -1    6.27    2.35
   4  -9   2   23.25    5.42
  -4   9  -2   30.10    4.73
   4  -9   2   28.62    3.39
  -4   9  -2   34.09    4.49
   4  -9   2   27.71    4.34
  -4   9  -2   28.75    4.30
   4  -9   2   18.70    4.93
  -4   9  -2   22.92    4.04
   4  -9   3   48.88    7.60
   4  -9   3   54.63    5.65
   4  -9   3   54.55    4.76
  -4   9  -3   56.55    6.59
   4  -9   3   54.82    5.38
  -4   9  -3   49.30    5.80
  -4   9  -3   51.54    5.92
  -4   9  -4   53.83    6.50
   4  -9   4   43.87    5.68
   4  -9   4   59.83    4.98
   4  -9   4   59.26    5.84
   4  -9   4   65.36    6.59
  -4   9  -4   50.07    5.98
   4  -9   4   64.97    6.04
  -4   9  -4   54.34    6.19
  -4   9  -5   87.41    6.61
   4  -9   5   89.45    6.43
  -4   9  -5   85.24    8.11
   4  -9   5  100.61    7.80
  -4   9  -5   82.51    7.84
   4  -9   6   47.16    4.42
   4  -9   6   41.27    4.70
  -4   9  -6   31.50    6.53
  -4   9  -6   46.03    5.61
  -4   9  -6   53.14    5.97
  -4   9  -6   51.70    5.01
  -4   9  -6   55.79    6.02
  -4   9  -7  118.93    9.18
   4  -9   7  112.40    8.72
   4  -9   7  131.95    8.16
  -4   9  -7  127.55    8.56
  -4   9  -7  133.80    9.88
  -4   9  -7  139.48    9.88
   4  -9   7  101.18    8.08
   4  -9   8    6.15    1.71
  -4   9  -8   10.09    2.58
  -4   9  -8    6.65    2.34
  -4   9  -8    6.13    2.20
   4  -9   9   75.42    6.04
   4  -9   9   73.72    5.36
   4  -9   9   88.61    5.52
  -4   9  -9   95.06    6.16
  -4   9  -9   97.53    6.91
  -4   9  -9   87.22    6.41
  -4   8   5   10.95    2.32
  -4   8   4   53.22    5.09
  -4   8   4   60.11    5.84
  -4   8   3    0.29    1.59
  -4   8   3   -1.70    2.03
  -4   8   3   -0.24    2.09
  -4   8   3   -0.54    2.14
  -4   8   2   28.54    4.58
  -4   8   2   35.59    4.90
   4  -8  -2   29.63    5.98
   4  -8  -2   36.10    4.53
  -4   8   2   27.14    3.72
  -4   8   2   33.36    4.84
   4  -8  -2   26.05    5.85
   4  -8  -1   92.51   11.17
   4  -8  -1   86.19   11.15
  -4   8   1  103.33    8.95
  -4   8   1  108.65    7.97
   4  -8  -1  115.12    8.52
   4  -8  -1  118.98    8.35
  -4   8   1   98.16    8.52
  -4   8   1  106.89    8.93
  -4   8   0   15.64    3.58
   4  -8   0   17.90    5.19
  -4   8   0   19.06    3.50
  -4   8   0   14.40    3.61
   4  -8   0   15.63    5.06
   4  -8   0   15.89    5.34
   4  -8   0   18.58    5.36
   4  -8   0   18.98    4.44
  -4   8   0   14.28    3.25
   4  -8   0   20.06    4.02
  -4   8   0   18.20    3.48
   4  -8   1  324.42   17.88
  -4   8  -1  341.94   20.47
  -4   8  -1  314.14   19.59
   4  -8   1  368.53   19.45
   4  -8   1  265.13   23.31
  -4   8  -1  323.03   19.81
   4  -8   1  290.83   23.07
   4  -8   1  300.04   22.90
  -4   8  -1  314.11   19.16
   4  -8   2  117.70    8.00
   4  -8   2   96.08   11.61
  -4   8  -2  121.14   10.07
   4  -8   2  130.96    8.78
  -4   8  -2  128.66    9.78
   4  -8   2  129.25    9.04
   4  -8   2  108.75   12.86
  -4   8  -2  119.96    9.67
   4  -8   2  101.91   10.29
   4  -8   2  105.78   11.69
   4  -8   3  103.64   11.86
   4  -8   3   91.04   11.25
   4  -8   3  120.89    8.09
   4  -8   3  118.86    8.89
   4  -8   3  106.36   12.83
  -4   8  -3  121.55    8.30
   4  -8   3  123.97    8.27
   4  -8   3  120.98    9.32
  -4   8  -3  110.26    9.35
   4  -8   3  112.32    8.71
   4  -8   3  136.76    9.62
  -4   8  -3  112.18    9.58
   4  -8   3  109.32   10.39
   4  -8   4  128.87    9.41
   4  -8   4  126.51    8.49
   4  -8   4   98.93   12.75
  -4   8  -4   92.37   11.92
  -4   8  -4  135.85    8.97
   4  -8   4  138.20    9.70
  -4   8  -4  127.25   10.19
   4  -8   4  112.59   11.51
  -4   8  -4  129.22   10.32
   4  -8   4  102.91   10.36
  -4   8  -4  131.84   10.59
  -4   8  -5   88.99    8.53
   4  -8   5   94.29    6.88
  -4   8  -5   75.85   10.20
  -4   8  -5   98.74    7.43
   4  -8   5   82.16   11.07
   4  -8   5  102.95    8.23
  -4   8  -5   93.92    8.64
   4  -8   5   79.03    9.74
  -4   8  -5   83.12    9.49
   4  -8   5   71.87    8.68
   4  -8   5  104.62    8.39
   4  -8   6  195.18   11.37
  -4   8  -6  118.43   14.13
  -4   8  -6  194.00   11.90
   4  -8   6  172.82   11.99
  -4   8  -6  207.17   13.80
  -4   8  -6  188.22   13.11
  -4   8  -6  174.19   14.51
   4  -8   6  142.95   13.10
   4  -8   7    6.51    2.05
   4  -8   7    8.11    2.58
  -4   8  -7    5.60    2.79
  -4   8  -7    4.89    3.09
  -4   8  -7    7.71    3.08
   4  -8   8   79.39    5.88
   4  -8   8   68.32    6.57
  -4   8  -8   76.02    6.44
  -4   8  -8   81.29    7.51
   4  -8   9   16.75    2.95
   4  -8   9   13.11    2.54
   4  -8   9   21.07    2.59
  -4   8  -9   18.54    3.35
   4  -8  10   14.08    2.22
  -4   8 -10   20.78    2.59
   4  -8  10   15.35    1.97
  -4   7   6   13.74    2.72
  -4   7   5   13.12    2.89
  -4   7   4   33.08    4.90
   4  -7  -4   20.82    5.17
  -4   7   4   33.34    4.63
  -4   7   4   28.62    4.32
  -4   7   4   26.73    3.62
   4  -7  -3   32.12    6.49
  -4   7   3   41.95    5.41
  -4   7   3   50.87    5.80
   4  -7  -3   34.09    6.54
   4  -7  -3   22.14    5.44
  -4   7   3   35.49    4.30
  -4   7   3   41.51    5.58
  -4   7   3   43.03    5.63
  -4   7   2  165.49   12.23
   4  -7  -2  158.00   14.91
  -4   7   2  172.34   12.48
   4  -7  -2  146.11   14.68
  -4   7   2  161.49   12.42
  -4   7   2  181.49   11.40
   4  -7  -2  182.61   11.33
  -4   7   2  163.41   12.34
  -4   7   1  153.19   11.49
   4  -7  -1  120.38   13.28
   4  -7  -1  181.30   15.00
   4  -7  -1  149.18   14.23
   4  -7  -1  164.27   14.73
  -4   7   1  154.47   11.03
   4  -7  -1  168.91   10.77
  -4   7   1  160.34   11.44
  -4   7   1  141.02   11.05
   4  -7   0  231.50   17.78
  -4   7   0  232.76   14.81
   4  -7   0  212.04   17.87
   4  -7   0  212.39   17.64
  -4   7   0  221.42   14.43
  -4   7   0  207.13   14.10
  -4   7   0  190.93   13.85
   4  -7   0  239.30   14.03
  -4   7   0  220.14   14.42
  -4   7   0  221.44   14.69
  -4   7   0  209.66   14.09
   4  -7   1   76.56    9.27
   4  -7   1   81.49    9.93
  -4   7  -1   77.28    7.14
  -4   7  -1   89.30    7.52
   4  -7   1   50.66    8.19
   4  -7   1   75.16    9.50
  -4   7  -1   59.72    5.97
   4  -7   1   83.04    6.09
  -4   7  -1   78.87    6.90
  -4   7  -1   66.81    6.64
   4  -7   2  126.62    9.10
  -4   7  -2  126.58   10.00
  -4   7  -2  137.03   10.34
   4  -7   2  123.84    8.28
   4  -7   2  125.06    8.70
   4  -7   2  129.25   12.43
  -4   7  -2  140.17    9.91
   4  -7   2  108.31   12.01
  -4   7  -2  139.06    9.95
   4  -7   2  125.56   11.11
  -4   7  -2  157.81    9.10
   4  -7   2  133.06    9.58
  -4   7  -2  119.78    9.71
   4  -7   2  119.82   10.52
   4  -7   3  362.65   24.82
   4  -7   3  360.69   20.45
  -4   7  -3  335.03   21.50
   4  -7   3  350.46   25.45
   4  -7   3  332.05   19.54
   4  -7   3  347.29   25.11
  -4   7  -3  327.11   24.40
  -4   7  -3  377.25   20.28
   4  -7   3  380.46   20.25
   4  -7   3  360.27   20.56
  -4   7  -3  376.11   21.30
  -4   7  -3  339.68   21.39
   4  -7   3  387.41   23.97
  -4   7  -3  406.26   23.30
   4  -7   3  386.30   20.97
   4  -7   3  367.53   22.26
  -4   7  -3  394.86   22.22
   4  -7   4   53.03    5.92
  -4   7  -4   47.79    5.82
  -4   7  -4   52.95    5.87
   4  -7   4   50.10    4.54
   4  -7   4   46.39    7.92
  -4   7  -4   63.21    5.46
   4  -7   4   55.55    5.39
   4  -7   4   58.97    5.95
  -4   7  -4   57.84    5.66
   4  -7   4   54.46    5.83
  -4   7  -4   52.07    5.90
   4  -7   4   55.62    7.68
  -4   7  -4   57.16    7.51
   4  -7   4   59.37    5.99
   4  -7   4   43.84    6.13
  -4   7  -4   49.19    7.65
   4  -7   5  130.78    9.43
   4  -7   5  118.14    8.23
   4  -7   5  105.07   12.11
  -4   7  -5  105.21   11.73
  -4   7  -5  121.12    9.86
   4  -7   5  142.76    9.48
  -4   7  -5  118.23    9.00
  -4   7  -5  131.09   10.38
   4  -7   5  132.41   12.56
  -4   7  -5  117.24   11.07
   4  -7   5  130.72   10.85
  -4   7  -5  117.01    8.72
   4  -7   6  523.68   26.56
   4  -7   6  502.20   25.51
   4  -7   6  470.39   26.40
  -4   7  -6  447.61   26.89
  -4   7  -6  427.81   25.75
  -4   7  -6  510.80   28.34
  -4   7  -6  485.88   29.29
  -4   7  -6  387.95   29.22
   4  -7   7   85.44    6.35
   4  -7   7   68.97    6.44
  -4   7  -7   79.14    8.07
   4  -7   7   77.68    9.98
  -4   7  -7   72.05    8.92
   4  -7   8   61.44    5.88
   4  -7   8   67.37    5.49
  -4   7  -8   78.07    6.49
   4  -7   8   59.79    6.14
   4  -7   9    3.78    2.19
  -4   7  -9    1.69    2.01
   4  -7   9    4.79    1.85
  -4   7  -9    4.50    2.43
  -4   7  -9    4.25    2.52
   4  -7  10    2.79    1.23
  -4   7 -10    2.98    1.79
  -4   7 -10    3.10    1.80
  -4   6   7  129.14    9.29
  -4   6   6   20.06    3.86
  -4   6   6   11.09    2.83
  -4   6   6   18.32    3.19
  -4   6   5   10.62    2.57
  -4   6   5    8.65    3.19
   4  -6  -5    4.77    3.03
  -4   6   5    7.14    3.25
  -4   6   5   10.74    3.01
  -4   6   4  136.88    9.03
  -4   6   4  124.37    9.86
   4  -6  -4  113.25   11.77
  -4   6   4  117.30    9.60
  -4   6   3    6.30    2.57
  -4   6   3    2.25    2.46
  -4   6   3    6.98    3.09
  -4   6   3    6.74    2.79
   4  -6  -3    6.16    3.20
   4  -6  -3    8.78    3.42
  -4   6   3    5.34    3.11
  -4   6   3    6.81    2.84
   4  -6  -2  120.45   12.34
  -4   6   2  140.81   11.02
  -4   6   2  151.98   10.96
   4  -6  -2  183.76   14.28
  -4   6   2  161.73   11.25
   4  -6  -2  142.15   13.28
  -4   6   2  115.31   12.58
  -4   6   2  176.63   10.55
  -4   6   2  147.52   10.98
   4  -6  -1   86.01    9.46
  -4   6   1   80.79    6.80
  -4   6   1   78.58    6.84
   4  -6  -1   94.45    9.50
  -4   6   1   95.43    7.55
  -4   6   1   74.24    6.93
   4  -6  -1   76.88    8.99
  -4   6   1   72.52    6.46
  -4   6   1   83.98    6.95
  -4   6   1   68.20    6.67
  -4   6   1   80.27    6.97
  -4   6   0  663.98   30.08
   4  -6   0  605.58   32.99
   4  -6   0  536.57   32.59
  -4   6   0  501.26   29.06
   4  -6   0  610.26   33.61
   4  -6   0  530.15   29.83
  -4   6   0  578.57   29.22
  -4   6   0  488.60   28.54
  -4   6   0  524.20   28.94
  -4   6   0  495.10   28.46
   4  -6   0  518.12   32.40
  -4   6   0  473.23   28.64
  -4   6  -1  572.18   29.04
   4  -6   1  530.27   31.86
  -4   6  -1  471.67   28.34
   4  -6   1  469.91   31.27
  -4   6  -1  562.18   27.37
   4  -6   1  554.83   31.99
   4  -6   1  514.68   27.25
  -4   6  -1  551.77   28.37
   4  -6   1  481.56   29.53
  -4   6  -1  480.40   27.99
   4  -6   2  164.92   13.73
   4  -6   2  151.58   13.67
  -4   6  -2  186.14   14.28
  -4   6  -2  181.31   10.56
   4  -6   2  181.31   10.66
  -4   6  -2  186.94   11.39
   4  -6   2  170.04   13.04
  -4   6  -2  151.68   11.07
  -4   6  -2  171.43   12.56
   4  -6   2  160.58   10.78
   4  -6   2  152.94   11.38
  -4   6  -3   29.60    3.95
   4  -6   3   18.97    4.99
  -4   6  -3   17.49    3.36
   4  -6   3   18.77    2.43
   4  -6   3   21.73    3.48
   4  -6   3   21.52    4.94
  -4   6  -3   20.10    3.01
  -4   6  -3   19.85    4.58
   4  -6   3   21.85    2.75
   4  -6   3   23.50    3.76
  -4   6  -3   24.10    3.38
  -4   6  -3   16.12    3.13
   4  -6   3   22.57    4.78
  -4   6  -3   21.48    4.87
   4  -6   3   25.67    3.78
   4  -6   3   15.73    3.70
   4  -6   4  229.64   17.53
   4  -6   4  209.37   12.75
  -4   6  -4  216.42   13.38
   4  -6   4  243.56   13.89
   4  -6   4  227.71   13.36
   4  -6   4  243.42   13.72
  -4   6  -4  247.66   14.41
   4  -6   4  214.86   13.58
   4  -6   4  244.11   17.24
  -4   6  -4  239.64   17.18
  -4   6  -4  215.91   15.64
   4  -6   4  226.79   13.71
   4  -6   4  236.66   15.21
  -4   6  -4  208.27   14.20
  -4   6  -4  226.49   14.59
   4  -6   5  304.12   17.60
   4  -6   5  327.20   17.54
  -4   6  -5  259.21   17.47
   4  -6   5  307.69   16.66
   4  -6   5  319.89   17.93
  -4   6  -5  271.02   20.20
   4  -6   5  282.47   17.07
  -4   6  -5  296.53   17.60
  -4   6  -5  316.92   18.80
  -4   6  -5  298.18   19.81
   4  -6   5  317.73   19.32
  -4   6  -5  288.86   18.15
   4  -6   5  275.52   20.75
   4  -6   6  170.87   14.80
   4  -6   6  163.43   10.19
   4  -6   6  185.97   11.56
   4  -6   6  164.82   11.09
  -4   6  -6  190.63   12.44
  -4   6  -6  145.36   10.38
  -4   6  -7   17.37    3.47
   4  -6   7   16.60    2.82
   4  -6   7   18.50    3.30
  -4   6  -7   21.33    3.68
  -4   6  -7   16.14    3.11
   4  -6   7   25.49    5.65
  -4   6  -7   27.17    4.13
   4  -6   7   23.17    3.33
   4  -6   8   90.99    7.09
   4  -6   8   76.43    5.83
  -4   6  -8   88.48    6.66
   4  -6   8   53.95    6.09
  -4   6  -8   51.89    5.66
  -4   6  -8   70.17    6.70
  -4   6  -8   64.47    6.17
   4  -6   8   72.83    6.13
   4  -6   9   37.42    4.47
   4  -6   9   68.90    5.52
   4  -6   9   63.60    4.73
  -4   6  -9   45.62    4.68
  -4   6  -9   35.86    4.30
   4  -6   9   45.61    4.61
  -4   6  -9   38.06    4.74
   4  -6  10   11.75    2.07
  -4   6 -10    8.15    2.41
   4  -6  10    9.43    1.87
  -4   6 -10    8.99    2.00
  -4   6 -10    5.69    1.65
   4  -6  11   12.00    1.91
  -4   6 -11   10.86    1.78
  -4   5   8  102.00    7.77
  -4   5   7   28.71    4.41
  -4   5   7   22.20    3.57
  -4   5   7   21.65    3.30
  -4   5   6   24.00    4.49
  -4   5   6   21.09    3.95
  -4   5   6   23.69    3.79
  -4   5   6   21.81    3.23
  -4   5   5   95.81    9.13
  -4   5   5  105.82    8.62
   4  -5  -5   70.01    9.36
  -4   5   5   96.17    7.55
  -4   5   5  124.15    8.74
  -4   5   5  122.79    8.43
  -4   5   5  104.04    8.90
  -4   5   4  100.48    8.65
   4  -5  -4   95.33   10.14
  -4   5   4  103.48    8.47
   4  -5  -4   99.26   10.43
  -4   5   4  106.49    7.62
  -4   5   4   86.13   10.86
   4  -5  -4   93.89    9.72
  -4   5   4  128.20    8.45
  -4   5   3  154.32   10.23
  -4   5   3  175.08   10.57
  -4   5   3  140.20   11.03
  -4   5   3  162.28   11.18
   4  -5  -3  164.41   13.02
  -4   5   3  157.27   10.93
   4  -5  -3  152.52   12.97
  -4   5   3  121.82   12.95
   4  -5  -3  160.08   12.04
  -4   5   3  146.07   11.06
  -4   5   2   26.75    3.99
   4  -5  -2   38.30    5.61
  -4   5   2   30.15    4.07
   4  -5  -2   37.95    5.71
  -4   5   2   43.75    4.08
  -4   5   2   33.88    3.86
  -4   5   2   29.60    3.97
  -4   5   2   25.05    5.21
  -4   5   2   29.07    4.04
  -4   5   1   90.05    7.27
  -4   5   1   99.69    7.24
   4  -5  -1  105.67    9.14
  -4   5   1   95.87    7.29
   4  -5  -1  107.53    9.44
  -4   5   1   90.43    6.99
  -4   5   1   92.05    6.95
  -4   5   1   77.78    6.77
  -4   5   1  103.21    7.36
  -4   5   1   84.89    7.09
  -4   5   0  342.69   19.39
   4  -5   0  404.99   22.20
   4  -5   0  319.93   18.01
   4  -5   0  376.10   22.35
  -4   5   0  347.75   19.08
  -4   5   0  319.63   18.60
  -4   5   0  331.97   18.98
   4  -5   1   77.61    7.89
   4  -5   1   53.43    4.54
  -4   5  -1   59.72    5.17
   4  -5   1   80.93    7.69
   4  -5   1   57.75    5.33
  -4   5  -1   76.20    5.93
   4  -5   2  240.09   16.17
  -4   5  -2  220.33   12.63
  -4   5  -2  244.99   13.94
   4  -5   2  219.44   12.81
   4  -5   2  206.53   15.85
  -4   5  -2  233.82   13.44
  -4   5  -2  201.83   13.13
  -4   5  -2  219.41   14.63
  -4   5  -2  221.74   13.26
   4  -5   2  199.85   13.10
   4  -5   2  215.26   12.57
  -4   5  -3  214.59   14.20
  -4   5  -3  180.07   10.91
   4  -5   3  177.96   10.97
  -4   5  -3  185.25   11.57
  -4   5  -3  198.00   12.07
  -4   5  -3  172.16   11.66
   4  -5   3  183.18   13.35
   4  -5   3  178.56   11.00
  -4   5  -3  179.54   12.90
  -4   5  -3  197.23   11.48
   4  -5   3  171.30   11.65
   4  -5   4   51.15    5.31
   4  -5   4   54.24    5.04
   4  -5   4   44.87    3.93
   4  -5   4   53.42    4.86
  -4   5  -4   48.95    4.64
  -4   5  -4   49.27    6.21
   4  -5   4   62.46    5.22
   4  -5   4   40.94    5.53
   4  -5   4   52.94    4.69
  -4   5  -4   49.82    4.94
   4  -5   4   58.78    7.15
  -4   5  -4   57.65    5.65
   4  -5   4   56.38    4.90
  -4   5  -4   53.00    4.72
   4  -5   4   55.76    5.60
  -4   5  -4   52.08    5.18
  -4   5  -4   56.63    5.15
   4  -5   5  108.38    8.00
  -4   5  -5  105.71    7.51
   4  -5   5  103.11    6.86
  -4   5  -5   84.92    8.83
  -4   5  -5  101.81    7.43
  -4   5  -5  120.23    9.09
   4  -5   5  106.38    7.87
   4  -5   5   99.79    7.66
  -4   5  -5   99.17    7.68
  -4   5  -5   95.90    8.39
   4  -5   5  101.77   10.23
  -4   5  -5  112.61    8.59
  -4   5  -5  106.78    8.78
   4  -5   5  101.87    7.54
   4  -5   5   97.70    7.58
   4  -5   6  257.50   16.12
  -4   5  -6  289.06   16.25
   4  -5   6  271.35   15.40
  -4   5  -6  278.12   15.99
  -4   5  -6  301.57   18.26
  -4   5  -6  243.26   15.95
   4  -5   6  298.65   20.47
  -4   5  -6  275.37   17.59
  -4   5  -6  258.14   17.06
   4  -5   6  282.61   16.27
  -4   5  -7  433.08   24.78
   4  -5   7  422.01   24.00
   4  -5   7  444.94   24.77
  -4   5  -7  479.83   24.74
  -4   5  -7  461.24   27.00
   4  -5   7  436.12   28.93
  -4   5  -7  475.04   26.30
   4  -5   7  458.12   24.98
   4  -5   8   21.16    3.57
   4  -5   8   12.97    2.75
   4  -5   8   14.63    2.64
  -4   5  -8   16.96    3.19
  -4   5  -8   16.05    3.81
  -4   5  -8   17.29    3.70
  -4   5  -8   10.65    2.68
  -4   5  -8   13.54    3.27
  -4   5  -8   11.59    3.41
   4  -5   8   17.57    3.33
  -4   5  -8   16.87    3.69
   4  -5   9  161.73    9.58
   4  -5   9  175.03   10.83
  -4   5  -9  127.14    9.20
  -4   5  -9  177.31   10.65
  -4   5  -9  108.63    9.41
  -4   5  -9  153.51   10.45
   4  -5   9  182.27   10.68
   4  -5  10   15.90    2.59
  -4   5 -10   18.24    3.01
   4  -5  10   12.67    2.07
   4  -5  10   18.05    3.12
  -4   5 -10    7.72    1.96
   4  -5  11   10.59    1.88
  -4   5 -11   13.40    1.97
  -4   4   9   -0.39    1.20
  -4   4   8    4.72    2.52
  -4   4   8    3.72    1.81
  -4   4   8    5.00    1.98
  -4   4   8    2.83    2.33
  -4   4   7   51.58    5.04
  -4   4   7   69.82    7.32
  -4   4   7   59.46    6.23
  -4   4   7   62.59    5.91
  -4   4   6  573.84   27.69
  -4   4   6  461.20   26.10
  -4   4   6  504.30   29.32
  -4   4   6  484.20   28.29
  -4   4   6  483.02   27.53
  -4   4   6  518.30   27.61
   4  -4  -6  518.84   32.28
  -4   4   6  480.23   27.22
  -4   4   5   48.02    5.87
  -4   4   5   38.70    4.70
  -4   4   5   41.63    4.61
   4  -4  -5   35.23    5.53
  -4   4   5   49.62    5.00
  -4   4   5   47.54    5.54
   4  -4  -5   39.65    6.11
  -4   4   4  209.20   14.57
  -4   4   4  219.84   13.83
   4  -4  -4  200.56   15.43
  -4   4   4  228.69   13.59
   4  -4  -4  212.42   15.03
   4  -4  -4  212.86   14.95
  -4   4   4  239.72   13.71
  -4   4   4  227.74   14.48
  -4   4   4  241.56   13.77
  -4   4   3    0.64    1.47
  -4   4   3    1.85    1.85
  -4   4   3    0.77    1.53
  -4   4   3    1.44    1.58
  -4   4   3    1.72    1.85
  -4   4   3    1.14    1.30
   4  -4  -3    2.13    1.96
   4  -4  -3    1.68    1.80
   4  -4  -3    0.48    2.29
  -4   4   3    1.83    1.43
  -4   4   3    0.46    1.53
  -4   4   2  705.83   36.99
   4  -4  -2  754.55   38.75
   4  -4  -2  774.15   39.34
   4  -4  -2  675.23   37.73
  -4   4   2  703.30   36.67
  -4   4   2  695.81   36.19
   4  -4  -2  730.90   37.30
   4  -4  -1 1725.34   81.31
   4  -4  -1 1735.05   81.29
   4  -4  -1 1608.68   80.33
   4  -4  -1 1765.04   81.95
   4  -4  -1 1788.23   81.00
  -4   4   1 1400.70   80.49
  -4   4   1 1532.75   78.56
  -4   4   1 1500.48   78.41
  -4   4   1 1572.20   78.38
   4  -4   0  789.74   38.91
  -4   4   0  643.99   38.65
  -4   4   0  697.73   36.56
  -4   4   0  745.16   36.58
  -4   4   0  695.01   36.52
   4  -4   0  749.86   38.72
   4  -4   1 1450.49   74.78
   4  -4   1 1546.17   75.69
   4  -4   1 1555.29   72.18
  -4   4  -1 1396.59   72.28
  -4   4  -1 1470.20   73.79
  -4   4  -1 1483.71   72.44
   4  -4   1 1340.37   74.47
  -4   4  -2 2028.36   85.15
   4  -4   2 1654.21   81.59
   4  -4   2 1752.35   81.79
   4  -4   2 1625.75   83.18
  -4   4  -2 1509.19   84.05
  -4   4  -2 1786.59   82.29
  -4   4  -2 1584.24   82.04
  -4   4  -2 1713.99   82.33
   4  -4   2 1764.89   84.50
  -4   4  -2 1705.28   82.03
  -4   4  -2 1666.06   81.81
   4  -4   2 1664.90   81.52
   4  -4   2 1453.56   81.39
  -4   4  -3   52.21    5.45
  -4   4  -3   46.34    4.43
   4  -4   3   39.68    4.12
   4  -4   3   51.24    4.27
  -4   4  -3   41.57    4.21
  -4   4  -3   47.41    4.49
   4  -4   3   42.21    5.01
  -4   4  -3   43.35    4.37
   4  -4   3   50.30    5.74
  -4   4  -3   46.45    4.50
   4  -4   3   43.61    3.94
  -4   4  -3   45.95    4.10
  -4   4  -3   40.69    3.90
   4  -4   3   41.40    3.87
  -4   4  -4   17.13    2.82
   4  -4   4   22.79    2.99
  -4   4  -4   21.28    3.22
  -4   4  -4   22.71    2.95
  -4   4  -4   17.64    3.44
   4  -4   4   21.26    3.29
   4  -4   4   23.15    3.04
   4  -4   4   20.77    3.15
   4  -4   4   21.91    3.61
  -4   4  -4   17.59    2.94
  -4   4  -4   20.98    3.39
   4  -4   4   15.89    4.04
  -4   4  -4   23.81    3.39
  -4   4  -4   23.40    2.87
  -4   4  -5   14.14    2.81
   4  -4   5    8.50    1.78
   4  -4   5   12.11    2.55
  -4   4  -5    9.61    2.26
  -4   4  -5   10.91    2.91
  -4   4  -5    9.70    2.45
  -4   4  -5   12.87    3.02
   4  -4   5    9.45    3.64
  -4   4  -5   13.02    2.83
  -4   4  -5   11.48    2.83
   4  -4   5    7.62    3.30
   4  -4   5   10.38    2.07
  -4   4  -6  101.24    7.71
  -4   4  -6  105.33    7.40
  -4   4  -6  104.33    8.83
   4  -4   6  110.22    7.66
  -4   4  -6   94.26    7.69
  -4   4  -6  100.88    8.69
   4  -4   6  113.53   10.75
  -4   4  -6  103.93    8.52
   4  -4   6  100.14    6.97
  -4   4  -6   91.32    8.53
   4  -4   6  100.82    7.67
   4  -4   7  402.69   23.14
   4  -4   7  402.63   22.44
  -4   4  -7  421.96   22.69
  -4   4  -7  405.29   23.68
  -4   4  -7  443.63   25.44
   4  -4   7  409.82   22.98
   4  -4   7  482.28   24.68
  -4   4  -7  381.72   24.03
   4  -4   7  434.63   23.74
   4  -4   8    4.24    2.37
  -4   4  -8    3.55    2.89
   4  -4   8    1.16    1.57
  -4   4  -8    0.66    2.01
   4  -4   8    0.38    1.72
  -4   4  -8    0.61    2.13
  -4   4  -8    1.09    1.72
  -4   4  -8    2.53    2.26
   4  -4   9    7.00    2.41
   4  -4   9    5.64    1.92
   4  -4   9    8.60    2.77
  -4   4  -9    5.52    2.65
  -4   4  -9    8.44    2.57
  -4   4  -9    9.37    2.47
  -4   4  -9    6.77    2.47
   4  -4  10   66.87    5.27
   4  -4  10   75.50    5.72
  -4   3  10   57.57    3.92
  -4   3   9   18.42    2.81
  -4   3   9   24.37    3.51
  -4   3   9   25.97    3.67
  -4   3   8   44.05    4.95
  -4   3   8   29.63    3.71
  -4   3   8   38.49    5.28
  -4   3   8   30.28    4.31
  -4   3   8   39.70    4.76
  -4   3   7   12.82    2.75
  -4   3   7   11.07    3.27
  -4   3   7   17.07    3.91
   4  -3  -7   13.78    5.44
   4  -3  -7   21.13    5.27
  -4   3   7   19.24    3.57
  -4   3   6  155.59   10.40
  -4   3   6  176.17   12.88
  -4   3   6  175.27   12.24
  -4   3   6  200.53   12.10
   4  -3  -6  188.17   14.39
   4  -3  -6  202.49   15.89
  -4   3   6  185.97   11.59
  -4   3   5  275.91   18.86
  -4   3   5  306.80   18.71
   4  -3  -5  320.61   20.74
  -4   3   5  330.26   18.31
  -4   3   5  328.03   18.02
   4  -3  -4  212.13   14.18
  -4   3   4  232.45   13.26
  -4   3   4  204.01   14.07
  -4   3   4  239.70   13.65
   4  -3  -4  219.75   14.61
   4  -3  -4  259.65   15.12
  -4   3   4  223.61   13.97
  -4   3   4  211.74   13.03
   4  -3  -3  768.25   38.19
   4  -3  -3  753.47   37.60
   4  -3  -3  825.24   38.50
   4  -3  -3  747.00   38.72
  -4   3   3  692.89   36.57
   4  -3  -3  744.05   38.30
  -4   3   3  668.34   37.61
  -4   3   3  647.50   36.14
  -4   3   3  690.86   35.98
   4  -3  -2  903.48   44.84
   4  -3  -2  901.75   44.98
   4  -3  -2  933.16   45.49
   4  -3  -2  918.03   44.75
  -4   3   2  828.93   43.19
  -4   3   2  848.63   44.87
   4  -3  -2  884.81   44.80
  -4   3   2  822.81   42.92
  -4   3   2  853.40   42.91
  -4   3   2  797.85   42.75
   4  -3  -2  839.61   42.86
   4  -3  -2  896.11   44.12
   4  -3  -1  431.24   23.13
   4  -3  -1  417.68   23.10
  -4   3   1  402.88   21.39
  -4   3   1  390.79   23.12
   4  -3  -1  393.68   20.85
  -4   3   1  388.69   21.17
   4  -3  -1  438.67   23.60
   4  -3   0  382.26   21.39
   4  -3   0  389.93   21.47
   4  -3   0  403.17   21.97
  -4   3   0  359.93   21.40
   4  -3   0  355.32   19.12
   4  -3   0  332.81   20.61
  -4   3  -1  542.92   28.77
  -4   3  -1  556.35   30.70
   4  -3   1  588.33   28.74
   4  -3   1  501.67   29.78
  -4   3  -1  563.21   28.83
  -4   3  -1  592.01   28.61
   4  -3   1  571.55   30.79
  -4   3  -1  506.91   29.66
  -4   3  -1  566.84   28.83
   4  -3   1  564.28   30.97
  -4   3  -2   24.22    3.74
   4  -3   2   24.34    4.26
   4  -3   2   16.29    2.85
  -4   3  -2   21.23    2.73
   4  -3   2   18.80    2.77
   4  -3   2   20.40    3.65
  -4   3  -2   26.51    2.88
  -4   3  -2   19.90    2.57
  -4   3  -2   23.57    2.82
  -4   3  -2   24.03    2.82
   4  -3   2   18.49    3.59
  -4   3  -2   22.87    2.75
  -4   3  -2   18.82    3.58
   4  -3   2   22.10    2.59
   4  -3   3  193.89   11.39
  -4   3  -3  189.78   11.80
  -4   3  -3  232.00   12.48
   4  -3   3  193.88   11.53
   4  -3   3  203.48   11.96
  -4   3  -3  194.94   13.24
  -4   3  -3  202.77   12.19
  -4   3  -3  238.38   12.66
  -4   3  -3  201.39   12.21
  -4   3  -3  198.14   11.52
  -4   3  -3  198.73   12.24
  -4   3  -3  198.49   11.74
  -4   3  -3  177.25   12.66
   4  -3   3  192.70   11.88
   4  -3   4  180.50   10.76
  -4   3  -4  169.02   10.44
  -4   3  -4  164.42   10.03
  -4   3  -4  152.84   10.33
   4  -3   4  161.72   10.28
   4  -3   4  167.90   10.84
  -4   3  -4  171.34   11.07
   4  -3   4  168.39   12.86
  -4   3  -4  203.13   11.77
  -4   3  -4  193.90   11.54
  -4   3  -4  178.66   11.53
  -4   3  -4  171.87   10.40
   4  -3   4  173.72   10.49
  -4   3  -5   55.24    4.80
   4  -3   5   65.19    5.63
  -4   3  -5   56.91    5.47
   4  -3   5   57.80    7.04
  -4   3  -5   63.91    6.09
   4  -3   5   65.37    5.41
   4  -3   5   61.76    4.68
  -4   3  -5   60.25    5.99
   4  -3   5   58.02    5.20
  -4   3  -5   56.68    6.38
   4  -3   6  120.43    9.03
   4  -3   6  111.85    7.66
  -4   3  -6  131.34    9.88
   4  -3   6  124.99    8.73
  -4   3  -6   96.99    8.29
  -4   3  -6  112.50    9.47
  -4   3  -6  117.28    9.24
  -4   3  -6  133.20    9.94
   4  -3   6  113.90    8.43
   4  -3   6  117.97    8.49
   4  -3   7   37.26    4.77
   4  -3   7   25.13    3.35
  -4   3  -7   29.51    4.59
   4  -3   7   27.60    4.12
  -4   3  -7   24.76    3.72
  -4   3  -7   31.76    4.67
   4  -3   8   12.13    3.14
  -4   3  -8   17.18    3.69
   4  -3   8   10.44    2.37
  -4   3  -8   14.69    3.60
   4  -3   8   14.46    3.11
  -4   3  -8    9.61    2.84
   4  -3   8   19.33    3.59
   4  -3   9  235.99   14.23
  -4   3  -9  298.96   14.45
  -4   3  -9  247.09   15.07
   4  -3   9  162.01   12.74
  -4   3  -9  220.33   14.32
  -4   3  -9  228.23   13.93
  -4   3  -9  227.21   14.58
   4  -3   9  233.27   13.81
  -4   3 -10   12.55    2.41
   4  -3  10   11.43    2.31
  -4   3 -10   10.45    2.32
  -4   3 -10    9.06    1.88
  -4   3 -10   14.51    2.46
  -4   2  10    8.91    2.47
  -4   2  10    8.89    2.06
  -4   2  10    9.55    2.54
  -4   2   9   21.06    3.18
  -4   2   9   23.30    3.96
  -4   2   9   25.48    3.88
  -4   2   8   98.43    7.48
  -4   2   8  101.38    8.50
  -4   2   8  117.37    9.07
   4  -2  -8  121.24   12.38
   4  -2  -8  121.88   12.32
   4  -2  -8  122.77   12.18
  -4   2   7   11.42    2.95
  -4   2   7    5.78    2.18
  -4   2   7    6.14    2.30
  -4   2   7    9.24    3.18
  -4   2   7    5.62    2.56
   4  -2  -7    7.63    5.35
   4  -2  -7   10.77    4.11
  -4   2   6   48.25    5.40
   4  -2  -6   46.16    6.75
  -4   2   6   57.69    5.37
  -4   2   6   47.56    5.82
  -4   2   6   55.15    5.42
  -4   2   6   53.27    4.92
   4  -2  -6   45.86    6.80
   4  -2  -6   62.61    7.88
  -4   2   5  115.95    8.04
  -4   2   5   99.80    7.94
  -4   2   5   98.08    7.19
  -4   2   5   99.96    8.36
  -4   2   5  111.40    7.84
  -4   2   5  105.32    7.37
   4  -2  -5  120.20   10.01
   4  -2  -5   90.61    9.49
  -4   2   5  101.35    7.32
   4  -2  -4  152.41   10.69
  -4   2   4  167.04   10.27
  -4   2   4  169.86   11.22
   4  -2  -4  182.59   12.72
   4  -2  -4  171.04   11.43
   4  -2  -3 1017.15   51.26
  -4   2   3 1011.63   50.15
   4  -2  -3 1100.25   51.93
   4  -2  -3  906.85   50.51
  -4   2   3  992.27   50.20
  -4   2   3 1023.44   51.79
   4  -2  -3 1036.65   51.83
   4  -2  -2  946.64   46.01
   4  -2  -2  980.64   46.48
  -4   2   2  891.09   46.51
  -4   2   2  868.80   44.62
   4  -2  -2  893.21   46.20
  -4   2   2  844.99   44.39
  -4   2   1  749.12   41.16
   4  -2  -1  796.94   39.25
   4  -2  -1  738.18   41.05
   4  -2  -1  847.40   41.50
   4  -2   0  740.70   37.70
   4  -2   0  739.88   37.85
   4  -2   0  685.37   37.10
   4  -2   0  754.95   35.73
   4  -2   0  713.30   37.71
  -4   2   0  655.25   35.37
   4  -2   1  379.56   21.64
   4  -2   1  394.70   22.37
  -4   2  -1  375.13   21.97
   4  -2   1  385.99   20.27
  -4   2  -1  422.61   20.20
  -4   2  -1  398.00   20.50
   4  -2   1  379.44   22.31
  -4   2  -1  365.69   21.13
  -4   2  -1  347.92   20.40
   4  -2   2  362.54   21.71
  -4   2  -2  345.20   19.63
  -4   2  -2  342.02   20.84
   4  -2   2  363.82   19.46
  -4   2  -2  414.91   19.91
  -4   2  -2  390.84   20.04
  -4   2  -2  388.26   19.87
  -4   2  -2  383.62   19.82
  -4   2  -2  319.65   19.98
   4  -2   2  351.76   19.51
   4  -2   2  346.60   19.44
  -4   2  -3    8.22    2.04
   4  -2   3    8.89    2.21
   4  -2   3    9.86    2.05
  -4   2  -3    8.78    2.35
  -4   2  -3   16.16    2.65
  -4   2  -3   12.53    2.42
  -4   2  -3   10.84    2.29
   4  -2   3    7.31    1.65
  -4   2  -3   11.14    2.13
  -4   2  -3   10.42    2.91
   4  -2   3   11.78    2.16
  -4   2  -3   11.35    2.83
  -4   2  -4  157.06    9.99
  -4   2  -4  159.91    9.75
   4  -2   4  146.40    8.99
   4  -2   4  144.81    9.78
   4  -2   4  143.64    9.35
   4  -2   4  151.99   10.00
  -4   2  -4  172.29   10.70
   4  -2   4  160.43   11.78
  -4   2  -4  181.63   11.03
  -4   2  -4  179.44   11.02
  -4   2  -4  167.71   10.72
  -4   2  -4  138.64   10.44
   4  -2   4  179.31   10.29
  -4   2  -4  171.78   11.78
   4  -2   4  126.06    9.06
   4  -2   5   21.00    3.30
   4  -2   5   15.41    2.39
  -4   2  -5   21.47    4.29
   4  -2   5   13.40    2.71
   4  -2   5   18.28    3.42
  -4   2  -5   15.11    3.05
  -4   2  -5   25.58    3.84
  -4   2  -5   20.67    3.41
  -4   2  -5   13.80    3.38
   4  -2   5   18.93    3.10
  -4   2  -6   11.28    3.04
   4  -2   6    9.08    2.18
  -4   2  -6   12.64    4.00
   4  -2   6   13.23    2.61
   4  -2   6    8.81    2.97
  -4   2  -6   12.20    2.85
  -4   2  -6   10.27    3.20
  -4   2  -6   11.49    2.98
  -4   2  -6   13.64    3.37
   4  -2   6   15.12    3.16
  -4   2  -7   48.56    5.54
   4  -2   7   53.10    5.84
   4  -2   7   59.58    5.83
  -4   2  -7   44.58    5.17
   4  -2   7   52.05    4.73
  -4   2  -7   58.64    6.36
  -4   2  -7   50.97    5.87
  -4   2  -7   61.61    6.60
   4  -2   7   60.80    5.82
  -4   2  -7   38.57    6.56
  -4   2  -7   53.56    7.51
   4  -2   8   50.58    5.35
  -4   2  -8   50.29    5.15
   4  -2   8   45.91    5.29
  -4   2  -8   49.59    5.71
   4  -2   8   38.39    4.92
  -4   2  -8   40.42    4.90
   4  -2   8   48.17    5.05
   4  -2   9    7.60    2.33
  -4   2  -9    6.87    2.40
  -4   2  -9    5.26    2.24
   4  -2   9    7.15    2.13
   4  -2   9    6.15    2.23
  -4   2  -9    5.75    2.02
  -4   2  -9    4.53    1.70
  -4   2  -9    5.70    2.22
   4  -2  10   95.22    6.43
  -4   1  11   47.01    3.81
  -4   1  11   38.41    3.31
   4  -1 -10   21.85    4.06
  -4   1  10   18.08    2.83
  -4   1   9  105.66    7.70
  -4   1   9  117.95    8.69
   4  -1  -9  115.82   11.85
   4  -1  -8  128.51   12.61
   4  -1  -8  124.74   12.90
  -4   1   8  125.09    9.47
  -4   1   7  305.66   17.14
  -4   1   7  268.89   16.02
  -4   1   7  249.71   16.72
   4  -1  -7  282.49   20.22
   4  -1  -7  294.41   20.29
   4  -1  -7  270.58   20.34
  -4   1   6    1.11    1.90
  -4   1   6    1.48    1.68
  -4   1   6    1.27    1.60
   4  -1  -6    0.89    2.25
  -4   1   6    0.21    1.61
  -4   1   6    1.65    1.97
  -4   1   6    0.68    1.73
  -4   1   5  166.76   10.33
  -4   1   5  181.67   11.61
  -4   1   5  186.71   11.57
   4  -1  -5  164.44   13.67
  -4   1   5  169.57   10.72
  -4   1   5  172.68   12.02
  -4   1   5  205.58   11.63
  -4   1   5  193.64   11.11
   4  -1  -5  189.63   13.81
  -4   1   5  198.47   11.29
   4  -1  -5  152.38   11.92
   4  -1  -5  194.68   14.09
   4  -1  -4  239.60   15.68
  -4   1   4  210.60   12.08
  -4   1   4  199.46   13.32
  -4   1   4  205.90   12.04
   4  -1  -4  180.44   13.03
   4  -1  -4  212.24   14.50
   4  -1  -4  207.55   13.03
  -4   1   3  287.39   17.28
  -4   1   3  282.40   15.60
   4  -1  -3  278.32   17.05
   4  -1  -3  262.78   17.41
   4  -1  -3  305.79   16.93
   4  -1  -3  270.34   17.24
   4  -1  -2 2026.17   94.06
   4  -1  -2 2024.34   95.70
  -4   1   2 1921.33   94.44
   4  -1  -2 1895.51   94.25
   4  -1  -2 1735.58   93.91
   4  -1  -2 1814.18   93.58
   4  -1  -1 1511.90   72.06
  -4   1   1 1432.72   71.27
   4  -1  -1 1516.81   69.22
  -4   1   1 1417.26   68.63
   4  -1  -1 1491.31   71.50
   4  -1  -1 1258.15   70.24
   4  -1  -1 1275.39   69.51
   4  -1   0   20.90    3.32
  -4   1   0   27.50    3.88
   4  -1   0   21.81    2.46
  -4   1   0   23.43    2.43
   4  -1   0   18.63    2.96
   4  -1   0   17.53    2.13
  -4   1   0   18.24    2.89
   4  -1   0   22.83    3.51
   4  -1   1  559.44   30.22
  -4   1  -1  538.66   28.97
  -4   1  -1  542.68   30.03
  -4   1  -1  570.78   28.70
   4  -1   1  524.70   27.98
  -4   1  -1  586.61   28.70
  -4   1  -1  592.86   28.56
   4  -1   1  539.96   28.21
  -4   1  -1  489.43   29.07
   4  -1   2  643.30   32.65
  -4   1  -2  570.57   32.25
   4  -1   2  566.44   29.92
  -4   1  -2  640.69   31.79
  -4   1  -2  610.54   31.95
  -4   1  -2  563.13   30.62
   4  -1   2  559.25   29.99
  -4   1  -2  646.50   31.04
   4  -1   2  550.52   29.73
  -4   1  -2  660.03   31.05
  -4   1  -2  560.94   30.54
   4  -1   2  585.37   30.34
  -4   1  -2  582.88   31.84
  -4   1  -3  137.75    8.87
   4  -1   3  141.97    8.97
  -4   1  -3  140.59    9.49
  -4   1  -3  143.91   10.05
   4  -1   3  136.38    8.91
  -4   1  -3  125.61    9.27
  -4   1  -3  136.12   10.62
   4  -1   3  145.18    8.87
  -4   1  -3  147.50   11.11
  -4   1  -4  261.77   15.21
   4  -1   4  262.84   14.68
   4  -1   4  272.15   15.47
   4  -1   4  242.34   15.14
  -4   1  -4  289.80   16.42
  -4   1  -4  250.88   15.58
   4  -1   4  292.62   15.96
  -4   1  -4  273.39   17.76
  -4   1  -4  282.69   18.13
   4  -1   4  249.03   15.08
   4  -1   5  136.45    9.66
  -4   1  -5  116.26    9.02
  -4   1  -5  140.36    9.22
   4  -1   5  127.12    8.58
   4  -1   5  134.73    9.48
   4  -1   5  125.52    9.66
  -4   1  -5  123.34    9.78
  -4   1  -5  148.00   10.59
  -4   1  -5  144.45   10.34
  -4   1  -5  141.55   11.77
  -4   1  -5  142.36   12.12
   4  -1   6    3.11    2.28
  -4   1  -6    9.08    2.76
   4  -1   6    7.64    2.59
  -4   1  -6    7.85    2.77
   4  -1   6    7.10    2.71
  -4   1  -6    9.79    3.40
  -4   1  -6    8.82    2.93
   4  -1   6   10.33    2.66
  -4   1  -6    7.22    3.49
  -4   1  -6   10.27    4.20
   4  -1   7   80.20    7.22
  -4   1  -7   88.78    9.79
  -4   1  -7   87.83    6.79
   4  -1   7   74.91    7.22
  -4   1  -7   71.29    6.86
  -4   1  -7   86.68    7.91
  -4   1  -7   89.42    7.56
  -4   1  -7   86.77    7.75
   4  -1   7   77.42    6.70
  -4   1  -8    1.82    1.99
   4  -1   8    4.86    2.18
   4  -1   8    3.23    2.20
  -4   1  -8    3.06    2.05
   4  -1   8    5.68    2.13
   4  -1   9    5.04    1.71
  -4   1  -9    5.87    1.91
   4  -1   9    3.85    1.69
  -4   1  -9    2.40    1.25
  -4   1  -9    5.14    1.73
  -4   0  12    2.46    1.10
  -4   0  11    6.57    1.93
  -4   0  11    5.21    1.84
  -4   0  10   85.20    6.46
   4   0 -10   77.37    6.48
   4   0 -10  100.48    7.74
  -4   0  10  105.20    8.05
  -4   0  10   96.36    7.62
  -4   0   9   15.80    3.50
   4   0  -9   16.36    5.69
  -4   0   9   15.83    3.63
   4   0  -9   13.91    4.47
  -4   0   8  198.70   12.55
  -4   0   8  213.78   13.91
  -4   0   8  223.25   12.94
   4   0  -8  223.94   17.23
   4   0  -8  208.99   13.20
   4   0  -8  189.11   14.93
  -4   0   8  194.63   13.42
  -4   0   7   64.09    5.58
  -4   0   7   77.37    6.68
   4   0  -7   87.21    9.66
  -4   0   7   78.37    6.23
  -4   0   7   69.32    5.89
   4   0  -7   72.29    6.49
   4   0  -7   66.06    7.32
  -4   0   7   70.65    6.27
  -4   0   6   94.58    6.84
  -4   0   6  110.88    7.77
  -4   0   6  110.80    8.10
   4   0  -6   91.87    8.53
   4   0  -6  108.15   10.34
  -4   0   6  128.82    8.00
  -4   0   6  107.67    7.44
  -4   0   6   87.04    7.69
  -4   0   6  112.79    7.45
   4   0  -6   98.87    7.37
  -4   0   6  108.83    7.94
  -4   0   5   42.86    5.20
  -4   0   5   47.33    4.40
   4   0  -5   63.75    7.09
  -4   0   5   40.06    4.40
  -4   0   5   46.17    4.28
   4   0  -5   43.39    5.24
   4   0  -5   44.57    5.25
   4   0  -5   43.42    4.38
   4   0  -5   58.61    6.77
  -4   0   5   49.94    4.44
   4   0  -4   29.60    4.02
  -4   0   4   24.49    3.11
  -4   0   4   23.68    4.11
  -4   0   4   22.81    2.88
  -4   0   4   17.00    2.60
   4   0  -4   17.87    3.00
   4   0  -4   28.28    4.24
   4   0  -4   28.58    4.59
  -4   0   4   24.50    2.94
   4   0  -4   30.91    4.96
  -4   0   3  825.53   44.09
  -4   0   3  839.13   42.04
  -4   0   3  816.32   41.63
   4   0  -3  811.47   43.73
  -4   0   3  900.70   41.92
   4   0  -3  770.58   41.43
   4   0  -3  912.95   44.33
   4   0  -2  818.87   39.80
  -4   0   2  735.47   39.55
   4   0  -2  762.64   40.74
  -4   0   2  701.13   37.07
   4   0  -1  493.60   25.06
  -4   0   1  493.17   24.66
  -4   0   1  444.87   26.26
   4   0  -1  482.63   25.16
   4   0   0 3708.79  173.42
  -4   0   0 3622.14  171.57
   4   0   0 3421.15  171.16
  -4   0   0 3614.63  173.84
  -4   0   0 3743.39  171.81
  -4   0   0 3502.96  171.15
   4   0   0 3416.99  170.81
  -4   0   0 3698.63  171.49
   4   0   0 3540.03  171.34
  -4   0   0 3764.38  171.41
   4   0   0 3352.50  170.92
  -4   0   0 3351.47  172.92
   4   0   0 3578.32  171.50
   4   0   1  499.05   25.98
  -4   0  -1  463.63   24.31
   4   0   1  461.20   23.97
  -4   0  -1  477.69   25.98
  -4   0  -1  481.56   26.31
  -4   0  -1  442.88   23.74
   4   0   1  423.14   23.35
  -4   0  -1  525.51   24.61
   4   0   1  485.61   26.52
   4   0   1  432.91   23.75
  -4   0  -1  427.12   25.70
   4   0   1  451.43   24.19
   4   0   1  441.15   23.69
  -4   0  -2  132.50   10.15
  -4   0  -2  143.04    9.03
   4   0   2  134.72    8.84
   4   0   2  133.14    8.76
  -4   0  -2  151.28   10.93
  -4   0  -2  132.74    9.41
  -4   0  -2  146.42    9.46
   4   0   2  134.19   10.24
   4   0   2  131.93    9.01
  -4   0  -2  136.55   10.71
  -4   0  -3   66.23    5.35
  -4   0  -3   70.98    7.93
   4   0   3   71.69    5.82
  -4   0  -3   79.65    7.79
   4   0   3   54.48    5.47
  -4   0  -3   68.57    6.07
  -4   0  -3   76.55    6.37
   4   0   3   60.12    5.44
  -4   0  -3   63.34    7.22
   4   0   3   73.93    5.79
   4   0   4   37.04    4.33
  -4   0  -4   30.36    3.81
   4   0   4   38.68    4.59
  -4   0  -4   41.28    6.13
   4   0   4   34.70    4.37
  -4   0  -4   27.97    4.14
   4   0   4   38.97    4.44
  -4   0  -4   41.35    4.92
   4   0   4   45.30    4.69
  -4   0  -4   34.00    5.85
   4   0   4   37.65    4.34
  -4   0  -4   36.43    6.31
  -4   0  -5   65.79    5.86
   4   0   5   73.58    6.66
   4   0   5   82.45    6.79
   4   0   5   71.10    6.75
  -4   0  -5   69.44    8.58
  -4   0  -5   97.78    9.96
  -4   0  -5   64.17    6.39
   4   0   5   77.37    6.76
  -4   0  -5   77.87    7.25
  -4   0  -5   79.49    7.30
   4   0   5   56.84    8.47
   4   0   5   77.63    6.72
  -4   0  -5   67.56    8.43
   4   0   5   72.93    6.67
   4   0   6  179.80   12.15
  -4   0  -6  155.26   10.69
  -4   0  -6  126.96   13.48
   4   0   6  174.93   12.33
   4   0   6  212.16   12.32
   4   0   6  198.64   12.28
  -4   0  -6  184.59   12.58
  -4   0  -6  225.25   13.71
  -4   0  -6  187.24   12.79
   4   0   6  153.33   10.84
  -4   0  -6  183.65   15.29
  -4   0  -6  149.40   14.13
   4   0   7  119.93    8.76
   4   0   7  102.11    8.52
   4   0   7  112.35    8.54
  -4   0  -7  105.39    8.52
  -4   0  -7  113.93    9.19
  -4   0  -7  112.61    8.81
  -4   0  -7  122.71    9.33
   4   0   8    3.58    1.66
  -4   0  -8    5.00    1.91
  -4   0  -8    2.82    1.95
  -4  -1  12   17.92    2.05
  -4  -1  11    7.61    2.20
   4   1 -11    7.15    1.74
   4   1 -11    8.32    2.74
  -4  -1  11    9.92    2.65
   4   1 -10    4.86    1.97
  -4  -1  10    2.07    2.22
  -4  -1  10    0.77    2.35
   4   1 -10    1.47    3.78
  -4  -1   9   36.31    4.41
  -4  -1   9   44.77    5.43
   4   1  -9   38.39    4.44
   4   1  -9   35.44    5.70
   4   1  -9   36.44    6.88
  -4  -1   9   43.44    5.03
  -4  -1   8   49.05    4.83
  -4  -1   8   52.97    5.79
   4   1  -8   40.89    7.83
  -4  -1   8   49.08    5.05
  -4  -1   8   57.82    5.14
   4   1  -8   46.17    4.85
   4   1  -8   47.14    8.04
   4   1  -8   53.12    6.30
  -4  -1   8   46.95    5.11
  -4  -1   8   55.98    5.79
  -4  -1   7   94.58    6.84
  -4  -1   7  118.21    7.92
  -4  -1   7  110.18    7.57
   4   1  -7   98.42    7.22
  -4  -1   7   92.55    7.35
   4   1  -7   91.40   10.25
   4   1  -7   99.60    7.92
   4   1  -7   90.22    9.11
  -4  -1   6   88.93    6.71
  -4  -1   6  114.84    7.79
  -4  -1   6   96.46    7.32
  -4  -1   6  114.20    8.14
   4   1  -6  105.34   10.64
  -4  -1   6  117.52    7.97
   4   1  -6  113.38    7.39
  -4  -1   6  114.00    7.68
   4   1  -6  105.20    9.12
   4   1  -6   97.11    9.33
   4   1  -6  106.69   10.15
   4   1  -6  103.53    7.73
  -4  -1   6  130.28    8.36
  -4  -1   5   60.12    5.31
  -4  -1   5   69.95    5.26
  -4  -1   5   69.13    5.46
   4   1  -5   68.44    7.80
  -4  -1   5   62.55    6.62
   4   1  -5   57.24    4.70
  -4  -1   5   69.31    5.43
  -4  -1   5   54.70    4.81
   4   1  -5   60.28    6.62
   4   1  -5   57.76    4.99
  -4  -1   5   73.88    5.51
   4   1  -5   71.05    7.10
  -4  -1   4  603.83   30.38
   4   1  -4  561.51   29.34
   4   1  -4  651.95   33.24
   4   1  -4  602.42   33.06
   4   1  -4  514.48   29.31
  -4  -1   4  568.93   31.92
   4   1  -4  577.21   32.44
  -4  -1   4  655.67   30.22
   4   1  -4  568.39   29.87
   4   1  -3   56.88    6.14
  -4  -1   3   58.80    4.78
  -4  -1   3   62.02    6.36
  -4  -1   3   67.36    5.18
   4   1  -3   51.27    4.36
   4   1  -3   61.92    6.68
  -4  -1   3   59.70    4.53
   4   1  -3   54.88    4.62
   4   1  -3   71.16    6.86
  -4  -1   2  371.84   19.29
  -4  -1   2  338.37   18.78
  -4  -1   2  380.30   19.23
   4   1  -2  327.16   19.68
   4   1  -2  382.65   19.04
   4   1  -2  332.63   18.50
   4   1  -2  386.26   22.47
   4   1  -2  345.36   19.05
   4   1  -2  340.93   18.86
   4   1  -1 2226.95  100.24
  -4  -1   1 1950.64   98.78
  -4  -1   1 1821.85   95.98
  -4  -1   1 2076.78   96.97
   4   1  -1 1952.17   96.40
  -4  -1   1 2100.59   96.98
   4   1  -1 1990.52   96.34
  -4  -1   1 1973.29   96.80
   4   1  -1 1995.28   99.96
  -4  -1   1 1865.51   98.96
   4   1  -1 1964.38   96.59
   4   1   0   88.39    7.38
   4   1   0   76.50    5.35
  -4  -1   0   84.51    6.44
  -4  -1   0   85.62    6.26
  -4  -1   0   90.43    7.92
  -4  -1   0   87.31    6.43
   4   1   0   87.96    8.13
  -4  -1   0   79.41    7.79
   4   1   0   74.24    5.95
   4   1   0   86.21    6.09
  -4  -1  -1  289.51   16.09
  -4  -1  -1  319.97   19.09
  -4  -1  -1  299.45   18.18
  -4  -1  -1  258.80   15.67
  -4  -1  -1  282.15   15.56
   4   1   1  275.94   15.66
   4   1   1  261.79   17.71
  -4  -1  -1  277.85   18.32
   4   1   1  252.09   15.60
  -4  -1  -2  293.05   17.11
   4   1   2  298.54   16.99
  -4  -1  -2  318.85   20.20
  -4  -1  -2  277.29   18.32
  -4  -1  -2  291.41   17.52
  -4  -1  -2  282.73   19.55
   4   1   3   24.23    3.54
   4   1   3   23.91    3.70
  -4  -1  -3   31.50    5.74
  -4  -1  -3   26.50    4.10
   4   1   3   28.46    3.80
  -4  -1  -3   29.79    3.84
  -4  -1  -3   31.18    4.27
   4   1   3   35.04    4.01
  -4  -1  -3   30.94    5.82
   4   1   3   34.03    4.22
   4   1   4    0.95    1.74
  -4  -1  -4    2.13    2.48
   4   1   4    0.54    1.44
  -4  -1  -4    1.52    3.00
   4   1   4    2.37    2.25
   4   1   4    2.40    2.52
   4   1   4    2.63    2.04
   4   1   4    2.05    2.55
  -4  -1  -4    1.44    2.98
   4   1   4    0.87    2.31
   4   1   5    2.01    2.04
   4   1   5    1.96    1.91
  -4  -1  -5   -1.03    2.54
   4   1   5    0.93    2.48
  -4  -1  -5   -1.27    2.18
   4   1   5    0.23    2.17
  -4  -1  -5   -1.79    2.54
  -4  -1  -5    0.30    2.10
   4   1   5   -0.64    2.14
  -4  -1  -5    0.50    2.51
   4   1   6   16.81    3.36
   4   1   6   16.12    3.23
   4   1   6   18.05    3.38
  -4  -1  -6   18.22    3.56
  -4  -1  -6   18.32    3.76
  -4  -1  -6   16.59    3.53
   4   1   7  207.08   12.85
  -4  -1  -7  214.31   13.19
  -4  -1  -7  230.90   13.97
  -4  -1  -7  202.63   13.27
  -4  -1  -7  231.48   13.77
  -4  -2  12   25.55    2.65
  -4  -2  12   36.58    3.54
   4   2 -11   36.61    4.26
  -4  -2  11   41.30    4.70
  -4  -2  10    9.45    2.85
  -4  -2  10   10.49    3.21
   4   2 -10    6.29    2.21
   4   2 -10   12.22    3.73
  -4  -2  10    8.54    2.33
  -4  -2   9   25.76    3.69
   4   2  -9   26.52    3.72
   4   2  -9   26.17    6.27
  -4  -2   9   18.23    3.25
   4   2  -9   25.60    4.56
   4   2  -9   26.22    5.49
   4   2  -9   21.09    5.26
  -4  -2   9   27.97    4.25
  -4  -2   8  111.93    7.67
  -4  -2   8  130.26    8.70
  -4  -2   8  130.10    8.36
   4   2  -8  116.16    8.37
  -4  -2   8  120.79    9.12
   4   2  -8  120.79   11.98
   4   2  -8  123.84    8.90
   4   2  -8   82.46    9.88
  -4  -2   8   81.01    7.50
   4   2  -7   31.84    5.67
  -4  -2   7   42.79    4.12
  -4  -2   7   49.45    4.83
  -4  -2   7   38.26    4.77
  -4  -2   7   52.66    5.06
   4   2  -7   47.70    4.68
   4   2  -7   40.36    6.89
   4   2  -7   43.93    5.06
  -4  -2   7   52.73    5.19
   4   2  -6   10.79    3.38
  -4  -2   6   11.27    2.20
  -4  -2   6   13.31    2.56
  -4  -2   6   15.19    2.79
   4   2  -6    9.45    2.19
  -4  -2   6   17.26    3.08
   4   2  -6   13.12    2.42
  -4  -2   6   14.03    2.76
   4   2  -6    8.63    3.01
   4   2  -6   10.44    4.42
   4   2  -6   16.18    3.83
  -4  -2   6   12.17    2.62
  -4  -2   5  352.08   19.25
  -4  -2   5  351.71   19.63
  -4  -2   5  357.12   21.70
   4   2  -5  360.04   19.75
   4   2  -5  352.85   19.14
  -4  -2   5  329.70   19.47
  -4  -2   5  380.96   20.03
   4   2  -5  313.74   22.13
   4   2  -5  350.84   19.69
   4   2  -5  356.30   21.45
   4   2  -5  386.74   23.14
   4   2  -5  311.00   19.05
  -4  -2   5  401.50   19.81
   4   2  -4   52.74    5.03
   4   2  -4   54.80    4.89
  -4  -2   4   65.53    5.43
   4   2  -4   52.83    6.75
   4   2  -4   54.65    4.77
  -4  -2   4   57.08    6.46
  -4  -2   4   57.17    4.72
  -4  -2   3  307.18   17.18
  -4  -2   3  286.43   16.92
   4   2  -3  311.54   17.17
  -4  -2   3  343.72   17.85
  -4  -2   3  297.66   19.26
   4   2  -3  276.99   16.64
   4   2  -3  314.56   17.11
   4   2  -3  372.76   21.02
   4   2  -2  271.35   16.31
  -4  -2   2  274.16   15.71
  -4  -2   2  302.35   16.37
  -4  -2   2  299.10   16.57
   4   2  -2  284.85   16.00
   4   2  -2  277.23   19.18
  -4  -2   2  287.88   16.25
   4   2  -2  276.77   15.47
   4   2  -2  257.50   15.53
   4   2  -2  282.72   15.82
   4   2  -2  352.00   19.99
  -4  -2   1   19.91    2.92
   4   2  -1   14.67    2.72
  -4  -2   1   15.69    2.53
   4   2  -1   15.19    2.75
   4   2  -1   16.51    2.35
  -4  -2   1   19.31    3.04
  -4  -2   1   16.33    2.87
  -4  -2   1   18.19    4.19
  -4  -2   1   16.77    2.67
   4   2  -1   15.24    2.44
   4   2  -1   17.77    4.20
  -4  -2   0  229.20   15.20
   4   2   0  211.74   12.66
   4   2   0  208.03   12.66
   4   2   0  201.48   11.95
  -4  -2   0  212.51   13.32
   4   2   0  211.50   15.32
  -4  -2   0  217.75   13.12
  -4  -2   0  185.86   13.38
  -4  -2   0  212.70   15.58
   4   2   0  200.43   12.30
  -4  -2   0  202.32   12.46
  -4  -2  -1  205.02   13.37
  -4  -2  -1  254.94   14.42
   4   2   1  199.31   15.98
   4   2   1  252.77   14.07
  -4  -2  -1  283.61   18.46
  -4  -2  -1  228.48   16.12
   4   2   1  212.66   15.78
  -4  -2  -1  233.95   13.54
  -4  -2  -1  198.61   13.55
  -4  -2  -1  221.00   16.83
   4   2   2  118.57    8.43
  -4  -2  -2  116.70   11.55
  -4  -2  -2  100.93    8.56
   4   2   2   90.62    7.41
  -4  -2  -2  112.59    8.41
   4   2   2  109.03    7.81
  -4  -2  -2  115.84   11.25
   4   2   3   42.88    5.08
  -4  -2  -3   61.72    5.90
  -4  -2  -3   65.79    8.85
   4   2   3   64.64    6.06
   4   2   3   54.53    5.72
  -4  -2  -3   56.71    6.26
   4   2   3   62.74    5.57
  -4  -2  -3   65.16    6.49
   4   2   3   37.25    7.21
   4   2   3   63.21    5.51
  -4  -2  -3   47.65    7.60
  -4  -2  -4   76.18    9.59
   4   2   4   84.25    7.24
  -4  -2  -4   73.71    7.22
   4   2   4   85.00    6.73
  -4  -2  -5   19.52    3.50
   4   2   5   17.59    3.26
  -4  -2  -5   23.48    4.09
  -4  -2  -5   17.38    3.65
   4   2   6   31.11    3.72
  -4  -2  -6   35.54    4.31
  -4  -2  -6   36.46    4.47
  -4  -2  -6   40.55    4.54
  -4  -3  12   12.18    1.98
   4   3 -12   18.34    2.32
  -4  -3  11   13.24    2.61
   4   3 -11    9.35    2.45
   4   3 -11    8.66    2.06
   4   3 -11   10.43    2.90
   4   3 -11    8.31    2.44
  -4  -3  10   59.29    4.99
   4   3 -10   48.22    5.05
   4   3 -10   56.71    5.88
  -4  -3  10   54.17    5.84
   4   3 -10   66.15    5.99
  -4  -3   9  203.02   14.10
  -4  -3   9  244.89   13.78
   4   3  -9  231.40   13.86
   4   3  -9  237.00   14.20
   4   3  -9  237.16   14.43
  -4  -3   8  243.06   15.04
  -4  -3   8  291.26   16.53
  -4  -3   8  319.48   16.83
   4   3  -8  277.57   16.35
   4   3  -8  246.46   19.39
  -4  -3   8  240.51   16.42
   4   3  -8  283.47   16.68
  -4  -3   8  297.49   16.98
   4   3  -8  303.91   17.15
   4   3  -8  208.09   18.58
  -4  -3   7  212.75   12.53
  -4  -3   7  173.84   11.17
  -4  -3   7  183.28   12.55
   4   3  -7  188.01   12.93
  -4  -3   7  217.39   13.01
   4   3  -7  219.06   12.74
  -4  -3   7  188.77   12.34
   4   3  -7  172.51   14.79
   4   3  -7  200.05   12.67
  -4  -3   7  217.67   12.95
   4   3  -7  216.25   13.10
   4   3  -7  171.28   15.30
   4   3  -6   11.83    3.70
  -4  -3   6   16.24    2.69
   4   3  -6   14.01    2.82
  -4  -3   6   14.74    3.16
   4   3  -6   12.69    3.08
  -4  -3   6   11.29    2.73
  -4  -3   6   14.34    2.74
   4   3  -6   14.61    2.70
  -4  -3   6   12.80    3.82
   4   3  -6   12.02    3.26
   4   3  -6   11.24    3.79
  -4  -3   6   13.82    2.65
   4   3  -6   11.12    2.99
   4   3  -5  209.51   13.35
  -4  -3   5  206.63   12.38
   4   3  -5  190.86   16.03
   4   3  -5  209.81   13.06
  -4  -3   5  202.43   15.06
   4   3  -5  200.96   12.73
  -4  -3   5  228.20   12.86
   4   3  -5  213.91   13.06
  -4  -3   5  226.70   13.65
   4   3  -4   54.55    5.49
  -4  -3   4   61.66    5.26
  -4  -3   4   59.23    5.39
   4   3  -4   57.07    5.22
  -4  -3   4   67.78    5.89
   4   3  -4   56.45    7.73
   4   3  -4   50.86    5.16
   4   3  -4   59.16    4.93
  -4  -3   4   63.64    7.25
   4   3  -4   54.17    5.05
   4   3  -4   59.76    7.43
   4   3  -3  289.14   17.14
  -4  -3   3  276.04   16.41
   4   3  -3  306.29   16.69
   4   3  -3  271.62   20.32
  -4  -3   3  243.15   16.11
  -4  -3   3  332.77   17.57
   4   3  -3  266.25   16.22
   4   3  -3  301.10   16.60
   4   3  -3  317.09   20.30
  -4  -3   3  308.67   16.92
   4   3  -2   16.29    4.04
  -4  -3   2   14.59    2.83
   4   3  -2   12.24    2.75
  -4  -3   2   11.86    2.55
   4   3  -2   14.44    2.85
  -4  -3   2   12.42    3.84
   4   3  -2   14.84    2.78
   4   3  -2   12.88    2.38
  -4  -3   2   14.10    2.79
  -4  -3   2   18.58    3.31
   4   3  -2   10.42    3.61
   4   3  -1  230.63   14.45
  -4  -3   1  232.94   14.60
  -4  -3   1  254.05   14.72
  -4  -3   1  204.71   13.39
   4   3  -1  205.46   17.12
   4   3  -1  236.57   13.54
  -4  -3   1  238.39   14.71
   4   3  -1  249.86   14.22
  -4  -3   1  253.86   17.04
   4   3  -1  251.23   14.27
  -4  -3   1  215.86   15.27
   4   3   0  218.90   12.88
   4   3   0  210.17   12.80
  -4  -3   0  211.88   13.61
  -4  -3   0  183.78   12.75
  -4  -3   0  222.06   15.61
  -4  -3   0  190.40   14.05
  -4  -3  -1   18.61    3.59
   4   3   1   19.16    4.55
   4   3   1   14.77    3.33
   4   3   1   16.78    3.40
  -4  -3  -1   15.85    3.68
  -4  -3  -1   16.08    3.20
  -4  -3  -1   13.24    2.93
  -4  -3  -1   13.52    3.83
   4   3   2  292.67   16.35
  -4  -3  -2  274.37   17.11
  -4  -3  -2  248.91   16.24
  -4  -3  -2  247.64   17.97
   4   3   2  281.80   16.21
  -4  -3  -3   45.82    5.26
   4   3   3   51.15    5.37
  -4  -3  -3   49.44    5.78
  -4  -3  -3   59.53    6.08
  -4  -3  -3   40.48    6.28
   4   3   3   56.85    5.67
   4   3   4   22.22    3.53
   4   3   4   24.88    4.16
   4   3   4   23.89    3.54
  -4  -3  -4   23.28    3.86
  -4  -3  -4   21.00    3.80
   4   3   5    1.95    1.66
  -4  -3  -5    3.57    1.72
  -4  -3  -5   -0.21    1.70
  -4  -3  -5    2.55    1.75
  -4  -4  12    5.48    1.59
  -4  -4  11   91.42    5.75
  -4  -4  11   81.36    6.61
   4   4 -11   69.83    5.91
   4   4 -11   95.29    6.49
   4   4 -11   82.42    6.33
  -4  -4  10   16.03    2.81
   4   4 -10   19.13    3.26
   4   4 -10   15.75    2.84
   4   4 -10   18.85    3.89
  -4  -4  10   17.12    3.18
  -4  -4  10   16.07    3.32
   4   4 -10   16.52    3.33
  -4  -4   9  349.52   20.12
  -4  -4   9  386.35   21.32
   4   4  -9  364.49   21.56
   4   4  -9  393.52   21.50
  -4  -4   9  329.14   21.37
   4   4  -9  419.35   21.82
  -4  -4   9  395.67   21.91
   4   4  -9  428.68   22.16
   4   4  -8    1.07    2.63
  -4  -4   8   -0.13    2.01
  -4  -4   8    3.60    2.73
   4   4  -8    0.22    1.87
   4   4  -8    3.78    2.52
  -4  -4   8    1.38    1.92
   4   4  -8   -0.21    3.38
   4   4  -8    1.38    2.44
  -4  -4   8    3.01    1.88
  -4  -4   7   99.61    7.63
  -4  -4   7   89.09    7.67
   4   4  -7  129.30    8.79
  -4  -4   7   94.99    7.98
   4   4  -7  111.97    8.48
  -4  -4   7  114.49    8.68
  -4  -4   7  107.46    8.05
   4   4  -7  122.39    8.67
   4   4  -7   92.96   10.67
  -4  -4   6  413.31   23.74
  -4  -4   6  462.14   23.94
   4   4  -6  451.30   23.54
   4   4  -6  425.47   23.19
  -4  -4   6  388.19   25.82
   4   4  -6  358.87   26.50
  -4  -4   6  365.70   22.62
   4   4  -6  453.24   23.62
  -4  -4   5  584.27   30.52
   4   4  -5  565.38   29.64
  -4  -4   5  553.64   32.88
   4   4  -5  517.89   29.27
   4   4  -5  550.26   29.56
   4   4  -5  529.07   33.55
  -4  -4   4   82.74    6.91
  -4  -4   4   78.65    6.99
   4   4  -4   92.74    7.07
  -4  -4   4   87.52    7.54
  -4  -4   4   88.11    9.40
   4   4  -4   84.26    7.03
   4   4  -4   93.47    7.11
   4   4  -4   84.91    9.52
  -4  -4   3  305.99   17.36
  -4  -4   3  291.45   16.97
   4   4  -3  320.66   17.05
   4   4  -3  271.98   16.10
  -4  -4   3  249.30   16.51
   4   4  -3  274.84   20.08
   4   4  -3  300.76   16.94
  -4  -4   2  196.04   12.43
  -4  -4   2  182.07   11.55
   4   4  -2  168.07   15.82
   4   4  -2  174.58   11.13
   4   4  -2  186.53   11.68
  -4  -4   2  164.62   11.75
  -4  -4   2  190.25   12.57
  -4  -4   2  180.83   14.66
   4   4  -2  182.41   11.67
  -4  -4   1  139.15    9.81
   4   4  -1  106.90   12.23
   4   4  -1  133.20    9.12
   4   4  -1  124.37    8.66
  -4  -4   1  122.57    9.52
  -4  -4   1  126.69    9.63
  -4  -4   1  124.09   11.66
   4   4  -1  133.17    9.14
  -4  -4   1   93.16    9.79
   4   4   0   23.19    3.55
   4   4   0   24.20    5.56
  -4  -4   0   21.04    4.77
  -4  -4   0   19.42    3.64
  -4  -4   0   14.95    3.39
  -4  -4   0   23.02    4.75
   4   4   0   20.54    3.81
   4   4   0   17.07    3.53
  -4  -4  -1    1.29    2.06
   4   4   1    0.63    2.11
  -4  -4  -1    4.74    2.09
  -4  -4  -1    0.67    1.90
   4   4   1   -0.64    2.29
   4   4   1    0.79    1.85
   4   4   1    1.49    2.31
  -4  -4  -2   62.19    6.14
   4   4   2   65.40    5.87
  -4  -4  -2   62.71    6.24
   4   4   2   77.23    6.27
   4   4   3   85.78    7.90
   4   4   3   97.62    6.92
  -4  -4  -3   77.97    7.22
   4   4   3  104.00    7.09
  -4  -4  -3   91.33    7.48
  -4  -4  -3   81.63    7.23
   4   4   4    4.61    1.85
   4   4   4    4.74    1.62
  -4  -4  -4    2.01    1.54
  -4  -4  -4    4.18    1.76
  -4  -4  -4   -0.19    1.52
  -4  -5  11    0.60    1.37
  -4  -5  11   -0.26    1.31
   4   5 -11    0.12    1.93
   4   5 -11   -0.48    1.27
  -4  -5  10   15.96    2.35
   4   5 -10   12.77    2.66
  -4  -5  10   13.55    2.64
   4   5 -10   12.73    2.37
  -4  -5   9   49.96    4.22
  -4  -5   9   44.58    4.85
  -4  -5   9   55.25    5.30
   4   5  -9   55.94    5.18
  -4  -5   9   50.72    5.12
   4   5  -9   66.76    5.59
  -4  -5   8   64.08    5.84
   4   5  -8   56.97    5.30
   4   5  -8   47.18    5.81
  -4  -5   8   46.21    5.01
   4   5  -8   56.59    5.44
  -4  -5   7  122.45    8.71
   4   5  -7   76.42   10.14
   4   5  -7  116.97    8.07
  -4  -5   7  105.09    8.20
  -4  -5   7   81.13    7.22
   4   5  -7  124.97    8.42
   4   5  -6   33.68    6.24
   4   5  -6   28.72    6.60
   4   5  -6   45.37    4.66
  -4  -5   6   39.01    5.08
   4   5  -6   51.74    5.02
  -4  -5   6   29.39    5.75
   4   5  -5   11.36    3.73
  -4  -5   5    7.29    3.11
   4   5  -5   11.89    4.61
  -4  -5   5   16.26    4.55
  -4  -5   5   14.30    3.57
   4   5  -5    9.94    2.70
   4   5  -5    9.88    2.71
   4   5  -4  267.26   15.12
  -4  -5   4  220.89   14.89
  -4  -5   4  247.03   15.23
   4   5  -4  257.99   14.82
   4   5  -4  239.92   14.31
  -4  -5   4  250.73   15.93
   4   5  -4  212.36   17.71
  -4  -5   3  147.67    9.84
   4   5  -3  112.41   13.34
   4   5  -3  155.51    9.77
   4   5  -3  138.95    9.25
  -4  -5   3  111.45    9.30
  -4  -5   3  126.89   12.32
  -4  -5   3  141.78   10.09
   4   5  -3  145.01    9.67
  -4  -5   2   20.03    3.69
  -4  -5   2   22.75    3.54
   4   5  -2   22.44    5.75
  -4  -5   2   28.52    5.69
   4   5  -2   26.64    3.67
   4   5  -2   28.30    3.84
  -4  -5   2   21.98    3.61
  -4  -5   2   25.68    4.49
   4   5  -2   34.70    4.04
  -4  -5   1    0.76    2.28
   4   5  -1    1.79    2.93
   4   5  -1   -0.19    1.73
   4   5  -1    1.68    2.21
  -4  -5   1   -1.28    2.31
  -4  -5   1   -0.25    2.36
   4   5  -1    1.19    1.95
   4   5  -1   -0.58    2.17
   4   5   0    5.48    2.25
   4   5   0    5.78    2.15
  -4  -5   0    9.65    2.58
  -4  -5   0    1.79    2.04
  -4  -5   0    3.97    2.18
   4   5   0    7.04    2.55
  -4  -5  -1   11.36    2.94
  -4  -5  -1   16.49    2.93
   4   5   1   15.26    2.72
   4   5   1   15.82    2.82
  -4  -5  -1   14.34    2.98
   4   5   2   16.54    3.40
   4   5   2   17.82    2.59
  -4  -5  -2   17.79    2.85
  -4  -5  -2   15.12    2.63
   4   5   2   18.31    2.70
   4   5   3    0.87    1.36
  -4  -5  -3    2.39    1.42
  -4  -5  -3    1.93    1.32
   4   6 -10    9.14    1.82
  -4  -6   9   20.33    3.08
   4   6  -9   18.86    2.82
  -4  -6   8   52.65    5.16
   4   6  -8   44.07    5.41
   4   6  -8   56.29    4.90
  -4  -6   7  174.19   10.84
   4   6  -7  146.45   11.68
   4   6  -7  173.74   10.28
   4   6  -6    8.76    4.01
   4   6  -6    8.94    2.49
   4   6  -6    8.90    3.45
  -4  -6   6    9.05    2.77
   4   6  -6   10.79    2.66
   4   6  -5   19.73    3.22
  -4  -6   5   14.91    3.37
   4   6  -5   14.97    4.87
   4   6  -5   16.69    3.01
  -4  -6   5   16.97    3.50
   4   6  -4   48.53    6.41
  -4  -6   4   28.93    4.14
  -4  -6   4   41.00    4.67
   4   6  -4   39.25    4.11
  -4  -6   4   37.46    4.88
   4   6  -4   44.32    4.44
   4   6  -3   56.85    8.97
   4   6  -3   92.54    6.39
   4   6  -3   93.61    8.72
   4   6  -3   77.42    6.16
  -4  -6   3   63.97    6.43
  -4  -6   3   68.73    6.23
   4   6  -3   85.56    7.72
   4   6  -3  101.65    6.75
   4   6  -2  160.12    9.28
   4   6  -2  135.03   10.70
  -4  -6   2  117.29    9.15
  -4  -6   2  123.94    9.60
   4   6  -2  143.18   10.27
  -4  -6   2  129.60    9.54
  -4  -6   1    9.68    2.58
   4   6  -1   11.85    2.36
  -4  -6   1    7.52    2.42
  -4  -6   1    6.91    2.36
  -4  -6   1    4.74    2.11
   4   6  -1    8.02    2.44
  -4  -6   0    4.02    1.92
  -4  -6   0    2.96    1.63
   4   6   0    2.72    1.60
   4   6   0    4.57    1.80
  -4  -6  -1   41.97    4.01
   4   6   1   40.77    3.49
   4   6   2   29.47    3.03
   4   7  -9   18.11    2.20
  -4  -7   8   72.76    5.75
   4   7  -8   85.44    6.61
   4   7  -8   73.59    5.14
  -4  -7   7   67.40    5.51
   4   7  -7   79.64    5.28
   4   7  -7   79.54    7.04
   4   7  -7   80.21    5.37
   4   7  -6   14.76    2.37
   4   7  -6   18.16    3.76
  -4  -7   6   19.96    3.03
   4   7  -6   17.70    2.60
  -4  -7   6   15.26    2.84
   4   7  -6   21.19    3.49
   4   7  -5   59.76    6.34
   4   7  -5   50.48    4.23
  -4  -7   5   53.21    5.12
  -4  -7   5   44.88    4.58
   4   7  -5   55.65    4.46
  -4  -7   4   18.92    2.79
   4   7  -4   19.13    3.77
  -4  -7   4   24.28    3.33
   4   7  -4   23.30    3.64
   4   7  -4   17.17    2.60
   4   7  -3    0.73    1.65
  -4  -7   3    1.91    1.90
   4   7  -3    1.59    1.30
  -4  -7   3    0.41    1.59
   4   7  -3    0.82    1.77
   4   7  -2   20.60    3.08
  -4  -7   2   20.79    2.81
   4   7  -2   23.89    3.12
   4   7  -1   11.95    2.23
   4   8  -6   -0.60    1.12
   4   8  -4   21.55    2.47
   5 -11   1   26.26    2.52
  -5  11  -2   37.36    3.16
  -5  11  -2   28.85    2.83
  -5  11  -3    5.22    1.57
  -5  11  -3    9.11    2.09
   5 -11   3    7.79    1.65
  -5  11  -3    6.70    1.46
  -5  11  -4    3.32    1.50
   5 -11   4    3.80    1.49
   5 -11   5    2.37    1.18
  -5  10   2    3.55    1.30
  -5  10   1    7.54    1.56
   5 -10  -1    7.83    2.04
  -5  10   0  108.33    7.59
   5 -10   0  116.60    7.41
  -5  10   0   91.38    6.60
  -5  10  -1  289.42   17.97
  -5  10  -1  343.58   19.02
  -5  10  -1  329.14   19.32
  -5  10  -2   28.34    3.71
   5 -10   2   21.07    3.70
  -5  10  -2   23.35    3.89
   5 -10   2   32.77    3.85
   5 -10   3   82.06    7.36
  -5  10  -3   85.85    6.81
   5 -10   3  104.04    7.52
   5 -10   3  104.83    7.16
  -5  10  -3   81.74    7.01
  -5  10  -3  102.87    8.26
   5 -10   4   61.87    5.89
   5 -10   4   75.77    6.27
  -5  10  -4   65.72    6.03
  -5  10  -4   72.85    6.39
   5 -10   5   40.83    4.38
  -5  10  -5   39.14    3.92
  -5  10  -5   53.81    5.49
  -5  10  -5   49.56    5.04
  -5  10  -5   48.16    5.13
  -5  10  -6   35.66    4.33
   5 -10   6   33.45    3.66
   5 -10   6   29.37    3.59
  -5  10  -6   42.38    3.85
  -5  10  -6   36.79    4.22
   5 -10   7   19.52    2.48
  -5  10  -7   30.30    3.06
   5 -10   7   23.73    2.92
  -5  10  -7   21.41    3.00
  -5  10  -7   21.26    3.07
  -5  10  -8    4.91    1.50
  -5   9   3   47.35    4.35
  -5   9   3   48.25    4.26
  -5   9   2   50.27    5.02
  -5   9   2   41.41    4.04
  -5   9   2   56.13    5.21
   5  -9  -2   48.06    4.59
  -5   9   1   10.75    2.60
   5  -9  -1   13.85    3.40
   5  -9   0   15.49    4.71
   5  -9   0   19.30    3.61
  -5   9   0   16.71    3.50
   5  -9   0   18.54    4.11
  -5   9   0   19.04    3.55
   5  -9   0   21.45    3.77
  -5   9   0   18.90    3.27
  -5   9   0   13.18    2.82
   5  -9   1  110.18    7.75
   5  -9   1   96.24   10.83
  -5   9  -1   98.88    8.66
   5  -9   1   88.88   10.89
  -5   9  -1  106.40    8.25
  -5   9  -1   78.59    7.38
   5  -9   1  106.06    8.20
   5  -9   2   37.67    4.82
   5  -9   2   30.98    4.66
   5  -9   2   31.15    6.42
  -5   9  -2   29.17    4.70
   5  -9   2   30.35    6.23
  -5   9  -2   32.49    4.28
   5  -9   2   36.52    5.14
  -5   9  -2   33.17    4.40
  -5   9  -2   35.15    4.69
   5  -9   3  303.21   16.41
  -5   9  -3  233.84   15.97
  -5   9  -3  276.32   15.78
   5  -9   3  294.09   16.75
   5  -9   3  294.78   16.50
  -5   9  -3  257.96   16.94
  -5   9  -3  275.95   17.55
  -5   9  -4  131.20   10.25
  -5   9  -4  135.61    8.49
   5  -9   4  123.23    9.05
  -5   9  -4  118.97    9.26
   5  -9   4  125.60    8.87
  -5   9  -4  122.54    9.65
  -5   9  -5   50.57    6.03
   5  -9   5   46.11    4.21
   5  -9   5   54.69    5.55
   5  -9   5   52.71    6.05
  -5   9  -5   61.88    5.37
   5  -9   5   53.77    5.75
  -5   9  -5   57.03    5.97
  -5   9  -5   58.09    6.16
  -5   9  -6   39.18    4.99
   5  -9   6   33.57    3.34
   5  -9   6   33.94    4.29
  -5   9  -6   42.41    4.36
  -5   9  -6   37.85    4.86
  -5   9  -6   38.37    5.08
   5  -9   7    4.57    1.44
   5  -9   7    3.43    1.80
  -5   9  -7    7.56    2.53
  -5   9  -7    4.76    2.19
   5  -9   8   39.42    4.11
   5  -9   8   35.97    3.13
  -5   9  -8   49.94    4.23
  -5   9  -8   44.55    4.59
  -5   8   5   47.23    4.48
  -5   8   5   38.02    3.69
  -5   8   4   40.88    4.54
  -5   8   4   36.53    3.67
  -5   8   3   12.23    2.68
  -5   8   3    9.45    2.95
  -5   8   3    9.62    2.92
   5  -8  -2   31.23    6.22
  -5   8   2   40.69    5.20
   5  -8  -2   39.07    7.07
   5  -8  -2   33.75    6.22
   5  -8  -2   47.68    5.03
  -5   8   2   46.56    4.79
  -5   8   1  198.72   14.39
  -5   8   1  219.99   14.74
  -5   8   1  216.51   14.85
  -5   8   1  259.22   14.27
   5  -8  -1  235.75   14.15
  -5   8   1  207.23   14.38
   5  -8   0   26.72    6.22
  -5   8   0   36.15    5.04
   5  -8   0   27.57    6.35
   5  -8   0   23.24    6.05
  -5   8   0   35.48    4.73
  -5   8   0   31.27    4.17
   5  -8   0   41.62    5.26
  -5   8   0   32.89    4.40
   5  -8   0   36.42    4.66
  -5   8  -1   32.25    4.72
   5  -8   1   28.04    6.32
   5  -8   1   13.87    4.91
  -5   8  -1   24.91    4.46
   5  -8   1   17.40    5.33
  -5   8  -1   24.52    3.90
   5  -8   1   26.61    3.73
  -5   8  -1   15.65    3.32
  -5   8  -1   23.47    3.97
   5  -8   1   20.36    4.40
   5  -8   2  308.71   22.83
   5  -8   2  328.11   18.08
  -5   8  -2  310.77   19.65
  -5   8  -2  302.47   19.62
   5  -8   2  316.71   23.56
  -5   8  -2  253.79   17.65
   5  -8   2  333.36   17.76
   5  -8   2  312.57   18.29
  -5   8  -2  289.33   18.48
  -5   8  -2  310.56   17.62
   5  -8   2  342.15   18.72
  -5   8  -2  296.88   19.02
   5  -8   3  173.88   11.47
  -5   8  -3  181.60   11.09
   5  -8   3  176.03   11.05
   5  -8   3  121.34   14.67
   5  -8   3  180.98   11.62
  -5   8  -3  176.77   12.09
  -5   8  -3  164.89   11.85
   5  -8   3  131.59   13.16
   5  -8   3  168.88   11.63
  -5   8  -3  151.42   11.93
   5  -8   4  444.06   24.74
   5  -8   4  333.17   28.87
  -5   8  -4  501.91   24.83
  -5   8  -4  407.51   25.98
   5  -8   4  446.73   24.81
   5  -8   4  453.43   24.55
   5  -8   4  458.29   24.83
  -5   8  -4  470.01   25.64
  -5   8  -4  424.49   25.75
   5  -8   4  400.66   28.16
   5  -8   4  467.86   25.19
   5  -8   5  666.31   34.14
  -5   8  -5  611.07   35.40
   5  -8   5  603.22   32.73
   5  -8   5  644.77   34.70
  -5   8  -5  670.05   34.00
   5  -8   5  701.78   34.16
  -5   8  -5  664.46   34.61
  -5   8  -5  665.40   35.85
   5  -8   5  594.49   38.21
  -5   8  -5  669.69   37.51
   5  -8   6   65.04    5.31
   5  -8   6   72.12    6.57
  -5   8  -6   73.40    6.41
  -5   8  -6   85.35    7.64
  -5   8  -6   70.62    7.01
   5  -8   7    2.00    1.43
   5  -8   7   -0.42    1.98
  -5   8  -7    0.60    2.16
   5  -8   8   23.36    3.19
   5  -8   8   15.67    3.09
   5  -8   8   22.50    2.56
   5  -8   8   17.57    2.75
  -5   8  -8   22.44    3.76
   5  -8   9   29.47    3.48
  -5   8  -9   46.02    3.94
  -5   8  -9   41.87    4.36
   5  -8   9   33.67    2.92
  -5   7   6   21.16    3.37
  -5   7   6   18.53    2.78
  -5   7   5   39.60    4.77
  -5   7   5   45.74    4.20
  -5   7   4  151.18   11.40
   5  -7  -4   98.09   11.93
  -5   7   4  158.04   10.99
   5  -7  -4  100.96   11.82
  -5   7   4  184.62   10.30
  -5   7   3   -0.64    2.17
   5  -7  -3   -1.05    2.66
   5  -7  -3    1.75    2.95
  -5   7   3    0.33    2.22
  -5   7   3   -0.58    2.57
   5  -7  -3   -0.49    2.14
   5  -7  -3    1.15    2.62
  -5   7   2  157.31    9.95
   5  -7  -2  127.18   12.76
   5  -7  -2  113.11   12.64
  -5   7   2  139.73   10.82
   5  -7  -2  118.92   12.21
   5  -7  -2  118.15   11.92
  -5   7   2  135.51   10.37
   5  -7  -1   82.81   10.10
  -5   7   1   81.33    7.79
   5  -7  -1   72.69    9.96
  -5   7   1   95.05    8.04
  -5   7   1  110.35    7.59
   5  -7  -1   97.55   10.47
  -5   7   1   88.72    7.98
  -5   7   1   88.27    7.81
  -5   7   1   81.02    7.46
   5  -7   0   96.28   11.61
  -5   7   0  124.94    9.53
  -5   7   0  107.42    9.09
   5  -7   0  117.90   12.21
  -5   7   0  107.31    8.53
   5  -7   0  122.23    8.21
  -5   7   0  117.08    8.88
  -5   7   0   92.99    8.11
  -5   7  -1   33.83    4.83
  -5   7  -1   33.07    4.66
   5  -7   1   27.02    6.46
   5  -7   1   30.03    6.43
  -5   7  -1   25.50    3.82
  -5   7  -1   44.46    4.37
   5  -7   1   36.81    4.36
  -5   7  -1   30.27    4.08
   5  -7   1   33.54    5.43
   5  -7   1   34.59    4.78
  -5   7  -1   27.00    4.17
   5  -7   1   45.49    7.20
   5  -7   2   52.30    7.91
   5  -7   2   49.95    8.07
   5  -7   2   46.93    7.74
  -5   7  -2   37.18    4.38
  -5   7  -2   53.39    4.89
   5  -7   2   48.15    5.03
  -5   7  -2   50.95    5.59
   5  -7   2   42.97    6.52
  -5   7  -2   37.80    4.71
   5  -7   2   50.41    5.58
  -5   7  -3   18.13    3.76
   5  -7   3   15.32    5.02
  -5   7  -3   18.72    3.23
  -5   7  -3   16.61    3.60
   5  -7   3   15.43    3.49
   5  -7   3   13.54    4.57
   5  -7   3   12.55    2.38
   5  -7   3   13.65    3.74
  -5   7  -3   21.12    3.74
  -5   7  -3   12.33    3.01
   5  -7   3   17.48    4.54
   5  -7   3   14.60    4.28
   5  -7   3   15.73    3.81
   5  -7   4  101.68    8.03
  -5   7  -4   92.93    8.33
  -5   7  -4   95.05    8.58
   5  -7   4  101.10    8.11
  -5   7  -4  108.23    7.73
   5  -7   4  105.94    8.01
   5  -7   4   87.65    7.01
   5  -7   4   95.70    7.77
  -5   7  -4  112.67    8.54
  -5   7  -4  106.34    8.65
   5  -7   4   87.14   10.21
  -5   7  -4   96.61    9.89
   5  -7   4  100.79    7.96
   5  -7   4   71.12   10.08
   5  -7   5   40.69    5.90
  -5   7  -5   35.94    5.00
  -5   7  -5   28.92    4.46
   5  -7   5   33.76    3.52
   5  -7   5   38.59    4.72
   5  -7   5   22.66    5.70
  -5   7  -5   40.70    4.56
   5  -7   5   36.13    5.15
  -5   7  -5   31.46    4.41
  -5   7  -5   43.50    5.36
  -5   7  -5   29.54    5.74
   5  -7   6  427.99   22.77
   5  -7   6  373.50   21.07
   5  -7   6  417.22   22.92
  -5   7  -6  389.81   22.44
  -5   7  -6  405.93   24.05
   5  -7   6  403.27   27.16
  -5   7  -6  359.92   24.88
  -5   7  -7  112.04    8.54
   5  -7   7  116.61    7.85
   5  -7   7  127.93    9.08
  -5   7  -7  128.79    8.90
  -5   7  -7  129.94   10.32
   5  -7   8   16.01    3.06
   5  -7   8   10.21    2.77
  -5   7  -8   12.57    2.94
   5  -7   8   10.86    2.06
  -5   7  -8   14.61    3.04
   5  -7   8    9.71    2.39
  -5   7  -8   17.13    3.54
   5  -7   9   37.75    3.79
  -5   7  -9   29.64    3.49
   5  -7   9   27.64    2.85
  -5   7  -9   34.17    3.60
  -5   7  -9   35.31    4.27
   5  -7  10   27.91    3.02
  -5   7 -10   19.57    2.39
  -5   6   7   24.09    3.17
  -5   6   7   33.63    4.19
  -5   6   6   48.83    5.82
  -5   6   6   48.37    5.35
  -5   6   5   10.03    2.71
  -5   6   5    7.13    3.01
  -5   6   5    8.51    2.42
   5  -6  -4   51.07    7.67
  -5   6   4   69.39    7.29
   5  -6  -4   40.26    7.18
  -5   6   4   69.79    6.94
  -5   6   4   65.97    6.23
   5  -6  -4   55.19    7.82
  -5   6   3    8.01    2.72
   5  -6  -3    5.40    3.23
  -5   6   3    7.74    2.93
   5  -6  -3    8.38    3.08
   5  -6  -3    6.54    2.94
   5  -6  -3    7.84    3.82
   5  -6  -3    4.39    3.17
  -5   6   2  323.70   17.09
  -5   6   2  266.03   16.96
  -5   6   2  270.60   17.40
   5  -6  -2  262.90   20.34
  -5   6   2  269.75   17.82
  -5   6   2  311.51   17.84
   5  -6  -2  311.34   20.85
   5  -6  -2  282.41   20.25
   5  -6  -2  320.11   20.34
  -5   6   2  271.58   17.40
   5  -6  -2  222.92   19.46
   5  -6  -1  157.30   13.20
  -5   6   1  129.51   10.27
   5  -6  -1  137.62   12.96
  -5   6   1  130.55   10.31
   5  -6  -1  157.28   12.67
  -5   6   1  143.91   10.16
  -5   6   1  148.77    9.48
  -5   6   1  160.62   10.49
  -5   6   1  126.79    9.62
  -5   6   1  131.67    9.88
  -5   6   1  158.04   10.73
  -5   6   0  152.59   10.91
  -5   6   0  144.38   10.04
  -5   6   0  173.57    9.98
   5  -6   0  131.81    9.12
  -5   6   0  159.68   11.03
  -5   6   0  160.23   10.63
  -5   6   0  133.58   10.02
   5  -6   1   59.16    7.95
  -5   6  -1   56.06    6.03
   5  -6   1   50.66    7.81
  -5   6  -1   54.89    5.20
  -5   6  -1   68.05    5.46
   5  -6   1   67.60    5.74
   5  -6   1   64.31    5.08
  -5   6  -1   68.73    6.45
   5  -6   2  147.81   12.72
  -5   6  -2  146.84   10.28
  -5   6  -2  139.11    8.89
   5  -6   2  129.68    9.09
   5  -6   2  111.44   10.77
   5  -6   2  126.89    8.62
   5  -6   2  117.04   11.25
  -5   6  -2  145.26    9.82
  -5   6  -2  122.44    9.17
   5  -6   2  134.14   11.89
   5  -6   2  111.61   11.99
  -5   6  -2  143.51   10.29
   5  -6   3  102.30    7.91
  -5   6  -3   93.65    8.17
  -5   6  -3  101.49    7.31
   5  -6   3   89.88    9.21
   5  -6   3  104.63    7.34
  -5   6  -3  112.87    8.26
   5  -6   3   90.10    9.85
  -5   6  -3   89.51    7.67
   5  -6   3   82.80    9.43
  -5   6  -3   88.00    9.05
   5  -6   3   94.48    7.40
  -5   6  -3  119.28    8.66
  -5   6  -4   83.77    7.20
   5  -6   4   77.74    7.17
  -5   6  -4   80.86    6.38
   5  -6   4   75.50    6.67
  -5   6  -4   72.20    7.05
   5  -6   4   80.01    6.71
   5  -6   4   69.38    6.15
  -5   6  -4   79.54    7.05
  -5   6  -4   87.99    7.64
  -5   6  -4   69.35    8.22
   5  -6   4   74.34    6.46
   5  -6   5  124.49    9.19
  -5   6  -5   88.87    8.29
   5  -6   5  119.93    8.69
  -5   6  -5  129.76    8.72
   5  -6   5  114.09    8.85
  -5   6  -5  120.14    8.46
   5  -6   5  121.95    9.12
   5  -6   5  115.23    8.66
  -5   6  -5  133.03    9.38
   5  -6   5  112.94   11.78
   5  -6   6  755.85   37.56
   5  -6   6  719.92   37.85
  -5   6  -6  752.35   37.31
  -5   6  -6  753.35   37.43
  -5   6  -6  632.40   37.36
   5  -6   6  707.47   42.30
  -5   6  -6  734.65   39.15
  -5   6  -6  664.20   39.93
   5  -6   6  678.67   36.11
  -5   6  -7  299.84   16.46
   5  -6   7  269.55   16.57
   5  -6   7  258.05   15.35
  -5   6  -7  298.02   18.00
   5  -6   7  262.87   16.21
  -5   6  -7  287.76   16.62
   5  -6   8   36.92    4.48
   5  -6   8   25.74    3.04
  -5   6  -8   35.50    4.35
  -5   6  -8   30.22    3.74
  -5   6  -8   25.34    3.99
   5  -6   8   29.26    3.84
  -5   6  -9   43.78    4.42
   5  -6   9   40.30    3.47
  -5   6  -9   32.27    3.60
   5  -6   9   43.30    4.20
   5  -6  10   15.87    2.24
  -5   6 -10   17.63    2.47
   5  -6  10   23.19    2.86
  -5   6 -10   16.45    2.59
  -5   5   7   -0.23    1.88
  -5   5   7    2.13    2.46
  -5   5   7    0.52    1.51
   5  -5  -6   45.35    7.44
  -5   5   6   56.51    6.71
  -5   5   6   60.89    6.32
  -5   5   6   44.96    5.06
  -5   5   6   70.20    5.96
  -5   5   5    1.11    3.01
   5  -5  -5    0.47    2.16
  -5   5   5    1.75    2.43
  -5   5   5    4.23    2.86
   5  -5  -5    0.99    2.59
  -5   5   5    4.28    2.05
  -5   5   5    4.48    2.31
   5  -5  -4   25.39    5.04
  -5   5   4   29.25    4.35
   5  -5  -4   28.59    5.39
  -5   5   4   36.45    4.90
   5  -5  -4   18.70    4.38
  -5   5   4   33.41    4.01
  -5   5   4   40.54    4.48
   5  -5  -3   38.93    5.99
  -5   5   3   40.69    4.41
  -5   5   3   33.58    4.82
   5  -5  -3   35.87    5.97
   5  -5  -3   31.41    5.01
   5  -5  -3   33.76    5.45
   5  -5  -3   36.53    5.78
  -5   5   3   41.71    4.39
   5  -5  -2  232.55   15.76
  -5   5   2  183.84   12.98
   5  -5  -2  188.83   13.98
   5  -5  -2  224.23   16.06
  -5   5   2  200.28   13.48
   5  -5  -2  234.12   15.02
  -5   5   2  225.64   13.31
  -5   5   2  183.46   12.09
   5  -5  -2  203.66   14.95
  -5   5   2  186.25   12.62
   5  -5  -1  149.62   12.16
  -5   5   1  141.96   10.15
   5  -5  -1  130.18   11.05
   5  -5  -1  139.81   12.24
  -5   5   1  130.31    9.93
  -5   5   1  145.91    9.68
  -5   5   1  151.21    9.30
   5  -5  -1  139.85   11.46
  -5   5   1  140.35    9.72
  -5   5   1  138.51    9.40
   5  -5   0  776.43   39.15
  -5   5   0  781.33   36.47
  -5   5   0  623.42   35.45
  -5   5   0  675.58   34.91
  -5   5   0  735.34   34.82
   5  -5   0  609.29   34.42
   5  -5   0  665.64   37.42
  -5   5   0  695.82   35.47
  -5   5   0  631.52   35.33
  -5   5   0  699.55   35.30
   5  -5   0  628.53   34.24
  -5   5  -1  246.20   14.09
   5  -5   1  265.99   18.45
  -5   5  -1  271.08   14.28
   5  -5   1  249.85   14.20
   5  -5   1  247.91   16.51
  -5   5  -1  254.31   14.90
   5  -5   1  210.39   13.63
  -5   5  -2  167.28   10.50
  -5   5  -2  132.08    8.90
   5  -5   2  132.13   10.91
   5  -5   2  143.48    9.19
  -5   5  -2  132.68    9.60
   5  -5   2  129.43   11.51
  -5   5  -2  134.54    9.59
  -5   5  -2  136.87    9.37
   5  -5   2  140.76    8.91
  -5   5  -3   27.49    3.55
  -5   5  -3   29.76    4.05
   5  -5   3   24.71    3.90
   5  -5   3   21.22    4.39
   5  -5   3   27.18    3.49
  -5   5  -3   25.79    3.70
  -5   5  -3   30.71    3.97
   5  -5   3   28.51    5.28
  -5   5  -3   24.62    3.45
   5  -5   3   24.73    3.54
   5  -5   3   24.38    3.17
  -5   5  -3   26.60    3.43
   5  -5   4   64.60    6.13
   5  -5   4   54.69    5.33
  -5   5  -4   60.19    5.35
   5  -5   4   61.19    5.54
  -5   5  -4   58.25    5.16
   5  -5   4   60.46    5.70
   5  -5   4   64.70    5.76
  -5   5  -4   64.21    5.93
   5  -5   4   57.90    7.74
  -5   5  -4   60.64    6.08
  -5   5  -4   58.25    6.05
  -5   5  -4   52.95    6.69
  -5   5  -4   56.09    5.34
  -5   5  -4   55.56    5.57
   5  -5   5   94.81    7.74
  -5   5  -5   88.28    7.15
   5  -5   5  103.95    7.75
  -5   5  -5   98.08    7.14
  -5   5  -5   89.46    8.08
   5  -5   5   90.61    7.52
  -5   5  -5   93.02    7.73
   5  -5   5   75.30    9.53
  -5   5  -5  104.55    8.54
  -5   5  -5  101.82    8.64
  -5   5  -5   81.14    8.78
  -5   5  -6  251.03   14.96
   5  -5   6  224.98   13.63
   5  -5   6  247.20   15.12
  -5   5  -6  262.04   14.58
  -5   5  -6  252.54   16.46
  -5   5  -6  257.52   15.44
   5  -5   6  228.56   18.46
  -5   5  -6  243.62   16.28
  -5   5  -6  238.20   16.41
  -5   5  -6  221.27   16.74
   5  -5   7   21.18    3.93
   5  -5   7   16.70    2.60
   5  -5   7   19.69    3.42
  -5   5  -7   25.80    3.21
  -5   5  -7   13.95    3.79
  -5   5  -7   16.33    3.02
  -5   5  -7   21.97    4.06
  -5   5  -7   18.54    3.65
  -5   5  -7   22.61    4.19
  -5   5  -7   16.27    4.51
   5  -5   7   23.72    3.64
  -5   5  -7   18.95    3.64
   5  -5   8  134.23    9.47
  -5   5  -8  144.12    9.28
   5  -5   8  112.19    7.64
  -5   5  -8  102.47    7.71
  -5   5  -8  128.67    9.99
  -5   5  -8  122.37    9.36
   5  -5   8  120.05    8.82
   5  -5   9   54.68    5.04
   5  -5   9   42.35    3.76
  -5   5  -9   55.84    5.08
  -5   5  -9   49.85    4.89
   5  -5   9   52.22    4.85
   5  -5  10   12.06    2.02
  -5   5 -10   11.88    2.20
  -5   4   9   19.32    2.67
  -5   4   8   12.10    2.86
  -5   4   8   13.92    2.88
  -5   4   7   38.83    4.84
  -5   4   7   31.47    5.16
  -5   4   7   36.70    4.98
  -5   4   7   30.76    4.19
  -5   4   6  359.14   20.17
   5  -4  -6  274.61   23.23
  -5   4   6  348.36   21.90
  -5   4   6  363.05   21.29
  -5   4   6  367.86   20.23
   5  -4  -6  281.80   22.81
   5  -4  -6  351.45   24.68
  -5   4   6  364.47   20.41
  -5   4   5  110.70    8.46
  -5   4   5  104.00    9.45
  -5   4   5  124.73    9.46
   5  -4  -5   94.33   10.53
  -5   4   5  109.69    8.47
  -5   4   5  120.49    8.57
  -5   4   4   75.72    6.25
  -5   4   4   75.93    6.24
  -5   4   4   87.93    7.28
   5  -4  -4   59.48    7.49
  -5   4   4   81.11    6.60
   5  -4  -4   75.22    8.00
   5  -4  -4   62.04    7.21
   5  -4  -3  147.61   11.84
   5  -4  -3  163.35   11.87
  -5   4   3  144.04    9.65
  -5   4   3  137.76    9.67
   5  -4  -3  159.33   12.44
  -5   4   3  143.03   10.91
  -5   4   3  178.77   11.01
   5  -4  -3  161.42   12.30
  -5   4   3  133.65    9.75
  -5   4   3  160.58    9.79
  -5   4   3  168.90   10.53
  -5   4   3  159.58   10.02
  -5   4   2  527.33   26.34
   5  -4  -2  541.24   29.37
  -5   4   2  446.54   25.81
   5  -4  -2  569.50   30.19
   5  -4  -2  508.73   28.89
  -5   4   2  517.65   27.76
  -5   4   2  595.60   27.46
  -5   4   2  508.77   26.37
   5  -4  -2  503.87   28.96
  -5   4   2  469.42   26.07
  -5   4   2  474.16   28.79
   5  -4  -2  442.39   25.67
  -5   4   2  486.54   26.58
  -5   4   2  536.78   26.68
  -5   4   2  488.06   26.56
   5  -4  -1  701.44   37.13
  -5   4   1  790.99   35.68
   5  -4  -1  736.89   38.01
  -5   4   1  674.07   33.96
  -5   4   1  610.09   34.38
  -5   4   1  618.58   36.68
   5  -4  -1  672.77   36.77
  -5   4   1  653.33   34.30
   5  -4  -1  637.50   33.50
  -5   4   1  638.41   34.23
  -5   4   1  636.54   34.26
   5  -4   0  225.40   15.22
  -5   4   0  268.21   13.99
   5  -4   0  237.94   15.95
   5  -4   0  204.37   14.69
  -5   4   0  203.67   12.20
  -5   4   0  205.95   12.65
   5  -4   0  218.55   12.62
   5  -4   0  192.26   14.22
  -5   4   0  199.94   14.83
  -5   4   0  212.63   12.76
  -5   4   0  214.67   12.79
   5  -4   0  207.63   14.95
  -5   4   0  193.78   12.61
   5  -4   0  205.86   12.37
  -5   4  -1  153.82    9.43
   5  -4   1  111.70    9.61
   5  -4   1  128.52    8.25
  -5   4  -1  106.95    9.88
  -5   4  -1  120.96    8.41
  -5   4  -1  113.81    8.23
  -5   4  -1  113.65    8.09
   5  -4   1  142.01   10.92
  -5   4  -1  115.66    8.33
   5  -4   1  123.41    8.07
   5  -4   2   87.21    6.33
  -5   4  -2   81.37    6.06
   5  -4   2   81.73    7.93
   5  -4   2   82.34    6.39
   5  -4   2   95.70    6.64
  -5   4  -2   80.26    8.02
  -5   4  -2   78.72    6.15
  -5   4  -2   90.17    6.61
  -5   4  -2   89.33    6.72
  -5   4  -2   78.99    6.27
   5  -4   2   78.09    8.20
  -5   4  -2   98.62    6.88
  -5   4  -2   71.93    7.43
  -5   4  -2   88.85    6.70
   5  -4   2   88.61    6.43
  -5   4  -3   49.86    4.66
  -5   4  -3   44.12    4.32
  -5   4  -3   53.46    4.93
   5  -4   3   54.21    4.94
  -5   4  -3   40.39    5.71
  -5   4  -3   63.84    5.46
  -5   4  -3   47.20    4.85
  -5   4  -3   56.62    5.17
  -5   4  -3   54.05    5.14
  -5   4  -3   42.77    5.86
  -5   4  -3   52.39    4.83
  -5   4  -3   43.44    4.40
   5  -4   3   53.00    4.74
   5  -4   4   27.79    4.25
  -5   4  -4   28.33    3.73
  -5   4  -4   31.42    3.63
  -5   4  -4   36.04    4.20
   5  -4   4   31.52    4.18
   5  -4   4   34.76    3.93
  -5   4  -4   37.43    4.38
  -5   4  -4   31.67    4.13
   5  -4   4   24.01    5.20
  -5   4  -4   38.59    4.48
  -5   4  -4   35.62    4.43
  -5   4  -4   28.90    3.53
  -5   4  -4   29.43    4.95
  -5   4  -4   28.31    3.34
   5  -4   4   31.36    3.52
  -5   4  -5   77.35    6.57
   5  -4   5   85.08    6.82
  -5   4  -5   84.00    6.21
  -5   4  -5   88.79    7.55
   5  -4   5   82.74    7.04
  -5   4  -5   77.43    7.04
   5  -4   5   80.57    9.26
  -5   4  -5   90.35    7.75
  -5   4  -5   79.95    7.31
  -5   4  -5   76.95    7.38
  -5   4  -5   60.74    7.40
   5  -4   5   77.93    6.31
  -5   4  -6  217.08   13.56
   5  -4   6  198.95   12.13
   5  -4   6  223.13   13.64
  -5   4  -6  200.57   12.45
  -5   4  -6  225.44   14.80
   5  -4   6  231.13   13.61
  -5   4  -6  198.00   13.58
  -5   4  -6  232.25   14.94
  -5   4  -6  228.36   15.03
  -5   4  -6  183.22   14.62
   5  -4   7   64.33    6.35
   5  -4   7   62.78    4.98
  -5   4  -7   75.46    7.12
   5  -4   7   59.88    5.72
  -5   4  -7   48.85    5.42
  -5   4  -7   57.49    6.37
  -5   4  -7   67.16    6.63
  -5   4  -7   64.61    6.81
   5  -4   8  101.64    7.88
   5  -4   8   83.30    6.17
  -5   4  -8  102.13    8.30
   5  -4   8   77.49    6.67
  -5   4  -8   99.87    8.17
  -5   4  -8  101.51    8.02
  -5   4  -8   93.23    8.18
   5  -4   9   15.86    2.82
   5  -4   9   20.72    3.09
  -5   4  -9   14.58    2.90
  -5   4  -9   14.07    2.64
   5  -4  10    5.82    1.51
  -5   4 -10    7.89    1.77
   5  -4  10    5.79    1.50
  -5   3   9   47.38    4.96
  -5   3   8   13.73    3.62
   5  -3  -8   16.77    4.95
  -5   3   8   13.33    3.32
  -5   3   8   13.99    3.33
  -5   3   7   78.27    8.17
  -5   3   7   89.57    7.87
  -5   3   7   78.83    7.31
  -5   3   7   87.33    7.33
  -5   3   6  277.10   16.36
  -5   3   6  252.05   16.02
  -5   3   6  260.34   17.71
  -5   3   6  268.18   16.60
  -5   3   6  310.76   17.72
  -5   3   6  272.40   16.14
   5  -3  -6  276.45   19.78
  -5   3   6  277.50   16.27
   5  -3  -5  180.28   16.04
  -5   3   5  191.39   13.83
  -5   3   5  233.49   13.96
   5  -3  -5  199.95   15.65
  -5   3   5  194.61   12.86
   5  -3  -5  177.59   15.52
  -5   3   5  209.64   13.08
   5  -3  -4   89.92    8.32
   5  -3  -4   69.18    7.26
  -5   3   4   78.37    6.45
   5  -3  -4   74.85    7.81
  -5   3   4   85.53    7.59
  -5   3   4   90.27    6.46
  -5   3   4   87.92    6.91
   5  -3  -4   97.79    8.58
  -5   3   4   81.44    6.43
  -5   3   4   82.53    7.70
   5  -3  -4  103.78    9.50
  -5   3   4   96.06    7.13
   5  -3  -3  685.84   36.21
   5  -3  -3  696.53   35.73
  -5   3   3  567.30   32.73
  -5   3   3  599.41   33.19
  -5   3   3  745.04   35.41
  -5   3   3  782.41   34.71
  -5   3   3  646.74   34.01
   5  -3  -3  673.66   36.10
  -5   3   3  633.63   35.79
  -5   3   3  632.11   33.39
  -5   3   3  634.03   33.28
   5  -3  -3  682.95   36.23
  -5   3   3  630.94   33.18
   5  -3  -2  673.87   34.71
   5  -3  -2  632.49   34.06
   5  -3  -2  648.03   34.72
  -5   3   2  609.92   34.48
   5  -3  -2  620.06   34.28
  -5   3   2  595.24   31.77
   5  -3  -2  613.64   31.71
  -5   3   2  595.27   31.82
   5  -3  -1  163.12   12.04
   5  -3  -1  185.08   12.71
  -5   3   1  167.31   10.24
  -5   3   1  155.31   12.02
  -5   3   1  157.56    9.90
   5  -3  -1  154.00    9.70
  -5   3   1  157.00    9.98
  -5   3   0  117.88    7.83
  -5   3   0  112.18    7.94
   5  -3   0  104.20    9.30
   5  -3   0  115.52    9.70
  -5   3   0  119.24    7.93
   5  -3   0  111.39    7.63
   5  -3   0  120.32   10.00
  -5   3   0  127.05    8.16
   5  -3   0  125.02    8.04
   5  -3   0  120.69    7.73
   5  -3   1 1049.54   58.00
   5  -3   1 1123.44   57.38
  -5   3  -1 1012.36   54.61
  -5   3  -1 1075.38   55.42
  -5   3  -1 1060.35   57.68
   5  -3   1 1117.49   55.26
  -5   3  -1 1114.03   55.45
  -5   3  -1 1168.87   54.87
  -5   3  -1 1128.47   55.11
   5  -3   1 1096.63   58.09
  -5   3  -1 1112.37   55.45
   5  -3   1 1141.71   55.35
   5  -3   1 1101.80   54.92
   5  -3   2  115.74   10.65
   5  -3   2  126.78    8.31
  -5   3  -2  124.20    8.70
  -5   3  -2  112.44    9.90
   5  -3   2  118.20    8.13
   5  -3   2  126.79    8.58
  -5   3  -2  125.40    8.79
  -5   3  -2  146.96    8.73
  -5   3  -2  140.37    8.87
  -5   3  -2  131.83    8.58
  -5   3  -2  113.84    9.28
  -5   3  -2  131.33    8.73
   5  -3   2  122.97    8.30
  -5   3  -3   81.63    5.97
  -5   3  -3   77.34    6.57
   5  -3   3   81.83    6.23
  -5   3  -3   82.01    7.94
   5  -3   3   81.50    6.58
  -5   3  -3  100.40    7.41
  -5   3  -3  100.79    7.12
  -5   3  -3   78.66    6.11
  -5   3  -3   98.75    7.22
  -5   3  -3   94.84    7.07
  -5   3  -3   86.69    7.59
  -5   3  -3   96.73    6.87
  -5   3  -3   65.25    6.61
   5  -3   4    8.44    2.25
  -5   3  -4    8.95    2.01
  -5   3  -4    6.33    2.16
  -5   3  -4    4.49    1.93
   5  -3   4    4.15    2.42
   5  -3   4    6.82    2.40
  -5   3  -4    4.05    2.09
  -5   3  -4    7.82    2.42
   5  -3   4    7.72    3.47
  -5   3  -4    5.77    2.22
  -5   3  -4    5.60    2.16
  -5   3  -4    6.23    2.95
  -5   3  -4    7.68    1.98
   5  -3   4    5.68    1.90
   5  -3   5  365.70   20.93
   5  -3   5  410.61   22.63
  -5   3  -5  442.06   23.63
   5  -3   5  414.03   22.75
  -5   3  -5  395.88   23.05
  -5   3  -5  418.78   23.59
  -5   3  -5  424.98   23.54
  -5   3  -5  455.33   24.04
  -5   3  -5  345.40   23.13
   5  -3   5  381.51   22.26
  -5   3  -6  207.26   12.72
   5  -3   6  186.32   11.36
  -5   3  -6  209.58   13.77
   5  -3   6  211.63   13.09
  -5   3  -6  199.59   13.06
  -5   3  -6  187.21   13.40
  -5   3  -6  203.79   13.86
   5  -3   6  202.20   12.78
  -5   3  -7   16.51    3.56
   5  -3   7   11.54    2.26
  -5   3  -7   14.69    3.52
   5  -3   7   14.22    3.16
  -5   3  -7   10.54    2.81
  -5   3  -7   18.60    3.76
  -5   3  -7   11.41    3.20
  -5   3  -7   16.61    3.52
   5  -3   7   14.58    3.25
  -5   3  -8  127.57    8.41
   5  -3   8  115.17    8.75
  -5   3  -8  119.41    9.09
   5  -3   8   98.83    7.93
  -5   3  -8  105.12    8.69
  -5   3  -8  117.30    8.75
  -5   3  -8   99.88    8.70
   5  -3   8  115.63    8.33
   5  -3   9   20.52    2.92
  -5   3  -9   21.11    2.92
   5  -3   9   17.50    2.74
  -5   3  -9   19.82    3.00
   5  -3   9    8.45    2.09
  -5   3  -9   19.41    2.81
   5  -3   9   17.50    2.61
  -5   2  10   13.29    2.06
  -5   2  10   19.34    3.12
  -5   2   9   59.07    5.38
  -5   2   9   45.61    4.29
  -5   2   9   60.63    5.91
  -5   2   8   66.51    5.96
   5  -2  -8   60.54    8.99
  -5   2   8   48.23    4.70
  -5   2   8   70.38    6.55
  -5   2   7   70.10    6.39
   5  -2  -7   53.29    7.98
  -5   2   7   65.27    5.95
   5  -2  -7   71.83    9.54
  -5   2   7   65.89    6.70
   5  -2  -6   32.50    6.20
  -5   2   6   33.34    4.13
  -5   2   6   38.85    4.87
   5  -2  -6   34.77    6.33
   5  -2  -6   39.80    6.83
  -5   2   6   38.09    4.70
  -5   2   5  215.21   13.16
   5  -2  -5  189.23   15.96
  -5   2   5  241.37   13.63
  -5   2   5  177.66   11.96
  -5   2   5  199.65   12.52
   5  -2  -5  167.57   13.77
   5  -2  -5  193.96   15.33
   5  -2  -5  217.73   15.94
   5  -2  -4  468.34   27.89
  -5   2   4  390.42   22.65
  -5   2   4  523.56   24.28
  -5   2   4  434.82   23.29
  -5   2   4  428.30   25.00
   5  -2  -4  444.16   25.80
   5  -2  -4  453.87   26.46
  -5   2   4  369.21   22.40
  -5   2   3  254.92   16.21
  -5   2   3  256.44   14.20
  -5   2   3  223.35   13.47
   5  -2  -3  247.11   16.29
  -5   2   3  231.89   13.46
   5  -2  -3  224.37   16.23
   5  -2  -2  465.40   26.50
  -5   2   2  403.52   22.35
  -5   2   2  449.32   25.29
   5  -2  -2  429.57   25.10
  -5   2   2  416.36   22.43
   5  -2  -2  404.05   24.57
   5  -2  -1  213.46   14.50
   5  -2  -1  232.93   15.41
  -5   2   1  192.15   11.96
  -5   2   1  217.63   14.80
  -5   2   1  206.15   12.47
  -5   2   1  210.22   12.51
  -5   2   1  204.50   12.20
   5  -2  -1  218.11   12.49
   5  -2  -1  222.86   14.88
  -5   2   1  221.17   12.63
   5  -2  -1  201.65   13.84
   5  -2  -1  234.28   12.68
   5  -2   0  441.72   25.19
   5  -2   0  430.91   25.06
  -5   2   0  411.50   24.93
  -5   2   0  408.70   22.79
  -5   2   0  424.93   22.45
   5  -2   0  440.25   22.62
  -5   2   0  412.62   22.53
   5  -2   0  366.35   23.23
  -5   2   0  427.65   22.82
   5  -2   0  427.98   22.66
   5  -2   0  446.85   22.72
   5  -2   1   23.97    3.91
   5  -2   1   22.65    4.26
  -5   2  -1   27.94    4.38
  -5   2  -1   20.74    2.64
   5  -2   1   24.39    3.00
  -5   2  -1   25.74    3.18
  -5   2  -1   27.30    3.13
  -5   2  -1   22.01    2.76
  -5   2  -1   26.23    3.20
   5  -2   1   23.83    3.03
   5  -2   1   21.16    2.87
  -5   2  -1   18.89    3.22
  -5   2  -2    8.98    2.23
   5  -2   2    7.23    1.96
   5  -2   2    8.73    1.87
  -5   2  -2    8.95    2.36
   5  -2   2    9.66    2.14
  -5   2  -2    5.57    2.63
  -5   2  -2    9.93    2.31
  -5   2  -2    7.28    1.91
  -5   2  -2    9.72    2.30
  -5   2  -2    8.60    2.09
  -5   2  -2    7.13    1.87
  -5   2  -2    9.58    2.26
   5  -2   2    8.16    2.07
   5  -2   2    7.09    2.00
   5  -2   2    8.24    2.90
  -5   2  -2    9.48    2.65
  -5   2  -3   50.57    4.59
   5  -2   3   40.51    4.03
  -5   2  -3   55.24    5.09
  -5   2  -3   37.52    5.30
   5  -2   3   43.66    4.47
  -5   2  -3   55.32    5.06
  -5   2  -3   49.95    5.00
  -5   2  -3   55.42    5.14
  -5   2  -3   40.71    5.06
  -5   2  -3   48.59    4.75
  -5   2  -3   45.12    5.53
   5  -2   4    4.34    1.95
  -5   2  -4    2.81    2.15
   5  -2   4    1.10    1.61
  -5   2  -4    3.89    2.09
   5  -2   4    3.84    1.90
  -5   2  -4    2.00    1.88
  -5   2  -4    5.11    2.27
  -5   2  -4    2.97    2.06
  -5   2  -4    2.91    1.64
   5  -2   4    4.10    2.09
  -5   2  -4    4.37    2.45
   5  -2   4    2.78    1.55
   5  -2   5  590.38   31.48
  -5   2  -5  606.72   30.92
   5  -2   5  536.40   29.67
   5  -2   5  507.55   30.22
  -5   2  -5  514.31   30.65
   5  -2   5  611.53   31.67
  -5   2  -5  600.91   32.05
  -5   2  -5  625.94   32.45
  -5   2  -5  568.73   32.01
  -5   2  -5  669.21   32.75
  -5   2  -5  675.13   32.90
   5  -2   5  606.66   31.57
  -5   2  -5  528.33   33.14
   5  -2   6  157.05   10.78
  -5   2  -6  143.20   10.08
   5  -2   6  152.04   10.82
   5  -2   6  113.51    9.35
   5  -2   6  150.35   10.59
  -5   2  -6  136.44   10.53
  -5   2  -6  180.76   11.79
  -5   2  -6  153.63   11.13
  -5   2  -6  169.03   11.76
   5  -2   6  156.34   10.71
  -5   2  -6  112.41   11.62
   5  -2   7   17.85    3.30
  -5   2  -7   14.29    3.12
   5  -2   7   11.73    2.81
  -5   2  -7   10.67    2.89
   5  -2   7   13.28    3.19
  -5   2  -7   10.75    2.75
  -5   2  -7   11.12    3.10
  -5   2  -7   11.48    3.17
  -5   2  -7   11.36    3.08
   5  -2   7   15.36    3.11
   5  -2   8   80.70    6.81
  -5   2  -8   89.42    6.52
   5  -2   8   82.06    6.86
  -5   2  -8   95.17    7.49
   5  -2   8   89.76    6.92
  -5   2  -8   89.39    7.43
  -5   2  -8   93.78    7.31
  -5   2  -8   90.86    7.44
   5  -2   8   91.82    6.69
  -5   2  -9    5.14    1.44
   5  -2   9    5.93    1.52
  -5   2  -9    5.59    1.62
  -5   1  11   13.03    2.15
  -5   1  11   10.78    1.64
  -5   1  10  115.33    8.30
  -5   1  10  129.33    8.27
  -5   1  10  106.10    7.29
  -5   1  10  137.75    9.14
   5  -1  -9  242.16   18.49
  -5   1   9  213.84   13.18
  -5   1   9  243.62   14.84
  -5   1   9  251.13   15.26
  -5   1   8   21.93    3.94
   5  -1  -8   19.18    6.05
  -5   1   8   24.10    3.78
   5  -1  -8   22.08    4.26
  -5   1   8   26.41    4.18
  -5   1   7  270.64   16.09
   5  -1  -7  263.47   19.51
   5  -1  -7  215.55   18.46
  -5   1   7  259.19   15.35
  -5   1   7  251.15   16.29
  -5   1   7  277.26   16.36
   5  -1  -7  240.46   14.55
   5  -1  -6   24.80    5.61
  -5   1   6   19.08    3.48
  -5   1   6   20.05    3.28
  -5   1   6   21.82    3.83
  -5   1   6   22.16    3.37
   5  -1  -6   26.51    5.73
  -5   1   6   25.34    3.73
  -5   1   6   24.64    3.83
   5  -1  -5    8.36    2.45
   5  -1  -5    6.66    3.39
  -5   1   5    7.96    2.44
  -5   1   5    5.66    2.09
  -5   1   5    9.93    2.88
  -5   1   5    9.76    2.40
   5  -1  -5    8.23    2.84
  -5   1   5    8.75    2.20
   5  -1  -5    4.30    3.24
   5  -1  -4  624.18   34.38
  -5   1   4  592.68   29.86
  -5   1   4  558.97   31.54
  -5   1   4  518.51   29.22
   5  -1  -4  499.07   32.18
   5  -1  -4  540.91   31.38
   5  -1  -4  549.60   32.01
  -5   1   4  582.07   29.55
   5  -1  -4  540.49   31.02
  -5   1   3   69.38    5.26
   5  -1  -3   58.06    4.80
  -5   1   3   63.11    6.74
  -5   1   3   64.91    5.30
  -5   1   3   56.79    4.72
  -5   1   3   59.28    4.99
   5  -1  -3   57.30    6.56
   5  -1  -3   51.06    6.57
  -5   1   3   55.21    4.69
   5  -1  -3   52.45    6.08
   5  -1  -3   62.02    4.61
  -5   1   2  261.59   15.25
   5  -1  -2  283.34   15.32
  -5   1   2  284.36   18.09
  -5   1   2  292.64   15.86
  -5   1   2  267.24   15.50
  -5   1   2  259.35   15.37
   5  -1  -2  306.12   15.87
   5  -1  -2  257.81   17.47
  -5   1   2  287.70   15.72
   5  -1  -2  266.67   16.52
   5  -1  -2  306.29   19.38
   5  -1  -2  263.57   14.85
   5  -1  -1  163.05   11.62
   5  -1  -1  150.61   11.98
  -5   1   1  139.61    8.92
   5  -1  -1  141.75    9.06
  -5   1   1  159.16    9.68
  -5   1   1  155.95    9.60
  -5   1   1  160.75    9.35
   5  -1  -1  158.39    9.56
  -5   1   1  153.79    8.98
   5  -1  -1  134.26    8.66
   5  -1   0  360.24   21.40
   5  -1   0  347.94   18.56
  -5   1   0  337.49   21.23
  -5   1   0  358.15   19.29
  -5   1   0  356.10   18.89
   5  -1   0  357.37   18.74
  -5   1   0  321.27   18.63
  -5   1   0  355.45   18.98
   5  -1   0  357.75   19.05
  -5   1   0  355.60   18.80
   5  -1   0  343.19   18.88
  -5   1   0  317.60   19.77
   5  -1   0  316.11   18.07
   5  -1   1  116.66    9.70
   5  -1   1   99.23    7.29
   5  -1   1  100.60    7.16
  -5   1  -1  121.55    9.68
  -5   1  -1  103.90    7.31
  -5   1  -1  100.83    7.16
   5  -1   1  111.00    7.30
  -5   1  -1  117.86    7.91
  -5   1  -1  106.44    7.34
  -5   1  -1  126.33    7.91
   5  -1   1  113.69    7.64
  -5   1  -1  104.32    8.61
   5  -1   1   98.77    6.86
   5  -1   2   78.56    8.05
   5  -1   2   85.78    6.32
  -5   1  -2   90.39    8.20
  -5   1  -2   89.03    6.42
   5  -1   2   80.17    6.14
  -5   1  -2   91.85    7.06
  -5   1  -2   97.94    6.84
  -5   1  -2   93.57    7.03
  -5   1  -2   81.06    6.79
   5  -1   2   80.88    8.14
   5  -1   2   80.67    6.49
  -5   1  -2   79.01    7.73
   5  -1   2   72.88    5.87
   5  -1   3  105.94    7.78
  -5   1  -3  104.41    7.61
   5  -1   3  103.95    7.61
  -5   1  -3  112.43    8.39
   5  -1   3   92.71    7.28
  -5   1  -3  120.66    8.46
  -5   1  -3  132.03    8.89
  -5   1  -3   98.30    9.36
   5  -1   3  102.12    7.44
   5  -1   4   28.77    3.75
  -5   1  -4   19.49    3.27
   5  -1   4   15.82    3.07
   5  -1   4   21.13    3.52
  -5   1  -4   18.96    3.46
  -5   1  -4   24.18    3.96
  -5   1  -4   24.25    3.90
  -5   1  -4   25.75    4.01
  -5   1  -4   21.55    3.43
  -5   1  -4   16.87    4.19
   5  -1   4   19.94    3.25
   5  -1   5  184.78   12.78
  -5   1  -5  222.89   12.66
   5  -1   5  190.52   12.66
   5  -1   5  196.78   13.17
  -5   1  -5  165.83   12.42
  -5   1  -5  214.63   13.87
  -5   1  -5  216.19   13.98
  -5   1  -5  209.90   13.98
  -5   1  -5  195.07   15.40
   5  -1   6    6.61    2.51
  -5   1  -6    5.09    2.31
   5  -1   6    4.35    2.06
   5  -1   6    6.59    2.65
  -5   1  -6    4.07    2.44
  -5   1  -6    4.66    2.54
  -5   1  -6    2.86    2.22
  -5   1  -6    4.86    2.52
  -5   1  -6    6.77    2.72
   5  -1   6    6.93    2.35
   5  -1   7   43.08    4.73
  -5   1  -7   39.42    4.17
   5  -1   7   43.91    4.76
  -5   1  -7   47.63    5.20
  -5   1  -7   44.04    4.85
  -5   1  -7   55.37    5.55
  -5   1  -7   54.77    5.53
   5  -1   7   44.21    4.39
   5  -1   8    2.64    1.40
  -5   1  -8    5.32    1.71
  -5   1  -8    4.93    1.80
  -5   1  -8    4.56    1.75
  -5   0  11    8.21    2.01
  -5   0  11    3.75    1.80
  -5   0  11    6.17    1.70
   5   0 -11    4.03    1.74
  -5   0  10  117.97    8.64
  -5   0  10  100.39    7.13
   5   0 -10  106.27    7.51
  -5   0  10  126.52    8.64
  -5   0   9   99.64    8.29
  -5   0   9  101.44    7.43
   5   0  -9   93.39    7.69
  -5   0   9   89.09    7.76
  -5   0   8  501.27   27.16
  -5   0   8  481.86   25.93
   5   0  -8  465.47   30.17
   5   0  -8  470.04   25.52
  -5   0   8  450.13   26.31
  -5   0   7   91.82    7.11
  -5   0   7  113.84    8.77
   5   0  -7  115.81   11.78
  -5   0   7  114.36    8.32
  -5   0   7  105.77    7.93
  -5   0   7  104.68    8.11
   5   0  -7  104.07   11.10
   5   0  -7  104.18    7.88
  -5   0   6  325.61   19.49
   5   0  -6  404.83   24.97
  -5   0   6  401.89   21.14
  -5   0   6  401.61   20.89
  -5   0   6  405.77   21.09
  -5   0   6  406.00   21.08
   5   0  -6  335.14   19.82
   5   0  -6  349.72   22.75
   5   0  -5  548.62   31.73
  -5   0   5  512.31   26.57
   5   0  -5  500.50   29.32
  -5   0   5  501.32   26.04
  -5   0   5  512.26   28.50
  -5   0   5  533.48   26.34
  -5   0   5  489.51   25.44
   5   0  -5  418.16   24.72
   5   0  -5  471.12   28.59
   5   0  -5  448.62   25.51
  -5   0   5  468.55   25.75
   5   0  -5  502.33   28.61
   5   0  -4   34.83    5.88
   5   0  -4   52.17    7.21
   5   0  -4   37.67    4.02
  -5   0   4   42.68    5.71
  -5   0   4   40.63    4.30
  -5   0   4   42.23    4.08
   5   0  -4   43.94    5.58
  -5   0   4   41.30    4.02
   5   0  -4   34.05    5.35
   5   0  -4   39.00    3.84
   5   0  -3   27.98    4.70
  -5   0   3   24.09    3.17
   5   0  -3   25.70    3.26
  -5   0   3   25.44    3.34
  -5   0   3   22.24    2.93
  -5   0   3   26.67    3.24
  -5   0   3   26.16    4.60
   5   0  -3   26.72    4.77
   5   0  -3   23.32    2.93
   5   0  -3   31.52    4.69
   5   0  -2  272.66   17.91
  -5   0   2  303.73   16.95
   5   0  -2  310.75   17.16
  -5   0   2  336.51   20.31
  -5   0   2  319.40   17.39
  -5   0   2  308.08   17.52
  -5   0   2  296.82   17.17
   5   0  -2  333.66   17.48
   5   0  -2  327.97   17.56
   5   0  -2  298.26   16.82
  -5   0   1  235.51   14.04
   5   0  -1  240.56   14.45
  -5   0   1  258.57   17.32
  -5   0   1  264.39   14.99
  -5   0   1  249.14   14.77
   5   0  -1  256.38   14.23
  -5   0   1  250.52   14.63
   5   0  -1  258.52   14.35
  -5   0   1  258.12   14.52
   5   0  -1  265.00   14.75
  -5   0   1  253.41   14.18
   5   0  -1  257.78   14.59
   5   0  -1  265.10   18.02
   5   0  -1  273.48   15.02
  -5   0   1  256.15   15.00
   5   0   0  173.16   12.80
   5   0   0  178.17   10.75
  -5   0   0  180.73   13.28
  -5   0   0  182.70   11.29
  -5   0   0  168.12   10.72
  -5   0   0  161.32   10.59
  -5   0   0  174.38   10.83
  -5   0   0  190.87   11.29
   5   0   0  163.19   10.34
  -5   0   0  179.14   10.68
   5   0   0  156.45   13.07
   5   0   0  167.79   10.51
  -5   0   0  162.79   12.42
   5   0   0  171.49   10.92
   5   0   1    6.46    2.48
   5   0   1    9.29    2.46
  -5   0  -1    5.69    1.96
  -5   0  -1    7.48    2.91
  -5   0  -1    9.98    2.36
  -5   0  -1    6.94    2.12
  -5   0  -1    8.23    2.22
  -5   0  -1    9.20    2.21
   5   0   1    8.81    1.96
   5   0   1    8.85    2.28
  -5   0  -1   10.64    3.27
   5   0   1    7.12    2.99
   5   0   1    7.05    2.14
  -5   0  -2  102.78    7.74
   5   0   2  118.42    8.42
  -5   0  -2  116.15   10.24
  -5   0  -2  115.83    9.94
  -5   0  -2  128.02    9.09
  -5   0  -2  125.34    9.07
  -5   0  -2  120.41    8.76
  -5   0  -2  105.76   10.04
   5   0   2  113.12    8.16
   5   0   3  100.43    8.11
   5   0   3  117.59    8.68
  -5   0  -3  111.93    8.93
  -5   0  -3  125.30    9.50
  -5   0  -3  140.77    9.77
   5   0   3  109.63    8.56
  -5   0  -3  109.05   10.65
   5   0   3  114.41    8.43
   5   0   4   34.42    4.37
   5   0   4   54.07    5.27
   5   0   4   34.50    4.46
  -5   0  -4   41.43    5.04
   5   0   4   39.05    4.83
  -5   0  -4   32.74    4.85
   5   0   4   20.12    5.30
   5   0   4   46.01    4.98
  -5   0  -4   37.96    6.36
   5   0   4   48.27    4.85
   5   0   5  428.92   23.88
   5   0   5  459.73   24.38
   5   0   5  556.74   24.79
  -5   0  -5  459.31   24.29
   5   0   5  510.74   24.56
  -5   0  -5  524.41   25.66
  -5   0  -5  581.99   26.19
   5   0   5  517.28   24.70
   5   0   6    3.40    1.92
   5   0   6    3.11    1.63
   5   0   6    2.70    2.14
   5   0   6    6.81    2.56
  -5   0  -6    4.26    2.19
  -5   0  -6    4.22    2.12
  -5   0  -6    4.48    2.30
  -5   0  -6    6.77    2.69
  -5   0  -7   24.57    3.32
   5   0   7   20.66    3.12
  -5   0  -7   22.94    3.16
  -5   0  -7   26.91    3.56
  -5   0  -7   23.19    3.41
  -5  -1  12   17.68    2.00
  -5  -1  11    2.55    1.90
  -5  -1  11    1.10    1.48
   5   1 -11    3.50    1.71
   5   1 -11    0.76    1.82
  -5  -1  10   95.65    7.79
   5   1 -10  100.18    7.14
   5   1 -10   94.87    7.29
  -5  -1  10   78.23    6.87
  -5  -1   9  182.08   12.05
  -5  -1   9  177.27   10.68
   5   1  -9  166.34   10.68
  -5  -1   8  340.94   19.84
  -5  -1   8  439.46   21.61
  -5  -1   8  421.97   21.22
   5   1  -8  382.09   25.09
   5   1  -8  386.08   20.84
  -5  -1   8  294.43   20.41
  -5  -1   7  100.68    7.12
  -5  -1   7  119.83    8.79
  -5  -1   7  127.53    8.69
  -5  -1   7  118.07    8.25
   5   1  -7  115.84   11.89
  -5  -1   7  124.41    8.33
   5   1  -7  101.30   10.92
   5   1  -7  103.25    7.85
  -5  -1   7   92.40    7.58
   5   1  -7   73.35    9.09
   5   1  -6  188.40   11.74
   5   1  -6  196.15   15.59
  -5  -1   6  200.21   12.20
  -5  -1   6  197.34   12.41
  -5  -1   6  184.28   13.90
  -5  -1   6  211.28   12.33
   5   1  -6  163.68   13.86
   5   1  -6  182.05   14.43
   5   1  -6  167.32   11.18
   5   1  -6  184.91   11.92
  -5  -1   6  175.14   11.32
   5   1  -6  176.52   14.23
  -5  -1   5  509.92   26.90
   5   1  -5  490.23   29.86
   5   1  -5  495.95   26.76
  -5  -1   5  513.72   29.59
  -5  -1   5  533.70   27.04
  -5  -1   5  492.27   26.21
   5   1  -5  475.54   29.82
   5   1  -5  447.05   25.67
   5   1  -5  483.68   26.39
   5   1  -5  534.83   30.15
   5   1  -4  424.71   25.91
  -5  -1   4  424.35   23.47
  -5  -1   4  431.75   26.63
  -5  -1   4  476.97   24.17
  -5  -1   4  434.71   23.39
   5   1  -4  447.86   27.35
   5   1  -4  391.74   22.65
   5   1  -4  435.51   23.35
  -5  -1   4  442.59   23.66
   5   1  -4  477.73   27.26
  -5  -1   3   78.90    6.03
   5   1  -3   74.92    6.09
   5   1  -3   62.38    6.96
  -5  -1   3   59.45    7.42
  -5  -1   3   73.60    5.80
  -5  -1   3   78.54    6.09
   5   1  -3   78.17    5.92
   5   1  -3   73.96    5.54
   5   1  -3   76.21    6.04
   5   1  -3   77.74    5.86
  -5  -1   2    0.58    1.70
   5   1  -2    0.85    1.80
  -5  -1   2   -0.19    1.63
  -5  -1   2    1.06    1.52
   5   1  -2    0.16    1.20
   5   1  -2    0.73    1.93
   5   1  -2    3.15    1.84
   5   1  -2    0.85    1.08
  -5  -1   2    1.90    1.77
   5   1  -2    1.40    1.37
   5   1  -2    0.44    2.16
  -5  -1   1  135.76    9.32
   5   1  -1  155.95   10.15
  -5  -1   1  164.21   12.95
  -5  -1   1  153.18   10.24
  -5  -1   1  159.93   10.43
  -5  -1   1  159.92   10.11
  -5  -1   1  160.44    9.92
   5   1  -1  155.72    9.83
  -5  -1   1  170.69   10.55
   5   1  -1  145.37   12.88
  -5  -1   1  156.48    9.68
   5   1  -1  156.66   10.16
   5   1  -1  153.07    9.93
  -5  -1   0  485.38   26.24
   5   1   0  461.68   26.02
   5   1   0  474.42   25.93
  -5  -1   0  483.57   29.27
  -5  -1   0  479.95   26.50
  -5  -1   0  467.78   25.89
  -5  -1   0  488.04   25.85
  -5  -1   0  496.05   26.10
   5   1   0  463.75   29.24
  -5  -1   0  488.65   25.82
  -5  -1   0  468.25   28.86
   5   1   0  483.74   26.01
   5   1   0  463.84   25.73
  -5  -1   0  494.47   26.25
  -5  -1  -1    6.32    2.27
   5   1   1    4.07    2.20
  -5  -1  -1    4.22    2.01
  -5  -1  -1    2.80    2.44
  -5  -1  -1    5.71    2.15
  -5  -1  -1    4.15    2.10
  -5  -1  -1    5.28    2.21
  -5  -1  -1    3.81    1.93
   5   1   1    6.44    2.80
   5   1   1    5.72    2.10
  -5  -1  -1    4.76    3.16
   5   1   1    3.48    2.12
   5   1   2   48.77    5.11
  -5  -1  -2   47.56    5.37
   5   1   2   35.96    4.61
  -5  -1  -2   45.01    5.36
  -5  -1  -2   44.17    5.02
  -5  -1  -2   32.38    6.34
  -5  -1  -3    3.87    2.95
   5   1   3    5.12    2.75
  -5  -1  -3    4.41    2.73
   5   1   3    3.81    2.43
  -5  -1  -3    4.98    2.77
  -5  -1  -3    3.87    2.36
   5   1   3    3.83    2.22
  -5  -1  -3    5.46    3.51
   5   1   3    2.87    2.27
   5   1   4  218.53   13.19
  -5  -1  -4  192.58   13.31
   5   1   4  194.35   12.57
  -5  -1  -4  222.61   14.04
   5   1   4  210.64   12.85
   5   1   4  198.21   12.88
   5   1   5    6.32    2.69
  -5  -1  -5   10.32    2.68
   5   1   5   12.10    2.85
  -5  -1  -5    8.36    2.86
  -5  -1  -5    7.41    2.62
  -5  -1  -5    7.25    2.14
   5   1   6   63.29    5.73
  -5  -1  -6   85.19    6.65
  -5  -1  -6   83.92    6.71
  -5  -1  -6   78.92    6.57
  -5  -1  -6   82.65    6.58
  -5  -1  -6   85.73    6.66
  -5  -2  12   11.21    1.96
  -5  -2  12    8.96    1.40
  -5  -2  11   41.69    4.43
   5   2 -11   40.64    4.27
   5   2 -11   45.29    4.17
   5   2 -11   40.20    4.15
   5   2 -10  216.13   13.32
   5   2 -10  208.01   12.58
   5   2 -10  201.53   12.96
  -5  -2   9   22.07    3.34
  -5  -2   9   18.57    3.80
  -5  -2   9   20.39    3.68
  -5  -2   9   25.58    3.48
   5   2  -9   18.95    2.97
   5   2  -9   26.16    4.07
   5   2  -9   24.85    4.11
  -5  -2   8  170.12   10.98
  -5  -2   8  206.15   13.08
  -5  -2   8  219.25   12.80
   5   2  -8  204.14   13.30
  -5  -2   8  210.71   12.38
   5   2  -8  169.10   11.48
   5   2  -8  184.81   15.50
   5   2  -8  198.88   12.34
   5   2  -8  212.97   13.18
   5   2  -8  136.26   13.96
  -5  -2   7  127.38    9.13
  -5  -2   7  109.60    8.88
   5   2  -7  123.23    9.32
  -5  -2   7  127.01    8.93
   5   2  -7   99.19   10.98
   5   2  -7  119.44    8.66
  -5  -2   7  130.01    9.09
   5   2  -7  120.02    9.04
   5   2  -7  101.18   10.89
   5   2  -6  219.53   14.13
  -5  -2   6  214.29   14.09
  -5  -2   6  240.53   14.45
   5   2  -6  232.68   14.47
  -5  -2   6  221.50   16.55
   5   2  -6  207.91   16.98
  -5  -2   6  249.07   14.66
  -5  -2   6  229.34   13.79
   5   2  -6  220.98   13.77
  -5  -2   6  259.00   14.42
   5   2  -6  236.80   14.39
   5   2  -6  214.09   17.05
   5   2  -5  335.02   19.32
  -5  -2   5  310.15   18.60
   5   2  -5  323.42   18.99
  -5  -2   5  324.28   21.82
  -5  -2   5  353.48   18.85
  -5  -2   5  361.60   19.54
   5   2  -5  304.30   22.33
   5   2  -5  300.87   18.21
  -5  -2   5  346.26   18.70
   5   2  -5  318.65   18.82
   5   2  -5  371.42   23.06
   5   2  -4  410.47   23.07
  -5  -2   4  416.24   22.46
   5   2  -4  427.02   22.62
  -5  -2   4  444.99   23.19
   5   2  -4  387.33   26.46
   5   2  -4  383.31   21.94
   5   2  -4  379.48   21.71
   5   2  -4  396.54   22.34
   5   2  -4  410.20   22.40
  -5  -2   3   48.82    4.90
   5   2  -3   64.62    5.50
  -5  -2   3   57.11    5.08
  -5  -2   3   41.46    6.48
   5   2  -3   54.77    4.69
   5   2  -3   47.07    4.74
   5   2  -3   59.92    5.12
   5   2  -3   54.04    5.05
   5   2  -3   62.30    7.64
   5   2  -2   50.22    5.36
  -5  -2   2   61.66    5.40
  -5  -2   2   46.94    4.60
   5   2  -2   54.22    5.08
   5   2  -2   45.25    4.20
  -5  -2   2   56.65    5.26
  -5  -2   2   45.63    5.10
   5   2  -2   54.70    7.73
   5   2  -2   55.00    4.58
  -5  -2   2   55.73    7.04
   5   2  -2   54.15    4.83
   5   2  -2   48.58    4.92
   5   2  -1  228.30   14.72
  -5  -2   1  243.46   14.77
   5   2  -1  241.49   14.54
  -5  -2   1  249.56   17.92
   5   2  -1  219.60   13.34
  -5  -2   1  250.61   14.93
  -5  -2   1  235.79   14.41
  -5  -2   1  260.65   14.96
   5   2  -1  215.52   17.67
  -5  -2   1  244.98   14.23
  -5  -2   1  209.34   13.66
   5   2  -1  247.11   14.55
   5   2  -1  244.34   14.28
  -5  -2   1  255.11   14.66
   5   2   0  221.62   14.73
  -5  -2   0  254.85   15.41
  -5  -2   0  244.57   17.97
  -5  -2   0  266.45   15.73
   5   2   0  184.63   16.80
  -5  -2   0  238.84   14.93
  -5  -2   0  270.11   15.05
  -5  -2   0  230.43   14.71
  -5  -2   0  240.07   14.70
   5   2   0  238.48   14.63
   5   2   0  254.61   15.07
  -5  -2   0  268.85   15.09
  -5  -2  -1   47.16    5.15
  -5  -2  -1   33.98    4.32
  -5  -2  -1   44.09    5.27
  -5  -2  -1   31.59    4.20
  -5  -2  -1   47.29    4.81
  -5  -2  -1   38.54    4.71
  -5  -2  -1   44.34    4.76
  -5  -2  -1   33.65    6.55
   5   2   1   45.39    5.05
  -5  -2  -2    4.17    2.70
  -5  -2  -2    2.05    1.81
   5   2   2   -0.19    1.72
  -5  -2  -2    1.57    2.07
  -5  -2  -2    1.56    1.78
   5   2   2    0.61    1.66
  -5  -2  -2    2.10    3.04
   5   2   2    0.68    2.36
  -5  -2  -3   28.93    4.45
   5   2   3   27.30    3.81
  -5  -2  -3   30.48    4.61
  -5  -2  -3   35.71    4.70
   5   2   3   29.29    3.76
   5   2   3   35.38    4.47
   5   2   4   29.01    4.00
  -5  -2  -4   32.70    4.29
   5   2   4   25.25    3.49
  -5  -2  -4   30.83    4.37
  -5  -2  -4   31.43    4.32
  -5  -2  -5   12.45    2.26
   5   2   5    9.80    2.14
  -5  -2  -5   14.24    2.81
  -5  -2  -5   10.42    2.31
  -5  -2  -5   10.46    2.39
  -5  -3  12    6.57    1.23
   5   3 -11    2.42    1.60
  -5  -3  11   -1.19    1.66
   5   3 -11   -0.23    1.87
  -5  -3  10   71.44    5.40
  -5  -3  10   71.94    6.52
   5   3 -10   81.06    6.56
   5   3 -10   87.01    6.35
  -5  -3   9   42.62    3.97
  -5  -3   9   38.05    4.88
  -5  -3   9   54.24    5.18
   5   3  -9   43.51    5.35
   5   3  -9   49.72    5.27
  -5  -3   8   18.09    3.64
  -5  -3   8   15.23    3.12
   5   3  -8   13.09    3.51
  -5  -3   8   15.02    3.14
   5   3  -8   18.51    3.79
  -5  -3   7  179.57   12.26
  -5  -3   7  202.94   12.79
   5   3  -7  196.54   12.89
  -5  -3   7  209.06   12.79
  -5  -3   7  183.88   11.86
   5   3  -7  196.12   12.35
  -5  -3   7  203.30   12.50
  -5  -3   6  127.27   10.01
   5   3  -6  179.33   11.28
   5   3  -6  133.89   13.56
  -5  -3   6  134.03   12.76
  -5  -3   6  186.51   10.90
  -5  -3   6  172.97   11.29
   5   3  -6  167.35   10.63
   5   3  -6  163.99   11.16
   5   3  -6  151.23   10.43
  -5  -3   6  148.80   10.23
   5   3  -6  162.65   14.04
   5   3  -5    1.50    2.11
  -5  -3   5    3.40    2.90
  -5  -3   5    0.63    2.45
   5   3  -5    2.36    2.27
  -5  -3   5    2.70    2.33
   5   3  -5    1.57    2.92
   5   3  -5    0.55    2.21
   5   3  -5    2.67    1.59
  -5  -3   4  145.74    9.93
   5   3  -4  140.84    9.99
  -5  -3   4  132.37   12.18
  -5  -3   4  163.05   10.84
   5   3  -4  140.23    9.64
   5   3  -4  137.80    9.46
   5   3  -4  155.12   13.45
   5   3  -3  394.89   22.37
  -5  -3   3  379.75   21.21
   5   3  -3  425.22   21.82
   5   3  -3  356.13   20.33
   5   3  -3  339.96   25.86
  -5  -3   3  358.04   21.26
   5   3  -3  423.78   26.12
   5   3  -3  389.20   21.08
   5   3  -2  262.42   17.00
  -5  -3   2  297.54   17.15
  -5  -3   2  263.15   15.88
   5   3  -2  285.71   16.65
   5   3  -2  270.30   15.64
   5   3  -2  249.27   20.43
  -5  -3   2  286.26   19.81
  -5  -3   2  279.06   16.81
  -5  -3   2  315.76   17.49
   5   3  -2  276.31   16.07
  -5  -3   1  122.94    8.86
   5   3  -1   89.89   10.94
   5   3  -1  116.05    8.40
   5   3  -1   83.97   10.49
  -5  -3   1  101.17   10.91
  -5  -3   1  116.55    8.80
  -5  -3   1  115.42    8.50
  -5  -3   1  110.47    8.55
  -5  -3   1   82.04    7.34
   5   3  -1  109.64    8.49
  -5  -3   0   85.68    7.39
   5   3   0   51.89    8.29
   5   3   0   95.35    7.30
  -5  -3   0   60.12    8.42
  -5  -3   0   90.38    7.58
  -5  -3   0   76.27    6.90
  -5  -3   0   95.49    7.21
  -5  -3   0   85.53    6.90
  -5  -3   0   71.63    6.47
  -5  -3  -1  173.72   11.94
   5   3   1  180.97   11.75
  -5  -3  -1  184.06   12.45
  -5  -3  -1  166.99   11.67
  -5  -3  -1  162.87   11.52
   5   3   2   80.75    6.56
  -5  -3  -2   70.74    6.49
  -5  -3  -2   62.95    6.26
   5   3   3    2.16    1.93
  -5  -3  -3    2.06    1.76
  -5  -3  -3    1.56    1.79
  -5  -3  -3    0.45    1.47
   5   3   4   18.90    2.88
   5   3   4   15.42    2.57
  -5  -3  -4   16.48    2.71
  -5  -3  -4   17.22    2.81
  -5  -3  -4   19.40    2.86
  -5  -4  11   20.40    2.72
   5   4 -11   24.90    2.81
   5   4 -11   19.89    2.57
  -5  -4  10   38.02    4.30
  -5  -4  10   42.40    4.16
   5   4 -10   42.10    4.37
   5   4 -10   53.22    4.73
   5   4 -10   49.36    4.52
  -5  -4   9   23.95    3.58
  -5  -4   9   32.25    4.11
   5   4  -9   26.59    3.92
   5   4  -9   35.65    4.32
   5   4  -9   33.72    4.23
  -5  -4   8   40.14    4.76
  -5  -4   8   56.84    5.56
   5   4  -8   57.60    5.54
   5   4  -8   55.79    5.44
   5   4  -8   62.65    5.68
  -5  -4   7    2.00    2.55
   5   4  -7    6.55    2.59
  -5  -4   7    4.37    2.34
  -5  -4   7    4.17    2.09
   5   4  -7    5.83    3.22
   5   4  -7    3.92    2.57
   5   4  -6   97.41    7.53
  -5  -4   6   89.31    7.58
   5   4  -6   87.57    7.15
   5   4  -6   93.91    7.41
  -5  -4   5   66.46    6.38
   5   4  -5   71.67    6.26
  -5  -4   5   61.71    8.08
  -5  -4   5   72.88    6.78
   5   4  -5   62.08    5.97
   5   4  -5   69.14    6.21
   5   4  -5   59.63    8.37
   5   4  -4   42.55    6.89
   5   4  -4   51.04    5.23
   5   4  -4   47.11    4.51
  -5  -4   4   56.95    5.97
  -5  -4   4   49.90    5.25
   5   4  -4   53.73    5.38
  -5  -4   4   42.84    6.94
  -5  -4   3   41.21    6.95
  -5  -4   3   48.54    5.25
  -5  -4   3   49.95    5.10
   5   4  -3   48.48    8.20
   5   4  -3   53.37    5.24
   5   4  -3   43.93    4.48
  -5  -4   3   44.31    4.87
   5   4  -3   56.63    5.36
  -5  -4   2  296.77   17.99
  -5  -4   2  295.79   16.85
   5   4  -2  233.65   21.24
   5   4  -2  317.54   17.64
  -5  -4   2  261.97   17.46
  -5  -4   2  306.89   18.26
   5   4  -2  332.26   17.82
  -5  -4   1   41.09    5.01
   5   4  -1   18.92    5.13
   5   4  -1   34.41    4.24
  -5  -4   1   30.89    4.43
  -5  -4   1   33.14    4.43
  -5  -4   1   37.72    4.56
   5   4  -1   36.04    4.70
   5   4  -1   37.87    4.45
  -5  -4   0   22.55    3.84
   5   4   0   26.06    3.62
  -5  -4   0   25.76    3.92
  -5  -4   0   17.88    3.29
  -5  -4   0   15.49    2.94
  -5  -4   0   22.36    3.41
  -5  -4   0   18.37    2.97
   5   4   0   21.72    3.49
   5   4   0   28.45    3.85
   5   4   1    5.26    2.26
   5   4   1    4.66    2.19
  -5  -4  -1    5.61    2.40
  -5  -4  -1    4.43    2.00
  -5  -4  -1    4.17    1.85
   5   4   2   28.94    3.36
  -5  -4  -2   25.10    3.39
  -5  -4  -2   24.21    3.26
   5   4   2   29.82    3.39
   5   4   3   20.74    2.91
   5   4   3   15.89    2.22
  -5  -4  -3   17.11    2.51
  -5  -4  -3   15.36    2.34
  -5  -5  10   21.89    2.74
   5   5 -10   27.73    3.16
   5   5 -10   25.01    2.90
  -5  -5   9   21.99    3.18
   5   5  -9   20.28    2.88
   5   5  -9   17.97    3.16
   5   5  -9   19.75    2.97
  -5  -5   8    1.68    2.11
   5   5  -8    1.50    1.82
   5   5  -8    2.10    2.20
   5   5  -8    2.71    2.85
   5   5  -8    3.04    1.94
   5   5  -7    6.32    2.25
   5   5  -7   10.08    3.07
  -5  -5   7    5.02    2.23
  -5  -5   7    6.79    2.42
   5   5  -7    8.80    3.08
   5   5  -7    7.03    2.43
  -5  -5   6   24.15    3.92
   5   5  -6   18.71    5.33
   5   5  -6   25.91    3.69
   5   5  -6   23.03    3.19
  -5  -5   6   26.52    3.88
  -5  -5   6   26.77    4.07
   5   5  -6   35.38    3.97
  -5  -5   5    8.38    2.86
   5   5  -5    7.62    3.95
   5   5  -5    5.41    2.14
   5   5  -5    7.36    2.10
  -5  -5   5    7.39    2.77
   5   5  -5    3.69    2.18
  -5  -5   4   81.09    6.67
   5   5  -4   88.12    6.69
   5   5  -4   81.66    6.12
  -5  -5   4   82.56    7.34
   5   5  -4   86.12    6.83
  -5  -5   3   38.14    4.22
   5   5  -3   41.53    4.38
   5   5  -3   47.09    4.60
  -5  -5   3   36.89    4.73
   5   5  -2   11.04    2.61
  -5  -5   2    9.94    2.58
  -5  -5   2    9.99    2.82
  -5  -5   2   14.63    2.98
   5   5  -2   12.23    3.10
   5   5  -2   13.65    2.89
   5   5  -1   45.60    4.24
   5   5  -1   33.39    4.60
  -5  -5   1   41.12    4.41
  -5  -5   1   27.76    3.96
  -5  -5   1   40.72    4.22
   5   5  -1   41.24    4.62
   5   5  -1   46.59    4.34
   5   5   0   24.51    2.91
  -5  -5   0   19.16    3.06
  -5  -5   0   15.10    2.52
   5   5   0   25.37    3.09
   5   5   1   11.69    1.93
  -5  -5  -1   10.41    2.26
  -5  -5  -1    6.63    1.62
   5   5   1   11.55    2.08
   5   5   2    4.29    1.47
  -5  -6   9    9.43    1.95
   5   6  -9    9.09    1.72
  -5  -6   8  123.28    7.63
   5   6  -8   99.93    8.00
   5   6  -8  100.68    6.62
   5   6  -8  123.65    7.37
   5   6  -7    9.71    1.98
   5   6  -7   13.51    3.10
  -5  -6   7    8.17    2.17
  -5  -6   7   11.37    2.38
   5   6  -7   14.79    2.48
  -5  -6   6  102.14    7.15
   5   6  -6  104.83    8.85
   5   6  -6   84.25    6.21
  -5  -6   6   85.93    7.11
  -5  -6   6  108.05    7.23
   5   6  -6  112.00    7.06
  -5  -6   5    6.36    2.11
   5   6  -5    6.57    1.98
   5   6  -5    5.75    1.76
   5   6  -5    5.00    2.67
  -5  -6   5    5.66    2.24
  -5  -6   5    3.64    2.09
  -5  -6   4    2.65    1.69
   5   6  -4    6.89    2.77
  -5  -6   4    5.46    2.14
   5   6  -4    5.07    2.27
   5   6  -4    8.08    1.86
   5   6  -3   37.28    4.83
  -5  -6   3   28.88    3.77
  -5  -6   3   35.72    3.81
   5   6  -3   36.45    4.29
   5   6  -3   45.06    3.90
   5   6  -2    7.19    2.09
  -5  -6   2    5.78    1.84
  -5  -6   2    7.29    1.73
  -5  -6   2    7.01    1.90
   5   6  -2    6.59    1.90
   5   6  -2   11.05    2.01
   5   6  -1    2.80    1.22
  -5  -6   1    2.05    1.20
   5   6   0    4.44    1.42
   5   7  -7   21.00    2.83
   5   7  -7   19.71    2.58
   5   7  -5    9.22    2.24
   5   7  -5    8.43    1.98
   5   7  -4   19.01    2.70
   5   7  -4   21.13    2.57
  -6  11  -1    6.02    1.23
  -6  11  -2    4.95    1.37
   6 -11   2    7.22    1.53
  -6  11  -4    2.41    1.22
   6 -11   4    1.91    1.17
  -6  11  -5    7.18    1.37
   6 -11   5    8.47    1.52
   6 -10  -1   25.49    2.67
  -6  10   1   34.17    3.05
  -6  10   1   36.22    3.52
   6 -10   0   37.08    3.74
  -6  10   0   36.85    3.86
   6 -10   0   43.94    4.29
  -6  10   0   38.56    3.68
   6 -10   1  160.76    9.55
  -6  10  -1  145.49    9.69
  -6  10  -1  156.03    9.58
   6 -10   2   67.47    5.61
  -6  10  -2   73.83    6.45
  -6  10  -2   57.23    5.08
   6 -10   2   72.45    5.96
   6 -10   3   13.68    3.06
   6 -10   3   15.39    3.29
   6 -10   3    9.88    2.50
   6 -10   3   13.49    3.24
  -6  10  -3   12.36    2.99
  -6  10  -3   11.01    2.55
  -6  10  -4   17.93    3.35
   6 -10   4   15.65    2.89
  -6  10  -4   15.55    2.45
   6 -10   4   14.74    3.14
  -6  10  -4   12.25    2.26
  -6  10  -4   13.63    2.70
   6 -10   5   23.17    3.25
  -6  10  -5   30.81    3.32
  -6  10  -5   20.97    2.99
  -6  10  -5   25.41    3.51
   6 -10   6   15.09    2.40
  -6  10  -6   18.13    2.60
  -6  10  -6   13.01    2.26
  -6  10  -6   11.96    2.44
   6 -10   7   10.58    1.74
  -6  10  -7   16.87    2.24
  -6  10  -7   15.39    2.40
  -6  10  -8    5.20    1.27
  -6   9   4   47.33    3.72
  -6   9   3    4.97    1.58
  -6   9   3    7.52    2.12
  -6   9   2   18.94    3.24
   6  -9  -2   25.34    3.71
  -6   9   2   23.34    2.93
   6  -9  -1   52.19    5.15
  -6   9   1   56.62    5.51
  -6   9   1   54.04    5.05
   6  -9  -1   62.95    5.74
   6  -9  -1   66.82    5.82
  -6   9   0   75.87    6.76
   6  -9   0   85.22    7.12
  -6   9   0   87.85    6.66
   6  -9   1  100.66   11.34
   6  -9   1  125.46    8.27
   6  -9   1  112.23    8.24
  -6   9  -1   99.17    8.79
  -6   9  -1  103.76    8.08
   6  -9   1  111.89    8.49
   6  -9   1   96.55   10.64
   6  -9   2   31.88    4.86
  -6   9  -2   28.26    4.57
  -6   9  -2   28.09    3.71
  -6   9  -2   30.48    3.74
   6  -9   2   33.51    3.96
   6  -9   2   34.11    4.89
   6  -9   2   26.51    5.46
   6  -9   2   32.92    4.61
  -6   9  -2   31.53    4.29
  -6   9  -3  293.35   14.89
   6  -9   3  259.38   14.46
   6  -9   3  245.52   14.86
   6  -9   3  251.83   14.87
  -6   9  -3  198.31   14.44
   6  -9   3  242.75   15.03
  -6   9  -3  223.49   15.38
   6  -9   4   26.83    4.82
  -6   9  -4   25.24    4.40
   6  -9   4   26.59    4.12
   6  -9   4   25.36    4.40
  -6   9  -4   33.18    3.95
   6  -9   4   31.94    4.51
  -6   9  -4   24.92    3.68
  -6   9  -4   24.59    4.14
   6  -9   5   71.95    6.46
  -6   9  -5   83.12    6.35
  -6   9  -5   71.96    6.49
  -6   9  -5   75.35    7.01
   6  -9   6   48.89    5.04
  -6   9  -6   62.00    5.18
  -6   9  -6   52.96    5.32
  -6   9  -6   61.37    5.94
   6  -9   7    1.86    1.69
   6  -9   7    2.40    1.51
  -6   9  -7    2.11    1.93
  -6   9  -7    3.22    1.66
   6  -9   8   12.76    2.21
  -6   9  -8   18.93    2.72
  -6   8   5   48.23    4.21
  -6   8   4    1.89    1.61
  -6   8   4    0.23    1.86
  -6   8   4    2.93    2.02
  -6   8   3   64.88    6.39
  -6   8   3   62.65    5.43
   6  -8  -2   44.29    7.21
  -6   8   2   47.53    5.59
   6  -8  -2   40.56    7.20
  -6   8   2   60.63    5.98
   6  -8  -2   48.63    5.55
  -6   8   2   65.35    5.54
   6  -8  -1  120.65   12.55
  -6   8   1  121.33    9.83
  -6   8   1  135.06    9.94
   6  -8  -1  135.25    8.89
   6  -8  -1  135.07    9.82
  -6   8   0   20.40    4.08
   6  -8   0   29.12    6.16
  -6   8   0   26.45    4.41
  -6   8   0   22.80    3.73
   6  -8   0   26.96    3.86
   6  -8   1   16.56    5.13
  -6   8  -1   17.71    3.97
   6  -8   1    9.52    4.37
   6  -8   1   19.52    5.57
  -6   8  -1   12.12    3.42
  -6   8  -1    9.98    2.69
  -6   8  -1   18.17    3.17
   6  -8   1   15.80    3.57
   6  -8   1   17.81    4.87
   6  -8   1   14.60    4.75
   6  -8   1   17.22    3.92
  -6   8  -1   17.98    3.31
   6  -8   1   16.18    4.32
   6  -8   2  148.99   10.66
  -6   8  -2  145.70   11.62
  -6   8  -2  179.30   10.47
   6  -8   2  128.03   12.74
   6  -8   2  142.56   10.03
   6  -8   2  144.29   10.33
  -6   8  -2  154.28   11.37
   6  -8   2  137.47   13.37
   6  -8   2  139.71   10.43
  -6   8  -2  151.05   10.96
   6  -8   3   55.19    6.02
  -6   8  -3   58.81    6.54
  -6   8  -3   54.51    6.40
   6  -8   3   34.07    7.27
  -6   8  -3   59.91    5.47
   6  -8   3   60.17    5.78
   6  -8   3   45.17    7.11
   6  -8   3   52.72    5.83
  -6   8  -3   56.05    6.14
  -6   8  -3   42.69    5.13
   6  -8   3   43.74    6.96
   6  -8   3   60.84    5.99
  -6   8  -3   52.02    5.87
   6  -8   4  191.86   12.40
  -6   8  -4  165.92   13.11
  -6   8  -4  164.30   12.96
   6  -8   4  204.09   12.97
  -6   8  -4  203.17   12.24
   6  -8   4  187.49   12.30
   6  -8   4  192.38   12.16
  -6   8  -4  223.91   13.55
  -6   8  -4  169.66   12.44
   6  -8   4  192.44   12.40
   6  -8   5  255.13   16.36
   6  -8   5  280.13   16.31
   6  -8   5  293.68   16.98
  -6   8  -5  283.92   16.19
  -6   8  -5  277.91   16.85
  -6   8  -5  244.38   16.66
   6  -8   6   26.08    4.89
   6  -8   6   32.59    4.14
  -6   8  -6   21.79    3.41
  -6   8  -6   29.59    4.32
   6  -8   7   53.87    5.04
  -6   8  -7   60.12    5.09
  -6   8  -7   49.04    5.35
   6  -8   8   49.68    4.26
  -6   8  -8   49.66    4.09
  -6   8  -8   40.42    4.32
  -6   8  -9   20.39    2.28
  -6   7   6    0.78    1.58
  -6   7   5   31.16    4.35
  -6   7   5   27.36    3.91
  -6   7   5   27.10    3.31
  -6   7   4   13.10    3.32
  -6   7   4    8.84    3.01
  -6   7   4   11.97    2.98
   6  -7  -3   23.32    5.34
  -6   7   3   45.75    5.51
   6  -7  -3   22.43    5.45
  -6   7   3   39.43    4.47
   6  -7  -2   61.35    8.74
  -6   7   2   66.06    6.58
   6  -7  -2   77.29    9.78
  -6   7   2   82.43    7.27
   6  -7  -2   68.09    8.87
  -6   7   2   77.61    7.50
  -6   7   1  732.74   40.21
   6  -7  -1  828.62   44.78
  -6   7   1  731.12   40.34
   6  -7  -1  744.05   44.77
  -6   7   1  741.90   40.40
  -6   7   1  772.07   39.82
  -6   7   1  713.86   38.51
   6  -7  -1  801.08   43.41
  -6   7   1  853.40   39.37
  -6   7   0   12.34    3.44
  -6   7   0   16.83    3.65
  -6   7   0   13.58    2.98
  -6   7   0   13.06    2.99
   6  -7   0   12.36    3.48
  -6   7   0    9.97    3.36
  -6   7   0   13.25    2.85
   6  -7   1    5.73    3.71
  -6   7  -1    3.11    2.24
  -6   7  -1    7.04    2.90
   6  -7   1    0.64    3.02
  -6   7  -1    3.69    1.87
  -6   7  -1    4.85    2.53
   6  -7   1    7.90    3.12
   6  -7   1    5.35    3.75
   6  -7   1    4.44    1.76
   6  -7   1    6.37    3.16
   6  -7   1    5.86    3.64
  -6   7  -1    4.31    2.02
  -6   7  -2   30.34    4.00
   6  -7   2   32.64    4.58
   6  -7   2   21.38    5.27
   6  -7   2   21.54    3.20
  -6   7  -2   32.29    4.69
   6  -7   2   22.92    5.16
   6  -7   2   26.46    5.93
   6  -7   2   20.22    4.03
  -6   7  -3   97.87    8.46
  -6   7  -3   94.65    8.53
  -6   7  -3   97.00    7.26
   6  -7   3   72.64    9.15
   6  -7   3   90.87    7.04
   6  -7   3   84.38    7.23
  -6   7  -3  103.76    8.50
   6  -7   3   81.41    9.85
   6  -7   3   81.55   10.03
   6  -7   3   91.28    7.49
   6  -7   4   54.66    8.97
   6  -7   4   78.30    7.55
  -6   7  -4   66.92    6.94
   6  -7   4   79.64    7.00
   6  -7   4   89.71    7.37
  -6   7  -4   81.56    6.61
   6  -7   4   73.17    6.37
  -6   7  -4   85.15    7.38
   6  -7   4   70.93    9.26
  -6   7  -4   71.17    6.79
   6  -7   4   75.36    6.67
   6  -7   5   47.56    6.18
   6  -7   5   45.14    5.36
  -6   7  -5   49.61    5.07
  -6   7  -5   28.90    4.46
   6  -7   5   51.33    5.47
   6  -7   5   43.58    4.83
  -6   7  -5   51.50    5.54
  -6   7  -5   40.83    5.20
   6  -7   5   40.59    7.05
   6  -7   6   76.64    7.25
   6  -7   6   82.79    6.88
  -6   7  -6   77.04    6.41
  -6   7  -6   77.51    6.40
  -6   7  -6   61.01    6.19
  -6   7  -6   74.93    7.06
  -6   7  -7   -0.89    2.22
   6  -7   7    0.41    1.81
  -6   7  -7    0.67    2.05
  -6   7  -7   -0.78    1.81
   6  -7   7   -0.77    1.50
   6  -7   8   14.46    2.78
  -6   7  -8    8.06    2.36
  -6   7  -8    8.88    2.19
  -6   7  -8    9.91    2.52
   6  -7   8    6.41    1.81
   6  -7   9    2.80    1.34
  -6   7  -9    2.41    1.48
  -6   6   7   23.20    3.13
  -6   6   6  134.37    9.23
  -6   6   6  107.31    7.71
  -6   6   5   11.30    2.90
   6  -6  -5    8.50    3.71
  -6   6   5    9.65    3.17
  -6   6   5    6.68    2.08
  -6   6   4  162.75   12.70
  -6   6   4  164.77   11.04
   6  -6  -3   13.43    4.17
   6  -6  -3   21.65    5.06
  -6   6   3   24.37    4.29
  -6   6   3   32.27    4.63
   6  -6  -3   16.32    4.86
  -6   6   3   26.83    3.66
   6  -6  -2   86.88    9.83
   6  -6  -2   90.43   10.41
  -6   6   2   98.61    8.13
  -6   6   2   91.08    8.33
  -6   6   2  103.27    8.08
  -6   6   2   79.30    6.80
   6  -6  -2   80.90    6.72
   6  -6  -2   95.08   10.03
  -6   6   2   92.91    7.34
  -6   6   2   99.96    7.43
   6  -6  -1 1354.21   67.14
   6  -6  -1 1250.97   67.32
  -6   6   1 1087.15   62.59
  -6   6   1 1198.93   61.95
  -6   6   1 1292.68   61.60
   6  -6  -1 1170.53   61.15
   6  -6  -1 1268.96   65.64
  -6   6   1 1194.18   62.35
  -6   6   1 1262.48   61.37
   6  -6   0   72.97    9.00
  -6   6   0   80.75    7.42
  -6   6   0   60.31    5.83
  -6   6   0   76.30    6.18
   6  -6   0   67.54    5.80
   6  -6   0   77.11    8.66
  -6   6   0   71.64    6.61
  -6   6  -1  528.17   25.97
   6  -6   1  430.38   28.58
   6  -6   1  445.31   25.55
  -6   6  -1  517.01   27.21
   6  -6   1  496.91   30.47
   6  -6   1  450.94   25.23
  -6   6  -2   23.93    3.54
  -6   6  -2   27.20    4.40
   6  -6   2   20.63    3.42
  -6   6  -2   22.36    3.39
   6  -6   2   21.72    5.18
   6  -6   2   20.30    3.21
   6  -6   2   24.60    5.64
  -6   6  -2   22.83    3.76
   6  -6   2   22.15    3.07
   6  -6   3  115.66    9.04
  -6   6  -3  126.86    8.73
   6  -6   3  106.43   10.60
   6  -6   3  125.84    9.10
   6  -6   3  119.45    8.73
  -6   6  -3  125.71    9.65
   6  -6   3  125.28   12.05
   6  -6   3  116.87    8.48
  -6   6  -3  107.83    9.16
  -6   6  -3  124.40    9.68
   6  -6   4   21.94    4.17
   6  -6   4   22.24    4.92
  -6   6  -4   24.04    3.73
  -6   6  -4   22.45    3.81
   6  -6   4   27.74    4.04
  -6   6  -4   24.13    3.68
   6  -6   4   22.83    4.43
   6  -6   4   20.45    3.54
  -6   6  -4   31.48    4.49
  -6   6  -4   22.91    3.75
   6  -6   4   20.34    5.28
  -6   6  -4   21.76    4.27
  -6   6  -4   18.52    4.62
  -6   6  -4   25.38    3.75
  -6   6  -5  132.28   10.90
   6  -6   5  165.44   11.53
  -6   6  -5  178.51   11.41
   6  -6   5  203.21   12.16
  -6   6  -5  174.60   10.98
   6  -6   5  172.10   11.71
  -6   6  -5  176.08   12.10
   6  -6   5  167.39   15.03
  -6   6  -5  169.88   12.61
  -6   6  -5  155.72   13.21
  -6   6  -6  208.80   12.95
   6  -6   6  200.37   13.15
  -6   6  -6  203.38   12.48
  -6   6  -6  193.04   13.24
   6  -6   7  186.56   11.40
  -6   6  -7  162.63   10.23
   6  -6   7  154.32   10.16
  -6   6  -7  148.22    9.47
  -6   6  -7  117.15    9.41
  -6   6  -7  135.71   10.73
   6  -6   7  140.64    9.81
   6  -6   8   27.47    3.68
  -6   6  -8   28.41    3.64
  -6   6  -8   20.94    2.85
   6  -6   8   21.73    3.21
  -6   6  -9   13.09    2.40
   6  -6   9   13.42    2.38
  -6   6  -9    9.48    2.05
   6  -6   9   11.26    1.95
   6  -6   9   13.56    2.20
  -6   5   8    9.28    1.94
  -6   5   7   52.91    5.53
  -6   5   7   51.53    4.95
   6  -5  -6    6.48    3.18
  -6   5   6    6.12    2.84
  -6   5   6    7.87    3.12
  -6   5   6    5.19    2.23
  -6   5   5   13.63    3.34
   6  -5  -5    5.14    3.40
  -6   5   5   13.04    3.46
  -6   5   5   13.39    2.94
   6  -5  -4   46.16    6.80
   6  -5  -4   51.97    7.38
  -6   5   4   59.13    6.79
   6  -5  -4   60.45    7.81
   6  -5  -4   54.99    8.24
  -6   5   4   72.00    6.20
   6  -5  -3  110.63   10.99
  -6   5   3  127.70    9.02
   6  -5  -3  114.43   11.59
  -6   5   3  109.55    9.89
  -6   5   3  138.91    9.86
   6  -5  -3  131.69   11.89
  -6   5   3  130.19    9.47
  -6   5   3  132.73    9.09
   6  -5  -2  637.17   35.09
   6  -5  -2  608.60   34.56
  -6   5   2  536.70   30.61
   6  -5  -2  635.18   35.82
  -6   5   2  505.84   31.96
  -6   5   2  652.15   31.92
  -6   5   2  625.15   31.11
   6  -5  -2  605.21   34.41
  -6   5   2  513.55   31.13
  -6   5   2  582.40   31.20
  -6   5   2  593.00   30.76
  -6   5   1   19.92    3.06
   6  -5  -1   23.76    4.89
   6  -5  -1   27.61    5.61
  -6   5   1   25.11    3.49
  -6   5   1   31.05    3.82
   6  -5  -1   27.18    3.60
  -6   5   1   26.71    3.71
  -6   5   1   26.16    3.83
  -6   5   1   29.85    3.86
   6  -5  -1   25.25    3.27
   6  -5  -1   21.57    4.98
   6  -5   0  141.89   12.48
   6  -5   0  139.58    9.43
  -6   5   0  144.62    9.61
   6  -5   0  148.43   12.22
   6  -5   0  156.10    9.99
  -6   5   0  130.96   12.37
  -6   5   0  162.16   10.50
   6  -5   0  150.34   12.97
  -6   5   0  136.60   10.19
  -6   5   0  146.19   10.17
   6  -5   0  138.85    9.48
  -6   5  -1 1263.34   62.46
   6  -5   1 1056.63   64.98
   6  -5   1 1232.67   62.51
   6  -5   1 1185.08   65.39
   6  -5   1 1255.73   62.65
  -6   5  -1 1280.52   63.43
   6  -5   1 1325.36   67.29
   6  -5   1 1301.30   62.56
   6  -5   2  131.13    9.10
  -6   5  -2  136.18    9.12
  -6   5  -2  126.52    8.77
   6  -5   2  133.26   11.52
   6  -5   2  135.43    9.37
   6  -5   2  129.71    9.26
  -6   5  -2  132.69    9.62
   6  -5   2  138.87   12.41
  -6   5  -2  134.13    9.74
  -6   5  -2  117.59    9.13
   6  -5   2  133.53    9.11
   6  -5   3  124.00    9.39
  -6   5  -3  134.31    9.28
  -6   5  -3  130.89    8.93
   6  -5   3  135.90    9.61
   6  -5   3  123.47    9.43
  -6   5  -3  144.74   10.24
  -6   5  -3  140.58   10.18
  -6   5  -3  143.46    9.88
  -6   5  -3  129.33    9.33
   6  -5   3  131.75    9.37
   6  -5   4   18.90    4.27
  -6   5  -4   15.73    3.31
   6  -5   4   19.16    3.24
  -6   5  -4   13.81    2.82
   6  -5   4   16.85    3.93
  -6   5  -4   16.51    3.35
   6  -5   4    8.32    3.97
  -6   5  -4   17.42    3.53
  -6   5  -4   15.44    3.34
  -6   5  -4   13.45    3.98
  -6   5  -4   13.89    2.90
   6  -5   5  217.54   13.59
  -6   5  -5  214.33   13.83
   6  -5   5  231.78   14.32
  -6   5  -5  228.31   13.40
  -6   5  -5  230.47   14.83
   6  -5   5  192.94   17.04
  -6   5  -5  214.00   14.81
  -6   5  -5  257.21   15.73
  -6   5  -5  256.00   15.76
  -6   5  -5  183.89   15.31
  -6   5  -6   35.36    4.56
   6  -5   6   36.47    4.53
  -6   5  -6   31.75    3.83
   6  -5   6   30.62    3.94
  -6   5  -6   28.25    4.18
  -6   5  -6   36.43    4.84
  -6   5  -6   34.78    4.89
  -6   5  -6   27.59    4.72
   6  -5   7  422.88   21.25
  -6   5  -7  387.22   20.18
   6  -5   7  308.78   19.01
  -6   5  -7  303.83   19.54
  -6   5  -7  379.54   21.48
   6  -5   7  346.05   20.04
   6  -5   8   44.84    4.78
  -6   5  -8   49.16    4.77
  -6   5  -8   39.37    4.67
   6  -5   8   47.76    4.68
   6  -5   9    3.92    1.56
   6  -5   9    4.05    1.48
   6  -5   9    2.22    1.37
  -6   4   9   -0.13    1.28
  -6   4   8   35.84    4.02
  -6   4   8   31.62    4.21
  -6   4   8   33.62    4.06
  -6   4   7   46.27    5.60
  -6   4   7   53.26    5.29
  -6   4   7   48.13    5.39
  -6   4   6  265.84   16.90
   6  -4  -6  231.03   20.81
  -6   4   6  333.41   18.93
  -6   4   6  318.15   17.95
  -6   4   5   19.45    3.54
  -6   4   5   18.28    3.43
   6  -4  -5   17.88    5.19
  -6   4   5   18.94    3.58
  -6   4   5   19.36    4.14
   6  -4  -5   15.91    4.36
   6  -4  -5   19.42    5.14
   6  -4  -5   17.63    4.97
  -6   4   5   22.24    3.81
   6  -4  -4   95.40    9.66
  -6   4   4   99.47    7.41
   6  -4  -4   85.59   10.80
  -6   4   4  101.91    7.76
   6  -4  -4   71.20    8.84
  -6   4   4  134.96    9.26
   6  -4  -4   87.92    7.04
   6  -4  -4  100.42   10.31
  -6   4   4  118.83    8.51
  -6   4   4  108.91    7.84
   6  -4  -3   71.91    7.78
   6  -4  -3   77.78    8.28
  -6   4   3   58.21    5.33
  -6   4   3   67.42    5.82
   6  -4  -3   63.08    7.80
  -6   4   3   81.76    6.70
   6  -4  -3   75.71    8.32
  -6   4   3   63.24    7.70
   6  -4  -3   62.21    5.38
  -6   4   3   62.78    5.78
  -6   4   3   76.59    6.07
   6  -4  -3   73.19    8.52
  -6   4   3   70.07    5.95
  -6   4   3   68.67    5.75
   6  -4  -2   94.92    9.13
  -6   4   2   70.75    6.09
   6  -4  -2   98.45    9.46
  -6   4   2   91.34    6.94
  -6   4   2   79.98    6.61
   6  -4  -2   85.16    8.88
  -6   4   2   81.27    8.81
  -6   4   2   80.48    6.62
   6  -4  -2   86.34    6.32
  -6   4   2   89.20    6.89
   6  -4  -2   87.90    9.24
  -6   4   2   77.59    6.63
   6  -4  -2   83.04    6.38
  -6   4   2   80.39    6.14
   6  -4  -1   31.53    5.38
   6  -4  -1   30.40    5.62
  -6   4   1   39.71    4.04
  -6   4   1   35.78    3.92
  -6   4   1   28.13    3.98
  -6   4   1   27.67    5.41
  -6   4   1   30.58    3.85
   6  -4  -1   33.31    3.56
  -6   4   1   39.99    4.37
  -6   4   1   37.23    4.19
   6  -4  -1   27.88    3.42
  -6   4   1   33.88    3.48
  -6   4   0   62.31    5.68
   6  -4   0   64.12    7.79
   6  -4   0   76.36    8.03
   6  -4   0   62.63    5.35
  -6   4   0   69.54    5.97
   6  -4   0   56.67    7.43
   6  -4   0   76.38    6.04
  -6   4   0   72.46    6.07
   6  -4   0   70.00    8.10
  -6   4   0   70.68    6.13
   6  -4   0   70.72    5.83
   6  -4   0   70.13    5.50
   6  -4   1   67.95    8.19
   6  -4   1   67.67    7.54
   6  -4   1   79.37    6.00
  -6   4  -1   71.00    5.82
  -6   4  -1   65.85    5.77
  -6   4  -1   72.61    8.11
  -6   4  -1   87.54    6.77
  -6   4  -1   76.71    6.41
  -6   4  -1   82.82    6.31
   6  -4   1   84.91    8.92
  -6   4  -1   69.60    5.96
  -6   4  -1   76.51    6.60
   6  -4   1   80.84    6.31
   6  -4   1   72.77    5.75
  -6   4  -1   69.46    5.80
   6  -4   2  205.67   12.08
  -6   4  -2  183.97   11.80
  -6   4  -2  173.81   11.34
   6  -4   2  191.14   11.95
  -6   4  -2  162.27   14.07
  -6   4  -2  211.52   12.89
  -6   4  -2  196.07   12.34
  -6   4  -2  194.59   12.15
  -6   4  -2  200.24   12.21
  -6   4  -2  193.06   12.49
   6  -4   2  200.83   12.27
   6  -4   2  168.10   11.39
   6  -4   3  447.11   24.97
  -6   4  -3  479.59   25.58
   6  -4   3  500.89   25.89
  -6   4  -3  464.01   24.95
   6  -4   3  460.66   25.38
   6  -4   3  472.69   26.06
  -6   4  -3  412.64   27.84
  -6   4  -3  497.05   26.22
  -6   4  -3  534.89   26.84
  -6   4  -3  463.99   26.11
  -6   4  -3  449.05   25.42
  -6   4  -3  482.33   26.10
   6  -4   3  452.48   25.88
  -6   4  -4  100.22    7.80
   6  -4   4  118.53    8.29
  -6   4  -4   98.31    7.19
   6  -4   4   92.30    7.58
   6  -4   4  108.69    8.40
  -6   4  -4  115.84    8.90
   6  -4   4   99.27   10.85
  -6   4  -4  105.85    8.41
  -6   4  -4  108.76    8.69
  -6   4  -4  110.04    8.63
  -6   4  -4   82.84    8.68
  -6   4  -4  102.23    7.87
   6  -4   4  100.86    7.60
   6  -4   5   13.44    3.09
  -6   4  -5   16.21    2.64
  -6   4  -5   17.53    3.30
   6  -4   5   11.49    3.07
  -6   4  -5   18.80    3.63
  -6   4  -5   17.23    3.47
  -6   4  -5   18.64    3.60
  -6   4  -5   15.71    3.48
   6  -4   5   13.17    2.79
   6  -4   6   38.64    4.81
  -6   4  -6   35.18    4.61
   6  -4   6   30.98    4.37
  -6   4  -6   33.58    4.53
  -6   4  -6   37.38    4.95
  -6   4  -6   39.11    5.02
  -6   4  -6   34.23    4.77
  -6   4  -7   13.52    2.92
   6  -4   7   11.79    2.88
  -6   4  -7    9.64    2.43
  -6   4  -7   10.20    2.84
  -6   4  -7   15.97    3.37
  -6   4  -8    5.50    2.34
   6  -4   8    4.05    1.71
   6  -4   8    4.40    1.78
  -6   4  -8    5.01    1.96
  -6   4  -8    4.61    1.98
  -6   4  -8    4.22    1.92
   6  -4   8    5.26    1.99
   6  -4   9   94.81    6.50
   6  -4   9   88.35    6.32
  -6   3  10    7.45    1.75
  -6   3   9   30.18    3.62
  -6   3   9   39.34    4.18
  -6   3   8    9.80    2.97
  -6   3   8    7.12    2.67
  -6   3   7   38.01    4.62
  -6   3   7   36.84    4.50
   6  -3  -7   29.66    6.11
  -6   3   7   40.37    4.85
  -6   3   7   42.95    5.16
  -6   3   6   88.63    7.47
  -6   3   6   74.88    6.50
   6  -3  -6   57.71    9.15
  -6   3   6   92.02    7.91
   6  -3  -6   72.99    9.61
   6  -3  -6   68.33    9.51
  -6   3   6   83.85    7.30
  -6   3   5   36.61    4.31
  -6   3   5   34.30    4.71
   6  -3  -5   30.21    5.46
  -6   3   5   30.25    3.84
   6  -3  -5   28.71    6.37
  -6   3   5   30.50    4.10
  -6   3   5   32.31    4.52
   6  -3  -5   34.02    5.76
   6  -3  -5   36.42    6.72
   6  -3  -5   34.75    6.53
  -6   3   5   38.16    4.73
  -6   3   4   17.40    3.01
   6  -3  -4   25.34    4.98
  -6   3   4   16.53    2.81
   6  -3  -4   20.44    5.15
  -6   3   4   16.54    3.10
  -6   3   4   21.34    3.57
  -6   3   4   16.69    3.53
  -6   3   4   19.55    4.16
   6  -3  -4   20.92    4.70
   6  -3  -4   20.09    5.33
  -6   3   4   17.90    2.96
   6  -3  -4   25.89    5.56
  -6   3   3    7.21    2.06
   6  -3  -3   12.35    3.60
   6  -3  -3   10.10    3.89
  -6   3   3    6.96    2.12
  -6   3   3    9.79    2.53
  -6   3   3   11.55    2.81
  -6   3   3   11.73    3.47
   6  -3  -3   13.00    2.52
   6  -3  -3   12.12    4.02
  -6   3   3    9.42    2.14
   6  -3  -3   13.37    4.06
   6  -3  -2  366.09   21.64
   6  -3  -2  337.56   22.28
  -6   3   2  291.98   17.38
  -6   3   2  350.71   18.27
  -6   3   2  337.49   18.57
  -6   3   2  328.10   21.21
  -6   3   2  308.51   17.74
   6  -3  -2  323.63   17.98
   6  -3  -2  329.09   21.34
  -6   3   2  320.34   18.11
   6  -3  -2  297.92   20.29
  -6   3   2  277.88   16.91
   6  -3  -1  193.55   14.90
  -6   3   1  172.73   11.19
  -6   3   1  189.30   11.87
  -6   3   1  178.53   14.19
  -6   3   1  176.29   11.39
   6  -3  -1  189.83   11.55
   6  -3  -1  183.61   14.48
  -6   3   1  199.96   11.99
   6  -3  -1  159.23   12.95
   6  -3  -1  194.70   11.67
  -6   3   1  183.51   11.45
   6  -3   0  348.03   22.89
   6  -3   0  379.02   22.98
   6  -3   0  352.14   19.25
  -6   3   0  340.71   19.26
  -6   3   0  361.74   19.75
  -6   3   0  367.21   20.26
   6  -3   0  375.90   20.09
  -6   3   0  352.88   19.91
   6  -3   0  336.93   22.82
   6  -3   0  306.30   20.63
  -6   3   0  370.94   20.27
   6  -3   0  358.75   19.73
  -6   3   0  336.73   19.59
   6  -3   1  811.86   46.11
   6  -3   1  834.06   44.95
   6  -3   1  829.66   42.03
  -6   3  -1  769.13   41.52
  -6   3  -1  830.81   41.92
  -6   3  -1  754.96   45.26
   6  -3   1  827.08   42.50
  -6   3  -1  863.54   42.84
  -6   3  -1  825.26   42.14
  -6   3  -1  837.02   42.84
   6  -3   1  848.43   42.41
   6  -3   2  108.83   11.11
   6  -3   2  124.48    8.62
  -6   3  -2  121.29    8.07
  -6   3  -2  135.83    9.37
  -6   3  -2  121.00   10.79
   6  -3   2  115.65    8.25
   6  -3   2  120.72    8.86
  -6   3  -2  143.46    9.60
  -6   3  -2  126.81    8.57
  -6   3  -2  126.92    8.87
  -6   3  -2  130.99    9.19
   6  -3   2  109.09    8.57
  -6   3  -3  232.23   14.22
   6  -3   3  242.57   14.55
  -6   3  -3  212.47   13.33
  -6   3  -3  239.78   14.90
  -6   3  -3  219.76   16.29
   6  -3   3  228.90   14.51
  -6   3  -3  253.26   14.77
  -6   3  -3  234.46   14.11
  -6   3  -3  243.53   14.94
  -6   3  -3  264.74   14.97
  -6   3  -3  240.19   14.77
  -6   3  -4   94.84    7.77
  -6   3  -4   90.42    7.93
   6  -3   4  101.27    8.16
  -6   3  -4  109.42    8.84
  -6   3  -4  106.50    8.44
  -6   3  -4  120.21    8.94
  -6   3  -4  129.49    9.10
  -6   3  -4   99.72    7.96
   6  -3   4  116.09    8.43
   6  -3   5   70.27    6.54
  -6   3  -5   67.33    6.24
  -6   3  -5   57.42    5.79
  -6   3  -5   68.53    6.38
  -6   3  -5   72.08    6.83
  -6   3  -5   78.96    7.02
  -6   3  -5   65.52    6.73
  -6   3  -5   71.85    6.86
   6  -3   5   80.54    6.74
   6  -3   6   99.01    7.98
  -6   3  -6  109.32    7.93
   6  -3   6   97.27    7.89
  -6   3  -6   97.01    8.06
   6  -3   6  101.95    8.08
  -6   3  -6  101.32    8.21
  -6   3  -6   94.83    8.22
  -6   3  -6   92.25    8.31
  -6   3  -6   98.47    8.37
   6  -3   7    1.52    1.84
  -6   3  -7    2.25    2.32
   6  -3   7    2.13    1.69
  -6   3  -7    0.90    1.51
   6  -3   7    3.54    2.37
  -6   3  -7    2.08    1.73
  -6   3  -7    0.99    1.60
  -6   3  -7    2.77    2.07
   6  -3   7    2.34    1.98
   6  -3   8   23.20    3.03
  -6   3  -8   25.71    2.99
   6  -3   8   19.53    2.73
  -6   3  -8   17.38    2.73
   6  -3   8   15.94    2.68
  -6   3  -8   20.42    3.02
  -6   3  -8   27.45    3.45
   6  -3   8   20.09    2.79
  -6   2  10   57.96    4.48
  -6   2   9   42.07    4.50
  -6   2   9   45.76    4.51
  -6   2   8    6.44    2.68
   6  -2  -8    3.54    3.80
  -6   2   8    5.04    2.66
  -6   2   8    4.05    2.50
  -6   2   7   79.44    7.24
   6  -2  -7   54.30    8.69
  -6   2   7   74.89    6.62
  -6   2   7   98.73    8.10
  -6   2   7   73.49    7.03
  -6   2   6   -0.80    2.42
   6  -2  -6   -2.34    2.52
   6  -2  -6    1.89    3.19
  -6   2   6   -0.28    2.25
  -6   2   6   -0.45    1.99
   6  -2  -6   -0.55    3.05
  -6   2   6    1.27    2.01
   6  -2  -5   55.30    8.51
  -6   2   5   55.09    5.26
  -6   2   5   68.13    6.35
  -6   2   5   56.36    5.73
   6  -2  -5   39.86    7.14
  -6   2   5   55.76    5.66
  -6   2   4   13.16    2.65
   6  -2  -4   13.45    2.59
  -6   2   4   12.30    2.97
  -6   2   4   15.45    3.24
  -6   2   4    9.50    2.21
  -6   2   4   10.34    3.43
   6  -2  -4   12.99    3.96
   6  -2  -4   15.63    4.59
   6  -2  -4   14.33    4.00
  -6   2   4   13.36    2.90
   6  -2  -3   95.46    9.11
   6  -2  -3   99.32   10.32
  -6   2   3   80.49    6.63
   6  -2  -3   73.17    5.95
  -6   2   3   91.43    6.89
  -6   2   3   85.32    8.68
   6  -2  -3   85.39    6.67
   6  -2  -3   97.81    9.34
   6  -2  -3   79.27    8.81
  -6   2   3   87.09    6.48
   6  -2  -3   89.89    8.45
  -6   2   3   68.42    5.64
   6  -2  -2  219.43   16.46
  -6   2   2  198.55   12.31
   6  -2  -2  203.70   11.92
  -6   2   2  201.28   12.30
  -6   2   2  193.87   15.10
  -6   2   2  223.68   13.01
  -6   2   2  190.91   12.46
   6  -2  -2  201.98   12.61
   6  -2  -2  222.21   15.80
   6  -2  -2  178.41   14.38
  -6   2   2  200.51   12.57
   6  -2  -2  217.59   12.85
  -6   2   2  201.25   12.60
   6  -2  -1  452.12   28.04
   6  -2  -1  494.90   29.05
   6  -2  -1  445.37   24.17
  -6   2   1  431.33   24.34
  -6   2   1  471.42   25.15
  -6   2   1  480.40   25.36
  -6   2   1  463.41   24.79
   6  -2  -1  419.28   26.47
  -6   2   1  487.85   25.41
   6  -2  -1  483.06   25.30
   6  -2  -1  488.20   25.32
  -6   2   1  446.59   25.05
   6  -2   0  437.16   27.68
  -6   2   0  425.85   24.31
   6  -2   0  463.19   24.12
   6  -2   0  421.29   23.64
  -6   2   0  431.15   23.79
  -6   2   0  476.61   28.12
  -6   2   0  466.20   25.04
  -6   2   0  449.63   24.42
   6  -2   0  479.11   24.69
  -6   2   0  447.25   24.63
  -6   2   0  466.46   25.04
   6  -2   0  473.52   24.91
   6  -2   0  480.91   24.95
  -6   2   0  450.59   24.73
   6  -2   1   38.11    6.04
  -6   2  -1   45.91    4.67
   6  -2   1   40.14    4.31
  -6   2  -1   53.11    6.69
   6  -2   1   51.42    4.80
  -6   2  -1   52.47    5.01
  -6   2  -1   48.90    4.49
  -6   2  -1   44.66    4.80
   6  -2   1   47.60    4.79
   6  -2   1   51.18    4.96
  -6   2  -2   74.47    6.15
   6  -2   2   67.02    8.33
   6  -2   2   69.72    6.01
   6  -2   2   65.88    5.51
  -6   2  -2   79.07    6.74
  -6   2  -2   76.24    8.10
   6  -2   2   67.29    6.03
  -6   2  -2   70.62    6.57
  -6   2  -2   80.68    6.67
  -6   2  -2   72.57    6.19
  -6   2  -2   86.33    6.86
   6  -2   2   70.07    6.35
   6  -2   2   68.31    6.32
  -6   2  -3  117.45    8.45
   6  -2   3  102.55    7.79
  -6   2  -3  121.88    9.11
   6  -2   3  107.59    8.30
  -6   2  -3  118.19    9.15
  -6   2  -3  121.91    8.71
  -6   2  -3  114.85    9.09
  -6   2  -3  122.14    8.96
  -6   2  -3  128.13    8.85
  -6   2  -3  114.74    8.78
   6  -2   4   94.21    7.49
  -6   2  -4   96.87    7.36
   6  -2   4   79.36    6.70
   6  -2   4   84.28    7.19
  -6   2  -4   76.34    7.28
   6  -2   4   89.38    7.22
  -6   2  -4  110.16    8.13
  -6   2  -4  104.18    8.41
  -6   2  -4  103.55    8.15
  -6   2  -4   92.96    7.75
  -6   2  -4   93.97    7.51
   6  -2   4   94.91    7.80
   6  -2   5   37.18    4.49
  -6   2  -5   40.83    4.57
   6  -2   5   26.44    3.74
   6  -2   5   31.72    4.23
  -6   2  -5   36.10    4.42
  -6   2  -5   44.15    5.26
  -6   2  -5   45.39    5.04
  -6   2  -5   38.67    4.94
  -6   2  -5   47.73    5.19
   6  -2   5   37.69    4.80
   6  -2   6   15.79    3.06
  -6   2  -6   16.21    3.00
   6  -2   6   13.47    2.78
  -6   2  -6   17.76    3.08
  -6   2  -6   15.28    3.32
  -6   2  -6   19.25    3.39
  -6   2  -6   11.26    3.00
  -6   2  -6   12.96    3.08
   6  -2   6   16.31    3.16
   6  -2   7    4.95    1.88
  -6   2  -7    2.29    1.84
   6  -2   7    2.09    1.39
  -6   2  -7    2.05    1.48
   6  -2   7    3.75    2.08
  -6   2  -7    3.00    1.80
  -6   2  -7    6.65    2.09
  -6   2  -7    3.68    1.98
  -6   2  -7    5.84    1.98
   6  -2   7    1.22    1.67
   6  -2   8    6.52    1.66
   6  -2   8    7.43    1.37
  -6   2  -8    8.82    1.86
  -6   2  -8    6.56    1.64
  -6   1  11   15.13    2.00
  -6   1  10   15.00    2.75
  -6   1  10   19.04    2.79
  -6   1  10   17.50    3.04
  -6   1   9   71.00    6.29
  -6   1   9   68.35    5.76
   6  -1  -9   54.81    5.19
  -6   1   9   70.85    6.25
  -6   1   8  333.72   19.38
  -6   1   8  341.36   18.58
   6  -1  -8  273.91   17.60
  -6   1   8  331.92   19.06
  -6   1   7   33.40    4.85
   6  -1  -7   40.02    7.79
  -6   1   7   38.57    4.66
  -6   1   7   38.95    4.63
   6  -1  -7   29.67    3.95
  -6   1   7   40.11    4.82
  -6   1   6   26.72    3.96
   6  -1  -6   17.35    5.52
   6  -1  -6   16.91    4.91
  -6   1   6   20.75    3.82
  -6   1   6   20.19    3.50
  -6   1   6   15.09    3.39
   6  -1  -6   17.71    3.10
  -6   1   6   22.32    3.56
  -6   1   5   33.29    4.27
   6  -1  -5   36.66    6.97
  -6   1   5   28.72    3.88
   6  -1  -5   22.24    3.59
  -6   1   5   31.54    4.21
  -6   1   5   29.89    5.10
   6  -1  -5   25.97    3.44
   6  -1  -5   27.82    5.27
  -6   1   4   52.33    5.21
   6  -1  -4   48.82    4.88
  -6   1   4   58.72    7.08
  -6   1   4   56.77    5.50
   6  -1  -4   57.55    7.43
   6  -1  -4   52.38    4.66
  -6   1   4   55.45    5.28
   6  -1  -3  201.95   16.26
  -6   1   3  192.27   11.78
   6  -1  -3  186.73   11.54
  -6   1   3  207.02   14.95
  -6   1   3  201.31   11.86
  -6   1   3  185.34   11.75
   6  -1  -3  191.76   12.06
  -6   1   3  179.37   11.64
   6  -1  -3  171.16   10.98
   6  -1  -2  148.14   11.98
  -6   1   2  126.46    8.73
  -6   1   2  127.24    9.28
   6  -1  -2  135.35    8.88
  -6   1   2  137.50   11.84
  -6   1   2  133.61    9.31
  -6   1   2  135.62    9.18
  -6   1   2  129.40    9.10
   6  -1  -2  138.56    9.26
  -6   1   2  140.99    9.34
   6  -1  -2  127.74    8.34
   6  -1  -1  163.23   12.66
  -6   1   1  134.90    8.98
   6  -1  -1  138.10    9.23
  -6   1   1  138.73    9.92
  -6   1   1  150.78   12.45
  -6   1   1  151.18    9.94
  -6   1   1  144.98    9.74
   6  -1  -1  150.14    9.52
  -6   1   1  143.26    9.38
   6  -1  -1  150.34    9.90
  -6   1   1  147.46    9.96
   6  -1  -1  140.32    9.60
   6  -1  -1  135.02    8.81
   6  -1   0  800.58   42.13
  -6   1   0  710.87   37.78
   6  -1   0  719.76   37.64
  -6   1   0  773.95   41.88
  -6   1   0  754.45   38.66
  -6   1   0  754.32   38.06
   6  -1   0  722.66   37.67
  -6   1   0  735.45   38.12
  -6   1   0  750.00   37.89
   6  -1   0  748.99   38.18
   6  -1   0  678.15   37.09
   6  -1   1  460.24   27.22
  -6   1  -1  428.75   23.35
   6  -1   1  418.85   23.26
  -6   1  -1  447.86   26.91
   6  -1   1  415.25   23.08
  -6   1  -1  450.50   24.07
  -6   1  -1  470.39   23.97
  -6   1  -1  433.06   23.29
   6  -1   1  451.21   27.37
   6  -1   1  407.09   23.63
  -6   1  -1  375.72   24.89
   6  -1   1  409.08   22.81
  -6   1  -2   10.05    2.73
   6  -1   2   12.17    2.77
  -6   1  -2   10.81    3.05
   6  -1   2    8.62    2.13
  -6   1  -2   12.07    3.53
  -6   1  -2   11.75    2.80
  -6   1  -2   11.38    2.75
  -6   1  -2    9.49    2.40
  -6   1  -2   10.33    2.82
  -6   1  -2   13.63    3.65
   6  -1   2   10.36    2.36
   6  -1   3  181.97   12.13
  -6   1  -3  199.72   12.22
   6  -1   3  192.53   12.43
  -6   1  -3  193.04   13.17
  -6   1  -3  204.89   13.42
  -6   1  -3  199.73   12.72
  -6   1  -3  225.00   13.64
  -6   1  -3  204.26   12.99
  -6   1  -3  197.01   12.62
  -6   1  -3  191.45   12.95
  -6   1  -3  158.25   14.01
   6  -1   3  185.75   11.89
   6  -1   4  168.69   11.97
  -6   1  -4  202.48   12.07
   6  -1   4  172.07   12.10
  -6   1  -4  202.16   13.09
   6  -1   4  201.88   12.84
  -6   1  -4  207.19   12.98
  -6   1  -4  221.72   13.75
  -6   1  -4  200.96   13.14
  -6   1  -4  194.30   12.77
  -6   1  -4  186.98   12.44
  -6   1  -4  151.60   14.06
   6  -1   4  182.23   11.76
   6  -1   5  307.84   20.17
   6  -1   5  323.47   20.17
  -6   1  -5  328.13   20.44
   6  -1   5  381.99   21.03
  -6   1  -5  386.35   21.65
  -6   1  -5  414.40   21.62
  -6   1  -5  400.92   21.73
  -6   1  -5  377.75   21.31
  -6   1  -5  378.11   20.03
   6  -1   6   43.40    4.49
   6  -1   6   35.84    4.09
   6  -1   6   62.38    5.31
  -6   1  -6   57.30    5.37
  -6   1  -6   47.51    4.95
  -6   1  -6   50.13    5.05
  -6   1  -6   52.37    5.10
   6  -1   6   34.38    3.89
  -6   1  -7    4.91    1.74
  -6   1  -7    6.13    1.78
  -6   1  -7    8.49    1.95
  -6   1  -7    6.57    1.75
  -6   0  11   47.41    4.13
  -6   0  11   47.28    3.61
   6   0 -11   41.93    3.81
  -6   0  10   54.89    5.15
   6   0 -10   57.07    4.94
   6   0 -10   50.76    4.40
  -6   0  10   46.76    4.61
  -6   0   9  344.72   19.49
  -6   0   9  366.29   18.62
   6   0  -9  310.69   18.28
  -6   0   9  278.46   18.36
  -6   0   8   18.54    3.82
   6   0  -8   16.80    5.74
  -6   0   8   19.89    3.66
   6   0  -8   18.17    5.74
   6   0  -8   17.09    3.23
  -6   0   8   16.56    3.28
   6   0  -7  306.43   21.63
  -6   0   7  319.57   17.72
  -6   0   7  296.17   17.29
  -6   0   7  308.96   17.48
  -6   0   7  268.61   16.98
   6   0  -7  275.08   20.46
   6   0  -7  260.44   16.71
   6   0  -6  209.02   16.94
  -6   0   6  263.59   15.93
   6   0  -6  253.42   18.91
   6   0  -6  251.36   15.07
  -6   0   6  269.22   15.58
  -6   0   6  231.27   14.86
   6   0  -6  254.12   15.35
  -6   0   6  255.67   15.28
  -6   0   6  277.15   15.82
   6   0  -6  217.10   17.37
   6   0  -6  241.82   14.80
   6   0  -5  163.44   13.13
  -6   0   5  162.15   10.99
   6   0  -5  149.58   13.19
   6   0  -5  148.44   10.39
  -6   0   5  157.83   12.94
  -6   0   5  166.42   10.99
  -6   0   5  160.30   10.25
   6   0  -5  151.17   13.29
   6   0  -5  140.11    9.91
  -6   0   5  152.24   10.19
   6   0  -4  118.49   11.03
  -6   0   4  122.99    8.96
   6   0  -4  123.29    8.91
  -6   0   4  130.83   11.49
  -6   0   4  137.21    9.47
  -6   0   4  124.89    8.85
   6   0  -4  141.71   12.45
   6   0  -4  130.37    8.66
  -6   0   4  129.09    8.82
  -6   0   3  129.58    9.08
   6   0  -3  142.01    9.41
  -6   0   3  142.76   12.21
  -6   0   3  135.81    9.20
  -6   0   3  130.85    9.29
   6   0  -3  136.44    9.45
   6   0  -3  132.45   12.63
  -6   0   3  139.48    9.47
   6   0  -3  149.13    9.82
   6   0  -3  131.52    8.88
  -6   0   2  147.38    9.76
   6   0  -2  154.62   10.14
  -6   0   2  156.46   10.54
  -6   0   2  154.98   10.40
   6   0  -2  158.52    9.83
   6   0  -2  154.75   10.31
   6   0  -2  171.05   14.33
   6   0  -2  153.12   10.09
   6   0  -2  155.24   10.52
   6   0  -2  149.83    9.77
   6   0  -1  843.73   45.66
   6   0  -1  797.41   41.81
  -6   0   1  805.55   45.80
  -6   0   1  812.15   42.32
  -6   0   1  842.66   42.21
  -6   0   1  795.54   41.90
  -6   0   1  811.24   41.69
   6   0  -1  804.02   46.50
   6   0  -1  784.17   41.65
   6   0  -1  832.59   42.36
   6   0  -1  803.81   41.49
  -6   0   1  832.27   42.54
   6   0   0  527.48   30.95
   6   0   0  495.61   27.56
  -6   0   0  520.92   31.45
  -6   0   0  525.99   28.30
  -6   0   0  534.73   27.72
  -6   0   0  493.94   27.48
  -6   0   0  531.98   27.75
  -6   0   0  518.80   27.42
   6   0   0  508.35   31.62
   6   0   0  479.17   27.21
   6   0   0  530.38   28.20
   6   0   0  479.74   27.08
  -6   0   0  525.02   28.20
   6   0   1    6.90    2.46
  -6   0  -1    6.57    3.00
   6   0   1    6.21    2.35
  -6   0  -1    8.26    2.57
  -6   0  -1    5.21    2.30
  -6   0  -1    6.74    2.19
   6   0   1    6.96    1.96
   6   0   1    5.61    2.39
   6   0   1    4.93    2.62
  -6   0  -1    4.93    3.09
  -6   0  -2   72.96    6.71
   6   0   2   72.83    6.45
  -6   0  -2   84.44    7.22
  -6   0  -2   68.91    6.70
  -6   0  -2   76.49    6.66
   6   0   2   64.89    6.07
  -6   0  -2   54.37    7.68
   6   0   3  115.94    8.50
  -6   0  -3  108.38    8.85
   6   0   3   98.53    8.09
  -6   0  -3  116.62    9.11
  -6   0  -3  103.77    8.16
  -6   0  -3  108.50    8.73
  -6   0  -3  111.48    8.52
   6   0   3  111.43    8.59
  -6   0  -3   77.19    9.71
   6   0   3  110.11    8.12
   6   0   4   18.64    3.19
   6   0   4   31.04    4.21
  -6   0  -4   32.02    4.37
   6   0   4   29.71    4.08
  -6   0  -4   27.08    3.93
  -6   0  -4   33.20    4.51
  -6   0  -4   35.63    4.37
  -6   0  -4   27.10    3.93
  -6   0  -4   31.38    4.06
   6   0   4   27.64    3.99
   6   0   4   23.00    3.73
   6   0   5   26.17    3.54
   6   0   5   35.31    4.24
  -6   0  -5   36.95    4.22
   6   0   5   39.18    4.37
  -6   0  -5   41.07    4.75
  -6   0  -5   43.41    4.57
  -6   0  -5   39.19    4.67
  -6   0  -5   41.98    4.57
  -6   0  -5   35.90    4.27
  -6   0  -5   38.78    4.16
   6   0   6   39.60    3.84
  -6   0  -6   32.02    3.81
  -6   0  -6   44.67    4.20
  -6   0  -6   35.54    3.76
  -6   0  -6   28.71    3.26
   6   1 -11   14.15    2.06
  -6  -1  11   16.40    2.56
  -6  -1  11    9.17    1.82
  -6  -1  11    8.94    1.52
  -6  -1  10   32.87    4.03
   6   1 -10   25.90    3.36
  -6  -1  10   22.45    2.97
  -6  -1   9   58.99    5.14
   6   1  -9   46.50    4.70
   6   1  -9   51.73    5.16
  -6  -1   8  257.35   15.51
  -6  -1   8  275.12   15.20
  -6  -1   8  265.82   14.87
   6   1  -8  227.18   13.75
   6   1  -8  251.60   15.00
  -6  -1   7  227.55   14.50
  -6  -1   7  241.57   14.43
   6   1  -7  226.13   14.45
  -6  -1   7  253.59   14.44
  -6  -1   7  250.39   14.46
   6   1  -7  199.32   16.68
   6   1  -7  203.91   13.02
   6   1  -7  224.34   13.94
   6   1  -7  169.80   15.64
   6   1  -6  170.96   11.32
  -6  -1   6  167.73   11.50
  -6  -1   6  174.18   11.51
   6   1  -6  170.64   11.56
  -6  -1   6  156.47   13.42
  -6  -1   6  186.12   11.77
   6   1  -6  153.30   13.88
  -6  -1   6  182.52   11.02
   6   1  -6  142.67   10.10
   6   1  -6  173.41   11.16
   6   1  -6  154.74   13.64
  -6  -1   5  379.37   21.64
   6   1  -5  399.01   22.12
  -6  -1   5  376.92   21.50
   6   1  -5  380.08   21.58
  -6  -1   5  368.12   24.55
  -6  -1   5  422.27   22.25
  -6  -1   5  378.33   21.23
   6   1  -5  376.11   25.55
   6   1  -5  338.98   20.24
   6   1  -5  391.55   21.35
   6   1  -5  412.36   25.50
   6   1  -4   63.74    7.95
  -6  -1   4   50.13    5.25
   6   1  -4   61.46    5.99
  -6  -1   4   52.84    5.40
   6   1  -4   59.51    5.65
  -6  -1   4   62.21    7.73
  -6  -1   4   64.80    5.99
  -6  -1   4   60.13    5.59
   6   1  -4   59.78    5.43
   6   1  -4   55.84    8.05
   6   1  -4   55.70    4.88
   6   1  -4   62.24    5.71
   6   1  -4   59.96    5.39
  -6  -1   3  109.98    8.37
   6   1  -3  121.42    8.94
  -6  -1   3  121.70   11.54
  -6  -1   3  128.81    8.79
  -6  -1   3  122.87    9.00
   6   1  -3  139.13    8.96
   6   1  -3  116.50    8.38
   6   1  -3  129.54    9.07
   6   1  -3  121.20    8.58
   6   1  -2   83.93    7.13
  -6  -1   2   67.02    5.80
   6   1  -2   77.25    6.51
  -6  -1   2   69.14    8.69
  -6  -1   2   71.09    6.40
  -6  -1   2   72.11    6.49
   6   1  -2   73.36    9.29
   6   1  -2   86.04    6.40
   6   1  -2   71.20    6.28
   6   1  -2   72.23    6.14
   6   1  -1   32.76    4.35
   6   1  -1   29.42    4.05
  -6  -1   1   30.46    4.11
  -6  -1   1   29.10    3.94
  -6  -1   1   31.51    4.29
  -6  -1   1   28.47    5.59
  -6  -1   1   27.86    3.64
   6   1  -1   32.31    3.93
   6   1  -1   26.46    5.51
   6   1  -1   30.78    3.94
  -6  -1   1   30.63    4.17
   6   1   0  441.45   25.52
   6   1   0  487.62   25.72
  -6  -1   0  436.55   28.86
  -6  -1   0  484.13   26.24
  -6  -1   0  473.60   25.49
  -6  -1   0  473.97   25.44
   6   1   0  400.02   28.59
  -6  -1   0  462.23   25.45
  -6  -1   0  440.41   25.04
   6   1   0  446.53   25.49
   6   1   0  443.62   25.18
  -6  -1   0  506.94   26.14
   6   1   1  206.94   13.09
  -6  -1  -1  196.08   12.93
  -6  -1  -1  201.15   12.60
  -6  -1  -1  179.38   12.57
   6   1   1  195.33   12.76
  -6  -1  -1  216.28   13.29
   6   1   2   46.90    5.01
  -6  -1  -2   43.60    5.24
  -6  -1  -2   40.11    4.70
   6   1   2   31.72    4.16
  -6  -1  -2   32.62    4.49
  -6  -1  -2   40.63    4.75
   6   1   2   39.74    4.55
   6   1   2   38.06    4.62
   6   1   3    9.48    2.75
   6   1   3   12.58    2.98
  -6  -1  -3    8.26    2.85
   6   1   3   10.64    2.70
  -6  -1  -3    9.38    2.90
  -6  -1  -3   10.04    2.78
   6   1   3   10.04    2.45
  -6  -1  -3   10.64    2.57
   6   1   4   56.29    5.26
  -6  -1  -4   58.26    5.45
   6   1   4   56.88    5.10
  -6  -1  -4   57.51    5.52
  -6  -1  -4   45.07    4.76
  -6  -1  -4   60.61    5.58
  -6  -1  -4   55.87    5.20
  -6  -1  -4   49.45    4.77
  -6  -1  -4   38.71    4.50
   6   1   4   57.42    5.13
  -6  -1  -4   45.64    4.54
   6   1   5   48.46    4.22
  -6  -1  -5   40.69    3.92
   6   1   5   37.93    3.82
  -6  -1  -5   50.70    4.69
  -6  -1  -5   49.60    4.39
  -6  -1  -5   39.28    3.88
  -6  -2  11    7.19    1.46
   6   2 -11   12.73    2.14
   6   2 -11   10.94    1.94
  -6  -2  10  137.06    9.75
   6   2 -10  156.35    9.78
   6   2 -10  137.46    8.78
   6   2 -10  158.93    9.56
  -6  -2   9  121.48    9.19
  -6  -2   9  130.37    8.95
  -6  -2   9  127.86    8.52
   6   2  -9  141.51    9.39
   6   2  -9  113.87    8.16
   6   2  -9  125.57    8.88
  -6  -2   8  192.71   13.59
  -6  -2   8  233.91   13.91
  -6  -2   8  236.18   13.76
   6   2  -8  222.39   14.06
   6   2  -8  207.51   12.89
   6   2  -8  220.63   13.72
  -6  -2   7   80.43    7.20
  -6  -2   7   99.25    7.74
   6   2  -7  105.84    7.99
  -6  -2   7   93.23    7.42
   6   2  -7   78.89    6.72
   6   2  -7   94.09    7.37
   6   2  -7   86.75    7.16
   6   2  -7   74.45    9.12
   6   2  -6  314.81   19.00
  -6  -2   6  294.08   18.42
  -6  -2   6  304.44   21.53
   6   2  -6  288.93   22.32
  -6  -2   6  371.16   19.57
  -6  -2   6  330.35   18.49
   6   2  -6  296.74   17.75
   6   2  -6  324.35   18.83
   6   2  -6  350.44   18.87
   6   2  -6  310.07   22.22
   6   2  -5  361.89   24.20
   6   2  -5  365.80   20.94
  -6  -2   5  321.40   19.61
  -6  -2   5  345.88   20.11
  -6  -2   5  324.97   23.22
   6   2  -5  334.75   24.50
  -6  -2   5  392.20   21.03
  -6  -2   5  358.84   20.08
   6   2  -5  328.55   19.67
   6   2  -5  325.89   19.17
   6   2  -5  391.82   20.51
   6   2  -5  370.45   20.19
  -6  -2   4  472.03   26.07
  -6  -2   4  471.50   30.17
  -6  -2   4  529.34   27.19
   6   2  -4  472.29   31.43
  -6  -2   4  486.06   26.42
   6   2  -4  455.28   25.78
   6   2  -4  447.13   25.36
   6   2  -4  511.37   26.48
   6   2  -4  490.08   26.26
   6   2  -3   67.75    6.74
  -6  -2   3   77.45    6.23
  -6  -2   3   71.33    6.29
  -6  -2   3   77.74    6.85
   6   2  -3   68.10    9.38
   6   2  -3   67.85    5.74
   6   2  -3   74.00    6.29
   6   2  -3   75.82    6.45
   6   2  -2   57.81    6.04
  -6  -2   2   50.93    4.98
  -6  -2   2   51.69    7.86
  -6  -2   2   58.25    5.74
  -6  -2   2   54.50    5.79
   6   2  -2   57.18    8.36
  -6  -2   2   59.88    5.87
   6   2  -2   74.28    5.89
   6   2  -2   64.51    5.86
   6   2  -1   66.22    6.45
  -6  -2   1   64.60    8.56
   6   2  -1   51.74    8.12
  -6  -2   1   67.58    6.48
  -6  -2   1   66.99    6.32
  -6  -2   1   73.53    6.43
   6   2  -1   72.77    6.13
   6   2  -1   75.38    6.38
   6   2   0   76.24    6.83
  -6  -2   0   67.41    8.95
  -6  -2   0   98.88    7.87
  -6  -2   0   79.67    6.89
  -6  -2   0   97.34    7.24
  -6  -2   0   85.02    6.95
  -6  -2   0   73.12    6.45
   6   2   0   89.40    7.24
  -6  -2   0   89.64    7.10
  -6  -2  -1  100.52    7.82
  -6  -2  -1  119.11    9.07
  -6  -2  -1  104.05    8.15
  -6  -2  -1   95.40    7.88
   6   2   1  114.80    8.45
   6   2   1  114.88    8.05
  -6  -2  -2  245.12   15.13
  -6  -2  -2  226.12   14.58
  -6  -2  -2  217.91   14.36
   6   2   2  234.51   14.00
   6   2   2  255.49   14.58
   6   2   3    8.00    2.32
  -6  -2  -3    6.40    2.31
  -6  -2  -3   11.76    2.62
  -6  -2  -3    8.81    2.25
  -6  -2  -3    7.22    1.98
  -6  -2  -3    8.91    2.35
  -6  -2  -4    4.26    1.61
  -6  -2  -4    5.43    1.77
  -6  -2  -4    3.51    1.40
  -6  -3  11    2.86    1.37
  -6  -3  10    0.80    1.47
   6   3 -10    2.71    1.84
   6   3 -10    1.57    1.85
   6   3 -10    2.88    1.67
  -6  -3   9   19.37    3.10
  -6  -3   9   21.30    3.29
  -6  -3   9   23.82    3.00
   6   3  -9   20.10    3.33
   6   3  -9   13.22    2.44
   6   3  -9   18.62    3.07
   6   3  -9   14.55    2.60
   6   3  -9   26.07    3.48
  -6  -3   8   18.81    3.11
  -6  -3   8   24.81    3.75
  -6  -3   8   19.58    3.44
   6   3  -8   22.69    3.72
  -6  -3   8   17.89    3.05
   6   3  -8   16.40    2.74
   6   3  -8   18.19    3.35
   6   3  -8   15.84    2.79
  -6  -3   7   45.67    4.96
  -6  -3   7   64.82    5.78
   6   3  -7   64.16    5.84
  -6  -3   7   63.03    5.75
  -6  -3   7   57.06    5.21
   6   3  -7   44.66    4.63
   6   3  -7   61.90    5.45
   6   3  -7   44.82    4.86
  -6  -3   6  339.84   19.93
   6   3  -6  369.97   20.32
  -6  -3   6  365.05   20.50
  -6  -3   6  357.13   19.83
   6   3  -6  353.59   19.39
   6   3  -6  307.20   19.33
  -6  -3   5  184.52   11.70
   6   3  -5  188.83   12.00
   6   3  -5  164.28   15.60
  -6  -3   5  142.61   13.91
  -6  -3   5  199.25   12.52
  -6  -3   5  177.89   11.72
   6   3  -5  166.11   11.14
   6   3  -5  169.72   12.27
  -6  -3   4  282.72   17.28
   6   3  -4  329.98   18.08
  -6  -3   4  309.79   17.83
   6   3  -4  307.89   17.33
  -6  -3   3  540.67   27.95
   6   3  -3  557.56   28.73
   6   3  -3  491.82   33.56
  -6  -3   3  481.44   32.16
   6   3  -3  485.94   26.98
  -6  -3   3  512.99   28.31
  -6  -3   3  553.53   29.21
   6   3  -3  539.87   28.04
   6   3  -3  535.46   29.48
   6   3  -2  134.82   14.00
   6   3  -2  159.49   10.60
   6   3  -2  124.05   13.48
  -6  -3   2  122.83   12.83
  -6  -3   2  142.28   10.33
  -6  -3   2  164.75   10.88
  -6  -3   2  160.77   10.59
   6   3  -2  156.94   11.02
   6   3  -1    2.70    2.65
   6   3  -1    0.85    2.01
  -6  -3   1    1.99    2.00
  -6  -3   1    3.09    2.30
  -6  -3   1   -0.61    2.12
   6   3   0  109.35    8.06
  -6  -3   0  113.13    8.55
  -6  -3   0   97.42    7.67
  -6  -3   0  126.85    8.06
  -6  -3   0   89.08    7.42
   6   3   1   49.38    4.63
  -6  -3  -1   43.68    4.80
  -6  -3  -1   33.11    4.05
  -6  -3  -1   38.46    4.12
   6   3   2    8.28    2.29
   6   3   2    8.23    2.16
  -6  -3  -2    9.61    2.14
  -6  -3  -2    4.58    1.63
   6   3   3   29.56    3.26
   6   3   3   31.47    3.11
  -6  -3  -3   33.49    3.37
  -6  -3  -3   27.00    3.06
   6   4 -10   54.09    4.28
  -6  -4   9    5.48    2.05
   6   4  -9    3.13    1.82
   6   4  -9    5.99    1.96
   6   4  -9    3.61    2.07
  -6  -4   8    2.27    2.00
  -6  -4   8   -0.89    1.69
   6   4  -8    2.61    2.00
   6   4  -8    0.24    1.68
  -6  -4   8    1.48    1.53
   6   4  -8    1.92    2.09
   6   4  -8    1.21    1.80
   6   4  -7   25.41    3.66
  -6  -4   7   25.10    3.63
  -6  -4   7   23.63    3.32
   6   4  -7   22.33    3.63
   6   4  -7   25.61    3.59
  -6  -4   6   13.01    3.04
   6   4  -6   14.48    4.63
   6   4  -6   12.27    2.89
   6   4  -6   11.22    2.09
  -6  -4   6   12.97    3.08
   6   4  -6   16.70    3.05
  -6  -4   6   16.49    3.22
  -6  -4   5   42.99    4.66
   6   4  -5   31.37    7.03
   6   4  -5   53.36    4.96
   6   4  -5   35.07    3.72
  -6  -4   5   52.15    5.30
  -6  -4   5   47.70    4.94
   6   4  -5   56.19    5.12
  -6  -4   4   23.31    3.49
   6   4  -4   23.53    5.76
   6   4  -4   28.17    3.71
   6   4  -4   17.59    2.68
   6   4  -4   28.13    3.68
  -6  -4   3  239.09   13.93
   6   4  -3  254.67   14.63
   6   4  -3  267.29   14.79
  -6  -4   3  231.86   14.98
  -6  -4   3  272.23   15.07
   6   4  -2   88.10    6.42
  -6  -4   2   54.34    5.73
  -6  -4   2   64.09    6.10
  -6  -4   2   87.35    6.51
   6   4  -2   82.09    6.32
   6   4  -1  197.50   11.05
  -6  -4   1  145.19   10.71
  -6  -4   1  150.11   10.58
  -6  -4   1  181.49   10.73
   6   4  -1  184.51   10.94
   6   4   0   57.16    4.77
  -6  -4   0   45.72    4.84
   6   4   0   61.25    4.84
   6   4   1   21.71    2.60
  -6  -4  -1   18.97    2.76
   6   4   1   19.08    2.62
   6   4   2  105.88    6.96
  -6  -5   9   18.48    2.44
   6   5  -9   20.71    2.42
  -6  -5   8   34.53    3.52
  -6  -5   8   26.24    2.98
   6   5  -8   31.99    3.26
   6   5  -8   30.02    3.73
   6   5  -8   35.67    3.43
  -6  -5   7   18.74    2.86
   6   5  -7   19.44    2.72
   6   5  -7   15.97    3.27
  -6  -5   7   15.37    2.66
  -6  -5   7   15.55    2.54
   6   5  -7   20.51    2.84
  -6  -5   6    1.04    1.69
   6   5  -6    3.16    1.69
   6   5  -6    2.62    2.22
  -6  -5   6    0.90    1.69
  -6  -5   6    3.55    1.79
   6   5  -6    1.96    1.65
  -6  -5   5   13.01    2.49
   6   5  -5   14.88    2.60
  -6  -5   5   14.96    2.83
  -6  -5   5   14.15    2.80
   6   5  -5   16.89    2.73
  -6  -5   4    5.13    1.79
   6   5  -4    6.56    1.91
   6   5  -4    7.87    2.14
  -6  -5   4    9.00    2.42
   6   5  -3   34.35    3.59
   6   5  -3   35.57    4.71
  -6  -5   3   28.13    3.65
  -6  -5   3   41.68    3.94
   6   5  -3   29.91    3.78
   6   5  -3   39.73    3.68
   6   5  -2   41.33    3.60
   6   5  -2   34.54    4.12
  -6  -5   2   27.71    3.15
  -6  -5   2   33.42    3.55
  -6  -5   2   32.60    3.39
   6   5  -2   31.07    3.52
   6   5  -2   44.12    3.70
   6   5  -1   27.41    2.79
  -6  -5   1   23.56    2.76
   6   5  -1   31.43    3.01
   6   5   0    0.99    1.13
   6   6  -8   37.50    3.32
   6   6  -7  100.36    7.20
   6   6  -6   17.85    2.65
   6   6  -5   62.44    5.36
  -6  -6   5   50.39    4.23
   6   6  -5   55.53    4.63
   6   6  -4    1.33    1.36
   6   6  -4    0.85    1.12
  -7  11  -2   23.50    2.20
   7 -11   3    6.43    1.34
  -7  11  -3    4.78    1.18
  -7  10   1   43.75    3.67
  -7  10   1   45.08    3.53
   7 -10   0    5.83    1.48
  -7  10   0    5.93    1.58
   7 -10   1  114.30    7.32
   7 -10   1  103.22    7.03
   7 -10   1  115.77    7.58
  -7  10  -1   98.65    6.84
   7 -10   2   19.79    3.20
   7 -10   2   20.90    2.81
   7 -10   2   23.27    3.30
  -7  10  -2   19.48    2.59
  -7  10  -3    8.72    1.87
   7 -10   3   13.98    3.03
   7 -10   3   13.01    2.37
  -7  10  -3    9.17    2.00
   7 -10   3   12.10    2.77
  -7  10  -4   32.69    3.26
   7 -10   4   47.39    4.33
  -7  10  -4   49.55    3.94
  -7  10  -4   37.15    3.90
  -7  10  -5    3.37    1.17
   7 -10   5    7.79    1.89
  -7  10  -5   10.01    2.04
  -7  10  -5    4.81    1.65
   7 -10   6   22.36    2.63
  -7  10  -6   32.89    2.95
  -7  10  -7   36.60    2.91
  -7   9   3   39.24    3.77
  -7   9   3   41.53    3.46
  -7   9   2   22.49    3.08
   7  -9  -2   24.83    3.57
  -7   9   2   23.40    2.90
   7  -9  -1    3.10    1.49
  -7   9   1    2.31    1.73
   7  -9  -1    3.02    2.57
  -7   9   0    4.07    1.98
   7  -9   0    2.40    3.15
   7  -9   0    2.26    1.69
  -7   9   0    2.47    1.62
   7  -9   0    0.91    1.99
   7  -9   0    2.60    2.90
   7  -9   0    0.91    2.53
  -7   9  -1    1.40    1.70
   7  -9   1    2.18    3.43
   7  -9   1    1.09    1.80
  -7   9  -1    0.16    1.40
  -7   9  -1    1.78    1.77
   7  -9   1    0.15    2.14
   7  -9   1    1.76    2.82
   7  -9   1    2.77    2.62
   7  -9   1    0.19    2.80
  -7   9  -2   24.91    3.14
   7  -9   2   25.25    4.44
   7  -9   2   21.33    3.37
  -7   9  -2   21.25    3.31
   7  -9   2   23.60    3.62
   7  -9   2   24.82    4.11
   7  -9   2   18.26    4.57
   7  -9   2   25.74    4.11
  -7   9  -2   19.75    3.19
  -7   9  -3   22.19    2.98
   7  -9   3   27.55    4.53
   7  -9   3   25.43    4.14
   7  -9   3   30.39    3.87
  -7   9  -3   26.91    3.59
   7  -9   3   28.40    3.85
   7  -9   3   26.91    4.02
   7  -9   3   25.37    3.92
  -7   9  -3   24.21    3.54
   7  -9   4  234.15   13.98
  -7   9  -4  205.07   14.26
   7  -9   5   38.15    4.74
   7  -9   5   35.14    4.02
  -7   9  -5   41.62    4.10
  -7   9  -5   29.92    4.05
   7  -9   6    6.53    2.01
  -7   9  -6    8.35    2.21
  -7   9  -6    6.00    1.96
   7  -9   7    2.84    1.36
   7  -9   7    2.89    1.40
   7  -9   7    1.47    1.24
  -7   9  -7    1.86    1.21
  -7   8   5   24.92    2.86
  -7   8   4  163.52    9.81
  -7   8   3   18.72    2.94
  -7   8   3   20.64    3.39
   7  -8  -3   15.72    4.34
  -7   8   2  136.25    9.99
   7  -8  -2  154.82    9.65
   7  -8  -2  146.94   10.25
  -7   8   1   15.59    2.97
   7  -8  -1   11.66    2.40
   7  -8  -1    7.63    3.77
  -7   8   1   15.14    3.15
  -7   8   1   16.51    3.11
   7  -8  -1   15.42    3.33
   7  -8  -1   12.55    4.34
  -7   8   0  100.11    8.85
   7  -8   0   84.98    7.35
  -7   8   0   88.14    7.55
  -7   8   0  109.72    7.80
   7  -8   0  117.29    8.21
   7  -8   0  101.85   11.22
   7  -8   0  129.80    8.78
  -7   8   0  118.73    7.83
  -7   8  -1    3.55    1.98
   7  -8   1    6.32    4.05
   7  -8   1    3.33    2.03
  -7   8  -1    1.92    2.48
  -7   8  -1    4.36    2.31
   7  -8   1    2.69    3.10
  -7   8  -1    2.26    2.21
   7  -8   1    1.08    3.36
   7  -8   1    4.76    3.03
  -7   8  -2   46.11    4.50
   7  -8   2   60.77    5.67
  -7   8  -2   62.73    5.53
   7  -8   2   52.89    5.57
   7  -8   2   47.52    5.39
   7  -8   2   51.71    7.65
   7  -8   2   49.56    5.56
  -7   8  -2   41.41    4.98
   7  -8   3   31.46    4.82
  -7   8  -3   33.99    4.93
   7  -8   3   36.90    4.40
  -7   8  -3   35.38    4.22
   7  -8   3   32.07    4.61
   7  -8   3   27.64    3.58
  -7   8  -3   38.26    5.03
   7  -8   3   28.57    4.29
  -7   8  -3   30.29    4.20
   7  -8   4   13.47    4.36
   7  -8   4   16.92    3.86
  -7   8  -4   12.22    3.14
  -7   8  -4   16.32    3.17
   7  -8   4   13.24    2.56
  -7   8  -4   16.40    3.49
   7  -8   5   37.94    5.38
   7  -8   5   44.11    4.83
  -7   8  -5   44.12    4.91
   7  -8   6   60.63    5.27
  -7   8  -6   60.62    4.99
   7  -8   7   50.65    4.37
  -7   8  -7   57.17    4.40
   7  -8   8   93.61    5.78
  -7   8  -8   74.79    5.16
  -7   7   6   21.52    2.86
  -7   7   5    8.37    2.26
  -7   7   5    5.36    2.33
  -7   7   4   13.93    2.97
   7  -7  -4    8.58    3.64
   7  -7  -3   29.72    5.80
  -7   7   3   43.86    4.89
   7  -7  -3   28.54    6.02
  -7   7   3   35.64    3.99
  -7   7   2  403.22   25.09
   7  -7  -2  367.30   28.44
  -7   7   2  458.17   25.17
  -7   7   2  466.30   24.61
  -7   7   2  482.41   24.67
  -7   7   1  101.77    8.81
   7  -7  -1   96.23   11.47
   7  -7  -1   81.31    6.93
  -7   7   1   88.35    7.54
  -7   7   1  103.15    7.76
   7  -7  -1   85.81   10.26
   7  -7  -1  112.56    7.57
   7  -7  -1  108.37   11.44
  -7   7   1  104.44    7.85
  -7   7   1  106.36    7.59
  -7   7   0   95.59    6.97
   7  -7   0   78.02    6.81
  -7   7   0   81.41    6.96
  -7   7   0   97.21    7.42
   7  -7   0   92.28   10.16
   7  -7   0   97.02    7.82
   7  -7   0   99.76    7.16
   7  -7   0   63.52    8.81
  -7   7   0   98.13    8.22
   7  -7   0   93.25   10.81
  -7   7   0   90.72    8.47
  -7   7  -1   25.98    3.41
   7  -7   1   24.77    3.70
  -7   7  -1   23.70    3.74
   7  -7   1   29.89    4.62
   7  -7   1   30.14    6.00
   7  -7   1   21.32    3.41
  -7   7  -1   28.89    4.66
   7  -7   1   24.08    5.31
   7  -7   1   24.80    5.84
  -7   7  -1   33.74    5.19
   7  -7   2   37.73    4.45
  -7   7  -2   36.98    4.42
   7  -7   2   26.20    5.83
   7  -7   2   32.60    4.08
   7  -7   2   24.05    5.57
   7  -7   2   32.34    6.59
   7  -7   2   33.84    4.59
  -7   7  -2   34.35    5.09
   7  -7   3    9.84    4.39
   7  -7   3    7.86    3.50
  -7   7  -3    5.11    2.61
  -7   7  -3    6.44    2.74
   7  -7   3   13.63    3.13
   7  -7   3   10.02    3.56
   7  -7   3    6.13    2.19
  -7   7  -3    8.00    2.65
   7  -7   3    7.50    3.61
  -7   7  -4  154.49   12.32
   7  -7   4  183.09   12.34
   7  -7   4  181.92   11.79
  -7   7  -4  200.27   12.10
   7  -7   4  189.83   12.40
   7  -7   4  184.08   12.08
  -7   7  -4  220.12   13.65
   7  -7   5   28.83    4.95
  -7   7  -5   27.52    3.95
  -7   7  -5   24.68    3.67
   7  -7   5   33.91    4.29
  -7   7  -5   27.16    3.74
  -7   7  -5   28.71    4.19
  -7   7  -6   86.61    6.64
   7  -7   6   79.52    6.66
  -7   7  -6   81.34    6.26
  -7   7  -6   80.82    6.73
   7  -7   7  259.31   13.96
  -7   7  -7  233.09   12.96
  -7   7  -7  220.06   12.45
   7  -7   8   69.19    5.08
  -7   7  -8   58.48    4.65
  -7   6   7   96.28    6.66
  -7   6   7   88.87    5.94
  -7   6   6   12.70    2.77
  -7   6   6    7.06    2.02
   7  -6  -5    6.48    3.26
  -7   6   5    8.93    2.38
  -7   6   4    9.61    2.92
   7  -6  -4    2.57    2.83
  -7   6   4    5.05    2.69
   7  -6  -4    6.37    2.21
   7  -6  -4    6.02    3.25
  -7   6   4    7.96    2.48
  -7   6   3    8.96    2.75
   7  -6  -3    6.42    3.83
  -7   6   3    5.64    2.48
   7  -6  -3    3.25    3.09
  -7   6   3    6.78    2.76
   7  -6  -3    7.45    3.93
   7  -6  -3    9.24    2.48
   7  -6  -3    7.47    4.34
  -7   6   3   11.04    2.75
   7  -6  -2  655.29   39.83
  -7   6   2  687.99   35.32
  -7   6   2  636.53   34.96
   7  -6  -2  685.49   38.93
   7  -6  -2  685.33   34.73
  -7   6   2  582.41   34.84
   7  -6  -2  721.74   40.18
   7  -6  -2  636.62   34.09
  -7   6   2  647.44   34.29
   7  -6  -1  428.12   25.70
  -7   6   1  447.58   26.41
  -7   6   1  545.39   27.03
   7  -6  -1  523.46   26.80
  -7   6   1  512.88   27.58
   7  -6  -1  502.92   26.30
  -7   6   1  476.53   25.98
   7  -6   0  799.52   40.97
  -7   6   0  878.49   41.38
   7  -6   0  808.61   45.25
   7  -6   0  832.44   41.38
  -7   6   0  844.43   42.44
   7  -6   0  840.07   46.86
  -7   6   0  799.24   42.30
   7  -6   0  814.95   40.94
  -7   6   0  776.33   41.93
  -7   6   0  698.31   40.03
  -7   6  -1  239.48   15.08
   7  -6   1  296.62   16.65
  -7   6  -1  287.12   16.34
   7  -6   1  261.85   19.43
   7  -6   1  270.93   16.58
   7  -6   1  278.15   16.51
  -7   6  -1  303.46   17.74
   7  -6   1  303.67   21.34
   7  -6   1  267.94   16.10
  -7   6  -2   11.27    3.06
   7  -6   2   10.37    2.85
   7  -6   2   10.93    3.90
   7  -6   2   13.30    3.02
  -7   6  -2   14.59    3.55
   7  -6   2   15.54    4.90
  -7   6  -2    9.83    3.03
   7  -6   2   13.75    2.74
   7  -6   3    2.41    3.06
  -7   6  -3   -0.21    2.31
   7  -6   3    4.61    2.34
   7  -6   3    3.62    4.07
  -7   6  -3    2.47    2.29
   7  -6   3    1.76    3.22
   7  -6   3    5.68    2.27
   7  -6   3    5.49    3.81
  -7   6  -3    3.64    2.26
   7  -6   4   76.64    7.30
  -7   6  -4   85.68    7.13
  -7   6  -4   82.60    6.71
   7  -6   4   90.04    7.53
   7  -6   4  101.63    7.74
  -7   6  -4  100.42    8.26
   7  -6   4   67.19    9.34
  -7   6  -4   97.52    8.21
  -7   6  -4   86.81    7.43
  -7   6  -4   72.72    7.17
   7  -6   5   62.81    6.45
  -7   6  -5   73.84    6.47
   7  -6   5   77.97    6.68
  -7   6  -5   66.08    5.79
   7  -6   5   71.13    6.57
  -7   6  -5   77.85    6.95
  -7   6  -5   80.58    7.31
  -7   6  -6  182.57   11.29
   7  -6   6  181.86   11.56
  -7   6  -6  171.23   10.51
  -7   6  -6  159.65   11.36
  -7   6  -6  164.71   11.96
   7  -6   7    6.36    2.20
  -7   6  -7    7.79    2.48
  -7   6  -7    4.79    1.73
   7  -6   7    3.20    1.87
   7  -6   8    6.57    1.85
  -7   6  -8    8.17    2.03
   7  -6   8    6.70    1.63
   7  -6   8    8.37    1.80
  -7   6  -8    4.88    1.45
  -7   5   8    2.01    1.36
  -7   5   7   94.32    7.40
  -7   5   7   91.52    6.89
  -7   5   6  115.20    8.80
  -7   5   6   96.65    7.87
  -7   5   5   77.20    6.50
   7  -5  -5   59.25    9.14
   7  -5  -5   58.06    8.17
  -7   5   5   80.38    6.81
  -7   5   5   78.19    6.58
  -7   5   4   24.07    3.73
  -7   5   4   16.94    3.77
   7  -5  -4   21.49    5.36
  -7   5   4   23.99    3.75
   7  -5  -3   23.00    5.08
   7  -5  -3   24.90    6.07
  -7   5   3   26.83    3.88
  -7   5   3   29.51    4.29
  -7   5   3   17.81    3.33
   7  -5  -3   36.79    6.68
   7  -5  -3   22.39    5.54
  -7   5   3   26.87    3.89
  -7   5   3   41.33    4.84
  -7   5   3   28.86    3.87
   7  -5  -2   89.05   10.06
   7  -5  -2   84.74   10.42
  -7   5   2   81.22    6.78
  -7   5   2  104.22    7.68
  -7   5   2   86.33    7.31
  -7   5   2   82.89    7.17
   7  -5  -2  112.92   11.20
  -7   5   2   80.62    7.38
   7  -5  -2   71.70    9.19
  -7   5   2   99.58    7.77
   7  -5  -2   92.95    7.26
  -7   5   2   88.32    6.73
   7  -5  -1  514.04   31.80
   7  -5  -1  477.37   31.71
  -7   5   1  470.79   26.87
  -7   5   1  524.84   27.31
   7  -5  -1  532.45   27.72
  -7   5   1  466.91   31.25
  -7   5   1  530.16   27.97
  -7   5   1  530.57   28.15
  -7   5   1  515.20   28.10
   7  -5  -1  417.78   29.41
   7  -5  -1  548.33   27.58
  -7   5   1  457.85   26.23
   7  -5   0  344.47   24.22
   7  -5   0  313.82   23.40
   7  -5   0  359.49   19.82
   7  -5   0  372.63   20.60
  -7   5   0  310.47   23.62
  -7   5   0  385.44   21.15
   7  -5   0  393.29   25.21
  -7   5   0  336.57   20.65
  -7   5   0  384.95   21.28
   7  -5   0  268.20   21.28
   7  -5   0  389.16   20.57
  -7   5  -1  208.76   13.42
   7  -5   1  241.03   13.55
  -7   5  -1  209.22   13.17
   7  -5   1  190.21   13.29
   7  -5   1  221.95   13.84
  -7   5  -1  178.41   16.18
  -7   5  -1  231.08   14.41
   7  -5   1  229.86   17.62
  -7   5  -1  214.44   13.93
   7  -5   1  209.13   13.48
  -7   5  -2  553.99   30.99
   7  -5   2  625.25   31.33
  -7   5  -2  568.76   30.61
   7  -5   2  533.24   30.87
  -7   5  -2  632.10   32.49
  -7   5  -2  584.81   31.70
  -7   5  -2  611.42   32.11
  -7   5  -2  550.97   31.39
   7  -5   2  572.70   31.39
   7  -5   3  122.41    8.89
  -7   5  -3  117.27    8.77
   7  -5   3  128.24    9.02
  -7   5  -3  112.81    8.25
   7  -5   3  119.98    9.02
  -7   5  -3  128.72    9.52
  -7   5  -3  116.10    9.12
  -7   5  -3  109.52    8.65
  -7   5  -3  114.72    8.53
  -7   5  -4   44.77    5.07
  -7   5  -4   50.17    4.69
   7  -5   4   39.60    5.13
   7  -5   4   50.35    5.61
  -7   5  -4   56.64    5.86
   7  -5   4   39.05    7.06
  -7   5  -4   53.38    5.76
  -7   5  -4   41.17    5.05
  -7   5  -5  171.43   11.80
   7  -5   5  191.35   12.24
  -7   5  -5  171.47   10.98
   7  -5   5  178.24   12.31
  -7   5  -5  192.66   12.84
  -7   5  -5  202.71   13.08
   7  -5   6  403.39   21.37
  -7   5  -6  351.47   20.29
   7  -5   6  337.44   20.04
  -7   5  -6  357.74   20.93
  -7   5  -6  380.92   21.56
   7  -5   7   35.34    3.82
  -7   5  -7   25.06    3.45
  -7   5  -7   34.71    4.06
   7  -5   7   33.51    3.84
   7  -5   8   15.93    2.16
  -7   5  -8   11.10    1.98
  -7   4   9   22.24    2.66
  -7   4   8  111.77    7.98
  -7   4   7    4.24    1.90
  -7   4   7    4.31    2.41
  -7   4   7    3.98    2.18
  -7   4   6    9.97    2.67
  -7   4   6    8.51    2.82
   7  -4  -6    5.76    3.56
  -7   4   6    6.89    2.86
  -7   4   6   14.42    3.19
  -7   4   5    7.26    2.66
  -7   4   5   16.59    3.55
  -7   4   5    9.84    2.62
   7  -4  -5   12.85    4.49
  -7   4   5   12.61    3.11
  -7   4   5   14.42    3.57
   7  -4  -5   12.01    2.51
   7  -4  -5   15.59    4.35
  -7   4   5   15.64    3.42
   7  -4  -4   80.70    9.60
  -7   4   4   91.69    7.34
  -7   4   4  108.56    8.23
   7  -4  -4   81.66    6.79
   7  -4  -4   92.00   10.32
   7  -4  -4   72.97    9.72
  -7   4   4   97.42    7.28
   7  -4  -4   71.10    9.54
  -7   4   4   92.52    7.83
  -7   4   4   86.43    6.96
   7  -4  -3  135.26   12.88
   7  -4  -3  145.70   14.25
  -7   4   3  138.65    9.67
  -7   4   3  163.80   10.58
  -7   4   3  116.02   12.14
   7  -4  -3  144.62    9.71
  -7   4   3  158.54   10.38
   7  -4  -3  162.07   13.74
   7  -4  -3  133.24   12.80
  -7   4   3  137.51    9.85
   7  -4  -3  129.62   12.15
   7  -4  -3  137.14    9.67
  -7   4   3  130.59    9.23
   7  -4  -2  272.15   19.80
   7  -4  -2  280.08   20.89
  -7   4   2  259.60   15.58
  -7   4   2  283.66   16.20
  -7   4   2  258.73   16.86
  -7   4   2  243.01   19.25
  -7   4   2  270.00   16.17
   7  -4  -2  275.71   16.01
  -7   4   2  287.85   16.78
   7  -4  -2  293.49   20.48
   7  -4  -2  258.88   18.95
  -7   4   2  281.93   16.61
   7  -4  -2  264.43   15.95
  -7   4   2  248.37   15.10
   7  -4  -1   41.97    6.84
   7  -4  -1   49.14    7.33
  -7   4   1   47.44    5.16
  -7   4   1   39.55    6.52
  -7   4   1   47.49    4.93
  -7   4   1   43.12    5.08
  -7   4   1   41.65    4.90
   7  -4  -1   34.96    5.79
   7  -4  -1   46.99    4.94
   7  -4  -1   50.49    4.78
   7  -4   0  252.60   19.02
   7  -4   0  271.21   15.54
  -7   4   0  260.97   15.67
  -7   4   0  248.36   16.00
  -7   4   0  277.09   16.50
   7  -4   0  275.81   20.19
  -7   4   0  276.80   16.72
   7  -4   0  287.55   16.50
   7  -4   0  265.89   15.77
  -7   4   0  257.49   15.76
  -7   4  -1  661.64   35.76
   7  -4   1  662.85   40.54
   7  -4   1  744.50   35.84
  -7   4  -1  639.26   35.22
  -7   4  -1  631.20   35.37
   7  -4   1  646.24   35.50
   7  -4   1  711.54   36.43
  -7   4  -1  625.10   39.70
  -7   4  -1  744.22   36.84
  -7   4  -1  689.03   36.41
  -7   4  -1  699.32   35.86
  -7   4  -1  663.77   36.54
   7  -4   1  741.44   36.57
   7  -4   1  662.34   35.61
  -7   4  -1  676.84   35.90
   7  -4   2  292.60   16.89
  -7   4  -2  281.85   16.25
   7  -4   2  259.98   16.45
   7  -4   2  285.82   17.34
  -7   4  -2  258.68   19.68
  -7   4  -2  306.85   17.92
  -7   4  -2  301.33   17.27
  -7   4  -2  269.08   16.96
  -7   4  -2  304.33   17.77
   7  -4   2  282.38   17.30
  -7   4  -2  279.10   16.83
   7  -4   3  252.27   14.95
  -7   4  -3  238.23   13.94
   7  -4   3  217.83   14.08
   7  -4   3  232.13   15.08
  -7   4  -3  206.33   16.85
  -7   4  -3  272.74   15.59
  -7   4  -3  247.26   15.24
  -7   4  -3  233.30   14.53
   7  -4   4   43.29    5.20
  -7   4  -4   56.58    5.97
  -7   4  -4   46.68    5.09
  -7   4  -4   47.51    5.35
  -7   4  -4   46.94    5.15
  -7   4  -4   39.82    4.83
   7  -4   4   47.72    4.92
   7  -4   5   39.09    4.61
  -7   4  -5   34.95    4.59
  -7   4  -5   32.11    4.29
  -7   4  -5   34.75    4.61
  -7   4  -5   31.46    4.32
   7  -4   5   30.27    3.99
   7  -4   6   33.20    4.07
  -7   4  -6   35.47    4.11
   7  -4   6   26.20    3.62
   7  -4   6   31.99    4.11
  -7   4  -6   36.02    4.31
  -7   4  -6   28.54    4.00
  -7   4  -6   30.88    4.21
  -7   4  -6   39.84    4.47
   7  -4   7   17.53    2.85
  -7   4  -7   24.51    3.17
   7  -4   7   19.32    2.66
   7  -4   7   14.63    2.61
  -7   4  -7   15.47    2.58
  -7   4  -7   17.21    3.00
   7  -4   7   17.47    2.84
   7  -4   8   81.13    5.79
  -7   4  -8   76.85    5.71
  -7   3  10    2.07    1.08
  -7   3   8   47.60    4.75
   7  -3  -8   39.14    4.21
   7  -3  -7  117.20   13.12
  -7   3   7  147.69    9.39
   7  -3  -7  130.37    9.52
  -7   3   6  113.62    8.67
  -7   3   6   94.48    7.06
   7  -3  -6  100.13   12.02
  -7   3   6  102.84    8.04
   7  -3  -6   91.05    7.51
  -7   3   5    1.13    2.17
   7  -3  -5    2.57    2.60
   7  -3  -5    1.37    2.74
  -7   3   5    1.77    2.20
  -7   3   5   -0.55    2.10
  -7   3   5    2.31    2.54
   7  -3  -5    1.32    1.63
   7  -3  -5    0.46    2.39
   7  -3  -5   -1.13    3.27
   7  -3  -5    1.59    2.69
  -7   3   4   13.50    2.78
   7  -3  -4   21.09    4.90
  -7   3   4   16.41    3.19
  -7   3   4   16.63    3.39
  -7   3   4   18.81    3.83
  -7   3   4   14.81    4.27
   7  -3  -4   19.43    3.16
   7  -3  -4   18.52    4.77
   7  -3  -4   17.44    5.16
  -7   3   4   20.76    3.37
  -7   3   4   19.27    3.62
   7  -3  -4   14.17    4.10
   7  -3  -3   72.00    8.73
   7  -3  -3   76.28    9.86
  -7   3   3   69.35    5.96
  -7   3   3   74.44    6.37
  -7   3   3   59.05    7.92
   7  -3  -3   78.28    6.33
   7  -3  -3   67.93    8.66
   7  -3  -3   78.80    9.05
  -7   3   3   69.50    6.08
   7  -3  -3   69.17    6.29
  -7   3   3   52.62    5.13
   7  -3  -2  102.65   10.52
   7  -3  -2  100.59   11.06
  -7   3   2   89.48    7.06
  -7   3   2   95.17    7.28
  -7   3   2   95.40    7.98
  -7   3   2   92.80   10.14
  -7   3   2  102.40    7.48
   7  -3  -2  101.84    7.71
   7  -3  -2   99.11   10.62
   7  -3  -2   88.09    9.60
  -7   3   2   94.69    7.67
   7  -3  -2  104.24    7.83
   7  -3  -1  150.07   13.50
   7  -3  -1  149.54   13.53
  -7   3   1  149.32   10.02
  -7   3   1  159.98   10.67
   7  -3  -1  165.07   10.73
  -7   3   1  149.24   10.21
   7  -3  -1  156.92   10.55
   7  -3  -1  116.30   11.33
  -7   3   1  156.64   10.74
   7  -3  -1  149.55   10.38
  -7   3   1  150.32   10.34
   7  -3   0    4.59    2.99
   7  -3   0    8.30    3.28
   7  -3   0   11.16    2.25
  -7   3   0    8.54    2.43
  -7   3   0   10.51    2.59
  -7   3   0    6.44    2.52
   7  -3   0    8.73    2.62
  -7   3   0   11.34    3.97
  -7   3   0    7.27    2.19
  -7   3   0    8.97    2.71
  -7   3   0    9.97    2.59
   7  -3   0   11.05    2.82
   7  -3   0    9.02    2.47
  -7   3  -1  171.51   11.69
   7  -3   1  179.51   15.34
   7  -3   1  176.88   11.44
  -7   3  -1  166.76   11.01
  -7   3  -1  170.60   14.69
   7  -3   1  179.29   11.31
   7  -3   1  186.43   12.12
  -7   3  -1  190.65   12.06
  -7   3  -1  179.41   12.15
  -7   3  -1  176.28   12.32
   7  -3   1  197.73   12.41
   7  -3   1  188.94   12.11
  -7   3  -2  421.92   23.65
   7  -3   2  426.88   23.75
  -7   3  -2  390.08   22.62
  -7   3  -2  461.67   24.83
  -7   3  -2  391.88   26.73
   7  -3   2  418.40   23.94
  -7   3  -2  448.01   24.70
  -7   3  -2  443.41   24.07
  -7   3  -2  417.93   23.71
  -7   3  -2  442.80   24.55
   7  -3   2  429.54   24.40
  -7   3  -2  433.61   24.10
  -7   3  -3  545.55   30.75
  -7   3  -3  645.44   32.17
   7  -3   3  531.27   30.97
  -7   3  -3  580.38   31.98
  -7   3  -3  590.23   31.43
  -7   3  -3  564.53   30.67
  -7   3  -3  599.75   31.66
   7  -3   4  673.71   35.39
  -7   3  -4  647.93   35.01
  -7   3  -4  669.82   35.71
   7  -3   4  598.57   35.06
  -7   3  -4  667.89   35.45
  -7   3  -4  696.25   36.05
  -7   3  -4  689.25   35.60
  -7   3  -4  687.85   35.52
   7  -3   4  665.08   35.55
   7  -3   5   21.86    3.48
  -7   3  -5   29.11    3.94
   7  -3   5   28.58    4.33
  -7   3  -5   27.99    4.04
  -7   3  -5   29.73    3.91
  -7   3  -5   28.90    4.03
  -7   3  -5   28.54    3.86
   7  -3   5   25.01    3.83
   7  -3   6    4.28    1.90
  -7   3  -6    3.63    2.12
   7  -3   6    3.43    2.17
  -7   3  -6    3.43    1.83
  -7   3  -6    4.46    1.75
  -7   3  -6    4.67    2.00
  -7   3  -6    4.91    1.88
   7  -3   7    2.38    1.38
  -7   3  -7    6.26    1.86
   7  -3   7    2.72    1.57
  -7   3  -7    3.04    1.40
  -7   3  -7    2.89    1.44
  -7   3  -7    2.16    1.33
   7  -3   7    3.19    1.51
  -7   2  10   -0.13    1.26
  -7   2   9    5.70    2.00
  -7   2   9    6.66    2.07
   7  -2  -9    5.20    1.73
   7  -2  -9    6.88    1.76
  -7   2   9    6.11    2.11
  -7   2   8   21.50    3.51
  -7   2   8   15.97    2.81
  -7   2   8   18.11    3.30
   7  -2  -8   17.17    2.88
  -7   2   8   18.30    3.40
  -7   2   7   50.09    5.64
   7  -2  -7   45.65    7.82
  -7   2   7   45.81    4.43
   7  -2  -7   45.30    4.74
  -7   2   7   51.86    5.45
   7  -2  -6   50.95    7.82
  -7   2   6   67.29    6.53
   7  -2  -6   52.00    8.48
   7  -2  -6   66.23    9.72
   7  -2  -6   53.28    5.31
  -7   2   6   55.03    5.98
  -7   2   6   57.01    5.83
   7  -2  -5  144.84   13.54
  -7   2   5  152.09   11.23
   7  -2  -5  168.64   15.67
  -7   2   5  148.39   10.22
   7  -2  -5  142.59    9.73
  -7   2   5  157.07   11.06
  -7   2   5  124.90   12.24
   7  -2  -5  131.38    9.99
   7  -2  -5  145.53   13.47
  -7   2   5  156.61   10.74
   7  -2  -4   13.27    4.31
   7  -2  -4   17.00    5.42
  -7   2   4   20.15    3.41
   7  -2  -4   19.35    2.98
  -7   2   4   11.37    3.30
  -7   2   4   18.57    4.54
   7  -2  -4   14.23    2.97
  -7   2   4   18.73    2.95
  -7   2   4   15.56    3.33
   7  -2  -3   38.93    7.29
   7  -2  -3   38.39    4.13
  -7   2   3   37.16    6.43
  -7   2   3   44.96    4.69
   7  -2  -3   44.09    4.92
   7  -2  -2  217.34   17.32
   7  -2  -2  231.57   18.19
   7  -2  -2  213.75   13.17
  -7   2   2  224.21   17.43
  -7   2   2  215.42   14.19
  -7   2   2  219.89   14.12
   7  -2  -2  236.55   14.39
   7  -2  -2  245.65   14.51
   7  -2  -1   27.95    5.63
   7  -2  -1   29.87    3.51
  -7   2   1   32.51    4.09
  -7   2   1   30.98    4.15
   7  -2  -1   30.21    3.89
  -7   2   1   30.11    3.72
  -7   2   1   28.86    4.07
   7  -2  -1   30.22    4.03
   7  -2  -1   33.26    4.20
  -7   2   1   27.46    4.12
   7  -2   0  399.28   25.43
   7  -2   0  337.99   20.10
  -7   2   0  372.13   24.88
  -7   2   0  373.07   21.01
  -7   2   0  359.86   21.54
   7  -2   0  394.38   21.26
  -7   2   0  363.99   21.16
  -7   2   0  379.70   21.73
   7  -2   0  391.69   21.57
   7  -2   0  376.55   21.59
  -7   2   0  370.47   21.47
  -7   2  -1  266.04   15.84
   7  -2   1  288.79   20.33
   7  -2   1  248.70   15.07
  -7   2  -1  264.19   19.31
   7  -2   1  250.46   15.69
  -7   2  -1  279.27   16.49
  -7   2  -1  280.61   16.77
   7  -2   1  263.75   16.31
   7  -2   1  262.74   16.40
  -7   2  -1  254.54   16.14
  -7   2  -2   80.44    6.59
   7  -2   2   65.97    5.83
  -7   2  -2   81.67    7.28
  -7   2  -2   68.14    8.56
   7  -2   2   68.97    6.26
  -7   2  -2   82.94    7.18
  -7   2  -2   76.25    6.40
  -7   2  -2   83.00    7.24
  -7   2  -2   73.72    6.86
   7  -2   3  251.05   14.89
  -7   2  -3  253.19   14.99
   7  -2   3  220.48   14.23
  -7   2  -3  259.76   15.96
   7  -2   3  220.82   14.60
  -7   2  -3  256.78   16.00
  -7   2  -3  257.47   15.43
  -7   2  -3  277.41   16.04
   7  -2   3  264.07   15.90
   7  -2   4  159.62   10.93
  -7   2  -4  177.85   11.14
  -7   2  -4  178.39   11.84
  -7   2  -4  172.62   11.69
  -7   2  -4  157.54   11.18
   7  -2   4  189.10   11.99
   7  -2   5  275.59   17.30
  -7   2  -5  344.11   17.53
  -7   2  -5  259.98   17.23
  -7   2  -5  334.17   18.71
  -7   2  -5  317.63   17.90
  -7   2  -5  327.87   18.38
  -7   2  -5  312.76   17.85
   7  -2   5  315.96   18.13
   7  -2   6    9.29    2.08
  -7   2  -6   11.70    2.18
  -7   2  -6   14.69    2.63
  -7   2  -6   16.38    2.68
  -7   2  -6   12.07    2.21
   7  -2   6   10.61    2.15
  -7   2  -6   14.41    2.54
  -7   2  -7   27.41    2.78
  -7   1  10    1.86    1.65
  -7   1  10    1.21    1.30
   7  -1 -10    4.09    1.52
  -7   1  10    3.46    1.55
  -7   1   9  112.55    8.23
  -7   1   9   99.92    6.84
  -7   1   9  126.51    7.86
   7  -1  -9  107.05    7.66
  -7   1   9  107.67    7.92
  -7   1   8  115.13    8.31
   7  -1  -8   74.95    9.90
  -7   1   8   84.50    6.27
  -7   1   8   96.84    7.42
   7  -1  -8   98.49    7.35
  -7   1   8   87.67    7.31
  -7   1   7  200.88   13.05
   7  -1  -7  172.67   15.51
  -7   1   7  197.87   12.37
   7  -1  -7  191.37   12.16
  -7   1   7  200.91   12.52
   7  -1  -7  163.41   11.05
  -7   1   7  177.96   12.13
   7  -1  -6   42.88    7.88
   7  -1  -6   55.33    5.36
  -7   1   6   53.58    5.63
   7  -1  -6   43.64    4.40
  -7   1   6   49.15    5.21
  -7   1   5   29.51    4.43
  -7   1   5   29.75    3.98
   7  -1  -5   26.52    6.20
  -7   1   5   32.08    4.09
   7  -1  -5   27.58    3.87
  -7   1   5   25.83    4.15
  -7   1   5   22.83    5.00
   7  -1  -5   31.97    6.08
   7  -1  -5   22.11    3.16
   7  -1  -4   90.78    9.49
  -7   1   4   94.86    7.56
   7  -1  -4   88.18    7.08
  -7   1   4   94.70    9.95
  -7   1   4   95.39    7.96
   7  -1  -4   93.01    7.58
   7  -1  -4   87.99   10.30
  -7   1   4   92.01    7.13
   7  -1  -4   80.41    6.42
  -7   1   4  103.23    7.75
   7  -1  -3   24.30    5.16
  -7   1   3   17.97    3.56
   7  -1  -3   20.12    3.24
  -7   1   3   21.94    3.79
  -7   1   3   20.52    3.32
  -7   1   3   20.17    4.81
   7  -1  -3   21.11    3.36
  -7   1   3   24.12    3.46
   7  -1  -3   23.64    5.60
   7  -1  -2  215.40   16.79
  -7   1   2  195.82   12.67
   7  -1  -2  195.82   12.78
  -7   1   2  211.27   13.59
  -7   1   2  219.96   13.55
   7  -1  -2  226.43   13.23
   7  -1  -2  195.97   13.31
  -7   1   2  211.74   13.57
   7  -1  -2  212.85   17.53
   7  -1  -2  223.98   13.57
   7  -1  -1  200.64   15.69
   7  -1  -1  185.63   11.79
  -7   1   1  189.22   15.48
  -7   1   1  187.55   12.23
  -7   1   1  185.51   12.48
   7  -1  -1  176.20   11.66
  -7   1   1  193.07   11.93
  -7   1   1  196.73   12.73
   7  -1  -1  190.43   16.15
   7  -1  -1  184.03   12.21
   7  -1  -1  176.77   11.17
   7  -1   0    9.32    3.49
   7  -1   0    8.36    2.51
  -7   1   0    7.63    2.35
  -7   1   0   16.42    3.39
   7  -1   0    9.16    2.25
  -7   1   0    9.45    3.76
  -7   1   0   11.22    2.66
  -7   1   0   14.66    3.29
   7  -1   0   10.48    2.59
   7  -1   0    6.43    3.29
   7  -1   0   10.65    2.31
  -7   1  -1  136.56    9.21
   7  -1   1  125.45    9.01
  -7   1  -1  126.28   12.09
  -7   1  -1  135.97    9.67
   7  -1   1  101.85   11.29
  -7   1  -1  130.78    9.28
  -7   1  -1  136.58   10.07
   7  -1   1  121.31    9.21
   7  -1   1  129.97    8.61
  -7   1  -2   48.39    4.91
   7  -1   2   41.95    4.71
  -7   1  -2   47.63    5.36
  -7   1  -2   39.47    4.93
  -7   1  -2   51.92    5.13
  -7   1  -2   44.06    4.58
  -7   1  -2   39.26    5.03
   7  -1   2   34.92    4.11
  -7   1  -2   41.10    5.05
  -7   1  -3  251.39   14.83
   7  -1   3  248.71   15.05
  -7   1  -3  289.58   16.48
  -7   1  -3  266.76   16.28
  -7   1  -3  257.88   15.96
  -7   1  -3  241.87   15.27
  -7   1  -3  282.31   16.20
  -7   1  -3  259.60   15.91
   7  -1   3  219.82   14.30
   7  -1   4   21.49    3.37
  -7   1  -4   28.22    3.99
   7  -1   4   30.36    4.15
  -7   1  -4   31.98    4.31
  -7   1  -4   33.11    3.95
  -7   1  -4   27.52    3.71
   7  -1   4   34.71    4.23
  -7   1  -4   33.29    4.13
   7  -1   5  108.56    8.55
  -7   1  -5  130.20    9.04
   7  -1   5  160.98    9.69
  -7   1  -5  179.40   10.06
  -7   1  -5  168.00    9.69
   7  -1   6   17.71    2.33
  -7   1  -6   11.26    2.10
  -7   1  -6   14.11    2.16
  -7   1  -6   16.66    2.21
  -7   0  11   76.39    5.11
   7   0 -10  150.14    9.09
  -7   0  10  131.20    8.71
  -7   0   9   97.49    7.39
  -7   0   9  109.58    6.93
   7   0  -9   95.02    6.86
   7   0  -9   69.56    5.95
  -7   0   9   79.45    6.39
  -7   0   8  103.03    7.39
   7   0  -8  100.61    7.54
  -7   0   8   91.81    7.06
   7   0  -8   90.49    6.73
  -7   0   7  187.24   12.15
   7   0  -7  156.27   14.53
  -7   0   7  167.25   11.50
  -7   0   7  170.29   11.45
   7   0  -7  181.15   11.56
  -7   0   7  179.07   11.65
   7   0  -7  165.94   10.77
  -7   0   7  150.08   10.76
  -7   0   6   87.87    7.34
   7   0  -6   75.96    6.64
   7   0  -6   57.18    8.51
   7   0  -6   78.59    6.72
  -7   0   6   77.82    6.96
   7   0  -6   70.63    8.85
   7   0  -6   69.20    6.52
   7   0  -6   77.70    6.18
  -7   0   6   70.64    6.11
  -7   0   5    6.31    2.46
   7   0  -5   10.54    3.07
  -7   0   5    6.55    2.77
   7   0  -5    7.24    2.63
  -7   0   5    8.30    2.88
  -7   0   5    9.08    3.27
   7   0  -5    5.28    2.27
   7   0  -5    6.61    2.59
   7   0  -5    3.32    2.99
   7   0  -5    6.83    2.17
  -7   0   4   39.80    4.72
  -7   0   4   44.92    4.65
   7   0  -4   38.76    4.44
  -7   0   4   27.06    5.64
  -7   0   4   33.18    4.56
   7   0  -4   38.24    4.51
  -7   0   4   38.39    4.28
   7   0  -4   37.91    4.62
   7   0  -4   45.14    7.34
   7   0  -4   31.70    3.90
   7   0  -3    9.43    3.56
  -7   0   3   13.19    2.93
   7   0  -3   12.07    2.94
  -7   0   3   15.22    3.26
  -7   0   3   14.99    2.94
   7   0  -3   13.85    2.66
  -7   0   3   16.50    4.48
   7   0  -3   17.87    3.08
  -7   0   3   14.30    3.10
  -7   0   3   12.65    2.78
   7   0  -3   13.45    2.76
   7   0  -3   16.79    3.14
   7   0  -3   11.05    2.52
   7   0  -2   73.22    8.75
  -7   0   2   68.43    5.76
   7   0  -2   72.09    6.28
  -7   0   2   71.20    8.84
  -7   0   2   61.19    6.06
  -7   0   2   69.42    6.27
   7   0  -2   63.77    9.13
  -7   0   2   72.62    6.49
   7   0  -2   66.40    5.85
   7   0  -2   71.01    6.45
   7   0  -2   68.04    5.78
   7   0  -1  251.18   18.63
   7   0  -1  259.86   15.39
  -7   0   1  248.69   18.88
  -7   0   1  262.72   15.87
  -7   0   1  264.41   15.59
  -7   0   1  239.66   14.84
  -7   0   1  250.32   15.46
   7   0  -1  239.20   19.36
   7   0  -1  237.23   14.87
   7   0  -1  261.35   15.83
   7   0  -1  239.68   14.74
  -7   0   1  255.26   15.91
   7   0   0  204.20   13.42
   7   0   0  223.56   13.37
  -7   0   0  187.70   16.03
  -7   0   0  212.81   13.78
  -7   0   0  207.15   12.96
  -7   0   0  198.17   12.95
   7   0   0  190.24   16.50
   7   0   0  186.84   12.52
   7   0   0  202.32   13.43
   7   0   0  212.43   12.79
  -7   0   0  225.22   13.90
   7   0   1  140.08    9.88
   7   0   1  143.78   10.08
  -7   0  -1  145.17   10.28
  -7   0  -1  147.33   10.06
  -7   0  -1  152.24   10.99
   7   0   1  133.04    9.59
  -7   0  -1  158.90   10.68
   7   0   2   21.40    3.58
  -7   0  -2   23.16    3.89
  -7   0  -2   16.51    3.26
  -7   0  -2   18.03    3.18
  -7   0  -2   19.27    3.53
   7   0   2   19.03    3.50
  -7   0  -2   17.85    3.47
   7   0   2   19.37    3.24
   7   0   3    1.30    1.68
   7   0   3    1.69    1.93
  -7   0  -3    2.34    2.10
   7   0   3    2.09    2.11
  -7   0  -3    0.92    1.70
  -7   0  -3    2.69    1.70
  -7   0  -3    2.63    1.51
  -7   0  -3    1.10    1.93
   7   0   3    1.87    1.96
  -7   0  -3    1.22    1.89
   7   0   4   74.06    6.18
  -7   0  -4   77.72    6.49
   7   0   4   86.42    6.43
  -7   0  -4   92.63    6.97
  -7   0  -4   83.63    6.32
   7   0   4   88.39    6.59
  -7   0  -4   89.94    6.45
   7   0   5   63.09    4.55
  -7   0  -5   55.04    4.41
  -7   0  -5   49.01    4.03
  -7  -1  10    6.20    1.54
   7   1 -10    7.30    1.98
   7   1 -10    4.27    1.57
   7   1 -10    4.29    1.50
  -7  -1   9   88.59    6.79
  -7  -1   9   84.34    6.21
   7   1  -9   95.13    6.75
   7   1  -9   67.40    6.01
   7   1  -9   75.61    5.96
  -7  -1   8   13.68    3.14
  -7  -1   8   13.21    3.18
  -7  -1   8   15.72    3.14
   7   1  -8    9.87    2.90
  -7  -1   8   13.23    2.72
   7   1  -8   11.95    2.57
   7   1  -8   10.87    2.55
   7   1  -7   71.40    6.26
  -7  -1   7   78.33    6.76
  -7  -1   7   84.07    6.86
  -7  -1   7   81.41    6.83
   7   1  -7   88.22    6.99
  -7  -1   7   84.92    6.88
   7   1  -7   60.08    6.01
   7   1  -7   71.42    6.61
   7   1  -7   75.95    6.25
   7   1  -6  102.60    7.98
  -7  -1   6   94.77    7.64
   7   1  -6  108.03    7.99
  -7  -1   6   75.21    9.11
   7   1  -6   76.35    9.75
  -7  -1   6  106.50    8.19
   7   1  -6   80.63    7.19
   7   1  -6  102.42    7.97
   7   1  -6   98.53    7.32
  -7  -1   5   36.66    4.41
   7   1  -5   45.39    5.15
  -7  -1   5   41.44    4.63
   7   1  -5   36.90    4.63
  -7  -1   5   39.49    4.97
  -7  -1   5   40.21    6.33
  -7  -1   5   37.15    4.62
   7   1  -5   33.60    4.24
   7   1  -5   38.37    4.65
   7   1  -5   27.18    5.90
   7   1  -5   35.74    4.22
  -7  -1   4   39.91    4.39
   7   1  -4   41.74    5.30
  -7  -1   4   34.55    4.41
   7   1  -4   39.18    4.64
  -7  -1   4   37.16    4.65
  -7  -1   4   36.47    6.32
   7   1  -4   37.07    4.28
  -7  -1   4   40.57    4.57
   7   1  -4   38.21    4.14
   7   1  -4   45.22    4.85
   7   1  -4   40.12    7.09
   7   1  -4   41.70    4.41
   7   1  -3   30.07    4.66
   7   1  -3   22.12    4.98
  -7  -1   3   28.25    3.88
   7   1  -3   34.21    4.36
  -7  -1   3   31.65    4.30
  -7  -1   3   32.66    3.99
  -7  -1   3   30.89    4.19
   7   1  -3   28.93    4.02
   7   1  -3   32.52    6.48
   7   1  -3   38.28    4.20
   7   1  -2   16.06    3.64
   7   1  -2   14.76    3.21
  -7  -1   2   15.87    3.26
  -7  -1   2   15.97    3.10
  -7  -1   2   10.73    3.73
  -7  -1   2   21.32    3.74
   7   1  -2   10.72    4.19
   7   1  -2   12.23    2.76
   7   1  -2   19.18    3.17
   7   1  -1  507.10   28.82
   7   1  -1  551.39   28.59
  -7  -1   1  485.33   32.03
  -7  -1   1  527.62   28.82
  -7  -1   1  512.66   28.35
   7   1  -1  435.64   32.04
  -7  -1   1  545.25   28.52
   7   1  -1  521.91   28.51
   7   1  -1  531.65   28.17
   7   1   0   90.85    7.67
   7   1   0  113.02    8.17
  -7  -1   0  104.09    8.28
  -7  -1   0   91.34    7.44
  -7  -1   0   92.25    7.45
   7   1   0  100.78    7.67
  -7  -1   0  111.19    8.19
   7   1   1  214.63   12.86
  -7  -1  -1  218.45   13.38
   7   1   1  180.99   11.97
  -7  -1  -1  191.67   12.51
  -7  -1  -1  179.65   12.12
   7   1   1  196.62   12.53
   7   1   1  203.06   12.47
  -7  -1  -1  206.28   12.70
   7   1   2   82.65    6.67
  -7  -1  -2   89.33    7.12
   7   1   2   76.38    6.18
  -7  -1  -2   79.82    6.66
  -7  -1  -2   78.58    6.48
  -7  -1  -2   82.74    6.96
   7   1   2   79.86    6.42
   7   1   2   79.98    6.38
  -7  -1  -2   88.84    6.56
   7   1   3   93.62    6.43
  -7  -1  -3   92.10    6.75
   7   1   3   76.44    5.88
  -7  -1  -3   89.81    6.58
  -7  -1  -3   83.95    6.43
  -7  -1  -3   78.65    6.32
   7   1   3   84.27    6.17
  -7  -1  -3   72.01    5.75
   7   1   3   83.67    6.03
   7   1   4   16.52    2.32
  -7  -1  -4   19.01    2.58
  -7  -2  10    0.67    1.33
   7   2 -10   -0.31    1.13
  -7  -2   9   26.97    3.37
  -7  -2   9   28.64    3.12
   7   2  -9   16.93    2.59
   7   2  -9   16.59    2.66
   7   2  -9   23.34    2.98
  -7  -2   8    2.06    1.78
  -7  -2   8    5.43    2.28
  -7  -2   8    5.51    2.23
  -7  -2   8    3.88    1.87
   7   2  -8    2.81    1.57
   7   2  -8    2.78    1.70
   7   2  -8    5.69    2.21
  -7  -2   7   39.94    4.49
  -7  -2   7   52.48    5.09
   7   2  -7   37.40    4.24
   7   2  -7   41.00    4.57
   7   2  -7   46.81    4.63
  -7  -2   6   30.58    3.82
  -7  -2   6   36.34    4.41
  -7  -2   6   38.19    4.51
  -7  -2   6   30.84    3.99
   7   2  -6   27.26    3.57
   7   2  -6   31.54    4.01
   7   2  -6   38.60    4.20
   7   2  -6   32.52    4.44
   7   2  -5   13.27    3.23
  -7  -2   5   14.64    3.17
  -7  -2   5   18.38    3.49
   7   2  -5   12.24    2.48
  -7  -2   5   12.78    2.93
   7   2  -5   14.49    2.81
   7   2  -5   15.03    3.09
  -7  -2   4  175.63   11.33
  -7  -2   4  182.42   11.82
  -7  -2   4  173.33   11.62
   7   2  -4  179.99   11.65
   7   2  -4  182.31   11.58
   7   2  -3  126.01    9.73
  -7  -2   3  113.43    8.24
  -7  -2   3  132.07    9.41
  -7  -2   3  120.04    8.75
   7   2  -3  120.91    8.74
   7   2  -3  135.17    9.03
   7   2  -2  107.60    8.79
  -7  -2   2  109.64    8.39
  -7  -2   2  107.93    8.44
  -7  -2   2  114.53    8.45
   7   2  -2  111.03    8.20
   7   2  -2  117.66    8.32
   7   2  -1   -0.66    1.86
  -7  -2   1    0.40    1.76
  -7  -2   1    0.23    1.82
  -7  -2   1    0.20    2.23
   7   2  -1    1.74    1.96
  -7  -2   0    4.63    2.17
  -7  -2   0    3.09    1.56
   7   2   0    3.93    1.74
   7   2   0    3.82    2.11
   7   2   1  150.47    9.55
  -7  -2  -1  161.84   10.09
  -7  -2  -1  154.68   10.01
   7   2   1  133.55    8.91
   7   2   1  152.83    9.44
   7   2   2    6.87    1.89
   7   2   2    8.93    2.06
  -7  -2  -2    7.65    2.08
  -7  -2  -2    5.14    1.63
  -7  -2  -2    6.63    1.85
  -7  -3   9    8.70    1.75
  -7  -3   9   11.47    2.23
  -7  -3   9   11.47    1.88
   7   3  -9   11.92    2.24
   7   3  -9   12.80    2.18
  -7  -3   8   97.13    7.02
  -7  -3   8  103.10    7.00
   7   3  -8  106.40    7.22
  -7  -3   8   87.81    6.83
   7   3  -8  103.77    7.02
  -7  -3   7   45.46    4.57
   7   3  -7   52.36    4.79
  -7  -3   7   40.77    4.52
  -7  -3   7   38.34    4.14
   7   3  -7   44.37    4.39
  -7  -3   6   29.00    3.76
   7   3  -6   34.12    4.08
  -7  -3   6   31.01    3.98
  -7  -3   6   29.36    3.71
   7   3  -6   32.86    3.91
  -7  -3   5   93.03    7.15
   7   3  -5  100.87    7.57
  -7  -3   5  105.90    7.94
  -7  -3   5  104.50    7.61
   7   3  -5   96.39    7.32
  -7  -3   4   31.65    3.64
   7   3  -4   30.56    3.81
  -7  -3   4   23.76    3.45
   7   3  -4   30.49    3.79
   7   3  -3    1.68    2.09
  -7  -3   3   -0.82    1.79
  -7  -3   3    1.67    2.13
   7   3  -3    0.18    1.83
   7   3  -2   50.01    4.69
  -7  -3   2   42.45    4.54
  -7  -3   2   34.54    4.13
  -7  -3   2   49.87    4.75
   7   3  -2   49.12    4.56
   7   3  -1   70.00    5.44
  -7  -3   1   54.44    5.13
  -7  -3   1   49.85    4.84
   7   3  -1   69.24    5.30
   7   3   0   26.78    3.22
  -7  -3   0   24.98    3.21
   7   3   0   22.52    2.94
   7   3   1    5.16    1.51
   7   3   1    4.81    1.51
  -7  -3  -1    6.02    1.62
  -7  -3  -1    3.52    1.46
  -7  -4   8   12.47    1.94
   7   4  -8   11.46    2.02
   7   4  -8    9.22    2.03
  -7  -4   7   25.22    3.00
   7   4  -7   26.63    3.08
  -7  -4   7   20.25    2.84
  -7  -4   6   14.03    2.44
   7   4  -6   15.02    2.52
  -7  -4   6   13.16    2.58
  -7  -4   6   14.72    2.51
  -7  -4   5   20.44    2.73
   7   4  -5   20.46    2.91
  -7  -4   5   20.65    3.06
  -7  -4   5   22.44    3.07
   7   4  -4    5.61    1.86
  -7  -4   4    3.82    1.80
  -7  -4   4    4.05    1.51
   7   4  -3    8.28    1.99
  -7  -4   3    5.75    1.90
  -7  -4   3    6.28    1.93
  -7  -4   3    4.61    1.69
   7   4  -3    3.61    1.68
   7   4  -2   13.16    2.12
   7   4  -2   14.21    2.63
  -7  -4   2    9.93    1.92
  -7  -4   2    9.04    1.77
  -7  -4   2    9.63    2.00
   7   4  -1   14.79    2.04
  -7  -4   1   14.25    2.20
   7   5  -7  119.36    7.86
   7   5  -6   33.41    3.75
   7   5  -5    9.12    2.16
   7   5  -5    9.70    1.80
   7   5  -4    0.79    1.25
  -8  10   1   12.16    1.59
  -8  10   0   20.31    2.18
   8 -10   1   18.70    2.15
  -8  10  -1   19.08    2.16
  -8  10  -2   12.38    1.79
   8 -10   2   16.25    2.76
   8 -10   2   16.27    2.63
   8 -10   2   14.39    2.09
   8 -10   3   55.51    4.26
   8 -10   3   52.75    4.17
   8 -10   3   51.67    3.92
  -8  10  -3   43.53    3.64
   8 -10   4   10.24    1.83
  -8  10  -4    7.44    1.63
   8 -10   5    9.89    1.62
  -8  10  -5   11.29    1.75
  -8   9   3   23.27    2.47
  -8   9   2   40.63    3.86
  -8   9   2   57.90    4.04
  -8   9   1   12.33    2.17
   8  -9  -1   13.53    2.96
  -8   9   1    9.94    1.96
   8  -9  -1   14.87    2.41
   8  -9  -1   13.92    3.01
  -8   9   0    0.61    1.40
   8  -9   0    0.80    2.96
   8  -9   0   -0.49    1.16
   8  -9   0   -0.38    1.89
   8  -9   0   -1.60    2.43
   8  -9   0   -0.80    2.59
  -8   9  -1   16.07    2.34
   8  -9   1   20.82    3.77
   8  -9   1   26.54    3.73
   8  -9   1   18.46    2.65
  -8   9  -1   11.87    3.02
  -8   9  -1   14.92    2.87
   8  -9   1   22.97    3.26
   8  -9   1   25.67    3.62
   8  -9   1   14.14    3.96
  -8   9  -2   10.50    1.90
   8  -9   2   17.42    3.46
   8  -9   2   15.92    2.59
  -8   9  -2   16.23    2.88
   8  -9   2   13.43    2.88
   8  -9   2   16.18    3.04
   8  -9   3   41.95    4.53
   8  -9   3   41.48    4.13
  -8   9  -3   49.04    4.36
   8  -9   4    6.95    3.11
   8  -9   4    7.17    2.66
   8  -9   4   10.48    2.33
  -8   9  -4   10.34    2.29
   8  -9   5   28.30    3.06
  -8   9  -5   18.56    2.54
   8  -9   6   26.18    2.79
  -8   9  -6   32.80    2.91
  -8   8   5   10.74    1.73
  -8   8   4   19.14    2.62
  -8   8   3   24.79    3.23
   8  -8  -3   28.76    3.40
  -8   8   3   26.53    3.15
  -8   8   2   78.21    7.24
  -8   8   2   96.86    7.36
   8  -8  -2  135.21    7.96
  -8   8   2  117.01    7.34
  -8   8   1   61.21    6.22
  -8   8   1   51.79    5.19
   8  -8  -1   83.63    6.24
   8  -8  -1   62.34    8.23
   8  -8  -1   77.52    6.46
  -8   8   1   73.36    5.46
  -8   8   0    4.16    1.83
   8  -8   0    3.65    1.66
  -8   8   0    2.54    2.15
  -8   8   0    3.26    2.32
   8  -8   0    3.39    2.61
   8  -8   0    5.48    3.40
   8  -8   0    2.76    2.53
  -8   8   0    4.46    1.80
  -8   8  -1   16.44    2.55
  -8   8  -1   21.37    3.88
   8  -8   1   16.70    2.89
  -8   8  -1   15.05    3.18
   8  -8   1   21.15    3.93
   8  -8   1   20.38    2.83
  -8   8  -1   21.40    3.83
   8  -8   1   14.50    4.51
   8  -8   1   17.17    3.49
   8  -8   2   46.42    5.54
  -8   8  -2   52.69    5.73
   8  -8   2   39.60    4.95
   8  -8   2   47.43    4.68
  -8   8  -2   50.12    4.82
   8  -8   2   40.77    4.24
   8  -8   2   39.08    4.57
   8  -8   3   80.04    7.01
   8  -8   3   79.79    6.62
  -8   8  -3   78.23    7.29
   8  -8   3   97.13    7.03
  -8   8  -3   95.49    6.76
   8  -8   3   70.64    6.13
  -8   8  -3   93.76    7.71
   8  -8   4    3.60    3.43
   8  -8   4    5.17    2.07
  -8   8  -4    2.71    1.89
  -8   8  -4    4.31    2.18
   8  -8   5   49.26    5.11
  -8   8  -5   52.77    4.51
  -8   8  -5   54.06    5.13
   8  -8   6   -1.36    1.57
  -8   8  -6    0.86    1.51
  -8   8  -6   -0.40    1.14
   8  -8   7   36.25    3.29
  -8   7   5   22.74    2.99
  -8   7   5   19.30    2.42
  -8   7   4    8.41    2.35
  -8   7   4    5.89    2.20
   8  -7  -4    6.36    3.00
  -8   7   4    8.62    1.99
  -8   7   3  108.03    8.19
  -8   7   3  120.93    8.11
  -8   7   3  119.41    7.92
  -8   7   2  161.29   11.45
  -8   7   2  147.52   10.47
   8  -7  -2  175.63   10.54
   8  -7  -2  158.23   14.27
  -8   7   2  179.41   10.95
  -8   7   2  161.86   10.23
   8  -7  -1   12.76    4.26
  -8   7   1   20.63    3.87
  -8   7   1   16.04    2.90
   8  -7  -1   24.42    3.41
   8  -7  -1   24.26    4.27
  -8   7   1   19.64    3.56
   8  -7  -1   23.23    5.64
  -8   7   1   18.65    3.34
  -8   7   1   21.95    3.06
   8  -7   0   57.32    5.12
  -8   7   0   59.22    5.78
   8  -7   0   66.67    5.59
  -8   7   0   60.75    6.18
   8  -7   0   58.01    8.63
  -8   7   0   66.32    6.86
  -8   7   0   47.20    4.54
   8  -7   1   59.21    5.35
  -8   7  -1   59.14    5.54
   8  -7   1   59.97    5.45
  -8   7  -1   61.55    6.33
   8  -7   1   56.30    8.43
   8  -7   1   49.79    5.50
   8  -7   1   48.66    4.80
   8  -7   2   10.44    4.39
  -8   7  -2    7.92    2.89
   8  -7   2    8.78    2.47
   8  -7   2    8.71    3.44
   8  -7   2    9.42    2.49
  -8   7  -2    6.78    2.66
   8  -7   3    9.17    4.14
  -8   7  -3   12.73    3.17
   8  -7   3   17.83    3.15
  -8   7  -3   11.21    2.88
   8  -7   3   13.62    3.58
   8  -7   3   11.18    2.73
   8  -7   4   22.96    4.27
   8  -7   4   24.93    3.51
  -8   7  -4   14.70    3.07
  -8   7  -4   21.58    3.27
   8  -7   4   22.98    3.45
  -8   7  -4   19.49    3.65
  -8   7  -5  114.10    8.21
  -8   7  -5  126.88    8.02
  -8   7  -5  120.96    8.85
  -8   7  -6   22.76    3.07
  -8   7  -6   23.32    2.68
  -8   7  -6   25.56    3.12
   8  -7   6   15.29    2.36
  -8   7  -7  165.41    9.68
   8  -7   7  173.77    9.63
  -8   6   7   19.11    2.11
  -8   6   6    2.63    1.45
  -8   6   5    8.56    2.50
   8  -6  -5   10.35    2.28
  -8   6   5   11.81    2.55
  -8   6   4   60.66    5.55
  -8   6   4   73.95    6.25
   8  -6  -4   59.43    5.54
   8  -6  -4   49.77    7.51
  -8   6   4   59.74    5.59
  -8   6   4   60.75    5.40
   8  -6  -3   24.15    5.91
  -8   6   3   43.22    4.89
   8  -6  -3   52.41    5.02
   8  -6  -3   31.14    6.28
   8  -6  -3   36.81    4.08
  -8   6   3   38.73    4.91
  -8   6   3   40.55    4.71
  -8   6   3   42.73    4.31
   8  -6  -2   37.65    7.24
  -8   6   2   51.32    5.32
   8  -6  -2   69.57    5.85
  -8   6   2   45.52    5.28
   8  -6  -2   65.76    8.79
   8  -6  -2   56.20    5.26
  -8   6   2   70.60    6.31
  -8   6   2   52.32    4.85
  -8   6   1  146.97   10.39
   8  -6  -1  157.55   10.49
  -8   6   1  151.84   10.73
   8  -6  -1  159.18   10.22
  -8   6   1  162.26   11.04
  -8   6   1  134.31    9.17
   8  -6   0   43.82    4.62
   8  -6   0   53.69    5.85
   8  -6   0   48.20    5.14
  -8   6   0   53.83    5.73
   8  -6   0   50.86    8.17
  -8   6   0   53.70    5.96
   8  -6   0   48.57    4.96
  -8   6   0   45.19    5.43
   8  -6   1    4.57    2.05
   8  -6   1    6.28    3.44
   8  -6   1    6.83    2.61
  -8   6  -1    5.37    2.59
   8  -6   1    7.99    2.29
  -8   6  -1    2.59    2.19
   8  -6   2   44.66    5.77
   8  -6   2   53.52    5.30
  -8   6  -2   58.91    5.49
   8  -6   2   54.03    5.94
   8  -6   2   57.67    5.71
  -8   6  -2   66.81    6.55
  -8   6  -2   57.03    6.02
   8  -6   3   12.25    3.97
  -8   6  -3   19.10    3.41
  -8   6  -3   14.92    3.24
   8  -6   3   14.24    2.93
  -8   6  -3   14.82    2.92
   8  -6   3   10.50    3.45
   8  -6   3   17.58    3.20
  -8   6  -3   10.19    2.84
  -8   6  -4   25.98    3.90
   8  -6   4   34.46    4.11
  -8   6  -4   30.15    3.65
  -8   6  -4   31.15    4.37
  -8   6  -4   22.80    3.60
  -8   6  -4   24.18    3.64
  -8   6  -5   20.62    3.38
  -8   6  -5   18.36    2.69
  -8   6  -5   18.95    3.32
   8  -6   6   67.44    5.30
  -8   6  -6   64.76    5.02
  -8   6  -6   54.32    4.96
   8  -6   7   99.03    6.61
  -8   6  -7   99.29    6.46
  -8   5   8   37.08    3.19
   8  -5  -7   66.67    5.60
  -8   5   7   92.34    6.20
  -8   5   6   45.86    4.27
   8  -5  -6   34.32    3.93
  -8   5   6   37.19    4.29
  -8   5   5   46.52    4.93
   8  -5  -5   37.66    7.06
  -8   5   5   56.84    5.59
   8  -5  -5   32.02    5.84
   8  -5  -5   47.10    4.70
  -8   5   5   44.67    4.94
  -8   5   4  128.34    9.77
  -8   5   4  168.38   10.71
   8  -5  -4  128.43   12.68
   8  -5  -4  153.09   10.09
  -8   5   4  157.64   10.56
  -8   5   4  140.14    9.42
  -8   5   3   16.44    2.89
   8  -5  -3   15.52    4.76
  -8   5   3   15.40    3.15
  -8   5   3   15.81    3.03
   8  -5  -3   18.10    3.46
   8  -5  -3   19.95    5.34
   8  -5  -3   13.12    2.90
  -8   5   3   13.37    3.10
  -8   5   3   13.20    3.28
   8  -5  -2  260.51   20.69
   8  -5  -2  259.03   21.04
  -8   5   2  254.37   16.20
   8  -5  -2  338.22   17.61
  -8   5   2  269.37   20.58
  -8   5   2  274.79   16.80
   8  -5  -2  300.71   21.47
  -8   5   2  299.02   17.51
  -8   5   2  281.74   17.26
   8  -5  -2  302.83   17.16
  -8   5   2  244.12   15.41
   8  -5  -1   66.35    9.00
   8  -5  -1   56.87    8.49
   8  -5  -1   73.32    6.61
  -8   5   1   53.68    8.28
  -8   5   1   73.46    6.57
  -8   5   1   76.51    6.88
  -8   5   1   59.27    6.41
   8  -5  -1   77.23    6.57
   8  -5   0   81.83    6.27
  -8   5   0   73.86    6.48
   8  -5   0   66.89    6.75
  -8   5   0   74.93    7.02
  -8   5   0   74.77    7.20
   8  -5   0   84.84    7.03
   8  -5   1   74.83    6.00
  -8   5  -1   64.08    5.73
   8  -5   1   59.70    6.24
  -8   5  -1   55.16    8.09
  -8   5  -1   66.18    6.52
  -8   5  -1   62.33    6.44
   8  -5   1   69.77    6.30
  -8   5  -1   58.55    5.57
   8  -5   2    8.96    3.53
  -8   5  -2    4.77    2.75
   8  -5   2    8.78    2.40
  -8   5  -2    9.98    2.58
   8  -5   2    7.02    3.31
   8  -5   2    6.74    2.65
  -8   5  -2    7.32    2.74
  -8   5  -2    7.62    2.76
   8  -5   2    9.49    2.82
  -8   5  -2    7.70    2.70
  -8   5  -2    8.23    2.28
  -8   5  -3   29.92    4.11
   8  -5   3   28.61    3.85
  -8   5  -3   28.88    3.54
   8  -5   3   22.90    3.90
   8  -5   3   27.49    3.93
  -8   5  -3   36.50    4.71
  -8   5  -3   29.14    4.03
  -8   5  -3   28.22    4.12
  -8   5  -3   21.68    3.50
  -8   5  -3   24.01    3.57
  -8   5  -4   22.89    3.74
  -8   5  -4   25.14    3.12
   8  -5   4   29.67    4.04
  -8   5  -4   28.07    3.95
  -8   5  -4   21.48    3.43
  -8   5  -4   22.02    3.36
   8  -5   5   12.73    2.59
   8  -5   5    5.85    2.34
  -8   5  -5    9.31    2.58
  -8   5  -5   10.33    2.63
  -8   5  -5    7.95    2.22
   8  -5   6   82.88    5.88
   8  -5   6   67.23    5.33
  -8   5  -6   68.21    5.75
  -8   5  -6   78.22    6.09
  -8   5  -6   64.66    5.35
   8  -5   7   50.09    3.86
  -8   5  -7   40.94    3.55
  -8   4   9   11.43    1.61
  -8   4   8    6.80    1.93
  -8   4   7   53.89    4.66
  -8   4   7   54.26    4.98
  -8   4   6   14.20    2.94
  -8   4   6   11.83    3.02
  -8   4   6   14.01    3.11
   8  -4  -6   10.53    2.15
   8  -4  -6   11.24    2.40
  -8   4   5   -0.26    2.01
   8  -4  -5    0.66    2.51
  -8   4   5    1.87    2.22
  -8   4   5    2.26    2.38
   8  -4  -5    2.19    1.58
   8  -4  -5    0.60    1.50
   8  -4  -4  101.48   11.84
   8  -4  -4  128.75   13.75
  -8   4   4  127.92    9.23
  -8   4   4  138.77    9.73
   8  -4  -4  131.14    9.11
  -8   4   4  129.23    9.24
   8  -4  -4  117.22    8.96
   8  -4  -3   78.35   10.08
   8  -4  -3   77.09   10.41
  -8   4   3   86.33    6.93
  -8   4   3   94.75    7.27
  -8   4   3   90.67    7.98
  -8   4   3   81.09    9.76
   8  -4  -3   95.47    7.23
  -8   4   3   92.98    7.52
   8  -4  -3   69.15    9.29
  -8   4   3   84.48    7.17
   8  -4  -3   92.62    7.56
   8  -4  -3   80.81    6.89
  -8   4   3   68.24    6.00
   8  -4  -2  151.76   13.99
   8  -4  -2  147.25   14.28
  -8   4   2  137.89    9.55
  -8   4   2  136.48   10.68
  -8   4   2  136.93   13.41
  -8   4   2  146.20   10.11
  -8   4   2  151.09   10.85
   8  -4  -2  117.22   12.25
  -8   4   2  138.79   10.44
   8  -4  -2  160.81   10.81
   8  -4  -2  161.12   10.31
   8  -4  -1  280.55   20.79
  -8   4   1  270.00   16.96
   8  -4  -1  275.64   16.93
  -8   4   1  252.45   20.14
  -8   4   1  271.53   16.64
  -8   4   1  281.48   17.31
  -8   4   1  264.56   17.10
   8  -4  -1  295.81   17.28
   8  -4  -1  267.58   16.35
   8  -4   0  695.31   43.72
   8  -4   0  754.48   38.10
  -8   4   0  685.66   38.16
  -8   4   0  717.63   38.70
   8  -4   0  720.45   38.36
   8  -4   0  773.34   39.35
  -8   4   0  712.13   43.29
  -8   4   0  759.38   39.27
  -8   4   0  782.77   39.77
  -8   4   0  750.37   39.72
   8  -4   0  750.30   38.72
  -8   4   0  714.56   38.54
   8  -4   1   90.59    6.78
  -8   4  -1   73.73    6.35
   8  -4   1   74.53    6.68
   8  -4   1   82.99    7.24
  -8   4  -1   66.91    9.14
  -8   4  -1   87.65    7.40
  -8   4  -1   83.36    7.27
   8  -4   1   78.27    6.71
  -8   4  -1   79.31    6.73
   8  -4   2  225.92   13.99
  -8   4  -2  213.11   13.25
   8  -4   2  220.04   14.43
  -8   4  -2  178.61   16.45
  -8   4  -2  232.46   14.85
  -8   4  -2  236.41   14.10
  -8   4  -2  239.08   14.52
  -8   4  -2  239.38   14.94
  -8   4  -2  237.70   14.40
   8  -4   3    1.16    2.01
  -8   4  -3    1.07    1.89
  -8   4  -3    2.02    1.63
  -8   4  -3    1.96    1.84
   8  -4   3    1.25    1.73
  -8   4  -3    0.39    1.47
  -8   4  -3    1.30    1.95
   8  -4   4   88.86    6.72
  -8   4  -4   77.12    6.49
   8  -4   4   72.46    6.51
  -8   4  -4   86.36    6.89
  -8   4  -4   84.92    6.72
   8  -4   4   71.93    6.33
  -8   4  -4   83.81    6.74
   8  -4   5   26.20    3.48
  -8   4  -5   34.59    3.96
   8  -4   5   32.93    4.06
  -8   4  -5   34.04    4.08
  -8   4  -5   34.31    3.94
   8  -4   5   23.28    3.27
  -8   4  -5   32.41    3.78
   8  -4   6   24.39    2.94
  -8   4  -6   31.34    3.36
   8  -4   6   30.08    3.33
  -8   4  -6   26.73    3.34
  -8   4  -6   32.65    3.52
   8  -4   6   30.74    3.32
  -8   4  -6   29.89    3.29
  -8   4  -7   39.91    3.25
  -8   3   9    4.82    1.23
  -8   3   9    8.05    1.80
  -8   3   8   17.09    2.74
   8  -3  -8   17.58    2.60
  -8   3   8   17.78    2.91
  -8   3   7   54.34    5.16
  -8   3   7   45.91    4.76
  -8   3   7   47.83    4.89
  -8   3   6    1.27    2.10
   8  -3  -6   -0.97    3.72
  -8   3   6    2.68    2.35
   8  -3  -6    3.73    1.80
   8  -3  -6    2.99    1.80
  -8   3   6    5.21    2.44
  -8   3   5   23.07    4.15
  -8   3   5   21.41    3.79
  -8   3   5   24.66    4.23
   8  -3  -5   24.92    3.59
  -8   3   5   23.22    3.54
   8  -3  -5   20.89    3.61
  -8   3   5   25.71    4.01
   8  -3  -4   50.91    7.90
   8  -3  -4   54.41    8.69
  -8   3   4   48.76    5.17
  -8   3   4   38.02    6.59
   8  -3  -4   58.13    5.52
  -8   3   4   54.80    5.54
  -8   3   4   43.06    4.80
   8  -3  -4   47.38    7.65
   8  -3  -4   50.43    5.30
  -8   3   4   56.88    5.82
   8  -3  -3  238.06   18.45
   8  -3  -3  243.01   19.58
  -8   3   3  210.48   13.73
  -8   3   3  236.96   15.03
  -8   3   3  199.12   17.24
   8  -3  -3  241.30   14.53
  -8   3   3  217.25   14.21
   8  -3  -3  228.43   14.51
  -8   3   2  297.86   18.22
  -8   3   2  323.27   19.55
  -8   3   2  303.48   22.78
   8  -3  -2  335.83   19.45
  -8   3   2  327.26   19.44
   8  -3  -2  338.01   19.57
   8  -3  -2  351.21   19.52
   8  -3  -1   14.28    4.39
  -8   3   1   12.34    3.12
   8  -3  -1   12.62    3.10
  -8   3   1   14.78    2.84
  -8   3   1   12.13    3.02
   8  -3  -1   12.41    3.03
   8  -3  -1   16.65    3.08
   8  -3   0   78.28   10.07
  -8   3   0   92.79    7.33
  -8   3   0   85.47   10.13
   8  -3   0   94.49    7.56
  -8   3   0   93.61    7.50
  -8   3   0   99.69    8.13
   8  -3   0   82.77    7.46
   8  -3   0   94.75    7.67
  -8   3   0   78.75    7.27
   8  -3   1  230.96   18.65
  -8   3  -1  204.23   17.54
   8  -3   1  233.59   14.66
  -8   3  -1  242.28   15.00
  -8   3  -1  247.34   15.18
  -8   3  -1  242.98   15.33
   8  -3   1  229.66   14.93
   8  -3   1  235.94   14.94
  -8   3  -1  219.35   14.66
  -8   3  -2   85.35    7.04
   8  -3   2   79.83    6.88
  -8   3  -2   93.75    7.62
  -8   3  -2   88.24    7.17
  -8   3  -2   87.46    7.61
  -8   3  -2   78.28    7.08
   8  -3   3    9.50    2.18
  -8   3  -3   11.70    3.04
   8  -3   3    8.79    2.39
  -8   3  -3   16.17    3.22
  -8   3  -3   12.85    2.54
  -8   3  -3    7.56    2.54
   8  -3   3   11.50    2.80
  -8   3  -3   10.37    2.87
   8  -3   4   71.89    5.74
  -8   3  -4   71.51    5.95
  -8   3  -4   68.00    5.98
  -8   3  -4   85.14    6.33
   8  -3   4   71.50    6.18
  -8   3  -4   71.97    6.26
   8  -3   5    5.33    1.62
  -8   3  -5    8.35    2.11
   8  -3   5   11.31    2.52
  -8   3  -5    9.61    2.25
  -8   3  -5    8.74    1.97
  -8   3  -5    9.92    2.30
   8  -3   6    3.42    1.10
   8  -3   6    6.92    1.71
  -8   3  -6    7.77    1.70
  -8   2   9   12.55    2.29
   8  -2  -9   13.05    2.12
  -8   2   9   13.70    2.24
  -8   2   8   45.89    4.55
  -8   2   8   41.28    4.23
   8  -2  -8   30.26    3.62
  -8   2   8   43.13    4.31
  -8   2   7   23.85    3.89
   8  -2  -7   20.75    2.90
   8  -2  -7   19.99    3.15
  -8   2   7   23.20    3.54
  -8   2   6    0.53    2.41
   8  -2  -6    1.42    3.54
  -8   2   6    3.57    2.55
   8  -2  -6    0.16    1.55
  -8   2   6    1.91    2.16
   8  -2  -6    1.10    1.50
   8  -2  -6   -0.23    1.93
  -8   2   6    0.46    1.89
   8  -2  -5   27.89    6.03
   8  -2  -5   26.13    5.63
  -8   2   5   22.57    3.80
   8  -2  -5   24.83    3.36
  -8   2   5   27.43    4.31
   8  -2  -5   33.14    4.20
   8  -2  -5   32.60    4.32
   8  -2  -5   25.51    5.51
  -8   2   5   35.21    4.35
   8  -2  -4    7.17    3.57
  -8   2   4    2.53    2.16
   8  -2  -4    6.16    2.02
  -8   2   4    4.61    2.98
  -8   2   4    3.98    1.90
   8  -2  -4    2.70    2.25
   8  -2  -4    3.54    3.00
  -8   2   4    6.06    2.35
   8  -2  -3  148.66   13.95
  -8   2   3  140.76   10.07
   8  -2  -3  153.15    9.82
  -8   2   3  156.85   11.06
  -8   2   3  135.84   13.31
   8  -2  -3  162.65   10.70
  -8   2   3  151.56   10.54
   8  -2  -3  135.95   14.17
   8  -2  -3  159.00   10.93
   8  -2  -3  146.13   10.73
   8  -2  -2   50.14    7.71
  -8   2   2   43.90    7.37
  -8   2   2   58.26    5.86
   8  -2  -2   53.86    5.40
  -8   2   2   54.54    5.63
   8  -2  -2   56.32    5.68
   8  -2  -2   55.71    5.68
   8  -2  -1  100.74   11.22
  -8   2   1  113.61    8.56
  -8   2   1   99.46   11.08
  -8   2   1  108.94    8.73
   8  -2  -1  114.92    8.43
  -8   2   1  113.53    8.23
  -8   2   1  111.64    8.82
   8  -2  -1  109.83   11.99
   8  -2  -1  114.15    8.69
   8  -2  -1  111.34    8.76
  -8   2   1  101.46    8.57
   8  -2   0  174.79   15.28
  -8   2   0  167.70   11.20
  -8   2   0  173.91   11.98
  -8   2   0  156.24   14.47
   8  -2   0  170.32   11.20
  -8   2   0  162.54   11.29
  -8   2   0  171.96   12.04
   8  -2   0  159.15   14.95
   8  -2   0  179.51   11.81
   8  -2   0  173.38   11.95
  -8   2   0  170.41   11.84
  -8   2  -1   45.68    6.95
   8  -2   1   45.12    4.71
  -8   2  -1   48.87    5.19
  -8   2  -1   42.67    5.11
   8  -2   1   45.75    4.99
  -8   2  -1   50.36    5.41
  -8   2  -2   13.93    3.15
   8  -2   2   10.20    2.35
  -8   2  -2    9.11    2.63
  -8   2  -2   11.99    2.96
  -8   2  -2    9.66    2.46
  -8   2  -2    9.74    2.89
  -8   2  -3  172.88   11.24
  -8   2  -3  165.74   11.10
  -8   2  -3  141.30   10.04
  -8   2  -3  163.92   10.93
   8  -2   3  174.49   11.18
   8  -2   4  122.00    8.80
  -8   2  -4  136.27    9.18
  -8   2  -4  131.68    8.61
  -8   2  -4  125.08    8.51
   8  -2   4  133.39    8.96
   8  -2   5    3.79    1.65
  -8   2  -5    3.01    1.23
   8  -2   5    1.14    1.24
  -8   1  10   23.22    2.46
  -8   1   9   51.77    4.29
   8  -1  -9   42.44    3.82
  -8   1   9   47.23    4.10
  -8   1   8   19.48    3.15
   8  -1  -8   18.72    2.82
   8  -1  -8   16.14    2.62
  -8   1   8   18.74    2.80
   8  -1  -7   29.60    3.69
  -8   1   7   27.86    4.00
  -8   1   7   30.75    3.73
  -8   1   6   37.38    4.76
   8  -1  -6   28.44    4.01
  -8   1   6   34.24    4.31
   8  -1  -6   38.06    4.17
  -8   1   6   36.78    4.57
  -8   1   6   31.41    3.99
  -8   1   5   39.90    4.97
  -8   1   5   41.15    4.74
   8  -1  -5   40.39    4.48
  -8   1   5   38.60    4.94
   8  -1  -5   38.97    4.59
  -8   1   5   49.26    4.86
  -8   1   4   57.00    5.85
   8  -1  -4   34.10    6.63
   8  -1  -4   55.87    5.22
  -8   1   4   46.35    7.30
   8  -1  -4   55.29    5.27
   8  -1  -4   58.78    5.67
   8  -1  -4   51.04    8.01
  -8   1   4   50.30    5.09
   8  -1  -4   59.03    5.62
  -8   1   4   50.33    5.09
   8  -1  -3  162.46   14.34
   8  -1  -3  157.19   10.27
  -8   1   3  153.86   13.84
  -8   1   3  147.60   10.91
   8  -1  -3  150.07   10.23
   8  -1  -3  151.65   10.75
  -8   1   3  157.09   10.75
   8  -1  -3  153.38   10.66
   8  -1  -2  289.85   21.19
   8  -1  -2  288.78   16.67
  -8   1   2  298.69   17.46
  -8   1   2  287.75   17.32
   8  -1  -2  274.54   16.53
   8  -1  -2  273.82   21.69
  -8   1   2  285.97   17.50
   8  -1  -2  286.14   17.14
   8  -1  -1  193.86   15.92
   8  -1  -1  184.94   11.69
  -8   1   1  155.80   14.80
  -8   1   1  185.14   12.06
  -8   1   1  183.61   12.37
   8  -1  -1  181.85   16.15
  -8   1   1  187.65   12.56
   8  -1  -1  180.07   11.95
   8  -1   0   57.87    5.29
  -8   1   0   49.95    5.09
  -8   1   0   63.57    6.05
  -8   1   0   55.10    5.22
   8  -1   0   53.66    5.25
   8  -1   0   51.82    5.69
   8  -1   1    0.40    1.68
   8  -1   1    1.98    1.78
  -8   1  -1    1.52    1.67
  -8   1  -1    1.50    1.97
  -8   1  -1   -0.23    2.32
   8  -1   2    0.16    1.63
  -8   1  -2    1.39    1.97
  -8   1  -2    1.70    1.73
  -8   1  -2    1.82    1.91
   8  -1   2    0.87    1.95
  -8   1  -2    0.85    1.90
   8  -1   3   24.90    3.09
  -8   1  -3   30.10    3.78
   8  -1   3   27.71    3.67
  -8   1  -3   28.72    3.69
  -8   1  -3   30.75    3.76
   8  -1   3   30.06    3.69
  -8   1  -3   32.80    3.81
   8  -1   4   47.77    4.21
  -8   1  -4   42.97    4.22
   8  -1   4   44.69    4.12
  -8   1  -4   48.04    4.13
  -8   1  -5    1.42    0.93
   8   0  -9   63.98    5.08
   8   0  -9   62.03    5.23
  -8   0   8  193.09   11.97
  -8   0   8  212.69   11.77
   8   0  -8  209.75   11.65
  -8   0   8  191.22   11.59
   8   0  -8  158.46   11.23
   8   0  -8  169.98   11.53
   8   0  -7   22.62    3.06
  -8   0   7   23.60    3.59
   8   0  -7   23.17    3.34
  -8   0   7   19.25    3.34
   8   0  -7   16.67    2.88
   8   0  -7   18.37    3.22
   8   0  -7   17.89    2.66
  -8   0   6   12.91    2.89
   8   0  -6   13.05    2.83
  -8   0   6   14.29    3.27
   8   0  -6   13.44    2.84
  -8   0   6   10.00    2.86
   8   0  -6    7.36    2.16
   8   0  -6   11.21    2.75
   8   0  -6   10.92    2.22
  -8   0   5   25.12    3.77
   8   0  -5   22.54    3.90
  -8   0   5   20.19    3.62
   8   0  -5   22.80    3.53
  -8   0   5   24.57    3.85
   8   0  -5   25.63    3.62
   8   0  -5   23.29    3.53
   8   0  -5   26.74    3.92
   8   0  -5   22.24    3.01
  -8   0   4   95.38    7.59
   8   0  -4  106.76    8.49
  -8   0   4   95.01    7.24
   8   0  -4   93.26    7.36
   8   0  -4   99.10    7.61
  -8   0   4   93.69    7.30
   8   0  -4   93.59    7.35
   8   0  -4  105.10    8.02
   8   0  -4   84.19    6.70
  -8   0   3  281.23   16.78
  -8   0   3  278.02   16.37
   8   0  -3  293.62   16.93
  -8   0   3  310.92   17.60
  -8   0   3  286.46   16.92
  -8   0   3  280.16   17.10
   8   0  -3  279.69   16.66
   8   0  -3  300.03   17.48
   8   0  -3  278.22   16.20
   8   0  -2   69.66    6.59
   8   0  -2   67.83    5.97
  -8   0   2   64.59    6.03
  -8   0   2   61.95    5.89
  -8   0   2   62.90    6.02
   8   0  -2   58.87    5.35
   8   0  -2   60.02    5.93
   8   0  -2   67.44    5.44
   8   0  -1  272.06   16.18
   8   0  -1  264.96   15.44
  -8   0   1  274.31   15.61
  -8   0   1  264.07   15.91
  -8   0   1  256.16   16.01
   8   0  -1  232.89   14.71
   8   0  -1  257.96   15.86
   8   0  -1  245.04   14.71
   8   0   0  141.66    9.82
   8   0   0  156.72    9.86
  -8   0   0  146.59   10.17
  -8   0   0  129.82    9.27
   8   0   0  139.06    9.12
   8   0   1   83.09    6.36
  -8   0  -1   81.35    6.79
  -8   0  -1   80.67    6.35
  -8   0  -1   91.19    7.08
   8   0   1   76.98    6.45
   8   0   1   71.51    5.80
  -8   0  -1   83.39    6.71
   8   0   2    4.40    1.91
  -8   0  -2    3.10    1.77
   8   0   2    3.98    1.83
  -8   0  -2    6.19    1.86
  -8   0  -2    4.72    2.00
   8   0   2    4.43    1.77
  -8   0  -2    6.43    2.07
   8   0   3    8.03    1.75
  -8   0  -3    9.38    2.02
   8   0   3    6.67    1.73
  -8   0  -3    7.66    1.85
  -8   0  -3    8.17    1.77
   8   0   3    6.97    1.76
  -8   0  -3   11.29    1.96
  -8  -1  10    4.44    1.24
  -8  -1   9   26.68    3.08
  -8  -1   9   30.05    2.94
   8   1  -9   27.28    2.99
   8   1  -9   21.51    2.68
  -8  -1   8   18.54    3.01
  -8  -1   8   27.76    3.19
   8   1  -8   22.96    3.08
  -8  -1   8   23.41    2.95
   8   1  -8   14.83    2.46
   8   1  -8   17.71    2.48
   8   1  -8   17.85    2.74
   8   1  -8   23.07    2.64
  -8  -1   7   16.62    2.86
  -8  -1   7   17.38    3.09
   8   1  -7   15.63    2.91
  -8  -1   7   21.33    3.30
   8   1  -7   15.87    2.58
   8   1  -7   16.17    2.76
   8   1  -7   17.02    2.67
   8   1  -6  103.10    7.89
  -8  -1   6   99.14    7.41
  -8  -1   6   96.31    7.41
   8   1  -6  113.77    7.79
  -8  -1   6  106.80    7.94
   8   1  -6   89.69    7.19
   8   1  -6  100.40    7.59
   8   1  -6  102.62    7.10
  -8  -1   5   15.81    2.68
   8   1  -5   18.05    3.56
  -8  -1   5   17.01    3.10
   8   1  -5   16.83    3.12
  -8  -1   5   13.18    3.07
   8   1  -5   14.01    2.62
   8   1  -5   16.37    2.97
   8   1  -5   17.29    2.77
  -8  -1   4  149.08    9.86
   8   1  -4  164.01   10.44
  -8  -1   4  161.03   10.75
  -8  -1   4  147.10   10.06
   8   1  -4  152.26   10.38
   8   1  -4  150.14    9.80
   8   1  -3   49.93    5.70
   8   1  -3   49.92    5.04
  -8  -1   3   60.84    5.57
  -8  -1   3   49.45    4.89
  -8  -1   3   49.57    5.09
   8   1  -3   56.81    5.21
   8   1  -3   58.90    5.02
   8   1  -2    4.45    2.24
   8   1  -2    2.68    2.09
  -8  -1   2    3.98    2.10
  -8  -1   2    3.82    1.93
  -8  -1   2    2.79    1.93
   8   1  -2    1.01    1.66
   8   1  -2    3.63    1.90
   8   1  -1  250.06   15.34
   8   1  -1  263.00   15.16
  -8  -1   1  246.22   14.84
  -8  -1   1  257.33   15.36
  -8  -1   1  253.57   15.61
   8   1  -1  263.35   14.78
   8   1   0  151.41    9.64
  -8  -1   0  154.37   10.00
   8   1   0  138.08    9.43
   8   1   0  147.64    9.24
   8   1   1   48.97    4.28
  -8  -1  -1   49.01    4.48
  -8  -1  -1   33.28    3.64
  -8  -1  -1   45.25    4.38
   8   1   1   45.52    4.06
   8   1   1   40.47    3.74
   8   1   2   39.56    3.50
  -8  -1  -2   45.71    3.91
  -8  -1  -2   34.62    3.31
  -8  -1  -2   39.13    3.67
   8   1   2   32.55    3.18
  -8  -2   9    5.67    1.32
  -8  -2   8    6.78    1.86
  -8  -2   8    5.20    1.58
   8   2  -8    4.84    1.40
   8   2  -8    6.00    1.56
  -8  -2   7    3.30    1.85
  -8  -2   7    2.20    1.76
  -8  -2   7    3.53    1.78
   8   2  -7    3.01    1.39
   8   2  -7    3.70    1.56
  -8  -2   6   56.86    4.89
  -8  -2   6   63.39    5.27
   8   2  -6   54.07    4.74
   8   2  -6   50.49    4.58
  -8  -2   5   83.15    6.11
   8   2  -5   84.80    6.40
   8   2  -5   74.13    5.99
   8   2  -5   82.29    6.08
   8   2  -5   82.54    6.96
   8   2  -4   23.08    3.70
  -8  -2   4   16.45    2.59
   8   2  -4   21.83    3.14
  -8  -2   4   23.35    3.35
  -8  -2   4   15.54    2.62
   8   2  -4   18.73    2.76
   8   2  -4   20.95    2.91
   8   2  -3   39.61    4.16
  -8  -2   3   40.60    4.25
  -8  -2   3   36.13    4.11
   8   2  -3   37.31    3.87
   8   2  -3   44.58    4.08
   8   2  -3   39.78    4.63
   8   2  -2   23.67    3.17
  -8  -2   2   25.05    3.17
  -8  -2   2   20.97    2.94
  -8  -2   2   27.05    3.41
   8   2  -2   23.32    2.98
   8   2  -1   60.64    4.97
  -8  -2   1   61.80    5.12
  -8  -2   1   66.37    5.42
   8   2  -1   58.44    4.66
   8   2  -1   62.16    4.85
   8   2   0   26.98    2.97
  -8  -2   0   26.21    3.02
   8   2   0   25.14    2.69
  -8  -3   8   31.83    2.83
  -8  -3   7   22.60    2.63
  -8  -3   7   24.55    2.81
   8   3  -7   24.34    2.72
  -8  -3   7   21.85    2.67
   8   3  -7   20.57    2.49
  -8  -3   6    3.02    1.44
   8   3  -6    4.78    1.64
  -8  -3   6    4.35    1.65
   8   3  -6    2.92    1.50
   8   3  -5   66.78    4.85
   8   3  -5   62.87    4.58
  -8  -3   4   81.95    6.12
   8   3  -4   84.57    5.79
  -8  -3   3   40.91    3.94
  -8  -3   3   41.59    3.85
   8   3  -3   53.14    3.99
  -8  -3   2   23.56    2.78
   8   3  -2   32.70    2.88
  -8  -4   6   58.82    3.94
   8   4  -6   50.51    4.47
   8   4  -5   14.45    2.31
   8   4  -4   48.58    4.15
  -9   9   1   18.48    1.96
   9  -9   0   47.82    4.18
   9  -9   0   42.94    3.82
   9  -9   0   48.06    3.87
   9  -9   1   28.07    3.29
  -9   9  -1   28.12    3.52
   9  -9   1   25.66    2.59
   9  -9   1   31.75    3.38
   9  -9   2   33.00    3.72
   9  -9   2   33.36    3.39
  -9   9  -2   29.71    3.62
   9  -9   2   28.75    2.91
   9  -9   2   30.27    3.38
   9  -9   3   28.67    3.49
   9  -9   3   29.40    2.91
  -9   9  -3   30.89    3.07
   9  -9   4   18.76    2.23
  -9   9  -5   21.56    2.11
  -9   8   3    8.17    1.61
   9  -8  -3   10.56    2.24
   9  -8  -2   66.08    4.99
  -9   8   2   62.14    4.48
  -9   8   2   54.54    4.13
  -9   8   1   32.63    4.10
   9  -8  -1   40.98    4.21
  -9   8   1   46.18    3.87
  -9   8   1   29.70    3.03
  -9   8   0   31.68    4.18
   9  -8   0   30.77    3.27
  -9   8   0   33.47    3.54
   9  -8   1   46.39    5.03
   9  -8   1   43.10    4.53
   9  -8   1   37.80    3.69
  -9   8  -1   52.72    4.35
   9  -8   1   43.87    3.99
  -9   8  -1   35.34    4.38
   9  -8   2   13.96    3.38
   9  -8   2   14.02    2.81
   9  -8   2   14.32    2.36
  -9   8  -2   12.44    2.82
   9  -8   2   12.54    3.01
   9  -8   2   13.89    2.30
  -9   8  -2   13.11    2.75
   9  -8   3   15.59    3.36
   9  -8   3   14.96    2.36
  -9   8  -3   13.96    2.69
   9  -8   3   11.28    2.12
   9  -8   4  149.40    8.93
   9  -8   4  164.65    9.23
  -9   8  -4  169.93    9.05
  -9   8  -4  172.50    9.95
   9  -8   5   23.31    2.67
  -9   8  -5   19.19    2.20
  -9   7   5   32.37    2.82
  -9   7   4  124.76    8.68
  -9   7   4  144.54    8.82
  -9   7   3   48.09    4.75
  -9   7   3   43.60    4.34
   9  -7  -3   67.69    5.41
   9  -7  -3   54.87    4.61
  -9   7   3   73.10    5.21
  -9   7   3   51.82    4.25
  -9   7   2   57.53    5.98
   9  -7  -2   77.18    5.78
  -9   7   2   87.90    6.23
  -9   7   2   63.44    4.95
   9  -7  -1   94.46    6.90
  -9   7   1   74.49    6.80
  -9   7   1  104.98    7.42
  -9   7   1   94.67    7.98
   9  -7   0   47.04    4.86
   9  -7   0   39.70    4.34
  -9   7   0   46.01    4.99
   9  -7   0   42.31    4.67
   9  -7   0   42.80    4.13
  -9   7   0   44.82    5.32
   9  -7   1   30.10    4.57
   9  -7   1   32.70    3.51
   9  -7   1   28.28    4.17
   9  -7   1   33.13    3.89
  -9   7  -1   28.39    4.02
  -9   7  -1   32.50    4.53
   9  -7   2   11.57    3.61
  -9   7  -2    9.75    2.67
   9  -7   2   11.05    2.19
  -9   7  -2    9.43    2.47
   9  -7   2    6.07    2.98
   9  -7   2    7.14    2.19
  -9   7  -2    9.22    2.61
   9  -7   3   12.78    3.19
   9  -7   3   20.86    2.84
  -9   7  -3   14.90    2.89
  -9   7  -3   16.25    2.70
   9  -7   3   13.80    3.13
   9  -7   3   14.28    2.71
  -9   7  -4    0.11    1.54
  -9   7  -4    2.82    1.63
   9  -7   5   35.74    3.37
  -9   7  -5   27.37    2.70
  -9   7  -5   33.00    3.41
   9  -7   6  137.68    8.00
  -9   6   6   26.51    2.77
   9  -6  -5   75.97    5.73
  -9   6   5   80.76    5.90
  -9   6   4    4.17    1.80
  -9   6   4    5.45    1.90
   9  -6  -4    5.67    1.96
   9  -6  -4    3.96    1.51
  -9   6   4    1.78    1.70
  -9   6   3   93.79    7.54
   9  -6  -3  122.57    8.31
   9  -6  -3  111.99    7.84
  -9   6   3  124.55    8.96
  -9   6   3  125.92    8.55
   9  -6  -2  271.66   15.17
   9  -6  -2  268.85   14.87
  -9   6   2  264.93   15.38
   9  -6  -1  132.59    9.57
   9  -6  -1  144.43    9.74
  -9   6   1  129.06    9.49
   9  -6  -1  137.25    9.34
  -9   6   1  135.56    9.88
   9  -6   0    4.59    2.99
   9  -6   0    4.11    2.12
  -9   6   0    6.14    2.39
  -9   6   0    6.80    2.42
   9  -6   0    4.62    1.95
   9  -6   1   19.40    2.84
  -9   6  -1   19.08    3.28
   9  -6   1   18.98    3.66
   9  -6   1   23.24    3.60
  -9   6  -1   24.32    3.77
   9  -6   1   20.04    3.15
   9  -6   2   18.60    3.90
   9  -6   2   18.80    2.85
  -9   6  -2   14.37    2.80
   9  -6   2   14.55    3.31
  -9   6  -2   21.61    3.55
  -9   6  -2   16.19    3.22
  -9   6  -3   63.19    5.09
  -9   6  -3   69.14    6.13
  -9   6  -3   69.20    5.94
  -9   6  -3   60.55    5.84
  -9   6  -4   46.71    3.97
   9  -6   4   44.59    4.61
   9  -6   5  204.95   11.37
  -9   6  -5  184.02   11.54
   9  -6   6   76.69    4.95
  -9   5   7    7.98    1.66
  -9   5   6    9.93    1.99
   9  -5  -6   13.47    2.33
   9  -5  -6    9.58    1.86
  -9   5   6   12.52    2.27
  -9   5   5   78.07    6.06
   9  -5  -5   73.84    5.96
   9  -5  -5   68.14    5.68
  -9   5   5   65.65    5.86
  -9   5   4  182.98   11.88
   9  -5  -4  178.62   11.50
   9  -5  -4  172.51   11.24
  -9   5   4  171.49   11.52
   9  -5  -3  135.96    9.60
  -9   5   3  129.15    9.49
   9  -5  -3  155.18    9.84
  -9   5   3  138.90    9.83
   9  -5  -2    1.11    2.45
  -9   5   2    1.65    1.92
   9  -5  -2    4.19    2.07
  -9   5   2    2.87    2.23
   9  -5  -1   10.77    3.38
  -9   5   1   12.80    2.67
  -9   5   1   18.74    3.50
   9  -5  -1   12.00    2.81
  -9   5   1   14.95    3.42
   9  -5   0   73.12    6.65
   9  -5   0   87.76    7.19
  -9   5   0   84.48    7.01
  -9   5   0   71.11    6.98
  -9   5   0   85.86    7.28
   9  -5   0   78.41    6.84
  -9   5  -1   91.13    6.71
   9  -5   1   76.61    6.77
   9  -5   1   89.34    7.26
  -9   5  -1   88.10    7.43
  -9   5  -1   82.45    7.20
   9  -5   1   93.07    7.34
  -9   5  -2   18.17    2.83
   9  -5   2   23.27    3.50
  -9   5  -2   22.67    3.58
  -9   5  -2   19.46    3.39
  -9   5  -2   19.23    3.28
  -9   5  -2   19.52    2.92
   9  -5   3   41.05    4.06
   9  -5   3   38.60    4.30
  -9   5  -3   44.32    4.69
  -9   5  -3   40.54    4.35
  -9   5  -3   33.95    3.82
   9  -5   4   79.75    5.66
   9  -5   4   70.91    5.89
  -9   5  -4   76.16    5.77
  -9   5  -4   71.29    5.55
   9  -5   5   72.35    5.01
   9  -5   5   69.08    5.10
  -9   5  -5   74.87    5.54
  -9   5  -5   68.66    5.01
  -9   4   7   22.62    2.72
   9  -4  -7   17.16    2.56
   9  -4  -7   17.96    2.49
  -9   4   6   12.89    2.66
   9  -4  -6   18.90    2.95
   9  -4  -6   19.55    2.79
   9  -4  -6   12.31    2.17
  -9   4   5    5.74    2.42
  -9   4   5    2.88    2.01
   9  -4  -5    5.72    2.06
   9  -4  -5    4.38    1.71
  -9   4   5    5.58    2.35
  -9   4   4    2.79    1.93
   9  -4  -4    3.89    2.03
   9  -4  -4    1.31    1.61
  -9   4   4    2.05    1.78
  -9   4   4    0.23    1.90
  -9   4   3   96.19    7.53
   9  -4  -3  126.04    8.80
  -9   4   3  105.76    8.45
  -9   4   3  103.06    8.13
   9  -4  -3  118.09    8.61
   9  -4  -3  108.97    8.04
  -9   4   3  114.97    8.62
   9  -4  -2   99.40    7.72
  -9   4   2   87.97    7.71
  -9   4   2   85.95    7.45
   9  -4  -2   90.47    7.13
   9  -4  -1  266.37   15.83
   9  -4  -1  294.72   16.80
  -9   4   1  265.40   16.16
  -9   4   1  265.35   16.83
   9  -4  -1  273.42   16.25
   9  -4   0    8.60    2.66
  -9   4   0    7.60    2.32
  -9   4   0   10.00    2.84
  -9   4   0   10.05    2.89
   9  -4   0    5.97    2.07
   9  -4   1    1.94    1.84
  -9   4  -1    1.82    1.76
  -9   4  -1    2.73    2.02
   9  -4   1   -0.23    1.72
  -9   4  -1    1.57    1.87
  -9   4  -1    1.59    1.72
   9  -4   2   77.86    6.53
  -9   4  -2   91.61    7.07
  -9   4  -2   87.12    7.04
  -9   4  -2   84.44    6.60
   9  -4   2   76.84    6.34
  -9   4  -2   74.52    6.33
   9  -4   3    4.88    1.83
  -9   4  -3    6.37    2.10
  -9   4  -3    4.75    1.82
   9  -4   3    6.91    1.97
  -9   4  -3    7.13    2.11
   9  -4   4  121.93    7.81
  -9   4  -4  117.64    7.93
   9  -4   4   98.84    7.15
  -9   4  -4  110.44    7.40
  -9   4  -5   77.69    5.41
  -9   4  -5   85.74    5.27
  -9   3   8   56.77    4.23
   9  -3  -8   43.49    3.90
  -9   3   8   52.49    4.18
  -9   3   7   52.25    4.56
  -9   3   7   39.96    4.09
   9  -3  -7   42.31    4.08
   9  -3  -7   35.60    3.74
  -9   3   7   49.60    4.33
  -9   3   6   23.24    3.44
  -9   3   6   16.60    2.87
   9  -3  -6   13.49    2.45
   9  -3  -6   15.97    2.72
  -9   3   6   16.13    2.85
  -9   3   5    2.85    2.03
  -9   3   5    3.76    2.25
   9  -3  -5    4.19    2.20
   9  -3  -5    5.50    1.84
  -9   3   5    5.14    1.94
   9  -3  -5    4.70    2.01
  -9   3   5    6.42    2.28
  -9   3   4   14.25    3.02
   9  -3  -4   17.33    3.23
   9  -3  -4   17.02    2.96
   9  -3  -4   22.65    3.49
  -9   3   4   18.69    3.29
   9  -3  -4   19.61    3.24
  -9   3   4   23.46    3.55
  -9   3   3   94.07    7.27
  -9   3   3  106.41    8.39
   9  -3  -3  114.24    8.19
  -9   3   3  104.51    8.33
  -9   3   3   97.18    7.73
   9  -3  -3  109.08    8.36
   9  -3  -3  102.26    7.94
  -9   3   3   98.48    7.95
  -9   3   2   16.94    3.40
   9  -3  -2   18.64    3.13
  -9   3   2   20.84    3.49
   9  -3  -2   20.86    3.49
  -9   3   2   19.55    3.67
   9  -3  -2   21.21    3.35
  -9   3   1    6.70    2.24
   9  -3  -1    6.16    2.23
  -9   3   1    4.42    2.13
   9  -3  -1    6.08    2.19
  -9   3   1    4.23    2.42
   9  -3  -1    5.45    2.13
   9  -3   0   14.37    2.80
  -9   3   0   14.66    2.73
  -9   3   0   11.31    2.92
   9  -3   0   11.80    2.82
  -9   3   0   14.65    3.22
   9  -3   0    9.15    2.58
   9  -3   1  182.00   11.97
  -9   3  -1  195.45   12.44
  -9   3  -1  206.01   12.67
  -9   3  -1  210.56   13.06
  -9   3  -1  187.67   12.39
   9  -3   2   13.90    2.51
  -9   3  -2   15.24    2.88
  -9   3  -2   22.77    3.29
   9  -3   2   22.58    3.30
  -9   3  -2   17.52    2.75
  -9   3  -2   17.05    3.02
  -9   3  -3   63.92    5.32
  -9   3  -3   58.33    5.08
   9  -3   3   55.66    5.00
  -9   3  -3   60.04    5.10
  -9   3  -4   23.97    2.88
   9  -3   4   23.47    2.73
  -9   3  -4   24.77    2.84
  -9   3  -5   26.22    2.44
  -9   2   9   13.03    1.71
  -9   2   8  175.85    9.77
   9  -2  -8  158.40    9.39
  -9   2   8  159.09    9.20
  -9   2   7   21.62    2.99
   9  -2  -7   20.58    2.76
   9  -2  -7   22.64    3.00
   9  -2  -7   17.15    2.66
  -9   2   7   19.26    2.70
   9  -2  -6    3.61    1.67
  -9   2   6    3.85    2.00
  -9   2   6    2.75    1.95
   9  -2  -6    2.19    1.43
   9  -2  -6    4.27    1.73
   9  -2  -6    2.25    1.65
  -9   2   6    3.22    1.59
  -9   2   5    4.84    2.45
   9  -2  -5    2.81    2.07
  -9   2   5    3.38    2.05
  -9   2   5    3.94    2.25
   9  -2  -5    2.43    1.84
   9  -2  -5    4.86    1.94
  -9   2   5    3.52    1.84
   9  -2  -5    1.44    1.72
  -9   2   5    3.53    1.82
  -9   2   4   47.11    5.02
  -9   2   4   33.26    4.14
  -9   2   4   44.16    4.95
   9  -2  -4   40.78    4.37
  -9   2   4   42.45    4.25
   9  -2  -4   41.46    4.57
   9  -2  -4   37.61    4.53
  -9   2   4   37.18    4.21
  -9   2   3   71.82    6.03
  -9   2   3   80.83    6.87
   9  -2  -3   79.25    6.40
  -9   2   3   69.23    6.34
   9  -2  -3   70.32    6.44
   9  -2  -3   93.58    7.12
  -9   2   3   85.31    6.62
  -9   2   2   33.65    3.65
  -9   2   2   37.12    4.33
   9  -2  -2   26.13    3.57
  -9   2   2   32.69    4.12
   9  -2  -2   34.72    4.12
   9  -2  -2   37.16    4.38
  -9   2   1   28.63    3.66
   9  -2  -1   25.79    3.42
  -9   2   1   29.73    3.97
   9  -2  -1   28.23    3.76
   9  -2  -1   34.16    4.17
  -9   2   0   27.69    3.34
  -9   2   0   22.60    3.64
  -9   2   0   29.93    3.99
   9  -2   0   22.64    3.30
   9  -2   1   42.72    4.45
  -9   2  -1   51.78    4.72
  -9   2  -1   53.46    4.88
  -9   2  -1   50.86    5.02
  -9   2  -1   44.78    4.69
  -9   2  -2   33.96    3.74
  -9   2  -2   36.48    4.02
   9  -2   2   36.47    3.97
   9  -2   3   18.82    2.67
  -9   2  -3   18.92    2.60
  -9   2  -3   20.48    2.60
   9  -2   3   19.18    2.58
  -9   1   8   50.73    4.24
   9  -1  -8   39.59    3.67
  -9   1   7   52.12    4.70
  -9   1   7   49.79    4.35
   9  -1  -7   48.13    3.93
  -9   1   7   46.98    4.37
   9  -1  -7   42.59    4.07
   9  -1  -7   42.54    4.15
   9  -1  -7   44.15    4.11
   9  -1  -6   56.58    5.02
  -9   1   6   55.56    5.21
  -9   1   6   61.60    5.15
   9  -1  -6   54.80    4.56
  -9   1   6   56.99    5.19
   9  -1  -6   53.70    4.70
   9  -1  -6   47.52    4.67
  -9   1   6   49.29    4.70
   9  -1  -6   54.78    4.91
  -9   1   5   21.45    3.27
   9  -1  -5   17.62    3.19
  -9   1   5   17.91    3.04
   9  -1  -5   18.13    2.72
   9  -1  -5   17.93    2.70
   9  -1  -5   18.44    2.94
   9  -1  -5   22.53    3.16
  -9   1   4   34.09    4.12
   9  -1  -4   38.40    4.69
  -9   1   4   36.02    3.93
   9  -1  -4   33.38    3.68
  -9   1   4   38.15    4.41
   9  -1  -4   33.09    3.61
  -9   1   4   33.62    3.75
   9  -1  -4   31.22    3.78
  -9   1   3   91.53    6.99
  -9   1   3   82.84    6.50
   9  -1  -3   84.43    6.42
  -9   1   3   97.37    7.34
  -9   1   3   95.28    7.07
   9  -1  -3   81.42    6.64
   9  -1  -2   90.76    7.47
   9  -1  -2   86.52    6.41
  -9   1   2   88.37    6.94
  -9   1   2   88.29    7.06
   9  -1  -2   88.12    6.69
   9  -1  -2   82.62    6.98
   9  -1  -1   66.99    6.10
   9  -1  -1   65.43    5.25
  -9   1   1   66.73    5.52
  -9   1   1   66.57    5.95
   9  -1  -1   63.42    5.36
   9  -1  -1   67.17    5.89
   9  -1   0   52.38    4.82
   9  -1   0   45.12    4.16
  -9   1   0   49.32    4.88
  -9   1  -1    6.78    2.07
  -9   1  -1    5.90    1.64
  -9   1  -1    7.18    2.02
   9  -1   1    7.73    2.04
   9  -1   2    9.45    1.93
  -9   1  -2    6.22    1.56
  -9   1  -2    5.57    1.60
   9  -1   2    6.53    1.73
  -9   0   8  250.27   14.02
   9   0  -8  229.22   13.86
  -9   0   7  103.78    6.80
   9   0  -7  102.72    6.44
  -9   0   7  101.31    6.83
   9   0  -7   79.49    6.14
   9   0  -7   95.67    6.70
  -9   0   6   -0.46    1.39
   9   0  -6    0.66    1.60
  -9   0   6   -0.15    1.63
   9   0  -6    1.59    1.52
  -9   0   6    0.86    1.56
   9   0  -6    1.62    1.19
   9   0  -6    0.34    1.27
   9   0  -5   78.39    6.32
  -9   0   5   67.28    5.52
  -9   0   5   75.37    5.77
   9   0  -5   73.20    5.56
   9   0  -5   64.92    5.31
   9   0  -5   73.79    5.95
   9   0  -4    8.09    2.06
  -9   0   4    8.04    2.31
   9   0  -4    9.70    2.25
   9   0  -3  140.97    9.99
   9   0  -3  137.11    8.95
  -9   0   3  146.39    9.47
  -9   0   3  132.82    9.15
   9   0  -3  143.44    9.49
   9   0  -2  125.21    9.04
   9   0  -2  125.20    8.28
  -9   0   2  123.24    8.45
  -9   0   2  128.56    8.72
   9   0  -2  131.55    8.77
   9   0  -1   20.49    3.00
   9   0  -1   18.59    2.70
  -9   0   1   18.95    2.84
  -9   0   1   26.49    3.28
   9   0   0  253.67   14.19
  -9   0   0  273.04   14.95
  -9   0   0  245.46   14.43
   9   0   0  268.31   14.71
   9   0   0  257.85   14.32
  -9   0  -1   14.44    2.28
  -9   0  -1   18.03    2.44
   9   0   1   16.07    2.18
  -9  -1   8  144.63    8.28
   9   1  -7   75.68    5.08
  -9  -1   7   71.25    5.20
   9   1  -7   65.95    4.99
  -9  -1   6   50.31    4.20
   9   1  -6   51.58    4.19
  -9  -1   6   51.49    4.40
   9   1  -6   47.25    4.16
  -9  -1   5   65.48    5.19
   9   1  -5   67.74    5.17
   9   1  -5   70.20    5.30
   9   1  -5   71.71    5.84
   9   1  -4   18.14    2.55
  -9  -1   4   19.69    2.73
   9   1  -4   14.37    2.39
   9   1  -3   22.15    2.69
  -9  -1   3   15.57    2.51
  -9  -1   3   15.94    2.39
   9   1  -3   19.40    3.02
   9   1  -2   13.91    2.18
  -9  -1   2   11.53    1.97
  -9  -1   2   12.94    2.19
   9   1  -1  117.71    7.07
  -9  -1   1  112.68    7.39
   9   1  -1  107.70    7.02
  -9  -2   7   29.96    2.66
  -9  -2   6   34.78    3.06
  -9  -2   5   15.43    2.18
   9   2  -5   18.83    2.23
  -9  -2   5   18.35    2.31
   9   2  -4   43.45    3.56
  -9  -2   4   43.97    3.66
  10  -8  -1   61.79    4.87
 -10   8   1   63.98    4.45
  10  -8   0    6.23    2.33
 -10   8   0    4.17    1.57
  10  -8   0    7.26    1.92
 -10   8   0    7.61    1.60
  10  -8   1   15.63    2.74
  10  -8   1   15.12    2.41
 -10   8  -1   18.10    2.28
 -10   8  -2    8.04    1.70
 -10   7   4   24.73    2.38
 -10   7   3   20.97    2.42
 -10   7   3   23.78    2.61
 -10   7   2   54.78    5.02
  10  -7  -2   66.05    5.02
  10  -7  -2   61.89    4.72
 -10   7   2   59.74    4.74
 -10   7   1   52.18    4.91
  10  -7  -1   54.39    4.62
  10  -7  -1   51.43    4.39
 -10   7   1   48.79    4.34
  10  -7   0   59.63    5.04
  10  -7   0   53.65    4.80
  10  -7   0   60.75    4.86
 -10   7   0   52.09    4.77
 -10   7   0   68.77    5.13
  10  -7   1   15.80    2.97
 -10   7  -1   16.52    2.76
  10  -7   1   16.60    2.72
  10  -7   1   15.14    2.40
 -10   7  -1   15.26    2.46
 -10   7  -2   11.57    2.23
  10  -7   2   12.45    2.09
 -10   7  -2   11.43    2.12
  10  -7   3   27.62    2.63
 -10   7  -3   22.99    2.83
 -10   6   5    9.18    1.63
 -10   6   4   73.78    5.24
  10  -6  -4   73.24    5.37
  10  -6  -4   67.47    5.15
 -10   6   4   71.15    5.26
 -10   6   3   36.88    3.82
  10  -6  -3   40.11    3.97
  10  -6  -3   35.55    3.64
  10  -6  -3   33.02    3.38
 -10   6   3   32.44    3.79
 -10   6   3   41.09    3.87
  10  -6  -2   59.38    5.12
  10  -6  -2   63.32    5.16
  10  -6  -2   58.28    4.82
 -10   6   2   60.44    5.16
  10  -6  -1   76.31    5.99
  10  -6  -1   85.93    6.27
 -10   6   1   70.44    5.72
  10  -6  -1   84.74    6.06
 -10   6   1   79.46    6.22
  10  -6   0    8.86    2.89
  10  -6   0    5.78    2.29
 -10   6   0    7.46    1.86
  10  -6   1   36.89    3.88
 -10   6  -1   42.33    4.20
 -10   6  -1   45.80    4.72
  10  -6   2   20.67    2.80
 -10   6  -2   23.74    2.98
 -10   6  -2   20.44    2.92
 -10   6  -3    3.18    1.32
 -10   5   6   11.47    1.67
 -10   5   5   27.75    2.97
  10  -5  -5   24.63    2.84
  10  -5  -5   21.36    2.56
 -10   5   4   71.22    5.72
  10  -5  -4   69.34    5.39
  10  -5  -3   55.28    4.91
  10  -5  -3   61.98    5.04
 -10   5   3   55.08    4.92
  10  -5  -2  157.95   10.24
  10  -5  -2  175.42   10.80
 -10   5   2  162.43   10.80
  10  -5  -2  180.76   10.86
 -10   5   2  174.83   10.93
  10  -5  -1   30.29    3.73
  10  -5  -1   40.80    4.16
 -10   5   1   37.29    4.10
  10  -5  -1   38.21    4.01
  10  -5   0   25.81    3.32
 -10   5   0   23.64    3.12
 -10   5   0   29.38    3.64
 -10   5   0   27.23    3.58
  10  -5   0   32.62    3.61
  10  -5   1   86.66    6.28
 -10   5  -1   82.32    6.22
 -10   5  -1   80.49    6.40
 -10   5  -1   79.64    6.31
  10  -5   2   36.19    3.63
 -10   5  -2   38.59    3.80
 -10   5  -2   40.82    3.93
 -10   5  -2   38.45    3.96
  10  -5   3   57.74    4.55
 -10   5  -3   61.59    4.72
 -10   4   7    0.86    0.86
 -10   4   6   46.12    3.92
  10  -4  -6   42.07    3.70
 -10   4   6   50.53    3.98
 -10   4   5   18.26    2.68
  10  -4  -5   16.90    2.47
 -10   4   5   13.68    2.29
  10  -4  -5   19.85    2.61
  10  -4  -5   18.69    2.49
  10  -4  -5   15.88    2.14
 -10   4   5   15.08    2.43
 -10   4   4   43.47    4.13
  10  -4  -4   62.34    4.99
 -10   4   4   56.75    4.77
  10  -4  -4   60.85    4.91
  10  -4  -4   48.65    4.37
 -10   4   4   59.89    4.89
  10  -4  -3   16.12    2.77
  10  -4  -3   17.47    2.78
 -10   4   3   17.30    2.61
  10  -4  -3   15.01    2.40
 -10   4   3   15.89    2.71
 -10   4   3   20.57    2.98
  10  -4  -2   17.71    2.79
 -10   4   2   20.05    3.24
 -10   4   2   17.19    2.85
  10  -4  -2   15.70    2.44
 -10   4   2   21.49    3.02
  10  -4  -1   97.99    7.03
 -10   4   1   84.84    7.03
  10  -4  -1  104.45    7.32
  10  -4   0   11.71    2.36
 -10   4   0    7.75    1.79
 -10   4   0    6.81    2.03
 -10   4   0   10.79    2.37
  10  -4   1   24.28    2.99
 -10   4  -1   25.14    3.04
 -10   4  -1   31.56    3.51
 -10   4  -1   27.53    3.21
  10  -4   1   27.18    3.06
 -10   4  -2   18.98    2.51
 -10   4  -2   18.62    2.53
  10  -4   2   18.43    2.31
 -10   3   7   11.79    1.84
 -10   3   7    9.32    1.50
 -10   3   6    2.16    1.40
  10  -3  -6    1.77    1.09
  10  -3  -6    2.26    1.19
  10  -3  -6    1.93    1.06
 -10   3   6    1.21    1.24
 -10   3   5    3.41    1.86
  10  -3  -5    3.73    1.57
 -10   3   5    2.08    1.39
  10  -3  -5    2.60    1.38
  10  -3  -5    2.81    1.33
  10  -3  -5    2.34    1.29
 -10   3   5    2.30    1.32
 -10   3   5    2.23    1.37
 -10   3   4   29.48    3.58
 -10   3   4   25.23    2.95
  10  -3  -4   25.71    3.12
 -10   3   4   26.05    3.18
  10  -3  -4   28.50    3.31
  10  -3  -4   21.81    2.94
 -10   3   4   26.60    3.12
 -10   3   3    8.22    2.29
  10  -3  -3    7.68    1.98
 -10   3   3    5.87    1.84
  10  -3  -3    7.37    1.93
 -10   3   3    7.73    2.03
  10  -3  -3    7.43    1.92
 -10   3   3    7.80    1.95
  10  -3  -2   23.72    3.00
 -10   3   2   21.47    3.01
  10  -3  -2   21.21    2.97
  10  -3  -2   21.07    2.88
 -10   3   2   21.07    2.84
  10  -3  -1   20.41    2.64
 -10   3   1   22.55    3.09
 -10   3   1   20.18    2.99
  10  -3  -1   22.55    2.93
  10  -3   0   14.03    2.55
  10  -3   0   14.31    2.15
 -10   3   0   15.06    2.60
 -10   3   0   12.82    2.36
  10  -3   1   15.27    2.26
 -10   3  -1   14.98    2.15
 -10   3  -1   16.59    2.53
 -10   3  -1   16.89    2.28
  10  -3   1   17.65    2.45
  10  -3   2   79.73    5.68
 -10   3  -2   88.06    5.83
  10  -3   2   81.64    5.58
 -10   2   7   26.94    2.68
 -10   2   7   23.21    2.41
 -10   2   6   11.85    2.08
  10  -2  -6   10.18    1.73
 -10   2   6    9.50    1.85
  10  -2  -6   12.98    1.97
  10  -2  -6    8.71    1.73
 -10   2   5    6.30    1.86
  10  -2  -5    7.68    1.93
 -10   2   5    4.98    1.60
  10  -2  -5    4.87    1.46
  10  -2  -5    4.08    1.45
 -10   2   5    6.60    1.68
  10  -2  -5    6.41    1.64
 -10   2   4   99.52    6.78
  10  -2  -4   97.71    7.14
 -10   2   4   90.60    6.19
 -10   2   4   99.26    6.92
  10  -2  -4   90.61    6.26
 -10   2   4   86.48    6.62
  10  -2  -4   99.59    6.70
  10  -2  -4   90.63    6.65
 -10   2   3   78.23    5.74
 -10   2   3   73.03    5.77
 -10   2   3   81.69    6.10
 -10   2   3   69.90    5.54
  10  -2  -3   72.54    5.61
  10  -2  -3   76.07    5.82
 -10   2   2   52.10    4.30
  10  -2  -2   60.68    5.11
 -10   2   2   42.51    4.11
 -10   2   2   47.55    4.56
 -10   2   2   48.14    4.40
  10  -2  -2   51.95    4.35
  10  -2  -2   53.39    4.59
  10  -2  -1   24.46    3.24
 -10   2   1   27.70    3.27
 -10   2   1   30.71    3.33
  10  -2   0   79.44    5.62
 -10   2   0   77.32    5.54
 -10   2   0   72.45    5.67
  10  -2   0   79.64    5.73
  10  -2   1   34.01    3.21
 -10   2  -1   35.80    3.37
  10  -2   1   38.91    3.34
 -10   1   7    5.60    1.25
 -10   1   7    7.60    1.41
 -10   1   6   34.72    3.10
 -10   1   6   32.84    3.01
 -10   1   6   33.24    3.18
  10  -1  -6   33.49    3.06
  10  -1  -5  112.84    7.01
 -10   1   5   98.19    6.35
 -10   1   5   95.90    6.27
 -10   1   5  105.81    6.69
  10  -1  -5   86.49    6.13
  10  -1  -4   40.75    3.93
 -10   1   4   32.99    3.11
 -10   1   4   35.71    3.52
 -10   1   4   35.62    3.58
  10  -1  -4   34.90    3.18
  10  -1  -4   37.00    3.51
  10  -1  -3   32.47    3.50
 -10   1   3   29.24    3.12
 -10   1   3   25.56    2.89
  10  -1  -3   34.94    3.31
  10  -1  -2   21.26    2.83
 -10   1   2   16.97    2.57
 -10   1   2   19.03    2.47
  10  -1  -1   30.75    3.13
 -10   1   1   34.41    3.20
 -10   1   1   31.48    3.15
  10  -1   0    9.64    1.64
 -10   0   6   72.95    4.69
 -10   0   5   70.95    4.68
 -10   0   4    4.18    1.19
  10   0  -4    4.33    1.26
  10   0  -3    1.89    1.22
 -10   0   3    3.40    1.20
 -11   7   1   66.56    4.62
 -11   7   1   80.30    4.76
 -11   7   0   38.24    2.99
 -11   6   3   26.47    2.41
 -11   6   2  121.83    7.36
 -11   6  -1   49.27    3.59
 -11   5   4   13.00    1.75
 -11   5   4   13.58    1.65
 -11   5   3    8.67    1.50
 -11   5   2   19.19    2.36
 -11   5   2   17.59    2.15
 -11   5   1  263.06   14.14
 -11   5   0  127.60    7.49
 -11   4   4    7.65    1.43
  11  -4  -4    5.37    1.34
 -11   4   4    6.51    1.18
 -11   4   3   36.18    3.11
  11  -4  -3   37.25    3.27
 -11   4   3   31.25    2.76
 -11   4   2    8.12    1.56
  11  -4  -2    7.40    1.69
 -11   4   2    6.19    1.32
 -11   4   1   16.59    1.95
  11  -4  -1   19.67    2.35
 -11   4   1   17.20    1.86
  11  -4   0   25.31    2.39
 -11   3   4    7.32    1.36
  11  -3  -4   10.59    1.62
 -11   3   3   11.79    1.57
  11  -3  -2   11.81    1.81
  11  -3  -1    9.43    1.57
  11  -2  -4   16.35    1.85
  11  -2  -3    0.77    0.83
   0   0   0    0.00    0.00



TITL JLF854 in P-1
REM P-1 (#2 in standard setting)
CELL 1.54184   9.130199   9.157750  10.226017 108.9861  98.4173 114.0369
ZERR    1.00   0.000333   0.000516   0.000412   0.0044   0.0032   0.0044
LATT  1
SFAC C H N O
UNIT 35.00 32.00 1.00 5.00
TREF
HKLF 4
END
_computing_structure_solution     'SHELXT 2014/5 (Sheldrick, 2014)'
_computing_structure_solution     'SHELXT 2014/5 (Sheldrick, 2014)'
;
_shelx_hkl_checksum              92658
_publcif_funding_html
;
;
loop_
_space_group_symop_operation_xyz
'x, y, z'
loop_
_atom_site_label
_atom_site_type_symbol
_atom_site_fract_x
_atom_site_fract_y
_atom_site_fract_z
_atom_site_U_iso_or_equiv
_atom_site_adp_type
_atom_site_occupancy
_atom_site_site_symmetry_order
_atom_site_calc_flag
_atom_site_refinement_flags_posn
_atom_site_refinement_flags_adp
C1 C 0.9094(4) 0.2887(4) 0.9756(4) 0.0348(7) Uani 1 1 d . .
H1A H 0.813673 0.176617 0.908960 0.052 Uiso 1 1 calc R U
H1B H 0.918348 0.302616 1.074090 0.052 Uiso 1 1 calc R U
H1C H 1.010747 0.293871 0.956343 0.052 Uiso 1 1 calc R U
C2 C 0.8779(3) 0.4296(4) 0.8231(3) 0.0260(6) Uani 1 1 d . .
C3 C 0.8770(3) 0.3024(4) 0.7032(3) 0.0265(6) Uani 1 1 d . .
H3 H 0.887227 0.208324 0.710879 0.032 Uiso 1 1 calc R U
C4 C 0.8607(3) 0.3169(4) 0.5710(3) 0.0273(6) Uani 1 1 d . .
H4 H 0.857106 0.229532 0.490108 0.033 Uiso 1 1 calc R U
C5 C 0.8615(3) 0.5698(4) 0.8095(3) 0.0281(6) Uani 1 1 d . .
H5 H 0.858609 0.653529 0.888832 0.034 Uiso 1 1 calc R U
C6 C 0.8497(3) 0.5842(4) 0.6782(3) 0.0269(6) Uani 1 1 d . .
H6 H 0.841672 0.679448 0.670895 0.032 Uiso 1 1 calc R U
C7 C 0.8497(3) 0.4580(4) 0.5565(3) 0.0268(6) Uani 1 1 d . .
C8 C 0.8417(4) 0.4740(4) 0.4145(3) 0.0299(6) Uani 1 1 d . .
H8A H 0.944890 0.575172 0.426648 0.036 Uiso 1 1 calc R U
H8B H 0.831934 0.368971 0.340755 0.036 Uiso 1 1 calc R U
C9 C 0.6751(3) 0.4909(4) 0.2273(3) 0.0271(6) Uani 1 1 d . .
H9A H 0.652907 0.377503 0.156372 0.033 Uiso 1 1 calc R U
H9B H 0.776073 0.582659 0.225423 0.033 Uiso 1 1 calc R U
C10 C 0.5247(3) 0.5207(4) 0.1898(3) 0.0252(6) Uani 1 1 d . .
H10 H 0.435891 0.448576 0.220098 0.030 Uiso 1 1 calc R U
C11 C 0.4538(4) 0.4540(5) 0.0247(3) 0.0336(7) Uani 1 1 d . .
H11A H 0.542913 0.509006 -0.011050 0.050 Uiso 1 1 calc R U
H11B H 0.366136 0.483077 0.002752 0.050 Uiso 1 1 calc R U
H11C H 0.407830 0.328168 -0.021490 0.050 Uiso 1 1 calc R U
C12 C 0.5767(3) 0.7182(4) 0.2815(3) 0.0241(6) Uani 1 1 d . .
H12 H 0.670018 0.761329 0.369475 0.029 Uiso 1 1 calc R U
C13 C 0.6465(4) 0.8302(4) 0.2030(4) 0.0314(7) Uani 1 1 d . .
H13 H 0.739505 0.831066 0.175649 0.038 Uiso 1 1 calc R U
C14 C 0.5872(4) 0.9277(4) 0.1696(4) 0.0321(7) Uani 1 1 d . .
H14 H 0.642034 0.994143 0.122523 0.039 Uiso 1 1 calc R U
C15 C 0.4354(3) 0.9368(4) 0.2036(3) 0.0257(6) Uani 1 1 d . .
H15 H 0.476543 1.040387 0.296324 0.031 Uiso 1 1 calc R U
C16 C 0.3309(4) 0.9584(4) 0.0867(3) 0.0291(6) Uani 1 1 d . .
H16A H 0.399683 1.069578 0.083372 0.035 Uiso 1 1 calc R U
H16B H 0.298992 0.863759 -0.008125 0.035 Uiso 1 1 calc R U
C17 C 0.1735(3) 0.9548(4) 0.1178(3) 0.0254(6) Uani 1 1 d . .
C18 C 0.0945(4) 1.0391(4) 0.0497(4) 0.0297(6) Uani 1 1 d . .
H18A H -0.006246 1.025291 0.074538 0.045 Uiso 1 1 calc R U
H18B H 0.065970 0.983330 -0.054607 0.045 Uiso 1 1 calc R U
H18C H 0.173351 1.162664 0.085530 0.045 Uiso 1 1 calc R U
C19 C 0.1109(3) 0.8817(4) 0.2036(3) 0.0252(6) Uani 1 1 d . .
H19 H 0.015877 0.886651 0.222035 0.030 Uiso 1 1 calc R U
C20 C 0.1793(3) 0.7915(4) 0.2735(3) 0.0229(6) Uani 1 1 d . .
H20A H 0.088218 0.674951 0.250005 0.028 Uiso 1 1 calc R U
H20B H 0.220146 0.858525 0.378783 0.028 Uiso 1 1 calc R U
C21 C 0.3238(3) 0.7731(4) 0.2236(3) 0.0222(6) Uani 1 1 d . .
H21 H 0.275401 0.668738 0.130174 0.027 Uiso 1 1 calc R U
C22 C 0.4379(3) 0.7538(4) 0.3358(3) 0.0218(6) Uani 1 1 d . .
H22 H 0.496976 0.866571 0.423166 0.026 Uiso 1 1 calc R U
C23 C 0.3376(3) 0.6135(4) 0.3817(3) 0.0214(5) Uani 1 1 d . .
C24 C 0.5568(3) 0.7640(4) 0.6303(3) 0.0259(6) Uani 1 1 d . .
C25 C 0.3991(5) 0.5919(4) 0.7316(4) 0.0380(7) Uani 1 1 d . .
H25 H 0.354724 0.566733 0.802698 0.046 Uiso 1 1 calc R U
C26 C 0.3198(3) 0.4900(4) 0.5671(3) 0.0250(6) Uani 1 1 d . .
H26 H 0.197320 0.446800 0.538093 0.030 Uiso 1 1 calc R U
C27 C 0.3574(3) 0.3376(4) 0.5018(3) 0.0258(6) Uani 1 1 d . .
H27A H 0.298451 0.276047 0.397316 0.031 Uiso 1 1 calc R U
H27B H 0.477941 0.386529 0.516300 0.031 Uiso 1 1 calc R U
C28 C 0.3056(3) 0.2069(4) 0.5674(3) 0.0238(6) Uani 1 1 d . .
C29 C 0.1363(3) 0.1088(4) 0.5567(3) 0.0268(6) Uani 1 1 d . .
H29 H 0.053723 0.125464 0.508807 0.032 Uiso 1 1 calc R U
C30 C 0.0903(4) -0.0121(4) 0.6161(4) 0.0310(6) Uani 1 1 d . .
H30 H -0.022603 -0.075159 0.608649 0.037 Uiso 1 1 calc R U
C31 C 0.2115(4) -0.0404(4) 0.6872(3) 0.0310(7) Uani 1 1 d . .
H31 H 0.180441 -0.122628 0.726502 0.037 Uiso 1 1 calc R U
C32 C 0.3796(4) 0.0563(4) 0.6983(3) 0.0285(6) Uani 1 1 d . .
H32 H 0.461816 0.038950 0.745754 0.034 Uiso 1 1 calc R U
C33 C 0.4258(3) 0.1781(4) 0.6395(3) 0.0262(6) Uani 1 1 d . .
H33 H 0.539000 0.242001 0.648216 0.031 Uiso 1 1 calc R U
N N 0.4048(3) 0.6303(3) 0.5210(3) 0.0233(5) Uani 1 1 d . .
O1 O 0.8877(3) 0.4266(3) 0.9569(2) 0.0327(5) Uani 1 1 d . .
O2 O 0.6993(2) 0.4950(3) 0.3688(2) 0.0285(5) Uani 1 1 d . .
O3 O 0.2012(2) 0.4836(3) 0.3040(2) 0.0262(4) Uani 1 1 d . .
O4 O 0.5612(3) 0.7389(3) 0.7531(2) 0.0345(5) Uani 1 1 d . .
O5 O 0.6711(2) 0.8847(3) 0.6243(2) 0.0305(5) Uani 1 1 d . .
loop_
_atom_site_aniso_label
_atom_site_aniso_U_11
_atom_site_aniso_U_22
_atom_site_aniso_U_33
_atom_site_aniso_U_23
_atom_site_aniso_U_13
_atom_site_aniso_U_12
C1 0.0365(16) 0.0367(17) 0.0319(16) 0.0195(14) 0.0039(13) 0.0170(14)
C2 0.0188(12) 0.0302(15) 0.0266(15) 0.0149(13) 0.0016(10) 0.0097(11)
C3 0.0205(13) 0.0306(15) 0.0354(16) 0.0178(14) 0.0079(11) 0.0160(12)
C4 0.0227(13) 0.0336(16) 0.0324(16) 0.0156(13) 0.0106(11) 0.0180(12)
C5 0.0253(14) 0.0248(14) 0.0303(15) 0.0102(13) 0.0038(11) 0.0117(12)
C6 0.0207(13) 0.0267(14) 0.0342(16) 0.0168(13) 0.0050(11) 0.0107(11)
C7 0.0174(12) 0.0362(16) 0.0342(17) 0.0201(14) 0.0099(11) 0.0149(11)
C8 0.0260(14) 0.0439(17) 0.0380(17) 0.0264(15) 0.0170(12) 0.0238(13)
C9 0.0258(14) 0.0393(16) 0.0314(15) 0.0216(13) 0.0148(11) 0.0222(12)
C10 0.0217(13) 0.0331(15) 0.0286(14) 0.0170(13) 0.0092(10) 0.0170(12)
C11 0.0356(16) 0.0458(18) 0.0279(16) 0.0165(15) 0.0113(12) 0.0262(14)
C12 0.0166(12) 0.0313(14) 0.0319(15) 0.0183(13) 0.0094(10) 0.0138(11)
C13 0.0208(12) 0.0432(18) 0.0437(18) 0.0275(15) 0.0170(12) 0.0183(12)
C14 0.0260(14) 0.0421(17) 0.0456(18) 0.0321(16) 0.0194(13) 0.0189(13)
C15 0.0216(13) 0.0324(15) 0.0305(15) 0.0197(13) 0.0090(10) 0.0145(11)
C16 0.0291(14) 0.0380(17) 0.0368(16) 0.0258(15) 0.0149(12) 0.0218(13)
C17 0.0218(13) 0.0264(14) 0.0296(15) 0.0130(12) 0.0047(11) 0.0136(11)
C18 0.0291(14) 0.0332(16) 0.0319(15) 0.0173(13) 0.0071(12) 0.0179(13)
C19 0.0181(12) 0.0296(14) 0.0278(14) 0.0112(13) 0.0043(10) 0.0135(11)
C20 0.0185(12) 0.0275(14) 0.0261(14) 0.0132(12) 0.0078(10) 0.0126(11)
C21 0.0188(12) 0.0276(13) 0.0246(13) 0.0145(11) 0.0076(10) 0.0123(10)
C22 0.0180(12) 0.0269(14) 0.0247(14) 0.0134(12) 0.0072(10) 0.0127(11)
C23 0.0197(12) 0.0262(13) 0.0236(13) 0.0120(11) 0.0081(10) 0.0143(11)
C24 0.0288(14) 0.0272(14) 0.0242(14) 0.0117(12) 0.0045(11) 0.0167(12)
C25 0.054(2) 0.0350(17) 0.0276(16) 0.0170(15) 0.0178(14) 0.0192(15)
C26 0.0261(13) 0.0295(14) 0.0288(15) 0.0180(13) 0.0121(11) 0.0163(12)
C27 0.0243(13) 0.0289(15) 0.0311(15) 0.0167(13) 0.0135(11) 0.0143(12)
C28 0.0226(13) 0.0250(14) 0.0256(14) 0.0108(12) 0.0099(10) 0.0126(11)
C29 0.0228(13) 0.0341(15) 0.0365(16) 0.0207(14) 0.0144(11) 0.0192(12)
C30 0.0267(14) 0.0352(16) 0.0424(18) 0.0213(15) 0.0186(12) 0.0187(13)
C31 0.0395(17) 0.0338(16) 0.0317(16) 0.0200(14) 0.0178(13) 0.0216(14)
C32 0.0287(14) 0.0304(15) 0.0277(15) 0.0118(13) 0.0047(11) 0.0174(12)
C33 0.0219(13) 0.0274(14) 0.0283(14) 0.0101(12) 0.0077(10) 0.0125(11)
N 0.0232(11) 0.0261(12) 0.0239(12) 0.0135(10) 0.0077(9) 0.0126(10)
O1 0.0381(11) 0.0336(11) 0.0275(11) 0.0147(10) 0.0048(9) 0.0189(10)
O2 0.0249(10) 0.0446(12) 0.0329(11) 0.0246(10) 0.0144(8) 0.0239(9)
O3 0.0198(9) 0.0282(10) 0.0313(11) 0.0146(9) 0.0075(7) 0.0111(8)
O4 0.0431(12) 0.0311(11) 0.0263(11) 0.0138(9) 0.0043(9) 0.0166(10)
O5 0.0251(10) 0.0294(11) 0.0307(11) 0.0120(9) 0.0021(8) 0.0106(9)
loop_
_atom_type_symbol
_atom_type_description
_atom_type_scat_dispersion_real
_atom_type_scat_dispersion_imag
_atom_type_scat_source
C C 0.0181 0.0091 'International Tables Vol C Tables 4.2.6.8 and 6.1.1.4'
H H 0.0000 0.0000 'International Tables Vol C Tables 4.2.6.8 and 6.1.1.4'
N N 0.0311 0.0180 'International Tables Vol C Tables 4.2.6.8 and 6.1.1.4'
O O 0.0492 0.0322 'International Tables Vol C Tables 4.2.6.8 and 6.1.1.4'
loop_
_geom_angle_atom_site_label_1
_geom_angle_atom_site_label_2
_geom_angle_atom_site_label_3
_geom_angle
O1 C1 H1A 109.5
O1 C1 H1B 109.5
H1A C1 H1B 109.5
O1 C1 H1C 109.5
H1A C1 H1C 109.5
H1B C1 H1C 109.5
O1 C2 C3 124.7(2)
O1 C2 C5 115.7(3)
C3 C2 C5 119.6(3)
C2 C3 C4 119.4(3)
C2 C3 H3 120.3
C4 C3 H3 120.3
C7 C4 C3 121.9(3)
C7 C4 H4 119.1
C3 C4 H4 119.1
C6 C5 C2 120.1(3)
C6 C5 H5 119.9
C2 C5 H5 119.9
C5 C6 C7 121.0(3)
C5 C6 H6 119.5
C7 C6 H6 119.5
C4 C7 C6 118.0(3)
C4 C7 C8 120.3(3)
C6 C7 C8 121.7(3)
O2 C8 C7 109.6(2)
O2 C8 H8A 109.7
C7 C8 H8A 109.7
O2 C8 H8B 109.7
C7 C8 H8B 109.7
H8A C8 H8B 108.2
O2 C9 C10 108.1(2)
O2 C9 H9A 110.1
C10 C9 H9A 110.1
O2 C9 H9B 110.1
C10 C9 H9B 110.1
H9A C9 H9B 108.4
C9 C10 C11 110.1(2)
C9 C10 C12 109.6(2)
C11 C10 C12 115.1(2)
C9 C10 H10 107.2
C11 C10 H10 107.2
C12 C10 H10 107.2
C10 C11 H11A 109.5
C10 C11 H11B 109.5
H11A C11 H11B 109.5
C10 C11 H11C 109.5
H11A C11 H11C 109.5
H11B C11 H11C 109.5
C13 C12 C22 109.2(2)
C13 C12 C10 111.6(2)
C22 C12 C10 116.5(2)
C13 C12 H12 106.3
C22 C12 H12 106.3
C10 C12 H12 106.3
C14 C13 C12 125.6(3)
C14 C13 H13 117.2
C12 C13 H13 117.2
C13 C14 C15 123.4(3)
C13 C14 H14 118.3
C15 C14 H14 118.3
C14 C15 C21 110.5(2)
C14 C15 C16 112.5(2)
C21 C15 C16 110.3(2)
C14 C15 H15 107.8
C21 C15 H15 107.8
C16 C15 H15 107.8
C17 C16 C15 111.5(2)
C17 C16 H16A 109.3
C15 C16 H16A 109.3
C17 C16 H16B 109.3
C15 C16 H16B 109.3
H16A C16 H16B 108.0
C19 C17 C18 122.5(3)
C19 C17 C16 120.4(2)
C18 C17 C16 117.1(3)
C17 C18 H18A 109.5
C17 C18 H18B 109.5
H18A C18 H18B 109.5
C17 C18 H18C 109.5
H18A C18 H18C 109.5
H18B C18 H18C 109.5
C17 C19 C20 126.0(3)
C17 C19 H19 117.0
C20 C19 H19 117.0
C19 C20 C21 112.9(2)
C19 C20 H20A 109.0
C21 C20 H20A 109.0
C19 C20 H20B 109.0
C21 C20 H20B 109.0
H20A C20 H20B 107.8
C15 C21 C20 110.3(2)
C15 C21 C22 107.6(2)
C20 C21 C22 111.8(2)
C15 C21 H21 109.0
C20 C21 H21 109.0
C22 C21 H21 109.0
C23 C22 C21 112.3(2)
C23 C22 C12 109.9(2)
C21 C22 C12 112.9(2)
C23 C22 H22 107.1
C21 C22 H22 107.1
C12 C22 H22 107.1
O3 C23 N 117.3(2)
O3 C23 C22 124.0(2)
N C23 C22 118.6(2)
O5 C24 O4 122.1(3)
O5 C24 N 129.0(3)
O4 C24 N 108.9(2)
O4 C25 C26 104.3(2)
O4 C25 H25 127.9
C26 C25 H25 127.9
N C26 C25 100.5(2)
N C26 C27 110.3(2)
C25 C26 C27 113.9(2)
N C26 H26 110.6
C25 C26 H26 110.6
C27 C26 H26 110.6
C28 C27 C26 113.5(2)
C28 C27 H27A 108.9
C26 C27 H27A 108.9
C28 C27 H27B 108.9
C26 C27 H27B 108.9
H27A C27 H27B 107.7
C33 C28 C29 117.9(2)
C33 C28 C27 120.5(2)
C29 C28 C27 121.6(2)
C30 C29 C28 121.0(3)
C30 C29 H29 119.5
C28 C29 H29 119.5
C29 C30 C31 120.6(3)
C29 C30 H30 119.7
C31 C30 H30 119.7
C32 C31 C30 118.8(3)
C32 C31 H31 120.6
C30 C31 H31 120.6
C33 C32 C31 120.6(3)
C33 C32 H32 119.7
C31 C32 H32 119.7
C32 C33 C28 121.1(2)
C32 C33 H33 119.4
C28 C33 H33 119.4
C24 N C23 128.9(2)
C24 N C26 110.0(2)
C23 N C26 121.0(2)
C2 O1 C1 117.1(2)
C9 O2 C8 111.79(19)
C24 O4 C25 109.7(2)
loop_
_geom_bond_atom_site_label_1
_geom_bond_atom_site_label_2
_geom_bond_distance
C1 O1 1.421(4)
C1 H1A 0.9600
C1 H1B 0.9600
C1 H1C 0.9600
C2 O1 1.368(4)
C2 C3 1.386(4)
C2 C5 1.399(4)
C3 C4 1.393(4)
C3 H3 0.9300
C4 C7 1.388(4)
C4 H4 0.9300
C5 C6 1.385(4)
C5 H5 0.9300
C6 C7 1.396(4)
C6 H6 0.9300
C7 C8 1.501(4)
C8 O2 1.424(3)
C8 H8A 0.9700
C8 H8B 0.9700
C9 O2 1.417(3)
C9 C10 1.525(3)
C9 H9A 0.9700
C9 H9B 0.9700
C10 C11 1.526(4)
C10 C12 1.563(4)
C10 H10 0.9800
C11 H11A 0.9600
C11 H11B 0.9600
C11 H11C 0.9600
C12 C13 1.502(4)
C12 C22 1.564(4)
C12 H12 0.9800
C13 C14 1.322(4)
C13 H13 0.9300
C14 C15 1.505(4)
C14 H14 0.9300
C15 C21 1.530(4)
C15 C16 1.533(4)
C15 H15 0.9800
C16 C17 1.506(4)
C16 H16A 0.9700
C16 H16B 0.9700
C17 C19 1.327(4)
C17 C18 1.503(4)
C18 H18A 0.9600
C18 H18B 0.9600
C18 H18C 0.9600
C19 C20 1.502(4)
C19 H19 0.9300
C20 C21 1.533(4)
C20 H20A 0.9700
C20 H20B 0.9700
C21 C22 1.538(3)
C21 H21 0.9800
C22 C23 1.507(4)
C22 H22 0.9800
C23 O3 1.219(3)
C23 N 1.398(3)
C24 O5 1.199(4)
C24 O4 1.346(3)
C24 N 1.395(4)
C25 O4 1.463(4)
C25 C26 1.516(4)
C25 H25 0.9300
C26 N 1.471(3)
C26 C27 1.537(4)
C26 H26 0.9800
C27 C28 1.504(4)
C27 H27A 0.9700
C27 H27B 0.9700
C28 C33 1.394(4)
C28 C29 1.401(4)
C29 C30 1.381(4)
C29 H29 0.9300
C30 C31 1.394(4)
C30 H30 0.9300
C31 C32 1.388(4)
C31 H31 0.9300
C32 C33 1.383(4)
C32 H32 0.9300
C33 H33 0.9300
loop_
_publcif_info_exptl_table_extra_item
sin_theta_over_lambda_max
